
  Mrv1652309121709242D          

 21 23  0  0  0  0            999 V2000
    7.7858    1.9354    0.0000 C   0  0  0  0  0  0  0  0  0  0  0  0
    7.7858    1.1104    0.0000 C   0  0  0  0  0  0  0  0  0  0  0  0
    7.0714    0.6979    0.0000 C   0  0  0  0  0  0  0  0  0  0  0  0
    6.3569    1.1104    0.0000 N   0  0  0  0  0  0  0  0  0  0  0  0
    6.3569    1.9354    0.0000 C   0  0  0  0  0  0  0  0  0  0  0  0
    7.0714    2.3479    0.0000 C   0  0  0  0  0  0  0  0  0  0  0  0
    5.6424    0.6979    0.0000 C   0  0  0  0  0  0  0  0  0  0  0  0
    5.6424   -0.1271    0.0000 O   0  0  0  0  0  0  0  0  0  0  0  0
    4.9279    1.1104    0.0000 C   0  0  0  0  0  0  0  0  0  0  0  0
    4.2135    0.6979    0.0000 C   0  0  0  0  0  0  0  0  0  0  0  0
    3.4990    1.1104    0.0000 C   0  0  0  0  0  0  0  0  0  0  0  0
    2.7845    0.6979    0.0000 C   0  0  0  0  0  0  0  0  0  0  0  0
    2.0701    1.1104    0.0000 C   0  0  0  0  0  0  0  0  0  0  0  0
    1.3556    0.6979    0.0000 C   0  0  0  0  0  0  0  0  0  0  0  0
    0.6411    1.1104    0.0000 C   0  0  0  0  0  0  0  0  0  0  0  0
    0.6411    1.9354    0.0000 C   0  0  0  0  0  0  0  0  0  0  0  0
    1.3556    2.3479    0.0000 C   0  0  0  0  0  0  0  0  0  0  0  0
    2.0701    1.9354    0.0000 C   0  0  0  0  0  0  0  0  0  0  0  0
   -0.1435    2.1904    0.0000 O   0  0  0  0  0  0  0  0  0  0  0  0
   -0.6284    1.5229    0.0000 C   0  0  0  0  0  0  0  0  0  0  0  0
   -0.1435    0.8555    0.0000 O   0  0  0  0  0  0  0  0  0  0  0  0
  1  2  1  0  0  0  0
  2  3  1  0  0  0  0
  3  4  1  0  0  0  0
  4  5  1  0  0  0  0
  5  6  1  0  0  0  0
  1  6  1  0  0  0  0
  4  7  1  0  0  0  0
  7  8  2  0  0  0  0
  7  9  1  0  0  0  0
  9 10  2  0  0  0  0
 10 11  1  0  0  0  0
 11 12  2  0  0  0  0
 12 13  1  0  0  0  0
 13 14  2  0  0  0  0
 14 15  1  0  0  0  0
 15 16  2  0  0  0  0
 16 17  1  0  0  0  0
 17 18  2  0  0  0  0
 13 18  1  0  0  0  0
 16 19  1  0  0  0  0
 19 20  1  0  0  0  0
 20 21  1  0  0  0  0
 15 21  1  0  0  0  0
M  END
> <DATABASE_ID>
DB12582

> <DATABASE_NAME>
drugbank

> <SMILES>
O=C(\C=C\C=C\C1=CC2=C(OCO2)C=C1)N1CCCCC1

> <INCHI_IDENTIFIER>
InChI=1S/C17H19NO3/c19-17(18-10-4-1-5-11-18)7-3-2-6-14-8-9-15-16(12-14)21-13-20-15/h2-3,6-9,12H,1,4-5,10-11,13H2/b6-2+,7-3+

> <INCHI_KEY>
MXXWOMGUGJBKIW-YPCIICBESA-N

> <FORMULA>
C17H19NO3

> <MOLECULAR_WEIGHT>
285.3377

> <EXACT_MASS>
285.136493479

> <JCHEM_ACCEPTOR_COUNT>
3

> <JCHEM_ATOM_COUNT>
40

> <JCHEM_AVERAGE_POLARIZABILITY>
32.318273106862364

> <JCHEM_BIOAVAILABILITY>
1

> <JCHEM_DONOR_COUNT>
0

> <JCHEM_FORMAL_CHARGE>
0

> <JCHEM_GHOSE_FILTER>
1

> <JCHEM_IUPAC>
(2E,4E)-5-(2H-1,3-benzodioxol-5-yl)-1-(piperidin-1-yl)penta-2,4-dien-1-one

> <ALOGPS_LOGP>
3.38

> <JCHEM_LOGP>
2.777311050333333

> <ALOGPS_LOGS>
-3.28

> <JCHEM_MDDR_LIKE_RULE>
0

> <JCHEM_NUMBER_OF_RINGS>
3

> <JCHEM_PHYSIOLOGICAL_CHARGE>
0

> <JCHEM_PKA_STRONGEST_BASIC>
-0.13200194795020026

> <JCHEM_POLAR_SURFACE_AREA>
38.77

> <JCHEM_REFRACTIVITY>
82.90299999999999

> <JCHEM_ROTATABLE_BOND_COUNT>
3

> <JCHEM_RULE_OF_FIVE>
1

> <ALOGPS_SOLUBILITY>
1.49e-01 g/l

> <JCHEM_TRADITIONAL_IUPAC>
bioperine

> <JCHEM_VEBER_RULE>
1

> <DRUGBANK_ID>
DB12582

> <DRUG_GROUPS>
investigational

> <GENERIC_NAME>
Piperine

> <SYNONYMS>
Bioperine

> <PRODUCTS>
Kaydia Patch

$$$$
