
  Mrv1909 05201914462D          

 36 38  0  0  1  0            999 V2000
   -2.8579    5.7750    0.0000 C   0  0  0  0  0  0  0  0  0  0  0  0
   -2.8579    4.9500    0.0000 C   0  0  0  0  0  0  0  0  0  0  0  0
   -2.1434    4.5375    0.0000 C   0  0  0  0  0  0  0  0  0  0  0  0
   -2.1434    3.7125    0.0000 C   0  0  2  0  0  0  0  0  0  0  0  0
   -2.8579    3.3000    0.0000 O   0  0  0  0  0  0  0  0  0  0  0  0
   -3.5724    3.7125    0.0000 C   0  0  0  0  0  0  0  0  0  0  0  0
   -4.2868    3.3000    0.0000 C   0  0  0  0  0  0  0  0  0  0  0  0
   -5.0013    3.7125    0.0000 C   0  0  0  0  0  0  0  0  0  0  0  0
   -5.7158    3.3000    0.0000 C   0  0  0  0  0  0  0  0  0  0  0  0
   -5.0013    4.5375    0.0000 C   0  0  0  0  0  0  0  0  0  0  0  0
   -5.7158    4.9500    0.0000 N   0  0  0  0  0  0  0  0  0  0  0  0
   -6.4694    4.6144    0.0000 C   0  0  0  0  0  0  0  0  0  0  0  0
   -7.0215    5.2275    0.0000 C   0  0  0  0  0  0  0  0  0  0  0  0
   -6.6090    5.9420    0.0000 C   0  0  0  0  0  0  0  0  0  0  0  0
   -5.8020    5.7705    0.0000 N   0  0  0  0  0  0  0  0  0  0  0  0
   -7.8420    5.1413    0.0000 C   0  0  0  0  0  0  0  0  0  0  0  0
   -8.6624    5.0551    0.0000 F   0  0  0  0  0  0  0  0  0  0  0  0
   -7.7557    4.3208    0.0000 F   0  0  0  0  0  0  0  0  0  0  0  0
   -7.9282    5.9618    0.0000 F   0  0  0  0  0  0  0  0  0  0  0  0
   -4.2868    4.9500    0.0000 C   0  0  0  0  0  0  0  0  0  0  0  0
   -4.2868    5.7750    0.0000 C   0  0  0  0  0  0  0  0  0  0  0  0
   -3.5724    4.5375    0.0000 C   0  0  0  0  0  0  0  0  0  0  0  0
   -1.4289    3.3000    0.0000 C   0  0  0  0  0  0  0  0  0  0  0  0
   -0.7145    3.7125    0.0000 C   0  0  0  0  0  0  0  0  0  0  0  0
    0.0000    3.3000    0.0000 C   0  0  0  0  0  0  0  0  0  0  0  0
    0.0000    2.4750    0.0000 C   0  0  0  0  0  0  0  0  0  0  0  0
   -0.7145    2.0625    0.0000 C   0  0  0  0  0  0  0  0  0  0  0  0
   -1.4289    2.4750    0.0000 C   0  0  0  0  0  0  0  0  0  0  0  0
    0.7145    2.0625    0.0000 C   0  0  0  0  0  0  0  0  0  0  0  0
    0.7145    1.2375    0.0000 O   0  0  0  0  0  0  0  0  0  0  0  0
    1.4289    2.4750    0.0000 N   0  0  0  0  0  0  0  0  0  0  0  0
    2.1434    2.0625    0.0000 C   0  0  0  0  0  0  0  0  0  0  0  0
    2.8579    2.4750    0.0000 C   0  0  0  0  0  0  0  0  0  0  0  0
    3.5724    2.0625    0.0000 C   0  0  0  0  0  0  0  0  0  0  0  0
    4.2868    2.4750    0.0000 O   0  0  0  0  0  0  0  0  0  0  0  0
    3.5724    1.2375    0.0000 O   0  0  0  0  0  0  0  0  0  0  0  0
  1  2  1  0  0  0  0
  2  3  1  0  0  0  0
  4  3  1  0  0  0  0
  4  5  1  1  0  0  0
  5  6  1  0  0  0  0
  6  7  2  0  0  0  0
  7  8  1  0  0  0  0
  8  9  1  0  0  0  0
  8 10  2  0  0  0  0
 10 11  1  0  0  0  0
 11 12  1  0  0  0  0
 12 13  2  0  0  0  0
 13 14  1  0  0  0  0
 14 15  2  0  0  0  0
 11 15  1  0  0  0  0
 13 16  1  0  0  0  0
 16 17  1  0  0  0  0
 16 18  1  0  0  0  0
 16 19  1  0  0  0  0
 10 20  1  0  0  0  0
 20 21  1  0  0  0  0
 20 22  2  0  0  0  0
  6 22  1  0  0  0  0
  4 23  1  0  0  0  0
 23 24  2  0  0  0  0
 24 25  1  0  0  0  0
 25 26  2  0  0  0  0
 26 27  1  0  0  0  0
 27 28  2  0  0  0  0
 23 28  1  0  0  0  0
 26 29  1  0  0  0  0
 29 30  2  0  0  0  0
 29 31  1  0  0  0  0
 31 32  1  0  0  0  0
 32 33  1  0  0  0  0
 33 34  1  0  0  0  0
 34 35  1  0  0  0  0
 34 36  2  0  0  0  0
M  END
> <DATABASE_ID>
DB15065

> <DATABASE_NAME>
drugbank

> <SMILES>
CCC[C@H](OC1=CC(C)=C(N2C=C(C=N2)C(F)(F)F)C(C)=C1)C1=CC=C(C=C1)C(=O)NCCC(O)=O

> <INCHI_IDENTIFIER>
InChI=1S/C26H28F3N3O4/c1-4-5-22(18-6-8-19(9-7-18)25(35)30-11-10-23(33)34)36-21-12-16(2)24(17(3)13-21)32-15-20(14-31-32)26(27,28)29/h6-9,12-15,22H,4-5,10-11H2,1-3H3,(H,30,35)(H,33,34)/t22-/m0/s1

> <INCHI_KEY>
IBDYYOQKQCCSDP-QFIPXVFZSA-N

> <FORMULA>
C26H28F3N3O4

> <MOLECULAR_WEIGHT>
503.522

> <EXACT_MASS>
503.203190883

> <JCHEM_ACCEPTOR_COUNT>
5

> <JCHEM_ATOM_COUNT>
64

> <JCHEM_AVERAGE_POLARIZABILITY>
50.8274325364476

> <JCHEM_BIOAVAILABILITY>
0

> <JCHEM_DONOR_COUNT>
2

> <JCHEM_FORMAL_CHARGE>
0

> <JCHEM_GHOSE_FILTER>
0

> <JCHEM_IUPAC>
3-({4-[(1S)-1-{3,5-dimethyl-4-[4-(trifluoromethyl)-1H-pyrazol-1-yl]phenoxy}butyl]phenyl}formamido)propanoic acid

> <ALOGPS_LOGP>
4.89

> <JCHEM_LOGP>
5.703535923666666

> <ALOGPS_LOGS>
-5.39

> <JCHEM_MDDR_LIKE_RULE>
1

> <JCHEM_NUMBER_OF_RINGS>
3

> <JCHEM_PHYSIOLOGICAL_CHARGE>
-1

> <JCHEM_PKA>
14.90985624464862

> <JCHEM_PKA_STRONGEST_ACIDIC>
3.8888765127156524

> <JCHEM_PKA_STRONGEST_BASIC>
0.6792183582581984

> <JCHEM_POLAR_SURFACE_AREA>
93.45000000000002

> <JCHEM_REFRACTIVITY>
129.8545

> <JCHEM_ROTATABLE_BOND_COUNT>
11

> <JCHEM_RULE_OF_FIVE>
0

> <ALOGPS_SOLUBILITY>
2.04e-03 g/l

> <JCHEM_TRADITIONAL_IUPAC>
(2R)-14-fluoro-2-methyl-6,9,10,19-tetraazapentacyclo[14.2.1.0^{2,6}.0^{8,18}.0^{12,17}]nonadeca-1(18),8,12(17),13,15-pentaen-11-one

> <JCHEM_VEBER_RULE>
0

> <DRUGBANK_ID>
DB15065

> <DRUG_GROUPS>
investigational

> <GENERIC_NAME>
PF-06291874

$$$$
