
  Mrv1909 03172215542D          

 25 26  0  0  0  0            999 V2000
   -0.4125   -0.3572    0.0000 C   0  0  0  0  0  0  0  0  0  0  0  0
   -1.2375   -0.3572    0.0000 C   0  0  0  0  0  0  0  0  0  0  0  0
   -1.6500    0.3572    0.0000 C   0  0  0  0  0  0  0  0  0  0  0  0
    0.0000   -1.0716    0.0000 O   0  0  0  0  0  0  0  0  0  0  0  0
    0.0000    0.3572    0.0000 N   0  0  0  0  0  0  0  0  0  0  0  0
    0.8250    0.3572    0.0000 C   0  0  0  0  0  0  0  0  0  0  0  0
    1.2375   -0.3572    0.0000 C   0  0  0  0  0  0  0  0  0  0  0  0
    2.0625   -0.3572    0.0000 C   0  0  0  0  0  0  0  0  0  0  0  0
    2.4750   -1.0716    0.0000 C   0  0  0  0  0  0  0  0  0  0  0  0
    3.3000   -1.0716    0.0000 C   0  0  0  0  0  0  0  0  0  0  0  0
    3.7125   -0.3572    0.0000 C   0  0  0  0  0  0  0  0  0  0  0  0
    4.5375   -0.3572    0.0000 C   0  0  0  0  0  0  0  0  0  0  0  0
    4.9500   -1.0716    0.0000 C   0  0  0  0  0  0  0  0  0  0  0  0
    4.5375   -1.7861    0.0000 C   0  0  0  0  0  0  0  0  0  0  0  0
    3.7125   -1.7861    0.0000 C   0  0  0  0  0  0  0  0  0  0  0  0
   -2.4750    0.3572    0.0000 C   0  0  0  0  0  0  0  0  0  0  0  0
   -2.8875    1.0716    0.0000 C   0  0  0  0  0  0  0  0  0  0  0  0
   -3.7125    1.0716    0.0000 C   0  0  0  0  0  0  0  0  0  0  0  0
   -4.1250    0.3572    0.0000 C   0  0  0  0  0  0  0  0  0  0  0  0
   -3.7125   -0.3572    0.0000 C   0  0  0  0  0  0  0  0  0  0  0  0
   -2.8875   -0.3572    0.0000 C   0  0  0  0  0  0  0  0  0  0  0  0
   -4.9500    0.3572    0.0000 O   0  0  0  0  0  0  0  0  0  0  0  0
   -4.1250    1.7861    0.0000 O   0  0  0  0  0  0  0  0  0  0  0  0
   -1.6500   -1.0716    0.0000 C   0  0  0  0  0  0  0  0  0  0  0  0
   -2.0625   -1.7861    0.0000 N   0  0  0  0  0  0  0  0  0  0  0  0
  1  2  1  0  0  0  0
  2  3  2  0  0  0  0
  1  4  2  0  0  0  0
  1  5  1  0  0  0  0
  6  7  1  0  0  0  0
  7  8  1  0  0  0  0
  8  9  1  0  0  0  0
 10 11  1  0  0  0  0
 11 12  2  0  0  0  0
 12 13  1  0  0  0  0
 13 14  2  0  0  0  0
 14 15  1  0  0  0  0
 10 15  2  0  0  0  0
  9 10  1  0  0  0  0
  5  6  1  0  0  0  0
 16 17  1  0  0  0  0
 17 18  2  0  0  0  0
 18 19  1  0  0  0  0
 19 20  2  0  0  0  0
 20 21  1  0  0  0  0
 16 21  2  0  0  0  0
 19 22  1  0  0  0  0
 18 23  1  0  0  0  0
  3 16  1  0  0  0  0
 24 25  3  0  0  0  0
  2 24  1  0  0  0  0
M  END
> <DATABASE_ID>
DB16775

> <DATABASE_NAME>
drugbank

> <SMILES>
OC1=CC=C(\C=C(/C#N)C(=O)NCCCCC2=CC=CC=C2)C=C1O

> <INCHI_IDENTIFIER>
InChI=1S/C20H20N2O3/c21-14-17(12-16-9-10-18(23)19(24)13-16)20(25)22-11-5-4-8-15-6-2-1-3-7-15/h1-3,6-7,9-10,12-13,23-24H,4-5,8,11H2,(H,22,25)/b17-12+

> <INCHI_KEY>
GWCNJMUSWLTSCW-SFQUDFHCSA-N

> <FORMULA>
C20H20N2O3

> <MOLECULAR_WEIGHT>
336.391

> <EXACT_MASS>
336.147392512

> <JCHEM_ACCEPTOR_COUNT>
4

> <JCHEM_ATOM_COUNT>
45

> <JCHEM_AVERAGE_NEUTRAL_MICROSPECIES_CHARGE>
0.055381777182969966

> <JCHEM_AVERAGE_POLARIZABILITY>
37.23333430039221

> <JCHEM_BIOAVAILABILITY>
1

> <JCHEM_DONOR_COUNT>
3

> <JCHEM_FORMAL_CHARGE>
0

> <JCHEM_GHOSE_FILTER>
1

> <JCHEM_IUPAC>
(2E)-2-cyano-3-(3,4-dihydroxyphenyl)-N-(4-phenylbutyl)prop-2-enamide

> <ALOGPS_LOGP>
3.36

> <JCHEM_LOGP>
3.6598193426666668

> <ALOGPS_LOGS>
-4.60

> <JCHEM_MDDR_LIKE_RULE>
0

> <JCHEM_NEUTRAL_CHARGE>
0

> <JCHEM_NUMBER_OF_RINGS>
2

> <JCHEM_PHYSIOLOGICAL_CHARGE>
0

> <JCHEM_PKA>
11.996858512820744

> <JCHEM_PKA_STRONGEST_ACIDIC>
8.430371182123258

> <JCHEM_PKA_STRONGEST_BASIC>
-1.2318894008940169

> <JCHEM_POLAR_SURFACE_AREA>
93.35

> <JCHEM_REFRACTIVITY>
97.36380000000001

> <JCHEM_ROTATABLE_BOND_COUNT>
7

> <JCHEM_RULE_OF_FIVE>
1

> <ALOGPS_SOLUBILITY>
8.52e-03 g/l

> <JCHEM_TRADITIONAL_IUPAC>
(2E)-2-cyano-3-(3,4-dihydroxyphenyl)-N-(4-phenylbutyl)prop-2-enamide

> <JCHEM_VEBER_RULE>
0

> <DRUGBANK_ID>
DB16775

> <DRUG_GROUPS>
experimental

> <GENERIC_NAME>
Tyrphostin B56

> <SYNONYMS>
AG 556; AG-556; AG556; Tyrphostin AG-556; Tyrphostin AG556

$$$$
