
  Mrv1718001051815252D          

 30 32  0  0  0  0            999 V2000
    0.5303    0.6320    0.0000 C   0  0  0  0  0  0  0  0  0  0  0  0
    0.0000   -0.0000    0.0000 C   0  0  0  0  0  0  0  0  0  0  0  0
   -0.7145   -0.4125    0.0000 C   0  0  0  0  0  0  0  0  0  0  0  0
   -0.7145   -1.2375    0.0000 C   0  0  0  0  0  0  0  0  0  0  0  0
    0.0000   -1.6500    0.0000 C   0  0  0  0  0  0  0  0  0  0  0  0
    0.7145   -1.2375    0.0000 C   0  0  0  0  0  0  0  0  0  0  0  0
    0.7145   -0.4125    0.0000 C   0  0  0  0  0  0  0  0  0  0  0  0
    1.4289   -0.0000    0.0000 C   0  0  0  0  0  0  0  0  0  0  0  0
    2.1434   -0.4125    0.0000 C   0  0  0  0  0  0  0  0  0  0  0  0
    2.1434   -1.2375    0.0000 C   0  0  0  0  0  0  0  0  0  0  0  0
    1.4289   -1.6500    0.0000 C   0  0  0  0  0  0  0  0  0  0  0  0
    1.4289   -2.4750    0.0000 Cl  0  0  0  0  0  0  0  0  0  0  0  0
    2.8579   -1.6500    0.0000 O   0  0  0  0  0  0  0  0  0  0  0  0
    2.8579   -0.0000    0.0000 C   0  0  0  0  0  0  0  0  0  0  0  0
    3.5724   -0.4125    0.0000 O   0  0  0  0  0  0  0  0  0  0  0  0
    2.8579    0.8250    0.0000 N   0  0  0  0  0  0  0  0  0  0  0  0
    3.5724    1.2375    0.0000 C   0  0  0  0  0  0  0  0  0  0  0  0
    3.5724    2.0625    0.0000 C   0  0  0  0  0  0  0  0  0  0  0  0
    4.2868    2.4750    0.0000 C   0  0  0  0  0  0  0  0  0  0  0  0
    5.0013    2.0625    0.0000 C   0  0  0  0  0  0  0  0  0  0  0  0
    5.0013    1.2375    0.0000 C   0  0  0  0  0  0  0  0  0  0  0  0
    4.2868    0.8250    0.0000 C   0  0  0  0  0  0  0  0  0  0  0  0
    5.7158    0.8250    0.0000 F   0  0  0  0  0  0  0  0  0  0  0  0
    5.7158    2.4750    0.0000 C   0  0  0  0  0  0  0  0  0  0  0  0
    5.7158    3.3000    0.0000 O   0  0  0  0  0  0  0  0  0  0  0  0
    6.4302    2.0625    0.0000 O   0  0  0  0  0  0  0  0  0  0  0  0
    4.2868    3.3000    0.0000 F   0  0  0  0  0  0  0  0  0  0  0  0
   -0.3873   -2.3784    0.0000 C   0  0  0  0  0  0  0  0  0  0  0  0
    0.3873   -2.3784    0.0000 C   0  0  0  0  0  0  0  0  0  0  0  0
   -0.5303    0.6320    0.0000 C   0  0  0  0  0  0  0  0  0  0  0  0
  1  2  1  0  0  0  0
  2  3  1  0  0  0  0
  3  4  1  0  0  0  0
  4  5  1  0  0  0  0
  5  6  1  0  0  0  0
  6  7  2  0  0  0  0
  2  7  1  0  0  0  0
  7  8  1  0  0  0  0
  8  9  2  0  0  0  0
  9 10  1  0  0  0  0
 10 11  2  0  0  0  0
  6 11  1  0  0  0  0
 11 12  1  0  0  0  0
 10 13  1  0  0  0  0
  9 14  1  0  0  0  0
 14 15  2  0  0  0  0
 14 16  1  0  0  0  0
 16 17  1  0  0  0  0
 17 18  2  0  0  0  0
 18 19  1  0  0  0  0
 19 20  2  0  0  0  0
 20 21  1  0  0  0  0
 21 22  2  0  0  0  0
 17 22  1  0  0  0  0
 21 23  1  0  0  0  0
 20 24  1  0  0  0  0
 24 25  2  0  0  0  0
 24 26  1  0  0  0  0
 19 27  1  0  0  0  0
  5 28  1  0  0  0  0
  5 29  1  0  0  0  0
  2 30  1  0  0  0  0
M  END
> <DATABASE_ID>
DB05653

> <DATABASE_NAME>
drugbank

> <SMILES>
CC1(C)CCC(C)(C)C2=C1C=C(C(=O)NC1=CC(F)=C(C(O)=O)C(F)=C1)C(O)=C2Cl

> <INCHI_IDENTIFIER>
InChI=1S/C22H22ClF2NO4/c1-21(2)5-6-22(3,4)16-12(21)9-11(18(27)17(16)23)19(28)26-10-7-13(24)15(20(29)30)14(25)8-10/h7-9,27H,5-6H2,1-4H3,(H,26,28)(H,29,30)

> <INCHI_KEY>
PNAWUIKCVQSLFG-UHFFFAOYSA-N

> <FORMULA>
C22H22ClF2NO4

> <MOLECULAR_WEIGHT>
437.87

> <EXACT_MASS>
437.1205422

> <JCHEM_ACCEPTOR_COUNT>
4

> <JCHEM_ATOM_COUNT>
52

> <JCHEM_AVERAGE_POLARIZABILITY>
43.25255103932547

> <JCHEM_BIOAVAILABILITY>
1

> <JCHEM_DONOR_COUNT>
3

> <JCHEM_FORMAL_CHARGE>
0

> <JCHEM_GHOSE_FILTER>
0

> <JCHEM_IUPAC>
4-(4-chloro-3-hydroxy-5,5,8,8-tetramethyl-5,6,7,8-tetrahydronaphthalene-2-amido)-2,6-difluorobenzoic acid

> <ALOGPS_LOGP>
5.71

> <JCHEM_LOGP>
5.934983395666666

> <ALOGPS_LOGS>
-5.70

> <JCHEM_MDDR_LIKE_RULE>
0

> <JCHEM_NUMBER_OF_RINGS>
3

> <JCHEM_PHYSIOLOGICAL_CHARGE>
-2

> <JCHEM_PKA>
6.7514868194744135

> <JCHEM_PKA_STRONGEST_ACIDIC>
2.6230224580376413

> <JCHEM_PKA_STRONGEST_BASIC>
-4.012323464704945

> <JCHEM_POLAR_SURFACE_AREA>
86.63000000000001

> <JCHEM_REFRACTIVITY>
111.59579999999998

> <JCHEM_ROTATABLE_BOND_COUNT>
3

> <JCHEM_RULE_OF_FIVE>
0

> <ALOGPS_SOLUBILITY>
8.70e-04 g/l

> <JCHEM_TRADITIONAL_IUPAC>
4-(4-chloro-3-hydroxy-5,5,8,8-tetramethyl-6,7-dihydronaphthalene-2-amido)-2,6-difluorobenzoic acid

> <JCHEM_VEBER_RULE>
0

> <DRUGBANK_ID>
DB05653

> <DRUG_GROUPS>
investigational

> <GENERIC_NAME>
IRX-5183

$$$$
