
  Mrv1572004221605322D          

 51 56  0  0  1  0            999 V2000
    7.8592    7.0125    0.0000 C   0  0  0  0  0  0  0  0  0  0  0  0
    2.8579    4.9500    0.0000 C   0  0  0  0  0  0  0  0  0  0  0  0
   10.0026    8.2500    0.0000 C   0  0  0  0  0  0  0  0  0  0  0  0
    9.2881    8.6625    0.0000 C   0  0  0  0  0  0  0  0  0  0  0  0
    1.4289    2.4750    0.0000 C   0  0  0  0  0  0  0  0  0  0  0  0
    2.1434    2.0625    0.0000 C   0  0  0  0  0  0  0  0  0  0  0  0
    1.4289    3.3000    0.0000 C   0  0  0  0  0  0  0  0  0  0  0  0
   10.0026    7.4250    0.0000 C   0  0  0  0  0  0  0  0  0  0  0  0
    8.5737    8.2500    0.0000 C   0  0  0  0  0  0  0  0  0  0  0  0
    7.8592    4.5375    0.0000 C   0  0  0  0  0  0  0  0  0  0  0  0
    6.4302    2.0625    0.0000 C   0  0  0  0  0  0  0  0  0  0  0  0
    7.1447    3.3000    0.0000 C   0  0  0  0  0  0  0  0  0  0  0  0
    7.1946    1.0469    0.0000 C   0  0  0  0  0  0  0  0  0  0  0  0
    7.8592    6.1875    0.0000 C   0  0  1  0  0  0  0  0  0  0  0  0
    2.8579    2.4750    0.0000 C   0  0  0  0  0  0  0  0  0  0  0  0
    5.7158    2.4750    0.0000 C   0  0  0  0  0  0  0  0  0  0  0  0
    8.5737    4.9500    0.0000 C   0  0  1  0  0  0  0  0  0  0  0  0
    2.1434    3.7125    0.0000 C   0  0  0  0  0  0  0  0  0  0  0  0
    6.4302    3.7125    0.0000 C   0  0  1  0  0  0  0  0  0  0  0  0
    7.5819    1.7754    0.0000 C   0  0  0  0  0  0  0  0  0  0  0  0
    9.2881    7.0125    0.0000 C   0  0  2  0  0  0  0  0  0  0  0  0
    7.1447    4.9500    0.0000 C   0  0  1  0  0  0  0  0  0  0  0  0
    2.8579    3.3000    0.0000 C   0  0  0  0  0  0  0  0  0  0  0  0
    5.7158    3.3000    0.0000 C   0  0  0  0  0  0  0  0  0  0  0  0
    4.2868    2.4750    0.0000 C   0  0  0  0  0  0  0  0  0  0  0  0
    4.2868    3.3000    0.0000 C   0  0  0  0  0  0  0  0  0  0  0  0
    3.5724    2.0625    0.0000 C   0  0  0  0  0  0  0  0  0  0  0  0
    5.0013    2.0625    0.0000 C   0  0  0  0  0  0  0  0  0  0  0  0
    3.5724    3.7125    0.0000 C   0  0  0  0  0  0  0  0  0  0  0  0
    5.0013    3.7125    0.0000 C   0  0  0  0  0  0  0  0  0  0  0  0
    8.5737    5.7750    0.0000 C   0  0  2  0  0  0  0  0  0  0  0  0
    7.1447    2.4750    0.0000 C   0  0  2  0  0  0  0  0  0  0  0  0
    9.2881    4.5375    0.0000 N   0  0  0  0  0  0  0  0  0  0  0  0
    6.3701    1.0181    0.0000 O   0  0  0  0  0  0  0  0  0  0  0  0
    8.4064    1.8042    0.0000 O   0  0  0  0  0  0  0  0  0  0  0  0
    3.5724    1.2375    0.0000 O   0  0  0  0  0  0  0  0  0  0  0  0
    5.0013    1.2375    0.0000 O   0  0  0  0  0  0  0  0  0  0  0  0
    3.5724    4.5375    0.0000 O   0  0  0  0  0  0  0  0  0  0  0  0
    5.0013    4.5375    0.0000 O   0  0  0  0  0  0  0  0  0  0  0  0
    7.9692    2.4462    0.0000 O   0  0  0  0  0  0  0  0  0  0  0  0
    2.1434    4.5375    0.0000 O   0  0  0  0  0  0  0  0  0  0  0  0
    8.5737    7.4250    0.0000 O   0  0  0  0  0  0  0  0  0  0  0  0
    7.1447    5.7750    0.0000 O   0  0  0  0  0  0  0  0  0  0  0  0
    6.4302    4.5375    0.0000 O   0  0  0  0  0  0  0  0  0  0  0  0
    9.2881    6.1875    0.0000 O   0  0  0  0  0  0  0  0  0  0  0  0
    8.5737    6.6000    0.0000 H   0  0  0  0  0  0  0  0  0  0  0  0
    9.2881    5.3625    0.0000 H   0  0  0  0  0  0  0  0  0  0  0  0
    5.7158    4.1250    0.0000 H   0  0  0  0  0  0  0  0  0  0  0  0
   10.0026    6.6000    0.0000 H   0  0  0  0  0  0  0  0  0  0  0  0
    6.4302    5.3625    0.0000 H   0  0  0  0  0  0  0  0  0  0  0  0
    7.8592    5.3625    0.0000 H   0  0  0  0  0  0  0  0  0  0  0  0
  4  3  1  0  0  0  0
  6  5  2  0  0  0  0
  7  5  1  0  0  0  0
  8  3  1  0  0  0  0
  9  4  1  0  0  0  0
 14  1  1  1  0  0  0
 15  6  1  0  0  0  0
 16 11  1  0  0  0  0
 17 10  1  0  0  0  0
 18  7  2  0  0  0  0
 19 12  1  0  0  0  0
 20 13  1  0  0  0  0
 21  8  1  0  0  0  0
 22 10  1  0  0  0  0
 23 15  2  0  0  0  0
 23 18  1  0  0  0  0
 24 16  1  0  0  0  0
 24 19  1  0  0  0  0
 26 25  2  0  0  0  0
 27 15  1  0  0  0  0
 27 25  1  0  0  0  0
 28 16  2  0  0  0  0
 28 25  1  0  0  0  0
 29 23  1  0  0  0  0
 29 26  1  0  0  0  0
 30 24  2  0  0  0  0
 30 26  1  0  0  0  0
 31 14  1  0  0  0  0
 31 17  1  0  0  0  0
 32 11  1  0  0  0  0
 32 12  1  0  0  0  0
 32 20  1  6  0  0  0
 17 33  1  1  0  0  0
 34 13  1  0  0  0  0
 35 20  2  0  0  0  0
 36 27  2  0  0  0  0
 37 28  1  0  0  0  0
 38 29  2  0  0  0  0
 39 30  1  0  0  0  0
 32 40  1  1  0  0  0
 41  2  1  0  0  0  0
 41 18  1  0  0  0  0
 42  9  1  0  0  0  0
 42 21  1  0  0  0  0
 43 14  1  0  0  0  0
 43 22  1  0  0  0  0
 19 44  1  1  0  0  0
 22 44  1  6  0  0  0
 21 45  1  1  0  0  0
 31 45  1  6  0  0  0
 14 46  1  6  0  0  0
 17 47  1  6  0  0  0
 19 48  1  6  0  0  0
 21 49  1  6  0  0  0
 22 50  1  1  0  0  0
 31 51  1  6  0  0  0
M  END
> <DATABASE_ID>
DB11616

> <DATABASE_NAME>
drugbank

> <SMILES>
[H][C@]1(N)C[C@]([H])(O[C@@]2([H])C[C@@](O)(CC3=C(O)C4=C(C(O)=C23)C(=O)C2=C(C=CC=C2OC)C4=O)C(=O)CO)O[C@@]([H])(C)[C@@]1([H])O[C@]1([H])CCCCO1

> <INCHI_IDENTIFIER>
InChI=1S/C32H37NO12/c1-14-31(45-21-8-3-4-9-42-21)17(33)10-22(43-14)44-19-12-32(40,20(35)13-34)11-16-24(19)30(39)26-25(28(16)37)27(36)15-6-5-7-18(41-2)23(15)29(26)38/h5-7,14,17,19,21-22,31,34,37,39-40H,3-4,8-13,33H2,1-2H3/t14-,17-,19-,21+,22-,31+,32-/m0/s1

> <INCHI_KEY>
KMSKQZKKOZQFFG-YXRRJAAWSA-N

> <FORMULA>
C32H37NO12

> <MOLECULAR_WEIGHT>
627.643

> <EXACT_MASS>
627.231575635

> <JCHEM_ACCEPTOR_COUNT>
13

> <JCHEM_ATOM_COUNT>
82

> <JCHEM_AVERAGE_POLARIZABILITY>
64.85358179675951

> <JCHEM_BIOAVAILABILITY>
0

> <JCHEM_DONOR_COUNT>
5

> <JCHEM_FORMAL_CHARGE>
0

> <JCHEM_GHOSE_FILTER>
0

> <JCHEM_IUPAC>
(8S,10S)-10-{[(2R,4S,5S,6S)-4-amino-6-methyl-5-[(2R)-oxan-2-yloxy]oxan-2-yl]oxy}-6,8,11-trihydroxy-8-(2-hydroxyacetyl)-1-methoxy-5,7,8,9,10,12-hexahydrotetracene-5,12-dione

> <ALOGPS_LOGP>
2.06

> <JCHEM_LOGP>
2.0459495200163484

> <ALOGPS_LOGS>
-3.32

> <JCHEM_MDDR_LIKE_RULE>
1

> <JCHEM_NUMBER_OF_RINGS>
6

> <JCHEM_PHYSIOLOGICAL_CHARGE>
1

> <JCHEM_PKA>
9.904815027850919

> <JCHEM_PKA_STRONGEST_ACIDIC>
7.989096213325367

> <JCHEM_PKA_STRONGEST_BASIC>
9.091021990428347

> <JCHEM_POLAR_SURFACE_AREA>
204.29999999999993

> <JCHEM_REFRACTIVITY>
157.3784

> <JCHEM_ROTATABLE_BOND_COUNT>
7

> <JCHEM_RULE_OF_FIVE>
0

> <ALOGPS_SOLUBILITY>
3.01e-01 g/l

> <JCHEM_TRADITIONAL_IUPAC>
(8S,10S)-10-{[(2R,4S,5S,6S)-4-amino-6-methyl-5-[(2R)-oxan-2-yloxy]oxan-2-yl]oxy}-6,8,11-trihydroxy-8-(2-hydroxyacetyl)-1-methoxy-9,10-dihydro-7H-tetracene-5,12-dione

> <JCHEM_VEBER_RULE>
0

> <DRUGBANK_ID>
DB11616

> <DRUG_GROUPS>
investigational

> <GENERIC_NAME>
Pirarubicin

> <SYNONYMS>
Adriamycin, tetrahydropyranyl; Pirarubicin; Theprubicin; THP-Adm; THP-Doxorubicin

> <SALTS>
Pirarubicin hydrochloride

$$$$
