
  Mrv1652306231722382D          

 59 64  0  0  1  0            999 V2000
    1.2548   -0.7272    0.0000 C   0  0  0  0  0  0  0  0  0  0  0  0
    1.1686    0.0933    0.0000 C   0  0  0  0  0  0  0  0  0  0  0  0
    0.4149    0.4288    0.0000 C   0  0  0  0  0  0  0  0  0  0  0  0
   -0.2526   -0.0561    0.0000 C   0  0  0  0  0  0  0  0  0  0  0  0
   -0.1663   -0.8766    0.0000 C   0  0  0  0  0  0  0  0  0  0  0  0
    0.5873   -1.2121    0.0000 C   0  0  0  0  0  0  0  0  0  0  0  0
    0.6736   -2.0326    0.0000 F   0  0  0  0  0  0  0  0  0  0  0  0
   -0.8338   -1.3615    0.0000 N   0  0  0  0  0  0  0  0  0  0  0  0
   -0.8338   -2.1865    0.0000 C   0  0  0  0  0  0  0  0  0  0  0  0
   -1.6184   -2.4414    0.0000 C   0  0  2  0  0  0  0  0  0  0  0  0
   -2.1033   -1.7740    0.0000 C   0  0  0  0  0  0  0  0  0  0  0  0
   -1.6184   -1.1066    0.0000 C   0  0  0  0  0  0  0  0  0  0  0  0
   -2.8178   -2.1865    0.0000 C   0  0  0  0  0  0  0  0  0  0  0  0
   -2.8178   -1.3615    0.0000 C   0  0  0  0  0  0  0  0  0  0  0  0
   -1.8733   -3.2261    0.0000 N   0  0  0  0  0  0  0  0  0  0  0  0
   -1.0062    0.2795    0.0000 Cl  0  0  0  0  0  0  0  0  0  0  0  0
    0.3286    1.2493    0.0000 N   0  0  0  0  0  0  0  0  0  0  0  0
    0.9961    1.7342    0.0000 C   0  0  0  0  0  0  0  0  0  0  0  0
    1.7498    1.3987    0.0000 C   0  0  0  0  0  0  0  0  0  0  0  0
    1.8360    0.5782    0.0000 C   0  0  0  0  0  0  0  0  0  0  0  0
    2.5897    0.2426    0.0000 O   0  0  0  0  0  0  0  0  0  0  0  0
    2.4172    1.8836    0.0000 C   0  0  0  0  0  0  0  0  0  0  0  0
    2.3310    2.7041    0.0000 O   0  0  0  0  0  0  0  0  0  0  0  0
    3.1709    1.5480    0.0000 O   0  0  0  0  0  0  0  0  0  0  0  0
   -0.4250    1.5849    0.0000 C   0  0  2  0  0  0  0  0  0  0  0  0
   -1.2455    1.4986    0.0000 C   0  0  0  0  0  0  0  0  0  0  0  0
   -0.9100    2.2523    0.0000 C   0  0  2  0  0  0  0  0  0  0  0  0
   -0.9962    3.0728    0.0000 F   0  0  0  0  0  0  0  0  0  0  0  0
    9.6006   -0.7272    0.0000 C   0  0  0  0  0  0  0  0  0  0  0  0
    9.5143    0.0933    0.0000 C   0  0  0  0  0  0  0  0  0  0  0  0
    8.7607    0.4288    0.0000 C   0  0  0  0  0  0  0  0  0  0  0  0
    8.0932   -0.0561    0.0000 C   0  0  0  0  0  0  0  0  0  0  0  0
    8.1795   -0.8766    0.0000 C   0  0  0  0  0  0  0  0  0  0  0  0
    8.9331   -1.2121    0.0000 C   0  0  0  0  0  0  0  0  0  0  0  0
    9.0194   -2.0326    0.0000 F   0  0  0  0  0  0  0  0  0  0  0  0
    7.5120   -1.3615    0.0000 N   0  0  0  0  0  0  0  0  0  0  0  0
    7.5120   -2.1865    0.0000 C   0  0  0  0  0  0  0  0  0  0  0  0
    6.7274   -2.4414    0.0000 C   0  0  2  0  0  0  0  0  0  0  0  0
    6.2425   -1.7740    0.0000 C   0  0  0  0  0  0  0  0  0  0  0  0
    6.7274   -1.1066    0.0000 C   0  0  0  0  0  0  0  0  0  0  0  0
    5.5280   -2.1865    0.0000 C   0  0  0  0  0  0  0  0  0  0  0  0
    5.5280   -1.3615    0.0000 C   0  0  0  0  0  0  0  0  0  0  0  0
    6.4725   -3.2261    0.0000 N   0  0  0  0  0  0  0  0  0  0  0  0
    7.3396    0.2795    0.0000 Cl  0  0  0  0  0  0  0  0  0  0  0  0
    8.6744    1.2493    0.0000 N   0  0  0  0  0  0  0  0  0  0  0  0
    9.3419    1.7342    0.0000 C   0  0  0  0  0  0  0  0  0  0  0  0
   10.0955    1.3987    0.0000 C   0  0  0  0  0  0  0  0  0  0  0  0
   10.1818    0.5782    0.0000 C   0  0  0  0  0  0  0  0  0  0  0  0
   10.9355    0.2426    0.0000 O   0  0  0  0  0  0  0  0  0  0  0  0
   10.7630    1.8836    0.0000 C   0  0  0  0  0  0  0  0  0  0  0  0
   10.6768    2.7041    0.0000 O   0  0  0  0  0  0  0  0  0  0  0  0
   11.5167    1.5480    0.0000 O   0  0  0  0  0  0  0  0  0  0  0  0
    7.9208    1.5849    0.0000 C   0  0  2  0  0  0  0  0  0  0  0  0
    7.1003    1.4986    0.0000 C   0  0  0  0  0  0  0  0  0  0  0  0
    7.4358    2.2523    0.0000 C   0  0  2  0  0  0  0  0  0  0  0  0
    7.3496    3.0728    0.0000 F   0  0  0  0  0  0  0  0  0  0  0  0
   13.8738    0.0000    0.0000 O   0  0  0  0  0  0  0  0  0  0  0  0
    0.0000   -4.8761    0.0000 O   0  0  0  0  0  0  0  0  0  0  0  0
    2.3571   -4.8761    0.0000 O   0  0  0  0  0  0  0  0  0  0  0  0
  1  2  2  0  0  0  0
  2  3  1  0  0  0  0
  3  4  2  0  0  0  0
  4  5  1  0  0  0  0
  5  6  2  0  0  0  0
  1  6  1  0  0  0  0
  6  7  1  0  0  0  0
  5  8  1  0  0  0  0
  8  9  1  0  0  0  0
  9 10  1  0  0  0  0
 10 11  1  0  0  0  0
 11 12  1  0  0  0  0
  8 12  1  0  0  0  0
 11 13  1  0  0  0  0
 13 14  1  0  0  0  0
 11 14  1  0  0  0  0
 10 15  1  1  0  0  0
  4 16  1  0  0  0  0
  3 17  1  0  0  0  0
 17 18  1  0  0  0  0
 18 19  2  0  0  0  0
 19 20  1  0  0  0  0
  2 20  1  0  0  0  0
 20 21  2  0  0  0  0
 19 22  1  0  0  0  0
 22 23  2  0  0  0  0
 22 24  1  0  0  0  0
 25 17  1  6  0  0  0
 25 26  1  0  0  0  0
 26 27  1  0  0  0  0
 25 27  1  0  0  0  0
 27 28  1  6  0  0  0
 29 30  2  0  0  0  0
 30 31  1  0  0  0  0
 31 32  2  0  0  0  0
 32 33  1  0  0  0  0
 33 34  2  0  0  0  0
 29 34  1  0  0  0  0
 34 35  1  0  0  0  0
 33 36  1  0  0  0  0
 36 37  1  0  0  0  0
 37 38  1  0  0  0  0
 38 39  1  0  0  0  0
 39 40  1  0  0  0  0
 36 40  1  0  0  0  0
 39 41  1  0  0  0  0
 41 42  1  0  0  0  0
 39 42  1  0  0  0  0
 38 43  1  1  0  0  0
 32 44  1  0  0  0  0
 31 45  1  0  0  0  0
 45 46  1  0  0  0  0
 46 47  2  0  0  0  0
 47 48  1  0  0  0  0
 30 48  1  0  0  0  0
 48 49  2  0  0  0  0
 47 50  1  0  0  0  0
 50 51  2  0  0  0  0
 50 52  1  0  0  0  0
 53 45  1  6  0  0  0
 53 54  1  0  0  0  0
 54 55  1  0  0  0  0
 53 55  1  0  0  0  0
 55 56  1  6  0  0  0
M  END
> <DATABASE_ID>
DB13261

> <DATABASE_NAME>
drugbank

> <SMILES>
O.O.O.N[C@@H]1CN(CC11CC1)C1=C(F)C=C2C(=O)C(=CN([C@@H]3C[C@@H]3F)C2=C1Cl)C(O)=O.N[C@@H]1CN(CC11CC1)C1=C(F)C=C2C(=O)C(=CN([C@@H]3C[C@@H]3F)C2=C1Cl)C(O)=O

> <INCHI_IDENTIFIER>
InChI=1S/2C19H18ClF2N3O3.3H2O/c2*20-14-15-8(17(26)9(18(27)28)5-25(15)12-4-10(12)21)3-11(22)16(14)24-6-13(23)19(7-24)1-2-19;;;/h2*3,5,10,12-13H,1-2,4,6-7,23H2,(H,27,28);3*1H2/t2*10-,12+,13+;;;/m00.../s1

> <INCHI_KEY>
MPORYQCGWFQFLA-ONPDANIMSA-N

> <FORMULA>
C38H42Cl2F4N6O9

> <MOLECULAR_WEIGHT>
873.68

> <EXACT_MASS>
872.232645

> <JCHEM_ACCEPTOR_COUNT>
6

> <JCHEM_ATOM_COUNT>
101

> <JCHEM_AVERAGE_POLARIZABILITY>
38.97875610537293

> <JCHEM_BIOAVAILABILITY>
1

> <JCHEM_DONOR_COUNT>
2

> <JCHEM_FORMAL_CHARGE>
0

> <JCHEM_GHOSE_FILTER>
0

> <JCHEM_IUPAC>
bis(7-[(7S)-7-amino-5-azaspiro[2.4]heptan-5-yl]-8-chloro-6-fluoro-1-[(1R,2S)-2-fluorocyclopropyl]-4-oxo-1,4-dihydroquinoline-3-carboxylic acid) trihydrate

> <ALOGPS_LOGP>
0.24

> <JCHEM_LOGP>
-0.1688902373795259

> <ALOGPS_LOGS>
-3.87

> <JCHEM_MDDR_LIKE_RULE>
1

> <JCHEM_NUMBER_OF_RINGS>
10

> <JCHEM_PHYSIOLOGICAL_CHARGE>
0

> <JCHEM_PKA_STRONGEST_ACIDIC>
5.699728854547606

> <JCHEM_PKA_STRONGEST_BASIC>
9.371231875028176

> <JCHEM_POLAR_SURFACE_AREA>
86.87

> <JCHEM_REFRACTIVITY>
99.08809999999997

> <JCHEM_ROTATABLE_BOND_COUNT>
6

> <JCHEM_RULE_OF_FIVE>
0

> <ALOGPS_SOLUBILITY>
5.50e-02 g/l

> <JCHEM_TRADITIONAL_IUPAC>
bis(sitafloxacin) trihydrate

> <JCHEM_VEBER_RULE>
0

> <DRUGBANK_ID>
DB13261

> <DRUG_GROUPS>
experimental; investigational

> <GENERIC_NAME>
Sitafloxacin

> <SYNONYMS>
Sitafloxacin

$$$$
