
  Mrv1909 09022216372D          

 19 20  0  0  1  0            999 V2000
   -6.2785    4.0665    0.0000 C   0  0  0  0  0  0  0  0  0  0  0  0
   -5.4716    3.8949    0.0000 O   0  0  0  0  0  0  0  0  0  0  0  0
   -5.2166    3.1103    0.0000 C   0  0  0  0  0  0  0  0  0  0  0  0
   -4.4097    2.9388    0.0000 C   0  0  0  0  0  0  0  0  0  0  0  0
   -4.1547    2.1542    0.0000 C   0  0  0  0  0  0  0  0  0  0  0  0
   -4.7067    1.5411    0.0000 C   0  0  0  0  0  0  0  0  0  0  0  0
   -4.2942    0.8266    0.0000 N   0  0  0  0  0  0  0  0  0  0  0  0
   -3.4873    0.9981    0.0000 C   0  0  0  0  0  0  0  0  0  0  0  0
   -3.4010    1.8186    0.0000 C   0  0  0  0  0  0  0  0  0  0  0  0
   -2.6866    2.2311    0.0000 C   0  0  1  0  0  0  0  0  0  0  0  0
   -2.6866    3.0561    0.0000 C   0  0  0  0  0  0  0  0  0  0  0  0
   -1.9721    1.8186    0.0000 C   0  0  0  0  0  0  0  0  0  0  0  0
   -1.2576    2.2311    0.0000 N   0  0  0  0  0  0  0  0  0  0  0  0
   -0.5432    1.8186    0.0000 C   0  0  0  0  0  0  0  0  0  0  0  0
    0.1713    2.2311    0.0000 C   0  0  0  0  0  0  0  0  0  0  0  0
   -0.5432    0.9936    0.0000 O   0  0  0  0  0  0  0  0  0  0  0  0
   -5.5137    1.7126    0.0000 C   0  0  0  0  0  0  0  0  0  0  0  0
   -5.7687    2.4972    0.0000 C   0  0  0  0  0  0  0  0  0  0  0  0
   -6.5756    2.6687    0.0000 Cl  0  0  0  0  0  0  0  0  0  0  0  0
  1  2  1  0  0  0  0
  2  3  1  0  0  0  0
  3  4  2  0  0  0  0
  4  5  1  0  0  0  0
  5  6  2  0  0  0  0
  6  7  1  0  0  0  0
  7  8  1  0  0  0  0
  8  9  2  0  0  0  0
  5  9  1  0  0  0  0
 10  9  1  0  0  0  0
 10 11  1  1  0  0  0
 10 12  1  0  0  0  0
 12 13  1  0  0  0  0
 13 14  1  0  0  0  0
 14 15  1  0  0  0  0
 14 16  2  0  0  0  0
  6 17  1  0  0  0  0
 17 18  2  0  0  0  0
  3 18  1  0  0  0  0
 18 19  1  0  0  0  0
M  END
> <DATABASE_ID>
DB16909

> <DATABASE_NAME>
drugbank

> <SMILES>
COC1=CC2=C(NC=C2[C@@H](C)CNC(C)=O)C=C1Cl

> <INCHI_IDENTIFIER>
InChI=1S/C14H17ClN2O2/c1-8(6-16-9(2)18)11-7-17-13-5-12(15)14(19-3)4-10(11)13/h4-5,7-8,17H,6H2,1-3H3,(H,16,18)/t8-/m0/s1

> <INCHI_KEY>
RKHCTAKUYDTFHE-QMMMGPOBSA-N

> <FORMULA>
C14H17ClN2O2

> <MOLECULAR_WEIGHT>
280.75

> <EXACT_MASS>
280.0978555

> <JCHEM_ACCEPTOR_COUNT>
2

> <JCHEM_ATOM_COUNT>
36

> <JCHEM_AVERAGE_NEUTRAL_MICROSPECIES_CHARGE>
0.0355393330724686

> <JCHEM_AVERAGE_POLARIZABILITY>
29.503954667871202

> <JCHEM_BIOAVAILABILITY>
1

> <JCHEM_DONOR_COUNT>
2

> <JCHEM_FORMAL_CHARGE>
0

> <JCHEM_GHOSE_FILTER>
1

> <JCHEM_IUPAC>
N-[(2R)-2-(6-chloro-5-methoxy-1H-indol-3-yl)propyl]acetamide

> <ALOGPS_LOGP>
3.09

> <JCHEM_LOGP>
2.1166302900000002

> <ALOGPS_LOGS>
-4.10

> <JCHEM_MDDR_LIKE_RULE>
0

> <JCHEM_NEUTRAL_CHARGE>
0

> <JCHEM_NUMBER_OF_RINGS>
2

> <JCHEM_PHYSIOLOGICAL_CHARGE>
0

> <JCHEM_PKA>
16.263601228643783

> <JCHEM_PKA_STRONGEST_ACIDIC>
15.34738922908043

> <JCHEM_PKA_STRONGEST_BASIC>
-1.4335867168619203

> <JCHEM_POLAR_SURFACE_AREA>
54.12

> <JCHEM_REFRACTIVITY>
75.5563

> <JCHEM_ROTATABLE_BOND_COUNT>
4

> <JCHEM_RULE_OF_FIVE>
1

> <ALOGPS_SOLUBILITY>
2.23e-02 g/l

> <JCHEM_TRADITIONAL_IUPAC>
N-[(2R)-2-(6-chloro-5-methoxy-1H-indol-3-yl)propyl]acetamide

> <JCHEM_VEBER_RULE>
0

> <DRUGBANK_ID>
DB16909

> <DRUG_GROUPS>
investigational

> <GENERIC_NAME>
TIK-301

> <SYNONYMS>
(R)-N-[2-(6-Chloro-5-Methoxy-1H-Indol-3-Yl)Propyl]Acetamide; Beta-methyl-6-chloromelatonin; LY-156,735; LY-156735; N-((2r)-2-(6-chloro-5-methoxy-1h-indol-3-yl)propyl)acetamide

$$$$
