
  Mrv1572004221604422D          

 17 18  0  0  0  0            999 V2000
    2.8579    0.8250    0.0000 C   0  0  0  0  0  0  0  0  0  0  0  0
   -0.7145    1.2375    0.0000 C   0  0  0  0  0  0  0  0  0  0  0  0
    0.0000    0.8250    0.0000 C   0  0  0  0  0  0  0  0  0  0  0  0
   -0.7145    2.0625    0.0000 C   0  0  0  0  0  0  0  0  0  0  0  0
    1.4289    0.8250    0.0000 C   0  0  0  0  0  0  0  0  0  0  0  0
    1.4289    2.4750    0.0000 C   0  0  0  0  0  0  0  0  0  0  0  0
    2.1434    1.2375    0.0000 C   0  0  0  0  0  0  0  0  0  0  0  0
    0.7145    1.2375    0.0000 C   0  0  0  0  0  0  0  0  0  0  0  0
    2.1434    2.0625    0.0000 C   0  0  0  0  0  0  0  0  0  0  0  0
    0.7145    2.0625    0.0000 C   0  0  0  0  0  0  0  0  0  0  0  0
    3.5724    2.8875    0.0000 N   0  0  0  0  0  0  0  0  0  0  0  0
   -0.3873    3.2034    0.0000 O   0  0  0  0  0  0  0  0  0  0  0  0
    0.3873    3.2034    0.0000 O   0  0  0  0  0  0  0  0  0  0  0  0
    3.2704    1.7605    0.0000 O   0  0  0  0  0  0  0  0  0  0  0  0
    2.4454    3.1895    0.0000 O   0  0  0  0  0  0  0  0  0  0  0  0
    0.0000    2.4750    0.0000 S   0  0  0  0  0  0  0  0  0  0  0  0
    2.8579    2.4750    0.0000 S   0  0  0  0  0  0  0  0  0  0  0  0
  3  2  1  0  0  0  0
  4  2  1  0  0  0  0
  7  1  1  0  0  0  0
  7  5  2  0  0  0  0
  8  3  1  0  0  0  0
  8  5  1  0  0  0  0
  9  6  2  0  0  0  0
  9  7  1  0  0  0  0
 10  6  1  0  0  0  0
 10  8  2  0  0  0  0
 16  4  1  0  0  0  0
 16 10  1  0  0  0  0
 16 12  2  0  0  0  0
 16 13  2  0  0  0  0
 17  9  1  0  0  0  0
 17 11  1  0  0  0  0
 17 14  2  0  0  0  0
 17 15  2  0  0  0  0
M  END
> <DATABASE_ID>
DB13284

> <DATABASE_NAME>
drugbank

> <SMILES>
CC1=CC2=C(C=C1S(N)(=O)=O)S(=O)(=O)CCC2

> <INCHI_IDENTIFIER>
InChI=1S/C10H13NO4S2/c1-7-5-8-3-2-4-16(12,13)10(8)6-9(7)17(11,14)15/h5-6H,2-4H2,1H3,(H2,11,14,15)

> <INCHI_KEY>
FNQQBFNIYODEMB-UHFFFAOYSA-N

> <FORMULA>
C10H13NO4S2

> <MOLECULAR_WEIGHT>
275.34

> <EXACT_MASS>
275.028600251

> <JCHEM_ACCEPTOR_COUNT>
4

> <JCHEM_ATOM_COUNT>
30

> <JCHEM_AVERAGE_POLARIZABILITY>
26.3436636229402

> <JCHEM_BIOAVAILABILITY>
1

> <JCHEM_DONOR_COUNT>
1

> <JCHEM_FORMAL_CHARGE>
0

> <JCHEM_GHOSE_FILTER>
1

> <JCHEM_IUPAC>
6-methyl-1,1-dioxo-3,4-dihydro-2H-1Î»â¶-benzothiopyran-7-sulfonamide

> <ALOGPS_LOGP>
0.20

> <JCHEM_LOGP>
0.5696529063333333

> <ALOGPS_LOGS>
-2.61

> <JCHEM_MDDR_LIKE_RULE>
0

> <JCHEM_NUMBER_OF_RINGS>
2

> <JCHEM_PHYSIOLOGICAL_CHARGE>
0

> <JCHEM_PKA_STRONGEST_ACIDIC>
9.962723299906079

> <JCHEM_POLAR_SURFACE_AREA>
94.30000000000001

> <JCHEM_REFRACTIVITY>
65.08830000000002

> <JCHEM_ROTATABLE_BOND_COUNT>
1

> <JCHEM_RULE_OF_FIVE>
1

> <ALOGPS_SOLUBILITY>
6.79e-01 g/l

> <JCHEM_TRADITIONAL_IUPAC>
arresten

> <JCHEM_VEBER_RULE>
0

> <DRUGBANK_ID>
DB13284

> <DRUG_GROUPS>
approved

> <GENERIC_NAME>
Meticrane

> <SYNONYMS>
Meticrane

$$$$
