
  Mrv1652310211600062D          

 52 55  0  0  1  0            999 V2000
    2.3864   -5.7255    0.0000 C   0  0  0  0  0  0  0  0  0  0  0  0
    3.0401   -5.2222    0.0000 C   0  0  0  0  0  0  0  0  0  0  0  0
    3.5433   -5.8760    0.0000 C   0  0  0  0  0  0  0  0  0  0  0  0
    3.6938   -4.7190    0.0000 C   0  0  0  0  0  0  0  0  0  0  0  0
    3.5849   -3.9012    0.0000 O   0  0  0  0  0  0  0  0  0  0  0  0
    4.4565   -5.0335    0.0000 N   0  0  0  0  0  0  0  0  0  0  0  0
    5.1103   -4.5303    0.0000 C   0  0  1  0  0  0  0  0  0  0  0  0
    5.0013   -3.7125    0.0000 C   0  0  0  0  0  0  0  0  0  0  0  0
    5.6550   -3.2093    0.0000 C   0  0  0  0  0  0  0  0  0  0  0  0
    5.6322   -2.3846    0.0000 C   0  0  0  0  0  0  0  0  0  0  0  0
    6.4094   -2.1080    0.0000 N   0  0  0  0  0  0  0  0  0  0  0  0
    6.9126   -2.7617    0.0000 C   0  0  0  0  0  0  0  0  0  0  0  0
    6.4464   -3.4423    0.0000 N   0  0  0  0  0  0  0  0  0  0  0  0
    5.8729   -4.8448    0.0000 C   0  0  0  0  0  0  0  0  0  0  0  0
    5.9819   -5.6626    0.0000 O   0  0  0  0  0  0  0  0  0  0  0  0
    6.5267   -4.3416    0.0000 N   0  0  0  0  0  0  0  0  0  0  0  0
    7.2894   -4.6561    0.0000 C   0  0  2  0  0  0  0  0  0  0  0  0
    7.3983   -5.4739    0.0000 C   0  0  0  0  0  0  0  0  0  0  0  0
    8.1610   -5.7884    0.0000 C   0  0  0  0  0  0  0  0  0  0  0  0
    8.8147   -5.2851    0.0000 C   0  0  0  0  0  0  0  0  0  0  0  0
    9.5774   -5.5997    0.0000 C   0  0  0  0  0  0  0  0  0  0  0  0
    9.6864   -6.4174    0.0000 C   0  0  0  0  0  0  0  0  0  0  0  0
   10.4491   -6.7320    0.0000 C   0  0  0  0  0  0  0  0  0  0  0  0
   10.5580   -7.5497    0.0000 C   0  0  0  0  0  0  0  0  0  0  0  0
    9.9043   -8.0530    0.0000 C   0  0  0  0  0  0  0  0  0  0  0  0
    9.1416   -7.7385    0.0000 C   0  0  0  0  0  0  0  0  0  0  0  0
    9.0327   -6.9207    0.0000 C   0  0  0  0  0  0  0  0  0  0  0  0
    8.2700   -6.6062    0.0000 C   0  0  0  0  0  0  0  0  0  0  0  0
    7.9431   -4.1528    0.0000 C   0  0  0  0  0  0  0  0  0  0  0  0
    7.8341   -3.3351    0.0000 O   0  0  0  0  0  0  0  0  0  0  0  0
    8.7058   -4.4674    0.0000 N   0  0  0  0  0  0  0  0  0  0  0  0
    9.3595   -3.9641    0.0000 C   0  0  2  0  0  0  0  0  0  0  0  0
    9.2506   -3.1463    0.0000 C   0  0  0  0  0  0  0  0  0  0  0  0
    9.9043   -2.6431    0.0000 C   0  0  0  0  0  0  0  0  0  0  0  0
    9.7954   -1.8253    0.0000 C   0  0  0  0  0  0  0  0  0  0  0  0
   10.4491   -1.3221    0.0000 C   0  0  0  0  0  0  0  0  0  0  0  0
   11.2118   -1.6366    0.0000 C   0  0  0  0  0  0  0  0  0  0  0  0
   11.3207   -2.4544    0.0000 C   0  0  0  0  0  0  0  0  0  0  0  0
   10.6670   -2.9576    0.0000 C   0  0  0  0  0  0  0  0  0  0  0  0
   10.1222   -4.2787    0.0000 C   0  0  0  0  0  0  0  0  0  0  0  0
   10.2312   -5.0964    0.0000 O   0  0  0  0  0  0  0  0  0  0  0  0
   10.7760   -3.7754    0.0000 N   0  0  0  0  0  0  0  0  0  0  0  0
   11.5386   -4.0899    0.0000 C   0  0  1  0  0  0  0  0  0  0  0  0
   12.1924   -3.5867    0.0000 C   0  0  0  0  0  0  0  0  0  0  0  0
   12.9551   -3.9012    0.0000 C   0  0  0  0  0  0  0  0  0  0  0  0
   13.6088   -3.3980    0.0000 C   0  0  0  0  0  0  0  0  0  0  0  0
   14.3715   -3.7125    0.0000 C   0  0  0  0  0  0  0  0  0  0  0  0
   15.0252   -3.2093    0.0000 N   0  0  0  0  0  0  0  0  0  0  0  0
   11.6476   -4.9077    0.0000 C   0  0  0  0  0  0  0  0  0  0  0  0
   12.4103   -5.2222    0.0000 O   0  0  0  0  0  0  0  0  0  0  0  0
   10.9939   -5.4110    0.0000 N   0  0  0  0  0  0  0  0  0  0  0  0
    2.5368   -4.5685    0.0000 N   0  0  0  0  0  0  0  0  0  0  0  0
  1  2  1  0  0  0  0
  2  3  1  0  0  0  0
  2  4  1  0  0  0  0
  4  5  2  0  0  0  0
  4  6  1  0  0  0  0
  7  6  1  1  0  0  0
  7  8  1  0  0  0  0
  8  9  1  0  0  0  0
  9 10  2  0  0  0  0
 10 11  1  0  0  0  0
 11 12  1  0  0  0  0
 12 13  2  0  0  0  0
  9 13  1  0  0  0  0
  7 14  1  0  0  0  0
 14 15  2  0  0  0  0
 14 16  1  0  0  0  0
 17 16  1  1  0  0  0
 17 18  1  0  0  0  0
 18 19  1  0  0  0  0
 19 20  2  0  0  0  0
 20 21  1  0  0  0  0
 21 22  2  0  0  0  0
 22 23  1  0  0  0  0
 23 24  2  0  0  0  0
 24 25  1  0  0  0  0
 25 26  2  0  0  0  0
 26 27  1  0  0  0  0
 22 27  1  0  0  0  0
 27 28  2  0  0  0  0
 19 28  1  0  0  0  0
 17 29  1  0  0  0  0
 29 30  2  0  0  0  0
 29 31  1  0  0  0  0
 32 31  1  6  0  0  0
 32 33  1  0  0  0  0
 33 34  1  0  0  0  0
 34 35  2  0  0  0  0
 35 36  1  0  0  0  0
 36 37  2  0  0  0  0
 37 38  1  0  0  0  0
 38 39  2  0  0  0  0
 34 39  1  0  0  0  0
 32 40  1  0  0  0  0
 40 41  2  0  0  0  0
 40 42  1  0  0  0  0
 43 42  1  1  0  0  0
 43 44  1  0  0  0  0
 44 45  1  0  0  0  0
 45 46  1  0  0  0  0
 46 47  1  0  0  0  0
 47 48  1  0  0  0  0
 43 49  1  0  0  0  0
 49 50  2  0  0  0  0
 49 51  1  0  0  0  0
  2 52  1  0  0  0  0
M  END
> <DATABASE_ID>
DB12370

> <DATABASE_NAME>
drugbank

> <SMILES>
CC(C)(N)C(=O)N[C@@H](CC1=CNC=N1)C(=O)N[C@H](CC1=CC=C2C=CC=CC2=C1)C(=O)N[C@H](CC1=CC=CC=C1)C(=O)N[C@@H](CCCCN)C(N)=O

> <INCHI_IDENTIFIER>
InChI=1S/C38H49N9O5/c1-38(2,41)37(52)47-32(21-28-22-42-23-43-28)36(51)46-31(20-25-15-16-26-12-6-7-13-27(26)18-25)35(50)45-30(19-24-10-4-3-5-11-24)34(49)44-29(33(40)48)14-8-9-17-39/h3-7,10-13,15-16,18,22-23,29-32H,8-9,14,17,19-21,39,41H2,1-2H3,(H2,40,48)(H,42,43)(H,44,49)(H,45,50)(H,46,51)(H,47,52)/t29-,30+,31+,32-/m0/s1

> <INCHI_KEY>
NEHWBYHLYZGBNO-BVEPWEIPSA-N

> <FORMULA>
C38H49N9O5

> <MOLECULAR_WEIGHT>
711.868

> <EXACT_MASS>
711.385665714

> <JCHEM_ACCEPTOR_COUNT>
8

> <JCHEM_ATOM_COUNT>
101

> <JCHEM_AVERAGE_POLARIZABILITY>
77.05357211534492

> <JCHEM_BIOAVAILABILITY>
0

> <JCHEM_DONOR_COUNT>
8

> <JCHEM_FORMAL_CHARGE>
0

> <JCHEM_GHOSE_FILTER>
0

> <JCHEM_IUPAC>
(2S)-6-amino-2-[(2R)-2-[(2R)-2-[(2S)-2-(2-amino-2-methylpropanamido)-3-(1H-imidazol-4-yl)propanamido]-3-(naphthalen-2-yl)propanamido]-3-phenylpropanamido]hexanamide

> <ALOGPS_LOGP>
1.51

> <JCHEM_LOGP>
0.6389445383333345

> <ALOGPS_LOGS>
-5.35

> <JCHEM_MDDR_LIKE_RULE>
1

> <JCHEM_NUMBER_OF_RINGS>
4

> <JCHEM_PHYSIOLOGICAL_CHARGE>
2

> <JCHEM_PKA>
12.19706906827904

> <JCHEM_PKA_STRONGEST_ACIDIC>
11.793802864460481

> <JCHEM_PKA_STRONGEST_BASIC>
10.198883950648652

> <JCHEM_POLAR_SURFACE_AREA>
240.21

> <JCHEM_REFRACTIVITY>
196.2188

> <JCHEM_ROTATABLE_BOND_COUNT>
19

> <JCHEM_RULE_OF_FIVE>
0

> <ALOGPS_SOLUBILITY>
3.20e-03 g/l

> <JCHEM_TRADITIONAL_IUPAC>
(2S)-6-amino-2-[(2R)-2-[(2R)-2-[(2S)-2-(2-amino-2-methylpropanamido)-3-(1H-imidazol-4-yl)propanamido]-3-(naphthalen-2-yl)propanamido]-3-phenylpropanamido]hexanamide

> <JCHEM_VEBER_RULE>
0

> <DRUGBANK_ID>
DB12370

> <DRUG_GROUPS>
investigational

> <GENERIC_NAME>
Ipamorelin

> <SYNONYMS>
Ipamorelin

$$$$
