
  Mrv1652310211602512D          

 33 36  0  0  0  0            999 V2000
    5.0013   -3.7125    0.0000 C   0  0  0  0  0  0  0  0  0  0  0  0
    4.2868   -4.1250    0.0000 C   0  0  0  0  0  0  0  0  0  0  0  0
    3.5724   -3.7125    0.0000 C   0  0  0  0  0  0  0  0  0  0  0  0
    3.5724   -2.8875    0.0000 C   0  0  0  0  0  0  0  0  0  0  0  0
    4.2868   -2.4750    0.0000 C   0  0  0  0  0  0  0  0  0  0  0  0
    5.0013   -2.8875    0.0000 C   0  0  0  0  0  0  0  0  0  0  0  0
    4.2868   -1.6500    0.0000 C   0  0  1  0  0  0  0  0  0  0  0  0
    3.5724   -1.2375    0.0000 C   0  0  0  0  0  0  0  0  0  0  0  0
    3.5724   -0.4125    0.0000 C   0  0  0  0  0  0  0  0  0  0  0  0
    4.2868    0.0000    0.0000 C   0  0  1  0  0  0  0  0  0  0  0  0
    5.0013   -0.4125    0.0000 C   0  0  0  0  0  0  0  0  0  0  0  0
    5.0013   -1.2375    0.0000 C   0  0  0  0  0  0  0  0  0  0  0  0
    4.2868    0.8250    0.0000 C   0  0  0  0  0  0  0  0  0  0  0  0
    5.0013    1.2375    0.0000 C   0  0  0  0  0  0  0  0  0  0  0  0
    5.0013    2.0625    0.0000 O   0  0  0  0  0  0  0  0  0  0  0  0
    5.7158    0.8250    0.0000 O   0  0  0  0  0  0  0  0  0  0  0  0
    4.2868   -4.9500    0.0000 C   0  0  0  0  0  0  0  0  0  0  0  0
    5.0013   -5.3625    0.0000 N   0  0  0  0  0  0  0  0  0  0  0  0
    5.0013   -6.1875    0.0000 C   0  0  0  0  0  0  0  0  0  0  0  0
    4.2868   -6.6000    0.0000 C   0  0  0  0  0  0  0  0  0  0  0  0
    3.5724   -6.1875    0.0000 C   0  0  0  0  0  0  0  0  0  0  0  0
    3.5724   -5.3625    0.0000 C   0  0  0  0  0  0  0  0  0  0  0  0
    4.2868   -7.4250    0.0000 N   0  0  0  0  0  0  0  0  0  0  0  0
    3.5724   -7.8375    0.0000 C   0  0  0  0  0  0  0  0  0  0  0  0
    3.5724   -8.6625    0.0000 C   0  0  0  0  0  0  0  0  0  0  0  0
    2.8579   -9.0750    0.0000 N   0  0  0  0  0  0  0  0  0  0  0  0
    2.1434   -8.6625    0.0000 C   0  0  0  0  0  0  0  0  0  0  0  0
    2.1434   -7.8375    0.0000 C   0  0  0  0  0  0  0  0  0  0  0  0
    2.8579   -7.4250    0.0000 C   0  0  0  0  0  0  0  0  0  0  0  0
    1.4289   -9.0750    0.0000 C   0  0  0  0  0  0  0  0  0  0  0  0
    0.7145   -9.4875    0.0000 F   0  0  0  0  0  0  0  0  0  0  0  0
    1.0164   -8.3605    0.0000 F   0  0  0  0  0  0  0  0  0  0  0  0
    1.8414   -9.7895    0.0000 F   0  0  0  0  0  0  0  0  0  0  0  0
  1  2  2  0  0  0  0
  2  3  1  0  0  0  0
  3  4  2  0  0  0  0
  4  5  1  0  0  0  0
  5  6  2  0  0  0  0
  1  6  1  0  0  0  0
  7  5  1  1  0  0  0
  7  8  1  0  0  0  0
  8  9  1  0  0  0  0
  9 10  1  0  0  0  0
 10 11  1  0  0  0  0
 11 12  1  0  0  0  0
  7 12  1  0  0  0  0
 10 13  1  6  0  0  0
 13 14  1  0  0  0  0
 14 15  2  0  0  0  0
 14 16  1  0  0  0  0
  2 17  1  0  0  0  0
 17 18  2  0  0  0  0
 18 19  1  0  0  0  0
 19 20  2  0  0  0  0
 20 21  1  0  0  0  0
 21 22  2  0  0  0  0
 17 22  1  0  0  0  0
 20 23  1  0  0  0  0
 23 24  1  0  0  0  0
 24 25  2  0  0  0  0
 25 26  1  0  0  0  0
 26 27  2  0  0  0  0
 27 28  1  0  0  0  0
 28 29  2  0  0  0  0
 24 29  1  0  0  0  0
 27 30  1  0  0  0  0
 30 31  1  0  0  0  0
 30 32  1  0  0  0  0
 30 33  1  0  0  0  0
M  END
> <DATABASE_ID>
DB12866

> <DATABASE_NAME>
drugbank

> <SMILES>
OC(=O)C[C@H]1CC[C@@H](CC1)C1=CC=C(C=C1)C1=NC=C(NC2=CN=C(C=C2)C(F)(F)F)C=C1

> <INCHI_IDENTIFIER>
InChI=1S/C25H24F3N3O2/c26-25(27,28)23-12-10-21(15-30-23)31-20-9-11-22(29-14-20)19-7-5-18(6-8-19)17-3-1-16(2-4-17)13-24(32)33/h5-12,14-17,31H,1-4,13H2,(H,32,33)/t16-,17-

> <INCHI_KEY>
GXALXAKNHIROPE-QAQDUYKDSA-N

> <FORMULA>
C25H24F3N3O2

> <MOLECULAR_WEIGHT>
455.481

> <EXACT_MASS>
455.182061514

> <JCHEM_ACCEPTOR_COUNT>
5

> <JCHEM_ATOM_COUNT>
57

> <JCHEM_AVERAGE_POLARIZABILITY>
46.99824113277618

> <JCHEM_BIOAVAILABILITY>
1

> <JCHEM_DONOR_COUNT>
2

> <JCHEM_FORMAL_CHARGE>
0

> <JCHEM_GHOSE_FILTER>
1

> <JCHEM_IUPAC>
2-[(1r,4r)-4-[4-(5-{[6-(trifluoromethyl)pyridin-3-yl]amino}pyridin-2-yl)phenyl]cyclohexyl]acetic acid

> <ALOGPS_LOGP>
6.12

> <JCHEM_LOGP>
5.277711463619755

> <ALOGPS_LOGS>
-5.95

> <JCHEM_MDDR_LIKE_RULE>
1

> <JCHEM_NUMBER_OF_RINGS>
4

> <JCHEM_PHYSIOLOGICAL_CHARGE>
-1

> <JCHEM_PKA>
17.15065005422535

> <JCHEM_PKA_STRONGEST_ACIDIC>
5.033181271120657

> <JCHEM_PKA_STRONGEST_BASIC>
4.313092180366985

> <JCHEM_POLAR_SURFACE_AREA>
75.11

> <JCHEM_REFRACTIVITY>
117.60290000000002

> <JCHEM_ROTATABLE_BOND_COUNT>
7

> <JCHEM_RULE_OF_FIVE>
0

> <ALOGPS_SOLUBILITY>
5.07e-04 g/l

> <JCHEM_TRADITIONAL_IUPAC>
[(1r,4r)-4-[4-(5-{[6-(trifluoromethyl)pyridin-3-yl]amino}pyridin-2-yl)phenyl]cyclohexyl]acetic acid

> <JCHEM_VEBER_RULE>
0

> <DRUGBANK_ID>
DB12866

> <DRUG_GROUPS>
investigational

> <GENERIC_NAME>
Pradigastat

> <SYNONYMS>
Pradigastat

$$$$
