
  Mrv1909 06082105002D          

 38 38  0  0  1  0            999 V2000
   -6.7834   -2.4770    0.0000 O   0  0  0  0  0  0  0  0  0  0  0  0
   -7.4977   -2.0641    0.0000 C   0  0  0  0  0  0  0  0  0  0  0  0
   -7.4977   -1.2431    0.0000 C   0  0  1  0  0  0  0  0  0  0  0  0
   -6.7881   -0.8257    0.0000 O   0  0  0  0  0  0  0  0  0  0  0  0
   -6.0738   -1.2431    0.0000 C   0  0  0  0  0  0  0  0  0  0  0  0
   -5.3548   -0.8350    0.0000 P   0  0  0  0  0  0  0  0  0  0  0  0
   -4.6452   -1.2477    0.0000 O   0  0  0  0  0  0  0  0  0  0  0  0
   -3.9262   -0.8350    0.0000 C   0  0  0  0  0  0  0  0  0  0  0  0
   -3.2167   -1.2525    0.0000 C   0  0  0  0  0  0  0  0  0  0  0  0
   -2.4977   -0.8397    0.0000 C   0  0  0  0  0  0  0  0  0  0  0  0
   -1.7881   -1.2525    0.0000 O   0  0  0  0  0  0  0  0  0  0  0  0
   -1.0691   -0.8397    0.0000 C   0  0  0  0  0  0  0  0  0  0  0  0
   -0.3549   -1.2525    0.0000 C   0  0  0  0  0  0  0  0  0  0  0  0
    0.3594   -0.8397    0.0000 C   0  0  0  0  0  0  0  0  0  0  0  0
    1.0736   -1.2525    0.0000 C   0  0  0  0  0  0  0  0  0  0  0  0
    1.7879   -0.8397    0.0000 C   0  0  0  0  0  0  0  0  0  0  0  0
    2.5021   -1.2525    0.0000 C   0  0  0  0  0  0  0  0  0  0  0  0
    3.2165   -0.8397    0.0000 C   0  0  0  0  0  0  0  0  0  0  0  0
    3.9307   -1.2525    0.0000 C   0  0  0  0  0  0  0  0  0  0  0  0
    4.6451   -0.8397    0.0000 C   0  0  0  0  0  0  0  0  0  0  0  0
    5.3593   -1.2525    0.0000 C   0  0  0  0  0  0  0  0  0  0  0  0
    6.0736   -0.8397    0.0000 C   0  0  0  0  0  0  0  0  0  0  0  0
    6.7878   -1.2525    0.0000 C   0  0  0  0  0  0  0  0  0  0  0  0
    7.5022   -0.8395    0.0000 C   0  0  0  0  0  0  0  0  0  0  0  0
    8.2164   -1.2571    0.0000 C   0  0  0  0  0  0  0  0  0  0  0  0
    8.9307   -0.8490    0.0000 C   0  0  0  0  0  0  0  0  0  0  0  0
    9.6450   -1.2617    0.0000 C   0  0  0  0  0  0  0  0  0  0  0  0
   -4.9467   -0.1161    0.0000 O   0  0  0  0  0  0  0  0  0  0  0  0
   -5.7723   -0.1161    0.0000 O   0  0  0  0  0  0  0  0  0  0  0  0
   -8.2124   -0.8304    0.0000 C   0  0  0  0  0  0  0  0  0  0  0  0
   -8.2124   -0.0032    0.0000 N   0  0  0  0  0  0  0  0  0  0  0  0
   -8.9293    0.4101    0.0000 C   0  0  0  0  0  0  0  0  0  0  0  0
   -8.9293    1.2382    0.0000 N   0  0  0  0  0  0  0  0  0  0  0  0
   -8.2144    1.6514    0.0000 C   0  0  0  0  0  0  0  0  0  0  0  0
   -7.4936    1.2424    0.0000 C   0  0  0  0  0  0  0  0  0  0  0  0
   -7.4936    0.4105    0.0000 C   0  0  0  0  0  0  0  0  0  0  0  0
   -8.2144    2.4769    0.0000 N   0  0  0  0  0  0  0  0  0  0  0  0
   -9.6450   -0.0029    0.0000 O   0  0  0  0  0  0  0  0  0  0  0  0
  2  1  1  0  0  0  0
  3  2  1  6  0  0  0
  3  4  1  0  0  0  0
  4  5  1  0  0  0  0
  5  6  1  0  0  0  0
  6  7  1  0  0  0  0
  7  8  1  0  0  0  0
  8  9  1  0  0  0  0
  9 10  1  0  0  0  0
 10 11  1  0  0  0  0
 11 12  1  0  0  0  0
 12 13  1  0  0  0  0
 13 14  1  0  0  0  0
 14 15  1  0  0  0  0
 15 16  1  0  0  0  0
 16 17  1  0  0  0  0
 17 18  1  0  0  0  0
 18 19  1  0  0  0  0
 19 20  1  0  0  0  0
 20 21  1  0  0  0  0
 21 22  1  0  0  0  0
 22 23  1  0  0  0  0
 23 24  1  0  0  0  0
 24 25  1  0  0  0  0
 25 26  1  0  0  0  0
 26 27  1  0  0  0  0
  6 28  2  0  0  0  0
  6 29  1  0  0  0  0
 30  3  1  0  0  0  0
 31 30  1  0  0  0  0
 32 31  1  0  0  0  0
 33 32  1  0  0  0  0
 34 33  2  0  0  0  0
 35 34  1  0  0  0  0
 36 35  2  0  0  0  0
 31 36  1  0  0  0  0
 34 37  1  0  0  0  0
 32 38  2  0  0  0  0
M  END
> <DATABASE_ID>
DB12151

> <DATABASE_NAME>
drugbank

> <SMILES>
CCCCCCCCCCCCCCCCOCCCOP(O)(=O)CO[C@H](CO)CN1C=CC(N)=NC1=O

> <INCHI_IDENTIFIER>
InChI=1S/C27H52N3O7P/c1-2-3-4-5-6-7-8-9-10-11-12-13-14-15-19-35-20-16-21-37-38(33,34)24-36-25(23-31)22-30-18-17-26(28)29-27(30)32/h17-18,25,31H,2-16,19-24H2,1H3,(H,33,34)(H2,28,29,32)/t25-/m0/s1

> <INCHI_KEY>
WXJFKKQWPMNTIM-VWLOTQADSA-N

> <FORMULA>
C27H52N3O7P

> <MOLECULAR_WEIGHT>
561.701

> <EXACT_MASS>
561.354288024

> <JCHEM_ACCEPTOR_COUNT>
8

> <JCHEM_ATOM_COUNT>
90

> <JCHEM_AVERAGE_NEUTRAL_MICROSPECIES_CHARGE>
0.9554883710334429

> <JCHEM_AVERAGE_POLARIZABILITY>
65.30575842972232

> <JCHEM_BIOAVAILABILITY>
0

> <JCHEM_DONOR_COUNT>
3

> <JCHEM_FORMAL_CHARGE>
0

> <JCHEM_GHOSE_FILTER>
0

> <JCHEM_IUPAC>
({[(2S)-1-(4-amino-2-oxo-1,2-dihydropyrimidin-1-yl)-3-hydroxypropan-2-yl]oxy}methyl)[3-(hexadecyloxy)propoxy]phosphinic acid

> <ALOGPS_LOGP>
4.40

> <JCHEM_LOGP>
4.424556363541903

> <ALOGPS_LOGS>
-5.65

> <JCHEM_MDDR_LIKE_RULE>
0

> <JCHEM_NEUTRAL_CHARGE>
-1

> <JCHEM_NUMBER_OF_RINGS>
1

> <JCHEM_PHYSIOLOGICAL_CHARGE>
-1

> <JCHEM_PKA>
14.634953376988571

> <JCHEM_PKA_STRONGEST_ACIDIC>
1.3199914776698558

> <JCHEM_PKA_STRONGEST_BASIC>
4.662525587411362

> <JCHEM_POLAR_SURFACE_AREA>
143.91

> <JCHEM_REFRACTIVITY>
149.90470000000005

> <JCHEM_ROTATABLE_BOND_COUNT>
26

> <JCHEM_RULE_OF_FIVE>
0

> <ALOGPS_SOLUBILITY>
1.24e-03 g/l

> <JCHEM_TRADITIONAL_IUPAC>
brincidofovir

> <JCHEM_VEBER_RULE>
0

> <DRUGBANK_ID>
DB12151

> <SECONDARY_ACCESSION_NUMBERS>
DB05176

> <DRUG_GROUPS>
approved; investigational

> <GENERIC_NAME>
Brincidofovir

> <SYNONYMS>
Brincidofovir; Cidofovir hexadecyloxypropyl ester

> <PRODUCTS>
Tembexa

> <INTERNATIONAL_BRANDS>
Tembexa

> <SALTS>
Brincidofovir sodium

$$$$
