
  Mrv1652310211600332D          

 17 18  0  0  1  0            999 V2000
   -0.6078    4.3527    0.0000 C   0  0  0  0  0  0  0  0  0  0  0  0
   -0.6078    3.5277    0.0000 C   0  0  0  0  0  0  0  0  0  0  0  0
   -1.3222    3.1152    0.0000 N   0  0  0  0  0  0  0  0  0  0  0  0
   -2.0367    3.5277    0.0000 C   0  0  0  0  0  0  0  0  0  0  0  0
   -2.7512    3.1152    0.0000 O   0  0  0  0  0  0  0  0  0  0  0  0
   -2.0367    4.3527    0.0000 N   0  0  0  0  0  0  0  0  0  0  0  0
   -1.3222    4.7652    0.0000 C   0  0  0  0  0  0  0  0  0  0  0  0
   -1.3222    5.5902    0.0000 O   0  0  0  0  0  0  0  0  0  0  0  0
   -1.3222    2.2902    0.0000 C   0  0  1  0  0  0  0  0  0  0  0  0
   -0.6548    1.8053    0.0000 C   0  0  1  0  0  0  0  0  0  0  0  0
   -0.9097    1.0206    0.0000 C   0  0  1  0  0  0  0  0  0  0  0  0
   -1.7347    1.0206    0.0000 C   0  0  2  0  0  0  0  0  0  0  0  0
   -1.9897    1.8053    0.0000 O   0  0  0  0  0  0  0  0  0  0  0  0
   -2.2197    0.3532    0.0000 C   0  0  0  0  0  0  0  0  0  0  0  0
   -1.8841   -0.4005    0.0000 O   0  0  0  0  0  0  0  0  0  0  0  0
   -0.4248    0.3532    0.0000 O   0  0  0  0  0  0  0  0  0  0  0  0
    0.1298    2.0602    0.0000 O   0  0  0  0  0  0  0  0  0  0  0  0
  1  2  1  0  0  0  0
  2  3  1  0  0  0  0
  3  4  1  0  0  0  0
  4  5  2  0  0  0  0
  4  6  1  0  0  0  0
  6  7  1  0  0  0  0
  1  7  1  0  0  0  0
  7  8  1  0  0  0  0
  9  3  1  1  0  0  0
  9 10  1  0  0  0  0
 10 11  1  0  0  0  0
 11 12  1  0  0  0  0
 12 13  1  0  0  0  0
  9 13  1  0  0  0  0
 12 14  1  1  0  0  0
 14 15  1  0  0  0  0
 11 16  1  6  0  0  0
 10 17  1  6  0  0  0
M  END
> <DATABASE_ID>
DB12484

> <DATABASE_NAME>
drugbank

> <SMILES>
OC[C@H]1O[C@H]([C@H](O)[C@@H]1O)N1CCC(O)NC1=O

> <INCHI_IDENTIFIER>
InChI=1S/C9H16N2O6/c12-3-4-6(14)7(15)8(17-4)11-2-1-5(13)10-9(11)16/h4-8,12-15H,1-3H2,(H,10,16)/t4-,5?,6-,7-,8-/m1/s1

> <INCHI_KEY>
UCKYOOZPSJFJIZ-XVKVHKPRSA-N

> <FORMULA>
C9H16N2O6

> <MOLECULAR_WEIGHT>
248.235

> <EXACT_MASS>
248.100836243

> <JCHEM_ACCEPTOR_COUNT>
6

> <JCHEM_ATOM_COUNT>
33

> <JCHEM_AVERAGE_POLARIZABILITY>
23.587395452306133

> <JCHEM_BIOAVAILABILITY>
1

> <JCHEM_DONOR_COUNT>
5

> <JCHEM_FORMAL_CHARGE>
0

> <JCHEM_GHOSE_FILTER>
0

> <JCHEM_IUPAC>
1-[(2R,3R,4S,5R)-3,4-dihydroxy-5-(hydroxymethyl)oxolan-2-yl]-4-hydroxy-1,3-diazinan-2-one

> <ALOGPS_LOGP>
-2.50

> <JCHEM_LOGP>
-2.741878636

> <ALOGPS_LOGS>
-0.07

> <JCHEM_MDDR_LIKE_RULE>
0

> <JCHEM_NUMBER_OF_RINGS>
2

> <JCHEM_PHYSIOLOGICAL_CHARGE>
0

> <JCHEM_PKA>
12.561404461394797

> <JCHEM_PKA_STRONGEST_ACIDIC>
11.466688135205303

> <JCHEM_PKA_STRONGEST_BASIC>
-2.980289857662374

> <JCHEM_POLAR_SURFACE_AREA>
122.49000000000002

> <JCHEM_REFRACTIVITY>
53.045

> <JCHEM_ROTATABLE_BOND_COUNT>
2

> <JCHEM_RULE_OF_FIVE>
1

> <ALOGPS_SOLUBILITY>
2.09e+02 g/l

> <JCHEM_TRADITIONAL_IUPAC>
1-[(2R,3R,4S,5R)-3,4-dihydroxy-5-(hydroxymethyl)oxolan-2-yl]-4-hydroxy-1,3-diazinan-2-one

> <JCHEM_VEBER_RULE>
0

> <DRUGBANK_ID>
DB12484

> <DRUG_GROUPS>
investigational

> <GENERIC_NAME>
Tetrahydrouridine

$$$$
