
  Mrv1909 01172018442D          

 32 34  0  0  0  0            999 V2000
   -0.9505    1.4789    0.0000 C   0  0  0  0  0  0  0  0  0  0  0  0
   -0.9505    0.6539    0.0000 C   0  0  0  0  0  0  0  0  0  0  0  0
   -0.1659    0.3990    0.0000 C   0  0  0  0  0  0  0  0  0  0  0  0
    0.3189    1.0664    0.0000 N   0  0  0  0  0  0  0  0  0  0  0  0
   -0.1659    1.7338    0.0000 C   0  0  0  0  0  0  0  0  0  0  0  0
    0.0867    2.5114    0.0000 O   0  0  0  0  0  0  0  0  0  0  0  0
    0.0867   -0.3786    0.0000 O   0  0  0  0  0  0  0  0  0  0  0  0
   -1.6651    1.8914    0.0000 C   0  0  0  0  0  0  0  0  0  0  0  0
   -2.3795    1.4789    0.0000 C   0  0  0  0  0  0  0  0  0  0  0  0
   -2.3795    0.6539    0.0000 C   0  0  0  0  0  0  0  0  0  0  0  0
   -1.6651    0.2414    0.0000 C   0  0  0  0  0  0  0  0  0  0  0  0
   -1.6651   -0.5834    0.0000 N   0  0  0  0  0  0  0  0  0  0  0  0
   -2.3795   -0.9959    0.0000 C   0  0  0  0  0  0  0  0  0  0  0  0
   -3.1050   -0.5769    0.0000 C   0  0  0  0  0  0  0  0  0  0  0  0
   -2.3795   -1.8209    0.0000 O   0  0  0  0  0  0  0  0  0  0  0  0
    1.1531    1.0664    0.0000 C   0  0  1  0  0  0  0  0  0  0  0  0
    1.5656    0.3519    0.0000 C   0  0  0  0  0  0  0  0  0  0  0  0
    1.5656    1.7808    0.0000 C   0  0  0  0  0  0  0  0  0  0  0  0
    2.3905    1.7808    0.0000 S   0  0  0  0  0  0  0  0  0  0  0  0
    2.3791    0.3519    0.0000 C   0  0  0  0  0  0  0  0  0  0  0  0
    2.7916   -0.3624    0.0000 C   0  0  0  0  0  0  0  0  0  0  0  0
    2.3792   -1.0769    0.0000 C   0  0  0  0  0  0  0  0  0  0  0  0
    1.5656   -1.0770    0.0000 C   0  0  0  0  0  0  0  0  0  0  0  0
    1.1531   -0.3625    0.0000 C   0  0  0  0  0  0  0  0  0  0  0  0
    2.7952   -1.7975    0.0000 O   0  0  0  0  0  0  0  0  0  0  0  0
    1.1532   -1.7914    0.0000 O   0  0  0  0  0  0  0  0  0  0  0  0
    0.3408   -1.7916    0.0000 C   0  0  0  0  0  0  0  0  0  0  0  0
   -0.0746   -2.5114    0.0000 C   0  0  0  0  0  0  0  0  0  0  0  0
    2.3871   -2.5039    0.0000 C   0  0  0  0  0  0  0  0  0  0  0  0
    2.8030    2.4953    0.0000 C   0  0  0  0  0  0  0  0  0  0  0  0
    3.1050    1.3683    0.0000 O   0  0  0  0  0  0  0  0  0  0  0  0
    2.3905    0.9558    0.0000 O   0  0  0  0  0  0  0  0  0  0  0  0
  1  2  1  0  0  0  0
  2  3  1  0  0  0  0
  3  4  1  0  0  0  0
  4  5  1  0  0  0  0
  1  5  1  0  0  0  0
  5  6  2  0  0  0  0
  3  7  2  0  0  0  0
  1  8  2  0  0  0  0
  8  9  1  0  0  0  0
  9 10  2  0  0  0  0
 10 11  1  0  0  0  0
  2 11  2  0  0  0  0
 11 12  1  0  0  0  0
 12 13  1  0  0  0  0
 13 14  1  0  0  0  0
 13 15  2  0  0  0  0
  4 16  1  0  0  0  0
 16 17  1  0  0  0  0
 16 18  1  6  0  0  0
 18 19  1  0  0  0  0
 17 20  2  0  0  0  0
 20 21  1  0  0  0  0
 21 22  2  0  0  0  0
 22 23  1  0  0  0  0
 23 24  2  0  0  0  0
 17 24  1  0  0  0  0
 22 25  1  0  0  0  0
 23 26  1  0  0  0  0
 26 27  1  0  0  0  0
 27 28  1  0  0  0  0
 25 29  1  0  0  0  0
 19 30  1  0  0  0  0
 31 19  2  0  0  0  0
 32 19  2  0  0  0  0
M  END
> <DATABASE_ID>
DB05676

> <DATABASE_NAME>
drugbank

> <SMILES>
CCOC1=CC(=CC=C1OC)[C@@H](CS(C)(=O)=O)N1C(=O)C2=CC=CC(NC(C)=O)=C2C1=O

> <INCHI_IDENTIFIER>
InChI=1S/C22H24N2O7S/c1-5-31-19-11-14(9-10-18(19)30-3)17(12-32(4,28)29)24-21(26)15-7-6-8-16(23-13(2)25)20(15)22(24)27/h6-11,17H,5,12H2,1-4H3,(H,23,25)/t17-/m1/s1

> <INCHI_KEY>
IMOZEMNVLZVGJZ-QGZVFWFLSA-N

> <FORMULA>
C22H24N2O7S

> <MOLECULAR_WEIGHT>
460.5

> <EXACT_MASS>
460.130422295

> <JCHEM_ACCEPTOR_COUNT>
7

> <JCHEM_ATOM_COUNT>
56

> <JCHEM_AVERAGE_NEUTRAL_MICROSPECIES_CHARGE>
-1.0586008269239176e-06

> <JCHEM_AVERAGE_POLARIZABILITY>
46.706222565514906

> <JCHEM_BIOAVAILABILITY>
1

> <JCHEM_DONOR_COUNT>
1

> <JCHEM_FORMAL_CHARGE>
0

> <JCHEM_GHOSE_FILTER>
1

> <JCHEM_IUPAC>
N-{2-[(1S)-1-(3-ethoxy-4-methoxyphenyl)-2-methanesulfonylethyl]-1,3-dioxo-2,3-dihydro-1H-isoindol-4-yl}acetamide

> <ALOGPS_LOGP>
1.86

> <JCHEM_LOGP>
1.3102076129999998

> <ALOGPS_LOGS>
-4.13

> <JCHEM_MDDR_LIKE_RULE>
1

> <JCHEM_NEUTRAL_CHARGE>
0

> <JCHEM_NUMBER_OF_RINGS>
3

> <JCHEM_PHYSIOLOGICAL_CHARGE>
0

> <JCHEM_PKA_STRONGEST_ACIDIC>
12.975264101635446

> <JCHEM_PKA_STRONGEST_BASIC>
-4.236220940163859

> <JCHEM_POLAR_SURFACE_AREA>
119.08000000000001

> <JCHEM_REFRACTIVITY>
119.0997

> <JCHEM_ROTATABLE_BOND_COUNT>
8

> <JCHEM_RULE_OF_FIVE>
1

> <ALOGPS_SOLUBILITY>
3.41e-02 g/l

> <JCHEM_TRADITIONAL_IUPAC>
motesanib

> <JCHEM_VEBER_RULE>
0

> <DRUGBANK_ID>
DB05676

> <DRUG_GROUPS>
approved; investigational

> <GENERIC_NAME>
Apremilast

> <SYNONYMS>
AprÃ©milast; Apremilast; Apremilastum; N-{2-[(1S)-1-(3-Ethoxy-4-methoxyphenyl)-2-(methylsulfonyl)ethyl]-1,3-dioxo-2,3-dihydro-1H-isoindol-4-yl}acetamide

> <PRODUCTS>
Apremilast; Auro-apremilast; Gln-apremilast; Jamp Apremilast; Mar-apremilast; Mint-apremilast; Otezla; PMS-apremilast; Sandoz Apremilast; Teva-apremilast

$$$$
