
  Mrv1909 02132017392D          

 12 12  0  0  0  0            999 V2000
    0.7145   -0.8250    0.0000 O   0  0  0  0  0  0  0  0  0  0  0  0
    0.7145    0.0000    0.0000 C   0  0  1  0  0  0  0  0  0  0  0  0
    0.0000    0.4125    0.0000 C   0  0  0  0  0  0  0  0  0  0  0  0
   -0.7145    0.0000    0.0000 C   0  0  0  0  0  0  0  0  0  0  0  0
   -0.7145   -0.8250    0.0000 C   0  0  0  0  0  0  0  0  0  0  0  0
   -1.4289   -1.2374    0.0000 C   0  0  0  0  0  0  0  0  0  0  0  0
   -2.1434   -0.8250    0.0000 C   0  0  0  0  0  0  0  0  0  0  0  0
   -2.1434    0.0000    0.0000 C   0  0  0  0  0  0  0  0  0  0  0  0
   -1.4289    0.4125    0.0000 C   0  0  0  0  0  0  0  0  0  0  0  0
    1.4289    0.4125    0.0000 C   0  0  0  0  0  0  0  0  0  0  0  0
    1.4289    1.2374    0.0000 O   0  0  0  0  0  0  0  0  0  0  0  0
    2.1434    0.0000    0.0000 O   0  0  0  0  0  0  0  0  0  0  0  0
  2  1  1  1  0  0  0
  2 10  1  0  0  0  0
  2  3  1  0  0  0  0
  3  4  1  0  0  0  0
  4  9  2  0  0  0  0
  4  5  1  0  0  0  0
  5  6  2  0  0  0  0
  6  7  1  0  0  0  0
  7  8  2  0  0  0  0
  8  9  1  0  0  0  0
 10 11  2  0  0  0  0
 10 12  1  0  0  0  0
M  END
> <DATABASE_ID>
DB02494

> <DATABASE_NAME>
drugbank

> <SMILES>
O[C@@H](CC1=CC=CC=C1)C(O)=O

> <INCHI_IDENTIFIER>
InChI=1S/C9H10O3/c10-8(9(11)12)6-7-4-2-1-3-5-7/h1-5,8,10H,6H2,(H,11,12)/t8-/m0/s1

> <INCHI_KEY>
VOXXWSYKYCBWHO-QMMMGPOBSA-N

> <FORMULA>
C9H10O3

> <MOLECULAR_WEIGHT>
166.1739

> <EXACT_MASS>
166.062994186

> <JCHEM_ACCEPTOR_COUNT>
3

> <JCHEM_ATOM_COUNT>
22

> <JCHEM_AVERAGE_NEUTRAL_MICROSPECIES_CHARGE>
5.012465553101281e-05

> <JCHEM_AVERAGE_POLARIZABILITY>
16.69614539230921

> <JCHEM_BIOAVAILABILITY>
1

> <JCHEM_DONOR_COUNT>
2

> <JCHEM_FORMAL_CHARGE>
0

> <JCHEM_GHOSE_FILTER>
1

> <JCHEM_IUPAC>
(2S)-2-hydroxy-3-phenylpropanoic acid

> <ALOGPS_LOGP>
0.84

> <JCHEM_LOGP>
1.1844968496666666

> <ALOGPS_LOGS>
-1.23

> <JCHEM_MDDR_LIKE_RULE>
0

> <JCHEM_NEUTRAL_CHARGE>
-1

> <JCHEM_NUMBER_OF_RINGS>
1

> <JCHEM_PHYSIOLOGICAL_CHARGE>
-1

> <JCHEM_PKA>
14.19195842902614

> <JCHEM_PKA_STRONGEST_ACIDIC>
4.020980916532307

> <JCHEM_PKA_STRONGEST_BASIC>
-3.8373742935175534

> <JCHEM_POLAR_SURFACE_AREA>
57.53

> <JCHEM_REFRACTIVITY>
43.45880000000001

> <JCHEM_ROTATABLE_BOND_COUNT>
3

> <JCHEM_RULE_OF_FIVE>
1

> <ALOGPS_SOLUBILITY>
9.80e+00 g/l

> <JCHEM_TRADITIONAL_IUPAC>
L-3-phenyllactic acid

> <JCHEM_VEBER_RULE>
0

> <DRUGBANK_ID>
DB02494

> <SECONDARY_ACCESSION_NUMBERS>
EXPT01733

> <DRUG_GROUPS>
experimental

> <GENERIC_NAME>
(S)-3-phenyllactic acid

> <SYNONYMS>
alpha-hydroxy-beta-phenyl-propionic acid; L-(−)-3-phenyllactic acid; L-3-phenyllactic acid; L-beta-Phenyllactic acid; L-β-phenyllactic acid

$$$$
