
  Mrv1909 12081916522D          

 58 60  0  0  0  0            999 V2000
   -0.0384    3.6598    0.0000 O   0  0  0  0  0  0  0  0  0  0  0  0
    1.8708    2.6018    0.0000 O   0  0  0  0  0  0  0  0  0  0  0  0
    2.0887    5.5684    0.0000 O   0  0  0  0  0  0  0  0  0  0  0  0
   -2.4985    5.3318    0.0000 O   0  0  0  0  0  0  0  0  0  0  0  0
   -1.9092    2.5353    0.0000 O   0  0  0  0  0  0  0  0  0  0  0  0
    3.4470    5.1245    0.0000 O   0  0  0  0  0  0  0  0  0  0  0  0
   -1.4349    6.2861    0.0000 O   0  0  0  0  0  0  0  0  0  0  0  0
    4.5873    1.7139    0.0000 O   0  0  0  0  0  0  0  0  0  0  0  0
    1.9091    0.4194    0.0000 O   0  0  0  0  0  0  0  0  0  0  0  0
    4.8820    0.3157    0.0000 O   0  0  0  0  0  0  0  0  0  0  0  0
   -4.5873    1.2407    0.0000 O   0  0  0  0  0  0  0  0  0  0  0  0
   -1.1236   -3.2996    0.0000 O   0  0  0  0  0  0  0  0  0  0  0  0
   -4.8820    2.6390    0.0000 O   0  0  0  0  0  0  0  0  0  0  0  0
   -2.9344   -0.6014    0.0000 O   0  0  0  0  0  0  0  0  0  0  0  0
   -1.8708    0.3529    0.0000 O   0  0  0  0  0  0  0  0  0  0  0  0
   -0.3330    5.0580    0.0000 N   0  0  0  0  0  0  0  0  0  0  0  0
    2.9344    3.5561    0.0000 N   0  0  0  0  0  0  0  0  0  0  0  0
    3.2674   -0.0245    0.0000 N   0  0  0  0  0  0  0  0  0  0  0  0
   -3.2674    2.9792    0.0000 N   0  0  0  0  0  0  0  0  0  0  0  0
    0.3714   -5.6135    0.0000 N   0  0  0  0  0  0  0  0  0  0  0  0
   -1.1236   -5.7746    0.0000 N   0  0  0  0  0  0  0  0  0  0  0  0
   -1.8381   -4.5371    0.0000 N   0  0  0  0  0  0  0  0  0  0  0  0
   -2.5526   -5.7746    0.0000 N   0  0  0  0  0  0  0  0  0  0  0  0
    1.5761    4.0000    0.0000 C   0  0  0  0  0  0  0  0  0  0  0  0
    2.3834    4.1701    0.0000 C   0  0  1  0  0  0  0  0  0  0  0  0
   -1.1403    4.8879    0.0000 C   0  0  1  0  0  0  0  0  0  0  0  0
   -1.3966    4.1037    0.0000 C   0  0  0  0  0  0  0  0  0  0  0  0
    1.0251    4.6140    0.0000 C   0  0  0  0  0  0  0  0  0  0  0  0
    2.9727    1.3737    0.0000 C   0  0  0  0  0  0  0  0  0  0  0  0
   -2.2038    3.9335    0.0000 C   0  0  0  0  0  0  0  0  0  0  0  0
    3.5238    0.7596    0.0000 C   0  0  1  0  0  0  0  0  0  0  0  0
    3.2291    2.1578    0.0000 C   0  0  0  0  0  0  0  0  0  0  0  0
    0.6277   -3.5014    0.0000 C   0  0  0  0  0  0  0  0  0  0  0  0
    0.3714   -4.2857    0.0000 C   0  0  0  0  0  0  0  0  0  0  0  0
    1.4349   -3.3313    0.0000 C   0  0  0  0  0  0  0  0  0  0  0  0
    0.2179    4.4439    0.0000 C   0  0  0  0  0  0  0  0  0  0  0  0
    2.6780    2.7719    0.0000 C   0  0  0  0  0  0  0  0  0  0  0  0
   -0.4092   -4.5371    0.0000 C   0  0  0  0  0  0  0  0  0  0  0  0
   -3.5238    2.1950    0.0000 C   0  0  0  0  0  0  0  0  0  0  0  0
    1.6913   -2.5472    0.0000 C   0  0  0  0  0  0  0  0  0  0  0  0
   -2.4602    3.1493    0.0000 C   0  0  0  0  0  0  0  0  0  0  0  0
   -0.4092   -5.3621    0.0000 C   0  0  0  0  0  0  0  0  0  0  0  0
   -2.9727    1.5810    0.0000 C   0  0  0  0  0  0  0  0  0  0  0  0
    2.6397    4.9543    0.0000 C   0  0  0  0  0  0  0  0  0  0  0  0
    0.8529   -4.9496    0.0000 C   0  0  0  0  0  0  0  0  0  0  0  0
   -1.6913    5.5019    0.0000 C   0  0  0  0  0  0  0  0  0  0  0  0
    2.2038   -0.9788    0.0000 C   0  0  0  0  0  0  0  0  0  0  0  0
    2.4602   -0.1947    0.0000 C   0  0  0  0  0  0  0  0  0  0  0  0
    2.4985   -2.3770    0.0000 C   0  0  0  0  0  0  0  0  0  0  0  0
    1.1402   -1.9331    0.0000 C   0  0  0  0  0  0  0  0  0  0  0  0
    4.3310    0.9297    0.0000 C   0  0  0  0  0  0  0  0  0  0  0  0
   -3.2291    0.7968    0.0000 C   0  0  0  0  0  0  0  0  0  0  0  0
    2.7549   -1.5929    0.0000 C   0  0  0  0  0  0  0  0  0  0  0  0
    1.3966   -1.1489    0.0000 C   0  0  0  0  0  0  0  0  0  0  0  0
   -1.1236   -4.1246    0.0000 C   0  0  0  0  0  0  0  0  0  0  0  0
   -4.3310    2.0249    0.0000 C   0  0  0  0  0  0  0  0  0  0  0  0
   -1.8381   -5.3621    0.0000 C   0  0  0  0  0  0  0  0  0  0  0  0
   -2.6780    0.1828    0.0000 C   0  0  0  0  0  0  0  0  0  0  0  0
  1 36  2  0  0  0  0
  2 37  2  0  0  0  0
  3 44  1  0  0  0  0
  4 46  1  0  0  0  0
  5 41  2  0  0  0  0
  6 44  2  0  0  0  0
  7 46  2  0  0  0  0
  8 51  1  0  0  0  0
  9 48  2  0  0  0  0
 10 51  2  0  0  0  0
 11 56  1  0  0  0  0
 12 55  2  0  0  0  0
 13 56  2  0  0  0  0
 14 58  1  0  0  0  0
 15 58  2  0  0  0  0
 26 16  1  1  0  0  0
 16 36  1  0  0  0  0
 25 17  1  1  0  0  0
 17 37  1  0  0  0  0
 31 18  1  1  0  0  0
 18 48  1  0  0  0  0
 19 39  1  0  0  0  0
 19 41  1  0  0  0  0
 20 42  1  0  0  0  0
 20 45  1  0  0  0  0
 21 42  1  0  0  0  0
 21 57  1  0  0  0  0
 22 55  1  0  0  0  0
 22 57  2  0  0  0  0
 23 57  1  0  0  0  0
 24 25  1  0  0  0  0
 24 28  1  0  0  0  0
 25 44  1  0  0  0  0
 26 27  1  0  0  0  0
 26 46  1  0  0  0  0
 27 30  1  0  0  0  0
 28 36  1  0  0  0  0
 29 31  1  0  0  0  0
 29 32  1  0  0  0  0
 30 41  1  0  0  0  0
 31 51  1  0  0  0  0
 32 37  1  0  0  0  0
 33 34  1  0  0  0  0
 33 35  1  0  0  0  0
 34 38  1  0  0  0  0
 34 45  2  0  0  0  0
 35 40  1  0  0  0  0
 38 42  2  0  0  0  0
 38 55  1  0  0  0  0
 39 43  1  0  0  0  0
 39 56  1  0  0  0  0
 40 49  2  0  0  0  0
 40 50  1  0  0  0  0
 43 52  1  0  0  0  0
 47 48  1  0  0  0  0
 47 53  2  0  0  0  0
 47 54  1  0  0  0  0
 49 53  1  0  0  0  0
 50 54  2  0  0  0  0
 52 58  1  0  0  0  0
M  END
> <DATABASE_ID>
DB02223

> <DATABASE_NAME>
drugbank

> <SMILES>
NC1=NC(=O)C2=C(NC=C2CCC2=CC=C(C=C2)C(=O)N[C@@H](CCC(=O)N[C@@H](CCC(=O)N[C@@H](CCC(=O)NC(CCC(O)=O)C(O)=O)C(O)=O)C(O)=O)C(O)=O)N1

> <INCHI_IDENTIFIER>
InChI=1S/C35H42N8O15/c36-35-42-28-27(30(50)43-35)18(15-37-28)6-3-16-1-4-17(5-2-16)29(49)41-22(34(57)58)9-13-25(46)39-20(32(53)54)7-11-23(44)38-19(31(51)52)8-12-24(45)40-21(33(55)56)10-14-26(47)48/h1-2,4-5,15,19-22H,3,6-14H2,(H,38,44)(H,39,46)(H,40,45)(H,41,49)(H,47,48)(H,51,52)(H,53,54)(H,55,56)(H,57,58)(H4,36,37,42,43,50)/t19-,20-,21?,22-/m0/s1

> <INCHI_KEY>
DICHBVJYDUDAIQ-QEGIFBSNSA-N

> <FORMULA>
C35H42N8O15

> <MOLECULAR_WEIGHT>
814.7526

> <EXACT_MASS>
814.276962714

> <JCHEM_ACCEPTOR_COUNT>
18

> <JCHEM_ATOM_COUNT>
100

> <JCHEM_AVERAGE_POLARIZABILITY>
80.24029495673048

> <JCHEM_BIOAVAILABILITY>
0

> <JCHEM_DONOR_COUNT>
12

> <JCHEM_FORMAL_CHARGE>
0

> <JCHEM_GHOSE_FILTER>
0

> <JCHEM_IUPAC>
2-[(4S)-4-[(4S)-4-[(4S)-4-{[4-(2-{2-amino-4-oxo-1H,4H,7H-pyrrolo[2,3-d]pyrimidin-5-yl}ethyl)phenyl]formamido}-4-carboxybutanamido]-4-carboxybutanamido]-4-carboxybutanamido]pentanedioic acid

> <ALOGPS_LOGP>
-0.40

> <JCHEM_LOGP>
-1.1808856529999998

> <ALOGPS_LOGS>
-4.22

> <JCHEM_MDDR_LIKE_RULE>
1

> <JCHEM_NUMBER_OF_RINGS>
3

> <JCHEM_PHYSIOLOGICAL_CHARGE>
-5

> <JCHEM_PKA>
3.256308248690262

> <JCHEM_PKA_STRONGEST_ACIDIC>
2.8125646346065767

> <JCHEM_POLAR_SURFACE_AREA>
386.16999999999985

> <JCHEM_REFRACTIVITY>
193.71299999999994

> <JCHEM_ROTATABLE_BOND_COUNT>
24

> <JCHEM_RULE_OF_FIVE>
0

> <ALOGPS_SOLUBILITY>
4.92e-02 g/l

> <JCHEM_TRADITIONAL_IUPAC>
immucillin G

> <JCHEM_VEBER_RULE>
0

> <DRUGBANK_ID>
DB02223

> <SECONDARY_ACCESSION_NUMBERS>
EXPT02076

> <DRUG_GROUPS>
experimental

> <GENERIC_NAME>
LY231514 tetra glu

$$$$
