
  Mrv1909 12021903432D          

 47 52  0  0  0  0            999 V2000
   -1.5683   -1.2136    0.0000 C   0  0  0  0  0  0  0  0  0  0  0  0
   -1.9787   -1.9309    0.0000 C   0  0  0  0  0  0  0  0  0  0  0  0
   -1.5683   -2.6436    0.0000 N   0  0  0  0  0  0  0  0  0  0  0  0
   -0.7433   -2.6436    0.0000 C   0  0  0  0  0  0  0  0  0  0  0  0
   -0.3284   -1.9309    0.0000 N   0  0  0  0  0  0  0  0  0  0  0  0
   -0.7433   -1.2136    0.0000 C   0  0  0  0  0  0  0  0  0  0  0  0
   -0.4857   -0.4271    0.0000 N   0  0  0  0  0  0  0  0  0  0  0  0
   -1.1536    0.0558    0.0000 C   0  0  0  0  0  0  0  0  0  0  0  0
   -1.8212   -0.4271    0.0000 S   0  0  0  0  0  0  0  0  0  0  0  0
   -1.1536    0.8810    0.0000 N   0  0  0  0  0  0  0  0  0  0  0  0
   -1.8709    1.2912    0.0000 C   0  0  0  0  0  0  0  0  0  0  0  0
   -1.8709    2.1164    0.0000 C   0  0  0  0  0  0  0  0  0  0  0  0
   -1.1536    2.5312    0.0000 N   0  0  0  0  0  0  0  0  0  0  0  0
   -0.4362    2.1164    0.0000 C   0  0  2  0  0  0  0  0  0  0  0  0
   -0.4362    1.2912    0.0000 C   0  0  0  0  0  0  0  0  0  0  0  0
    0.2764    2.5312    0.0000 C   0  0  0  0  0  0  0  0  0  0  0  0
    0.9891    2.1164    0.0000 N   0  0  0  0  0  0  0  0  0  0  0  0
    1.7064    2.5312    0.0000 C   0  0  0  0  0  0  0  0  0  0  0  0
    2.4191    2.1164    0.0000 C   0  0  0  0  0  0  0  0  0  0  0  0
    3.1318    2.5312    0.0000 C   0  0  0  0  0  0  0  0  0  0  0  0
    3.8491    2.1164    0.0000 C   0  0  0  0  0  0  0  0  0  0  0  0
    3.8491    1.2912    0.0000 C   0  0  0  0  0  0  0  0  0  0  0  0
    3.1318    0.8810    0.0000 C   0  0  0  0  0  0  0  0  0  0  0  0
    2.4191    1.2912    0.0000 C   0  0  0  0  0  0  0  0  0  0  0  0
    4.5617    0.8811    0.0000 O   0  0  0  0  0  0  0  0  0  0  0  0
    4.5617    0.0558    0.0000 C   0  0  0  0  0  0  0  0  0  0  0  0
    5.2791   -0.3589    0.0000 F   0  0  0  0  0  0  0  0  0  0  0  0
    3.8491   -0.3589    0.0000 F   0  0  0  0  0  0  0  0  0  0  0  0
    4.5617   -0.7691    0.0000 F   0  0  0  0  0  0  0  0  0  0  0  0
    4.5617    2.5312    0.0000 F   0  0  0  0  0  0  0  0  0  0  0  0
    0.2764    3.3564    0.0000 O   0  0  0  0  0  0  0  0  0  0  0  0
   -1.1536    3.3564    0.0000 S   0  0  0  0  0  0  0  0  0  0  0  0
   -1.9787    3.3564    0.0000 C   0  0  0  0  0  0  0  0  0  0  0  0
   -2.3936    2.6391    0.0000 C   0  0  0  0  0  0  0  0  0  0  0  0
   -3.2186    2.6391    0.0000 C   0  0  0  0  0  0  0  0  0  0  0  0
   -3.6289    3.3564    0.0000 C   0  0  0  0  0  0  0  0  0  0  0  0
   -3.2186    4.0691    0.0000 C   0  0  0  0  0  0  0  0  0  0  0  0
   -2.3936    4.0691    0.0000 C   0  0  0  0  0  0  0  0  0  0  0  0
   -4.4541    3.3564    0.0000 C   0  0  0  0  0  0  0  0  0  0  0  0
   -4.8689    2.6391    0.0000 F   0  0  0  0  0  0  0  0  0  0  0  0
   -4.8689    4.0691    0.0000 F   0  0  0  0  0  0  0  0  0  0  0  0
   -5.2791    3.3564    0.0000 F   0  0  0  0  0  0  0  0  0  0  0  0
   -1.1536    4.1814    0.0000 O   0  0  0  0  0  0  0  0  0  0  0  0
   -0.3284    3.3564    0.0000 O   0  0  0  0  0  0  0  0  0  0  0  0
   -0.3284   -3.3564    0.0000 C   0  0  0  0  0  0  0  0  0  0  0  0
   -0.3284   -4.1814    0.0000 C   0  0  0  0  0  0  0  0  0  0  0  0
    0.3843   -3.7712    0.0000 C   0  0  0  0  0  0  0  0  0  0  0  0
  1  2  1  0  0  0  0
  2  3  2  0  0  0  0
  3  4  1  0  0  0  0
  4  5  2  0  0  0  0
  5  6  1  0  0  0  0
  6  1  2  0  0  0  0
  6  7  1  0  0  0  0
  7  8  2  0  0  0  0
  8  9  1  0  0  0  0
  1  9  1  0  0  0  0
  8 10  1  0  0  0  0
 11 10  1  0  0  0  0
 12 11  1  0  0  0  0
 13 12  1  0  0  0  0
 14 13  1  0  0  0  0
 15 14  1  0  0  0  0
 10 15  1  0  0  0  0
 14 16  1  1  0  0  0
 16 17  1  0  0  0  0
 17 18  1  0  0  0  0
 18 19  1  0  0  0  0
 20 19  2  0  0  0  0
 21 20  1  0  0  0  0
 22 21  2  0  0  0  0
 23 22  1  0  0  0  0
 24 23  2  0  0  0  0
 19 24  1  0  0  0  0
 22 25  1  0  0  0  0
 25 26  1  0  0  0  0
 26 27  1  0  0  0  0
 26 28  1  0  0  0  0
 26 29  1  0  0  0  0
 21 30  1  0  0  0  0
 16 31  2  0  0  0  0
 13 32  1  0  0  0  0
 32 33  1  0  0  0  0
 34 33  2  0  0  0  0
 35 34  1  0  0  0  0
 36 35  2  0  0  0  0
 37 36  1  0  0  0  0
 38 37  2  0  0  0  0
 33 38  1  0  0  0  0
 36 39  1  0  0  0  0
 39 40  1  0  0  0  0
 39 41  1  0  0  0  0
 39 42  1  0  0  0  0
 32 43  2  0  0  0  0
 32 44  2  0  0  0  0
  4 45  1  0  0  0  0
 46 45  1  0  0  0  0
 46 47  1  0  0  0  0
 45 47  1  0  0  0  0
M  END
> <DATABASE_ID>
DB13095

> <DATABASE_NAME>
drugbank

> <SMILES>
FC1=C(OC(F)(F)F)C=CC(CNC(=O)[C@H]2CN(CCN2S(=O)(=O)C2=CC=C(C=C2)C(F)(F)F)C2=NC3=C(S2)C=NC(=N3)C2CC2)=C1

> <INCHI_IDENTIFIER>
InChI=1S/C28H23F7N6O4S2/c29-19-11-15(1-8-21(19)45-28(33,34)35)12-37-25(42)20-14-40(26-39-24-22(46-26)13-36-23(38-24)16-2-3-16)9-10-41(20)47(43,44)18-6-4-17(5-7-18)27(30,31)32/h1,4-8,11,13,16,20H,2-3,9-10,12,14H2,(H,37,42)/t20-/m1/s1

> <INCHI_KEY>
JQLOVYLALGSISI-HXUWFJFHSA-N

> <FORMULA>
C28H23F7N6O4S2

> <MOLECULAR_WEIGHT>
704.639

> <EXACT_MASS>
704.111042069

> <JCHEM_ACCEPTOR_COUNT>
8

> <JCHEM_ATOM_COUNT>
70

> <JCHEM_AVERAGE_POLARIZABILITY>
62.134905522849785

> <JCHEM_BIOAVAILABILITY>
0

> <JCHEM_DONOR_COUNT>
1

> <JCHEM_FORMAL_CHARGE>
0

> <JCHEM_GHOSE_FILTER>
0

> <JCHEM_IUPAC>
(2R)-4-{5-cyclopropyl-[1,3]thiazolo[4,5-d]pyrimidin-2-yl}-N-{[3-fluoro-4-(trifluoromethoxy)phenyl]methyl}-1-[4-(trifluoromethyl)benzenesulfonyl]piperazine-2-carboxamide

> <ALOGPS_LOGP>
4.78

> <JCHEM_LOGP>
6.875409120999998

> <ALOGPS_LOGS>
-5.29

> <JCHEM_MDDR_LIKE_RULE>
1

> <JCHEM_NUMBER_OF_RINGS>
6

> <JCHEM_PHYSIOLOGICAL_CHARGE>
0

> <JCHEM_PKA_STRONGEST_ACIDIC>
11.419074530607695

> <JCHEM_PKA_STRONGEST_BASIC>
2.2895875780685278

> <JCHEM_POLAR_SURFACE_AREA>
117.62

> <JCHEM_REFRACTIVITY>
151.78439999999998

> <JCHEM_ROTATABLE_BOND_COUNT>
9

> <JCHEM_RULE_OF_FIVE>
0

> <ALOGPS_SOLUBILITY>
3.58e-03 g/l

> <JCHEM_TRADITIONAL_IUPAC>
4-{5-methoxy-2-[(4-methoxy-3,5-dimethylpyridin-2-yl)methanesulfinyl]-1,3-benzodiazol-1-ylsulfonyl}phenoxyacetic acid

> <JCHEM_VEBER_RULE>
0

> <DRUGBANK_ID>
DB13095

> <DRUG_GROUPS>
investigational

> <GENERIC_NAME>
JTK-853

$$$$
