
  Mrv1718001171817152D          

  1  0  0  0  0  0            999 V2000
    0.0000    0.0000    0.0000 V   0  0  0  0  0  0  0  0  0  0  0  0
M  END
> <DATABASE_ID>
DB13971

> <DATABASE_NAME>
drugbank

> <SMILES>
[V]

> <INCHI_IDENTIFIER>
InChI=1S/V

> <INCHI_KEY>
LEONUFNNVUYDNQ-UHFFFAOYSA-N

> <FORMULA>
V

> <MOLECULAR_WEIGHT>
50.9415

> <EXACT_MASS>
50.943963675

> <JCHEM_ACCEPTOR_COUNT>
0

> <JCHEM_ATOM_COUNT>
1

> <JCHEM_AVERAGE_POLARIZABILITY>
1.7784

> <JCHEM_BIOAVAILABILITY>
1

> <JCHEM_DONOR_COUNT>
0

> <JCHEM_FORMAL_CHARGE>
0

> <JCHEM_GHOSE_FILTER>
0

> <JCHEM_IUPAC>
vanadium

> <JCHEM_LOGP>
0.0

> <JCHEM_MDDR_LIKE_RULE>
0

> <JCHEM_NUMBER_OF_RINGS>
0

> <JCHEM_PHYSIOLOGICAL_CHARGE>
0

> <JCHEM_POLAR_SURFACE_AREA>
0.0

> <JCHEM_REFRACTIVITY>
0.0

> <JCHEM_ROTATABLE_BOND_COUNT>
0

> <JCHEM_RULE_OF_FIVE>
1

> <JCHEM_TRADITIONAL_IUPAC>
vanadium

> <JCHEM_VEBER_RULE>
1

> <DRUGBANK_ID>
DB13971

> <DRUG_GROUPS>
approved; experimental

> <GENERIC_NAME>
Vanadium

> <SYNONYMS>
vanadio; Vanadium metallicum; Vanadium, elemental

> <PRODUCTS>
24 Multivitamins + Minerals; 50 Plus Multiple Vitamins & Minerals; A.M. Formula; Advanced B & T Formula; Body Rox; C. Vit-min Formula; Cblock Mineral Supplement; Chelapro; Chromium & Vanadium; Chromium Plus; Chromium and Vanadium (combo); Chromium and Vanadium Mineral Supplement; Db-7 Dietary Supplement; Doctor's Choice Brand for Men; Extra Once A Day; Formula Osg; Innersource Tab; Liquid Opti-minplex +d; Maximum Once A Day; Maxum Multi-vite; Mega Plex III - Pck; Mega Plex IV - Pck; Men's; Men's 50+; Men's Biomultiple Vitamin and Mineral Supplement; Multi Cal Mag Liquid; Multi Mins Liquid; Multi Plex I - Tab; Multi Plex II - Tab; Multi-actin; Multimineral Tablets; Multivitamins and Minerals With Betacarotene Tablets; Multivitamins and Minerals for Men; Multivitamins and Minerals for Women; Natural Source Spectrum With Beta Carotene; Only One - Tablet; Osteoshield; Premium Prenatal; Prenatal Formula Tab; Protect Plus SO 60; Revit Multi-vitamins and Minerals; Revitalize Multi-vitamin and Mineral Complex; Right Choice P.M. Multi Formula - Caplet; Rocky Mountain Multiple Vit and Min Mega Tab; Senior Multi One; T.S. Formula; Women's Biomultiple Vitamin and Mineral Supplement

$$$$
