
  Mrv1652310211603302D          

  1  0  0  0  0  0            999 V2000
    0.0000    0.0000    0.0000 He  0  0  0  0  0  0  0  0  0  0  0  0
M  ISO  1   1   3
M  END
> <DATABASE_ID>
DB12940

> <DATABASE_NAME>
drugbank

> <SMILES>
[3He]

> <INCHI_IDENTIFIER>
InChI=1S/He/i1-1

> <INCHI_KEY>
SWQJXJOGLNCZEY-BJUDXGSMSA-N

> <FORMULA>
He

> <MOLECULAR_WEIGHT>
3.016

> <EXACT_MASS>
3.01602932

> <JCHEM_ACCEPTOR_COUNT>
0

> <JCHEM_ATOM_COUNT>
1

> <JCHEM_AVERAGE_POLARIZABILITY>
1.7784

> <JCHEM_BIOAVAILABILITY>
1

> <JCHEM_DONOR_COUNT>
0

> <JCHEM_FORMAL_CHARGE>
0

> <JCHEM_GHOSE_FILTER>
0

> <JCHEM_IUPAC>
(3He)helium

> <JCHEM_LOGP>
0.0

> <JCHEM_MDDR_LIKE_RULE>
0

> <JCHEM_NUMBER_OF_RINGS>
0

> <JCHEM_PHYSIOLOGICAL_CHARGE>
0

> <JCHEM_POLAR_SURFACE_AREA>
0.0

> <JCHEM_REFRACTIVITY>
0.0

> <JCHEM_ROTATABLE_BOND_COUNT>
0

> <JCHEM_RULE_OF_FIVE>
1

> <JCHEM_TRADITIONAL_IUPAC>
(3He)helium

> <JCHEM_VEBER_RULE>
1

> <DRUGBANK_ID>
DB12940

> <DRUG_GROUPS>
investigational

> <GENERIC_NAME>
Helium He-3

> <SYNONYMS>
Helium-3; Helium, He-3

$$$$
