
  Mrv1652310201623082D          

 37 39  0  0  1  0            999 V2000
   -0.9435   -2.5375    0.0000 C   0  0  0  0  0  0  0  0  0  0  0  0
   -0.1264   -2.6509    0.0000 C   0  0  0  0  0  0  0  0  0  0  0  0
    0.4457   -2.0564    0.0000 N   0  0  0  0  0  0  0  0  0  0  0  0
    1.1878   -2.4167    0.0000 C   0  0  0  0  0  0  0  0  0  0  0  0
    1.0745   -3.2339    0.0000 C   0  0  0  0  0  0  0  0  0  0  0  0
    0.2622   -3.3786    0.0000 S   0  0  0  0  0  0  0  0  0  0  0  0
    1.6689   -3.8059    0.0000 C   0  0  0  0  0  0  0  0  0  0  0  0
    1.4708   -4.6068    0.0000 O   0  0  0  0  0  0  0  0  0  0  0  0
    2.4616   -3.5771    0.0000 N   0  0  0  0  0  0  0  0  0  0  0  0
    3.0560   -4.1492    0.0000 C   0  0  1  0  0  0  0  0  0  0  0  0
    2.8579   -4.9500    0.0000 C   0  0  0  0  0  0  0  0  0  0  0  0
    3.4524   -5.5220    0.0000 O   0  0  0  0  0  0  0  0  0  0  0  0
    3.2542   -6.3229    0.0000 C   0  0  0  0  0  0  0  0  0  0  0  0
    3.8487   -3.9203    0.0000 C   0  0  0  0  0  0  0  0  0  0  0  0
    4.0468   -3.1195    0.0000 O   0  0  0  0  0  0  0  0  0  0  0  0
    4.4432   -4.4924    0.0000 N   0  0  0  0  0  0  0  0  0  0  0  0
    5.2358   -4.2636    0.0000 C   0  0  1  0  0  0  0  0  0  0  0  0
    5.4339   -3.4627    0.0000 C   0  0  0  0  0  0  0  0  0  0  0  0
    4.8395   -2.8907    0.0000 O   0  0  0  0  0  0  0  0  0  0  0  0
    5.0376   -2.0898    0.0000 C   0  0  0  0  0  0  0  0  0  0  0  0
    5.8303   -4.8356    0.0000 C   0  0  0  0  0  0  0  0  0  0  0  0
    5.6321   -5.6364    0.0000 O   0  0  0  0  0  0  0  0  0  0  0  0
    6.6229   -4.6068    0.0000 N   0  0  0  0  0  0  0  0  0  0  0  0
    7.2174   -5.1788    0.0000 C   0  0  1  0  0  0  0  0  0  0  0  0
    7.0192   -5.9797    0.0000 C   0  0  0  0  0  0  0  0  0  0  0  0
    7.6137   -6.5517    0.0000 C   0  0  0  0  0  0  0  0  0  0  0  0
    8.4063   -6.3229    0.0000 C   0  0  0  0  0  0  0  0  0  0  0  0
    9.0008   -6.8949    0.0000 C   0  0  0  0  0  0  0  0  0  0  0  0
    8.8026   -7.6958    0.0000 C   0  0  0  0  0  0  0  0  0  0  0  0
    8.0100   -7.9246    0.0000 C   0  0  0  0  0  0  0  0  0  0  0  0
    7.4155   -7.3525    0.0000 C   0  0  0  0  0  0  0  0  0  0  0  0
    8.0100   -4.9500    0.0000 C   0  0  0  0  0  0  0  0  0  0  0  0
    8.6045   -5.5220    0.0000 O   0  0  0  0  0  0  0  0  0  0  0  0
    8.2082   -4.1492    0.0000 C   0  0  1  0  0  0  0  0  0  0  0  0
    8.6683   -3.4644    0.0000 C   0  0  0  0  0  0  0  0  0  0  0  0
    9.0313   -4.2052    0.0000 O   0  0  0  0  0  0  0  0  0  0  0  0
    7.4539   -3.8149    0.0000 C   0  0  0  0  0  0  0  0  0  0  0  0
  1  2  1  0  0  0  0
  2  3  2  0  0  0  0
  3  4  1  0  0  0  0
  4  5  2  0  0  0  0
  5  6  1  0  0  0  0
  2  6  1  0  0  0  0
  5  7  1  0  0  0  0
  7  8  2  0  0  0  0
  7  9  1  0  0  0  0
 10  9  1  6  0  0  0
 10 11  1  0  0  0  0
 11 12  1  0  0  0  0
 12 13  1  0  0  0  0
 10 14  1  0  0  0  0
 14 15  2  0  0  0  0
 14 16  1  0  0  0  0
 17 16  1  1  0  0  0
 17 18  1  0  0  0  0
 18 19  1  0  0  0  0
 19 20  1  0  0  0  0
 17 21  1  0  0  0  0
 21 22  2  0  0  0  0
 21 23  1  0  0  0  0
 24 23  1  6  0  0  0
 24 25  1  0  0  0  0
 25 26  1  0  0  0  0
 26 27  2  0  0  0  0
 27 28  1  0  0  0  0
 28 29  2  0  0  0  0
 29 30  1  0  0  0  0
 30 31  2  0  0  0  0
 26 31  1  0  0  0  0
 24 32  1  0  0  0  0
 32 33  2  0  0  0  0
 34 32  1  1  0  0  0
 34 35  1  0  0  0  0
 35 36  1  0  0  0  0
 34 36  1  0  0  0  0
 34 37  1  6  0  0  0
M  END
> <DATABASE_ID>
DB11991

> <DATABASE_NAME>
drugbank

> <SMILES>
COC[C@H](NC(=O)[C@H](COC)NC(=O)C1=CN=C(C)S1)C(=O)N[C@@H](CC1=CC=CC=C1)C(=O)[C@@]1(C)CO1

> <INCHI_IDENTIFIER>
InChI=1S/C25H32N4O7S/c1-15-26-11-20(37-15)24(33)29-19(13-35-4)23(32)28-18(12-34-3)22(31)27-17(21(30)25(2)14-36-25)10-16-8-6-5-7-9-16/h5-9,11,17-19H,10,12-14H2,1-4H3,(H,27,31)(H,28,32)(H,29,33)/t17-,18-,19-,25+/m0/s1

> <INCHI_KEY>
SWZXEVABPLUDIO-WSZYKNRRSA-N

> <FORMULA>
C25H32N4O7S

> <MOLECULAR_WEIGHT>
532.61

> <EXACT_MASS>
532.19917056

> <JCHEM_ACCEPTOR_COUNT>
8

> <JCHEM_ATOM_COUNT>
69

> <JCHEM_AVERAGE_POLARIZABILITY>
53.03063145397911

> <JCHEM_BIOAVAILABILITY>
0

> <JCHEM_DONOR_COUNT>
3

> <JCHEM_FORMAL_CHARGE>
0

> <JCHEM_GHOSE_FILTER>
0

> <JCHEM_IUPAC>
(2S)-3-methoxy-2-[(2S)-3-methoxy-2-[(2-methyl-1,3-thiazol-5-yl)formamido]propanamido]-N-[(2S)-1-[(2R)-2-methyloxiran-2-yl]-1-oxo-3-phenylpropan-2-yl]propanamide

> <ALOGPS_LOGP>
1.04

> <JCHEM_LOGP>
0.41302931533333276

> <ALOGPS_LOGS>
-4.64

> <JCHEM_MDDR_LIKE_RULE>
1

> <JCHEM_NUMBER_OF_RINGS>
3

> <JCHEM_PHYSIOLOGICAL_CHARGE>
0

> <JCHEM_PKA>
12.157061220014576

> <JCHEM_PKA_STRONGEST_ACIDIC>
11.49795950449496

> <JCHEM_PKA_STRONGEST_BASIC>
1.9986747614645943

> <JCHEM_POLAR_SURFACE_AREA>
148.25

> <JCHEM_REFRACTIVITY>
134.3425

> <JCHEM_ROTATABLE_BOND_COUNT>
14

> <JCHEM_RULE_OF_FIVE>
0

> <ALOGPS_SOLUBILITY>
1.21e-02 g/l

> <JCHEM_TRADITIONAL_IUPAC>
(2S)-3-methoxy-2-[(2S)-3-methoxy-2-[(2-methyl-1,3-thiazol-5-yl)formamido]propanamido]-N-[(2S)-1-[(2R)-2-methyloxiran-2-yl]-1-oxo-3-phenylpropan-2-yl]propanamide

> <JCHEM_VEBER_RULE>
0

> <DRUGBANK_ID>
DB11991

> <DRUG_GROUPS>
investigational

> <GENERIC_NAME>
Oprozomib

> <SYNONYMS>
Oprozomib

$$$$
