
  Mrv1909 07262218412D          

  9  9  0  0  0  0            999 V2000
    0.0000    0.0000    0.0000 C   0  0  0  0  0  0  0  0  0  0  0  0
    0.0000   -0.8250    0.0000 C   0  0  0  0  0  0  0  0  0  0  0  0
   -0.7144    0.4125    0.0000 N   0  0  0  0  0  0  0  0  0  0  0  0
    0.7144    0.4125    0.0000 C   0  0  0  0  0  0  0  0  0  0  0  0
   -0.7144   -1.2374    0.0000 C   0  0  0  0  0  0  0  0  0  0  0  0
   -1.4289    0.0000    0.0000 C   0  0  0  0  0  0  0  0  0  0  0  0
    0.7144    1.2375    0.0000 O   0  0  0  0  0  0  0  0  0  0  0  0
    1.4289    0.0000    0.0000 O   0  0  0  0  0  0  0  0  0  0  0  0
   -1.4289   -0.8250    0.0000 C   0  0  0  0  0  0  0  0  0  0  0  0
  1  2  2  0  0  0  0
  1  3  1  0  0  0  0
  1  4  1  0  0  0  0
  2  5  1  0  0  0  0
  3  6  2  0  0  0  0
  4  7  2  0  0  0  0
  4  8  1  0  0  0  0
  5  9  2  0  0  0  0
  6  9  1  0  0  0  0
M  END
> <DATABASE_ID>
DB05483

> <DATABASE_NAME>
drugbank

> <SMILES>
OC(=O)C1=CC=CC=N1

> <INCHI_IDENTIFIER>
InChI=1S/C6H5NO2/c8-6(9)5-3-1-2-4-7-5/h1-4H,(H,8,9)

> <INCHI_KEY>
SIOXPEMLGUPBBT-UHFFFAOYSA-N

> <FORMULA>
C6H5NO2

> <MOLECULAR_WEIGHT>
123.111

> <EXACT_MASS>
123.032028405

> <JCHEM_ACCEPTOR_COUNT>
3

> <JCHEM_ATOM_COUNT>
14

> <JCHEM_AVERAGE_NEUTRAL_MICROSPECIES_CHARGE>
-0.9878411964708829

> <JCHEM_AVERAGE_POLARIZABILITY>
11.382513070619702

> <JCHEM_BIOAVAILABILITY>
1

> <JCHEM_DONOR_COUNT>
1

> <JCHEM_FORMAL_CHARGE>
0

> <JCHEM_GHOSE_FILTER>
0

> <JCHEM_IUPAC>
pyridine-2-carboxylic acid

> <ALOGPS_LOGP>
0.22

> <JCHEM_LOGP>
-0.6513314798278669

> <ALOGPS_LOGS>
-0.30

> <JCHEM_MDDR_LIKE_RULE>
0

> <JCHEM_NEUTRAL_CHARGE>
-1

> <JCHEM_NUMBER_OF_RINGS>
1

> <JCHEM_PHYSIOLOGICAL_CHARGE>
-1

> <JCHEM_PKA_STRONGEST_ACIDIC>
0.9979485822657972

> <JCHEM_PKA_STRONGEST_BASIC>
5.517960982029459

> <JCHEM_POLAR_SURFACE_AREA>
50.19

> <JCHEM_REFRACTIVITY>
30.7853

> <JCHEM_ROTATABLE_BOND_COUNT>
1

> <JCHEM_RULE_OF_FIVE>
1

> <ALOGPS_SOLUBILITY>
6.11e+01 g/l

> <JCHEM_TRADITIONAL_IUPAC>
ethoxyquin

> <JCHEM_VEBER_RULE>
0

> <DRUGBANK_ID>
DB05483

> <DRUG_GROUPS>
investigational

> <GENERIC_NAME>
Picolinic acid

> <SYNONYMS>
2-Carboxypyridine; Acide picolique

$$$$
