
  Mrv1909 11191922332D          

  9  9  0  0  0  0            999 V2000
   -0.0078   -0.1083    0.0000 C   0  0  0  0  0  0  0  0  0  0  0  0
   -0.5629   -1.3215    0.0000 O   0  0  0  0  0  0  0  0  0  0  0  0
   -0.8273   -0.0132    0.0000 C   0  0  0  0  0  0  0  0  0  0  0  0
   -1.1708   -0.7637    0.0000 N   0  0  0  0  0  0  0  0  0  0  0  0
    0.1559   -0.9171    0.0000 N   0  0  0  0  0  0  0  0  0  0  0  0
    0.4043    0.6079    0.0000 C   0  0  0  0  0  0  0  0  0  0  0  0
   -0.0078    1.3215    0.0000 O   0  0  0  0  0  0  0  0  0  0  0  0
    1.2317    0.6079    0.0000 O   0  0  0  0  0  0  0  0  0  0  0  0
   -1.2317    0.7056    0.0000 O   0  0  0  0  0  0  0  0  0  0  0  0
  1  6  1  0  0  0  0
  1  5  2  0  0  0  0
  1  3  1  0  0  0  0
  2  4  1  0  0  0  0
  2  5  1  0  0  0  0
  3  4  2  0  0  0  0
  3  9  1  0  0  0  0
  6  7  2  0  0  0  0
  6  8  1  0  0  0  0
M  END
> <DATABASE_ID>
DB02401

> <DATABASE_NAME>
drugbank

> <SMILES>
OC(=O)C1=NON=C1O

> <INCHI_IDENTIFIER>
InChI=1S/C3H2N2O4/c6-2-1(3(7)8)4-9-5-2/h(H,5,6)(H,7,8)

> <INCHI_KEY>
IBRWUZLLHSXPKL-UHFFFAOYSA-N

> <FORMULA>
C3H2N2O4

> <MOLECULAR_WEIGHT>
130.059

> <EXACT_MASS>
130.001456562

> <JCHEM_ACCEPTOR_COUNT>
5

> <JCHEM_ATOM_COUNT>
11

> <JCHEM_AVERAGE_POLARIZABILITY>
9.247065710295153

> <JCHEM_BIOAVAILABILITY>
1

> <JCHEM_DONOR_COUNT>
2

> <JCHEM_FORMAL_CHARGE>
0

> <JCHEM_GHOSE_FILTER>
0

> <JCHEM_IUPAC>
4-hydroxy-1,2,5-oxadiazole-3-carboxylic acid

> <ALOGPS_LOGP>
0.34

> <JCHEM_LOGP>
0.5464165369999999

> <ALOGPS_LOGS>
-0.45

> <JCHEM_MDDR_LIKE_RULE>
0

> <JCHEM_NUMBER_OF_RINGS>
1

> <JCHEM_PHYSIOLOGICAL_CHARGE>
-2

> <JCHEM_PKA>
3.0119243260688386

> <JCHEM_PKA_STRONGEST_ACIDIC>
2.346754603297497

> <JCHEM_PKA_STRONGEST_BASIC>
-3.4730854433076765

> <JCHEM_POLAR_SURFACE_AREA>
96.45

> <JCHEM_REFRACTIVITY>
25.6072

> <JCHEM_ROTATABLE_BOND_COUNT>
1

> <JCHEM_RULE_OF_FIVE>
1

> <ALOGPS_SOLUBILITY>
4.65e+01 g/l

> <JCHEM_TRADITIONAL_IUPAC>
2lambda5-triaz-1-en-2-yn-1-ide hydrate diiron

> <JCHEM_VEBER_RULE>
0

> <DRUGBANK_ID>
DB02401

> <SECONDARY_ACCESSION_NUMBERS>
EXPT02463

> <DRUG_GROUPS>
experimental

> <GENERIC_NAME>
4-Hydroxy-1,2,5-oxadiazole-3-carboxylic acid

$$$$
