
  Mrv1652310201623352D          

 22 25  0  0  1  0            999 V2000
    1.2751   -0.5107    0.0000 C   0  0  0  0  0  0  0  0  0  0  0  0
    0.9948   -1.2866    0.0000 C   0  0  0  0  0  0  0  0  0  0  0  0
    0.1827   -1.4318    0.0000 C   0  0  0  0  0  0  0  0  0  0  0  0
   -0.0976   -2.2077    0.0000 C   0  0  0  0  0  0  0  0  0  0  0  0
   -0.9098   -2.3529    0.0000 O   0  0  0  0  0  0  0  0  0  0  0  0
    0.4342   -2.8384    0.0000 C   0  0  0  0  0  0  0  0  0  0  0  0
    1.2463   -2.6932    0.0000 C   0  0  0  0  0  0  0  0  0  0  0  0
    1.5266   -1.9173    0.0000 C   0  0  1  0  0  0  0  0  0  0  0  0
    2.3387   -1.7721    0.0000 C   0  0  1  0  0  0  0  0  0  0  0  0
    2.6190   -0.9961    0.0000 C   0  0  0  0  0  0  0  0  0  0  0  0
    3.4311   -0.8509    0.0000 C   0  0  0  0  0  0  0  0  0  0  0  0
    3.9629   -1.4816    0.0000 C   0  0  1  0  0  0  0  0  0  0  0  0
    3.6826   -2.2576    0.0000 C   0  0  2  0  0  0  0  0  0  0  0  0
    2.8705   -2.4028    0.0000 C   0  0  2  0  0  0  0  0  0  0  0  0
    2.5902   -3.1787    0.0000 C   0  0  0  0  0  0  0  0  0  0  0  0
    1.7781   -3.3239    0.0000 C   0  0  0  0  0  0  0  0  0  0  0  0
    4.3340   -2.7639    0.0000 C   0  0  0  0  0  0  0  0  0  0  0  0
    5.0168   -2.3009    0.0000 C   0  0  0  0  0  0  0  0  0  0  0  0
    4.7875   -1.5084    0.0000 C   0  0  0  0  0  0  0  0  0  0  0  0
    5.2939   -0.8571    0.0000 O   0  0  0  0  0  0  0  0  0  0  0  0
    4.3228   -0.7393    0.0000 C   0  0  0  0  0  0  0  0  0  0  0  0
    1.8069   -1.1414    0.0000 C   0  0  0  0  0  0  0  0  0  0  0  0
  1  2  1  0  0  0  0
  2  3  2  0  0  0  0
  3  4  1  0  0  0  0
  4  5  2  0  0  0  0
  4  6  1  0  0  0  0
  6  7  2  0  0  0  0
  7  8  1  0  0  0  0
  2  8  1  0  0  0  0
  8  9  1  0  0  0  0
  9 10  1  1  0  0  0
 10 11  1  0  0  0  0
 11 12  1  0  0  0  0
 12 13  1  0  0  0  0
 13 14  1  0  0  0  0
  9 14  1  0  0  0  0
 14 15  1  6  0  0  0
 15 16  1  0  0  0  0
  7 16  1  0  0  0  0
 13 17  1  1  0  0  0
 17 18  1  0  0  0  0
 18 19  1  0  0  0  0
 12 19  1  0  0  0  0
 19 20  2  0  0  0  0
 12 21  1  1  0  0  0
  8 22  1  1  0  0  0
M  END
> <DATABASE_ID>
DB12194

> <DATABASE_NAME>
drugbank

> <SMILES>
CC1=CC(=O)C=C2CC[C@H]3[C@@H]4CCC(=O)[C@@]4(C)CC[C@@H]3[C@@]12C

> <INCHI_IDENTIFIER>
InChI=1S/C20H26O2/c1-12-10-14(21)11-13-4-5-15-16-6-7-18(22)19(16,2)9-8-17(15)20(12,13)3/h10-11,15-17H,4-9H2,1-3H3/t15-,16-,17-,19-,20-/m0/s1

> <INCHI_KEY>
PEPMWUSGRKINHX-TXTPUJOMSA-N

> <FORMULA>
C20H26O2

> <MOLECULAR_WEIGHT>
298.426

> <EXACT_MASS>
298.193280077

> <JCHEM_ACCEPTOR_COUNT>
2

> <JCHEM_ATOM_COUNT>
48

> <JCHEM_AVERAGE_POLARIZABILITY>
34.41833591490076

> <JCHEM_BIOAVAILABILITY>
1

> <JCHEM_DONOR_COUNT>
0

> <JCHEM_FORMAL_CHARGE>
0

> <JCHEM_GHOSE_FILTER>
1

> <JCHEM_IUPAC>
(1S,2S,10R,11S,15S)-2,3,15-trimethyltetracyclo[8.7.0.0^{2,7}.0^{11,15}]heptadeca-3,6-diene-5,14-dione

> <ALOGPS_LOGP>
3.28

> <JCHEM_LOGP>
4.170135764666667

> <ALOGPS_LOGS>
-4.28

> <JCHEM_MDDR_LIKE_RULE>
0

> <JCHEM_NUMBER_OF_RINGS>
4

> <JCHEM_PHYSIOLOGICAL_CHARGE>
0

> <JCHEM_PKA_STRONGEST_ACIDIC>
18.788931091878755

> <JCHEM_PKA_STRONGEST_BASIC>
-4.861067786629115

> <JCHEM_POLAR_SURFACE_AREA>
34.14

> <JCHEM_REFRACTIVITY>
88.98279999999998

> <JCHEM_ROTATABLE_BOND_COUNT>
0

> <JCHEM_RULE_OF_FIVE>
1

> <ALOGPS_SOLUBILITY>
1.56e-02 g/l

> <JCHEM_TRADITIONAL_IUPAC>
(1S,2S,10R,11S,15S)-2,3,15-trimethyltetracyclo[8.7.0.0^{2,7}.0^{11,15}]heptadeca-3,6-diene-5,14-dione

> <JCHEM_VEBER_RULE>
1

> <DRUGBANK_ID>
DB12194

> <DRUG_GROUPS>
investigational

> <GENERIC_NAME>
Atamestane

> <SYNONYMS>
Atamestane

$$$$
