
  Mrv1909 02292002192D          

 42 47  0  0  0  0            999 V2000
    0.9791    0.9969    0.0000 C   0  0  0  0  0  0  0  0  0  0  0  0
    1.1868    0.1764    0.0000 C   0  0  1  0  0  0  0  0  0  0  0  0
    1.9714    0.4313    0.0000 C   0  0  2  0  0  0  0  0  0  0  0  0
    2.4564   -0.2361    0.0000 C   0  0  1  0  0  0  0  0  0  0  0  0
    3.2410    0.0188    0.0000 O   0  0  0  0  0  0  0  0  0  0  0  0
    3.2410    0.8438    0.0000 C   0  0  1  0  0  0  0  0  0  0  0  0
    3.9947    0.5082    0.0000 C   0  0  0  0  0  0  0  0  0  0  0  0
    4.6621    0.9932    0.0000 C   0  0  0  0  0  0  0  0  0  0  0  0
    4.5758    1.8136    0.0000 C   0  0  1  0  0  0  0  0  0  0  0  0
    5.2433    2.2986    0.0000 C   0  0  0  0  0  0  0  0  0  0  0  0
    3.8222    2.1492    0.0000 C   0  0  0  0  0  0  0  0  0  0  0  0
    3.1547    1.6643    0.0000 O   0  0  0  0  0  0  0  0  0  0  0  0
    2.4564    1.0988    0.0000 C   0  0  1  0  0  0  0  0  0  0  0  0
    2.2014    1.8833    0.0000 C   0  0  0  0  0  0  0  0  0  0  0  0
    1.9714   -0.9035    0.0000 C   0  0  0  0  0  0  0  0  0  0  0  0
    1.1868   -0.6486    0.0000 C   0  0  1  0  0  0  0  0  0  0  0  0
    0.4723   -1.0610    0.0000 C   0  0  1  0  0  0  0  0  0  0  0  0
   -0.2420   -0.6486    0.0000 C   0  0  2  0  0  0  0  0  0  0  0  0
   -0.2420    0.1764    0.0000 C   0  0  0  0  0  0  0  0  0  0  0  0
    0.4723    0.5889    0.0000 C   0  0  0  0  0  0  0  0  0  0  0  0
   -0.9565   -1.0610    0.0000 C   0  0  1  0  0  0  0  0  0  0  0  0
   -0.9565   -0.2361    0.0000 C   0  0  0  0  0  0  0  0  0  0  0  0
   -1.6709   -0.6486    0.0000 C   0  0  0  0  0  0  0  0  0  0  0  0
   -2.3855   -1.0610    0.0000 C   0  0  0  0  0  0  0  0  0  0  0  0
   -2.3855   -1.8861    0.0000 C   0  0  1  0  0  0  0  0  0  0  0  0
   -1.6709   -2.2986    0.0000 C   0  0  0  0  0  0  0  0  0  0  0  0
   -0.9565   -1.8861    0.0000 C   0  0  0  0  0  0  0  0  0  0  0  0
   -0.2420   -2.2986    0.0000 C   0  0  0  0  0  0  0  0  0  0  0  0
    0.4723   -1.8861    0.0000 C   0  0  0  0  0  0  0  0  0  0  0  0
   -3.0999   -2.2986    0.0000 O   0  0  0  0  0  0  0  0  0  0  0  0
   -3.8144   -1.8861    0.0000 C   0  0  0  0  0  0  0  0  0  0  0  0
   -3.8144   -1.0610    0.0000 C   0  0  0  0  0  0  0  0  0  0  0  0
   -4.5289   -0.6486    0.0000 C   0  0  0  0  0  0  0  0  0  0  0  0
   -4.5289    0.1764    0.0000 C   0  0  0  0  0  0  0  0  0  0  0  0
   -5.2433    0.5889    0.0000 C   0  0  0  0  0  0  0  0  0  0  0  0
   -5.2433    1.4138    0.0000 C   0  0  0  0  0  0  0  0  0  0  0  0
   -4.5289   -2.2986    0.0000 O   0  0  0  0  0  0  0  0  0  0  0  0
   -0.2420   -1.4735    0.0000 H   0  0  0  0  0  0  0  0  0  0  0  0
    0.4723   -0.2361    0.0000 H   0  0  0  0  0  0  0  0  0  0  0  0
    1.2731   -1.4690    0.0000 H   0  0  0  0  0  0  0  0  0  0  0  0
    2.9833   -0.6726    0.0000 H   0  0  0  0  0  0  0  0  0  0  0  0
    1.7384    1.2036    0.0000 H   0  0  0  0  0  0  0  0  0  0  0  0
  2  1  1  1  0  0  0
  3  2  1  0  0  0  0
  4  3  1  0  0  0  0
  5  4  1  0  0  0  0
  5  6  1  0  0  0  0
  7  6  1  0  0  0  0
  8  7  1  0  0  0  0
  9  8  1  0  0  0  0
  9 10  1  6  0  0  0
  9 11  1  0  0  0  0
 11 12  1  0  0  0  0
  6 12  1  6  0  0  0
  6 13  1  0  0  0  0
 13 14  1  6  0  0  0
 13  3  1  0  0  0  0
 15  4  1  0  0  0  0
 15 16  1  0  0  0  0
 17 16  1  0  0  0  0
 17 18  1  0  0  0  0
 18 19  1  0  0  0  0
 19 20  1  0  0  0  0
 20  2  1  0  0  0  0
 21 18  1  0  0  0  0
 21 22  1  1  0  0  0
 23 21  1  0  0  0  0
 24 23  1  0  0  0  0
 25 24  1  0  0  0  0
 25 26  1  0  0  0  0
 26 27  1  0  0  0  0
 27 21  1  0  0  0  0
 28 27  2  0  0  0  0
 28 29  1  0  0  0  0
 29 17  1  0  0  0  0
 25 30  1  1  0  0  0
 30 31  1  0  0  0  0
 31 32  1  0  0  0  0
 32 33  1  0  0  0  0
 33 34  1  0  0  0  0
 34 35  1  0  0  0  0
 35 36  1  0  0  0  0
 31 37  2  0  0  0  0
 18 38  1  6  0  0  0
 17 39  1  1  0  0  0
 16  2  1  0  0  0  0
 16 40  1  6  0  0  0
  4 41  1  6  0  0  0
  3 42  1  6  0  0  0
M  END
> <DATABASE_ID>
DB05263

> <DATABASE_NAME>
drugbank

> <SMILES>
[H][C@]12C[C@@]3([H])[C@]4([H])CC=C5C[C@H](CC[C@]5(C)[C@@]4([H])CC[C@]3(C)[C@@]1([H])[C@H](C)[C@@]1(CC[C@@H](C)CO1)O2)OC(=O)CCCCC

> <INCHI_IDENTIFIER>
InChI=1S/C33H52O4/c1-6-7-8-9-29(34)36-24-13-15-31(4)23(18-24)10-11-25-26(31)14-16-32(5)27(25)19-28-30(32)22(3)33(37-28)17-12-21(2)20-35-33/h10,21-22,24-28,30H,6-9,11-20H2,1-5H3/t21-,22+,24+,25-,26+,27+,28+,30+,31+,32+,33-/m1/s1

> <INCHI_KEY>
VMOZFSWFUBLCNN-AAPULDEBSA-N

> <FORMULA>
C33H52O4

> <MOLECULAR_WEIGHT>
512.775

> <EXACT_MASS>
512.386560154

> <JCHEM_ACCEPTOR_COUNT>
3

> <JCHEM_ATOM_COUNT>
89

> <JCHEM_AVERAGE_NEUTRAL_MICROSPECIES_CHARGE>
0.00010140198842409091

> <JCHEM_AVERAGE_POLARIZABILITY>
64.08152803964794

> <JCHEM_BIOAVAILABILITY>
0

> <JCHEM_DONOR_COUNT>
0

> <JCHEM_FORMAL_CHARGE>
0

> <JCHEM_GHOSE_FILTER>
0

> <JCHEM_IUPAC>
(1'S,2R,2'S,4'S,5R,7'S,8'R,9'S,12'S,13'R,16'S)-5,7',9',13'-tetramethyl-5'-oxaspiro[oxane-2,6'-pentacyclo[10.8.0.0^{2,9}.0^{4,8}.0^{13,18}]icosan]-18'-en-16'-yl hexanoate

> <ALOGPS_LOGP>
6.34

> <JCHEM_LOGP>
7.402672706333332

> <ALOGPS_LOGS>
-7.52

> <JCHEM_MDDR_LIKE_RULE>
1

> <JCHEM_NEUTRAL_CHARGE>
0

> <JCHEM_NUMBER_OF_RINGS>
6

> <JCHEM_PHYSIOLOGICAL_CHARGE>
0

> <JCHEM_PKA_STRONGEST_BASIC>
-4.048865166442464

> <JCHEM_POLAR_SURFACE_AREA>
44.760000000000005

> <JCHEM_REFRACTIVITY>
147.84730000000002

> <JCHEM_ROTATABLE_BOND_COUNT>
6

> <JCHEM_RULE_OF_FIVE>
0

> <ALOGPS_SOLUBILITY>
1.55e-05 g/l

> <JCHEM_TRADITIONAL_IUPAC>
(1'S,2R,2'S,4'S,5R,7'S,8'R,9'S,12'S,13'R,16'S)-5,7',9',13'-tetramethyl-5'-oxaspiro[oxane-2,6'-pentacyclo[10.8.0.0^{2,9}.0^{4,8}.0^{13,18}]icosan]-18'-en-16'-yl hexanoate

> <JCHEM_VEBER_RULE>
0

> <DRUGBANK_ID>
DB05263

> <DRUG_GROUPS>
investigational

> <GENERIC_NAME>
Caprospinol

> <SYNONYMS>
Diosgenin caproate

$$$$
