
  Mrv1652306231722462D          

 22 25  0  0  0  0            999 V2000
    6.1237    0.8510    0.0000 C   0  0  0  0  0  0  0  0  0  0  0  0
    5.9401    1.6553    0.0000 C   0  0  0  0  0  0  0  0  0  0  0  0
    5.1517    1.8985    0.0000 C   0  0  0  0  0  0  0  0  0  0  0  0
    4.5470    1.3373    0.0000 C   0  0  0  0  0  0  0  0  0  0  0  0
    4.7305    0.5330    0.0000 C   0  0  0  0  0  0  0  0  0  0  0  0
    5.5189    0.2898    0.0000 C   0  0  0  0  0  0  0  0  0  0  0  0
    4.2162   -0.1120    0.0000 C   0  0  0  0  0  0  0  0  0  0  0  0
    3.3912   -0.1120    0.0000 C   0  0  0  0  0  0  0  0  0  0  0  0
    2.8768    0.5330    0.0000 C   0  0  0  0  0  0  0  0  0  0  0  0
    2.0884    0.2898    0.0000 C   0  0  0  0  0  0  0  0  0  0  0  0
    1.4837    0.8510    0.0000 C   0  0  0  0  0  0  0  0  0  0  0  0
    1.6673    1.6553    0.0000 C   0  0  0  0  0  0  0  0  0  0  0  0
    2.4556    1.8985    0.0000 C   0  0  0  0  0  0  0  0  0  0  0  0
    3.0604    1.3373    0.0000 C   0  0  0  0  0  0  0  0  0  0  0  0
    3.8037    1.6953    0.0000 C   0  0  0  0  0  0  0  0  0  0  0  0
    3.8037    2.5203    0.0000 N   0  0  0  0  0  0  0  0  0  0  0  0
    3.1362    3.0052    0.0000 C   0  0  0  0  0  0  0  0  0  0  0  0
    3.3912    3.7898    0.0000 C   0  0  0  0  0  0  0  0  0  0  0  0
    4.2162    3.7898    0.0000 N   0  0  0  0  0  0  0  0  0  0  0  0
    4.4711    3.0052    0.0000 C   0  0  0  0  0  0  0  0  0  0  0  0
    2.6392    2.7028    0.0000 Cl  0  0  0  0  0  0  0  0  0  0  0  0
    0.6953    0.6078    0.0000 Cl  0  0  0  0  0  0  0  0  0  0  0  0
  1  2  2  0  0  0  0
  2  3  1  0  0  0  0
  3  4  2  0  0  0  0
  4  5  1  0  0  0  0
  5  6  2  0  0  0  0
  1  6  1  0  0  0  0
  5  7  1  0  0  0  0
  7  8  1  0  0  0  0
  8  9  1  0  0  0  0
  9 10  2  0  0  0  0
 10 11  1  0  0  0  0
 11 12  2  0  0  0  0
 12 13  1  0  0  0  0
 13 14  2  0  0  0  0
  9 14  1  0  0  0  0
 14 15  1  0  0  0  0
  4 15  1  0  0  0  0
 15 16  1  0  0  0  0
 16 17  1  0  0  0  0
 17 18  2  0  0  0  0
 18 19  1  0  0  0  0
 19 20  2  0  0  0  0
 16 20  1  0  0  0  0
 13 21  1  0  0  0  0
 11 22  1  0  0  0  0
M  END
> <DATABASE_ID>
DB13656

> <DATABASE_NAME>
drugbank

> <SMILES>
ClC1=CC(Cl)=C2C(N3C=CN=C3)C3=CC=CC=C3CCC2=C1

> <INCHI_IDENTIFIER>
InChI=1S/C18H14Cl2N2/c19-14-9-13-6-5-12-3-1-2-4-15(12)18(17(13)16(20)10-14)22-8-7-21-11-22/h1-4,7-11,18H,5-6H2

> <INCHI_KEY>
MPTJIDOGFUQSQH-UHFFFAOYSA-N

> <FORMULA>
C18H14Cl2N2

> <MOLECULAR_WEIGHT>
329.22

> <EXACT_MASS>
328.0534039

> <JCHEM_ACCEPTOR_COUNT>
1

> <JCHEM_ATOM_COUNT>
36

> <JCHEM_AVERAGE_POLARIZABILITY>
33.510331028285506

> <JCHEM_BIOAVAILABILITY>
1

> <JCHEM_DONOR_COUNT>
0

> <JCHEM_FORMAL_CHARGE>
0

> <JCHEM_GHOSE_FILTER>
1

> <JCHEM_IUPAC>
1-{4,6-dichlorotricyclo[9.4.0.0^{3,8}]pentadeca-1(15),3,5,7,11,13-hexaen-2-yl}-1H-imidazole

> <ALOGPS_LOGP>
4.79

> <JCHEM_LOGP>
5.3583713920000005

> <ALOGPS_LOGS>
-5.18

> <JCHEM_MDDR_LIKE_RULE>
0

> <JCHEM_NUMBER_OF_RINGS>
4

> <JCHEM_PHYSIOLOGICAL_CHARGE>
0

> <JCHEM_PKA_STRONGEST_BASIC>
6.684790684088436

> <JCHEM_POLAR_SURFACE_AREA>
17.82

> <JCHEM_REFRACTIVITY>
90.69469999999998

> <JCHEM_ROTATABLE_BOND_COUNT>
1

> <JCHEM_RULE_OF_FIVE>
0

> <ALOGPS_SOLUBILITY>
2.15e-03 g/l

> <JCHEM_TRADITIONAL_IUPAC>
1-{4,6-dichlorotricyclo[9.4.0.0^{3,8}]pentadeca-1(15),3,5,7,11,13-hexaen-2-yl}imidazole

> <JCHEM_VEBER_RULE>
1

> <DRUGBANK_ID>
DB13656

> <DRUG_GROUPS>
experimental

> <GENERIC_NAME>
Eberconazole

> <SYNONYMS>
Eberconazole

$$$$
