
  Mrv1909 02272004092D          

  7  6  0  0  0  0            999 V2000
    1.4291   -0.4031    0.0000 O   0  0  0  0  0  0  0  0  0  0  0  0
    0.0000   -0.4123    0.0000 O   0  0  0  0  0  0  0  0  0  0  0  0
    0.7145    0.8250    0.0000 O   0  0  0  0  0  0  0  0  0  0  0  0
   -0.7145    0.0001    0.0000 C   0  0  0  0  0  0  0  0  0  0  0  0
   -1.4291   -0.4123    0.0000 C   0  0  0  0  0  0  0  0  0  0  0  0
    0.7145    0.0001    0.0000 P   0  0  0  0  0  0  0  0  0  0  0  0
    0.7145   -0.8250    0.0000 O   0  0  0  0  0  0  0  0  0  0  0  0
  6  3  2  0  0  0  0
  6  7  1  0  0  0  0
  2  4  1  0  0  0  0
  4  5  1  0  0  0  0
  6  2  1  0  0  0  0
  6  1  1  0  0  0  0
M  END
> <DATABASE_ID>
DB03822

> <DATABASE_NAME>
drugbank

> <SMILES>
CCOP(O)(O)=O

> <INCHI_IDENTIFIER>
InChI=1S/C2H7O4P/c1-2-6-7(3,4)5/h2H2,1H3,(H2,3,4,5)

> <INCHI_KEY>
ZJXZSIYSNXKHEA-UHFFFAOYSA-N

> <FORMULA>
C2H7O4P

> <MOLECULAR_WEIGHT>
126.0483

> <EXACT_MASS>
126.008195224

> <JCHEM_ACCEPTOR_COUNT>
3

> <JCHEM_ATOM_COUNT>
14

> <JCHEM_AVERAGE_NEUTRAL_MICROSPECIES_CHARGE>
-1.7485121916594033

> <JCHEM_AVERAGE_POLARIZABILITY>
9.8163900416857

> <JCHEM_BIOAVAILABILITY>
1

> <JCHEM_DONOR_COUNT>
2

> <JCHEM_FORMAL_CHARGE>
0

> <JCHEM_GHOSE_FILTER>
0

> <JCHEM_IUPAC>
ethoxyphosphonic acid

> <ALOGPS_LOGP>
-0.27

> <JCHEM_LOGP>
-0.2853351453333334

> <ALOGPS_LOGS>
-0.64

> <JCHEM_MDDR_LIKE_RULE>
0

> <JCHEM_NEUTRAL_CHARGE>
-2

> <JCHEM_NUMBER_OF_RINGS>
0

> <JCHEM_PHYSIOLOGICAL_CHARGE>
-2

> <JCHEM_PKA>
6.8273333510288055

> <JCHEM_PKA_STRONGEST_ACIDIC>
1.8043155661586592

> <JCHEM_POLAR_SURFACE_AREA>
66.75999999999999

> <JCHEM_REFRACTIVITY>
23.8828

> <JCHEM_ROTATABLE_BOND_COUNT>
2

> <JCHEM_RULE_OF_FIVE>
1

> <ALOGPS_SOLUBILITY>
2.90e+01 g/l

> <JCHEM_TRADITIONAL_IUPAC>
methionine sulfone

> <JCHEM_VEBER_RULE>
0

> <DRUGBANK_ID>
DB03822

> <SECONDARY_ACCESSION_NUMBERS>
EXPT01327

> <DRUG_GROUPS>
experimental

> <GENERIC_NAME>
Ethyl dihydrogen phosphate

> <SYNONYMS>
Monoethyl acid phosphate; Monoethyl phosphate; O-Ethyl dihydrogen phosphate; Phosphoric acid monoethyl ester

$$$$
