
  Mrv1909 05201914372D          

 44 48  0  0  0  0            999 V2000
    5.8070    1.1270    0.0000 C   0  0  0  0  0  0  0  0  0  0  0  0
    6.2195    0.4125    0.0000 C   0  0  0  0  0  0  0  0  0  0  0  0
    7.0445    0.4125    0.0000 C   0  0  0  0  0  0  0  0  0  0  0  0
    7.4570   -0.3020    0.0000 C   0  0  0  0  0  0  0  0  0  0  0  0
    7.0445   -1.0164    0.0000 C   0  0  0  0  0  0  0  0  0  0  0  0
    6.2195   -1.0164    0.0000 C   0  0  0  0  0  0  0  0  0  0  0  0
    5.8070   -1.7309    0.0000 C   0  0  0  0  0  0  0  0  0  0  0  0
    5.8070   -0.3020    0.0000 C   0  0  0  0  0  0  0  0  0  0  0  0
    4.9820   -0.3020    0.0000 C   0  0  0  0  0  0  0  0  0  0  0  0
    4.5695    0.4125    0.0000 C   0  0  0  0  0  0  0  0  0  0  0  0
    3.7445    0.4125    0.0000 S   0  0  0  0  0  0  0  0  0  0  0  0
    3.7445   -0.4125    0.0000 O   0  0  0  0  0  0  0  0  0  0  0  0
    3.7445    1.2375    0.0000 O   0  0  0  0  0  0  0  0  0  0  0  0
    2.9195    0.4125    0.0000 N   0  0  0  0  0  0  0  0  0  0  0  0
    2.5070   -0.3020    0.0000 C   0  0  0  0  0  0  0  0  0  0  0  0
    1.6820   -0.3020    0.0000 C   0  0  0  0  0  0  0  0  0  0  0  0
    1.2695    0.4125    0.0000 C   0  0  0  0  0  0  0  0  0  0  0  0
    1.6820    1.1270    0.0000 C   0  0  0  0  0  0  0  0  0  0  0  0
    2.5070    1.1270    0.0000 C   0  0  0  0  0  0  0  0  0  0  0  0
    0.7846   -0.2549    0.0000 N   0  0  0  0  0  0  0  0  0  0  0  0
    0.0000   -0.0000    0.0000 C   0  0  0  0  0  0  0  0  0  0  0  0
   -0.0000    0.8250    0.0000 N   0  0  0  0  0  0  0  0  0  0  0  0
    0.7846    1.0799    0.0000 C   0  0  0  0  0  0  0  0  0  0  0  0
    1.0396    1.8646    0.0000 O   0  0  0  0  0  0  0  0  0  0  0  0
   -0.6674   -0.4849    0.0000 C   0  0  0  0  0  0  0  0  0  0  0  0
   -0.5812   -1.3054    0.0000 C   0  0  0  0  0  0  0  0  0  0  0  0
   -1.2486   -1.7903    0.0000 C   0  0  0  0  0  0  0  0  0  0  0  0
   -2.0023   -1.4548    0.0000 C   0  0  0  0  0  0  0  0  0  0  0  0
   -2.6698   -1.9397    0.0000 O   0  0  0  0  0  0  0  0  0  0  0  0
   -3.4234   -1.6041    0.0000 C   0  0  0  0  0  0  0  0  0  0  0  0
   -4.1771   -1.2686    0.0000 F   0  0  0  0  0  0  0  0  0  0  0  0
   -3.7590   -2.3578    0.0000 F   0  0  0  0  0  0  0  0  0  0  0  0
   -3.0879   -0.8505    0.0000 F   0  0  0  0  0  0  0  0  0  0  0  0
   -2.0886   -0.6343    0.0000 C   0  0  0  0  0  0  0  0  0  0  0  0
   -1.4211   -0.1494    0.0000 C   0  0  0  0  0  0  0  0  0  0  0  0
    8.2820   -0.3020    0.0000 N   0  0  0  0  0  0  0  0  0  0  0  0
    8.7670    0.3655    0.0000 C   0  0  0  0  0  0  0  0  0  0  0  0
    8.5120    1.1501    0.0000 O   0  0  0  0  0  0  0  0  0  0  0  0
    9.5516    0.1105    0.0000 N   0  0  0  0  0  0  0  0  0  0  0  0
    9.5516   -0.7145    0.0000 C   0  0  0  0  0  0  0  0  0  0  0  0
   10.2190   -1.1994    0.0000 O   0  0  0  0  0  0  0  0  0  0  0  0
    8.7670   -0.9694    0.0000 C   0  0  0  0  0  0  0  0  0  0  0  0
    8.9300   -1.7781    0.0000 C   0  0  0  0  0  0  0  0  0  0  0  0
    8.1597   -1.5278    0.0000 C   0  0  0  0  0  0  0  0  0  0  0  0
  1  2  1  0  0  0  0
  2  3  2  0  0  0  0
  3  4  1  0  0  0  0
  4  5  2  0  0  0  0
  5  6  1  0  0  0  0
  6  7  1  0  0  0  0
  6  8  2  0  0  0  0
  2  8  1  0  0  0  0
  8  9  1  0  0  0  0
  9 10  1  0  0  0  0
 10 11  1  0  0  0  0
 11 12  2  0  0  0  0
 11 13  2  0  0  0  0
 11 14  1  0  0  0  0
 14 15  1  0  0  0  0
 15 16  1  0  0  0  0
 16 17  1  0  0  0  0
 17 18  1  0  0  0  0
 18 19  1  0  0  0  0
 14 19  1  0  0  0  0
 17 20  1  0  0  0  0
 20 21  2  0  0  0  0
 21 22  1  0  0  0  0
 22 23  1  0  0  0  0
 17 23  1  0  0  0  0
 23 24  2  0  0  0  0
 21 25  1  0  0  0  0
 25 26  2  0  0  0  0
 26 27  1  0  0  0  0
 27 28  2  0  0  0  0
 28 29  1  0  0  0  0
 29 30  1  0  0  0  0
 30 31  1  0  0  0  0
 30 32  1  0  0  0  0
 30 33  1  0  0  0  0
 28 34  1  0  0  0  0
 34 35  2  0  0  0  0
 25 35  1  0  0  0  0
  4 36  1  0  0  0  0
 36 37  1  0  0  0  0
 37 38  2  0  0  0  0
 37 39  1  0  0  0  0
 39 40  1  0  0  0  0
 40 41  2  0  0  0  0
 40 42  1  0  0  0  0
 36 42  1  0  0  0  0
 42 43  1  0  0  0  0
 42 44  1  0  0  0  0
M  END
> <DATABASE_ID>
DB14946

> <DATABASE_NAME>
drugbank

> <SMILES>
CC1=CC(=CC(C)=C1CCS(=O)(=O)N1CCC2(CC1)N=C(NC2=O)C1=CC=C(OC(F)(F)F)C=C1)N1C(=O)NC(=O)C1(C)C

> <INCHI_IDENTIFIER>
InChI=1S/C29H32F3N5O6S/c1-17-15-20(37-26(40)34-24(38)27(37,3)4)16-18(2)22(17)9-14-44(41,42)36-12-10-28(11-13-36)25(39)33-23(35-28)19-5-7-21(8-6-19)43-29(30,31)32/h5-8,15-16H,9-14H2,1-4H3,(H,33,35,39)(H,34,38,40)

> <INCHI_KEY>
LDZJFVOUPUFOHX-UHFFFAOYSA-N

> <FORMULA>
C29H32F3N5O6S

> <MOLECULAR_WEIGHT>
635.66

> <EXACT_MASS>
635.202539433

> <JCHEM_ACCEPTOR_COUNT>
7

> <JCHEM_ATOM_COUNT>
76

> <JCHEM_AVERAGE_POLARIZABILITY>
62.97618064914989

> <JCHEM_BIOAVAILABILITY>
1

> <JCHEM_DONOR_COUNT>
2

> <JCHEM_FORMAL_CHARGE>
0

> <JCHEM_GHOSE_FILTER>
0

> <JCHEM_IUPAC>
1-{3,5-dimethyl-4-[2-({4-oxo-2-[4-(trifluoromethoxy)phenyl]-1,3,8-triazaspiro[4.5]dec-1-en-8-yl}sulfonyl)ethyl]phenyl}-5,5-dimethylimidazolidine-2,4-dione

> <ALOGPS_LOGP>
3.64

> <JCHEM_LOGP>
3.8100237073333307

> <ALOGPS_LOGS>
-4.95

> <JCHEM_MDDR_LIKE_RULE>
1

> <JCHEM_NUMBER_OF_RINGS>
5

> <JCHEM_PHYSIOLOGICAL_CHARGE>
0

> <JCHEM_PKA>
11.173946974281414

> <JCHEM_PKA_STRONGEST_ACIDIC>
8.590947918962991

> <JCHEM_PKA_STRONGEST_BASIC>
2.5339897612252233

> <JCHEM_POLAR_SURFACE_AREA>
137.48

> <JCHEM_REFRACTIVITY>
149.9738

> <JCHEM_ROTATABLE_BOND_COUNT>
7

> <JCHEM_RULE_OF_FIVE>
0

> <ALOGPS_SOLUBILITY>
7.21e-03 g/l

> <JCHEM_TRADITIONAL_IUPAC>
(2R)-14-fluoro-2-methyl-6,9,10,19-tetraazapentacyclo[14.2.1.0^{2,6}.0^{8,18}.0^{12,17}]nonadeca-1(18),8,12(17),13,15-pentaen-11-one

> <JCHEM_VEBER_RULE>
0

> <DRUGBANK_ID>
DB14946

> <DRUG_GROUPS>
investigational

> <GENERIC_NAME>
PCO-371

$$$$
