
  Mrv1652306231722472D          

 16 17  0  0  0  0            999 V2000
    1.3222    2.4134    0.0000 C   0  0  0  0  0  0  0  0  0  0  0  0
    2.0367    2.0009    0.0000 C   0  0  0  0  0  0  0  0  0  0  0  0
    2.0367    1.1759    0.0000 C   0  0  0  0  0  0  0  0  0  0  0  0
    2.7512    2.4134    0.0000 C   0  0  0  0  0  0  0  0  0  0  0  0
    2.7512    3.2384    0.0000 C   0  0  0  0  0  0  0  0  0  0  0  0
    3.4656    3.6509    0.0000 C   0  0  0  0  0  0  0  0  0  0  0  0
    4.1801    3.2384    0.0000 C   0  0  0  0  0  0  0  0  0  0  0  0
    4.1801    2.4134    0.0000 C   0  0  0  0  0  0  0  0  0  0  0  0
    3.4656    2.0009    0.0000 C   0  0  0  0  0  0  0  0  0  0  0  0
    3.4656    1.1759    0.0000 O   0  0  0  0  0  0  0  0  0  0  0  0
    4.1801    0.7634    0.0000 C   0  0  0  0  0  0  0  0  0  0  0  0
    4.1801   -0.0616    0.0000 C   0  0  0  0  0  0  0  0  0  0  0  0
    4.8476   -0.5465    0.0000 N   0  0  0  0  0  0  0  0  0  0  0  0
    4.5926   -1.3312    0.0000 C   0  0  0  0  0  0  0  0  0  0  0  0
    3.7676   -1.3312    0.0000 C   0  0  0  0  0  0  0  0  0  0  0  0
    3.5127   -0.5465    0.0000 N   0  0  0  0  0  0  0  0  0  0  0  0
  1  2  1  0  0  0  0
  2  3  1  0  0  0  0
  2  4  1  0  0  0  0
  4  5  2  0  0  0  0
  5  6  1  0  0  0  0
  6  7  2  0  0  0  0
  7  8  1  0  0  0  0
  8  9  2  0  0  0  0
  4  9  1  0  0  0  0
  9 10  1  0  0  0  0
 10 11  1  0  0  0  0
 11 12  1  0  0  0  0
 12 13  2  0  0  0  0
 13 14  1  0  0  0  0
 14 15  1  0  0  0  0
 15 16  1  0  0  0  0
 12 16  1  0  0  0  0
M  END
> <DATABASE_ID>
DB13736

> <DATABASE_NAME>
drugbank

> <SMILES>
CC(C)C1=CC=CC=C1OCC1=NCCN1

> <INCHI_IDENTIFIER>
InChI=1S/C13H18N2O/c1-10(2)11-5-3-4-6-12(11)16-9-13-14-7-8-15-13/h3-6,10H,7-9H2,1-2H3,(H,14,15)

> <INCHI_KEY>
GFYSWQDCHLWRMQ-UHFFFAOYSA-N

> <FORMULA>
C13H18N2O

> <MOLECULAR_WEIGHT>
218.3

> <EXACT_MASS>
218.141913208

> <JCHEM_ACCEPTOR_COUNT>
3

> <JCHEM_ATOM_COUNT>
34

> <JCHEM_AVERAGE_POLARIZABILITY>
25.01252479813961

> <JCHEM_BIOAVAILABILITY>
1

> <JCHEM_DONOR_COUNT>
1

> <JCHEM_FORMAL_CHARGE>
0

> <JCHEM_GHOSE_FILTER>
1

> <JCHEM_IUPAC>
2-{[2-(propan-2-yl)phenoxy]methyl}-4,5-dihydro-1H-imidazole

> <ALOGPS_LOGP>
2.77

> <JCHEM_LOGP>
2.131213096999999

> <ALOGPS_LOGS>
-2.84

> <JCHEM_MDDR_LIKE_RULE>
0

> <JCHEM_NUMBER_OF_RINGS>
2

> <JCHEM_PHYSIOLOGICAL_CHARGE>
1

> <JCHEM_PKA_STRONGEST_BASIC>
9.25845812699594

> <JCHEM_POLAR_SURFACE_AREA>
33.62

> <JCHEM_REFRACTIVITY>
64.50030000000001

> <JCHEM_ROTATABLE_BOND_COUNT>
4

> <JCHEM_RULE_OF_FIVE>
1

> <ALOGPS_SOLUBILITY>
3.16e-01 g/l

> <JCHEM_TRADITIONAL_IUPAC>
fenoxazolina

> <JCHEM_VEBER_RULE>
1

> <DRUGBANK_ID>
DB13736

> <DRUG_GROUPS>
experimental

> <GENERIC_NAME>
Fenoxazoline

> <SYNONYMS>
Fenoxazoline

$$$$
