
  Mrv1909 12152018172D          

 41 45  0  0  0  0            999 V2000
   -5.6985    3.9038    0.0000 C   0  0  0  0  0  0  0  0  0  0  0  0
   -4.8781    3.9900    0.0000 N   0  0  0  0  0  0  0  0  0  0  0  0
   -4.4656    4.7045    0.0000 N   0  0  0  0  0  0  0  0  0  0  0  0
   -3.6586    4.5330    0.0000 C   0  0  0  0  0  0  0  0  0  0  0  0
   -3.0455    5.0850    0.0000 O   0  0  0  0  0  0  0  0  0  0  0  0
   -3.5724    3.7125    0.0000 C   0  0  0  0  0  0  0  0  0  0  0  0
   -2.8579    3.3000    0.0000 C   0  0  0  0  0  0  0  0  0  0  0  0
   -2.1434    3.7125    0.0000 O   0  0  0  0  0  0  0  0  0  0  0  0
   -2.8579    2.4750    0.0000 N   0  0  0  0  0  0  0  0  0  0  0  0
   -2.1434    2.0625    0.0000 C   0  0  0  0  0  0  0  0  0  0  0  0
   -1.4289    2.4750    0.0000 C   0  0  0  0  0  0  0  0  0  0  0  0
   -0.7145    2.0625    0.0000 C   0  0  0  0  0  0  0  0  0  0  0  0
    0.0000    2.4750    0.0000 F   0  0  0  0  0  0  0  0  0  0  0  0
   -0.7145    1.2375    0.0000 C   0  0  0  0  0  0  0  0  0  0  0  0
    0.0000    0.8250    0.0000 O   0  0  0  0  0  0  0  0  0  0  0  0
    0.0000   -0.0000    0.0000 C   0  0  0  0  0  0  0  0  0  0  0  0
   -0.7145   -0.4125    0.0000 C   0  0  0  0  0  0  0  0  0  0  0  0
   -0.7145   -1.2375    0.0000 C   0  0  0  0  0  0  0  0  0  0  0  0
    0.0000   -1.6500    0.0000 N   0  0  0  0  0  0  0  0  0  0  0  0
    0.7145   -1.2375    0.0000 C   0  0  0  0  0  0  0  0  0  0  0  0
    0.7145   -0.4125    0.0000 C   0  0  0  0  0  0  0  0  0  0  0  0
    1.4289   -0.0000    0.0000 C   0  0  0  0  0  0  0  0  0  0  0  0
    2.1434   -0.4125    0.0000 C   0  0  0  0  0  0  0  0  0  0  0  0
    2.1434   -1.2375    0.0000 C   0  0  0  0  0  0  0  0  0  0  0  0
    2.8579   -1.6500    0.0000 O   0  0  0  0  0  0  0  0  0  0  0  0
    2.8579   -2.4750    0.0000 C   0  0  0  0  0  0  0  0  0  0  0  0
    3.5724   -2.8875    0.0000 C   0  0  0  0  0  0  0  0  0  0  0  0
    4.2868   -3.3000    0.0000 C   0  0  0  0  0  0  0  0  0  0  0  0
    3.9849   -2.1730    0.0000 C   0  0  0  0  0  0  0  0  0  0  0  0
    3.1599   -3.6020    0.0000 O   0  0  0  0  0  0  0  0  0  0  0  0
    1.4289   -1.6500    0.0000 C   0  0  0  0  0  0  0  0  0  0  0  0
   -1.4289    0.8250    0.0000 C   0  0  0  0  0  0  0  0  0  0  0  0
   -2.1434    1.2375    0.0000 C   0  0  0  0  0  0  0  0  0  0  0  0
   -4.3260    3.3769    0.0000 C   0  0  0  0  0  0  0  0  0  0  0  0
   -4.4976    2.5700    0.0000 C   0  0  0  0  0  0  0  0  0  0  0  0
   -4.8011    5.4582    0.0000 C   0  0  0  0  0  0  0  0  0  0  0  0
   -5.6216    5.5444    0.0000 C   0  0  0  0  0  0  0  0  0  0  0  0
   -5.9572    6.2981    0.0000 C   0  0  0  0  0  0  0  0  0  0  0  0
   -5.4722    6.9655    0.0000 C   0  0  0  0  0  0  0  0  0  0  0  0
   -4.6518    6.8793    0.0000 C   0  0  0  0  0  0  0  0  0  0  0  0
   -4.3162    6.1256    0.0000 C   0  0  0  0  0  0  0  0  0  0  0  0
  1  2  1  0  0  0  0
  2  3  1  0  0  0  0
  3  4  1  0  0  0  0
  4  5  2  0  0  0  0
  4  6  1  0  0  0  0
  6  7  1  0  0  0  0
  7  8  2  0  0  0  0
  7  9  1  0  0  0  0
  9 10  1  0  0  0  0
 10 11  2  0  0  0  0
 11 12  1  0  0  0  0
 12 13  1  0  0  0  0
 12 14  2  0  0  0  0
 14 15  1  0  0  0  0
 15 16  1  0  0  0  0
 16 17  2  0  0  0  0
 17 18  1  0  0  0  0
 18 19  2  0  0  0  0
 19 20  1  0  0  0  0
 20 21  2  0  0  0  0
 16 21  1  0  0  0  0
 21 22  1  0  0  0  0
 22 23  2  0  0  0  0
 23 24  1  0  0  0  0
 24 25  1  0  0  0  0
 25 26  1  0  0  0  0
 26 27  1  0  0  0  0
 27 28  1  0  0  0  0
 27 29  1  0  0  0  0
 27 30  1  0  0  0  0
 24 31  2  0  0  0  0
 20 31  1  0  0  0  0
 14 32  1  0  0  0  0
 32 33  2  0  0  0  0
 10 33  1  0  0  0  0
  6 34  2  0  0  0  0
  2 34  1  0  0  0  0
 34 35  1  0  0  0  0
  3 36  1  0  0  0  0
 36 37  2  0  0  0  0
 37 38  1  0  0  0  0
 38 39  2  0  0  0  0
 39 40  1  0  0  0  0
 40 41  2  0  0  0  0
 36 41  1  0  0  0  0
M  END
> <DATABASE_ID>
DB16256

> <DATABASE_NAME>
drugbank

> <SMILES>
CN1N(C(=O)C(C(=O)NC2=CC(F)=C(OC3=CC=NC4=C3C=CC(OCC(C)(C)O)=C4)C=C2)=C1C)C1=CC=CC=C1

> <INCHI_IDENTIFIER>
InChI=1S/C31H29FN4O5/c1-19-28(30(38)36(35(19)4)21-8-6-5-7-9-21)29(37)34-20-10-13-27(24(32)16-20)41-26-14-15-33-25-17-22(11-12-23(25)26)40-18-31(2,3)39/h5-17,39H,18H2,1-4H3,(H,34,37)

> <INCHI_KEY>
VQYYQSZNRVQLIS-UHFFFAOYSA-N

> <FORMULA>
C31H29FN4O5

> <MOLECULAR_WEIGHT>
556.594

> <EXACT_MASS>
556.212198213

> <JCHEM_ACCEPTOR_COUNT>
6

> <JCHEM_ATOM_COUNT>
70

> <JCHEM_AVERAGE_NEUTRAL_MICROSPECIES_CHARGE>
0.037254431640321974

> <JCHEM_AVERAGE_POLARIZABILITY>
58.81414715757296

> <JCHEM_BIOAVAILABILITY>
1

> <JCHEM_DONOR_COUNT>
2

> <JCHEM_FORMAL_CHARGE>
0

> <JCHEM_GHOSE_FILTER>
0

> <JCHEM_IUPAC>
N-(3-fluoro-4-{[7-(2-hydroxy-2-methylpropoxy)quinolin-4-yl]oxy}phenyl)-1,5-dimethyl-3-oxo-2-phenyl-2,3-dihydro-1H-pyrazole-4-carboxamide

> <ALOGPS_LOGP>
4.07

> <JCHEM_LOGP>
3.8905390196666674

> <ALOGPS_LOGS>
-5.13

> <JCHEM_MDDR_LIKE_RULE>
1

> <JCHEM_NEUTRAL_CHARGE>
0

> <JCHEM_NUMBER_OF_RINGS>
5

> <JCHEM_PHYSIOLOGICAL_CHARGE>
0

> <JCHEM_PKA>
14.603529260651422

> <JCHEM_PKA_STRONGEST_ACIDIC>
12.961968675371702

> <JCHEM_PKA_STRONGEST_BASIC>
5.58767991658184

> <JCHEM_POLAR_SURFACE_AREA>
104.23000000000002

> <JCHEM_REFRACTIVITY>
152.95939999999996

> <JCHEM_ROTATABLE_BOND_COUNT>
8

> <JCHEM_RULE_OF_FIVE>
0

> <ALOGPS_SOLUBILITY>
4.08e-03 g/l

> <JCHEM_TRADITIONAL_IUPAC>
5-({4-[2-(3-methoxyphenyl)-2-oxoethoxy]phenyl}methyl)-1,3-thiazolidine-2,4-dione

> <JCHEM_VEBER_RULE>
0

> <DRUGBANK_ID>
DB16256

> <DRUG_GROUPS>
investigational

> <GENERIC_NAME>
Ningetinib

> <SYNONYMS>
Ct-053 free base; Ct-053-ptsa free base; Ct053ptsa free base

$$$$
