
  Mrv1718005021811252D          

 40 43  0  0  0  0            999 V2000
   -3.8743    3.2984    0.0000 P   0  0  0  0  0  0  0  0  0  0  0  0
   -3.8743    2.4734    0.0000 O   0  0  0  0  0  0  0  0  0  0  0  0
   -3.1599    2.0609    0.0000 C   0  0  0  0  0  0  0  0  0  0  0  0
   -3.1599    1.2359    0.0000 N   0  0  0  0  0  0  0  0  0  0  0  0
   -3.8743    0.8234    0.0000 C   0  0  0  0  0  0  0  0  0  0  0  0
   -3.8743   -0.0015    0.0000 C   0  0  0  0  0  0  0  0  0  0  0  0
   -3.1599   -0.4140    0.0000 O   0  0  0  0  0  0  0  0  0  0  0  0
   -2.4453   -0.0015    0.0000 C   0  0  0  0  0  0  0  0  0  0  0  0
   -2.4453    0.8234    0.0000 C   0  0  0  0  0  0  0  0  0  0  0  0
   -1.7309   -0.4140    0.0000 C   0  0  0  0  0  0  0  0  0  0  0  0
   -1.0163   -0.0015    0.0000 C   0  0  0  0  0  0  0  0  0  0  0  0
   -1.0163    0.8234    0.0000 C   0  0  0  0  0  0  0  0  0  0  0  0
   -1.7309    1.2359    0.0000 N   0  0  0  0  0  0  0  0  0  0  0  0
   -4.5888    1.2359    0.0000 O   0  0  0  0  0  0  0  0  0  0  0  0
   -4.6993   -0.0015    0.0000 C   0  0  0  0  0  0  0  0  0  0  0  0
   -4.0879   -0.7984    0.0000 C   0  0  0  0  0  0  0  0  0  0  0  0
   -0.3020    1.2359    0.0000 N   0  0  0  0  0  0  0  0  0  0  0  0
    0.4125    0.8234    0.0000 C   0  0  0  0  0  0  0  0  0  0  0  0
    0.4125   -0.0015    0.0000 N   0  0  0  0  0  0  0  0  0  0  0  0
    1.1270   -0.4140    0.0000 C   0  0  0  0  0  0  0  0  0  0  0  0
    1.8414   -0.0015    0.0000 N   0  0  0  0  0  0  0  0  0  0  0  0
    1.8414    0.8234    0.0000 C   0  0  0  0  0  0  0  0  0  0  0  0
    1.1270    1.2359    0.0000 C   0  0  0  0  0  0  0  0  0  0  0  0
    1.1270    2.0609    0.0000 F   0  0  0  0  0  0  0  0  0  0  0  0
    1.1270   -1.2390    0.0000 N   0  0  0  0  0  0  0  0  0  0  0  0
    1.8414   -1.6515    0.0000 C   0  0  0  0  0  0  0  0  0  0  0  0
    1.8414   -2.4765    0.0000 C   0  0  0  0  0  0  0  0  0  0  0  0
    2.5559   -2.8890    0.0000 C   0  0  0  0  0  0  0  0  0  0  0  0
    3.2704   -2.4765    0.0000 C   0  0  0  0  0  0  0  0  0  0  0  0
    3.2704   -1.6515    0.0000 C   0  0  0  0  0  0  0  0  0  0  0  0
    2.5559   -1.2390    0.0000 C   0  0  0  0  0  0  0  0  0  0  0  0
    3.9849   -1.2390    0.0000 O   0  0  0  0  0  0  0  0  0  0  0  0
    4.6993   -1.6515    0.0000 C   0  0  0  0  0  0  0  0  0  0  0  0
    3.9849   -2.8890    0.0000 O   0  0  0  0  0  0  0  0  0  0  0  0
    3.9849   -3.7140    0.0000 C   0  0  0  0  0  0  0  0  0  0  0  0
    2.5559   -3.7140    0.0000 O   0  0  0  0  0  0  0  0  0  0  0  0
    1.8414   -4.1265    0.0000 C   0  0  0  0  0  0  0  0  0  0  0  0
   -4.5888    3.7109    0.0000 O   0  0  0  0  0  0  0  0  0  0  0  0
   -3.1597    3.7109    0.0000 O   0  0  0  0  0  0  0  0  0  0  0  0
   -3.8792    4.1265    0.0000 O   0  0  0  0  0  0  0  0  0  0  0  0
  8  9  2  0  0  0  0
  9  4  1  0  0  0  0
  8 10  1  0  0  0  0
 10 11  2  0  0  0  0
 11 12  1  0  0  0  0
 12 13  2  0  0  0  0
 13  9  1  0  0  0  0
  5 14  2  0  0  0  0
  6 15  1  0  0  0  0
  6 16  1  0  0  0  0
 12 17  1  0  0  0  0
 17 18  1  0  0  0  0
 18 19  2  0  0  0  0
 19 20  1  0  0  0  0
 20 21  2  0  0  0  0
 21 22  1  0  0  0  0
 22 23  2  0  0  0  0
 23 18  1  0  0  0  0
 23 24  1  0  0  0  0
 20 25  1  0  0  0  0
 25 26  1  0  0  0  0
 26 27  1  0  0  0  0
 27 28  2  0  0  0  0
 28 29  1  0  0  0  0
 29 30  2  0  0  0  0
 30 31  1  0  0  0  0
 31 26  2  0  0  0  0
 30 32  1  0  0  0  0
 32 33  1  0  0  0  0
 29 34  1  0  0  0  0
 34 35  1  0  0  0  0
  1  2  1  0  0  0  0
 28 36  1  0  0  0  0
  2  3  1  0  0  0  0
 36 37  1  0  0  0  0
  3  4  1  0  0  0  0
  1 38  2  0  0  0  0
  4  5  1  0  0  0  0
  1 39  1  0  0  0  0
  5  6  1  0  0  0  0
  1 40  1  0  0  0  0
  6  7  1  0  0  0  0
  7  8  1  0  0  0  0
M  END
> <DATABASE_ID>
DB12010

> <DATABASE_NAME>
drugbank

> <SMILES>
COC1=CC(NC2=NC=C(F)C(NC3=NC4=C(OC(C)(C)C(=O)N4COP(O)(O)=O)C=C3)=N2)=CC(OC)=C1OC

> <INCHI_IDENTIFIER>
InChI=1S/C23H26FN6O9P/c1-23(2)21(31)30(11-38-40(32,33)34)20-14(39-23)6-7-17(28-20)27-19-13(24)10-25-22(29-19)26-12-8-15(35-3)18(37-5)16(9-12)36-4/h6-10H,11H2,1-5H3,(H2,32,33,34)(H2,25,26,27,28,29)

> <INCHI_KEY>
GKDRMWXFWHEQQT-UHFFFAOYSA-N

> <FORMULA>
C23H26FN6O9P

> <MOLECULAR_WEIGHT>
580.4595

> <EXACT_MASS>
580.148291177

> <JCHEM_ACCEPTOR_COUNT>
13

> <JCHEM_ATOM_COUNT>
66

> <JCHEM_AVERAGE_POLARIZABILITY>
54.4756783971455

> <JCHEM_BIOAVAILABILITY>
0

> <JCHEM_DONOR_COUNT>
4

> <JCHEM_FORMAL_CHARGE>
0

> <JCHEM_GHOSE_FILTER>
0

> <JCHEM_IUPAC>
{[6-({5-fluoro-2-[(3,4,5-trimethoxyphenyl)amino]pyrimidin-4-yl}amino)-2,2-dimethyl-3-oxo-2H,3H,4H-pyrido[3,2-b][1,4]oxazin-4-yl]methoxy}phosphonic acid

> <ALOGPS_LOGP>
2.78

> <JCHEM_LOGP>
1.4584369746612817

> <ALOGPS_LOGS>
-4.05

> <JCHEM_MDDR_LIKE_RULE>
1

> <JCHEM_NUMBER_OF_RINGS>
4

> <JCHEM_PHYSIOLOGICAL_CHARGE>
-2

> <JCHEM_PKA>
6.505269006246614

> <JCHEM_PKA_STRONGEST_ACIDIC>
1.4568802666130738

> <JCHEM_PKA_STRONGEST_BASIC>
2.709503711199088

> <JCHEM_POLAR_SURFACE_AREA>
186.72

> <JCHEM_REFRACTIVITY>
137.0952

> <JCHEM_ROTATABLE_BOND_COUNT>
10

> <JCHEM_RULE_OF_FIVE>
0

> <ALOGPS_SOLUBILITY>
5.20e-02 g/l

> <JCHEM_TRADITIONAL_IUPAC>
fostamatinib

> <JCHEM_VEBER_RULE>
0

> <DRUGBANK_ID>
DB12010

> <DRUG_GROUPS>
approved; investigational

> <GENERIC_NAME>
Fostamatinib

> <SYNONYMS>
Fostamatinib

> <PRODUCTS>
Tavalisse; Tavlesse

> <SALTS>
Fostamatinib disodium

$$$$
