
  Mrv1909 02042116202D          

 13 13  0  0  0  0            999 V2000
   -0.3571    0.2062    0.0000 O   0  0  0  0  0  0  0  0  0  0  0  0
    1.7862    1.4437    0.0000 O   0  0  0  0  0  0  0  0  0  0  0  0
    0.3572    1.4437    0.0000 O   0  0  0  0  0  0  0  0  0  0  0  0
   -1.0716   -1.0312    0.0000 O   0  0  0  0  0  0  0  0  0  0  0  0
    0.3572   -0.2062    0.0000 C   0  0  0  0  0  0  0  0  0  0  0  0
    1.0717    0.2062    0.0000 C   0  0  0  0  0  0  0  0  0  0  0  0
    0.3572   -1.0312    0.0000 C   0  0  0  0  0  0  0  0  0  0  0  0
    1.7862   -0.2062    0.0000 C   0  0  0  0  0  0  0  0  0  0  0  0
    1.0717   -1.4437    0.0000 C   0  0  0  0  0  0  0  0  0  0  0  0
    1.7862   -1.0312    0.0000 C   0  0  0  0  0  0  0  0  0  0  0  0
    1.0717    1.0312    0.0000 C   0  0  0  0  0  0  0  0  0  0  0  0
   -1.0716   -0.2062    0.0000 C   0  0  0  0  0  0  0  0  0  0  0  0
   -1.7862    0.2062    0.0000 C   0  0  0  0  0  0  0  0  0  0  0  0
  1  5  1  0  0  0  0
  1 12  1  0  0  0  0
  2 11  1  0  0  0  0
  3 11  2  0  0  0  0
  4 12  2  0  0  0  0
  5  6  1  0  0  0  0
  5  7  2  0  0  0  0
  6  8  2  0  0  0  0
  6 11  1  0  0  0  0
  7  9  1  0  0  0  0
  8 10  1  0  0  0  0
  9 10  2  0  0  0  0
 12 13  1  0  0  0  0
M  END
> <DATABASE_ID>
DB00945

> <DATABASE_NAME>
drugbank

> <SMILES>
CC(=O)OC1=CC=CC=C1C(O)=O

> <INCHI_IDENTIFIER>
InChI=1S/C9H8O4/c1-6(10)13-8-5-3-2-4-7(8)9(11)12/h2-5H,1H3,(H,11,12)

> <INCHI_KEY>
BSYNRYMUTXBXSQ-UHFFFAOYSA-N

> <FORMULA>
C9H8O4

> <MOLECULAR_WEIGHT>
180.1574

> <EXACT_MASS>
180.042258744

> <JCHEM_ACCEPTOR_COUNT>
3

> <JCHEM_ATOM_COUNT>
21

> <JCHEM_AVERAGE_NEUTRAL_MICROSPECIES_CHARGE>
-0.9997401717600125

> <JCHEM_AVERAGE_POLARIZABILITY>
17.104469525543394

> <JCHEM_BIOAVAILABILITY>
1

> <JCHEM_DONOR_COUNT>
1

> <JCHEM_FORMAL_CHARGE>
0

> <JCHEM_GHOSE_FILTER>
1

> <JCHEM_IUPAC>
2-(acetyloxy)benzoic acid

> <JCHEM_LOGP>
1.238089698333333

> <JCHEM_MDDR_LIKE_RULE>
0

> <JCHEM_NEUTRAL_CHARGE>
-1

> <JCHEM_NUMBER_OF_RINGS>
1

> <JCHEM_PHYSIOLOGICAL_CHARGE>
-1

> <JCHEM_PKA_STRONGEST_ACIDIC>
3.4147992082888385

> <JCHEM_PKA_STRONGEST_BASIC>
-7.1447987513388975

> <JCHEM_POLAR_SURFACE_AREA>
63.6

> <JCHEM_REFRACTIVITY>
44.4466

> <JCHEM_ROTATABLE_BOND_COUNT>
3

> <JCHEM_RULE_OF_FIVE>
1

> <JCHEM_TRADITIONAL_IUPAC>
disodium dexamethasone phosphate(2-)

> <JCHEM_VEBER_RULE>
0

> <DRUGBANK_ID>
DB00945

> <SECONDARY_ACCESSION_NUMBERS>
APRD00264; EXPT00475

> <DRUG_GROUPS>
approved; vet_approved

> <GENERIC_NAME>
Acetylsalicylic acid

> <SYNONYMS>
2-Acetoxybenzenecarboxylic acid; 2-Acetoxybenzoic acid; Acetylsalicylate; Acetylsalicylsäure; acide 2-(acétyloxy)benzoïque; Acide acétylsalicylique; ácido acetilsalicílico; Acidum acetylsalicylicum; ASA; Aspirin; Aspirina; Azetylsalizylsäure; o-acetoxybenzoic acid; O-acetylsalicylic acid; o-carboxyphenyl acetate; Polopiryna; Salicylic acid acetate

> <PRODUCTS>
10 Person ANSI; 217; 217 Strong Tab; 222 Tablets; 25 Person ANSI; 282 Mep Tab; 282 Tab; 282 Tablets; 292 Tab; 292 Tablets; 365 Everyday Value Aspirin; 4032 First Aid Kit; 4134 First Aid Kit; 4139 First Aid Kit; 4142 First Aid Kit; 4154 First Aid Kit; 4196 First Aid Kit; 4209 First Aid Kit; 4211 First Aid Kit; 4213 First Aid Kit; 4214 First Aid Kit; 4215 First Aid Kit; 4216 First Aid Kit; 4217 First Aid Kit; 4221 First Aid Kit; 4224 First Aid Kit; 4225 First Aid Kit; 4227 First Aid Kit; 4228 First Aid Kit; 4229 First Aid Kit; 4230 First Aid Kit; 4232 First Aid Kit; 4240 First Aid Kit; 4244 First Aid Kit; 4246 First Aid Kit; 4248 First Aid Kit; 4249 First Aid Kit; 4250 First Aid Kit; 4251 First Aid Kit; 4291 First Aid Kit; 4303 First Aid Kit; 4304 First Aid Kit; 4305 First Aid Kit; 4313 First Aid Kit; 4332 First Aid Kit; 4333 First Aid Kit; 4340 First Aid Kit; 4342 First Aid Kit; 4346 First Aid Kit; 4355 First Aid Kit; 4356 First Aid Kit; 4365 First Aid Kit; 4376 First Aid Kit; 4387 First Aid Kit; 4388 First Aid Kit; 4389 First Aid Kit; 4395 First Aid Kit; 50 Person ANSI; 692 Tab; 692 Tablet; 7 Select Adult Chewable Aspirin; 7 Select Aspirin; 7 Select Migraine Formula; 81 mg Low Dose Aspirin; A & C Tablets With Codeine 15mg; A & C Tablets With Codeine 30mg; A.C. & C 8mg Tab; A.C. & C. 8 mg; A.C. & C. 8mg; A.C.& C Tablets; A.S.A.; A.S.A. (acetylsalicylic Acid) Tab 325mg USP; A.S.A. 325 Mg Tablet; A.S.A. 80mg Acetylsalicylic Acid Tablets; A.S.A. Enteric Coated Tab 325mg; A.S.A. Enteric Coated Tab 650mg; A.S.A. Tablets 5gr BP; A.S.A. With Methocarbamol Night-time Extra Strength; ACME FIRST AID Contains 404 PIECES; ALKA SELTZER PLUS Cold Day and Night Effervescent; ARC Emergency Preparedness FIRST AID Contains 202 PIECES; ARC FIRST AID Contains 1000 PIECES; ARC FIRST AID Contains 101 PIECES; ARC FIRST AID Contains 101 PIECES Hardcase; ARC FIRST AID Contains 303 PIECES; ARC FIRST AID Contains 303 PIECES HARDCASE; ARC FIRST AID Contains 404 PIECES; ARC FIRST AID Emergency Preparedness Contains 167 PIECES; ASPIRIN 81 MG Low Dose; ASPIRIN Low Dose; ASPIRIN Low Strength; ASPIRIN Regular Strength; Ac and C Tab 1/8gr; Ac&c Tablets; Acetaminophen 250mg Aspirin 250mg Caffeine 65mg; Acetaminophen Aspirin Caffeine; Acetaminophen Aspirin and Caffeine; Acetaminophen, Aspirin and Caffeine; Acetaminophen, Aspirin and Codeine Phosphate; Acetaminophen, Aspirin, Caffeine; Acetylsalicylic Acid 325mg Tab; Acetylsalicylic Acid 325mg Tablets USP; Acetylsalicylic Acid A.S.A. Tablets 325mg; Acetylsalicylic Acid Extra Strength 500mg Tablets USP; Acetylsalicylic Acid Extra Strength Stomach Protection 500mg Caplets; Acetylsalicylic Acid Stomach Protection 325mg Tablets; Acetylsalicylic Acid Tab 300mg; Acetylsalicylic Acid Tab 325mg; Acetylsalicylic Acid Tab 325mg BP; Acetylsalicylic Acid, Caffeine & 8 Mg Codeine Phosphate Tablets; Acetylsalicylic Acid, Caffeine and 8 Mg Codeine Phosphate; Ache and Pain Relief to Go; Adalat XL Plus; Added Strength Pain Reliever; Adult Aspirin Regimen; Adult Aspirin Regimen Low Dose; Adult Chewable Aspirin; Adult Low Dose; Adult Low Dose Aspirin; Adult Low Dose Aspirin Enteric Coated; Adult Low Dose Aspirin Enteric Safety Coated; Adult Low Dose Enteric Coated Aspirin; Adult Low Strength Aspirin; Adult Low strength Aspirin; Adults Low Strength Aspirin; Advanced Aspirin; Advanced Pain Reliever; Adventure Medical Kits 1-2 Person First Aid; Adventure Medical Kits 1-2 Person National Ski Patrol First Aid; Adventure Medical Kits 1-4 Person First Aid; Ag-asa Chew; Ag-asa EC; Aggrenox; Alka Seltzer; Alka Seltzer Evt; Alka Seltzer Flavoured; Alka Seltzer Original; Alka Seltzer Originial 1s Blister Pack; Alka Seltzer Plus 1s Blister Pack; Alka Seltzer Plus 2s Blister Pack; Alka Seltzer Plus Cold; Alka-Seltzer; Alka-Seltzer Extra Strength; Alka-Seltzer Hangover Relief; Alka-Seltzer Lemon Lime; Alka-Seltzer Original; Alka-Seltzer Original Flavor; Alka-Seltzer Plus; Alka-Seltzer Plus Cold Day and Night; Alka-Seltzer Plus Cold Formula (Cherry Burst); Alka-Seltzer Plus Cold Formula (Orange Zest); Alka-Seltzer Plus Cold Medicine Sparkling Original; Alka-Seltzer Plus Cold Night; Alka-Seltzer Plus Cold Orange Zest; Alka-Seltzer Plus Cold Sparkling Original; Alka-Seltzer Plus Cold Sparkling Original PowerFast Fizz; Alka-Seltzer Plus Cold and Cough; Alka-Seltzer Plus Cold and Cough Formula; Alka-Seltzer Plus Day Non Drowsy Cold Medicine Citrus; Alka-Seltzer Plus Day and Night Cold; Alka-Seltzer Plus Multi-Symptom Cold Day and Night; Alka-Seltzer Plus Multi-Symptom Cold Night; Alka-Seltzer Plus Multi-Symptom Cold and Cough; Alka-Seltzer Plus Night Cold Formula (Lemon); Alka-Seltzer Plus Night Cold Medicine; Alka-Seltzer Plus Severe Cold Night PowerFast Fizz; Alka-Seltzer Plus Severe Cold PowerFast Fizz; Alka-Seltzer Plus Severe Cold PowerFast Fizz Day and Night; Alka-Seltzer Plus Severe Cold PowerFast Fizz Non Drowsy; Alka-Seltzer Plus Severe Cold PowerFast Fizz Orange Zest; Alka-Seltzer Plus Severe Cold Powerfast Fizz Night; Alka-Seltzer Plus Severe Cold and Cough PowerFast Fizz; Alka-Seltzer Plus Severe Cold and Flu; Alka-Seltzer XTRA STRENGTH; Alka-seltzer Flavoured; Alka-seltzer Flavoured - Evt; Alka-seltzer Morning Relief; Alka-seltzer Original; Ana-dent; Anacin; Anacin AF; Anacin Caplets; Anacin ES; Anacin Extra Strength; Anacin Extra Strength Caplets; Anacin Extra Strength Tablet; Anacin Tablet; Anacin With Codeine Tab; Antidol Tablets; Apo Asa Tab 325mg; Apo-asa Ld; Aramark Aspirin; Aramark Pain Free; Aramark Pain-Free Extra Strength; Arco Pain Tab; Arthriten Inflammatory Pain Formula; Arthriten Max; Artrifin 24 Caplets; Asa; Asa 325 Mg Tablets Regular Strength; Asa 325mg; Asa 500 Mg Tablets Extra Strength; Asa 80; Asa 80 mg; Asa 80mg; Asa 81 mg; Asa 975 Tab; Asa Acetylsalicylic Acid; Asa Chewable Tablets; Asa Daily Low Dose; Asa EC; Asa EC 80; Asa Ect 325mg; Asa Ect 600mg; Asa Ect 650mg; Asa Extra Strength Caplet 500mg; Asa Extra Strength Tab 500mg; Asa Suppositories 150mg; Asa Suppositories 650mg; Asa Tab 325mg; Asa Tab 325mg Enteric Coated; Asa Tablets USP 325 mg; Asa and Caffeine; Asa, Caffeine & 8mg Codeine Phosphate; Asa-325 Comprimes Retard; Asa-650 Comprimes Retard; Asa-caffeine-codeine; Asadol 325mg; Asadol 650mg; Asaphen; Asaphen E.C. 80 mg; Asaphen EC; Asaphen Plus 325; Asasantine Cap; Asatab 80 Mg Chewable Tablets; Asatab EC 325mg; Asatab EC 650mg; Ascomp with Codeine; Ascriptin Maximum Strength Buffered Aspirin; Ascriptin Regular Strength Buffered Aspirin; Aspergum 325 Mg (cherry); Aspergum Orange 325 mg; Aspi-Cor; Aspica (Aspirin); Aspir Low; Aspir-81; Aspirin; Aspirin - Children's Size - Tablets; Aspirin - Children's Size 80mg; Aspirin 325; Aspirin 325 Mg EC; Aspirin 325 mg; Aspirin 325mg; Aspirin 5 grain; Aspirin 50 CT; Aspirin 81; Aspirin 81 MG; Aspirin 81 mg; Aspirin 81 mg Enteric Coated; Aspirin 81 mg Low Dose; Aspirin 81mg; Aspirin 81mg Adult Low Dose; Aspirin 81mg Enteric coated Delayed Release; Aspirin 81mg Enteric coated Low Strength Aspirin Regimen; Aspirin 81mg Quick Chews; Aspirin Adult Low Dose; Aspirin Adult Low Strength; Aspirin Adult Low Strength Aspirin; Aspirin Adult low dose; Aspirin Adult low strength; Aspirin Arthritis Pain Relief 650 mg; Aspirin Backache; Aspirin Chewable; Aspirin Chewable Low Dose; Aspirin Chewable Tablets; Aspirin Chewable Tablets - 325mg; Aspirin Chewable Tablets 325mg; Aspirin Chewable, Low Dose; Aspirin Coated Caplets 325 mg; Aspirin Coated Caplets 500mg; Aspirin Coated for Delayed Release Extra Strength; Aspirin Coated for Delayed Release Regular Strength; Aspirin Delayed Release; Aspirin E-C Low Dose Safety Coated; Aspirin EC; Aspirin Enteric; Aspirin Enteric Coated; Aspirin Enteric Coated Caplet 325mg; Aspirin Enteric Coated Low Dose; Aspirin Enteric Coated, Regular Strength; Aspirin Enteric Safety Coated; Aspirin Enteric Safety-Coated; Aspirin Express Pack; Aspirin Extra Strength; Aspirin Extra Strength 500mg Tab USP; Aspirin Extra Strength Plus; Aspirin Extra Strength With Stomach Guard; Aspirin Granules; Aspirin Low Dose; Aspirin Low Dose Chewable; Aspirin Low Dose Chewable Orange; Aspirin Low Dose Enteric Coated; Aspirin Low Dose Safety Coated; Aspirin Low Dose Sugar Free; Aspirin Low Strength Adult; Aspirin Low Strength, Enteric; Aspirin Migraine; Aspirin NSAID; Aspirin Night-time; Aspirin Pain Relief; Aspirin Pain reliver; Aspirin Plus Stomach Guard Ext.stgth.caplet; Aspirin Plus Stomach Guard Extra Strength; Aspirin Plus Stomach Guard Tab; Aspirin Rapid Relief; Aspirin Regimen; Aspirin Regular Strength; Aspirin Regular Strength Regular Strength; Aspirin Safety Coated; Aspirin Safety Coated Adult Low Dose; Aspirin Safety Coated Enteric, Regular Strength; Aspirin Safety coated; Aspirin Stomach Guard Extra Strength; Aspirin Stomach Guard Regular Strength; Aspirin Tab 325mg USP; Aspirin Tablets 325mg; Aspirin Thin coated; Aspirin With Stomach Guard; Aspirin With Stomach Guard Extra Strength - Tab; Aspirin adult low strength; Aspirin and Dipyridamole; Aspirin and Dipyridamole Extended Release; Aspirin and Extended - Release Dipyridamole Capsules, 25 mg / 200 mg; Aspirin and Extended-Release Dipyridamole; Aspirin and Extended-release Dipyridamole; Aspirin and Omeprazole Delayed-release Tab; Aspirin chewable low dose; Aspirin enteric coated low dose; Aspirin enteric safety coated; Aspirin regular strength; Aspirin to Go; Aspirin, Caffeine, and Dihydrocodeine Bitartrate; Aspirin-dipyridamole; AspirinLow Dose Low Dose; Asprin; Asprin and Extended-release Dipyridamole; Assured Aspirin; Astrin 5gr; Auto 157; Axisal-C1/8; BAYER 500 mg; BAYER Aspirin Extra Strength Caplets; BC Arthritis; BC Cherry; BLUE ACME SLEEVE FIRST AID Contains 1000 PIECES; Back and Body Extra Strength; BackAid Inflammatory Pain Formula; Basic Care Aspirin; Basic Care Headache Relief; Basic Care Migraine Relief; Bayer; Bayer AM extra stength; Bayer Advanced Aspirin Extra Strength; Bayer Advanced Aspirin Regular Strength; Bayer Aspirin; Bayer Aspirin Regimen Chewable Low Dose Aspirin Orange; Bayer Aspirin Regimen enteric coated; Bayer Back and Body Extra Strength; Bayer Chewable - Aspirin Regimen Low Dose Aspirin Cherry Flavored; Bayer Fast Release; Bayer Genuine Aspirin; Bayer Headache; Bayer Headache Relief; Bayer Low Dose; Bayer Migraine Formula; Bayer PM; Bayer Plus Extra Strength; Bayer Womens; Bc; Bc Cherry; Bc Max; Berkley and Jensen Aspirin; Berkley and Jensen Migraine Formula; Berkley and Jensen Migraine Relief; Best Choice Effervescent Antacid Pain Relief; Best Choice Effervescent Cold Relief; Best Choice Pain Relief Powder; Bi Electro Extra Strength; Bio-asa; BioElectro Day; BioElectro Extra Strength Daytime Pain Relief; Biovanta Double Action; Biovanta Trip Action Green Apple and Honey; Biovanta Trip Action Lemon and Honey; Biovanta Trip Action Tart Cherry and Honey; Blowfish; Bromo Seltzer; Bubbles R Better Effervescent Cold Relief; Buffered Aspirin; Buffered Aspirin Regular Strength; Bufferin; Bufferin Arthritis; Bufferin Extra -strength; Bufferin Low Dose Buffered Aspirin; Bufferin Regular Strength Pain Relief; Butalbital Compound; Butalbital, Aspirin and Caffeine; Butalbital, Aspirin, Caffeine and Codeine Phosphate; Butalbital, Aspirin, Caffeine, and Codeine Phosphate; Butalbital, Aspirin, and Caffeine; Butalbital, aspirin, and caffeine; C T Acetylsalicylic Acid Codeine and Caf Tab; C-2 Buffered With Codeine; C2 Buffered Tab; C2 Buffered With Codeine Tab; C2 Tab With Codeine; CAREALL Aspirin; CVS All Purpose First Aid Kit; CVS Health Antacid and Pain Reliever; CVS Health Extra Strength Antacid and Pain Reliever; CVS Health Medication and Topical Refill Pouch; Calmine Tab; Cardiospirina 81 mg Tabletas con cubierta enterica; Care One Aspirin; Care One Original Antacid and Pain Relief; Care One headache relief added strength; Care One migraine relief; Careone Aspirin; Caring Mill Aspirin; Caring Mill Migraine Relief; Carisoprodol and Aspirin; Carisoprodol, Aspirin and Codeine Phosphate; Chewable Adult Low Dose Aspirin; Chewable Aspirin; Chewable Aspirin Adult low dose; Chewable Aspirin Low Dose; Chewable Daily Low Dose Asa; Chewable Low Dose; Chewable Low Dose Aspirin; Childrens Aspirin; Childrens Low Dose Aspirin; Chronic Pain/Fever Relief; Circle K Aspirin 325; Circle K Headache Relief; Circle K Headache Relief Extra Strength; Citramon; Clopidogrel Kit; Clopidogrel/acetylsalicylic Acid Mylan; Clopidogrel/acetylsalicylic Acid Zentiva; Coachs First Aid Contains 102 Pieces; Coated Aspirin; Coated Aspirin - Ect 80mg; Coated Aspirin Low-dose; Coated Daily Low Dose Asa 81 mg; Coated Daily Low-dose Asa; ConRx pain Reliever; Conney Aspirin; Coraspirina 81 mg Tabletas con cubierta enterica; Coricidin D Tab; Coricidin Nd Tab; Coricidin Tab; Coryphen 325 Codeine 30 Tab; Coryphen 325 Tab; Coryphen 650 Codeine 30 Tab; Coryphen 650 Tab; Cove Migraine Relief; Crane Safety Aspirin; Crane Safety XS Pain Relief; Critical Care Aspirin to Go; DG Health Effervescent Antacid and Pain Relief; DG Health migraine relief; Darvon N Compound Pulvule 405; Dg Health Aspirin; Dg Health Headache Relief; Dg Health Headache Relief Added Strength; Dg Health Migraine Relief; Direct Safety Aspirin; Dolex Forte; Dollar General Effervescent Cold Relief; Dollar General Headache Powders; Dolodol; Dolomine 37; Dr Pausins Aspirin; Dr Pausins Low Dose Aspirin; Dr Pausins Low Dose Chewable Aspirin Cherry Flavor; Dr Pausins Low Dose Chewable Aspirin Orange Flavor; Dr. Juans Santo Remedio PARA LA ACIDEZ; Dr. Waynes Aspirin Low Dose; Dristan Capsules; Drug Mart Effervescent Pain Relief; Dry Socket Paste; Duoplavin; Durlaza; Dye-Free Aspirin 81; EC-81Aspirin Enteric Coated; ENTERIC COATED ASPIRIN Regular Strength; EXCEDRIN MIGRAINE acetaminophen, aspirin (nsaid) and caffeine; Easy Care First Aid Kit - Comprehensive; Ecotrin; Ecotrin Regular Strength; Effervescent Antacid and Pain Relief; Effervescent Cold Relief; Effervescent Cold Relief - Orange; Effervescent Orange Cold Relief; Effervescent Pain Relief; Effervescent Pain Relief Fast Relief; Effervescent Pain Relief Fast Relief Fast Relief; Endodan; Enteric Aspirin; Enteric Aspirin Regular Strength; Enteric Coated A.S.A.; Enteric Coated A.S.a; Enteric Coated A.S.a (caplet); Enteric Coated Asa 325 mg; Enteric Coated Asa 650 mg; Enteric Coated Asa Daily Low Dose; Enteric Coated Asa Tablets 325mg; Enteric Coated Asa Tablets 650mg; Enteric Coated Aspirin; Enteric Coated Aspirin Regular Strength; Enteric Coated Aspirin regular strength; Enteric Coated Asprin Low Dose; Enteric Coated Daily Low Dose Asa 81 mg; Enteric Coated Low Dose Aspirin; Enteric Safety Coated Aspirin; Enteric coated aspirin; Enteric coated aspirin Regular strength; Entrophen; Entrophen 325mg Caplets; Entrophen 325mg Tablets; Entrophen 650mg Caplet Ect; Entrophen 80mg; Entrophen Chewable; Entrophen Ect 500mg; Entrophen Ect 650mg; Entrophen Ect 975mg; Equagesic; Equagesic Tablets; Equaline Aspirin; Equaline Effervescent Antacid and Pain Relief; Equaline Effervescent Cold Relief; Equaline aspirin adult low dose; Equaline headache formula added strength; Equaline migraine formula; Equate Aspirin; Equate Aspirin Chewable; Equate Daily Low-dose; Equate Effervescent Antacid and Pain Relief; Equate Effervescent Cold Relief; Equate Extra Strength Effervescent Antacid and Pain Relief; Equate Migraine Relief; Euro Asa; Euro Asa 325mg Chewable Tablet; Euro-asa EC; Exact Coated Daily Low-dose Asa; Exaprin; Excedrin Back and Body; Excedrin Extra Strength; Excedrin Extra Strength Caplets; Excedrin Extra Strength Geltabs; Excedrin Extra Strength Pain Reliever; Excedrin Extra Strength and Excedrin Tension Headache; Excedrin Menstrual Complete; Excedrin Migraine; Excedrin Migraine Geltabs; Excedrin PM Triple Action Caplets; Excedrin PM Triple Action Caplets and Excedrin Extra Strength Pain Reliever; Excedrin PM Triple Action Caplets and Excedrin Tension Headache; Excinol Migraine (Acetaminophen); Extra Pain Relief; Extra Pain Reliever; Extra Strenght Headache Relief; Extra Strength Asa 500mg; Extra Strength Aspirin; Extra Strength Aspirin Backache; Extra Strength Back and Body; Extra Strength Headach Relief; Extra Strength Headache; Extra Strength Headache Relief; Extra Strength Headache, Circle K; Extra Strength Midol; Extra Strength Midol Relief; Extra Strength Muscle & Back Pain Asa 500 Mg Methocarbamol 400 Mg & Acetylsalicylic Acid 500 mg; Extra Strength Muscle & Back Pain Relief With Asa; Extra Strength Pain Aid; Extra Strength Pain Relief; Extra Strength Pain Reliever; Extraprin; FIRST AID Contains 1000 PIECES; FIRST AID Contains 101 PIECES; FIRST AID Contains 101 PIECES HARDCASE; FIRST AID Contains 202 PIECES; FIRST AID Contains 303 PIECES; FIRST AID Contains 303 PIECES HARDCASE; FIRST AID Contains 404 PIECES; Fairfield Health Products Extra Strength; Family Care Effervescent Antacid and Pain Relief; Family Wellness Aspirin; Family Wellness Effervescent Antacid and Pain Relief; Family Wellness Effervescent Cold Relief Orange; Family Wellness Effervescent Cold Relief Original; Family Wellness Migraine; Family Wellness Migraine Relief; Fasprin; Fiorinal; Fiorinal Tab; Fiorinal with Codeine; Fiorinal-C 1/2; Fiorinal-C 1/4; First Aid Direct Aspirin; First Aid Direct Chewable Aspirin; First Aid Only Aspirin; Flanax Aspirin Pain Reliever; Formu Care pain reliever added strength; FormuCare Aspirin; Freds Effervescent Antacid Pain Relief; GENUINE FIRST AID Emergency Preparedness Contains 167 PIECES HARDCASE; GENUINE FIRST AID Emergency Preparedness Contains 167 Pieces; GFA First Aid 75 Person Metal Case; GFA First Aid Kit Essentials - 33 Pieces; GOOD NEIGHBOR PHARMACY FIRST AID Contains 202 PIECES; GOODYS Extra Strength Headache Mixed Fruit Blast; GOODYS Hangover; GenCare Headache Relief; Genuine Aspirin; Genuine Bayer Aspirin; Genuine First Aid Industrial First Aid; Geritrex Aspirin; Good Neighbor Pharmacy Aspirin; Good Neighbor Pharmacy Aspirin Enteric Safety Coated; Good Neighbor Pharmacy Emergency Preparedness and First Aid Contains 167 Pieces; Good Neighbor Pharmacy Headache Relief; Good Neighbor Pharmacy Migraine Relief; Good Neighbor Pharmacy aspirin orange flavor chewable; Good Sense Aspirin; Good Sense Aspirin Enteric Safety Coated; Good Sense Effervescent Antacid and Pain Relief; Good Sense Effervescent Cold Relief; Good Sense Headache Relief; Good Sense Migraine Formula; Good Sense aspirin; Good Sense headache formula added strength; Goodys; Goodys Back and Body Pain; Goodys Cool Orange; Goodys Cool Orange Headache; Goodys Extra Strength; Goodys Migraine Relief; Goodys PM Pain Reliever; Green Guard Extra Strength Pain Relief; Green Guard Pain and Ache Relief; Green Guard Tri Buffered Aspirin relief; HEALTH SENSE Adult Chewable Low Strength Aspirin; HEB Extra Strength Effervescent Antacid and Pain Relief; Halfprin Low Dose; Halfprin Low Dose Aspirin; Handy Solutions GENUINE ASPIRIN BAYER; Handy Solutions Headache Pain Relief; Harris Teeter Migraine Relief; Headache Formula Added Strength; Headache Formula Extra Strength; Headache Pain Reliever; Headache Relief; Headache Relief Added Strength; Headache Relief Extra Strength; Headache Relief PM; Headache Relief to Go; Headache Tab 300mg; Headache relief Extra Strength; Headache, Circle K; Health Mart Adult Aspirin; Health Mart Aspirin; Health Mart Migraine Formula; Health Mart Migraine Relief; Health Mart Regular Strength Enteric Coated Aspirin; Health Sense Aspirin 81; Health Sense Ecpirin; Healthy Accents Aspirin; Healthy Accents headache relief added strength; Healthy Accents migraine formula; Henry Schein Aspirin; Herbopyrine Tab 325mg; HyVee Health Effervescent Antacid and Pain Relief; HyVee Health Effervescent Cold Relief; Hydrocodone Bitartrate and Aspirin; Instantine - Tablets; Instantine Tab; Jamp-asa 81mg EC; Jamp-asa Chew; Jamp-asa EC; K-Mart SmartSense First Aid Contains 101 Pieces; K-Mart SmartSense First Aid Contains 303 Pieces; Kirkland Signature Migraine Headache Relief; Kirkland Signature Migraine Relief; Kroger Effervescent Antacid and Pain Relief; Kroger Effervescent Cold Relief; Kroger Value Aspirin; Lab Safety Supply Aspirin; Lab Safety and Supply Tri Buffered Aspirin; Leader Aspirin; Leader Cardinal Health Aspirin; Leader Effervescent Antacid and Pain Relief; Leader Extra Strength Effervescent Antacid and Pain Reliever; Leader Headache Formula Added Strength; Leader Low Dose Aspirin; Leader Migraine Relief; Leader migraine formula; Lil Drug Store Aspirin 325; Lil Drug Store Headache Relief Extra Strength; Lo-asa 80mg Chewable - Tab; London Drugs Coated Daily Low-dose Asa; Low Dose Aspirin; Low Dose Aspirin 81 mg Safety Coated; Low Dose Aspirin Chewable; Low Dose Aspirin Enteric Safety Coated; Low Dose Aspirin Enteric Safety-Coated; Low Dose Aspirin Low Dose; Low Dose Chewable Aspirin; Low Dose Miniprin Enteric Safety Coated; Low Strength Chewable Aspirin; Low dose Aspirin; Lowprin; Lowprin 325; Lowprin 325 Chewable Tablet; Lowprin 80mg; M-asa 80 Mg Croquable; MEDI-FIRST Aspirin; MEDI-FIRST Tri Buffered Aspirin; MEDIQUE Aspirin; MEDIQUE Tri Buffered Aspirin; MICRO-COATED ASPIRIN 325 mg; MYGRIN Nighttime; Madelon; Market Basket Effervescent Antacid and Pain Relief; McKesson Aspirin; Medi First Pain Ache; Medi First Pain Relief; Medi First Plus Aspirin; Medi First Plus Pain Ache; Medi First Plus Pain Zapper; Medi First Plus Tri Buffered Aspirin; Medi-First Aspirin; Medi-First Plus Aspirin; Medique Medi Seltzer; Medique Pain Off; Medique Products Aspirin; Medpurine; Meijer Effervescent Antacid and Pain Relief; Meijer Effervescent Cold Relief; Methocarbamol and Aspirin; Methoxisal; Methoxisal Extra Strength; Methoxisal-C 1/2; Methoxisal-C 1/4; Methoxisal-C 1/8; Micro-Coated Aspirin; Midol Regular; Migraine Formula; Migraine Relief; Migralex Dr. Mauskop; Miniprin; Moore Medical Aspirin; MooreBrand Aspirin; Mountain Series Weekender Medical; Muscle & Back Pain Asa 325 Mg Methocarbamol 400 Mg & Acetylsalicylic Acid 325 mg; Muscle & Back Pain Relief Extra Strength; Muscle Relaxant and Analgesic; Muscle Relaxant and Back Pain Relief Extra Strength Tablets; Muscle Relaxant and Back Pain Relief Regular Strength Tablets; Muscle and Back Pain Relief; Muscle and Back Pain Relief Extra Strength; Muscle and Back Pain Relief With Asa; Muscle and Back Pain Relief With Asa Extra Strength; Neo Tigol Tab; Nervine; Nervine Tab; Neutra-seltzer; Nezger Tab; NobleAid PAIN RELIEVER; Norgesic; Norgesic Forte; Norgesic Forte Tab; Norgesic Tab; North Aspirin; Novasen; Novo Ac and C 8mg Tab; Novo-propoxyn Compound Cap; Nra-asa 80 Mg Croquable; Only For FIRST AID MEDICINE; Only for Headache; Orphenadrine Citrate Aspirin Caffeine; Orphenadrine Citrate, Aspirin and Caffeine; Orphengesic Forte; Oxycodone Hydrochloride and Aspirin; Oxycodone and Aspirin; PHL-asa; PHL-asa E.C.; PMS-asa; PMS-asa EC; PMS-pharnal Capsules; PMS-pharnal Tablets; PMS-pharnal-C 1/4 Capsules; PMS-pharnal-C1/2 Capsules; Pain Aid; Pain Aid ESF; Pain Away Plus; Pain Free; Pain Free Plus; Pain Relief Added Strength; Pain Relief Aspirin; Pain Relief Aspirin Chewable, Low Dose; Pain Relief Aspirin Low Dose; Pain Relief Extra Strength; Pain Relief Fast Relief; Pain Relief Maximum Strength; Pain Relief PM; Pain Reliever; Pain Reliever 2; Pain Reliever Added Strength; Pain Reliever Extra Strength; Pain Reliever Plus; Pain Stopper Extra; Pain Stoppers; Pain Stoppers EX; Pain Stoppers Extra; Pain Stoppers Regular; Pain Terminator; Pain Terminator 2 Severe; Painex Tab 0.25gr; Painex Tab 0.5gr; Pal-pravastatin-asa; Pamprin Max Menstrual Pain Relief; Percodan; Percodan-demi; Pharbest Aspirin 325mg; Pharbest Regular Strength Aspirin; Phenaphen No 2 Cap; Phenaphen No 3 Cap; Phenaphen No 4 Cap; Phenaphen No.2 Cap; Phenaphen No.3 Cap; Phenaphen No.4 Cap; Physicians Care Aspirin; Physicians Care Extra Strength Pain Reliever; PhysiciansCare Extra Stregth Pain Reliever; Picot Plus Effervescent; Plus Pharma NSAID 325 mg; Plus Pharma NSAID Aspirin; Pravigard Pac; Praxis Asa EC 81 Mg Daily Low Dose; Premier Value Antacid and Pain Relief Medicine; Pro-aas - 80 (croquable); Pro-aas EC - 80; Pronal - C1/2 Capsules; Pronal C1/4 Capsules; Pronal Capsules; Pronal Tablets; Protection; Publix Fast Relief Effervescent; Quality Choice Effervescent Antacid and Pain Relief; Quality Choice Effervescent Cold Relief - Orange; Quality Choice Effervescent Cold Relief Plus; Quality Choice Extra Strength Effervescent Antacid and Pain Relief; Quality Choice Pain Relief Powder; Rapid Comfort Aspirin; Rapidol Aspirin Display 2x25; Ready America First Aid Outdoor- 107 Pieces; Ready America First Aid Pocket - 33 Pieces; Reese Headache Powders; Regular Strength Aspirin; Regular Strength Aspirin EC; Regular Strength Enteric Coated Aspirin; Regular Strength Enteric coated aspirin; Regular Strength Pain Relief; Regular Strength Tri-Buffered Aspirin; Regular strength aspirin; Relief Asa Extra Strength; Rexall Aspirin; Rexall Coated Daily Low Dose Asa; Right Remedies Aspirin Low Dose 81 mg; Rite Aid Antacid and Pain Relief; Rivacodan; Rivasa 80 Mg EC; Rivasa 80mg Croquable - Tab; Rivasa 81 Mg EC; Rivasa Fc; Robaxisal C 1/2; Robaxisal C 1/4; Robaxisal C-1/8 Tablets; Robaxisal Caplets; Robaxisal Extra Strength; Robaxisal Tablets; Ru-21 Hangover Relief; Rugby Adult Aspirin; Rugby Aspirin; Rx Act Aspirin; Rx Act headache formula added strength; Safety Coated Aspirin; Safety Coated Aspirin 325 mg Regular Strength; Safety Coated Aspirin 81 mg Low Dose; Safety Coated Low Dose Aspirin; Sedal3x; Seedalmerk; ShopRite Aspirin; ShopRite Migraine Formula; Signature Care Aspirin; Signature Care Aspririn; Signature Care Effervescent Antacid and Pain Relief; Signature Care Migraine Relief; Smart Health Aspirin Regular Strength; Smart Sense Aspirin; Smart Sense Chewable Aspirin; Smart Sense Effervescent Antacid and Pain Relief; Smart Sense Effervescent Cold Relief; Smart Sense Migraine Formula; Smart Sense migraine relief; Sns-asa EC; SohMed Pain Reliever; Solves - aspirin Cherry; Soma; Sound Body Migraine Relief; Spasmhalt-asa-8; Splizz Pain Reliever - Grapefruit-flavored; Splizz Pain Reliever - Orange-flavored; St. Joseph Chewable Aspirin; St. Joseph Chewable Low Dose Aspirin; St. Joseph Low Dose Aspirin; St. Joseph Safety Coated Aspirin; Stanback; Sunmark Adult Aspirin; Sunmark Aspirin; Sunmark Aspirin Adult Low Strength; Sunmark Aspirin Regular Strength; Sunmark Headache Relief; Sunmark Migraine Relief; Sunmark aspirin adult low strength; Sunmark aspirin low dose; Sunmark migraine relief; Super Extra Strength Aspirin Backache; Synalgos; Tabcin 500; Taro-dipyridamole/ Asa; Teva-oxycodan; Teva-tecnal; Teva-tecnal C 1/2; Teva-tecnal C 1/4; Thompson XS Pain Ache; Thrulife Extra Strength Headache Relief; Top Value Effervescent Cold Relief; Top Value Effervescent Cold Relief - Orange; Top Value Effervescent Pain Relief; TopCare Aspirin; TopCare Effervescent Antacid and Pain Relief; Topcare Aspirin; Topcare Headache Formula; Topcare Headache Relief; Topcare Migraine Formula; Topcare Migraine Relief; Travel Savvy Aspirin; Tri-Buffered Aspirin; Tri-Buffered Aspirin Regular Strength; Tri-buffered Asa Tab; Trianal Capsules; Trianal C¼; Trianal C½; Trianal Tablet; Tylo Migraine (Acetaminophen); ULINE Aspirin; Uline Aspirin; Uncoated Aspirin; Unishield Aspirin; Unishield Pain Ache; Unishield Pain Zapper; Up and Up Antacid and Pain Relief; Up and Up Aspirin; Up and Up Chewable Aspirin; Up and Up Migraine Relief; Up and Up aspirin; Uricalm Intensive; Value Pharma Aspirin Pain Reliever; Value PharmaPain Reliever Extra Strength; Valumeds Aspirin; Vanquish; Vanquish Digital Headache; Vazalore; Vida Mia Pain Relief; Viva Asa 325 mg; Walgreens Antacid Pain Relief Extra Strength; Walgreens Effervescent Cold Relief Plus; Walgreens Effervescent Pain Relief; Walgreens Pain Relief Powder; WinCo Foods Effervescent Antacid and Pain Relief; WinCo Foods Effervescent Cold Relief; Xpect Pain Away; Yosprala; Zee Aspirin; Zee Pain Aid; Zee-Seltzer Antacid and Pain Reliever; aspirin Regular strength; dihydrocodeine bitartrate and aspirin and caffeine DC; enteric coated aspirin Regular Strength; pain relief aspirin Low Dose; pain relief back and body EXTRA STRENGTH

> <INTERNATIONAL_BRANDS>
Acenterine; Acetophen; Adiro; Aspergum; Aspro; Easprin; Empirin; Nu-seals; Rhodine; Rhonal; Solprin; Solprin acid; St. Joseph Aspirin for Adults; Tasprin

> <SALTS>
Lysine acetylsalicylate

$$$$
