
  Mrv1652306231722412D          

 58 60  0  0  1  0            999 V2000
    2.1434   -5.3625    0.0000 C   0  0  0  0  0  0  0  0  0  0  0  0
    2.8579   -4.9500    0.0000 C   0  0  0  0  0  0  0  0  0  0  0  0
    3.5724   -5.3625    0.0000 C   0  0  0  0  0  0  0  0  0  0  0  0
    4.2868   -4.9500    0.0000 C   0  0  0  0  0  0  0  0  0  0  0  0
    4.2868   -4.1250    0.0000 O   0  0  0  0  0  0  0  0  0  0  0  0
    5.0013   -5.3625    0.0000 O   0  0  0  0  0  0  0  0  0  0  0  0
    5.0013   -6.1875    0.0000 C   0  0  1  0  0  0  0  0  0  0  0  0
    4.2868   -6.6000    0.0000 C   0  0  1  0  0  0  0  0  0  0  0  0
    4.2868   -7.4250    0.0000 O   0  0  0  0  0  0  0  0  0  0  0  0
    5.0013   -7.8375    0.0000 C   0  0  2  0  0  0  0  0  0  0  0  0
    5.7158   -7.4250    0.0000 C   0  0  0  0  0  0  0  0  0  0  0  0
    5.7158   -6.6000    0.0000 C   0  0  2  0  0  0  0  0  0  0  0  0
    6.5403   -6.5712    0.0000 C   0  0  0  0  0  0  0  0  0  0  0  0
    6.1530   -5.9004    0.0000 O   0  0  0  0  0  0  0  0  0  0  0  0
    6.9774   -5.9292    0.0000 C   0  0  0  0  0  0  0  0  0  0  0  0
    7.3648   -6.6576    0.0000 O   0  0  0  0  0  0  0  0  0  0  0  0
    7.4146   -5.2295    0.0000 C   0  0  0  0  0  0  0  0  0  0  0  0
    7.0273   -4.5011    0.0000 C   0  0  0  0  0  0  0  0  0  0  0  0
    5.0013   -8.6625    0.0000 O   0  0  0  0  0  0  0  0  0  0  0  0
    4.2868   -9.0750    0.0000 C   0  0  2  0  0  0  0  0  0  0  0  0
    3.5724   -8.6625    0.0000 C   0  0  2  0  0  0  0  0  0  0  0  0
    2.8579   -9.0750    0.0000 O   0  0  0  0  0  0  0  0  0  0  0  0
    2.8579   -9.9000    0.0000 C   0  0  2  0  0  0  0  0  0  0  0  0
    3.5724  -10.3125    0.0000 C   0  0  1  0  0  0  0  0  0  0  0  0
    4.2868   -9.9000    0.0000 C   0  0  1  0  0  0  0  0  0  0  0  0
    5.0013  -10.3125    0.0000 N   0  0  0  0  0  0  0  0  0  0  0  0
    5.7158   -9.9000    0.0000 C   0  0  0  0  0  0  0  0  0  0  0  0
    5.0013  -11.1375    0.0000 C   0  0  0  0  0  0  0  0  0  0  0  0
    3.5724  -11.1375    0.0000 O   0  0  0  0  0  0  0  0  0  0  0  0
    2.1434  -10.3125    0.0000 O   0  0  0  0  0  0  0  0  0  0  0  0
    1.4289   -9.9000    0.0000 C   0  0  1  0  0  0  0  0  0  0  0  0
    0.7145  -10.3125    0.0000 C   0  0  2  0  0  0  0  0  0  0  0  0
    0.7145  -11.1375    0.0000 C   0  0  0  0  0  0  0  0  0  0  0  0
   -0.0000  -11.5500    0.0000 C   0  0  2  0  0  0  0  0  0  0  0  0
   -0.7145  -11.1375    0.0000 C   0  0  2  0  0  0  0  0  0  0  0  0
   -0.7145  -10.3125    0.0000 C   0  0  0  0  0  0  0  0  0  0  0  0
   -1.4289   -9.9000    0.0000 C   0  0  0  0  0  0  0  0  0  0  0  0
   -1.4289   -9.0750    0.0000 C   0  0  0  0  0  0  0  0  0  0  0  0
   -2.1434   -8.6625    0.0000 C   0  0  0  0  0  0  0  0  0  0  0  0
   -2.1434   -7.8375    0.0000 C   0  0  0  0  0  0  0  0  0  0  0  0
   -1.4289   -7.4250    0.0000 C   0  0  2  0  0  0  0  0  0  0  0  0
   -0.7145   -7.8375    0.0000 O   0  0  0  0  0  0  0  0  0  0  0  0
   -0.0000   -7.4250    0.0000 C   0  0  0  0  0  0  0  0  0  0  0  0
   -0.0000   -6.6000    0.0000 O   0  0  0  0  0  0  0  0  0  0  0  0
    0.7145   -7.8375    0.0000 C   0  0  0  0  0  0  0  0  0  0  0  0
    0.7145   -8.6625    0.0000 C   0  0  2  0  0  0  0  0  0  0  0  0
    1.4289   -9.0750    0.0000 C   0  0  2  0  0  0  0  0  0  0  0  0
    2.1434   -8.6625    0.0000 O   0  0  0  0  0  0  0  0  0  0  0  0
    2.1434   -7.8375    0.0000 C   0  0  0  0  0  0  0  0  0  0  0  0
   -0.0000   -9.0750    0.0000 O   0  0  0  0  0  0  0  0  0  0  0  0
   -1.4289   -6.6000    0.0000 C   0  0  0  0  0  0  0  0  0  0  0  0
   -1.4289  -11.5500    0.0000 O   0  0  0  0  0  0  0  0  0  0  0  0
   -0.0000  -12.3750    0.0000 C   0  0  0  0  0  0  0  0  0  0  0  0
    1.4289  -10.7250    0.0000 C   0  0  0  0  0  0  0  0  0  0  0  0
    1.4289  -11.5500    0.0000 C   0  0  0  0  0  0  0  0  0  0  0  0
    0.7145  -11.9625    0.0000 O   0  0  0  0  0  0  0  0  0  0  0  0
    3.5724   -7.8375    0.0000 C   0  0  0  0  0  0  0  0  0  0  0  0
    3.5724   -6.1875    0.0000 C   0  0  0  0  0  0  0  0  0  0  0  0
  1  2  1  0  0  0  0
  2  3  1  0  0  0  0
  3  4  1  0  0  0  0
  4  5  2  0  0  0  0
  4  6  1  0  0  0  0
  7  6  1  6  0  0  0
  7  8  1  0  0  0  0
  8  9  1  0  0  0  0
  9 10  1  0  0  0  0
 10 11  1  0  0  0  0
 11 12  1  0  0  0  0
  7 12  1  0  0  0  0
 12 13  1  1  0  0  0
 12 14  1  6  0  0  0
 14 15  1  0  0  0  0
 15 16  2  0  0  0  0
 15 17  1  0  0  0  0
 17 18  1  0  0  0  0
 10 19  1  6  0  0  0
 20 19  1  1  0  0  0
 20 21  1  0  0  0  0
 21 22  1  0  0  0  0
 22 23  1  0  0  0  0
 23 24  1  0  0  0  0
 24 25  1  0  0  0  0
 20 25  1  0  0  0  0
 25 26  1  6  0  0  0
 26 27  1  0  0  0  0
 26 28  1  0  0  0  0
 24 29  1  1  0  0  0
 23 30  1  6  0  0  0
 31 30  1  1  0  0  0
 31 32  1  0  0  0  0
 32 33  1  0  0  0  0
 33 34  1  0  0  0  0
 34 35  1  0  0  0  0
 35 36  1  0  0  0  0
 36 37  2  0  0  0  0
 37 38  1  0  0  0  0
 38 39  2  0  0  0  0
 39 40  1  0  0  0  0
 40 41  1  0  0  0  0
 41 42  1  0  0  0  0
 42 43  1  0  0  0  0
 43 44  2  0  0  0  0
 43 45  1  0  0  0  0
 45 46  1  0  0  0  0
 46 47  1  0  0  0  0
 31 47  1  0  0  0  0
 47 48  1  6  0  0  0
 48 49  1  0  0  0  0
 46 50  1  6  0  0  0
 41 51  1  1  0  0  0
 35 52  1  1  0  0  0
 34 53  1  1  0  0  0
 32 54  1  6  0  0  0
 54 55  1  0  0  0  0
 55 56  2  0  0  0  0
 21 57  1  6  0  0  0
  8 58  1  1  0  0  0
M  END
> <DATABASE_ID>
DB13409

> <DATABASE_NAME>
drugbank

> <SMILES>
CCCC(=O)O[C@H]1[C@H](C)O[C@H](C[C@@]1(C)OC(=O)CC)O[C@@H]1[C@@H](C)O[C@@H](O[C@H]2[C@@H](CC=O)C[C@@H](C)[C@@H](O)\C=C\C=C\C[C@@H](C)OC(=O)C[C@@H](O)[C@@H]2OC)[C@H](O)[C@H]1N(C)C

> <INCHI_IDENTIFIER>
InChI=1S/C42H69NO15/c1-11-16-32(48)55-40-27(6)53-34(23-42(40,7)58-31(47)12-2)56-37-26(5)54-41(36(50)35(37)43(8)9)57-38-28(19-20-44)21-24(3)29(45)18-15-13-14-17-25(4)52-33(49)22-30(46)39(38)51-10/h13-15,18,20,24-30,34-41,45-46,50H,11-12,16-17,19,21-23H2,1-10H3/b14-13+,18-15+/t24-,25-,26-,27+,28+,29+,30-,34+,35-,36-,37-,38+,39+,40+,41+,42-/m1/s1

> <INCHI_KEY>
VYWWNRMSAPEJLS-MDWYKHENSA-N

> <FORMULA>
C42H69NO15

> <MOLECULAR_WEIGHT>
828.006

> <EXACT_MASS>
827.466720526

> <JCHEM_ACCEPTOR_COUNT>
13

> <JCHEM_ATOM_COUNT>
127

> <JCHEM_AVERAGE_POLARIZABILITY>
89.05804705665663

> <JCHEM_BIOAVAILABILITY>
0

> <JCHEM_DONOR_COUNT>
3

> <JCHEM_FORMAL_CHARGE>
0

> <JCHEM_GHOSE_FILTER>
0

> <JCHEM_IUPAC>
(2S,3S,4R,6S)-6-{[(2R,3S,4R,5R,6S)-6-{[(4R,5S,6S,7R,9R,10R,11E,13E,16R)-4,10-dihydroxy-5-methoxy-9,16-dimethyl-2-oxo-7-(2-oxoethyl)-1-oxacyclohexadeca-11,13-dien-6-yl]oxy}-4-(dimethylamino)-5-hydroxy-2-methyloxan-3-yl]oxy}-2,4-dimethyl-4-(propanoyloxy)oxan-3-yl butanoate

> <ALOGPS_LOGP>
3.40

> <JCHEM_LOGP>
3.629892875333335

> <ALOGPS_LOGS>
-4.13

> <JCHEM_MDDR_LIKE_RULE>
1

> <JCHEM_NUMBER_OF_RINGS>
3

> <JCHEM_PHYSIOLOGICAL_CHARGE>
1

> <JCHEM_PKA>
13.881023914757389

> <JCHEM_PKA_STRONGEST_ACIDIC>
12.714725579593107

> <JCHEM_PKA_STRONGEST_BASIC>
7.895228237530391

> <JCHEM_POLAR_SURFACE_AREA>
206.04999999999998

> <JCHEM_REFRACTIVITY>
211.11180000000007

> <JCHEM_ROTATABLE_BOND_COUNT>
15

> <JCHEM_RULE_OF_FIVE>
0

> <ALOGPS_SOLUBILITY>
6.10e-02 g/l

> <JCHEM_TRADITIONAL_IUPAC>
rokitamycin

> <JCHEM_VEBER_RULE>
0

> <DRUGBANK_ID>
DB13409

> <DRUG_GROUPS>
experimental

> <GENERIC_NAME>
Rokitamycin

> <SYNONYMS>
Rokitamycin

$$$$
