
  Mrv1909 01072022312D          

 43 46  0  0  0  0            999 V2000
   -4.6501   -2.0559    0.0000 C   0  0  0  0  0  0  0  0  0  0  0  0
   -1.0818   -3.3038    0.0000 C   0  0  0  0  0  0  0  0  0  0  0  0
    4.6501    2.4705    0.0000 C   0  0  0  0  0  0  0  0  0  0  0  0
    1.7951    3.3038    0.0000 C   0  0  0  0  0  0  0  0  0  0  0  0
   -3.9346   -2.4663    0.0000 C   0  0  0  0  0  0  0  0  0  0  0  0
   -4.6501   -1.2268    0.0000 C   0  0  0  0  0  0  0  0  0  0  0  0
   -0.3663   -3.7143    0.0000 C   0  0  0  0  0  0  0  0  0  0  0  0
   -1.0818   -2.4747    0.0000 C   0  0  0  0  0  0  0  0  0  0  0  0
    3.9346    2.8810    0.0000 C   0  0  0  0  0  0  0  0  0  0  0  0
    4.6501    1.6414    0.0000 C   0  0  0  0  0  0  0  0  0  0  0  0
    1.0795    3.7143    0.0000 C   0  0  0  0  0  0  0  0  0  0  0  0
    1.7951    2.4747    0.0000 C   0  0  0  0  0  0  0  0  0  0  0  0
   -3.2189   -2.0559    0.0000 C   0  0  0  0  0  0  0  0  0  0  0  0
   -3.9346   -0.8079    0.0000 C   0  0  0  0  0  0  0  0  0  0  0  0
    0.3493   -3.3038    0.0000 C   0  0  0  0  0  0  0  0  0  0  0  0
   -0.3663   -2.0558    0.0000 C   0  0  0  0  0  0  0  0  0  0  0  0
    3.2189    2.4705    0.0000 C   0  0  0  0  0  0  0  0  0  0  0  0
    3.9346    1.2225    0.0000 C   0  0  0  0  0  0  0  0  0  0  0  0
    0.3639    3.3038    0.0000 C   0  0  0  0  0  0  0  0  0  0  0  0
    1.0795    2.0558    0.0000 C   0  0  0  0  0  0  0  0  0  0  0  0
   -2.5033   -0.8164    0.0000 C   0  0  0  0  0  0  0  0  0  0  0  0
   -1.7903   -1.2310    0.0000 C   0  0  0  0  0  0  0  0  0  0  0  0
   -1.0721    0.0042    0.0000 C   0  0  0  0  0  0  0  0  0  0  0  0
   -0.3565    0.4146    0.0000 C   0  0  0  0  0  0  0  0  0  0  0  0
    1.0649   -2.0642    0.0000 C   0  0  0  0  0  0  0  0  0  0  0  0
    2.5033    1.2310    0.0000 C   0  0  0  0  0  0  0  0  0  0  0  0
   -3.2189   -1.2268    0.0000 C   0  0  0  0  0  0  0  0  0  0  0  0
    0.3493   -2.4747    0.0000 C   0  0  0  0  0  0  0  0  0  0  0  0
    3.2189    1.6414    0.0000 C   0  0  0  0  0  0  0  0  0  0  0  0
   -1.0746   -0.8206    0.0000 C   0  0  1  0  0  0  0  0  0  0  0  0
    0.3639    2.4747    0.0000 C   0  0  0  0  0  0  0  0  0  0  0  0
    1.0672   -1.2394    0.0000 C   0  0  1  0  0  0  0  0  0  0  0  0
    0.3542   -0.8248    0.0000 C   0  0  0  0  0  0  0  0  0  0  0  0
    1.7854   -0.0042    0.0000 C   0  0  0  0  0  0  0  0  0  0  0  0
   -0.3614   -1.2352    0.0000 N   0  0  0  0  0  0  0  0  0  0  0  0
    1.7829   -0.8290    0.0000 N   0  0  0  0  0  0  0  0  0  0  0  0
    0.3565    0.0000    0.0000 O   0  0  0  0  0  0  0  0  0  0  0  0
    1.0721    0.4104    0.0000 O   0  0  0  0  0  0  0  0  0  0  0  0
   -1.1790    1.2418    0.0000 O   0  0  0  0  0  0  0  0  0  0  0  0
    0.4707    1.2370    0.0000 O   0  0  0  0  0  0  0  0  0  0  0  0
    2.5009    0.4061    0.0000 O   0  0  0  0  0  0  0  0  0  0  0  0
   -0.3517    2.0643    0.0000 O   0  0  0  0  0  0  0  0  0  0  0  0
   -0.3542    1.2395    0.0000 S   0  0  0  0  0  0  0  0  0  0  0  0
  1  5  2  0  0  0  0
  1  6  1  0  0  0  0
  2  7  2  0  0  0  0
  2  8  1  0  0  0  0
  3  9  2  0  0  0  0
  3 10  1  0  0  0  0
  4 11  2  0  0  0  0
  4 12  1  0  0  0  0
  5 13  1  0  0  0  0
  6 14  2  0  0  0  0
  7 15  1  0  0  0  0
  8 16  2  0  0  0  0
  9 17  1  0  0  0  0
 10 18  2  0  0  0  0
 11 19  1  0  0  0  0
 12 20  2  0  0  0  0
 13 27  2  0  0  0  0
 14 27  1  0  0  0  0
 15 28  2  0  0  0  0
 16 28  1  0  0  0  0
 17 29  2  0  0  0  0
 18 29  1  0  0  0  0
 19 31  2  0  0  0  0
 20 31  1  0  0  0  0
 21 22  1  0  0  0  0
 21 27  1  0  0  0  0
 30 22  1  1  0  0  0
 23 24  1  0  0  0  0
 23 30  1  0  0  0  0
 24 43  1  0  0  0  0
 25 28  1  0  0  0  0
 32 25  1  1  0  0  0
 26 29  1  0  0  0  0
 26 41  1  0  0  0  0
 30 35  1  0  0  0  0
 31 42  1  0  0  0  0
 32 33  1  0  0  0  0
 32 36  1  0  0  0  0
 33 35  1  0  0  0  0
 33 37  2  0  0  0  0
 34 36  1  0  0  0  0
 34 38  2  0  0  0  0
 34 41  1  0  0  0  0
 39 43  2  0  0  0  0
 40 43  2  0  0  0  0
 42 43  1  0  0  0  0
M  END
> <DATABASE_ID>
DB04502

> <DATABASE_NAME>
drugbank

> <SMILES>
O=C(N[C@@H](CC1=CC=CC=C1)C(=O)N[C@@H](CCC1=CC=CC=C1)CCS(=O)(=O)OC1=CC=CC=C1)OCC1=CC=CC=C1

> <INCHI_IDENTIFIER>
InChI=1S/C34H36N2O6S/c37-33(32(25-28-15-7-2-8-16-28)36-34(38)41-26-29-17-9-3-10-18-29)35-30(22-21-27-13-5-1-6-14-27)23-24-43(39,40)42-31-19-11-4-12-20-31/h1-20,30,32H,21-26H2,(H,35,37)(H,36,38)/t30-,32-/m0/s1

> <INCHI_KEY>
SUGQHICXCRBQOI-CDZUIXILSA-N

> <FORMULA>
C34H36N2O6S

> <MOLECULAR_WEIGHT>
600.724

> <EXACT_MASS>
600.229407584

> <JCHEM_ACCEPTOR_COUNT>
4

> <JCHEM_ATOM_COUNT>
79

> <JCHEM_AVERAGE_NEUTRAL_MICROSPECIES_CHARGE>
-6.997867154986181e-07

> <JCHEM_AVERAGE_POLARIZABILITY>
64.59555926885602

> <JCHEM_BIOAVAILABILITY>
0

> <JCHEM_DONOR_COUNT>
2

> <JCHEM_FORMAL_CHARGE>
0

> <JCHEM_GHOSE_FILTER>
0

> <JCHEM_IUPAC>
benzyl N-[(1S)-1-{[(3S)-1-(phenoxysulfonyl)-5-phenylpentan-3-yl]carbamoyl}-2-phenylethyl]carbamate

> <ALOGPS_LOGP>
4.54

> <JCHEM_LOGP>
6.290599034333332

> <ALOGPS_LOGS>
-7.02

> <JCHEM_MDDR_LIKE_RULE>
1

> <JCHEM_NEUTRAL_CHARGE>
0

> <JCHEM_NUMBER_OF_RINGS>
4

> <JCHEM_PHYSIOLOGICAL_CHARGE>
0

> <JCHEM_PKA>
15.009835720980417

> <JCHEM_PKA_STRONGEST_ACIDIC>
13.161127317834545

> <JCHEM_PKA_STRONGEST_BASIC>
-3.579047696713462

> <JCHEM_POLAR_SURFACE_AREA>
110.80000000000001

> <JCHEM_REFRACTIVITY>
164.96560000000005

> <JCHEM_ROTATABLE_BOND_COUNT>
16

> <JCHEM_RULE_OF_FIVE>
0

> <ALOGPS_SOLUBILITY>
5.70e-05 g/l

> <JCHEM_TRADITIONAL_IUPAC>
(E)-N''-(4-chlorophenyl)-N-hydroxyguanidine

> <JCHEM_VEBER_RULE>
0

> <DRUGBANK_ID>
DB04502

> <SECONDARY_ACCESSION_NUMBERS>
EXPT03235

> <DRUG_GROUPS>
experimental

> <GENERIC_NAME>
WRR-204

> <SYNONYMS>
Phenyl (3S)-3-({N-[(benzyloxy)carbonyl]-L-phenylalanyl}amino)-5-phenyl-1-pentanesulfonate

$$$$
