
  Mrv1909 07282219062D          

  9  9  0  0  0  0            999 V2000
    0.0000   -0.2062    0.0000 C   0  0  0  0  0  0  0  0  0  0  0  0
   -0.7144    0.2062    0.0000 C   0  0  0  0  0  0  0  0  0  0  0  0
    0.7144    0.2062    0.0000 C   0  0  0  0  0  0  0  0  0  0  0  0
    0.0000   -1.0312    0.0000 C   0  0  0  0  0  0  0  0  0  0  0  0
   -0.7144    1.0312    0.0000 C   0  0  0  0  0  0  0  0  0  0  0  0
    0.7144    1.0312    0.0000 C   0  0  0  0  0  0  0  0  0  0  0  0
    0.7144   -1.4437    0.0000 O   0  0  0  0  0  0  0  0  0  0  0  0
   -0.7144   -1.4437    0.0000 O   0  0  0  0  0  0  0  0  0  0  0  0
    0.0000    1.4437    0.0000 N   0  0  0  0  0  0  0  0  0  0  0  0
  1  2  1  0  0  0  0
  1  3  2  0  0  0  0
  1  4  1  0  0  0  0
  2  5  2  0  0  0  0
  3  6  1  0  0  0  0
  4  7  1  0  0  0  0
  4  8  2  0  0  0  0
  5  9  1  0  0  0  0
  6  9  2  0  0  0  0
M  END
> <DATABASE_ID>
DB16884

> <DATABASE_NAME>
drugbank

> <SMILES>
OC(=O)C1=CC=NC=C1

> <INCHI_IDENTIFIER>
InChI=1S/C6H5NO2/c8-6(9)5-1-3-7-4-2-5/h1-4H,(H,8,9)

> <INCHI_KEY>
TWBYWOBDOCUKOW-UHFFFAOYSA-N

> <FORMULA>
C6H5NO2

> <MOLECULAR_WEIGHT>
123.111

> <EXACT_MASS>
123.032028405

> <JCHEM_ACCEPTOR_COUNT>
3

> <JCHEM_ATOM_COUNT>
14

> <JCHEM_AVERAGE_NEUTRAL_MICROSPECIES_CHARGE>
-0.9346274030900512

> <JCHEM_AVERAGE_POLARIZABILITY>
11.286762629868129

> <JCHEM_BIOAVAILABILITY>
1

> <JCHEM_DONOR_COUNT>
1

> <JCHEM_FORMAL_CHARGE>
0

> <JCHEM_GHOSE_FILTER>
0

> <JCHEM_IUPAC>
pyridine-4-carboxylic acid

> <ALOGPS_LOGP>
0.28

> <JCHEM_LOGP>
0.15446222091268916

> <ALOGPS_LOGS>
-0.26

> <JCHEM_MDDR_LIKE_RULE>
0

> <JCHEM_NEUTRAL_CHARGE>
-1

> <JCHEM_NUMBER_OF_RINGS>
1

> <JCHEM_PHYSIOLOGICAL_CHARGE>
-1

> <JCHEM_PKA_STRONGEST_ACIDIC>
3.732221977879659

> <JCHEM_PKA_STRONGEST_BASIC>
2.3463604455988625

> <JCHEM_POLAR_SURFACE_AREA>
50.19

> <JCHEM_REFRACTIVITY>
31.157299999999996

> <JCHEM_ROTATABLE_BOND_COUNT>
1

> <JCHEM_RULE_OF_FIVE>
1

> <ALOGPS_SOLUBILITY>
6.81e+01 g/l

> <JCHEM_TRADITIONAL_IUPAC>
6-{difluoro[6-(pyridin-4-yl)-[1,2,4]triazolo[4,3-b]pyridazin-3-yl]methyl}quinoline

> <JCHEM_VEBER_RULE>
0

> <DRUGBANK_ID>
DB16884

> <DRUG_GROUPS>
investigational

> <GENERIC_NAME>
Isonicotinic acid

> <SYNONYMS>
4-Pyridinecarboxylic acid

$$$$
