
  Mrv1909 11262020502D          

 30 36  0  0  0  0            999 V2000
   -0.1837    0.6327    0.0000 C   0  0  1  0  0  0  0  0  0  0  0  0
    0.1975   -0.0711    0.0000 C   0  0  2  0  0  0  0  0  0  0  0  0
    0.2287    1.3393    0.0000 C   0  0  1  0  0  0  0  0  0  0  0  0
   -1.1069    0.4112    0.0000 C   0  0  0  0  0  0  0  0  0  0  0  0
   -0.9982    0.8228    0.0000 C   0  0  0  0  0  0  0  0  0  0  0  0
    1.0228   -0.0861    0.0000 C   0  0  1  0  0  0  0  0  0  0  0  0
   -0.2057   -0.7747    0.0000 N   0  0  0  0  0  0  0  0  0  0  0  0
    0.0193    2.0783    0.0000 N   0  0  0  0  0  0  0  0  0  0  0  0
    1.0530    1.3415    0.0000 C   0  0  0  0  0  0  0  0  0  0  0  0
   -1.1069   -0.5184    0.0000 C   0  0  0  0  0  0  0  0  0  0  0  0
   -1.9004    0.8901    0.0000 C   0  0  0  0  0  0  0  0  0  0  0  0
   -1.0561    1.7658    0.0000 C   0  0  0  0  0  0  0  0  0  0  0  0
    1.4462    0.6200    0.0000 C   0  0  1  0  0  0  0  0  0  0  0  0
    1.4332   -0.7956    0.0000 C   0  0  2  0  0  0  0  0  0  0  0  0
    0.1864   -1.4904    0.0000 C   0  0  0  0  0  0  0  0  0  0  0  0
    1.5341    2.1972    0.0000 C   0  0  0  0  0  0  0  0  0  0  0  0
   -1.9316   -0.9714    0.0000 C   0  0  0  0  0  0  0  0  0  0  0  0
   -2.7232    0.4339    0.0000 C   0  0  0  0  0  0  0  0  0  0  0  0
    2.1757    0.7382    0.0000 C   0  0  0  0  0  0  0  0  0  0  0  0
    1.0045   -1.5005    0.0000 C   0  0  0  0  0  0  0  0  0  0  0  0
    2.1538   -0.9339    0.0000 O   0  0  0  0  0  0  0  0  0  0  0  0
   -0.2346   -2.1972    0.0000 O   0  0  0  0  0  0  0  0  0  0  0  0
   -2.7272   -0.5002    0.0000 C   0  0  0  0  0  0  0  0  0  0  0  0
    2.7272    0.2696    0.0000 C   0  0  0  0  0  0  0  0  0  0  0  0
    2.7210   -0.4661    0.0000 C   0  0  0  0  0  0  0  0  0  0  0  0
    0.6210    0.6739    0.0000 H   0  0  0  0  0  0  0  0  0  0  0  0
    0.6853   -0.7639    0.0000 H   0  0  0  0  0  0  0  0  0  0  0  0
    1.8660   -0.1256    0.0000 H   0  0  0  0  0  0  0  0  0  0  0  0
    1.6467   -1.5924    0.0000 H   0  0  0  0  0  0  0  0  0  0  0  0
   -0.6272   -0.0711    0.0000 H   0  0  0  0  0  0  0  0  0  0  0  0
  1  2  1  0  0  0  0
  1  3  1  0  0  0  0
  1  4  1  0  0  0  0
  1  5  1  1  0  0  0
  2  6  1  0  0  0  0
  2  7  1  0  0  0  0
  3  8  1  0  0  0  0
  3  9  1  0  0  0  0
  4 10  1  0  0  0  0
  4 11  2  0  0  0  0
  5 12  1  0  0  0  0
  6 13  1  0  0  0  0
  6 14  1  0  0  0  0
  7 15  1  0  0  0  0
  8 16  1  0  0  0  0
 10 17  2  0  0  0  0
 11 18  1  0  0  0  0
 13 19  1  0  0  0  0
 14 20  1  0  0  0  0
 14 21  1  0  0  0  0
 15 22  2  0  0  0  0
 17 23  1  0  0  0  0
 19 24  2  0  0  0  0
 21 25  1  0  0  0  0
  7 10  1  0  0  0  0
  8 12  1  0  0  0  0
  9 13  1  0  0  0  0
 15 20  1  0  0  0  0
 16 19  1  0  0  0  0
 18 23  2  0  0  0  0
 24 25  1  0  0  0  0
  3 26  1  6  0  0  0
  6 27  1  6  0  0  0
 13 28  1  6  0  0  0
 14 29  1  6  0  0  0
  2 30  1  1  0  0  0
M  END
> <DATABASE_ID>
DB15954

> <DATABASE_NAME>
drugbank

> <SMILES>
[H][C@]12C[C@@]3([H])C4=CCO[C@@]5([H])CC(=O)N6C7=CC=CC=C7[C@@]1(CCN2C4)[C@]6([H])[C@@]35[H]

> <INCHI_IDENTIFIER>
InChI=1S/C21H22N2O2/c24-18-10-16-19-13-9-17-21(6-7-22(17)11-12(13)5-8-25-16)14-3-1-2-4-15(14)23(18)20(19)21/h1-5,13,16-17,19-20H,6-11H2/t13-,16-,17-,19-,20-,21+/m0/s1

> <INCHI_KEY>
QMGVPVSNSZLJIA-FVWCLLPLSA-N

> <FORMULA>
C21H22N2O2

> <MOLECULAR_WEIGHT>
334.419

> <EXACT_MASS>
334.168127956

> <JCHEM_ACCEPTOR_COUNT>
3

> <JCHEM_ATOM_COUNT>
47

> <JCHEM_AVERAGE_NEUTRAL_MICROSPECIES_CHARGE>
0.9947009422719072

> <JCHEM_AVERAGE_POLARIZABILITY>
35.899173260394036

> <JCHEM_BIOAVAILABILITY>
1

> <JCHEM_DONOR_COUNT>
0

> <JCHEM_FORMAL_CHARGE>
0

> <JCHEM_GHOSE_FILTER>
1

> <JCHEM_IUPAC>
(1R,11S,18S,20R,21R,22S)-12-oxa-8,17-diazaheptacyclo[15.5.2.0^{1,18}.0^{2,7}.0^{8,22}.0^{11,21}.0^{15,20}]tetracosa-2,4,6,14-tetraen-9-one

> <ALOGPS_LOGP>
1.68

> <JCHEM_LOGP>
0.9265213356666664

> <ALOGPS_LOGS>
-2.29

> <JCHEM_MDDR_LIKE_RULE>
0

> <JCHEM_NEUTRAL_CHARGE>
1

> <JCHEM_NUMBER_OF_RINGS>
7

> <JCHEM_PHYSIOLOGICAL_CHARGE>
1

> <JCHEM_PKA_STRONGEST_ACIDIC>
17.23974507177593

> <JCHEM_PKA_STRONGEST_BASIC>
9.27349386578478

> <JCHEM_POLAR_SURFACE_AREA>
32.78

> <JCHEM_REFRACTIVITY>
94.50770000000001

> <JCHEM_ROTATABLE_BOND_COUNT>
0

> <JCHEM_RULE_OF_FIVE>
1

> <ALOGPS_SOLUBILITY>
1.72e+00 g/l

> <JCHEM_TRADITIONAL_IUPAC>
stearyl alcohol

> <JCHEM_VEBER_RULE>
1

> <DRUGBANK_ID>
DB15954

> <DRUG_GROUPS>
experimental

> <GENERIC_NAME>
Strychnine

> <SYNONYMS>
Stricnina; Strychnidin-10-one; Strychnin

> <SALTS>
Strychnine nitrate; Strychnine sulfate

$$$$
