
  Mrv1652306231722382D          

 10  8  0  0  1  0            999 V2000
    4.6184    1.8414    0.0000 C   0  0  0  0  0  0  0  0  0  0  0  0
    3.9039    1.4289    0.0000 C   0  0  1  0  0  0  0  0  0  0  0  0
    3.1895    1.8414    0.0000 C   0  0  0  0  0  0  0  0  0  0  0  0
    3.1895    2.6664    0.0000 O   0  0  0  0  0  0  0  0  0  0  0  0
    2.4750    1.4289    0.0000 O   0  5  0  0  0  0  0  0  0  0  0  0
    3.9039    0.6039    0.0000 N   0  0  0  0  0  0  0  0  0  0  0  0
    5.3329    1.4289    0.0000 C   0  0  0  0  0  0  0  0  0  0  0  0
    6.0474    1.8414    0.0000 O   0  0  0  0  0  0  0  0  0  0  0  0
    5.3329    0.6039    0.0000 O   0  5  0  0  0  0  0  0  0  0  0  0
    1.7605    1.0164    0.0000 Fe  0  2  0  0  0  0  0  0  0  0  0  0
  1  2  1  0  0  0  0
  2  3  1  0  0  0  0
  3  4  2  0  0  0  0
  3  5  1  0  0  0  0
  2  6  1  6  0  0  0
  1  7  1  0  0  0  0
  7  8  2  0  0  0  0
  7  9  1  0  0  0  0
M  CHG  3   5  -1   9  -1  10   2
M  END
> <DATABASE_ID>
DB13220

> <DATABASE_NAME>
drugbank

> <SMILES>
[Fe++].N[C@@H](CC([O-])=O)C([O-])=O

> <INCHI_IDENTIFIER>
InChI=1S/C4H7NO4.Fe/c5-2(4(8)9)1-3(6)7;/h2H,1,5H2,(H,6,7)(H,8,9);/q;+2/p-2/t2-;/m0./s1

> <INCHI_KEY>
KKPUODLFBBWJPH-DKWTVANSSA-L

> <FORMULA>
C4H5FeNO4

> <MOLECULAR_WEIGHT>
186.932

> <EXACT_MASS>
186.956794

> <JCHEM_ACCEPTOR_COUNT>
5

> <JCHEM_ATOM_COUNT>
15

> <JCHEM_AVERAGE_POLARIZABILITY>
10.505949824826711

> <JCHEM_BIOAVAILABILITY>
1

> <JCHEM_DONOR_COUNT>
1

> <JCHEM_FORMAL_CHARGE>
0

> <JCHEM_GHOSE_FILTER>
0

> <JCHEM_IUPAC>
lambda2-iron(2+) ion (2S)-2-aminobutanedioate

> <ALOGPS_LOGP>
-0.47

> <JCHEM_LOGP>
-3.5037527551764525

> <ALOGPS_LOGS>
-0.84

> <JCHEM_MDDR_LIKE_RULE>
0

> <JCHEM_NUMBER_OF_RINGS>
0

> <JCHEM_PHYSIOLOGICAL_CHARGE>
-1

> <JCHEM_PKA>
5.113750094894903

> <JCHEM_PKA_STRONGEST_ACIDIC>
1.7025435921010494

> <JCHEM_PKA_STRONGEST_BASIC>
9.614153755159162

> <JCHEM_POLAR_SURFACE_AREA>
106.28

> <JCHEM_REFRACTIVITY>
48.206900000000005

> <JCHEM_ROTATABLE_BOND_COUNT>
3

> <JCHEM_RULE_OF_FIVE>
1

> <ALOGPS_SOLUBILITY>
3.51e+01 g/l

> <JCHEM_TRADITIONAL_IUPAC>
lambda2-iron(2+) ion L-aspartate(2-)

> <JCHEM_VEBER_RULE>
0

> <DRUGBANK_ID>
DB13220

> <DRUG_GROUPS>
experimental

> <GENERIC_NAME>
Ferrous aspartate

> <PRODUCTS>
Ultimate OB DHA

$$$$
