
  Mrv1652310201623492D          

 37 42  0  0  1  0            999 V2000
   -0.6928   -0.9894    0.0000 C   0  0  0  0  0  0  0  0  0  0  0  0
   -1.3247   -0.4591    0.0000 C   0  0  0  0  0  0  0  0  0  0  0  0
   -1.1815    0.3534    0.0000 C   0  0  0  0  0  0  0  0  0  0  0  0
   -0.4062    0.6356    0.0000 C   0  0  0  0  0  0  0  0  0  0  0  0
    0.2257    0.1053    0.0000 C   0  0  0  0  0  0  0  0  0  0  0  0
    0.0825   -0.7072    0.0000 C   0  0  0  0  0  0  0  0  0  0  0  0
    0.7145   -1.2375    0.0000 C   0  0  1  0  0  0  0  0  0  0  0  0
    1.1270   -1.9520    0.0000 C   0  0  0  0  0  0  0  0  0  0  0  0
    0.3020   -1.9520    0.0000 C   0  0  1  0  0  0  0  0  0  0  0  0
   -0.4125   -2.3645    0.0000 C   0  0  0  0  0  0  0  0  0  0  0  0
   -0.4125   -3.1895    0.0000 C   0  0  0  0  0  0  0  0  0  0  0  0
   -1.1270   -3.6020    0.0000 C   0  0  0  0  0  0  0  0  0  0  0  0
   -1.8414   -3.1895    0.0000 C   0  0  0  0  0  0  0  0  0  0  0  0
   -1.8414   -2.3645    0.0000 C   0  0  0  0  0  0  0  0  0  0  0  0
   -1.1270   -1.9520    0.0000 C   0  0  0  0  0  0  0  0  0  0  0  0
    1.3465   -0.7072    0.0000 C   0  0  0  0  0  0  0  0  0  0  0  0
    1.2032    0.1053    0.0000 O   0  0  0  0  0  0  0  0  0  0  0  0
    2.1217   -0.9894    0.0000 N   0  0  0  0  0  0  0  0  0  0  0  0
    2.2650   -1.8018    0.0000 C   0  0  0  0  0  0  0  0  0  0  0  0
    3.0065   -2.1635    0.0000 N   0  0  0  0  0  0  0  0  0  0  0  0
    2.8917   -2.9805    0.0000 C   0  0  0  0  0  0  0  0  0  0  0  0
    2.0792   -3.1237    0.0000 C   0  0  0  0  0  0  0  0  0  0  0  0
    1.6919   -2.3953    0.0000 S   0  0  0  0  0  0  0  0  0  0  0  0
    1.7175   -3.8652    0.0000 S   0  0  0  0  0  0  0  0  0  0  0  0
    2.1789   -4.5492    0.0000 C   0  0  0  0  0  0  0  0  0  0  0  0
    1.8172   -5.2907    0.0000 C   0  0  0  0  0  0  0  0  0  0  0  0
    2.2785   -5.9746    0.0000 N   0  0  0  0  0  0  0  0  0  0  0  0
    3.1030   -6.0034    0.0000 C   0  0  0  0  0  0  0  0  0  0  0  0
    3.3304   -6.7965    0.0000 C   0  0  0  0  0  0  0  0  0  0  0  0
    2.6465   -7.2578    0.0000 C   0  0  0  0  0  0  0  0  0  0  0  0
    1.9964   -6.7499    0.0000 C   0  0  0  0  0  0  0  0  0  0  0  0
   -1.8135    0.8837    0.0000 S   0  0  0  0  0  0  0  0  0  0  0  0
   -1.2832    1.5157    0.0000 O   0  0  0  0  0  0  0  0  0  0  0  0
   -2.3438    0.2517    0.0000 O   0  0  0  0  0  0  0  0  0  0  0  0
   -2.4455    1.4140    0.0000 C   0  0  0  0  0  0  0  0  0  0  0  0
   -3.2579    1.5573    0.0000 C   0  0  0  0  0  0  0  0  0  0  0  0
   -2.7276    2.1892    0.0000 C   0  0  0  0  0  0  0  0  0  0  0  0
  1  2  2  0  0  0  0
  2  3  1  0  0  0  0
  3  4  2  0  0  0  0
  4  5  1  0  0  0  0
  5  6  2  0  0  0  0
  1  6  1  0  0  0  0
  7  6  1  1  0  0  0
  7  8  1  0  0  0  0
  8  9  1  0  0  0  0
  7  9  1  0  0  0  0
  9 10  1  1  0  0  0
 10 11  1  0  0  0  0
 11 12  1  0  0  0  0
 12 13  1  0  0  0  0
 13 14  1  0  0  0  0
 14 15  1  0  0  0  0
 10 15  1  0  0  0  0
  7 16  1  6  0  0  0
 16 17  2  0  0  0  0
 16 18  1  0  0  0  0
 18 19  1  0  0  0  0
 19 20  2  0  0  0  0
 20 21  1  0  0  0  0
 21 22  2  0  0  0  0
 22 23  1  0  0  0  0
 19 23  1  0  0  0  0
 22 24  1  0  0  0  0
 24 25  1  0  0  0  0
 25 26  1  0  0  0  0
 26 27  1  0  0  0  0
 27 28  1  0  0  0  0
 28 29  1  0  0  0  0
 29 30  1  0  0  0  0
 30 31  1  0  0  0  0
 27 31  1  0  0  0  0
  3 32  1  0  0  0  0
 32 33  2  0  0  0  0
 32 34  2  0  0  0  0
 32 35  1  0  0  0  0
 35 36  1  0  0  0  0
 36 37  1  0  0  0  0
 35 37  1  0  0  0  0
M  END
> <DATABASE_ID>
DB12284

> <DATABASE_NAME>
drugbank

> <SMILES>
O=C(NC1=NC=C(SCCN2CCCC2)S1)[C@@]1(C[C@H]1C1CCCCC1)C1=CC=C(C=C1)S(=O)(=O)C1CC1

> <INCHI_IDENTIFIER>
InChI=1S/C28H37N3O3S3/c32-26(30-27-29-19-25(36-27)35-17-16-31-14-4-5-15-31)28(18-24(28)20-6-2-1-3-7-20)21-8-10-22(11-9-21)37(33,34)23-12-13-23/h8-11,19-20,23-24H,1-7,12-18H2,(H,29,30,32)/t24-,28-/m0/s1

> <INCHI_KEY>
QIIVJLHCZUTGSD-CUBQBAPOSA-N

> <FORMULA>
C28H37N3O3S3

> <MOLECULAR_WEIGHT>
559.8

> <EXACT_MASS>
559.199705585

> <JCHEM_ACCEPTOR_COUNT>
5

> <JCHEM_ATOM_COUNT>
74

> <JCHEM_AVERAGE_POLARIZABILITY>
61.93139980555158

> <JCHEM_BIOAVAILABILITY>
0

> <JCHEM_DONOR_COUNT>
1

> <JCHEM_FORMAL_CHARGE>
0

> <JCHEM_GHOSE_FILTER>
0

> <JCHEM_IUPAC>
(1R,2S)-2-cyclohexyl-1-[4-(cyclopropanesulfonyl)phenyl]-N-(5-{[2-(pyrrolidin-1-yl)ethyl]sulfanyl}-1,3-thiazol-2-yl)cyclopropane-1-carboxamide

> <ALOGPS_LOGP>
5.15

> <JCHEM_LOGP>
5.481421604999999

> <ALOGPS_LOGS>
-5.78

> <JCHEM_MDDR_LIKE_RULE>
1

> <JCHEM_NUMBER_OF_RINGS>
6

> <JCHEM_PHYSIOLOGICAL_CHARGE>
1

> <JCHEM_PKA_STRONGEST_ACIDIC>
10.667359102036443

> <JCHEM_PKA_STRONGEST_BASIC>
7.999480189952226

> <JCHEM_POLAR_SURFACE_AREA>
79.37

> <JCHEM_REFRACTIVITY>
152.02779999999996

> <JCHEM_ROTATABLE_BOND_COUNT>
10

> <JCHEM_RULE_OF_FIVE>
0

> <ALOGPS_SOLUBILITY>
9.32e-04 g/l

> <JCHEM_TRADITIONAL_IUPAC>
(1R,2S)-2-cyclohexyl-1-[4-(cyclopropanesulfonyl)phenyl]-N-(5-{[2-(pyrrolidin-1-yl)ethyl]sulfanyl}-1,3-thiazol-2-yl)cyclopropane-1-carboxamide

> <JCHEM_VEBER_RULE>
0

> <DRUGBANK_ID>
DB12284

> <DRUG_GROUPS>
investigational

> <GENERIC_NAME>
LY-2608204

$$$$
