
  Mrv1909 12152018172D          

 36 39  0  0  1  0            999 V2000
    0.0000   -0.0000    0.0000 C   0  0  0  0  0  0  0  0  0  0  0  0
    0.7145   -0.4125    0.0000 C   0  0  2  0  0  0  0  0  0  0  0  0
    1.4289   -0.0000    0.0000 O   0  0  0  0  0  0  0  0  0  0  0  0
    0.7145   -1.2375    0.0000 C   0  0  0  0  0  0  0  0  0  0  0  0
    1.3819   -1.7224    0.0000 N   0  0  0  0  0  0  0  0  0  0  0  0
    1.1270   -2.5070    0.0000 C   0  0  0  0  0  0  0  0  0  0  0  0
    1.6119   -3.1745    0.0000 C   0  0  0  0  0  0  0  0  0  0  0  0
    2.4324   -3.0882    0.0000 N   0  0  0  0  0  0  0  0  0  0  0  0
    2.8449   -2.3738    0.0000 N   0  0  0  0  0  0  0  0  0  0  0  0
    3.6518   -2.5453    0.0000 C   0  0  0  0  0  0  0  0  0  0  0  0
    3.7381   -3.3658    0.0000 N   0  0  0  0  0  0  0  0  0  0  0  0
    4.4526   -3.7783    0.0000 C   0  0  0  0  0  0  0  0  0  0  0  0
    4.4526   -4.6033    0.0000 C   0  0  2  0  0  0  0  0  0  0  0  0
    5.1670   -5.0158    0.0000 O   0  0  0  0  0  0  0  0  0  0  0  0
    3.7381   -5.0158    0.0000 C   0  0  0  0  0  0  0  0  0  0  0  0
    3.3256   -4.3013    0.0000 F   0  0  0  0  0  0  0  0  0  0  0  0
    4.1506   -5.7303    0.0000 F   0  0  0  0  0  0  0  0  0  0  0  0
    3.0236   -5.4283    0.0000 F   0  0  0  0  0  0  0  0  0  0  0  0
    2.9844   -3.7013    0.0000 C   0  0  0  0  0  0  0  0  0  0  0  0
    2.8129   -4.5083    0.0000 O   0  0  0  0  0  0  0  0  0  0  0  0
    4.2649   -1.9933    0.0000 C   0  0  0  0  0  0  0  0  0  0  0  0
    4.0934   -1.1863    0.0000 C   0  0  0  0  0  0  0  0  0  0  0  0
    4.7065   -0.6343    0.0000 C   0  0  0  0  0  0  0  0  0  0  0  0
    5.4911   -0.8892    0.0000 C   0  0  0  0  0  0  0  0  0  0  0  0
    6.1042   -0.3372    0.0000 Cl  0  0  0  0  0  0  0  0  0  0  0  0
    5.6627   -1.6962    0.0000 C   0  0  0  0  0  0  0  0  0  0  0  0
    5.0496   -2.2482    0.0000 C   0  0  0  0  0  0  0  0  0  0  0  0
    0.3020   -2.5070    0.0000 N   0  0  0  0  0  0  0  0  0  0  0  0
    0.0470   -1.7224    0.0000 N   0  0  0  0  0  0  0  0  0  0  0  0
   -0.7376   -1.4675    0.0000 C   0  0  0  0  0  0  0  0  0  0  0  0
   -1.3507   -2.0195    0.0000 C   0  0  0  0  0  0  0  0  0  0  0  0
   -2.1353   -1.7646    0.0000 C   0  0  0  0  0  0  0  0  0  0  0  0
   -2.7484   -2.3166    0.0000 Cl  0  0  0  0  0  0  0  0  0  0  0  0
   -2.3068   -0.9576    0.0000 C   0  0  0  0  0  0  0  0  0  0  0  0
   -1.6937   -0.4056    0.0000 C   0  0  0  0  0  0  0  0  0  0  0  0
   -0.9091   -0.6605    0.0000 C   0  0  0  0  0  0  0  0  0  0  0  0
  2  1  1  0  0  0  0
  2  3  1  6  0  0  0
  2  4  1  0  0  0  0
  4  5  2  0  0  0  0
  5  6  1  0  0  0  0
  6  7  1  0  0  0  0
  7  8  1  0  0  0  0
  8  9  1  0  0  0  0
  9 10  2  0  0  0  0
 10 11  1  0  0  0  0
 11 12  1  0  0  0  0
 13 12  1  0  0  0  0
 13 14  1  6  0  0  0
 13 15  1  0  0  0  0
 15 16  1  0  0  0  0
 15 17  1  0  0  0  0
 15 18  1  0  0  0  0
 11 19  1  0  0  0  0
  8 19  1  0  0  0  0
 19 20  2  0  0  0  0
 10 21  1  0  0  0  0
 21 22  2  0  0  0  0
 22 23  1  0  0  0  0
 23 24  2  0  0  0  0
 24 25  1  0  0  0  0
 24 26  1  0  0  0  0
 26 27  2  0  0  0  0
 21 27  1  0  0  0  0
  6 28  2  0  0  0  0
 28 29  1  0  0  0  0
  4 29  1  0  0  0  0
 29 30  1  0  0  0  0
 30 31  2  0  0  0  0
 31 32  1  0  0  0  0
 32 33  1  0  0  0  0
 32 34  2  0  0  0  0
 34 35  1  0  0  0  0
 35 36  2  0  0  0  0
 30 36  1  0  0  0  0
M  END
> <DATABASE_ID>
DB16279

> <DATABASE_NAME>
drugbank

> <SMILES>
C[C@H](O)C1=NC(CN2N=C(N(C[C@H](O)C(F)(F)F)C2=O)C2=CC=C(Cl)C=C2)=NN1C1=CC(Cl)=CC=C1

> <INCHI_IDENTIFIER>
InChI=1S/C22H19Cl2F3N6O3/c1-12(34)19-28-18(29-33(19)16-4-2-3-15(24)9-16)11-32-21(36)31(10-17(35)22(25,26)27)20(30-32)13-5-7-14(23)8-6-13/h2-9,12,17,34-35H,10-11H2,1H3/t12-,17-/m0/s1

> <INCHI_KEY>
AZXOTZCWQDJCLY-SJCJKPOMSA-N

> <FORMULA>
C22H19Cl2F3N6O3

> <MOLECULAR_WEIGHT>
543.33

> <EXACT_MASS>
542.0847784

> <JCHEM_ACCEPTOR_COUNT>
6

> <JCHEM_ATOM_COUNT>
55

> <JCHEM_AVERAGE_NEUTRAL_MICROSPECIES_CHARGE>
-9.678731574264453e-05

> <JCHEM_AVERAGE_POLARIZABILITY>
49.504331750269245

> <JCHEM_BIOAVAILABILITY>
0

> <JCHEM_DONOR_COUNT>
2

> <JCHEM_FORMAL_CHARGE>
0

> <JCHEM_GHOSE_FILTER>
0

> <JCHEM_IUPAC>
3-(4-chlorophenyl)-1-{[1-(3-chlorophenyl)-5-[(1S)-1-hydroxyethyl]-1H-1,2,4-triazol-3-yl]methyl}-4-[(2S)-3,3,3-trifluoro-2-hydroxypropyl]-4,5-dihydro-1H-1,2,4-triazol-5-one

> <ALOGPS_LOGP>
4.00

> <JCHEM_LOGP>
5.259869929000001

> <ALOGPS_LOGS>
-4.97

> <JCHEM_MDDR_LIKE_RULE>
1

> <JCHEM_NEUTRAL_CHARGE>
0

> <JCHEM_NUMBER_OF_RINGS>
4

> <JCHEM_PHYSIOLOGICAL_CHARGE>
0

> <JCHEM_PKA>
13.606778502184447

> <JCHEM_PKA_STRONGEST_ACIDIC>
11.012974744310105

> <JCHEM_PKA_STRONGEST_BASIC>
0.7063313593771591

> <JCHEM_POLAR_SURFACE_AREA>
107.08000000000001

> <JCHEM_REFRACTIVITY>
126.9476

> <JCHEM_ROTATABLE_BOND_COUNT>
8

> <JCHEM_RULE_OF_FIVE>
0

> <ALOGPS_SOLUBILITY>
5.88e-03 g/l

> <JCHEM_TRADITIONAL_IUPAC>
5-({4-[2-(3-methoxyphenyl)-2-oxoethoxy]phenyl}methyl)-1,3-thiazolidine-2,4-dione

> <JCHEM_VEBER_RULE>
0

> <DRUGBANK_ID>
DB16279

> <DRUG_GROUPS>
investigational

> <GENERIC_NAME>
Pecavaptan

> <SYNONYMS>
Pecavaptan

$$$$
