
  Mrv1652310201623012D          

 32 35  0  0  0  0            999 V2000
    4.0668    3.1729    0.0000 C   0  0  0  0  0  0  0  0  0  0  0  0
    4.7812    3.5854    0.0000 C   0  0  0  0  0  0  0  0  0  0  0  0
    5.4957    3.1729    0.0000 C   0  0  0  0  0  0  0  0  0  0  0  0
    5.4957    2.3479    0.0000 C   0  0  0  0  0  0  0  0  0  0  0  0
    4.7812    1.9354    0.0000 C   0  0  0  0  0  0  0  0  0  0  0  0
    4.0668    2.3479    0.0000 C   0  0  0  0  0  0  0  0  0  0  0  0
    3.3523    1.9354    0.0000 C   0  0  0  0  0  0  0  0  0  0  0  0
    3.3523    1.1104    0.0000 C   0  0  0  0  0  0  0  0  0  0  0  0
    2.6378    0.6979    0.0000 C   0  0  0  0  0  0  0  0  0  0  0  0
    1.9233    1.1104    0.0000 N   0  0  0  0  0  0  0  0  0  0  0  0
    1.9233    1.9354    0.0000 C   0  0  0  0  0  0  0  0  0  0  0  0
    2.6378    2.3479    0.0000 N   0  0  0  0  0  0  0  0  0  0  0  0
    1.1387    2.1904    0.0000 C   0  0  0  0  0  0  0  0  0  0  0  0
    0.6538    1.5229    0.0000 C   0  0  0  0  0  0  0  0  0  0  0  0
    1.1387    0.8555    0.0000 N   0  0  0  0  0  0  0  0  0  0  0  0
    0.8838    2.9750    0.0000 C   0  0  0  0  0  0  0  0  0  0  0  0
    0.6288    3.7596    0.0000 C   0  0  0  0  0  0  0  0  0  0  0  0
    0.3739    4.5442    0.0000 C   0  0  0  0  0  0  0  0  0  0  0  0
   -0.4331    4.7158    0.0000 C   0  0  0  0  0  0  0  0  0  0  0  0
   -0.6880    5.5004    0.0000 C   0  0  0  0  0  0  0  0  0  0  0  0
   -0.1360    6.1135    0.0000 C   0  0  0  0  0  0  0  0  0  0  0  0
    0.6710    5.9420    0.0000 N   0  0  0  0  0  0  0  0  0  0  0  0
    0.9259    5.1573    0.0000 C   0  0  0  0  0  0  0  0  0  0  0  0
   -0.3909    6.8981    0.0000 N   0  0  0  0  0  0  0  0  0  0  0  0
    2.6378   -0.1271    0.0000 C   0  0  0  0  0  0  0  0  0  0  0  0
    2.6378   -0.9521    0.0000 F   0  0  0  0  0  0  0  0  0  0  0  0
    1.8128   -0.1271    0.0000 F   0  0  0  0  0  0  0  0  0  0  0  0
    3.4628   -0.1271    0.0000 F   0  0  0  0  0  0  0  0  0  0  0  0
    6.2102    3.5854    0.0000 C   0  0  0  0  0  0  0  0  0  0  0  0
    6.9246    3.9979    0.0000 F   0  0  0  0  0  0  0  0  0  0  0  0
    6.6227    2.8710    0.0000 F   0  0  0  0  0  0  0  0  0  0  0  0
    5.7977    4.2999    0.0000 F   0  0  0  0  0  0  0  0  0  0  0  0
  1  2  2  0  0  0  0
  2  3  1  0  0  0  0
  3  4  2  0  0  0  0
  4  5  1  0  0  0  0
  5  6  2  0  0  0  0
  1  6  1  0  0  0  0
  6  7  1  0  0  0  0
  7  8  1  0  0  0  0
  8  9  2  0  0  0  0
  9 10  1  0  0  0  0
 10 11  1  0  0  0  0
 11 12  1  0  0  0  0
  7 12  2  0  0  0  0
 11 13  2  0  0  0  0
 13 14  1  0  0  0  0
 14 15  2  0  0  0  0
 10 15  1  0  0  0  0
 13 16  1  0  0  0  0
 16 17  3  0  0  0  0
 17 18  1  0  0  0  0
 18 19  2  0  0  0  0
 19 20  1  0  0  0  0
 20 21  2  0  0  0  0
 21 22  1  0  0  0  0
 22 23  2  0  0  0  0
 18 23  1  0  0  0  0
 21 24  1  0  0  0  0
  9 25  1  0  0  0  0
 25 26  1  0  0  0  0
 25 27  1  0  0  0  0
 25 28  1  0  0  0  0
  3 29  1  0  0  0  0
 29 30  1  0  0  0  0
 29 31  1  0  0  0  0
 29 32  1  0  0  0  0
M  END
> <DATABASE_ID>
DB11923

> <DATABASE_NAME>
drugbank

> <SMILES>
NC1=CC=C(C=N1)C#CC1=C2N=C(C=C(N2N=C1)C(F)(F)F)C1=CC=C(C=C1)C(F)(F)F

> <INCHI_IDENTIFIER>
InChI=1S/C21H11F6N5/c22-20(23,24)15-6-4-13(5-7-15)16-9-17(21(25,26)27)32-19(31-16)14(11-30-32)3-1-12-2-8-18(28)29-10-12/h2,4-11H,(H2,28,29)

> <INCHI_KEY>
DMJHZVARRXJSEG-UHFFFAOYSA-N

> <FORMULA>
C21H11F6N5

> <MOLECULAR_WEIGHT>
447.344

> <EXACT_MASS>
447.091864352

> <JCHEM_ACCEPTOR_COUNT>
4

> <JCHEM_ATOM_COUNT>
43

> <JCHEM_AVERAGE_POLARIZABILITY>
39.33355495484679

> <JCHEM_BIOAVAILABILITY>
1

> <JCHEM_DONOR_COUNT>
1

> <JCHEM_FORMAL_CHARGE>
0

> <JCHEM_GHOSE_FILTER>
1

> <JCHEM_IUPAC>
5-{2-[7-(trifluoromethyl)-5-[4-(trifluoromethyl)phenyl]pyrazolo[1,5-a]pyrimidin-3-yl]ethynyl}pyridin-2-amine

> <ALOGPS_LOGP>
4.63

> <JCHEM_LOGP>
5.030674901333334

> <ALOGPS_LOGS>
-5.29

> <JCHEM_MDDR_LIKE_RULE>
0

> <JCHEM_NUMBER_OF_RINGS>
4

> <JCHEM_PHYSIOLOGICAL_CHARGE>
0

> <JCHEM_PKA_STRONGEST_BASIC>
4.540418325274751

> <JCHEM_POLAR_SURFACE_AREA>
69.1

> <JCHEM_REFRACTIVITY>
111.05630000000004

> <JCHEM_ROTATABLE_BOND_COUNT>
5

> <JCHEM_RULE_OF_FIVE>
0

> <ALOGPS_SOLUBILITY>
2.30e-03 g/l

> <JCHEM_TRADITIONAL_IUPAC>
5-{2-[7-(trifluoromethyl)-5-[4-(trifluoromethyl)phenyl]pyrazolo[1,5-a]pyrimidin-3-yl]ethynyl}pyridin-2-amine

> <JCHEM_VEBER_RULE>
0

> <DRUGBANK_ID>
DB11923

> <DRUG_GROUPS>
investigational

> <GENERIC_NAME>
Decoglurant

> <SYNONYMS>
Decoglurant

$$$$
