
  Mrv1909 05011919212D          

 12 12  0  0  0  0            999 V2000
   -1.1312    2.3719    0.0000 C   0  0  0  0  0  0  0  0  0  0  0  0
   -0.4168    1.9594    0.0000 C   0  0  0  0  0  0  0  0  0  0  0  0
    1.0122   -1.3406    0.0000 C   0  0  0  0  0  0  0  0  0  0  0  0
    1.0122   -0.5155    0.0000 C   0  0  0  0  0  0  0  0  0  0  0  0
    0.2977   -1.7531    0.0000 C   0  0  0  0  0  0  0  0  0  0  0  0
   -0.4168   -0.5155    0.0000 C   0  0  0  0  0  0  0  0  0  0  0  0
    0.2977   -0.1031    0.0000 C   0  0  0  0  0  0  0  0  0  0  0  0
   -0.4168   -1.3406    0.0000 C   0  0  0  0  0  0  0  0  0  0  0  0
    0.2977    0.7219    0.0000 C   0  0  0  0  0  0  0  0  0  0  0  0
   -1.1312   -1.7531    0.0000 N   0  0  0  0  0  0  0  0  0  0  0  0
    1.0122    1.1344    0.0000 O   0  0  0  0  0  0  0  0  0  0  0  0
   -0.4168    1.1344    0.0000 O   0  0  0  0  0  0  0  0  0  0  0  0
  2  1  1  0  0  0  0
  4  3  2  0  0  0  0
  5  3  1  0  0  0  0
  7  4  1  0  0  0  0
  7  6  2  0  0  0  0
  8  5  2  0  0  0  0
  8  6  1  0  0  0  0
  9  7  1  0  0  0  0
 10  8  1  0  0  0  0
 11  9  2  0  0  0  0
 12  2  1  0  0  0  0
 12  9  1  0  0  0  0
M  END
> <DATABASE_ID>
DB11552

> <DATABASE_NAME>
drugbank

> <SMILES>
CCOC(=O)C1=CC(N)=CC=C1

> <INCHI_IDENTIFIER>
InChI=1S/C9H11NO2/c1-2-12-9(11)7-4-3-5-8(10)6-7/h3-6H,2,10H2,1H3

> <INCHI_KEY>
ZMCBYSBVJIMENC-UHFFFAOYSA-N

> <FORMULA>
C9H11NO2

> <MOLECULAR_WEIGHT>
165.1891

> <EXACT_MASS>
165.078978601

> <JCHEM_ACCEPTOR_COUNT>
2

> <JCHEM_ATOM_COUNT>
23

> <JCHEM_AVERAGE_POLARIZABILITY>
17.65579368346489

> <JCHEM_BIOAVAILABILITY>
1

> <JCHEM_DONOR_COUNT>
1

> <JCHEM_FORMAL_CHARGE>
0

> <JCHEM_GHOSE_FILTER>
1

> <JCHEM_IUPAC>
ethyl 3-aminobenzoate

> <ALOGPS_LOGP>
2.12

> <JCHEM_LOGP>
1.5046047806666665

> <ALOGPS_LOGS>
-1.82

> <JCHEM_MDDR_LIKE_RULE>
0

> <JCHEM_NUMBER_OF_RINGS>
1

> <JCHEM_PHYSIOLOGICAL_CHARGE>
0

> <JCHEM_PKA_STRONGEST_BASIC>
2.8898683256268916

> <JCHEM_POLAR_SURFACE_AREA>
52.32000000000001

> <JCHEM_REFRACTIVITY>
47.532300000000006

> <JCHEM_ROTATABLE_BOND_COUNT>
3

> <JCHEM_RULE_OF_FIVE>
1

> <ALOGPS_SOLUBILITY>
2.50e+00 g/l

> <JCHEM_TRADITIONAL_IUPAC>
tricaine

> <JCHEM_VEBER_RULE>
0

> <DRUGBANK_ID>
DB11552

> <DRUG_GROUPS>
vet_approved

> <GENERIC_NAME>
Tricaine

> <SYNONYMS>
Tricaine mesylate

> <INTERNATIONAL_BRANDS>
Finquel

> <SALTS>
Tricaine methanesulfonate

$$$$
