
  Mrv1909 11211903222D          

 38 41  0  0  0  0            999 V2000
   -0.3596   -1.8481    0.0000 C   0  0  0  0  0  0  0  0  0  0  0  0
   -0.3598   -1.0227    0.0000 O   0  0  0  0  0  0  0  0  0  0  0  0
   -1.0739   -2.2603    0.0000 N   0  0  0  0  0  0  0  0  0  0  0  0
    0.3547   -2.2610    0.0000 N   0  0  0  0  0  0  0  0  0  0  0  0
    1.7834   -0.6115    0.0000 C   0  0  0  0  0  0  0  0  0  0  0  0
    2.4979   -1.0243    0.0000 C   0  0  0  0  0  0  0  0  0  0  0  0
    2.4980   -1.8497    0.0000 C   0  0  0  0  0  0  0  0  0  0  0  0
    1.7835   -2.2620    0.0000 C   0  0  0  0  0  0  0  0  0  0  0  0
    1.0691   -1.8488    0.0000 C   0  0  0  0  0  0  0  0  0  0  0  0
    1.0691   -1.0236    0.0000 C   0  0  0  0  0  0  0  0  0  0  0  0
    0.3546   -0.6105    0.0000 Cl  0  0  0  0  0  0  0  0  0  0  0  0
    1.7836   -3.0870    0.0000 Cl  0  0  0  0  0  0  0  0  0  0  0  0
    1.7833    0.2139    0.0000 O   0  0  0  0  0  0  0  0  0  0  0  0
    2.4979    0.6262    0.0000 C   0  0  0  0  0  0  0  0  0  0  0  0
    3.2124   -2.2626    0.0000 O   0  0  0  0  0  0  0  0  0  0  0  0
   -3.2115   -1.0265    0.0000 N   0  0  0  0  0  0  0  0  0  0  0  0
   -2.5036   -2.2588    0.0000 N   0  0  0  0  0  0  0  0  0  0  0  0
   -3.2124   -1.8456    0.0000 C   0  0  0  0  0  0  0  0  0  0  0  0
   -1.7875   -1.0280    0.0000 C   0  0  0  0  0  0  0  0  0  0  0  0
   -2.5018   -0.6149    0.0000 C   0  0  0  0  0  0  0  0  0  0  0  0
   -1.7884   -1.8472    0.0000 C   0  0  0  0  0  0  0  0  0  0  0  0
   -2.5009    0.2098    0.0000 N   0  0  0  0  0  0  0  0  0  0  0  0
   -1.0805    1.8578    0.0000 C   0  0  0  0  0  0  0  0  0  0  0  0
   -0.3664    1.4390    0.0000 C   0  0  0  0  0  0  0  0  0  0  0  0
   -0.3673    0.6199    0.0000 C   0  0  0  0  0  0  0  0  0  0  0  0
   -1.0823    0.2083    0.0000 C   0  0  0  0  0  0  0  0  0  0  0  0
   -1.7911    0.6214    0.0000 C   0  0  0  0  0  0  0  0  0  0  0  0
   -1.7903    1.4462    0.0000 C   0  0  0  0  0  0  0  0  0  0  0  0
    0.3490    1.8506    0.0000 N   0  0  0  0  0  0  0  0  0  0  0  0
    1.7795    2.6740    0.0000 N   0  0  0  0  0  0  0  0  0  0  0  0
    1.7786    1.8491    0.0000 C   0  0  0  0  0  0  0  0  0  0  0  0
    0.3499    2.6754    0.0000 C   0  0  0  0  0  0  0  0  0  0  0  0
    1.0650    3.0870    0.0000 C   0  0  0  0  0  0  0  0  0  0  0  0
    1.0631    1.4375    0.0000 C   0  0  0  0  0  0  0  0  0  0  0  0
    2.4946    3.0854    0.0000 C   0  0  0  0  0  0  0  0  0  0  0  0
   -1.0739   -3.0853    0.0000 C   0  0  0  0  0  0  0  0  0  0  0  0
    3.2077    2.6726    0.0000 C   0  0  0  0  0  0  0  0  0  0  0  0
    3.2121   -3.0868    0.0000 C   0  0  0  0  0  0  0  0  0  0  0  0
  2  1  2  0  0  0  0
  3  1  1  0  0  0  0
  4  1  1  0  0  0  0
 21  3  1  0  0  0  0
 36  3  1  0  0  0  0
  9  4  1  0  0  0  0
 10  5  2  0  0  0  0
  6  5  1  0  0  0  0
 13  5  1  0  0  0  0
  7  6  2  0  0  0  0
  8  7  1  0  0  0  0
 15  7  1  0  0  0  0
  9  8  2  0  0  0  0
 12  8  1  0  0  0  0
 10  9  1  0  0  0  0
 11 10  1  0  0  0  0
 14 13  1  0  0  0  0
 18 16  2  0  0  0  0
 20 16  1  0  0  0  0
 18 17  1  0  0  0  0
 21 17  2  0  0  0  0
 20 19  2  0  0  0  0
 21 19  1  0  0  0  0
 22 20  1  0  0  0  0
 27 22  1  0  0  0  0
 28 23  2  0  0  0  0
 24 23  1  0  0  0  0
 25 24  2  0  0  0  0
 29 24  1  0  0  0  0
 26 25  1  0  0  0  0
 27 26  2  0  0  0  0
 28 27  1  0  0  0  0
 32 29  1  0  0  0  0
 34 29  1  0  0  0  0
 31 30  1  0  0  0  0
 33 30  1  0  0  0  0
 35 30  1  0  0  0  0
 34 31  1  0  0  0  0
 33 32  1  0  0  0  0
 35 37  1  0  0  0  0
 15 38  1  0  0  0  0
M  END
> <DATABASE_ID>
DB11886

> <DATABASE_NAME>
drugbank

> <SMILES>
CCN1CCN(CC1)C1=CC=C(NC2=CC(=NC=N2)N(C)C(=O)NC2=C(Cl)C(OC)=CC(OC)=C2Cl)C=C1

> <INCHI_IDENTIFIER>
InChI=1S/C26H31Cl2N7O3/c1-5-34-10-12-35(13-11-34)18-8-6-17(7-9-18)31-21-15-22(30-16-29-21)33(2)26(36)32-25-23(27)19(37-3)14-20(38-4)24(25)28/h6-9,14-16H,5,10-13H2,1-4H3,(H,32,36)(H,29,30,31)

> <INCHI_KEY>
QADPYRIHXKWUSV-UHFFFAOYSA-N

> <FORMULA>
C26H31Cl2N7O3

> <MOLECULAR_WEIGHT>
560.475

> <EXACT_MASS>
559.186543307

> <JCHEM_ACCEPTOR_COUNT>
8

> <JCHEM_ATOM_COUNT>
69

> <JCHEM_AVERAGE_POLARIZABILITY>
58.50626067764091

> <JCHEM_BIOAVAILABILITY>
1

> <JCHEM_DONOR_COUNT>
2

> <JCHEM_FORMAL_CHARGE>
0

> <JCHEM_GHOSE_FILTER>
0

> <JCHEM_IUPAC>
3-(2,6-dichloro-3,5-dimethoxyphenyl)-1-(6-{[4-(4-ethylpiperazin-1-yl)phenyl]amino}pyrimidin-4-yl)-1-methylurea

> <ALOGPS_LOGP>
4.68

> <JCHEM_LOGP>
4.781584896933455

> <ALOGPS_LOGS>
-4.27

> <JCHEM_MDDR_LIKE_RULE>
1

> <JCHEM_NUMBER_OF_RINGS>
4

> <JCHEM_PHYSIOLOGICAL_CHARGE>
1

> <JCHEM_PKA>
17.39741846693039

> <JCHEM_PKA_STRONGEST_ACIDIC>
9.983893229482073

> <JCHEM_PKA_STRONGEST_BASIC>
8.234905907327525

> <JCHEM_POLAR_SURFACE_AREA>
95.09

> <JCHEM_REFRACTIVITY>
152.7095

> <JCHEM_ROTATABLE_BOND_COUNT>
8

> <JCHEM_RULE_OF_FIVE>
0

> <ALOGPS_SOLUBILITY>
2.99e-02 g/l

> <JCHEM_TRADITIONAL_IUPAC>
4-{[2-amino-2-({2-carboxy-1-[(1-carboxy-2-sulfanylethyl)carbamoyl]ethyl}carbamoyl)ethyl]carbamoyl}-2-[(4-{[(4-oxo-1H-pteridin-6-yl)methyl]amino}phenyl)formamido]butanoic acid

> <JCHEM_VEBER_RULE>
0

> <DRUGBANK_ID>
DB11886

> <DRUG_GROUPS>
approved; investigational

> <GENERIC_NAME>
Infigratinib

> <SYNONYMS>
Infigratinib

> <PRODUCTS>
Truseltiq

> <INTERNATIONAL_BRANDS>
Truseltiq

> <SALTS>
Infigratinib acetate; Infigratinib hydrochloride; Infigratinib mesylate; Infigratinib phosphate

$$$$
