
  Mrv1909 08212014212D          

 85 92  0  0  0  0            999 V2000
   -1.8271   -4.5718    0.0000 C   0  0  0  0  0  0  0  0  0  0  0  0
   -1.2968   -5.2038    0.0000 O   0  0  0  0  0  0  0  0  0  0  0  0
   -1.5449   -3.7966    0.0000 C   0  0  2  0  0  0  0  0  0  0  0  0
   -1.5449   -2.9716    0.0000 C   0  0  2  0  0  0  0  0  0  0  0  0
   -0.8305   -2.5591    0.0000 C   0  0  0  0  0  0  0  0  0  0  0  0
   -0.1160   -2.9716    0.0000 C   0  0  2  0  0  0  0  0  0  0  0  0
   -0.1160   -3.7966    0.0000 C   0  0  0  0  0  0  0  0  0  0  0  0
   -0.8305   -4.2091    0.0000 C   0  0  1  0  0  0  0  0  0  0  0  0
   -0.8305   -5.0341    0.0000 O   0  0  0  0  0  0  0  0  0  0  0  0
   -0.1160   -2.1466    0.0000 C   0  0  0  0  0  0  0  0  0  0  0  0
    0.5983   -2.5591    0.0000 C   0  0  1  0  0  0  0  0  0  0  0  0
    0.5983   -3.3841    0.0000 C   0  0  0  0  0  0  0  0  0  0  0  0
    0.5983   -1.7341    0.0000 C   0  0  2  0  0  0  0  0  0  0  0  0
   -0.1160   -1.3216    0.0000 C   0  0  0  0  0  0  0  0  0  0  0  0
   -0.8305   -1.7341    0.0000 C   0  0  0  0  0  0  0  0  0  0  0  0
    1.3128   -1.3216    0.0000 C   0  0  2  0  0  0  0  0  0  0  0  0
    1.3128   -2.1466    0.0000 C   0  0  0  0  0  0  0  0  0  0  0  0
    2.0272   -1.7341    0.0000 C   0  0  1  0  0  0  0  0  0  0  0  0
    2.0272   -2.5591    0.0000 C   0  0  0  0  0  0  0  0  0  0  0  0
    1.3128   -2.9716    0.0000 C   0  0  0  0  0  0  0  0  0  0  0  0
    2.7417   -1.3216    0.0000 C   0  0  2  0  0  0  0  0  0  0  0  0
    3.5542   -1.1783    0.0000 C   0  0  0  0  0  0  0  0  0  0  0  0
    4.0845   -1.8103    0.0000 O   0  0  0  0  0  0  0  0  0  0  0  0
    3.0239   -2.0968    0.0000 C   0  0  0  0  0  0  0  0  0  0  0  0
    2.7417   -0.4966    0.0000 C   0  0  2  0  0  0  0  0  0  0  0  0
    2.0272   -0.0842    0.0000 C   0  0  0  0  0  0  0  0  0  0  0  0
    1.3128   -0.4966    0.0000 C   0  0  0  0  0  0  0  0  0  0  0  0
    3.4562   -0.0842    0.0000 O   0  0  0  0  0  0  0  0  0  0  0  0
    3.3130    0.7282    0.0000 C   0  0  1  0  0  0  0  0  0  0  0  0
    2.9004    1.4427    0.0000 C   0  0  2  0  0  0  0  0  0  0  0  0
    2.0754    1.4427    0.0000 O   0  0  0  0  0  0  0  0  0  0  0  0
    1.7933    2.2179    0.0000 C   0  0  2  0  0  0  0  0  0  0  0  0
    1.7933    3.0429    0.0000 O   0  0  0  0  0  0  0  0  0  0  0  0
    1.0788    3.4554    0.0000 C   0  0  2  0  0  0  0  0  0  0  0  0
    1.0788    4.2804    0.0000 C   0  0  0  0  0  0  0  0  0  0  0  0
    0.3644    4.6929    0.0000 O   0  0  0  0  0  0  0  0  0  0  0  0
    0.3644    3.0429    0.0000 C   0  0  2  0  0  0  0  0  0  0  0  0
    0.3644    2.2179    0.0000 C   0  0  1  0  0  0  0  0  0  0  0  0
    1.0788    1.8054    0.0000 C   0  0  1  0  0  0  0  0  0  0  0  0
    1.0788    0.9805    0.0000 O   0  0  0  0  0  0  0  0  0  0  0  0
   -0.3500    1.8054    0.0000 O   0  0  0  0  0  0  0  0  0  0  0  0
   -0.3500    3.4554    0.0000 O   0  0  0  0  0  0  0  0  0  0  0  0
    2.6057    2.3612    0.0000 H   0  0  0  0  0  0  0  0  0  0  0  0
    3.3130    2.1571    0.0000 C   0  0  1  0  0  0  0  0  0  0  0  0
    2.9004    2.8716    0.0000 O   0  0  0  0  0  0  0  0  0  0  0  0
    4.1379    2.1571    0.0000 C   0  0  1  0  0  0  0  0  0  0  0  0
    4.5504    1.4427    0.0000 C   0  0  2  0  0  0  0  0  0  0  0  0
    4.1379    0.7282    0.0000 O   0  0  0  0  0  0  0  0  0  0  0  0
    5.3754    1.4427    0.0000 C   0  0  0  0  0  0  0  0  0  0  0  0
    5.7879    2.1571    0.0000 O   0  0  0  0  0  0  0  0  0  0  0  0
    5.7879    0.7282    0.0000 O   0  0  0  0  0  0  0  0  0  0  0  0
    4.5504    2.8716    0.0000 O   0  0  0  0  0  0  0  0  0  0  0  0
    4.1379    3.5861    0.0000 C   0  0  2  0  0  0  0  0  0  0  0  0
    3.5059    4.1164    0.0000 O   0  0  0  0  0  0  0  0  0  0  0  0
    3.6492    4.9288    0.0000 C   0  0  2  0  0  0  0  0  0  0  0  0
    3.0172    5.4591    0.0000 C   0  0  0  0  0  0  0  0  0  0  0  0
    3.1605    6.2716    0.0000 O   0  0  0  0  0  0  0  0  0  0  0  0
    4.4245    5.2110    0.0000 C   0  0  2  0  0  0  0  0  0  0  0  0
    5.0564    4.6807    0.0000 C   0  0  1  0  0  0  0  0  0  0  0  0
    4.9131    3.8682    0.0000 C   0  0  1  0  0  0  0  0  0  0  0  0
    5.5451    3.3379    0.0000 O   0  0  0  0  0  0  0  0  0  0  0  0
    5.8316    4.9628    0.0000 O   0  0  0  0  0  0  0  0  0  0  0  0
    4.5677    6.0234    0.0000 O   0  0  0  0  0  0  0  0  0  0  0  0
    3.5059    3.0558    0.0000 H   0  0  0  0  0  0  0  0  0  0  0  0
    2.5377    0.4460    0.0000 H   0  0  0  0  0  0  0  0  0  0  0  0
    2.0272   -0.9091    0.0000 H   0  0  0  0  0  0  0  0  0  0  0  0
    0.5983   -0.9091    0.0000 H   0  0  0  0  0  0  0  0  0  0  0  0
   -2.2594   -2.5591    0.0000 C   0  0  0  0  0  0  0  0  0  0  0  0
   -2.9738   -2.9716    0.0000 C   0  0  0  0  0  0  0  0  0  0  0  0
   -2.9738   -3.7966    0.0000 C   0  0  2  0  0  0  0  0  0  0  0  0
   -2.2594   -4.2091    0.0000 C   0  0  2  0  0  0  0  0  0  0  0  0
   -2.2594   -5.0341    0.0000 O   0  0  0  0  0  0  0  0  0  0  0  0
   -3.6883   -4.2091    0.0000 O   0  0  0  0  0  0  0  0  0  0  0  0
   -4.4027   -3.7966    0.0000 C   0  0  0  0  0  0  0  0  0  0  0  0
   -5.1172   -4.2091    0.0000 C   0  0  0  0  0  0  0  0  0  0  0  0
   -5.8316   -3.7966    0.0000 C   0  0  0  0  0  0  0  0  0  0  0  0
   -5.7603   -2.9693    0.0000 C   0  0  0  0  0  0  0  0  0  0  0  0
   -5.1172   -5.0341    0.0000 C   0  0  0  0  0  0  0  0  0  0  0  0
   -4.4027   -2.9716    0.0000 O   0  0  0  0  0  0  0  0  0  0  0  0
   -3.2560   -2.1964    0.0000 C   0  0  0  0  0  0  0  0  0  0  0  0
   -3.7862   -3.1148    0.0000 C   0  0  0  0  0  0  0  0  0  0  0  0
   -1.5449   -2.1466    0.0000 H   0  0  0  0  0  0  0  0  0  0  0  0
   -2.9738   -6.2716    0.0000 O   0  0  0  0  0  0  0  0  0  0  0  0
   -3.6883   -5.0341    0.0000 C   0  0  0  0  0  0  0  0  0  0  0  0
   -2.9738   -5.4466    0.0000 C   0  0  0  0  0  0  0  0  0  0  0  0
  1  2  1  0  0  0  0
  3  1  1  6  0  0  0
  3  4  1  0  0  0  0
  4  5  1  0  0  0  0
  5  6  1  0  0  0  0
  7  6  1  0  0  0  0
  8  7  1  0  0  0  0
  3  8  1  0  0  0  0
  8  9  1  1  0  0  0
  6 10  1  1  0  0  0
  6 11  1  0  0  0  0
 11 12  1  6  0  0  0
 11 13  1  0  0  0  0
 14 13  1  0  0  0  0
 15 14  1  0  0  0  0
  5 15  2  0  0  0  0
 13 16  1  0  0  0  0
 16 17  1  6  0  0  0
 16 18  1  0  0  0  0
 19 18  1  0  0  0  0
 20 19  1  0  0  0  0
 11 20  1  0  0  0  0
 18 21  1  0  0  0  0
 21 22  1  0  0  0  0
 22 23  1  0  0  0  0
 21 24  1  1  0  0  0
 21 25  1  0  0  0  0
 26 25  1  0  0  0  0
 27 26  1  0  0  0  0
 16 27  1  0  0  0  0
 25 28  1  6  0  0  0
 28 29  1  0  0  0  0
 29 30  1  0  0  0  0
 30 31  1  6  0  0  0
 31 32  1  0  0  0  0
 32 33  1  0  0  0  0
 33 34  1  0  0  0  0
 34 35  1  1  0  0  0
 35 36  1  0  0  0  0
 34 37  1  0  0  0  0
 38 37  1  0  0  0  0
 39 38  1  0  0  0  0
 32 39  1  0  0  0  0
 39 40  1  6  0  0  0
 38 41  1  1  0  0  0
 37 42  1  6  0  0  0
 32 43  1  6  0  0  0
 30 44  1  0  0  0  0
 44 45  1  1  0  0  0
 44 46  1  0  0  0  0
 47 46  1  0  0  0  0
 48 47  1  0  0  0  0
 29 48  1  0  0  0  0
 47 49  1  1  0  0  0
 49 50  1  0  0  0  0
 49 51  2  0  0  0  0
 46 52  1  6  0  0  0
 52 53  1  0  0  0  0
 53 54  1  0  0  0  0
 54 55  1  0  0  0  0
 55 56  1  6  0  0  0
 56 57  1  0  0  0  0
 55 58  1  0  0  0  0
 59 58  1  0  0  0  0
 60 59  1  0  0  0  0
 53 60  1  0  0  0  0
 60 61  1  1  0  0  0
 59 62  1  6  0  0  0
 58 63  1  1  0  0  0
 53 64  1  1  0  0  0
 29 65  1  6  0  0  0
 18 66  1  1  0  0  0
 13 67  1  1  0  0  0
  4 68  1  0  0  0  0
 68 69  1  0  0  0  0
 70 69  1  0  0  0  0
 71 70  1  0  0  0  0
  3 71  1  0  0  0  0
 71 72  1  1  0  0  0
 70 73  1  6  0  0  0
 73 74  1  0  0  0  0
 74 75  1  0  0  0  0
 75 76  2  0  0  0  0
 76 77  1  0  0  0  0
 75 78  1  0  0  0  0
 74 79  2  0  0  0  0
 69 80  1  0  0  0  0
 69 81  1  0  0  0  0
  4 82  1  6  0  0  0
 85 84  1  0  0  0  0
 85 83  2  0  0  0  0
 72 85  1  0  0  0  0
M  END
> <DATABASE_ID>
DB15774

> <DATABASE_NAME>
drugbank

> <SMILES>
[H][C@@]1(O[C@H]2[C@H](O)[C@@H](O[C@]3([H])O[C@H](CO)[C@@H](O)[C@H](O)[C@H]3O)[C@]([H])(O[C@H]3CC[C@@]4(C)[C@@]([H])(CC[C@]5(C)[C@]4([H])CC=C4[C@]6([H])CC(C)(C)[C@@H](OC(=O)C(\C)=C/C)[C@H](OC(C)=O)[C@]6(CO)[C@H](O)C[C@@]54C)[C@@]3(C)CO)O[C@@H]2C(O)=O)O[C@H](CO)[C@@H](O)[C@H](O)[C@H]1O

> <INCHI_IDENTIFIER>
InChI=1S/C55H86O24/c1-10-23(2)46(71)79-43-44(72-24(3)60)55(22-59)26(17-50(43,4)5)25-11-12-30-51(6)15-14-32(52(7,21-58)29(51)13-16-53(30,8)54(25,9)18-31(55)61)75-49-41(77-48-38(67)36(65)34(63)28(20-57)74-48)39(68)40(42(78-49)45(69)70)76-47-37(66)35(64)33(62)27(19-56)73-47/h10-11,26-44,47-49,56-59,61-68H,12-22H2,1-9H3,(H,69,70)/b23-10-/t26-,27+,28+,29+,30+,31+,32-,33+,34+,35-,36-,37+,38+,39-,40-,41+,42-,43-,44-,47-,48-,49+,51-,52+,53+,54+,55-/m0/s1

> <INCHI_KEY>
AXNVHPCVMSNXNP-OXPBSUTMSA-N

> <FORMULA>
C55H86O24

> <MOLECULAR_WEIGHT>
1131.269

> <EXACT_MASS>
1130.550903649

> <JCHEM_ACCEPTOR_COUNT>
22

> <JCHEM_ATOM_COUNT>
165

> <JCHEM_AVERAGE_NEUTRAL_MICROSPECIES_CHARGE>
-0.9997989552927097

> <JCHEM_AVERAGE_POLARIZABILITY>
118.85395138824931

> <JCHEM_BIOAVAILABILITY>
0

> <JCHEM_DONOR_COUNT>
13

> <JCHEM_FORMAL_CHARGE>
0

> <JCHEM_GHOSE_FILTER>
0

> <JCHEM_IUPAC>
(2S,3S,4S,5R,6R)-6-{[(3S,4S,4aR,6aR,6bS,8R,8aR,9R,10R,12aS,14aR,14bR)-9-(acetyloxy)-8-hydroxy-4,8a-bis(hydroxymethyl)-4,6a,6b,11,11,14b-hexamethyl-10-{[(2Z)-2-methylbut-2-enoyl]oxy}-1,2,3,4,4a,5,6,6a,6b,7,8,8a,9,10,11,12,12a,14,14a,14b-icosahydropicen-3-yl]oxy}-4-hydroxy-3,5-bis({[(2S,3R,4S,5S,6R)-3,4,5-trihydroxy-6-(hydroxymethyl)oxan-2-yl]oxy})oxane-2-carboxylic acid

> <ALOGPS_LOGP>
1.17

> <JCHEM_LOGP>
-0.8771895139999987

> <ALOGPS_LOGS>
-3.17

> <JCHEM_MDDR_LIKE_RULE>
1

> <JCHEM_NEUTRAL_CHARGE>
-1

> <JCHEM_NUMBER_OF_RINGS>
8

> <JCHEM_PHYSIOLOGICAL_CHARGE>
-1

> <JCHEM_PKA>
11.904149483257454

> <JCHEM_PKA_STRONGEST_ACIDIC>
3.3492294373675966

> <JCHEM_PKA_STRONGEST_BASIC>
-3.6483775957536886

> <JCHEM_POLAR_SURFACE_AREA>
388.04

> <JCHEM_REFRACTIVITY>
269.7838000000001

> <JCHEM_ROTATABLE_BOND_COUNT>
16

> <JCHEM_RULE_OF_FIVE>
0

> <ALOGPS_SOLUBILITY>
7.73e-01 g/l

> <JCHEM_TRADITIONAL_IUPAC>
unii-71TH42O2CQ

> <JCHEM_VEBER_RULE>
0

> <DRUGBANK_ID>
DB15774

> <DRUG_GROUPS>
experimental

> <GENERIC_NAME>
beta-Escin

> <SYNONYMS>
Aescin B; beta-Aescin; beta-Escin

> <INTERNATIONAL_BRANDS>
Flogencyl

$$$$
