
  Mrv1572004221605082D          

 18 20  0  0  0  0            999 V2000
   -0.1712    1.5229    0.0000 C   0  0  0  0  0  0  0  0  0  0  0  0
    3.3523    1.1104    0.0000 C   0  0  0  0  0  0  0  0  0  0  0  0
    3.3523    1.9354    0.0000 C   0  0  0  0  0  0  0  0  0  0  0  0
    2.6378    0.6979    0.0000 C   0  0  0  0  0  0  0  0  0  0  0  0
    2.6378    2.3479    0.0000 C   0  0  0  0  0  0  0  0  0  0  0  0
   -0.1781    3.9312    0.0000 C   0  0  0  0  0  0  0  0  0  0  0  0
   -0.4752    2.5334    0.0000 C   0  0  0  0  0  0  0  0  0  0  0  0
   -0.9851    4.1027    0.0000 C   0  0  0  0  0  0  0  0  0  0  0  0
   -1.2822    2.7050    0.0000 C   0  0  0  0  0  0  0  0  0  0  0  0
    0.8838    2.9750    0.0000 C   0  0  0  0  0  0  0  0  0  0  0  0
    0.6538    1.5229    0.0000 C   0  0  0  0  0  0  0  0  0  0  0  0
    0.0768    3.1465    0.0000 C   0  0  0  0  0  0  0  0  0  0  0  0
   -1.5371    3.4896    0.0000 C   0  0  0  0  0  0  0  0  0  0  0  0
    1.9233    1.1104    0.0000 C   0  0  0  0  0  0  0  0  0  0  0  0
    1.9233    1.9354    0.0000 C   0  0  0  0  0  0  0  0  0  0  0  0
   -2.3441    3.6611    0.0000 Cl  0  0  0  0  0  0  0  0  0  0  0  0
    1.1387    0.8555    0.0000 N   0  0  0  0  0  0  0  0  0  0  0  0
    1.1387    2.1904    0.0000 N   0  0  0  0  0  0  0  0  0  0  0  0
  3  2  2  0  0  0  0
  4  2  1  0  0  0  0
  5  3  1  0  0  0  0
  8  6  1  0  0  0  0
  9  7  2  0  0  0  0
 11  1  1  0  0  0  0
 12  6  2  0  0  0  0
 12  7  1  0  0  0  0
 12 10  1  0  0  0  0
 13  8  2  0  0  0  0
 13  9  1  0  0  0  0
 14  4  2  0  0  0  0
 15  5  2  0  0  0  0
 15 14  1  0  0  0  0
 16 13  1  0  0  0  0
 17 11  2  0  0  0  0
 17 14  1  0  0  0  0
 18 10  1  0  0  0  0
 18 11  1  0  0  0  0
 18 15  1  0  0  0  0
M  END
> <DATABASE_ID>
DB13611

> <DATABASE_NAME>
drugbank

> <SMILES>
CC1=NC2=CC=CC=C2N1CC1=CC=C(Cl)C=C1

> <INCHI_IDENTIFIER>
InChI=1S/C15H13ClN2/c1-11-17-14-4-2-3-5-15(14)18(11)10-12-6-8-13(16)9-7-12/h2-9H,10H2,1H3

> <INCHI_KEY>
WNAQOLSMVPFGTE-UHFFFAOYSA-N

> <FORMULA>
C15H13ClN2

> <MOLECULAR_WEIGHT>
256.73

> <EXACT_MASS>
256.0767261

> <JCHEM_ACCEPTOR_COUNT>
1

> <JCHEM_ATOM_COUNT>
31

> <JCHEM_AVERAGE_POLARIZABILITY>
27.46221932762352

> <JCHEM_BIOAVAILABILITY>
1

> <JCHEM_DONOR_COUNT>
0

> <JCHEM_FORMAL_CHARGE>
0

> <JCHEM_GHOSE_FILTER>
1

> <JCHEM_IUPAC>
1-[(4-chlorophenyl)methyl]-2-methyl-1H-1,3-benzodiazole

> <ALOGPS_LOGP>
4.34

> <JCHEM_LOGP>
3.934762589

> <ALOGPS_LOGS>
-4.17

> <JCHEM_MDDR_LIKE_RULE>
0

> <JCHEM_NUMBER_OF_RINGS>
3

> <JCHEM_PHYSIOLOGICAL_CHARGE>
0

> <JCHEM_PKA_STRONGEST_BASIC>
6.132835839726233

> <JCHEM_POLAR_SURFACE_AREA>
17.82

> <JCHEM_REFRACTIVITY>
73.7233

> <JCHEM_ROTATABLE_BOND_COUNT>
2

> <JCHEM_RULE_OF_FIVE>
1

> <ALOGPS_SOLUBILITY>
1.73e-02 g/l

> <JCHEM_TRADITIONAL_IUPAC>
chlormidazole

> <JCHEM_VEBER_RULE>
1

> <DRUGBANK_ID>
DB13611

> <DRUG_GROUPS>
experimental

> <GENERIC_NAME>
Chlormidazole

> <SYNONYMS>
Chlormidazole

$$$$
