
  Mrv1909 01102015332D          

 54 57  0  0  0  0            999 V2000
   -3.5708   -0.1750    0.0000 C   0  0  0  0  0  0  0  0  0  0  0  0
   -2.8106    0.3151    0.0000 C   0  0  0  0  0  0  0  0  0  0  0  0
   -2.5606    1.0952    0.0000 C   0  0  0  0  0  0  0  0  0  0  0  0
   -1.7303    1.0952    0.0000 C   0  0  1  0  0  0  0  0  0  0  0  0
   -1.4803    0.3151    0.0000 N   0  0  0  0  0  0  0  0  0  0  0  0
   -0.7101   -0.1750    0.0000 C   0  0  0  0  0  0  0  0  0  0  0  0
   -0.7101   -0.9951    0.0000 C   0  0  2  0  0  0  0  0  0  0  0  0
    0.0000   -1.4053    0.0000 N   0  0  0  0  0  0  0  0  0  0  0  0
    0.0000   -2.2355    0.0000 C   0  0  0  0  0  0  0  0  0  0  0  0
    0.7101   -2.6455    0.0000 C   0  0  0  0  0  0  0  0  0  0  0  0
    0.7101   -3.4658    0.0000 C   0  0  1  0  0  0  0  0  0  0  0  0
    0.0000   -3.8858    0.0000 N   0  0  0  0  0  0  0  0  0  0  0  0
   -0.7101   -3.4658    0.0000 C   0  0  0  0  0  0  0  0  0  0  0  0
   -1.4303   -3.8858    0.0000 C   0  0  2  0  0  0  0  0  0  0  0  0
   -1.6003   -4.6860    0.0000 C   0  0  0  0  0  0  0  0  0  0  0  0
   -2.4206   -4.7760    0.0000 C   0  0  0  0  0  0  0  0  0  0  0  0
   -2.7606   -4.0259    0.0000 C   0  0  0  0  0  0  0  0  0  0  0  0
   -2.1405   -3.4658    0.0000 N   0  0  0  0  0  0  0  0  0  0  0  0
   -2.1405   -2.6455    0.0000 C   0  0  0  0  0  0  0  0  0  0  0  0
   -2.8606   -2.2355    0.0000 C   0  0  2  0  0  0  0  0  0  0  0  0
   -2.8606   -1.4053    0.0000 C   0  0  0  0  0  0  0  0  0  0  0  0
   -3.5708   -0.9951    0.0000 N   0  0  0  0  0  0  0  0  0  0  0  0
   -4.2910    0.2251    0.0000 O   0  0  0  0  0  0  0  0  0  0  0  0
   -1.2502    1.7654    0.0000 C   0  0  0  0  0  0  0  0  0  0  0  0
   -1.5803    2.5155    0.0000 C   0  0  0  0  0  0  0  0  0  0  0  0
   -2.4005    2.6055    0.0000 C   0  0  0  0  0  0  0  0  0  0  0  0
   -2.7406    3.3557    0.0000 C   0  0  0  0  0  0  0  0  0  0  0  0
   -2.2505    4.0259    0.0000 C   0  0  0  0  0  0  0  0  0  0  0  0
   -1.4303    3.9459    0.0000 C   0  0  0  0  0  0  0  0  0  0  0  0
   -1.1002    3.1857    0.0000 C   0  0  0  0  0  0  0  0  0  0  0  0
   -2.5905    4.7760    0.0000 O   0  0  0  0  0  0  0  0  0  0  0  0
    0.0100    0.2251    0.0000 O   0  0  0  0  0  0  0  0  0  0  0  0
    0.0000   -0.5851    0.0000 C   0  0  0  0  0  0  0  0  0  0  0  0
    0.7101   -0.9951    0.0000 C   0  0  0  0  0  0  0  0  0  0  0  0
    1.4303   -0.5851    0.0000 C   0  0  0  0  0  0  0  0  0  0  0  0
    2.1405   -0.9951    0.0000 C   0  0  0  0  0  0  0  0  0  0  0  0
    2.1405   -1.8254    0.0000 C   0  0  0  0  0  0  0  0  0  0  0  0
    1.4303   -2.2355    0.0000 C   0  0  0  0  0  0  0  0  0  0  0  0
    0.7101   -1.8254    0.0000 C   0  0  0  0  0  0  0  0  0  0  0  0
   -0.7101   -2.6455    0.0000 O   0  0  0  0  0  0  0  0  0  0  0  0
    1.5304   -2.7357    0.0000 O   0  0  0  0  0  0  0  0  0  0  0  0
    1.4303   -3.8858    0.0000 C   0  0  0  0  0  0  0  0  0  0  0  0
    2.1405   -3.4658    0.0000 C   0  0  0  0  0  0  0  0  0  0  0  0
    2.8606   -3.8858    0.0000 C   0  0  0  0  0  0  0  0  0  0  0  0
    3.5708   -3.4658    0.0000 N   0  0  0  0  0  0  0  0  0  0  0  0
    4.2910   -3.8858    0.0000 C   0  0  0  0  0  0  0  0  0  0  0  0
    4.2910   -4.7061    0.0000 N   0  0  0  0  0  0  0  0  0  0  0  0
    5.0011   -3.4658    0.0000 N   0  0  0  0  0  0  0  0  0  0  0  0
   -1.2003   -2.8056    0.0000 O   0  0  0  0  0  0  0  0  0  0  0  0
   -1.4303   -2.2355    0.0000 O   0  0  0  0  0  0  0  0  0  0  0  0
   -3.5708   -2.6455    0.0000 N   0  0  0  0  0  0  0  0  0  0  0  0
   -4.2910   -2.2355    0.0000 C   0  0  0  0  0  0  0  0  0  0  0  0
   -5.0011   -2.6455    0.0000 O   0  0  0  0  0  0  0  0  0  0  0  0
   -0.6201   -4.4660    0.0000 H   0  0  0  0  0  0  0  0  0  0  0  0
  1  2  1  0  0  0  0
  1 22  1  0  0  0  0
  1 23  2  0  0  0  0
  2  3  2  0  0  0  0
  3  4  1  0  0  0  0
  4  5  1  0  0  0  0
  4 24  1  6  0  0  0
  5  6  1  0  0  0  0
  6  7  1  0  0  0  0
  6 32  2  0  0  0  0
  7  8  1  0  0  0  0
  7 33  1  6  0  0  0
  8  9  1  0  0  0  0
  9 10  1  0  0  0  0
  9 40  2  0  0  0  0
 10 11  1  0  0  0  0
 10 41  2  0  0  0  0
 11 12  1  0  0  0  0
 11 42  1  6  0  0  0
 12 13  1  0  0  0  0
 13 14  1  0  0  0  0
 13 49  2  0  0  0  0
 14 15  1  0  0  0  0
 14 18  1  0  0  0  0
 14 54  1  1  0  0  0
 15 16  1  0  0  0  0
 16 17  1  0  0  0  0
 17 18  1  0  0  0  0
 18 19  1  0  0  0  0
 19 20  1  0  0  0  0
 19 50  2  0  0  0  0
 20 21  1  0  0  0  0
 20 51  1  1  0  0  0
 21 22  1  0  0  0  0
 24 25  1  0  0  0  0
 25 26  2  0  0  0  0
 25 30  1  0  0  0  0
 26 27  1  0  0  0  0
 27 28  2  0  0  0  0
 28 29  1  0  0  0  0
 28 31  1  0  0  0  0
 29 30  2  0  0  0  0
 33 34  1  0  0  0  0
 34 35  2  0  0  0  0
 34 39  1  0  0  0  0
 35 36  1  0  0  0  0
 36 37  2  0  0  0  0
 37 38  1  0  0  0  0
 38 39  2  0  0  0  0
 42 43  1  0  0  0  0
 43 44  1  0  0  0  0
 44 45  1  0  0  0  0
 45 46  1  0  0  0  0
 46 47  1  0  0  0  0
 46 48  2  0  0  0  0
 51 52  1  0  0  0  0
 52 53  2  0  0  0  0
M  END
> <DATABASE_ID>
DB04269

> <DATABASE_NAME>
drugbank

> <SMILES>
[H][C@@]12CCCN1C(=O)[C@H](CNC(=O)\C=C\[C@H](CC1=CC=C(O)C=C1)NC(=O)[C@@H](CC1=CC=CC=C1)NC(=O)C(=O)[C@H](CCCNC(N)=N)NC2=O)NC=O

> <INCHI_IDENTIFIER>
InChI=1S/C36H45N9O8/c37-36(38)39-16-4-8-26-31(49)34(52)44-27(19-22-6-2-1-3-7-22)32(50)42-24(18-23-10-13-25(47)14-11-23)12-15-30(48)40-20-28(41-21-46)35(53)45-17-5-9-29(45)33(51)43-26/h1-3,6-7,10-15,21,24,26-29,47H,4-5,8-9,16-20H2,(H,40,48)(H,41,46)(H,42,50)(H,43,51)(H,44,52)(H4,37,38,39)/b15-12+/t24-,26+,27-,28+,29+/m1/s1

> <INCHI_KEY>
CDWXSPKJKIUEQF-BIXWYCRZSA-N

> <FORMULA>
C36H45N9O8

> <MOLECULAR_WEIGHT>
731.798

> <EXACT_MASS>
731.339109461

> <JCHEM_ACCEPTOR_COUNT>
11

> <JCHEM_ATOM_COUNT>
98

> <JCHEM_AVERAGE_NEUTRAL_MICROSPECIES_CHARGE>
0.9967918419218489

> <JCHEM_AVERAGE_POLARIZABILITY>
73.16560577375242

> <JCHEM_BIOAVAILABILITY>
0

> <JCHEM_DONOR_COUNT>
9

> <JCHEM_FORMAL_CHARGE>
0

> <JCHEM_GHOSE_FILTER>
0

> <JCHEM_IUPAC>
N-[(3S,7R,10S,16S,21aS)-7-benzyl-3-(3-carbamimidamidopropyl)-10-[(4-hydroxyphenyl)methyl]-1,4,5,8,13,17-hexaoxo-1H,2H,3H,4H,5H,6H,7H,8H,9H,10H,13H,14H,15H,16H,17H,19H,20H,21H,21aH-pyrrolo[2,1-j]1,4,8,11,15-pentaazacyclononadecan-16-yl]formamide

> <ALOGPS_LOGP>
-0.36

> <JCHEM_LOGP>
-1.3554396299900642

> <ALOGPS_LOGS>
-4.21

> <JCHEM_MDDR_LIKE_RULE>
1

> <JCHEM_NEUTRAL_CHARGE>
1

> <JCHEM_NUMBER_OF_RINGS>
4

> <JCHEM_PHYSIOLOGICAL_CHARGE>
1

> <JCHEM_PKA>
11.465193930583082

> <JCHEM_PKA_STRONGEST_ACIDIC>
9.498394713326846

> <JCHEM_PKA_STRONGEST_BASIC>
11.936422165473024

> <JCHEM_POLAR_SURFACE_AREA>
265.01

> <JCHEM_REFRACTIVITY>
202.63989999999998

> <JCHEM_ROTATABLE_BOND_COUNT>
9

> <JCHEM_RULE_OF_FIVE>
0

> <ALOGPS_SOLUBILITY>
4.53e-02 g/l

> <JCHEM_TRADITIONAL_IUPAC>
(2S)-2-[(4-{2-[(6S)-2-amino-4-oxo-1H,5H,6H,7H,8H-pyrido[2,3-d]pyrimidin-6-yl]ethyl}phenyl)formamido]pentanedioic acid

> <JCHEM_VEBER_RULE>
0

> <DRUGBANK_ID>
DB04269

> <SECONDARY_ACCESSION_NUMBERS>
EXPT01047

> <DRUG_GROUPS>
experimental

> <GENERIC_NAME>
Cyclotheonamide A

$$$$
