
  Mrv1909 12152018042D          

 17 18  0  0  1  0            999 V2000
    0.7145    6.7661    0.0000 N   0  0  0  0  0  0  0  0  0  0  0  0
    0.7145    5.9411    0.0000 C   0  0  0  0  0  0  0  0  0  0  0  0
    1.4289    5.5286    0.0000 N   0  0  0  0  0  0  0  0  0  0  0  0
    1.4289    4.7036    0.0000 C   0  0  0  0  0  0  0  0  0  0  0  0
    2.1434    4.2911    0.0000 O   0  0  0  0  0  0  0  0  0  0  0  0
    0.7145    4.2911    0.0000 N   0  0  0  0  0  0  0  0  0  0  0  0
    0.0000    4.7036    0.0000 C   0  0  0  0  0  0  0  0  0  0  0  0
   -0.0000    5.5286    0.0000 C   0  0  0  0  0  0  0  0  0  0  0  0
    0.7145    3.4661    0.0000 C   0  0  2  0  0  0  0  0  0  0  0  0
    1.3819    2.9812    0.0000 S   0  0  0  0  0  0  0  0  0  0  0  0
    1.1270    2.1965    0.0000 C   0  0  2  0  0  0  0  0  0  0  0  0
    1.6119    1.5291    0.0000 C   0  0  0  0  0  0  0  0  0  0  0  0
    2.4324    1.6153    0.0000 O   0  0  0  0  0  0  0  0  0  0  0  0
    0.3020    2.1965    0.0000 C   0  0  1  0  0  0  0  0  0  0  0  0
   -0.1830    1.5291    0.0000 O   0  0  0  0  0  0  0  0  0  0  0  0
    0.0470    2.9812    0.0000 C   0  0  2  0  0  0  0  0  0  0  0  0
   -0.7376    3.2361    0.0000 F   0  0  0  0  0  0  0  0  0  0  0  0
  1  2  1  0  0  0  0
  2  3  2  0  0  0  0
  3  4  1  0  0  0  0
  4  5  2  0  0  0  0
  4  6  1  0  0  0  0
  6  7  1  0  0  0  0
  7  8  2  0  0  0  0
  2  8  1  0  0  0  0
  9  6  1  6  0  0  0
  9 10  1  0  0  0  0
 11 10  1  0  0  0  0
 11 12  1  6  0  0  0
 12 13  1  0  0  0  0
 14 11  1  0  0  0  0
 14 15  1  1  0  0  0
 14 16  1  0  0  0  0
 16  9  1  0  0  0  0
 16 17  1  6  0  0  0
M  END
> <DATABASE_ID>
DB16071

> <DATABASE_NAME>
drugbank

> <SMILES>
NC1=NC(=O)N(C=C1)[C@@H]1S[C@H](CO)[C@@H](O)[C@@H]1F

> <INCHI_IDENTIFIER>
InChI=1S/C9H12FN3O3S/c10-6-7(15)4(3-14)17-8(6)13-2-1-5(11)12-9(13)16/h1-2,4,6-8,14-15H,3H2,(H2,11,12,16)/t4-,6+,7-,8-/m1/s1

> <INCHI_KEY>
NIDPJRZOVFIBQB-PXBUCIJWSA-N

> <FORMULA>
C9H12FN3O3S

> <MOLECULAR_WEIGHT>
261.27

> <EXACT_MASS>
261.058340595

> <JCHEM_ACCEPTOR_COUNT>
5

> <JCHEM_ATOM_COUNT>
29

> <JCHEM_AVERAGE_NEUTRAL_MICROSPECIES_CHARGE>
0.001627162933691618

> <JCHEM_AVERAGE_POLARIZABILITY>
23.860275948628406

> <JCHEM_BIOAVAILABILITY>
1

> <JCHEM_DONOR_COUNT>
3

> <JCHEM_FORMAL_CHARGE>
0

> <JCHEM_GHOSE_FILTER>
0

> <JCHEM_IUPAC>
4-amino-1-[(2R,3S,4S,5R)-3-fluoro-4-hydroxy-5-(hydroxymethyl)thiolan-2-yl]-1,2-dihydropyrimidin-2-one

> <ALOGPS_LOGP>
-1.23

> <JCHEM_LOGP>
-1.5952946913333332

> <ALOGPS_LOGS>
-1.45

> <JCHEM_MDDR_LIKE_RULE>
0

> <JCHEM_NEUTRAL_CHARGE>
0

> <JCHEM_NUMBER_OF_RINGS>
2

> <JCHEM_PHYSIOLOGICAL_CHARGE>
0

> <JCHEM_PKA>
15.091998151081613

> <JCHEM_PKA_STRONGEST_ACIDIC>
13.200617246072694

> <JCHEM_PKA_STRONGEST_BASIC>
4.212308807812011

> <JCHEM_POLAR_SURFACE_AREA>
99.15

> <JCHEM_REFRACTIVITY>
59.2035

> <JCHEM_ROTATABLE_BOND_COUNT>
2

> <JCHEM_RULE_OF_FIVE>
1

> <ALOGPS_SOLUBILITY>
9.18e+00 g/l

> <JCHEM_TRADITIONAL_IUPAC>
5-({4-[2-(3-methoxyphenyl)-2-oxoethoxy]phenyl}methyl)-1,3-thiazolidine-2,4-dione

> <JCHEM_VEBER_RULE>
0

> <DRUGBANK_ID>
DB16071

> <DRUG_GROUPS>
investigational

> <GENERIC_NAME>
4'-Thio-fac

> <SYNONYMS>
4-Amino-1-[(2R,3S,4S,5R)-3-Fluoro-4-Hydroxy-5-(Hydroxymethyl)Tetrahydrothiophen-2-Yl] Pyrimidin-2(1H)-One

$$$$
