
  Mrv1572004221605282D          

 14 15  0  0  0  0            999 V2000
   -2.0367    6.0027    0.0000 C   0  0  0  0  0  0  0  0  0  0  0  0
   -0.6078    3.5277    0.0000 C   0  0  0  0  0  0  0  0  0  0  0  0
   -2.0367    3.5277    0.0000 C   0  0  0  0  0  0  0  0  0  0  0  0
   -0.6078    4.3527    0.0000 C   0  0  0  0  0  0  0  0  0  0  0  0
   -2.0367    4.3527    0.0000 C   0  0  0  0  0  0  0  0  0  0  0  0
   -0.6548    1.8053    0.0000 C   0  0  0  0  0  0  0  0  0  0  0  0
   -1.3222    3.1152    0.0000 C   0  0  0  0  0  0  0  0  0  0  0  0
   -1.3222    4.7652    0.0000 C   0  0  0  0  0  0  0  0  0  0  0  0
   -1.3222    2.2902    0.0000 C   0  0  0  0  0  0  0  0  0  0  0  0
   -0.9097    1.0206    0.0000 C   0  0  0  0  0  0  0  0  0  0  0  0
   -1.3222    5.5902    0.0000 O   0  0  0  0  0  0  0  0  0  0  0  0
   -0.4248    0.3532    0.0000 S   0  0  0  0  0  0  0  0  0  0  0  0
   -1.9897    1.8053    0.0000 S   0  0  0  0  0  0  0  0  0  0  0  0
   -1.7347    1.0206    0.0000 S   0  0  0  0  0  0  0  0  0  0  0  0
  4  2  1  0  0  0  0
  5  3  2  0  0  0  0
  7  2  2  0  0  0  0
  7  3  1  0  0  0  0
  8  4  2  0  0  0  0
  8  5  1  0  0  0  0
  9  6  2  0  0  0  0
  9  7  1  0  0  0  0
 10  6  1  0  0  0  0
 11  1  1  0  0  0  0
 11  8  1  0  0  0  0
 12 10  2  0  0  0  0
 13  9  1  0  0  0  0
 14 10  1  0  0  0  0
 14 13  1  0  0  0  0
M  END
> <DATABASE_ID>
DB13853

> <DATABASE_NAME>
drugbank

> <SMILES>
COC1=CC=C(C=C1)C1=CC(=S)SS1

> <INCHI_IDENTIFIER>
InChI=1S/C10H8OS3/c1-11-8-4-2-7(3-5-8)9-6-10(12)14-13-9/h2-6H,1H3

> <INCHI_KEY>
KYLIZBIRMBGUOP-UHFFFAOYSA-N

> <FORMULA>
C10H8OS3

> <MOLECULAR_WEIGHT>
240.35

> <EXACT_MASS>
239.9737284

> <JCHEM_ACCEPTOR_COUNT>
1

> <JCHEM_ATOM_COUNT>
22

> <JCHEM_AVERAGE_POLARIZABILITY>
24.78246841430543

> <JCHEM_BIOAVAILABILITY>
1

> <JCHEM_DONOR_COUNT>
0

> <JCHEM_FORMAL_CHARGE>
0

> <JCHEM_GHOSE_FILTER>
1

> <JCHEM_IUPAC>
5-(4-methoxyphenyl)-3H-1,2-dithiole-3-thione

> <ALOGPS_LOGP>
3.58

> <JCHEM_LOGP>
3.2866038476666666

> <ALOGPS_LOGS>
-4.44

> <JCHEM_MDDR_LIKE_RULE>
0

> <JCHEM_NUMBER_OF_RINGS>
2

> <JCHEM_PHYSIOLOGICAL_CHARGE>
0

> <JCHEM_PKA_STRONGEST_BASIC>
-4.828975083439206

> <JCHEM_POLAR_SURFACE_AREA>
9.23

> <JCHEM_REFRACTIVITY>
70.15090000000001

> <JCHEM_ROTATABLE_BOND_COUNT>
2

> <JCHEM_RULE_OF_FIVE>
1

> <ALOGPS_SOLUBILITY>
8.79e-03 g/l

> <JCHEM_TRADITIONAL_IUPAC>
halpen

> <JCHEM_VEBER_RULE>
1

> <DRUGBANK_ID>
DB13853

> <DRUG_GROUPS>
approved; experimental

> <GENERIC_NAME>
Anethole trithione

> <SYNONYMS>
Anetholtrithion

> <PRODUCTS>
Sialor; Sialor Tab 25mg; Sulfarlem Tab 12.5mg

$$$$
