
  Mrv1652306131722002D          

 48 54  0  0  1  0            999 V2000
   11.3786   -5.0930    0.0000 C   0  0  0  0  0  0  0  0  0  0  0  0
   10.6641   -5.5055    0.0000 C   0  0  0  0  0  0  0  0  0  0  0  0
    9.9496   -5.0930    0.0000 C   0  0  0  0  0  0  0  0  0  0  0  0
   10.6641   -6.3305    0.0000 N   0  0  0  0  0  0  0  0  0  0  0  0
   11.3316   -6.8154    0.0000 C   0  0  0  0  0  0  0  0  0  0  0  0
   11.0766   -7.6000    0.0000 C   0  0  0  0  0  0  0  0  0  0  0  0
   10.2516   -7.6000    0.0000 N   0  0  0  0  0  0  0  0  0  0  0  0
    9.9967   -6.8154    0.0000 C   0  0  0  0  0  0  0  0  0  0  0  0
    9.2121   -6.5605    0.0000 O   0  0  0  0  0  0  0  0  0  0  0  0
    9.7667   -8.2675    0.0000 C   0  0  0  0  0  0  0  0  0  0  0  0
   10.1023   -9.0211    0.0000 C   0  0  0  0  0  0  0  0  0  0  0  0
    9.6173   -9.6886    0.0000 C   0  0  0  0  0  0  0  0  0  0  0  0
    8.7968   -9.6023    0.0000 C   0  0  0  0  0  0  0  0  0  0  0  0
    8.4613   -8.8487    0.0000 C   0  0  0  0  0  0  0  0  0  0  0  0
    8.9462   -8.1812    0.0000 C   0  0  0  0  0  0  0  0  0  0  0  0
    8.3119  -10.2698    0.0000 N   0  0  0  0  0  0  0  0  0  0  0  0
    8.6475  -11.0235    0.0000 C   0  0  0  0  0  0  0  0  0  0  0  0
    8.1626  -11.6909    0.0000 C   0  0  0  0  0  0  0  0  0  0  0  0
    7.3421  -11.6047    0.0000 N   0  0  0  0  0  0  0  0  0  0  0  0
    7.0065  -10.8510    0.0000 C   0  0  0  0  0  0  0  0  0  0  0  0
    7.4914  -10.1836    0.0000 C   0  0  0  0  0  0  0  0  0  0  0  0
    6.8572  -12.2721    0.0000 C   0  0  0  0  0  0  0  0  0  0  0  0
    7.1927  -13.0258    0.0000 C   0  0  0  0  0  0  0  0  0  0  0  0
    6.7078  -13.6932    0.0000 C   0  0  0  0  0  0  0  0  0  0  0  0
    5.8873  -13.6070    0.0000 C   0  0  0  0  0  0  0  0  0  0  0  0
    5.5518  -12.8533    0.0000 C   0  0  0  0  0  0  0  0  0  0  0  0
    6.0367  -12.1859    0.0000 C   0  0  0  0  0  0  0  0  0  0  0  0
    5.4024  -14.2744    0.0000 O   0  0  0  0  0  0  0  0  0  0  0  0
    4.5819  -14.1882    0.0000 C   0  0  0  0  0  0  0  0  0  0  0  0
    4.0970  -14.8556    0.0000 C   0  0  1  0  0  0  0  0  0  0  0  0
    4.3519  -15.6402    0.0000 O   0  0  0  0  0  0  0  0  0  0  0  0
    3.6845  -16.1252    0.0000 C   0  0  0  0  0  0  0  0  0  0  0  0
    3.0170  -15.6402    0.0000 C   0  0  2  0  0  0  0  0  0  0  0  0
    3.2720  -14.8556    0.0000 O   0  0  0  0  0  0  0  0  0  0  0  0
    2.4586  -16.2475    0.0000 C   0  0  0  0  0  0  0  0  0  0  0  0
    2.7053  -17.0348    0.0000 N   0  0  0  0  0  0  0  0  0  0  0  0
    3.4872  -17.2979    0.0000 C   0  0  0  0  0  0  0  0  0  0  0  0
    3.4786  -18.1229    0.0000 N   0  0  0  0  0  0  0  0  0  0  0  0
    2.6914  -18.3696    0.0000 C   0  0  0  0  0  0  0  0  0  0  0  0
    2.2134  -17.6971    0.0000 N   0  0  0  0  0  0  0  0  0  0  0  0
    2.2083  -15.4772    0.0000 C   0  0  0  0  0  0  0  0  0  0  0  0
    1.6627  -16.0960    0.0000 C   0  0  0  0  0  0  0  0  0  0  0  0
    0.8540  -15.9330    0.0000 C   0  0  0  0  0  0  0  0  0  0  0  0
    0.5909  -15.1510    0.0000 C   0  0  0  0  0  0  0  0  0  0  0  0
    1.1365  -14.5322    0.0000 C   0  0  0  0  0  0  0  0  0  0  0  0
    1.9452  -14.6953    0.0000 C   0  0  0  0  0  0  0  0  0  0  0  0
    2.4908  -14.0764    0.0000 F   0  0  0  0  0  0  0  0  0  0  0  0
   -0.2178  -14.9880    0.0000 F   0  0  0  0  0  0  0  0  0  0  0  0
  1  2  1  0  0  0  0
  2  3  1  0  0  0  0
  2  4  1  0  0  0  0
  4  5  1  0  0  0  0
  5  6  1  0  0  0  0
  6  7  1  0  0  0  0
  7  8  1  0  0  0  0
  4  8  1  0  0  0  0
  8  9  2  0  0  0  0
  7 10  1  0  0  0  0
 10 11  2  0  0  0  0
 11 12  1  0  0  0  0
 12 13  2  0  0  0  0
 13 14  1  0  0  0  0
 14 15  2  0  0  0  0
 10 15  1  0  0  0  0
 13 16  1  0  0  0  0
 16 17  1  0  0  0  0
 17 18  1  0  0  0  0
 18 19  1  0  0  0  0
 19 20  1  0  0  0  0
 20 21  1  0  0  0  0
 16 21  1  0  0  0  0
 19 22  1  0  0  0  0
 22 23  2  0  0  0  0
 23 24  1  0  0  0  0
 24 25  2  0  0  0  0
 25 26  1  0  0  0  0
 26 27  2  0  0  0  0
 22 27  1  0  0  0  0
 25 28  1  0  0  0  0
 28 29  1  0  0  0  0
 30 29  1  1  0  0  0
 30 31  1  0  0  0  0
 31 32  1  0  0  0  0
 32 33  1  0  0  0  0
 33 34  1  0  0  0  0
 30 34  1  0  0  0  0
 33 35  1  1  0  0  0
 35 36  1  0  0  0  0
 36 37  1  0  0  0  0
 37 38  2  0  0  0  0
 38 39  1  0  0  0  0
 39 40  2  0  0  0  0
 36 40  1  0  0  0  0
 33 41  1  6  0  0  0
 41 42  2  0  0  0  0
 42 43  1  0  0  0  0
 43 44  2  0  0  0  0
 44 45  1  0  0  0  0
 45 46  2  0  0  0  0
 41 46  1  0  0  0  0
 46 47  1  0  0  0  0
 44 48  1  0  0  0  0
M  END
> <DATABASE_ID>
DB06295

> <DATABASE_NAME>
drugbank

> <SMILES>
CC(C)N1CCN(C1=O)C1=CC=C(C=C1)N1CCN(CC1)C1=CC=C(OC[C@H]2OC[C@@](CN3C=NC=N3)(O2)C2=CC=C(F)C=C2F)C=C1

> <INCHI_IDENTIFIER>
InChI=1S/C35H39F2N7O4/c1-25(2)43-17-18-44(34(43)45)29-6-4-27(5-7-29)40-13-15-41(16-14-40)28-8-10-30(11-9-28)46-20-33-47-22-35(48-33,21-42-24-38-23-39-42)31-12-3-26(36)19-32(31)37/h3-12,19,23-25,33H,13-18,20-22H2,1-2H3/t33-,35+/m0/s1

> <INCHI_KEY>
AEKNYBWUEYNWMJ-QWOOXDRHSA-N

> <FORMULA>
C35H39F2N7O4

> <MOLECULAR_WEIGHT>
659.739

> <EXACT_MASS>
659.30315909

> <JCHEM_ACCEPTOR_COUNT>
8

> <JCHEM_ATOM_COUNT>
87

> <JCHEM_AVERAGE_POLARIZABILITY>
69.62065619196716

> <JCHEM_BIOAVAILABILITY>
0

> <JCHEM_DONOR_COUNT>
0

> <JCHEM_FORMAL_CHARGE>
0

> <JCHEM_GHOSE_FILTER>
0

> <JCHEM_IUPAC>
1-{4-[4-(4-{[(2S,4R)-4-(2,4-difluorophenyl)-4-[(1H-1,2,4-triazol-1-yl)methyl]-1,3-dioxolan-2-yl]methoxy}phenyl)piperazin-1-yl]phenyl}-3-(propan-2-yl)imidazolidin-2-one

> <ALOGPS_LOGP>
4.53

> <JCHEM_LOGP>
5.076175439333333

> <ALOGPS_LOGS>
-4.49

> <JCHEM_MDDR_LIKE_RULE>
1

> <JCHEM_NUMBER_OF_RINGS>
7

> <JCHEM_PHYSIOLOGICAL_CHARGE>
0

> <JCHEM_PKA_STRONGEST_BASIC>
3.9387898984607

> <JCHEM_POLAR_SURFACE_AREA>
88.43000000000002

> <JCHEM_REFRACTIVITY>
188.7730999999999

> <JCHEM_ROTATABLE_BOND_COUNT>
10

> <JCHEM_RULE_OF_FIVE>
0

> <ALOGPS_SOLUBILITY>
2.14e-02 g/l

> <JCHEM_TRADITIONAL_IUPAC>
pramiconazole

> <JCHEM_VEBER_RULE>
0

> <DRUGBANK_ID>
DB06295

> <DRUG_GROUPS>
investigational

> <GENERIC_NAME>
Pramiconazole

> <SYNONYMS>
Pramiconazole

$$$$
