
  Mrv1572004191602102D          

 10  9  0  0  0  0            999 V2000
   -1.6500    1.4289    0.0000 C   0  0  0  0  0  0  0  0  0  0  0  0
    2.0625   -0.7145    0.0000 C   0  0  0  0  0  0  0  0  0  0  0  0
   -1.2375    0.7145    0.0000 C   0  0  0  0  0  0  0  0  0  0  0  0
    1.2375   -0.7145    0.0000 C   0  0  0  0  0  0  0  0  0  0  0  0
   -0.4125    0.7145    0.0000 C   0  0  0  0  0  0  0  0  0  0  0  0
    1.2375    0.7145    0.0000 C   0  0  0  0  0  0  0  0  0  0  0  0
    0.8250    0.0000    0.0000 C   0  0  0  0  0  0  0  0  0  0  0  0
    0.0000    0.0000    0.0000 C   0  0  0  0  0  0  0  0  0  0  0  0
    2.0625    0.7145    0.0000 O   0  0  0  0  0  0  0  0  0  0  0  0
   -0.4125   -0.7145    0.0000 O   0  0  0  0  0  0  0  0  0  0  0  0
  3  1  1  0  0  0  0
  4  2  1  0  0  0  0
  5  3  1  0  0  0  0
  7  4  1  0  0  0  0
  7  6  1  0  0  0  0
  8  5  1  0  0  0  0
  8  7  1  0  0  0  0
  9  6  1  0  0  0  0
 10  8  1  0  0  0  0
M  END
> <DATABASE_ID>
DB13826

> <DATABASE_NAME>
drugbank

> <SMILES>
CCCC(O)C(CC)CO

> <INCHI_IDENTIFIER>
InChI=1S/C8H18O2/c1-3-5-8(10)7(4-2)6-9/h7-10H,3-6H2,1-2H3

> <INCHI_KEY>
RWLALWYNXFYRGW-UHFFFAOYSA-N

> <FORMULA>
C8H18O2

> <MOLECULAR_WEIGHT>
146.23

> <EXACT_MASS>
146.13067982

> <JCHEM_ACCEPTOR_COUNT>
2

> <JCHEM_ATOM_COUNT>
28

> <JCHEM_AVERAGE_POLARIZABILITY>
17.437909367657138

> <JCHEM_BIOAVAILABILITY>
1

> <JCHEM_DONOR_COUNT>
2

> <JCHEM_FORMAL_CHARGE>
0

> <JCHEM_GHOSE_FILTER>
0

> <JCHEM_IUPAC>
2-ethylhexane-1,3-diol

> <ALOGPS_LOGP>
1.12

> <JCHEM_LOGP>
1.158838967333333

> <ALOGPS_LOGS>
-0.48

> <JCHEM_MDDR_LIKE_RULE>
0

> <JCHEM_NUMBER_OF_RINGS>
0

> <JCHEM_PHYSIOLOGICAL_CHARGE>
0

> <JCHEM_PKA>
15.604951898969915

> <JCHEM_PKA_STRONGEST_ACIDIC>
14.763235306191845

> <JCHEM_PKA_STRONGEST_BASIC>
-2.6278502505709813

> <JCHEM_POLAR_SURFACE_AREA>
40.46

> <JCHEM_REFRACTIVITY>
41.980199999999996

> <JCHEM_ROTATABLE_BOND_COUNT>
5

> <JCHEM_RULE_OF_FIVE>
1

> <ALOGPS_SOLUBILITY>
4.83e+01 g/l

> <JCHEM_TRADITIONAL_IUPAC>
2-ethyl-1,3-hexanediol

> <JCHEM_VEBER_RULE>
0

> <DRUGBANK_ID>
DB13826

> <DRUG_GROUPS>
experimental

> <GENERIC_NAME>
Etohexadiol

> <SYNONYMS>
Ethohexadiol

$$$$
