
  Mrv1909 12102023082D          

 33 36  0  0  0  0            999 V2000
    1.0730    1.6537    0.0000 C   0  0  0  0  0  0  0  0  0  0  0  0
    1.7856    1.2411    0.0000 O   0  0  0  0  0  0  0  0  0  0  0  0
    2.4983    1.6537    0.0000 C   0  0  0  0  0  0  0  0  0  0  0  0
    3.2109    1.2411    0.0000 N   0  0  0  0  0  0  0  0  0  0  0  0
    3.9234    1.6537    0.0000 C   0  0  0  0  0  0  0  0  0  0  0  0
   -0.3572    2.4807    0.0000 C   0  0  0  0  0  0  0  0  0  0  0  0
   -0.3584    1.6532    0.0000 C   0  0  0  0  0  0  0  0  0  0  0  0
    0.3564    1.2403    0.0000 C   0  0  0  0  0  0  0  0  0  0  0  0
    1.0702    2.4844    0.0000 C   0  0  0  0  0  0  0  0  0  0  0  0
    0.3546    2.8936    0.0000 C   0  0  0  0  0  0  0  0  0  0  0  0
   -3.9234    1.2347    0.0000 N   0  0  0  0  0  0  0  0  0  0  0  0
   -3.2109    1.6472    0.0000 C   0  0  0  0  0  0  0  0  0  0  0  0
   -2.4983    1.2388    0.0000 C   0  0  0  0  0  0  0  0  0  0  0  0
   -1.7856    1.6514    0.0000 C   0  0  0  0  0  0  0  0  0  0  0  0
   -1.0730    1.2388    0.0000 N   0  0  0  0  0  0  0  0  0  0  0  0
   -3.2105    0.8221    0.0000 C   0  0  0  0  0  0  0  0  0  0  0  0
   -3.2105   -0.0029    0.0000 C   0  0  0  0  0  0  0  0  0  0  0  0
   -2.4983   -0.4113    0.0000 N   0  0  0  0  0  0  0  0  0  0  0  0
   -1.7861   -0.0029    0.0000 C   0  0  0  0  0  0  0  0  0  0  0  0
   -1.7861    0.8221    0.0000 C   0  0  0  0  0  0  0  0  0  0  0  0
   -1.7732   -2.4801    0.0000 C   0  0  0  0  0  0  0  0  0  0  0  0
   -0.9831   -2.7182    0.0000 N   0  0  0  0  0  0  0  0  0  0  0  0
   -0.5111   -2.0414    0.0000 C   0  0  0  0  0  0  0  0  0  0  0  0
   -1.0115   -1.3822    0.0000 C   0  0  0  0  0  0  0  0  0  0  0  0
   -1.7888   -1.6564    0.0000 C   0  0  0  0  0  0  0  0  0  0  0  0
   -3.2035   -1.6531    0.0000 N   0  0  0  0  0  0  0  0  0  0  0  0
   -3.2047   -2.4806    0.0000 C   0  0  0  0  0  0  0  0  0  0  0  0
   -2.4897   -2.8936    0.0000 N   0  0  0  0  0  0  0  0  0  0  0  0
   -2.4915   -1.2403    0.0000 C   0  0  0  0  0  0  0  0  0  0  0  0
   -1.7936    2.4765    0.0000 O   0  0  0  0  0  0  0  0  0  0  0  0
    2.4903    2.4807    0.0000 O   0  0  0  0  0  0  0  0  0  0  0  0
    3.2029    0.4179    0.0000 C   0  0  0  0  0  0  0  0  0  0  0  0
   -0.8016   -0.5780    0.0000 C   0  0  0  0  0  0  0  0  0  0  0  0
  1  9  1  0  0  0  0
  4  5  1  0  0  0  0
  9 10  2  0  0  0  0
 16 13  1  0  0  0  0
 17 18  1  0  0  0  0
 18 19  1  0  0  0  0
 19 20  1  0  0  0  0
 20 13  1  0  0  0  0
 21 22  1  0  0  0  0
 10  6  1  0  0  0  0
  2  3  1  0  0  0  0
  1  2  1  0  0  0  0
 11 12  1  0  0  0  0
  6  7  2  0  0  0  0
 22 23  1  0  0  0  0
 23 24  2  0  0  0  0
 24 25  1  0  0  0  0
 25 21  1  0  0  0  0
 12 13  1  0  0  0  0
  3  4  1  0  0  0  0
 26 27  2  0  0  0  0
 13 14  1  0  0  0  0
 27 28  1  0  0  0  0
 28 21  2  0  0  0  0
  7  8  1  0  0  0  0
 25 29  2  0  0  0  0
 29 26  1  0  0  0  0
 29 18  1  0  0  0  0
 14 15  1  0  0  0  0
 14 30  2  0  0  0  0
 15  7  1  0  0  0  0
  3 31  2  0  0  0  0
 16 17  1  0  0  0  0
  4 32  1  0  0  0  0
  8  1  2  0  0  0  0
 24 33  1  0  0  0  0
M  END
> <DATABASE_ID>
DB16009

> <DATABASE_NAME>
drugbank

> <SMILES>
CN(C)C(=O)OC1=CC(NC(=O)C2(CN)CCN(CC2)C2=C3C(C)=CNC3=NC=N2)=CC=C1

> <INCHI_IDENTIFIER>
InChI=1S/C23H29N7O3/c1-15-12-25-19-18(15)20(27-14-26-19)30-9-7-23(13-24,8-10-30)21(31)28-16-5-4-6-17(11-16)33-22(32)29(2)3/h4-6,11-12,14H,7-10,13,24H2,1-3H3,(H,28,31)(H,25,26,27)

> <INCHI_KEY>
PWPNYABQEOGNNC-UHFFFAOYSA-N

> <FORMULA>
C23H29N7O3

> <MOLECULAR_WEIGHT>
451.531

> <EXACT_MASS>
451.233187822

> <JCHEM_ACCEPTOR_COUNT>
6

> <JCHEM_ATOM_COUNT>
62

> <JCHEM_AVERAGE_NEUTRAL_MICROSPECIES_CHARGE>
1.6182470525125505

> <JCHEM_AVERAGE_POLARIZABILITY>
47.85736144878789

> <JCHEM_BIOAVAILABILITY>
1

> <JCHEM_DONOR_COUNT>
3

> <JCHEM_FORMAL_CHARGE>
0

> <JCHEM_GHOSE_FILTER>
1

> <JCHEM_IUPAC>
3-[4-(aminomethyl)-1-{5-methyl-7H-pyrrolo[2,3-d]pyrimidin-4-yl}piperidine-4-amido]phenyl N,N-dimethylcarbamate

> <ALOGPS_LOGP>
1.55

> <JCHEM_LOGP>
2.1287237453333336

> <ALOGPS_LOGS>
-3.77

> <JCHEM_MDDR_LIKE_RULE>
1

> <JCHEM_NEUTRAL_CHARGE>
2

> <JCHEM_NUMBER_OF_RINGS>
4

> <JCHEM_PHYSIOLOGICAL_CHARGE>
2

> <JCHEM_PKA>
14.662982180608797

> <JCHEM_PKA_STRONGEST_ACIDIC>
13.354870565864264

> <JCHEM_PKA_STRONGEST_BASIC>
9.159288249614004

> <JCHEM_POLAR_SURFACE_AREA>
129.47

> <JCHEM_REFRACTIVITY>
127.73959999999998

> <JCHEM_ROTATABLE_BOND_COUNT>
6

> <JCHEM_RULE_OF_FIVE>
1

> <ALOGPS_SOLUBILITY>
7.61e-02 g/l

> <JCHEM_TRADITIONAL_IUPAC>
3-[4-(aminomethyl)-1-{5-methyl-7H-pyrrolo[2,3-d]pyrimidin-4-yl}piperidine-4-amido]phenyl N,N-dimethylcarbamate hydrochloride

> <JCHEM_VEBER_RULE>
0

> <DRUGBANK_ID>
DB16009

> <DRUG_GROUPS>
investigational

> <GENERIC_NAME>
LX-7101

> <SALTS>
LX-7101 hydrochloride

$$$$
