
  Mrv1652305301723412D          

 19 21  0  0  1  0            999 V2000
    0.9372   -0.2267    0.0000 N   0  0  0  0  0  0  0  0  0  0  0  0
    0.9372   -1.0517    0.0000 C   0  0  0  0  0  0  0  0  0  0  0  0
    0.2227   -1.4642    0.0000 N   0  0  0  0  0  0  0  0  0  0  0  0
    0.2226   -2.2892    0.0000 C   0  0  0  0  0  0  0  0  0  0  0  0
    0.9371   -2.7017    0.0000 N   0  0  0  0  0  0  0  0  0  0  0  0
    1.6516   -2.2892    0.0000 C   0  0  0  0  0  0  0  0  0  0  0  0
    1.6516   -1.4642    0.0000 C   0  0  0  0  0  0  0  0  0  0  0  0
    2.4362   -1.2093    0.0000 N   0  0  0  0  0  0  0  0  0  0  0  0
    2.9212   -1.8768    0.0000 C   0  0  0  0  0  0  0  0  0  0  0  0
    2.4362   -2.5442    0.0000 N   0  0  0  0  0  0  0  0  0  0  0  0
    2.6912   -3.3290    0.0000 C   0  0  2  0  0  0  0  0  0  0  0  0
    2.2062   -3.9963    0.0000 O   0  0  0  0  0  0  0  0  0  0  0  0
    2.6911   -4.6639    0.0000 C   0  0  2  0  0  0  0  0  0  0  0  0
    2.4361   -5.4485    0.0000 C   0  0  0  0  0  0  0  0  0  0  0  0
    3.4757   -4.4089    0.0000 C   0  0  1  0  0  0  0  0  0  0  0  0
    4.1432   -4.8939    0.0000 O   0  0  0  0  0  0  0  0  0  0  0  0
    3.4758   -3.5839    0.0000 C   0  0  1  0  0  0  0  0  0  0  0  0
    4.1432   -3.0990    0.0000 O   0  0  0  0  0  0  0  0  0  0  0  0
    2.9882   -6.0616    0.0000 F   0  0  0  0  0  0  0  0  0  0  0  0
  1  2  1  0  0  0  0
  2  3  1  0  0  0  0
  2  7  2  0  0  0  0
  3  4  2  0  0  0  0
  4  5  1  0  0  0  0
  5  6  2  0  0  0  0
  6  7  1  0  0  0  0
  6 10  1  0  0  0  0
  7  8  1  0  0  0  0
  8  9  2  0  0  0  0
  9 10  1  0  0  0  0
 11 10  1  1  0  0  0
 11 12  1  0  0  0  0
 11 17  1  0  0  0  0
 12 13  1  0  0  0  0
 13 14  1  1  0  0  0
 13 15  1  0  0  0  0
 14 19  1  0  0  0  0
 15 16  1  6  0  0  0
 15 17  1  0  0  0  0
 17 18  1  6  0  0  0
M  END
> <DATABASE_ID>
DB03716

> <DATABASE_NAME>
drugbank

> <SMILES>
NC1=C2N=CN([C@@H]3O[C@H](CF)[C@@H](O)[C@H]3O)C2=NC=N1

> <INCHI_IDENTIFIER>
InChI=1S/C10H12FN5O3/c11-1-4-6(17)7(18)10(19-4)16-3-15-5-8(12)13-2-14-9(5)16/h2-4,6-7,10,17-18H,1H2,(H2,12,13,14)/t4-,6-,7-,10-/m1/s1

> <INCHI_KEY>
QPVLKMICBYRPSX-KQYNXXCUSA-N

> <FORMULA>
C10H12FN5O3

> <MOLECULAR_WEIGHT>
269.236

> <EXACT_MASS>
269.092417429

> <JCHEM_ACCEPTOR_COUNT>
7

> <JCHEM_ATOM_COUNT>
31

> <JCHEM_AVERAGE_POLARIZABILITY>
24.284046413433344

> <JCHEM_BIOAVAILABILITY>
1

> <JCHEM_DONOR_COUNT>
3

> <JCHEM_FORMAL_CHARGE>
0

> <JCHEM_GHOSE_FILTER>
0

> <JCHEM_IUPAC>
(2R,3R,4S,5S)-2-(6-amino-9H-purin-9-yl)-5-(fluoromethyl)oxolane-3,4-diol

> <ALOGPS_LOGP>
-0.50

> <JCHEM_LOGP>
-1.1998720976666668

> <ALOGPS_LOGS>
-1.45

> <JCHEM_MDDR_LIKE_RULE>
0

> <JCHEM_NUMBER_OF_RINGS>
3

> <JCHEM_PHYSIOLOGICAL_CHARGE>
0

> <JCHEM_PKA>
13.969105771304996

> <JCHEM_PKA_STRONGEST_ACIDIC>
12.45337208426588

> <JCHEM_PKA_STRONGEST_BASIC>
3.921275347961292

> <JCHEM_POLAR_SURFACE_AREA>
119.31000000000002

> <JCHEM_REFRACTIVITY>
61.50350000000001

> <JCHEM_ROTATABLE_BOND_COUNT>
2

> <JCHEM_RULE_OF_FIVE>
1

> <ALOGPS_SOLUBILITY>
9.47e+00 g/l

> <JCHEM_TRADITIONAL_IUPAC>
5'-fluoro-5'-deoxyadenosine

> <JCHEM_VEBER_RULE>
0

> <DRUGBANK_ID>
DB03716

> <SECONDARY_ACCESSION_NUMBERS>
EXPT00245

> <DRUG_GROUPS>
experimental

> <GENERIC_NAME>
5'-Fluoro-5'-Deoxyadenosine

$$$$
