
  Mrv1909 12012200042D          

137142  0  0  1  0            999 V2000
   -5.2731   -2.0383    0.0000 N   0  0  0  0  0  0  0  0  0  0  0  0
   -6.0491   -2.3183    0.0000 C   0  0  2  0  0  0  0  0  0  0  0  0
   -6.1946   -3.1304    0.0000 C   0  0  0  0  0  0  0  0  0  0  0  0
   -6.9706   -3.4104    0.0000 C   0  0  0  0  0  0  0  0  0  0  0  0
   -7.1161   -4.2225    0.0000 C   0  0  0  0  0  0  0  0  0  0  0  0
   -7.8922   -4.5025    0.0000 C   0  0  0  0  0  0  0  0  0  0  0  0
   -8.5227   -3.9704    0.0000 C   0  0  0  0  0  0  0  0  0  0  0  0
   -8.3772   -3.1584    0.0000 C   0  0  0  0  0  0  0  0  0  0  0  0
   -7.6012   -2.8783    0.0000 C   0  0  0  0  0  0  0  0  0  0  0  0
   -9.2987   -4.2505    0.0000 C   0  0  0  0  0  0  0  0  0  0  0  0
   -9.9292   -3.7184    0.0000 O   0  0  0  0  0  0  0  0  0  0  0  0
   -9.4442   -5.0625    0.0000 C   0  0  0  0  0  0  0  0  0  0  0  0
   -8.8137   -5.5946    0.0000 C   0  0  0  0  0  0  0  0  0  0  0  0
   -8.9592   -6.4066    0.0000 C   0  0  0  0  0  0  0  0  0  0  0  0
   -9.7352   -6.6867    0.0000 C   0  0  0  0  0  0  0  0  0  0  0  0
  -10.3657   -6.1546    0.0000 C   0  0  0  0  0  0  0  0  0  0  0  0
  -10.2202   -5.3426    0.0000 C   0  0  0  0  0  0  0  0  0  0  0  0
   -6.6796   -1.7863    0.0000 C   0  0  0  0  0  0  0  0  0  0  0  0
   -7.4557   -2.0663    0.0000 O   0  0  0  0  0  0  0  0  0  0  0  0
   -6.5341   -0.9742    0.0000 N   0  0  0  0  0  0  0  0  0  0  0  0
   -7.1646   -0.4421    0.0000 C   0  0  2  0  0  0  0  0  0  0  0  0
   -7.9407   -0.7222    0.0000 C   0  0  0  0  0  0  0  0  0  0  0  0
   -8.5712   -0.1901    0.0000 O   0  0  0  0  0  0  0  0  0  0  0  0
   -7.0191    0.3699    0.0000 C   0  0  0  0  0  0  0  0  0  0  0  0
   -6.2431    0.6499    0.0000 O   0  0  0  0  0  0  0  0  0  0  0  0
   -7.6497    0.9020    0.0000 N   0  0  0  0  0  0  0  0  0  0  0  0
   -7.5042    1.7140    0.0000 C   0  0  2  0  0  0  0  0  0  0  0  0
   -8.1347    2.2461    0.0000 C   0  0  0  0  0  0  0  0  0  0  0  0
   -7.9892    3.0581    0.0000 C   0  0  0  0  0  0  0  0  0  0  0  0
   -7.2467    3.4177    0.0000 C   0  0  0  0  0  0  0  0  0  0  0  0
   -7.3592    4.2350    0.0000 N   0  0  0  0  0  0  0  0  0  0  0  0
   -8.1713    4.3805    0.0000 C   0  0  0  0  0  0  0  0  0  0  0  0
   -8.5606    3.6532    0.0000 C   0  0  0  0  0  0  0  0  0  0  0  0
   -9.3852    3.6267    0.0000 C   0  0  0  0  0  0  0  0  0  0  0  0
   -9.8204    4.3275    0.0000 C   0  0  0  0  0  0  0  0  0  0  0  0
   -9.4311    5.0549    0.0000 C   0  0  0  0  0  0  0  0  0  0  0  0
   -8.6065    5.0814    0.0000 C   0  0  0  0  0  0  0  0  0  0  0  0
   -6.7281    1.9941    0.0000 C   0  0  0  0  0  0  0  0  0  0  0  0
   -6.5826    2.8061    0.0000 O   0  0  0  0  0  0  0  0  0  0  0  0
   -6.0976    1.4620    0.0000 N   0  0  0  0  0  0  0  0  0  0  0  0
   -5.3216    1.7420    0.0000 C   0  0  2  0  0  0  0  0  0  0  0  0
   -5.1761    2.5541    0.0000 C   0  0  0  0  0  0  0  0  0  0  0  0
   -4.4001    2.8341    0.0000 O   0  0  0  0  0  0  0  0  0  0  0  0
   -4.6911    1.2100    0.0000 C   0  0  0  0  0  0  0  0  0  0  0  0
   -4.8366    0.3979    0.0000 O   0  0  0  0  0  0  0  0  0  0  0  0
   -3.9150    1.4900    0.0000 N   0  0  0  0  0  0  0  0  0  0  0  0
   -3.2845    0.9580    0.0000 C   0  0  2  0  0  0  0  0  0  0  0  0
   -3.4300    0.1459    0.0000 C   0  0  0  0  0  0  0  0  0  0  0  0
   -2.7995   -0.3861    0.0000 C   0  0  0  0  0  0  0  0  0  0  0  0
   -2.0235   -0.1061    0.0000 C   0  0  0  0  0  0  0  0  0  0  0  0
   -1.4285    0.4653    0.0000 F   0  0  0  0  0  0  0  0  0  0  0  0
   -1.3930   -0.6382    0.0000 C   0  0  0  0  0  0  0  0  0  0  0  0
   -0.6170   -0.3581    0.0000 F   0  0  0  0  0  0  0  0  0  0  0  0
   -1.5385   -1.4502    0.0000 C   0  0  0  0  0  0  0  0  0  0  0  0
   -1.3411   -2.2513    0.0000 F   0  0  0  0  0  0  0  0  0  0  0  0
   -2.3145   -1.7303    0.0000 C   0  0  0  0  0  0  0  0  0  0  0  0
   -2.4600   -2.5423    0.0000 F   0  0  0  0  0  0  0  0  0  0  0  0
   -2.9450   -1.1982    0.0000 C   0  0  0  0  0  0  0  0  0  0  0  0
   -3.7210   -1.4782    0.0000 F   0  0  0  0  0  0  0  0  0  0  0  0
   -2.5085    1.2380    0.0000 C   0  0  0  0  0  0  0  0  0  0  0  0
   -2.3630    2.0501    0.0000 O   0  0  0  0  0  0  0  0  0  0  0  0
   -1.8780    0.7059    0.0000 N   0  0  0  0  0  0  0  0  0  0  0  0
   -1.1020    0.9860    0.0000 C   0  0  2  0  0  0  0  0  0  0  0  0
   -0.9565    1.7980    0.0000 C   0  0  0  0  0  0  0  0  0  0  0  0
   -0.1804    2.0781    0.0000 C   0  0  0  0  0  0  0  0  0  0  0  0
   -0.0349    2.8901    0.0000 C   0  0  0  0  0  0  0  0  0  0  0  0
    0.7411    3.1702    0.0000 C   0  0  0  0  0  0  0  0  0  0  0  0
    1.3716    2.6381    0.0000 C   0  0  0  0  0  0  0  0  0  0  0  0
    1.2261    1.8260    0.0000 C   0  0  0  0  0  0  0  0  0  0  0  0
    0.4501    1.5460    0.0000 C   0  0  0  0  0  0  0  0  0  0  0  0
   -0.4714    0.4539    0.0000 C   0  0  0  0  0  0  0  0  0  0  0  0
   -0.1118   -0.2886    0.0000 O   0  0  0  0  0  0  0  0  0  0  0  0
    0.3046    0.7340    0.0000 N   0  0  0  0  0  0  0  0  0  0  0  0
    0.9351    0.2019    0.0000 C   0  0  2  0  0  0  0  0  0  0  0  0
    0.7896   -0.6102    0.0000 C   0  0  0  0  0  0  0  0  0  0  0  0
    0.0136   -0.8902    0.0000 C   0  0  0  0  0  0  0  0  0  0  0  0
   -0.1319   -1.7023    0.0000 C   0  0  0  0  0  0  0  0  0  0  0  0
   -0.9080   -1.9823    0.0000 N   0  0  0  0  0  0  0  0  0  0  0  0
   -1.0535   -2.7943    0.0000 C   0  0  0  0  0  0  0  0  0  0  0  0
   -0.4229   -3.3264    0.0000 N   0  0  0  0  0  0  0  0  0  0  0  0
   -1.8295   -3.0744    0.0000 N   0  0  0  0  0  0  0  0  0  0  0  0
    1.7111    0.4819    0.0000 C   0  0  0  0  0  0  0  0  0  0  0  0
    1.8566    1.2940    0.0000 O   0  0  0  0  0  0  0  0  0  0  0  0
    2.3416   -0.0501    0.0000 N   0  0  0  0  0  0  0  0  0  0  0  0
    3.1177    0.2299    0.0000 C   0  0  2  0  0  0  0  0  0  0  0  0
    3.2632    1.0420    0.0000 C   0  0  0  0  0  0  0  0  0  0  0  0
    4.0392    1.3220    0.0000 C   0  0  0  0  0  0  0  0  0  0  0  0
    4.1847    2.1341    0.0000 C   0  0  0  0  0  0  0  0  0  0  0  0
    4.9607    2.4141    0.0000 N   0  0  0  0  0  0  0  0  0  0  0  0
    5.1062    3.2262    0.0000 C   0  0  0  0  0  0  0  0  0  0  0  0
    4.4757    3.7582    0.0000 N   0  0  0  0  0  0  0  0  0  0  0  0
    5.8822    3.5062    0.0000 N   0  0  0  0  0  0  0  0  0  0  0  0
    3.7482   -0.3021    0.0000 C   0  0  0  0  0  0  0  0  0  0  0  0
    3.6027   -1.1142    0.0000 O   0  0  0  0  0  0  0  0  0  0  0  0
    4.5242   -0.0221    0.0000 N   0  0  0  0  0  0  0  0  0  0  0  0
    5.1547   -0.5542    0.0000 C   0  0  2  0  0  0  0  0  0  0  0  0
    5.0092   -1.3662    0.0000 C   0  0  0  0  0  0  0  0  0  0  0  0
    4.2332   -1.6462    0.0000 C   0  0  0  0  0  0  0  0  0  0  0  0
    4.0877   -2.4583    0.0000 C   0  0  0  0  0  0  0  0  0  0  0  0
    3.3117   -2.7383    0.0000 N   0  0  0  0  0  0  0  0  0  0  0  0
    3.1662   -3.5504    0.0000 C   0  0  0  0  0  0  0  0  0  0  0  0
    3.7967   -4.0824    0.0000 N   0  0  0  0  0  0  0  0  0  0  0  0
    2.3901   -3.8304    0.0000 N   0  0  0  0  0  0  0  0  0  0  0  0
    5.9307   -0.2741    0.0000 C   0  0  0  0  0  0  0  0  0  0  0  0
    6.0762    0.5379    0.0000 O   0  0  0  0  0  0  0  0  0  0  0  0
    6.5613   -0.8062    0.0000 N   0  0  0  0  0  0  0  0  0  0  0  0
    7.3373   -0.5262    0.0000 C   0  0  2  0  0  0  0  0  0  0  0  0
    7.4828    0.2859    0.0000 C   0  0  0  0  0  0  0  0  0  0  0  0
    8.2588    0.5659    0.0000 C   0  0  0  0  0  0  0  0  0  0  0  0
    8.4043    1.3780    0.0000 C   0  0  0  0  0  0  0  0  0  0  0  0
    7.7738    1.9100    0.0000 N   0  0  0  0  0  0  0  0  0  0  0  0
    9.1803    1.6580    0.0000 O   0  0  0  0  0  0  0  0  0  0  0  0
    7.9678   -1.0582    0.0000 C   0  0  0  0  0  0  0  0  0  0  0  0
    7.8223   -1.8703    0.0000 O   0  0  0  0  0  0  0  0  0  0  0  0
    8.7438   -0.7782    0.0000 N   0  0  0  0  0  0  0  0  0  0  0  0
    9.3743   -1.3102    0.0000 C   0  0  2  0  0  0  0  0  0  0  0  0
    9.2288   -2.1223    0.0000 C   0  0  0  0  0  0  0  0  0  0  0  0
    8.4528   -2.4023    0.0000 C   0  0  0  0  0  0  0  0  0  0  0  0
    8.3073   -3.2144    0.0000 C   0  0  0  0  0  0  0  0  0  0  0  0
    7.5313   -3.4944    0.0000 N   0  0  0  0  0  0  0  0  0  0  0  0
    7.3858   -4.3065    0.0000 C   0  0  0  0  0  0  0  0  0  0  0  0
    8.0163   -4.8385    0.0000 N   0  0  0  0  0  0  0  0  0  0  0  0
    6.6098   -4.5865    0.0000 N   0  0  0  0  0  0  0  0  0  0  0  0
   10.1504   -1.0302    0.0000 C   0  0  0  0  0  0  0  0  0  0  0  0
   10.2959   -0.2181    0.0000 O   0  0  0  0  0  0  0  0  0  0  0  0
   10.7809   -1.5622    0.0000 N   0  0  0  0  0  0  0  0  0  0  0  0
   11.5569   -1.2822    0.0000 C   0  0  2  0  0  0  0  0  0  0  0  0
   12.1874   -1.8143    0.0000 C   0  0  0  0  0  0  0  0  0  0  0  0
   12.9635   -1.5342    0.0000 C   0  0  0  0  0  0  0  0  0  0  0  0
   13.5940   -2.0663    0.0000 C   0  0  0  0  0  0  0  0  0  0  0  0
   14.3700   -1.7863    0.0000 N   0  0  0  0  0  0  0  0  0  0  0  0
   15.0005   -2.3183    0.0000 C   0  0  0  0  0  0  0  0  0  0  0  0
   15.7765   -2.0383    0.0000 N   0  0  0  0  0  0  0  0  0  0  0  0
   14.8550   -3.1304    0.0000 N   0  0  0  0  0  0  0  0  0  0  0  0
   11.7024   -0.4701    0.0000 C   0  0  0  0  0  0  0  0  0  0  0  0
   12.4784   -0.1901    0.0000 O   0  0  0  0  0  0  0  0  0  0  0  0
   11.0719    0.0619    0.0000 O   0  0  0  0  0  0  0  0  0  0  0  0
  2  1  1  6  0  0  0
  2  3  1  0  0  0  0
  3  4  1  0  0  0  0
  4  5  2  0  0  0  0
  5  6  1  0  0  0  0
  6  7  2  0  0  0  0
  7  8  1  0  0  0  0
  8  9  2  0  0  0  0
  4  9  1  0  0  0  0
  7 10  1  0  0  0  0
 10 11  2  0  0  0  0
 10 12  1  0  0  0  0
 12 13  2  0  0  0  0
 13 14  1  0  0  0  0
 14 15  2  0  0  0  0
 15 16  1  0  0  0  0
 16 17  2  0  0  0  0
 12 17  1  0  0  0  0
  2 18  1  0  0  0  0
 18 19  2  0  0  0  0
 18 20  1  0  0  0  0
 21 20  1  6  0  0  0
 21 22  1  0  0  0  0
 22 23  1  0  0  0  0
 21 24  1  0  0  0  0
 24 25  2  0  0  0  0
 24 26  1  0  0  0  0
 27 26  1  6  0  0  0
 27 28  1  0  0  0  0
 28 29  1  0  0  0  0
 29 30  2  0  0  0  0
 30 31  1  0  0  0  0
 31 32  1  0  0  0  0
 32 33  2  0  0  0  0
 29 33  1  0  0  0  0
 33 34  1  0  0  0  0
 34 35  2  0  0  0  0
 35 36  1  0  0  0  0
 36 37  2  0  0  0  0
 32 37  1  0  0  0  0
 27 38  1  0  0  0  0
 38 39  2  0  0  0  0
 38 40  1  0  0  0  0
 41 40  1  6  0  0  0
 41 42  1  0  0  0  0
 42 43  1  0  0  0  0
 41 44  1  0  0  0  0
 44 45  2  0  0  0  0
 44 46  1  0  0  0  0
 47 46  1  1  0  0  0
 47 48  1  0  0  0  0
 48 49  1  0  0  0  0
 49 50  2  0  0  0  0
 50 51  1  0  0  0  0
 50 52  1  0  0  0  0
 52 53  1  0  0  0  0
 52 54  2  0  0  0  0
 54 55  1  0  0  0  0
 54 56  1  0  0  0  0
 56 57  1  0  0  0  0
 56 58  2  0  0  0  0
 49 58  1  0  0  0  0
 58 59  1  0  0  0  0
 47 60  1  0  0  0  0
 60 61  2  0  0  0  0
 60 62  1  0  0  0  0
 63 62  1  6  0  0  0
 63 64  1  0  0  0  0
 64 65  1  0  0  0  0
 65 66  1  0  0  0  0
 66 67  1  0  0  0  0
 67 68  1  0  0  0  0
 68 69  1  0  0  0  0
 69 70  1  0  0  0  0
 65 70  1  0  0  0  0
 63 71  1  0  0  0  0
 71 72  2  0  0  0  0
 71 73  1  0  0  0  0
 74 73  1  1  0  0  0
 74 75  1  0  0  0  0
 75 76  1  0  0  0  0
 76 77  1  0  0  0  0
 77 78  1  0  0  0  0
 78 79  1  0  0  0  0
 79 80  1  0  0  0  0
 79 81  2  0  0  0  0
 74 82  1  0  0  0  0
 82 83  2  0  0  0  0
 82 84  1  0  0  0  0
 85 84  1  6  0  0  0
 85 86  1  0  0  0  0
 86 87  1  0  0  0  0
 87 88  1  0  0  0  0
 88 89  1  0  0  0  0
 89 90  1  0  0  0  0
 90 91  1  0  0  0  0
 90 92  2  0  0  0  0
 85 93  1  0  0  0  0
 93 94  2  0  0  0  0
 93 95  1  0  0  0  0
 96 95  1  1  0  0  0
 96 97  1  0  0  0  0
 97 98  1  0  0  0  0
 98 99  1  0  0  0  0
 99100  1  0  0  0  0
100101  1  0  0  0  0
101102  1  0  0  0  0
101103  2  0  0  0  0
 96104  1  0  0  0  0
104105  2  0  0  0  0
104106  1  0  0  0  0
107106  1  6  0  0  0
107108  1  0  0  0  0
108109  1  0  0  0  0
109110  1  0  0  0  0
110111  1  0  0  0  0
110112  2  0  0  0  0
107113  1  0  0  0  0
113114  2  0  0  0  0
113115  1  0  0  0  0
116115  1  1  0  0  0
116117  1  0  0  0  0
117118  1  0  0  0  0
118119  1  0  0  0  0
119120  1  0  0  0  0
120121  1  0  0  0  0
121122  1  0  0  0  0
121123  2  0  0  0  0
116124  1  0  0  0  0
124125  2  0  0  0  0
124126  1  0  0  0  0
127126  1  1  0  0  0
127128  1  0  0  0  0
128129  1  0  0  0  0
129130  1  0  0  0  0
130131  1  0  0  0  0
131132  1  0  0  0  0
132133  1  0  0  0  0
132134  2  0  0  0  0
127135  1  0  0  0  0
135136  1  0  0  0  0
135137  2  0  0  0  0
M  END
> <DATABASE_ID>
DB17277

> <DATABASE_NAME>
drugbank

> <SMILES>
N[C@H](CC1=CC=C(C=C1)C(=O)C1=CC=CC=C1)C(=O)N[C@H](CO)C(=O)N[C@H](CC1=CNC2=C1C=CC=C2)C(=O)N[C@H](CO)C(=O)N[C@H](CC1=C(F)C(F)=C(F)C(F)=C1F)C(=O)N[C@H](CC1CCCCC1)C(=O)N[C@H](CCCNC(N)=N)C(=O)N[C@H](CCCNC(N)=N)C(=O)N[C@H](CCCNC(N)=N)C(=O)N[C@H](CCC(N)=O)C(=O)N[C@H](CCCNC(N)=N)C(=O)N[C@H](CCCNC(N)=N)C(O)=O

> <INCHI_IDENTIFIER>
InChI=1S/C86H122F5N29O17/c87-64-49(65(88)67(90)68(91)66(64)89)39-60(118-80(135)62(42-122)120-77(132)59(38-47-40-109-51-19-8-7-18-48(47)51)117-79(134)61(41-121)119-70(125)50(92)36-44-25-27-46(28-26-44)69(124)45-16-5-2-6-17-45)78(133)116-58(37-43-14-3-1-4-15-43)76(131)113-54(22-11-33-106-84(98)99)72(127)110-52(20-9-31-104-82(94)95)71(126)111-53(21-10-32-105-83(96)97)73(128)114-56(29-30-63(93)123)75(130)112-55(23-12-34-107-85(100)101)74(129)115-57(81(136)137)24-13-35-108-86(102)103/h2,5-8,16-19,25-28,40,43,50,52-62,109,121-122H,1,3-4,9-15,20-24,29-39,41-42,92H2,(H2,93,123)(H,110,127)(H,111,126)(H,112,130)(H,113,131)(H,114,128)(H,115,129)(H,116,133)(H,117,134)(H,118,135)(H,119,125)(H,120,132)(H,136,137)(H4,94,95,104)(H4,96,97,105)(H4,98,99,106)(H4,100,101,107)(H4,102,103,108)/t50-,52-,53-,54-,55-,56-,57-,58-,59-,60-,61-,62-/m1/s1

> <INCHI_KEY>
DEZJGRPRBZSAKI-KMGSDFBDSA-N

> <FORMULA>
C86H122F5N29O17

> <MOLECULAR_WEIGHT>
1929.1

> <EXACT_MASS>
1927.949364399

> <JCHEM_ACCEPTOR_COUNT>
33

> <JCHEM_ATOM_COUNT>
259

> <JCHEM_AVERAGE_NEUTRAL_MICROSPECIES_CHARGE>
6.456292467827983

> <JCHEM_AVERAGE_POLARIZABILITY>
194.5026773941642

> <JCHEM_BIOAVAILABILITY>
0

> <JCHEM_DONOR_COUNT>
32

> <JCHEM_FORMAL_CHARGE>
0

> <JCHEM_GHOSE_FILTER>
0

> <JCHEM_IUPAC>
(2R)-2-[(2R)-2-[(2R)-2-[(2R)-2-[(2R)-2-[(2R)-2-[(2R)-2-[(2R)-2-[(2R)-2-[(2R)-2-[(2R)-2-[(2R)-2-amino-3-(4-benzoylphenyl)propanamido]-3-hydroxypropanamido]-3-(1H-indol-3-yl)propanamido]-3-hydroxypropanamido]-3-(2,3,4,5,6-pentafluorophenyl)propanamido]-3-cyclohexylpropanamido]-5-carbamimidamidopentanamido]-5-carbamimidamidopentanamido]-5-carbamimidamidopentanamido]-4-carbamoylbutanamido]-5-carbamimidamidopentanamido]-5-carbamimidamidopentanoic acid

> <ALOGPS_LOGP>
-0.99

> <JCHEM_LOGP>
-7.09561203453902

> <ALOGPS_LOGS>
-4.82

> <JCHEM_MDDR_LIKE_RULE>
1

> <JCHEM_NEUTRAL_CHARGE>
5

> <JCHEM_NUMBER_OF_RINGS>
6

> <JCHEM_PHYSIOLOGICAL_CHARGE>
5

> <JCHEM_PKA_STRONGEST_ACIDIC>
3.4673911210692716

> <JCHEM_PKA_STRONGEST_BASIC>
12.637618905120457

> <JCHEM_POLAR_SURFACE_AREA>
809.3299999999999

> <JCHEM_REFRACTIVITY>
535.8731

> <JCHEM_ROTATABLE_BOND_COUNT>
58

> <JCHEM_RULE_OF_FIVE>
0

> <ALOGPS_SOLUBILITY>
2.92e-02 g/l

> <JCHEM_TRADITIONAL_IUPAC>
(2R)-2-[(2R)-2-[(2R)-2-[(2R)-2-[(2R)-2-[(2R)-2-[(2R)-2-[(2R)-2-[(2R)-2-[(2R)-2-[(2R)-2-[(2R)-2-amino-3-(4-benzoylphenyl)propanamido]-3-hydroxypropanamido]-3-(1H-indol-3-yl)propanamido]-3-hydroxypropanamido]-3-(2,3,4,5,6-pentafluorophenyl)propanamido]-3-cyclohexylpropanamido]-5-carbamimidamidopentanamido]-5-carbamimidamidopentanamido]-5-carbamimidamidopentanamido]-4-carbamoylbutanamido]-5-carbamimidamidopentanamido]-5-carbamimidamidopentanoic acid

> <JCHEM_VEBER_RULE>
0

> <DRUGBANK_ID>
DB17277

> <DRUG_GROUPS>
investigational

> <GENERIC_NAME>
CBP-501

> <SYNONYMS>
D-arginine, 4-benzoyl-d-phenylalanyl-d-seryl-d-tryptophyl-d-seryl-2,3,4,5,6-pentafluoro-d-phenylalanyl-3-cyclohexyl-d-alanyl-d-arginyl-d-arginyl-d-arginyl-d-glutaminyl-d-arginyl-

> <SALTS>
CBP-501 acetate

$$$$
