
  Mrv1909 05201915172D          

 28 32  0  0  1  0            999 V2000
    4.0145   -1.0164    0.0000 O   0  0  0  0  0  0  0  0  0  0  0  0
    3.6020   -0.3020    0.0000 C   0  0  0  0  0  0  0  0  0  0  0  0
    4.0145    0.4125    0.0000 N   0  0  0  0  0  0  0  0  0  0  0  0
    3.6020    1.1270    0.0000 C   0  0  0  0  0  0  0  0  0  0  0  0
    4.0145    1.8414    0.0000 O   0  0  0  0  0  0  0  0  0  0  0  0
    4.8395    1.8414    0.0000 C   0  0  0  0  0  0  0  0  0  0  0  0
    5.2520    2.5559    0.0000 C   0  0  2  0  0  0  0  0  0  0  0  0
    4.8395    3.2704    0.0000 C   0  0  0  0  0  0  0  0  0  0  0  0
    5.2520    3.9849    0.0000 O   0  0  0  0  0  0  0  0  0  0  0  0
    6.0770    3.9849    0.0000 C   0  0  0  0  0  0  0  0  0  0  0  0
    6.4895    3.2704    0.0000 C   0  0  0  0  0  0  0  0  0  0  0  0
    6.0770    2.5559    0.0000 O   0  0  0  0  0  0  0  0  0  0  0  0
    2.7770    1.1270    0.0000 C   0  0  0  0  0  0  0  0  0  0  0  0
    2.3645    0.4125    0.0000 C   0  0  0  0  0  0  0  0  0  0  0  0
    2.7770   -0.3020    0.0000 N   0  0  0  0  0  0  0  0  0  0  0  0
    2.3645   -1.0164    0.0000 C   0  0  0  0  0  0  0  0  0  0  0  0
    1.5395   -1.0164    0.0000 C   0  0  0  0  0  0  0  0  0  0  0  0
    1.1270   -0.3020    0.0000 C   0  0  0  0  0  0  0  0  0  0  0  0
    0.3020   -0.3020    0.0000 C   0  0  0  0  0  0  0  0  0  0  0  0
   -0.1105    0.4125    0.0000 C   0  0  0  0  0  0  0  0  0  0  0  0
    0.3020    1.1270    0.0000 C   0  0  0  0  0  0  0  0  0  0  0  0
    1.1270    1.1270    0.0000 C   0  0  0  0  0  0  0  0  0  0  0  0
    1.5395    0.4125    0.0000 C   0  0  0  0  0  0  0  0  0  0  0  0
   -0.9355    0.4125    0.0000 C   0  0  0  0  0  0  0  0  0  0  0  0
   -1.7605    0.4125    0.0000 C   0  0  0  0  0  0  0  0  0  0  0  0
   -2.5855    0.4125    0.0000 C   0  0  0  0  0  0  0  0  0  0  0  0
   -3.3000    0.0000    0.0000 C   0  0  0  0  0  0  0  0  0  0  0  0
   -3.3000    0.8250    0.0000 C   0  0  0  0  0  0  0  0  0  0  0  0
  1  2  2  0  0  0  0
  2  3  1  0  0  0  0
  3  4  2  0  0  0  0
  4  5  1  0  0  0  0
  5  6  1  0  0  0  0
  7  6  1  6  0  0  0
  7  8  1  0  0  0  0
  8  9  1  0  0  0  0
  9 10  1  0  0  0  0
 10 11  1  0  0  0  0
 11 12  1  0  0  0  0
  7 12  1  0  0  0  0
  4 13  1  0  0  0  0
 13 14  2  0  0  0  0
 14 15  1  0  0  0  0
  2 15  1  0  0  0  0
 15 16  1  0  0  0  0
 16 17  1  0  0  0  0
 17 18  1  0  0  0  0
 18 19  2  0  0  0  0
 19 20  1  0  0  0  0
 20 21  2  0  0  0  0
 21 22  1  0  0  0  0
 22 23  2  0  0  0  0
 14 23  1  0  0  0  0
 18 23  1  0  0  0  0
 20 24  1  0  0  0  0
 24 25  3  0  0  0  0
 25 26  1  0  0  0  0
 26 27  1  0  0  0  0
 27 28  1  0  0  0  0
 26 28  1  0  0  0  0
M  END
> <DATABASE_ID>
DB15346

> <DATABASE_NAME>
drugbank

> <SMILES>
O=C1N=C(OC[C@@H]2COCCO2)C=C2N1CCC1=CC(=CC=C21)C#CC1CC1

> <INCHI_IDENTIFIER>
InChI=1S/C22H22N2O4/c25-22-23-21(28-14-18-13-26-9-10-27-18)12-20-19-6-5-16(4-3-15-1-2-15)11-17(19)7-8-24(20)22/h5-6,11-12,15,18H,1-2,7-10,13-14H2/t18-/m0/s1

> <INCHI_KEY>
IRBAWVGZNJIROV-SFHVURJKSA-N

> <FORMULA>
C22H22N2O4

> <MOLECULAR_WEIGHT>
378.428

> <EXACT_MASS>
378.157957196

> <JCHEM_ACCEPTOR_COUNT>
4

> <JCHEM_ATOM_COUNT>
50

> <JCHEM_AVERAGE_POLARIZABILITY>
42.19089151552457

> <JCHEM_BIOAVAILABILITY>
1

> <JCHEM_DONOR_COUNT>
0

> <JCHEM_FORMAL_CHARGE>
0

> <JCHEM_GHOSE_FILTER>
1

> <JCHEM_IUPAC>
9-(2-cyclopropylethynyl)-2-{[(2S)-1,4-dioxan-2-yl]methoxy}-4H,6H,7H-pyrimido[4,3-a]isoquinolin-4-one

> <ALOGPS_LOGP>
2.39

> <JCHEM_LOGP>
2.2359246576666663

> <ALOGPS_LOGS>
-4.41

> <JCHEM_MDDR_LIKE_RULE>
0

> <JCHEM_NUMBER_OF_RINGS>
5

> <JCHEM_PHYSIOLOGICAL_CHARGE>
0

> <JCHEM_PKA_STRONGEST_BASIC>
-1.2537034148697173

> <JCHEM_POLAR_SURFACE_AREA>
60.36000000000001

> <JCHEM_REFRACTIVITY>
102.7403

> <JCHEM_ROTATABLE_BOND_COUNT>
5

> <JCHEM_RULE_OF_FIVE>
1

> <ALOGPS_SOLUBILITY>
1.49e-02 g/l

> <JCHEM_TRADITIONAL_IUPAC>
(2R)-14-fluoro-2-methyl-6,9,10,19-tetraazapentacyclo[14.2.1.0^{2,6}.0^{8,18}.0^{12,17}]nonadeca-1(18),8,12(17),13,15-pentaen-11-one

> <JCHEM_VEBER_RULE>
0

> <DRUGBANK_ID>
DB15346

> <DRUG_GROUPS>
investigational

> <GENERIC_NAME>
GLPG-1205

$$$$
