
  Mrv1902 03131918072D          

  2  0  0  0  0  0            999 V2000
   -0.4125    0.0000    0.0000 Na  0  3  0  0  0  0  0  0  0  0  0  0
    0.4125    0.0000    0.0000 Cl  0  5  0  0  0  0  0  0  0  0  0  0
M  CHG  2   1   1   2  -1
M  END
> <DATABASE_ID>
DB09153

> <DATABASE_NAME>
drugbank

> <SMILES>
[Na+].[Cl-]

> <INCHI_IDENTIFIER>
InChI=1S/ClH.Na/h1H;/q;+1/p-1

> <INCHI_KEY>
FAPWRFPIFSIZLT-UHFFFAOYSA-M

> <FORMULA>
ClNa

> <MOLECULAR_WEIGHT>
58.443

> <EXACT_MASS>
57.958622382

> <JCHEM_ACCEPTOR_COUNT>
0

> <JCHEM_ATOM_COUNT>
2

> <JCHEM_AVERAGE_POLARIZABILITY>
1.7784

> <JCHEM_BIOAVAILABILITY>
1

> <JCHEM_DONOR_COUNT>
0

> <JCHEM_FORMAL_CHARGE>
0

> <JCHEM_GHOSE_FILTER>
0

> <JCHEM_IUPAC>
sodium chloride

> <ALOGPS_LOGP>
0.06

> <JCHEM_LOGP>
-0.77

> <ALOGPS_LOGS>
0.26

> <JCHEM_MDDR_LIKE_RULE>
0

> <JCHEM_NUMBER_OF_RINGS>
0

> <JCHEM_PHYSIOLOGICAL_CHARGE>
1

> <JCHEM_PKA>
3.55

> <JCHEM_PKA_STRONGEST_ACIDIC>
3.09

> <JCHEM_POLAR_SURFACE_AREA>
0.0

> <JCHEM_REFRACTIVITY>
0.0

> <JCHEM_ROTATABLE_BOND_COUNT>
0

> <JCHEM_RULE_OF_FIVE>
1

> <ALOGPS_SOLUBILITY>
1.08e+02 g/l

> <JCHEM_TRADITIONAL_IUPAC>
sodium chloride

> <JCHEM_VEBER_RULE>
1

> <DRUGBANK_ID>
DB09153

> <DRUG_GROUPS>
approved; vet_approved

> <GENERIC_NAME>
Sodium chloride

> <SYNONYMS>
Cloruro sÃ³dico; Natriumchlorid; Natrum muriaticum; Sodium chloride

> <PRODUCTS>
(20 Mmol/l) Potassium Chloride In 3.3% Dextrose and 0.3% Sodium Chloride Injection USP; (20 Mmol/l) Potassium Chloride In 5% Dextrose and 0.9% Sodium Chloride Injection USP; (20mmol/l) Potassium Chloride In 0.9% Sodium Chloride Injection USP; (20mmol/l) Potassium Chloride In 5% Dextrose and 0.2% Sodium Chloride Injection USP; (20mmol/l) Potassium Chloride In 5% Dextrose and 0.45% Sodium Chloride Injection USP; (40 Mmol/l) Potassium Chloride In 0.9% Sodium Chloride Injection USP; (40 Mmols/l) Potassium Chloride In Lactated Ringer's Injection USP; (40mmol/l) Potassium Chloride In 3.3% Dextrose and 0.3% Sodium Chloride Injection USP; (40mmol/l)potassium Chloride In 5% Dextrose and 0.45% Sodium Chloride Injection USP; 0.15% Potassium Chloride In 3.3% Dextrose and 0.30% Sodium Chloride Injection; 0.15% Potassium Chloride In 5% Dextrose and 0.20% Sodium Chloride Injection USP; 0.15% Potassium Chloride In 5% Dextrose and 0.33% Sodium Chloride Injection USP; 0.15% Potassium Chloride In 5% Dextrose and 0.45% Sodium Chloride Injection; 0.15% Potassium Chloride In 5% Dextrose and 0.9% Sodium Chloride Injection; 0.30% Potassium Chloride In 5% Dextrose and 0.45% Sodium Chloride Injection; 0.45% Sodium Chloride Injection USP; 0.9% Sodium Chloride; 0.9% Sodium Chloride Injection; 0.9% Sodium Chloride Injection USP; 0.9% Sodium Chloride Injection, USP; 0.9% Sodium Chloride Irrigation USP; 0.9% Sodium Chloride Irrigation, USP; 1.6% Sodium Chlordie Processing Solution; 10% Dextran 40 In 0.9% Sodium Chloride Injection; 10% Dextrose and 0.9% Sodium Chloride Injection USP; 12% Sodium Chlordie Processing Solution; 2.5% Travasol Amino Acid Injection With Electrolytes In 10% Dextrose; 2.5% Travasol Amino Acid Injection With Electrolytes In 10% Dextrose Clinimix; 2.5%travasol Amino Acid InJ.W.eleC.W.25%dex; 2.75% Travas. Amino Acid InJ.W.elecw.25%dex; 2.75% Travasol Amino Acid Injection With Electrolytes In 25% Dextrose Quickmix; 2.75% Travasol Amino Acid Injection With Electrolytes In 5% Dextrose Quickmix; 2.75%travasol Amino Acid InJ.W.eleC.W.5%dex.; 20% Sodium Chloride Injection, BP; 23.4% Sodium Chloride Injection USP; 3% Sodium Chloride; 3% Sodium Chloride Injection USP; 3.3% Dextrose and 0.3% Sodium Chloride Injection USP; 3.33% Dextrose and 0.3% Sodium Chloride; 4.25% Travasol Amino Acid Injection With Electrolytes In 10% Dextrose; 4.25% Travasol Amino Acid Injection With Electrolytes In 20% Dextrose; 4.25% Travasol Amino Acid Injection With Electrolytes In 20% Dextrose Quickmix; 4.25% Travasol Amino Acid Injection With Electrolytes In 25% Dextrose; 4.25% Travasol Amino Acid Injection With Electrolytes In 5% Dextrose Quickmix; 4.25%travasol Amino Acid InJ.W.elecw.5%dex.; 4381 First Aid Kit; 4382 First Aid Kit; 4383 First Aid Kit; 4384 First Aid Kit; 4385 First Aid Kit; 4386 First Aid Kit; 4387 First Aid Kit; 4388 First Aid Kit; 4393 First Aid Kit; 5% Dextrose In Lactated Ringer's Injection; 5% Dextrose and 0.20% Sodium Chloride Injection USP; 5% Dextrose and 0.225% Sodium Chloride; 5% Dextrose and 0.45% Sodium Chloride; 5% Dextrose and 0.45% Sodium Chloride Injection USP; 5% Dextrose and 0.9% Sodium Chloride; 5% Dextrose and 0.9% Sodium Chloride Injection USP; 5% Sodium Chloride Injection USP; 5% Travasol Amino Acid Injection With Electrolytes In 20% Dextrose; 6% Dextran 70 In 0.9% Sodium Chloride Injection; ADSOL Red Cell Preservation Solution System in Plastic Container (PL 146 Plastic); Acetate Concentrate R07376; Acid Concentrate (r04146); Acid Concentrate (r04938); Acid Concentrate (r04968); Acid Concentrate (r04969); Acid Concentrate (r04974); Acid Concentrate (r04975); Acid Concentrate (r04976); Acid Concentrate (r04981); Acid Concentrate (r04984); Acid Concentrate (ro4147); Acid Concentrate (ro4148); Acid Concentrate (ro9503); Acid Concentrate (rz262c); Acid Concentrate (rz271c); Acid Concentrate (rz272c); Acid Concentrate (rz274c); Acid Concentrate (rz275c); Acid Concentrate 2100; Acid Concentrate 2101; Acid Concentrate 2102; Acid Concentrate 2105; Acid Concentrate 2106; Acid Concentrate 2109; Acid Concentrate 2112; Acid Concentrate 2113; Acid Concentrate 2116; Acid Concentrate 2117; Acid Concentrate 2119; Acid Concentrate 2120; Acid Concentrate 2121; Acid Concentrate 2122; Acid Concentrate 2123; Acid Concentrate 2125; Acid Concentrate 2126; Acid Concentrate 2128; Acid Concentrate 2129; Acid Concentrate 2131; Acid Concentrate 2132; Acid Concentrate 2135; Acid Concentrate 2139; Acid Concentrate 2147; Acid Concentrate 2148; Acid Concentrate 2151; Acid Concentrate 2152; Acid Concentrate 2155; Acid Concentrate 2156; Acid Concentrate 2161; Acid Concentrate 2162; Acid Concentrate 2163; Acid Concentrate 2165; Acid Concentrate 2166; Acid Concentrate 2168; Acid Concentrate 2171; Acid Concentrate 2175; Acid Concentrate 2182; Acid Concentrate 2185; Acid Concentrate 2186; Acid Concentrate 2187; Acid Concentrate 2189; Acid Concentrate 2190; Acid Concentrate 2195; Acid Concentrate 2196; Acid Concentrate 2198; Acid Concentrate 3186; Acid Concentrate 3187; Acid Concentrate A1220; Acid Concentrate A1221; Acid Concentrate A1222; Acid Concentrate A1223; Acid Concentrate A1224; Acid Concentrate A1225; Acid Concentrate A1226; Acid Concentrate A1227; Acid Concentrate A1228; Acid Concentrate A1229; Acid Concentrate A1230; Acid Concentrate A1231; Acid Concentrate A1241; Acid Concentrate A1242; Acid Concentrate A1243; Acid Concentrate A1245; Acid Concentrate A1246; Acid Concentrate A1251; Acid Concentrate A1252; Acid Concentrate A1253; Acid Concentrate A1255; Acid Concentrate A1261; Acid Concentrate A1262; Acid Concentrate A1263; Acid Concentrate A1264; Acid Concentrate A1265; Acid Concentrate A1266; Acid Concentrate A1267; Acid Concentrate A1268; Acid Concentrate A1269; Acid Concentrate A1270; Acid Concentrate A1271; Acid Concentrate A1272; Acid Concentrate A1273; Acid Concentrate A1274; Acid Concentrate A1275; Acid Concentrate A1276; Acid Concentrate A1277; Acid Concentrate A1278; Acid Concentrate A1279; Acid Concentrate A1280; Acid Concentrate A1294; Acid Concentrate A1295; Acid Concentrate A1296; Acid Concentrate A1297; Acid Concentrate A1298; Acid Concentrate Bp Ro4151; Acid Concentrate Bp Ro9505; Acid Concentrate Bp Ro9506; Acid Concentrate Bp Ro9507; Acid Concentrate Bp Rz267c; Acid Concentrate Bp Rz278c; Acid Concentrate Bp Rz279c; Acid Concentrate D 12219 Liq; Acid Concentrate D-12287; Acid Concentrate D-18003; Acid Concentrate D-18006; Acid Concentrate D12028; Acid Concentrate D12054; Acid Concentrate D12067; Acid Concentrate D12091; Acid Concentrate D12092; Acid Concentrate D12093; Acid Concentrate D12094; Acid Concentrate D12095; Acid Concentrate D12112; Acid Concentrate D12117; Acid Concentrate D12119; Acid Concentrate D12132; Acid Concentrate D12135; Acid Concentrate D12143; Acid Concentrate D12146; Acid Concentrate D12150; Acid Concentrate D12167; Acid Concentrate D12184; Acid Concentrate D12185; Acid Concentrate D12186; Acid Concentrate D12187; Acid Concentrate D12188; Acid Concentrate D12196; Acid Concentrate D12197; Acid Concentrate D12200; Acid Concentrate D12201; Acid Concentrate D12203; Acid Concentrate D12204; Acid Concentrate D12205; Acid Concentrate D12207; Acid Concentrate D12209; Acid Concentrate D12220; Acid Concentrate D12221; Acid Concentrate D12225; Acid Concentrate D12236; Acid Concentrate D12247; Acid Concentrate D12248; Acid Concentrate D12249; Acid Concentrate D12250; Acid Concentrate D12251; Acid Concentrate D12252; Acid Concentrate D12255; Acid Concentrate D12259; Acid Concentrate D12260; Acid Concentrate D12261; Acid Concentrate D12262; Acid Concentrate D12263; Acid Concentrate D12264; Acid Concentrate D12265; Acid Concentrate D12266; Acid Concentrate D12267; Acid Concentrate D12268; Acid Concentrate D12269; Acid Concentrate D12270; Acid Concentrate D12271; Acid Concentrate D12272; Acid Concentrate D12273; Acid Concentrate D12274; Acid Concentrate D12275; Acid Concentrate D12282; Acid Concentrate D12284; Acid Concentrate D12285; Acid Concentrate D12286; Acid Concentrate D12290; Acid Concentrate D12291; Acid Concentrate D12292; Acid Concentrate D12293; Acid Concentrate D12294; Acid Concentrate D12299; Acid Concentrate D12300; Acid Concentrate D12301; Acid Concentrate D12302; Acid Concentrate D12303; Acid Concentrate D12304; Acid Concentrate D12305; Acid Concentrate D12306; Acid Concentrate D12308; Acid Concentrate D12309; Acid Concentrate D12310; Acid Concentrate D12311; Acid Concentrate D12315; Acid Concentrate D12316; Acid Concentrate D12318; Acid Concentrate D12319; Acid Concentrate D13001; Acid Concentrate D18000; Acid Concentrate D18001; Acid Concentrate D18008; Acid Concentrate D18009; Acid Concentrate Ro4131; Acid Concentrate Ro4132; Acid Concentrate Ro4136; Acid Concentrate Ro4137; Acid Concentrate Ro4138; Acid Concentrate Ro4144; Acid Concentrate Ro4145; Acid Concentrate Ro4947; Acid Concentrate Ro4965; Acid Concentrate Ro4979; Acid Concentrate Ro4983; Acid Concentrate Ro9500; Acid Concentrate Ro9501; Acid Concentrate Ro9502; Acid Concentrate Rx252c; Acid Concentrate Rx253c; Acid Concentrate Rz110c; Acid Concentrate Rz111c; Acid Concentrate Rz119c; Acid Concentrate Rz123c; Acid Concentrate Rz127c; Acid Concentrate Rz144c; Acid Concentrate Rz150c; Acid Concentrate Rz153c; Acid Concentrate Rz164c; Acid Concentrate Rz167c; Acid Concentrate Rz171c; Acid Concentrate Rz183c; Acid Concentrate Rz185c; Acid Concentrate Rz186c; Acid Concentrate Rz194c; Acid Concentrate Rz195c; Acid Concentrate Rz196c; Acid Concentrate Rz198c; Acid Concentrate Rz202c; Acid Concentrate Rz203c; Acid Concentrate Rz205c; Acid Concentrate Rz206c; Acid Concentrate Rz207c; Acid Concentrate Rz208c; Acid Concentrate Rz209c; Acid Concentrate Rz210c; Acid Concentrate Rz211c; Acid Concentrate Rz212c; Acid Concentrate Rz213c; Acid Concentrate Rz247c; Acid Concentrate Rz248c; Acid Concentrate Rz249c; Acid Concentrate Rz254c; Acid Concentrate Rz264c; Acid Concentrate Rz265c; Acid Concentrate(36.83x) R04900; Acid Concentrate(36.83x) R04906; Acid Concentrate-r04948 Liq; Acid Conentrate (r04930); Acid Hemodialysis Conc Sb 1003; Additive Formula 3; Additive Solution Formula 3 As-3; Additive Solution Sodium Adenine Glucose Mannitol (sagm); Adsol Red Cell Preservation; Airlife Modudose 0.45% Sodium Chloride Solution; Airlife Modudose 0.9% Sodium Chloride Solution; Airlife Sodium Chloride Inhalation Solution USP (0.45%); Airlife Sodium Chloride Inhalation Solution USP (0.9%); Albumin Human Diluent; All natural Saline Packets CareOne; Allergen Pack Alternaria Tenuis; Allergen Pack American Cockroach; Allergen Pack American Elm; Allergen Pack Bermuda Grass; Allergen Pack Dermatophagoides Farinae; Allergen Pack Dog Epithelia; Allergen Pack Eastern Cottonwood; Allergen Pack Gs Ragweed Mix; Allergen Pack Johnson Grass; Allergen Pack Mountain Cedar; Allergen Pack Post Oak; Altachlore Sodium Chloride Hypertonicity; Aminosyn; Aminosyn 10% W Electrolytes; Aminosyn 3.5% M; Aminosyn 8.5% Injection With Electrolytes; Aminosyn II 10% With Electrolytes; Aminosyn II 7% M In 10% Dextrose(dual Chamber); Aminosyn II 8.5% M In 20% Dextrose (dual Chamber); Aminosyn II and Dextrose; Aminosyn II in Dextrose; Aminosyn II with Electrolytes; Aminosyn II with Electrolytes in Dextrose with Calcium; Amo Endosol Extra; Amo Endosol Solution; Amphenol-40; Ancient Secrets Breathe Again; Ancient Secrets Breathe Again Childrens; Antibacterial Hand Sanitizer; Aqua Maris Baby; Aqua Maris Classic; Aqua Maris Clean; Aqua Maris Ear; Aqua Maris Isotonised; Aqua Maris Throat; Artisial; As 3; Athomer; Athomer Baby; Athomer Propolis; Athomer baby; Athomer mini; Azli Diluent; Bacteriostatic Nacl Diluent for Inhalation; Bacteriostatic Sod Chlor Diluent for Inh; Bacteriostatic Sodium Chloride; Bacteriostatic Sodium Chloride Diluent for Inhalation; Bacteriostatic Sodium Chloride Injection USP; Balance 1.5% Glucose, 1.25 Mmol/l Calcium; Balance 1.5% Glucose, 1.75 Mmol/l Calcium; Balance 2.3% Glucose, 1.25 Mmol/l Calcium; Balance 2.3% Glucose, 1.75 Mmol/l Calcium; Balance 4.25% Glucose, 1.25 Mmol/l Calcium; Balance 4.25% Glucose, 1.75 Mmol/l Calcium; Balanced Salt; Balanced Salt Solution; Bc-I Concentrate Pwr; Beanguard Gargle; Bi-peglyte; Bicarb Hemodial Conc 36.83; Bicarb Hemodial Conc 36.83x Acid; Bicarbolyte Bicar Hemodialsis Conc; Bicarbolyte Bicar Hemodialysis Conc; Bicarbolyte Bicar Hemodiaylsis Conc; Bicarbonate Chloride D12052; Bicarbonate Concentrate D16000; Bicarbonate Concentrate D16001; Bicarbonate Concentrate D20000; Bicarbonate Concentrate No 4202 Liq; Bicart Select Combi-pak; Bicavera 1.5% Glucose; Bicavera 2.3% Glucose; Bicavera 4.25% Glucose; Bicavera Forte 1.5% Glucose; Bicavera Forte 2.3% Glucose; Bicavera Forte 4.25% Glucose; Bio-tropin; Blue Green Gold Gagle; Breathe the Sea All-Natural Seawater; Broncho-saline Aerosol 0.9%; Bss; Bss Plus; Bss Sterile Irrigating Solution; Bye Bye (Toc Toc); CPD/ADSOL Red Cell Preservation Solution System (PL 2209); CVS Health Sterile Saline Mist; CVS Health Sterile Saline Mist Live Better; CVS Instant Relief Ready to Use Sinus Wash System; CVS Saline; CVS Sinus Wash; Caneal Peritoneal Dialysis Solution; Cardioplegic; Cardioplegic Solution; Certified Nas Phys.soln Of Nacl .9% W/V B.P.; Citrasate C0125; Citrasate C10125; Citrasate C1125; Citrasate C1150; Citrasate C2125; Citrasate C2150; Citrasate C3125; Citrasate C3150; Citrasate C4125; Cleanoz; Cleansing Wipe / Tube; Clear Mist; Clenz-Lyte; Clinimix; Clinimix E; Colyte; Colyte with flavor packs; Concentrated Haemodialysis Solution Bp-rz266c; Concentrated Haemodialysis Solution Bp-rz270c; Concentrated Haemodialysis Solution Bp-rz273c; Continuous Epidural Anesthesia Tray; Cordema Ointment 5%; Cordema Solution 5%; Corvatrol 0.9%; Cpd/adsol; Cvs; Cytosol Ophthalmics - Balanced Salt Solution; D-12043 Sol Conc Electrolyt Pour Dialy; D.S Crystal Tooth; D12006; D12034 Conc Electrolyte Renal Dialysis; D12046 Conc Electrolyte Renal Dialysis; D12230 Liq; DIANEAL Low Calcium Peritoneal Dialysis Solution with Dextrose; DIANEAL Low Calcium with Dextrose; DIANEAL PD-1 with Dextrose; DIANEAL PD-2 Peritoneal Dialysis Solution with Dextrose; DIANEAL PD-2 with Dextrose; Delflex; Delflex A Perit.dial.solN.W.1.5%dext.low mg; Delflex A Perit.dial.solN.W.2.5%dext.low mg; Delflex A Perit.dial.soln W.4.25%dext.low mg; Delflex A Periton.dial.solN.W.1.5% Dextrose; Delflex A Periton.dial.solN.W.4.25% Dextrose; Delflex A Periton.dial.soln. W.2.5% Dextrose; Delflex Perit.dial.soL.1.5%dex.low Ca Low mg; Delflex Perit.dial.soL.2.5%dex.low Ca Low mg; Delflex Perit.dial.soL.4.25%dex.low Calow mg; Delflex Peritoneal Dialysis Solution With 0.5% Dextrose; Dextran 6% In 0.9% Sodium Chloride Injection; Dextrose 0.2% and 0.9% Sod Chlor Solution; Dextrose 10% and 0.9% Sod Chloride Inj; Dextrose 2.5% In Half Strength Lactated Ringer's Injection, USP; Dextrose 2.5% and Sod Chloride 0.45% Inj USP; Dextrose 3.3% and 0.3% Sod Chloride Inj; Dextrose 5% and 0.2% Sod Chloride Inj; Dextrose 5% and 0.45% Sod Chloride Inj; Dextrose 5% and 0.9% Sod Chloride Inj; Dextrose 5% and Electrolyte No75 Inj; Dextrose 5% and Sod Chloride 0.33% Inj USP; Dextrose 50% Inj W Electrolytes PF Abbovac; Dextrose And Sodium Chloride; Dextrose and Electrolyte No. 48; Dextrose and Electrolyte No. 75; Dextrose and Sodium Chloride; Dextrose in Lactated Ringers; Dextrose in Ringers; Dey-pak Sodium Chloride Solution 0.45%; Dey-pak Sodium Chloride Solution 10%; Dey-pak Sodium Chloride Solution 3%; Dey-vial Sod Chloride Solution 0.9%; Dialysis Solution 35 K0; Dialysis Solution 35 K2; Dialysis Solution 35 K4; Dialyte; Dianeal Pd 101 Capd Solution W 0.5% Dextrose; Dianeal Pd 101 Capd Solution W 1.5% Dextrose; Dianeal Pd 101 Capd Solution W 2.5% Dextrose; Dianeal Pd 101 Capd Solution W 4.25% Dextrose; Dianeal Pd 102 Capd Solution W 1.5% Dextrose; Dianeal Pd 102 Capd Solution W 4.25% Dextrose; Dianeal Pd 104 Capd Solution W 0.5% Dextrose; Dianeal Pd109 Capd Solution; Dianeal Pd4 Capd Solution With 1.5% Dextrose and 2.5meq/l Calcium; Dianeal Pd4 Capd Solution With 2.5% Dextrose and 2.5meq/l Calcium; Dianeal Pd4 Capd Solution With 4.25% Dextrose and 2.5meq/l Calcium; Dianeal for Peritoneal Dialysis; Diluent; Diluent Sterile; Diluent for Allergenic Extract Sterile Normal Saline With Phenol (0.4%); Disposable Convenience Kit (Single Shot Epidural); Dr MINERAL Anti-Itch; Dr MINERAL Anti-Itch Spray; Dr MINERAL Nasal Spray; Dyural 40 Kit; Dyural 80 Kit; Efa Steri Opt 0.48%; Electropeg Solution; Elliott's Solution A; Elliotts B; Entocort Enema; Entsol; Epidural Anesthesia Tray; Equate Comfort Flow Sinus wash; Equate Neti Pot Sinus Wash; Equate Saline Packets; Extra Strenght Saline Mist Rite Aid; Extraneal; Eye Stream; Eye Wash Saline; Eyesaline Eyewash; Family Care Premium Saline Nasal; Fertinorm Hp 150 - Pws Diluent Im Sc; Fertinorm Hp 75 - Pws Diluent Im Sc; Foam Hand Sanitizer; FreAmine III; GaviLyte - C TM; GaviLyte - N; GaviLyte-H and Bisacodyl; Gavilyte G Tm; Gentamicin Sulfate In 0.9% Sodium Chloride Injection; Gentamicin Sulfate In Nacl 0.9% Inj; Gentamicin Sulfate In Nacl O.9% Inj; Gentran 40 10% Sodium Chloride 0.9% Inj; Gentran-70 6% & Sodium Chloride 0.9% Inj; Glycerinated Phenol Saline; GoLYTELY; Golytely Gi Lavage Solution; H-629; H-700; H-701; H-702; H-706; H-710; H.E.L.P. Naci 0.9%; H.E.L.P.bicel; HAEMONETICS 0.9 % Sodium Chloride; Haemonetics Additive Solution Formula 3 (AS-3); Haemosol H-200; Haemosol H-201; Haemosol H-202; Haemosol H-206; Haemosol H-207; Haemosol H-208; Haemosol H-223; Haemosol H-224; Haemosol H-225; Haemosol H-226; Haemosol H-227; Haemosol H-228; Haemosol H-229; Haemosol H-230; Haemosol H-232; Haemosol H-250; Haemosol H-251; Haemosol H-252; Haemosol H-253; Haemosol H-254; Haemosol H-260; Haemosol H-320; Haemosol H-321; Haemosol H-330; Haemosol H-331; Haemosol H-332; Haemosol H-400; Haemosol H-401; Haemosol H-402; Haemosol H-404; Haemosol H-407; Haemosol H-408; Haemosol H-410; Haemosol H-601; Haemosol H-602; Haemosol H-608; Haemosol H-615; Haemosol H-616; Haemosol H-617; Haemosol H-623; Haemosol H-624; Haemosol H-625; Haemosol H-630; Haemosol H-631; Haemosol H-661; Haemosol H-690; HalfLytely and Bisacodyl; HalfLytely and Bisacodyl Bowel Prep with Flavor Packs; Hemasate Ultra Hs0125; Hemasate Ultra Hs1125; Hemasate Ultra Hs1150; Hemasate Ultra Hs2125; Hemasate Ultra Hs2150; Hemasate Ultra Hs3125; Hemasate Ultra Hs3150; Hemasate Ultra Hs4125; Hemosate Ultra Hs0125; Hemosate Ultra Hs1125; Hemosate Ultra Hs1150; Hemosate Ultra Hs2125; Hemosate Ultra Hs2150; Hemosate Ultra Hs3125; Hemosate Ultra Hs3150; Hemosate Ultra Hs4125; Hemosol Lg2; Hemosol Lg4; Hemosol Lo; Heparin Sod and 0.9% Sod Chloride Inj; Heparin Sodium In 0.9% Sodium Chloride Injection; Hespan; Humegon Inj 75 I.U.; Hydroxyethyl Starch in Sodium Chloride; Hyperlyte CR; Hyperlyte CR Multi-electrolyte Concentrate; IMUFLEX WB-RP Blood Bag System with Integral Whole Blood Leukocyte Reduction Filter (Removing Platelets) with Diversion Blood Sampling Arm Anticoagulant Citrate Phosphate Dextrose (CPD) AND OPTISOL (AS-5) Red Cell Preservative; IMUFLEX WB-SP Blood Bag System with Integral Whole Blood Leukocyte Reduction Filter (Saving Platelets) with Diversion Blood Sampling Arm Anticoagulant Citrate Phosphate Dextrose (CPD) and OPTISOL (AS-5) Red Cell Preservative; IV Infusion CPI; Incarvexx Essential; Infant Nasal Anne Geddes; Inpersol Lc With Dextrose 1.5% Liq; Inpersol Lc With Dextrose 2.5% Liq; Inpersol Lc With Dextrose 4.25% Liq; Inpersol Lm W 1.5% Dextrose; Inpersol Lm W 2.5% Dextrose; Inpersol Lm W 4.25% Dextrose; Inpersol W Dextrose 1.5%; Inpersol W Dextrose 2.5%; Inpersol W Dextrose 4.25% Inj; Inpersol With Dextrose 0.5%; Instillation Medium for Immucyst; InterSol; Iocare Balanced Salt Solution; Ionosol B and Dextrose; Ionosol and Dextrose; Isolyte H With Dextrose 5% Inj; Isolyte H in Dextrose; Isolyte M In 5% Dextrose; Isolyte M in Dextrose; Isolyte R In 5% Dextrose; Isolyte S; Isolyte S (multi-electrolyte Injection); Isolyte S Ph 7.4 (multi-electrolyte Injection); Isolyte S With 5% Dextrose Inj; Isolyte S in Dextrose; Isolyte S pH 7.4; Isoplate; Jamp-electropeg; Jamp-electropeg With Flavour Packet; Jamplyte; Jamplyte 280; Jamshidi Menghini Soft Tissue Biopsy Tray; Jilgyungyi; K+36.8; K1 Liq R04911; K1 Liq R04978; K2 Liq R04902; K2 With Glucose Liq R04977; Kettle Neti Pot; Klean-prep; Lacellate Solution - 1000; Lacellate Solution - 250; Lacellate Solution - 500; Lactate 1-2-3 Injection; Lactate Chloride Dextrose Inj; Lactated Ringer's Injection; Lactated Ringer's Injection USP; Lactated Ringer's Injection, USP; Lactated Ringer's Irrigation; Lactated Ringer's Irrigation Sol; Lactated Ringer's and 5% Dextrose; Lactated Ringer's and 5% Injection, USP; Lactated Ringers; Lactated Ringers Irrigation; Lactated Ringers and Dextrose; Lacto Bella Y; Leader Sinus Wash Saline Refill Packets; Lentaron; Leucoflex CGP; Liquivida Hydration; Lmd 10% In 0.9% Sodium Chloride; Lyteprep; Lytren; Lytren Rhs Liq; MEIJER Saline; MTL1 Leucoflex; Macrodex 6% In Normal Saline; Major Hypertonicity; Major Hypertonicity Ophthalmic; Mencevax Ac Pws 500mcg/vial; Mencevax Ac Pws 50mcg/vial; Mencevax Ac Pws Inj 2500mcg/vial; Menopur; Moi-stir Oral Swabsticks; Moi-stir Spray; MoviPrep; Moviprep; Multiple Electrolyte Additive Inj; Multiple Electrolyte Additive Liq Formula 1; Multiple Electrolytes pH 5.5; Multiple Electrolytes pH 7.4; Muro 128; Muro 128 Oph Soln 2%; Na-zone; Nacellate Solution 0.9% - 1000mL; Nacellate Solution 0.9% - 100mL; Nacellate Solution 0.9% - 250mL; Nacellate Solution 0.9% - 500mL; Nasal Saline; Nasal Spa Natural Sea Salt; NasalAsalt All-Natural Seawater; Nasosol Saline; NasoxinSpray; Naturalyte H-200; Naturalyte H-201; Naturalyte H-202; Naturalyte H-206; Naturalyte H-208; Naturalyte H-223; Naturalyte H-224; Naturalyte H-225; Naturalyte H-226; Naturalyte H-227; Naturalyte H-228; Naturalyte H-229; Naturalyte H-230; Naturalyte H-232; Naturalyte H-251; Naturalyte H-252; Naturalyte H-260; Naturalyte H-320; Naturalyte H-321; Naturalyte H-330; Naturalyte H-331; Naturalyte H-332; Naturalyte H-400; Naturalyte H-401; Naturalyte H-402; Naturalyte H-407; Naturalyte H-408; Naturalyte H-410; Naturalyte H-602; Naturalyte H-608; Naturalyte H-615; Naturalyte H-616; Naturalyte H-617; Naturalyte H-623; Naturalyte H-624; Naturalyte H-625; Naturalyte H-630; Naturalyte H-631; Naturalyte H-661; Naturalyte H-690; Naturalyte H-702; Naturalyte H-706; Navstel; Normal Salt; Normocarb 25; Normocarb 35; Normosol-M & 5% Dextrose; Normosol-M and Dextrose; Normosol-R; Normosol-R & 5% Dextrose; Normosol-R and Dextrose; NuLYTELY; NuLYTELY With Flavor Packs; Nutrilyte II; Nutrineal Pd4; Nxstage Pureflow Dialysate Concentrate (sak 303); Nxstage Pureflow Dialysate Concentrate (sak 304); Nxstage Pureflow Dialysate Concentrate (sak 305); Nxstage Pureflow Dialysate Concentrate (sak-301); Nxstage Pureflow Dialysate Concentrate (sak-302); Nxstage Pureflow Solution Rfp-204-can; Nxstage Pureflow Solution Rfp-207-can; Nxstage Pureflow Solution Rfp-209-can; Ocl Solution; Octiq; Odan Balanced Salt Solution; Ora Rinse Liq; P-Care 100MX; P-Care D40MX; P-Care D80MX; P-Care K40MX; P-Care K80MX; P-Care M; P-Care MG; P-Care X; PEG-3350 and Electrolytes; PEG-3350, Electrolytes, and Ascorbate; PEG-3350, sodium chloride, sodium bicarbonate and potassium chloride; PMS-peglyte; POLYETHYLENE GLYCOL 3350, SODIUM CHLORIDE, SODIUM BICARBONATE and POTASSIUM CHLORIDE; Peg-3350; Peg-3350, Sodium Sulfate, Sodium Chloride, Potassium Chloride, Sodium Ascorbate and Ascorbic Acid; Peglyte Powder; Peglyte Solution; Ph 12 Sterile Diluent for Flolan; Phenol Saline Inj; Phoxillum B22k4/0; Phoxillum Bk4/2.5; Physiolyte; Physioneal 40 Glucose 1.36% W/V 13.6mg/ml Clear-flex; Physioneal 40 Glucose 1.36% W/V 13.6mg/ml Solution for Peritoneal Dialysis; Physioneal 40 Glucose 2.27% W/V 22.7 mg/ml Clear-flex; Physioneal 40 Glucose 2.27% W/V 22.7 mg/ml, Solution for Peritoneal Dialysis; Physioneal 40 Glucose 3.86% W/V 38.6 mg/ml Clear-flex; Physioneal 40 Glucose 3.86% W/V 38.6mg/ml, Solution for Peritoneal Dialysis; Physiosol; Plasma-Lyte 148; Plasma-Lyte 148 and dextrose; Plasma-Lyte A; Plasma-Lyte M and Dextrose; Plasma-Lyte R; Plasma-lyte 56; Plasma-lyte 56 5% Dextrose Inj; Plasma-lyte 56 and Dextrose; Plasma-lyte A Injection; Plasmalyte 148 In 5% Dextrose Inj; Plasmalyte 148 In Water; Plegisol; Plenvu; Polyethylene Glycol 3350 and Electrolytes; Polyethylene Glycol 3350 and electrolytes - Unflavored; Polyethylene Glycol 3350 and electrolytes with Lemon Flavor; Polyethylene Glycol 3350 and electrolyteswith Orange Flavor; Polyethylene Glycol 3350, Sodium Chloride, Sodium Bicarbonate and Potassium Chloride - Unflavored; Polyethylene Glycol 3350, Sodium Chloride, Sodium Bicarbonate and Potassium Chloride with Lemon Flavor; Polyethylene Glycol 3350, Sodium Chloride, Sodium Bicarbonate and Potassium Chloride with Orange Flavor; Polyethylene Glycol-3350 and Electrolytes; Polyethylene Glycol-3350 and Electrolytes with Flavor Pack; Polyethylene Glycol-3350, Sodium Chloride, Potassium Chloride and Sodium Bicarbonate; Potas Chlor 20meq 5% Dex and Lactate Ringer; Potas Chlor 30meq 5% Dex and 0.2% Sod Chlor; Potass Chlor 10meq 5% Dex and 0.2% Sod Chlor; Potass Chlor 30meq 5% Dex and 0.33% Sod Chlor; Potass Chlor 30meq 5% Dex and 0.45% Sod Chlor; Potass Chlor 40meq 5% Dex and 0.2% Sod Chlor; Potass Chlor 40meq 5% Dex and 0.33% Sod Chlor; Potass Chlor 40meq 5% Dex and 0.9% Sod Chlor; Potass Chloride 5% Dextr 0.45% Sod Chlor Inj; Potassium 20meq 5% Dextrose and 0.33% Sodium Chloride; Potassium Chlor 40meq 5% Dex & Lac Ring; Potassium Chloride 20 Meq In 0.9% Sodium Chloride; Potassium Chloride 20 Meq In 3.3% Dextrose and 0.3% Sodium Chloride; Potassium Chloride 20 Meq In 5% Dextrose and 0.225% Sodium Chloride; Potassium Chloride 20 Meq In 5% Dextrose and 0.45% Sodium Chloride; Potassium Chloride 20 Meq In 5% Dextrose and 0.9% Sodium Chloride; Potassium Chloride 40 Meq In 0.9% Sodium Chloride; Potassium Chloride 40 Meq In 3.3% Dextrose and 0.3% Sodium Chloride; Potassium Chloride 40 Meq In 5% Dextrose and 0.45% Sodium Chloride; Potassium Chloride 40 Meq In 5% Dextrose and 0.9% Sodium Chloride; Potassium Chloride In Lactated Ringer's Injection; Potassium Chloride In Sodium Chloride; Potassium Chloride In Sodium Chloride Injection USP; Potassium Chloride and Dextrose; Potassium Chloride in Dextrose and Sodium Chloride; Potassium Chloride in Lactated Ringers and Dextrose; Potassium Chloride in Sodium Chloride; Prism0cal; Prism0cal B22k0/0; PrismaSol; Prismasol 0; Prismasol 2; Prismasol 4; Prismasol B22gk4/0; Prismasol Bgk0/2.5; Prismasol Bgk2/0; Prismasol Bgk2/3.5; Prismasol Bgk4/0/1.2; Prismasol Bgk4/2.5; Prismasol Bgk4/3.5; Prismasol Bk0/0/1.2; ProcalAmine; Proception Sperm Nutrient Douche; Procytox for Injection 2000mg Pws IV; Prolax - Pws; Puregon 100 I.U.; Puregon 50 I.U.; Quick Mix 2.5% Travasol Aa With Electrolytes With 25% Dextrose Injec; R04903 Liq; R04909 Liq; R04919 Liq; R04922 Liq; R04931 Liq; R04936 Liq; R04940 Liq; R04945 Liq; R04946 Liq; R04972 Liq; R04973 Liq; Real Summer; Rebif; Regiocit; Rehydralyte; Relisorm 100 for Inj.-pws Liq-kit Sc IV; Relisorm 500 for Inj.-pws Liq-kit IV Sc; Retaine NaCl; Rexall Sinus Wash System Soft Tip Squeeze bottle; Rheomacrodex 10% In Normal Saline; Ringer's Inj; Ringer's Injection USP; Ringers; Ringers Irrigation; Ringers and Dextrose; Rs-274; SDG high level disinfectant; SUEROLYTE Oral Electrolyte Solution Apple Flavor; SUEROLYTE Oral Electrolyte Solution Bubbe Gum Flavor; SUEROLYTE Oral Electrolyte Solution Cherry Flavor; SUEROLYTE Oral Electrolyte Solution Coconut Flavor; SUEROLYTE Oral Electrolyte Solution Grape Flavor; SUEROLYTE Oral Electrolyte Solution Horchate Flavor; SUEROLYTE Oral Electrolyte Solution Lemon-Lime Flavor; SUEROLYTE Oral Electrolyte Solution Mango Flavor; SUEROLYTE Oral Electrolyte Solution Orange Flavor; SUEROLYTE Oral Electrolyte Solution Peach Flavor; SUEROLYTE Oral Electrolyte Solution Pineapple Flavor; SUEROLYTE Oral Electrolyte Solution Strawberry Banana Flavor; SUEROLYTE Oral Electrolyte Solution Tropical Fruits Flavor; SUEROLYTE Oral Electrolyte Solution Unflavored Flavor; Safeway Nasal Physiological Sol. Of Nacl .9%; Sag-M; Sag-mannitol Solution; Saizen 10iu - Kit; Saline; Saline Mist; Saline Nasal; Saline Nasal 1 fl oz; Saline Nasal 1.5oz; Saline Nasal 2oz; Saline Nasal 3oz; Saline Nasal Mist - Liq Nas - 0.90%; Saline Nasal Mist Liq 0.9%; Saline Nasal moisturizing Walgreens; Saline Refills; Saline Wash; Saline Wipes; Salinex Nasal Lubricant; Salinex Nasal Lubricant Gel; Salinol Sol 160mg; Salivart Aer; Salivart Oral Moisturizer; Sb 1000; Sb 1004; Sb 1005; Sb 1006; Sb-110; Sb-111; Sb-119; Sb-123; Sb-127; Sb-131; Sb-132; Sclerodex; Sea Clens Wound Cleanser; Sels Mexicain; Selutrio 10; Selutrio 40; Simply Saline Comfort Flow Sinus wash; Simply Saline Neti Pot Sinus wash; Single-shot Epidural Anesthesia Tray; SinuCleanse; SinuCleanse Micro-Filtered Nasal Wash System; SinuCleanse Nasal Drip; SinuCleanse Neti-Pot; SinuCleanse Squeeze; SinuCleanse Sterile Saline Mist; SinuCleanse Sterile Saline Mist Daily Care; Sinus Wash; Sinus Wash Packet; Sinus Wash Pre Mixed Ready to Use Rite Aid; Sinus Wash Saline Packets Good Neighbor Pharmacy; Sinus Wash Saline Refills Meijer; Sinus Wash Saline Refills Premier Value; Sochlor; Sodium Bicarbonate-chloride Dry Concentrate; Sodium Bicarbonate-chloride Dry Concentrate R04955; Sodium Bicarbonate-chloride Liquid Concentrate Ro4941; Sodium Chloride; Sodium Chloride 0.45% Inj; Sodium Chloride 0.9% Inj; Sodium Chloride 1 Gram; Sodium Chloride 3% Inj; Sodium Chloride 5% Inj; Sodium Chloride Additive Soln 23.4%; Sodium Chloride Bacteriostatic Inj; Sodium Chloride Hypertonicity; Sodium Chloride Hypertonicity Ophthalmic; Sodium Chloride Inhalation Solution; Sodium Chloride Inhalation Solution U.S.P. (0.90% Nacl); Sodium Chloride Inhalation Solution USP; Sodium Chloride Inhalation Solution USP 0.9%; Sodium Chloride Inj 0.9%; Sodium Chloride Inj 0.9% 2ml BP; Sodium Chloride Inj 0.9% USP; Sodium Chloride Inj 23.4%; Sodium Chloride Inj. 0.9% BP; Sodium Chloride Injection 0.9%; Sodium Chloride Injection 0.9% USP; Sodium Chloride Injection 5%; Sodium Chloride Injection U.S.P. Liq 9mg/ml; Sodium Chloride Injection USP; Sodium Chloride Injection USP 0.45%; Sodium Chloride Injection USP 0.9%; Sodium Chloride Injection, USP; Sodium Chloride Irrigation Soln 0.9%; Sodium Chloride Irrigation USP; Sodium Chloride Normal Salt; Sodium Chloride Tab 1gm; Sodium Chloride Tab 600mg; Sodium Chloride for Irrigation; Sodium Chloride, Inhalation Solution, U.S.P. (0.45% Nacl); Sodium Chlorode Hypertonicity Ophthalmic Solution; Sodium chloride; Sodum Chloride; Soft Tip Neti Pot Easy to use Sinus Relief Premier Value; Soft Tip Neti Pot Good Neighbor Pharmacy; Soft Tip Neti Pot Sinus Wash Rite Aid; Soft Tip Neti Pot Sinus wash CareOne; Soft Tip Neti Pot Sinus wash Meijer; Soft Tip Neti Pot Soothing Sinus Relief Good Neighbor; Soft Tip Squeeze bottle Sinus Wash Good Neighbor Pharmacy; Soft Tip Squeeze bottle Sinus Wash Meijer; Soft Tip Squeeze bottle Sinus Wash Premier Value; Soft Tip Squeeze bottle Sinus Wash Rite Aid; Solucion InterSol; Solution Saline Sterile Aux Phosphates; Sporanox; Ssp+; Sterile 0.45% Sodium Chloride; Sterile 0.45% Sodium Chloride Solution for Inhalation USP 3ml; Sterile 0.9% Sodium Chloride; Sterile 0.9% Sodium Chloride Solution for Inhalation USP 3ml; Sterile Diluent for Flolan Injection; Sterile Hypertonic Saline Solution 7 Sodium Chloride; Sterile Saline Kids Mist PediaMeds; Sterile Saline Kids Mist SinuCleanse Breathe; Sterile Saline Mist Rite Aid; Sterile Saline Mist Walgreens; Stilamin - Pws Liq IV; Suclear; TERUFLEX Blood Bag System Anticoagulant Citrate Phosphate Dextrose (CPD) AND OPTISOL Red Cell Preservative; TERUFLEX Blood Bag System with Blood Sampling Arm Anticoagulant Citrate Phosphate Dextrose (CPD) AND OPTISOL (AS-5) Red Cell Preservative; TERUFLEX Blood Bag System with Diversion Blood Sampling Arm Anticoagulant Citrate Phosphate Dextrose (CPD) AND OPTISOL (AS-5) Red Cell Preservative; TID Clean Align; TID Clean Care; TID Clean Dent; TID Clean Plant; TPN Electrolytes; TRILYTE with flavor packs; Thermotabs Buffered Salt Supplement; Tis-U-Sol; Tis-U-sol; Tis-U-sol Solution; Tqm Acid Concentrate A1280; Travasol; Travasol Amino Acid Inj 5.5%; Travasol Amino Acid Inj 8.5%; Travasol E; TriLyte with Flavor Packs; Vivia Acid; Vortex Moisturizer Nasal; Walgreen Saline; Walgreens Filtered Squeeze Sinus Wash System; Walgreens Hypertonicity; Walgreens Infants and Childrens Saline Nasal; Walgreens Muro 128; Walgreens Saline; Walgreens Saline Mist Extra Strength; Walgreens Sinus Wash Squeeze Bottle Kit; Walgreens Sodium Chloride Ophthalmic 5 Percent Hypertonicity Eye; Well at Walgreens; Wild Horse 777 Moisturizing Nasal; WinCo Foods Saline Nasal; WinCo Foods Saline Nasal Relief; Winrho Sd Kit Inj; Winrho Sd Kit Inj.; Yeti Pot- Schnoz Wash; i-Oint LUBRICANT EYE

$$$$
