
  Mrv1652306131722032D          

  1  0  0  0  0  0            999 V2000
    0.0000    0.0000    0.0000 Xe  0  0  0  0  0  0  0  0  0  0  0  0
M  ISO  1   1 127
M  END
> <DATABASE_ID>
DB09461

> <DATABASE_NAME>
drugbank

> <SMILES>
[127Xe]

> <INCHI_IDENTIFIER>
InChI=1S/Xe/i1-4

> <INCHI_KEY>
FHNFHKCVQCLJFQ-AHCXROLUSA-N

> <FORMULA>
Xe

> <MOLECULAR_WEIGHT>
126.9052

> <EXACT_MASS>
126.905179581

> <JCHEM_ACCEPTOR_COUNT>
0

> <JCHEM_ATOM_COUNT>
1

> <JCHEM_AVERAGE_POLARIZABILITY>
1.7784

> <JCHEM_BIOAVAILABILITY>
1

> <JCHEM_DONOR_COUNT>
0

> <JCHEM_FORMAL_CHARGE>
0

> <JCHEM_GHOSE_FILTER>
0

> <JCHEM_IUPAC>
(127Xe)xenon

> <JCHEM_LOGP>
0.0

> <JCHEM_MDDR_LIKE_RULE>
0

> <JCHEM_NUMBER_OF_RINGS>
0

> <JCHEM_PHYSIOLOGICAL_CHARGE>
0

> <JCHEM_POLAR_SURFACE_AREA>
0.0

> <JCHEM_REFRACTIVITY>
0.0

> <JCHEM_ROTATABLE_BOND_COUNT>
0

> <JCHEM_RULE_OF_FIVE>
1

> <JCHEM_TRADITIONAL_IUPAC>
(127Xe)xenon

> <JCHEM_VEBER_RULE>
1

> <DRUGBANK_ID>
DB09461

> <DRUG_GROUPS>
approved

> <GENERIC_NAME>
Xenon Xe-127

> <SYNONYMS>
Xenon Xe 127; Xenon Xe-127; Xenon-127

$$$$
