
  Mrv1718004101811282D          

  6  4  0  0  0  0            999 V2000
   -0.1275   -1.0505    0.0000 Fe  0  2  0  0  0  0  0  0  0  0  0  0
    0.0000    0.4671    0.0000 S   0  0  0  0  0  0  0  0  0  0  0  0
    0.5834    1.0505    0.0000 O   0  0  0  0  0  0  0  0  0  0  0  0
   -0.5834   -0.1161    0.0000 O   0  5  0  0  0  0  0  0  0  0  0  0
   -0.5834    1.0505    0.0000 O   0  0  0  0  0  0  0  0  0  0  0  0
    0.5834   -0.1161    0.0000 O   0  5  0  0  0  0  0  0  0  0  0  0
  2  3  2  0  0  0  0
  2  4  1  0  0  0  0
  2  5  2  0  0  0  0
  2  6  1  0  0  0  0
M  CHG  3   1   2   4  -1   6  -1
M  END
> <DATABASE_ID>
DB13257

> <DATABASE_NAME>
drugbank

> <SMILES>
[Fe++].[O-]S([O-])(=O)=O

> <INCHI_IDENTIFIER>
InChI=1S/Fe.H2O4S/c;1-5(2,3)4/h;(H2,1,2,3,4)/q+2;/p-2

> <INCHI_KEY>
BAUYGSIQEAFULO-UHFFFAOYSA-L

> <FORMULA>
FeO4S

> <MOLECULAR_WEIGHT>
151.908

> <EXACT_MASS>
151.886671311

> <JCHEM_ACCEPTOR_COUNT>
4

> <JCHEM_ATOM_COUNT>
6

> <JCHEM_AVERAGE_POLARIZABILITY>
5.805278247285031

> <JCHEM_BIOAVAILABILITY>
1

> <JCHEM_DONOR_COUNT>
0

> <JCHEM_FORMAL_CHARGE>
0

> <JCHEM_GHOSE_FILTER>
0

> <JCHEM_IUPAC>
lambda2-iron(2+) sulfate

> <JCHEM_LOGP>
-0.8415520233333333

> <JCHEM_MDDR_LIKE_RULE>
0

> <JCHEM_NUMBER_OF_RINGS>
0

> <JCHEM_PHYSIOLOGICAL_CHARGE>
-2

> <JCHEM_PKA>
1.8964254257138706

> <JCHEM_PKA_STRONGEST_ACIDIC>
-3.034349054191991

> <JCHEM_POLAR_SURFACE_AREA>
80.25999999999999

> <JCHEM_REFRACTIVITY>
11.5274

> <JCHEM_ROTATABLE_BOND_COUNT>
0

> <JCHEM_RULE_OF_FIVE>
1

> <JCHEM_TRADITIONAL_IUPAC>
lambda2-iron(2+) sulfate

> <JCHEM_VEBER_RULE>
0

> <DRUGBANK_ID>
DB13257

> <SECONDARY_ACCESSION_NUMBERS>
DBSALT000084

> <DRUG_GROUPS>
approved

> <GENERIC_NAME>
Ferrous sulfate anhydrous

> <SYNONYMS>
iron sulfate (1:1); iron(2+) sulfate (anhydrous); iron(II) sulfate

> <PRODUCTS>
Abavite; Bentivite; Exact-Rx SODIUM SULFACETAMIDE and SULFER 10%/5% Cleanser; FE-Vite Iron Oral Solution; Ferinsol Drops; Fero Grad 500; Fero Grad Filmtab; Ferrous Sulfate; Ferrous Sulfate 324mg Enteric Coated; Ferrous Sulfate Ect 300mg; Ferrous Sulfate Enteric Coated; Ferrous Sulfate Tab 300mg; Ferrous Sulfate Tab 325mg USP; Ferrous Sulfate Tablets 300mg; Ferrous Sulphate; Formule No 204 Profil Tab; Gnc Timed Release Womens Iron Fmla-src 30mg; Hemarexin Tab; Hormodausse Plus Calc Et D Tab; Iberet 500; Iron 35mg Sustained Release Dietary Supplement; Iron Cap 50mg Time Release; K.L. Vitamin-mineral; Kanga-V Multivitamins & Minerals; Kanga-kid Multi-vitamin & Mineral; Kanga-kid Vitamins & Iron; Livron Plus Ampoule; Multi Rol; Multi Vitamin Drops with Fluoride and Iron; Multi Vitamin Drops with Fluoride with Iron; Multi-Vit with Fluoride and Iron; Multi-Vitamin Drops with Fluoride and Iron; MultiVitamin Drops with Fluoride and Iron; MultiVitamin, Iron and Fluoride Drops; Multiple Vitamin Plus Minerals Tab; Multiple Vitamins W Minerals Tab; Multiple Vitamins and Minerals Tab; Multivitamines Et Mineraux; Multivitamins W Minerals Extra Strength; Novo-ferrosulfa Ect 300mg; Novo-ferrosulfa Tab 300mg(fct); Orange Flavored Crystal Chews Tab; Orifer F; Paramettes Multivits Plus Iron Tab (teens); Phytofortis + Calcium A-D; Poly-Vite/Iron Oral Solution; Quflora FE Pediatric Drops; Revival 1 Tab; Sulfate Ferreux 300mg Tab; Surbex-500 With Iron; TL-Fol 500; Timed Release Iron 50mg Tablets; Tri-Vit With Fluoride And Iron Drops; Tri-Vitamin with iron and fluoride

> <INTERNATIONAL_BRANDS>
Anemifer; Aritoferon; Bioron; Blissferon; Caron; Dyaferon; Fe-Plus; Feklon; Feromin; Ferrifol; Ferrocebrina Solucion; Ferrogeme; Ferroglobin; Ferrograd; Ferrolin; Ferrosi; Ferrosi sulfas; Ferrous Sulfate Washington Pharm; Ferrous Sulfate-Minsheng Pharm; Fertonic; Fesyrup; Hierro Fabra; Hierro Richet; Hierro Vannier; Iberol; Inshel; Iron-200; Jeferin; Kdiron; Kidiron; Pediafer Goutt; Pharmafer; Rhea Ferrous Sulfate; Sulfas Ferrosus; Sulfato Ferroso; Sulfato Ferroso Ecar; Sulfato Ferroso Kronos; Sulfato Ferroso L.Ch.; Sulfato Ferroso Richet; Sulfato Ferroso Sant Gall Friburg; Sulfato Ferroso Valma; TGI; Tibilin; United Home Fersulfate Iron; Valdefer; Vitafer-Fol

> <SALTS>
Ferrous sulfate; Ferrous sulfate dihydrate; Ferrous sulfate monohydrate; Ferrous sulfate sesquihydrate

$$$$
