
  Mrv1652310211604452D          

 22 24  0  0  1  0            999 V2000
    0.7145    9.2411    0.0000 C   0  0  0  0  0  0  0  0  0  0  0  0
    0.7145    8.4161    0.0000 N   0  0  0  0  0  0  0  0  0  0  0  0
    1.4289    8.0036    0.0000 C   0  0  0  0  0  0  0  0  0  0  0  0
    1.4289    7.1786    0.0000 C   0  0  0  0  0  0  0  0  0  0  0  0
    0.7145    6.7661    0.0000 N   0  0  0  0  0  0  0  0  0  0  0  0
   -0.0000    7.1786    0.0000 C   0  0  0  0  0  0  0  0  0  0  0  0
   -0.0000    8.0036    0.0000 N   0  0  0  0  0  0  0  0  0  0  0  0
    0.7145    5.9411    0.0000 C   0  0  0  0  0  0  0  0  0  0  0  0
    1.4289    5.5286    0.0000 C   0  0  0  0  0  0  0  0  0  0  0  0
    1.4289    4.7036    0.0000 C   0  0  0  0  0  0  0  0  0  0  0  0
    0.7145    4.2911    0.0000 C   0  0  0  0  0  0  0  0  0  0  0  0
    0.0000    4.7036    0.0000 C   0  0  0  0  0  0  0  0  0  0  0  0
   -0.0000    5.5286    0.0000 C   0  0  0  0  0  0  0  0  0  0  0  0
   -0.7145    5.9411    0.0000 F   0  0  0  0  0  0  0  0  0  0  0  0
    0.7145    3.4661    0.0000 N   0  0  0  0  0  0  0  0  0  0  0  0
    1.3819    2.9812    0.0000 C   0  0  0  0  0  0  0  0  0  0  0  0
    1.1270    2.1965    0.0000 C   0  0  1  0  0  0  0  0  0  0  0  0
    0.3020    2.1965    0.0000 O   0  0  0  0  0  0  0  0  0  0  0  0
    0.0470    2.9812    0.0000 C   0  0  0  0  0  0  0  0  0  0  0  0
   -0.7376    3.2361    0.0000 O   0  0  0  0  0  0  0  0  0  0  0  0
    1.6119    1.5291    0.0000 C   0  0  0  0  0  0  0  0  0  0  0  0
    2.4324    1.6153    0.0000 O   0  0  0  0  0  0  0  0  0  0  0  0
  1  2  1  0  0  0  0
  2  3  1  0  0  0  0
  3  4  1  0  0  0  0
  4  5  1  0  0  0  0
  5  6  1  0  0  0  0
  6  7  2  0  0  0  0
  2  7  1  0  0  0  0
  5  8  1  0  0  0  0
  8  9  2  0  0  0  0
  9 10  1  0  0  0  0
 10 11  2  0  0  0  0
 11 12  1  0  0  0  0
 12 13  2  0  0  0  0
  8 13  1  0  0  0  0
 13 14  1  0  0  0  0
 11 15  1  0  0  0  0
 15 16  1  0  0  0  0
 16 17  1  0  0  0  0
 17 18  1  0  0  0  0
 18 19  1  0  0  0  0
 15 19  1  0  0  0  0
 19 20  2  0  0  0  0
 17 21  1  6  0  0  0
 21 22  1  0  0  0  0
M  END
> <DATABASE_ID>
DB13077

> <DATABASE_NAME>
drugbank

> <SMILES>
CN1CCN(C=N1)C1=CC=C(C=C1F)N1C[C@H](CO)OC1=O

> <INCHI_IDENTIFIER>
InChI=1S/C14H17FN4O3/c1-17-4-5-18(9-16-17)13-3-2-10(6-12(13)15)19-7-11(8-20)22-14(19)21/h2-3,6,9,11,20H,4-5,7-8H2,1H3/t11-/m1/s1

> <INCHI_KEY>
QLUWQAFDTNAYPN-LLVKDONJSA-N

> <FORMULA>
C14H17FN4O3

> <MOLECULAR_WEIGHT>
308.313

> <EXACT_MASS>
308.128468586

> <JCHEM_ACCEPTOR_COUNT>
6

> <JCHEM_ATOM_COUNT>
39

> <JCHEM_AVERAGE_POLARIZABILITY>
30.882203056317913

> <JCHEM_BIOAVAILABILITY>
1

> <JCHEM_DONOR_COUNT>
1

> <JCHEM_FORMAL_CHARGE>
0

> <JCHEM_GHOSE_FILTER>
1

> <JCHEM_IUPAC>
(5R)-3-[3-fluoro-4-(1-methyl-1,4,5,6-tetrahydro-1,2,4-triazin-4-yl)phenyl]-5-(hydroxymethyl)-1,3-oxazolidin-2-one

> <ALOGPS_LOGP>
-0.49

> <JCHEM_LOGP>
0.10553086066666675

> <ALOGPS_LOGS>
-2.51

> <JCHEM_MDDR_LIKE_RULE>
0

> <JCHEM_NUMBER_OF_RINGS>
3

> <JCHEM_PHYSIOLOGICAL_CHARGE>
0

> <JCHEM_PKA_STRONGEST_ACIDIC>
14.608044786855896

> <JCHEM_PKA_STRONGEST_BASIC>
3.3539720657671457

> <JCHEM_POLAR_SURFACE_AREA>
68.61

> <JCHEM_REFRACTIVITY>
77.65920000000001

> <JCHEM_ROTATABLE_BOND_COUNT>
3

> <JCHEM_RULE_OF_FIVE>
1

> <ALOGPS_SOLUBILITY>
9.48e-01 g/l

> <JCHEM_TRADITIONAL_IUPAC>
(5R)-3-[3-fluoro-4-(1-methyl-5,6-dihydro-1,2,4-triazin-4-yl)phenyl]-5-(hydroxymethyl)-1,3-oxazolidin-2-one

> <JCHEM_VEBER_RULE>
0

> <DRUGBANK_ID>
DB13077

> <DRUG_GROUPS>
investigational

> <GENERIC_NAME>
LCB01-0371

$$$$
