
  Mrv1718001201814252D          

  1  0  0  0  0  0            999 V2000
    0.0000    0.0000    0.0000 Lu  0  0  0  0  0  0  0  0  0  0  0  0
M  ISO  1   1 177
M  END
> <DATABASE_ID>
DB13982

> <DATABASE_NAME>
drugbank

> <SMILES>
[177Lu]

> <INCHI_IDENTIFIER>
InChI=1S/Lu/i1+2

> <INCHI_KEY>
OHSVLFRHMCKCQY-NJFSPNSNSA-N

> <FORMULA>
Lu

> <MOLECULAR_WEIGHT>
176.9438

> <EXACT_MASS>
176.943754987

> <JCHEM_ACCEPTOR_COUNT>
0

> <JCHEM_ATOM_COUNT>
1

> <JCHEM_AVERAGE_POLARIZABILITY>
1.7784

> <JCHEM_BIOAVAILABILITY>
1

> <JCHEM_DONOR_COUNT>
0

> <JCHEM_FORMAL_CHARGE>
0

> <JCHEM_GHOSE_FILTER>
0

> <JCHEM_IUPAC>
(177Lu)lutetium

> <JCHEM_LOGP>
0.0

> <JCHEM_MDDR_LIKE_RULE>
0

> <JCHEM_NUMBER_OF_RINGS>
0

> <JCHEM_PHYSIOLOGICAL_CHARGE>
0

> <JCHEM_POLAR_SURFACE_AREA>
0.0

> <JCHEM_REFRACTIVITY>
0.0

> <JCHEM_ROTATABLE_BOND_COUNT>
0

> <JCHEM_RULE_OF_FIVE>
1

> <JCHEM_TRADITIONAL_IUPAC>
(177Lu)lutetium

> <JCHEM_VEBER_RULE>
1

> <DRUGBANK_ID>
DB13982

> <DRUG_GROUPS>
approved

> <GENERIC_NAME>
Lutetium Lu-177

> <SYNONYMS>
177Lu; Lu 177; Lu-177; Lutetium-177

> <PRODUCTS>
Endolucinbeta; Illuzyce; Lumark

> <SALTS>
Lutetium chloride Lu-177

$$$$
