
  Mrv1718006291812202D          

  1  0  0  0  0  0            999 V2000
    0.0000    0.0000    0.0000 Ti  0  0  0  0  0  0  0  0  0  0  0  0
M  END
> <DATABASE_ID>
DB14160

> <DATABASE_NAME>
drugbank

> <SMILES>
[Ti]

> <INCHI_IDENTIFIER>
InChI=1S/Ti

> <INCHI_KEY>
RTAQQCXQSZGOHL-UHFFFAOYSA-N

> <FORMULA>
Ti

> <MOLECULAR_WEIGHT>
47.867

> <EXACT_MASS>
47.947947053

> <JCHEM_ACCEPTOR_COUNT>
0

> <JCHEM_ATOM_COUNT>
1

> <JCHEM_AVERAGE_POLARIZABILITY>
1.7784

> <JCHEM_BIOAVAILABILITY>
1

> <JCHEM_DONOR_COUNT>
0

> <JCHEM_FORMAL_CHARGE>
0

> <JCHEM_GHOSE_FILTER>
0

> <JCHEM_IUPAC>
titanium

> <JCHEM_LOGP>
0.0

> <JCHEM_MDDR_LIKE_RULE>
0

> <JCHEM_NUMBER_OF_RINGS>
0

> <JCHEM_PHYSIOLOGICAL_CHARGE>
0

> <JCHEM_POLAR_SURFACE_AREA>
0.0

> <JCHEM_REFRACTIVITY>
0.0

> <JCHEM_ROTATABLE_BOND_COUNT>
0

> <JCHEM_RULE_OF_FIVE>
1

> <JCHEM_TRADITIONAL_IUPAC>
titanium

> <JCHEM_VEBER_RULE>
1

> <DRUGBANK_ID>
DB14160

> <DRUG_GROUPS>
experimental

> <GENERIC_NAME>
Titanium

> <SYNONYMS>
Titan; Titane; Titanio; Titanium element; Titanium metallicum

$$$$
