
  Mrv1652310201623062D          

 34 38  0  0  1  0            999 V2000
    8.3536    4.8229    0.0000 C   0  0  0  0  0  0  0  0  0  0  0  0
    8.3536    5.6479    0.0000 C   0  0  0  0  0  0  0  0  0  0  0  0
    7.6391    6.0604    0.0000 C   0  0  0  0  0  0  0  0  0  0  0  0
    7.6391    6.8854    0.0000 C   0  0  0  0  0  0  0  0  0  0  0  0
    8.3536    7.2979    0.0000 C   0  0  0  0  0  0  0  0  0  0  0  0
    9.0681    6.8854    0.0000 C   0  0  0  0  0  0  0  0  0  0  0  0
    9.0681    6.0604    0.0000 C   0  0  0  0  0  0  0  0  0  0  0  0
    9.8527    5.8055    0.0000 C   0  0  0  0  0  0  0  0  0  0  0  0
   10.3376    6.4729    0.0000 O   0  0  0  0  0  0  0  0  0  0  0  0
    9.8527    7.1404    0.0000 C   0  0  0  0  0  0  0  0  0  0  0  0
   10.1076    7.9250    0.0000 O   0  0  0  0  0  0  0  0  0  0  0  0
    6.9246    5.6479    0.0000 C   0  0  2  0  0  0  0  0  0  0  0  0
    6.9246    4.8229    0.0000 C   0  0  0  0  0  0  0  0  0  0  0  0
    6.2102    4.4104    0.0000 N   0  0  0  0  0  0  0  0  0  0  0  0
    6.2102    3.5854    0.0000 C   0  0  0  0  0  0  0  0  0  0  0  0
    5.4957    3.1729    0.0000 C   0  0  0  0  0  0  0  0  0  0  0  0
    4.7812    3.5854    0.0000 N   0  0  0  0  0  0  0  0  0  0  0  0
    4.7812    4.4104    0.0000 C   0  0  0  0  0  0  0  0  0  0  0  0
    5.4957    4.8229    0.0000 C   0  0  0  0  0  0  0  0  0  0  0  0
    4.0668    3.1729    0.0000 C   0  0  0  0  0  0  0  0  0  0  0  0
    4.0668    2.3479    0.0000 C   0  0  1  0  0  0  0  0  0  0  0  0
    3.3523    1.9354    0.0000 C   0  0  0  0  0  0  0  0  0  0  0  0
    3.3523    1.1104    0.0000 C   0  0  0  0  0  0  0  0  0  0  0  0
    2.6378    0.6979    0.0000 C   0  0  0  0  0  0  0  0  0  0  0  0
    1.9233    1.1104    0.0000 C   0  0  0  0  0  0  0  0  0  0  0  0
    1.9233    1.9354    0.0000 C   0  0  0  0  0  0  0  0  0  0  0  0
    2.6378    2.3479    0.0000 C   0  0  0  0  0  0  0  0  0  0  0  0
    2.6378    3.1729    0.0000 C   0  0  0  0  0  0  0  0  0  0  0  0
    1.1387    2.1904    0.0000 C   0  0  0  0  0  0  0  0  0  0  0  0
    0.6538    1.5229    0.0000 O   0  0  0  0  0  0  0  0  0  0  0  0
    1.1387    0.8555    0.0000 C   0  0  0  0  0  0  0  0  0  0  0  0
    0.8838    0.0709    0.0000 O   0  0  0  0  0  0  0  0  0  0  0  0
    4.7812    1.9354    0.0000 O   0  0  0  0  0  0  0  0  0  0  0  0
    6.2102    6.0604    0.0000 O   0  0  0  0  0  0  0  0  0  0  0  0
  1  2  1  0  0  0  0
  2  3  2  0  0  0  0
  3  4  1  0  0  0  0
  4  5  2  0  0  0  0
  5  6  1  0  0  0  0
  6  7  2  0  0  0  0
  2  7  1  0  0  0  0
  7  8  1  0  0  0  0
  8  9  1  0  0  0  0
  9 10  1  0  0  0  0
  6 10  1  0  0  0  0
 10 11  2  0  0  0  0
  3 12  1  0  0  0  0
 12 13  1  0  0  0  0
 13 14  1  0  0  0  0
 14 15  1  0  0  0  0
 15 16  1  0  0  0  0
 16 17  1  0  0  0  0
 17 18  1  0  0  0  0
 18 19  1  0  0  0  0
 14 19  1  0  0  0  0
 17 20  1  0  0  0  0
 20 21  1  0  0  0  0
 21 22  1  0  0  0  0
 22 23  2  0  0  0  0
 23 24  1  0  0  0  0
 24 25  2  0  0  0  0
 25 26  1  0  0  0  0
 26 27  2  0  0  0  0
 22 27  1  0  0  0  0
 27 28  1  0  0  0  0
 26 29  1  0  0  0  0
 29 30  1  0  0  0  0
 30 31  1  0  0  0  0
 25 31  1  0  0  0  0
 31 32  2  0  0  0  0
 21 33  1  6  0  0  0
 12 34  1  6  0  0  0
M  END
> <DATABASE_ID>
DB11968

> <DATABASE_NAME>
drugbank

> <SMILES>
CC1=C2COC(=O)C2=CC=C1[C@@H](O)CN1CCN(C[C@H](O)C2=C(C)C3=C(C=C2)C(=O)OC3)CC1

> <INCHI_IDENTIFIER>
InChI=1S/C26H30N2O6/c1-15-17(3-5-19-21(15)13-33-25(19)31)23(29)11-27-7-9-28(10-8-27)12-24(30)18-4-6-20-22(16(18)2)14-34-26(20)32/h3-6,23-24,29-30H,7-14H2,1-2H3/t23-,24-/m0/s1

> <INCHI_KEY>
OCKGFTQIICXDQW-ZEQRLZLVSA-N

> <FORMULA>
C26H30N2O6

> <MOLECULAR_WEIGHT>
466.534

> <EXACT_MASS>
466.210386694

> <JCHEM_ACCEPTOR_COUNT>
6

> <JCHEM_ATOM_COUNT>
64

> <JCHEM_AVERAGE_POLARIZABILITY>
49.951775849805166

> <JCHEM_BIOAVAILABILITY>
1

> <JCHEM_DONOR_COUNT>
2

> <JCHEM_FORMAL_CHARGE>
0

> <JCHEM_GHOSE_FILTER>
1

> <JCHEM_IUPAC>
5-[(1R)-1-hydroxy-2-{4-[(2R)-2-hydroxy-2-(4-methyl-1-oxo-1,3-dihydro-2-benzofuran-5-yl)ethyl]piperazin-1-yl}ethyl]-4-methyl-1,3-dihydro-2-benzofuran-1-one

> <ALOGPS_LOGP>
1.33

> <JCHEM_LOGP>
2.3618167046666674

> <ALOGPS_LOGS>
-3.15

> <JCHEM_MDDR_LIKE_RULE>
1

> <JCHEM_NUMBER_OF_RINGS>
5

> <JCHEM_PHYSIOLOGICAL_CHARGE>
1

> <JCHEM_PKA>
13.809478188554731

> <JCHEM_PKA_STRONGEST_ACIDIC>
13.295039161991205

> <JCHEM_PKA_STRONGEST_BASIC>
7.2675300267097604

> <JCHEM_POLAR_SURFACE_AREA>
99.54

> <JCHEM_REFRACTIVITY>
128.43059999999997

> <JCHEM_ROTATABLE_BOND_COUNT>
6

> <JCHEM_RULE_OF_FIVE>
1

> <ALOGPS_SOLUBILITY>
3.27e-01 g/l

> <JCHEM_TRADITIONAL_IUPAC>
5-[(1R)-1-hydroxy-2-{4-[(2R)-2-hydroxy-2-(4-methyl-1-oxo-3H-2-benzofuran-5-yl)ethyl]piperazin-1-yl}ethyl]-4-methyl-3H-2-benzofuran-1-one

> <JCHEM_VEBER_RULE>
0

> <DRUGBANK_ID>
DB11968

> <DRUG_GROUPS>
investigational

> <GENERIC_NAME>
MK-7145

$$$$
