
  Mrv1572004111622462D          

 34 35  0  0  0  0            999 V2000
    0.0000    2.4750    0.0000 C   0  0  0  0  0  0  0  0  0  0  0  0
   -3.5723   -1.2375    0.0000 C   0  0  0  0  0  0  0  0  0  0  0  0
   -2.1434    1.2375    0.0000 C   0  0  0  0  0  0  0  0  0  0  0  0
   -3.5723   -0.4125    0.0000 C   0  0  0  0  0  0  0  0  0  0  0  0
    0.0000   -1.6500    0.0000 C   0  0  0  0  0  0  0  0  0  0  0  0
    0.7144   -1.2375    0.0000 C   0  0  0  0  0  0  0  0  0  0  0  0
    0.0000    0.0000    0.0000 C   0  0  0  0  0  0  0  0  0  0  0  0
    0.0000    0.8250    0.0000 C   0  0  0  0  0  0  0  0  0  0  0  0
   -1.4289   -1.6500    0.0000 C   0  0  0  0  0  0  0  0  0  0  0  0
   -0.7144   -0.4125    0.0000 C   0  0  0  0  0  0  0  0  0  0  0  0
   -0.7144   -1.2375    0.0000 C   0  0  0  0  0  0  0  0  0  0  0  0
    0.7144   -0.4125    0.0000 C   0  0  0  0  0  0  0  0  0  0  0  0
    0.7144    1.2375    0.0000 C   0  0  0  0  0  0  0  0  0  0  0  0
   -2.1434   -1.2375    0.0000 C   0  0  0  0  0  0  0  0  0  0  0  0
   -1.4289    0.0000    0.0000 C   0  0  0  0  0  0  0  0  0  0  0  0
    1.4289    0.0000    0.0000 C   0  0  0  0  0  0  0  0  0  0  0  0
   -2.1434   -0.4125    0.0000 C   0  0  0  0  0  0  0  0  0  0  0  0
    1.4289    0.8250    0.0000 C   0  0  0  0  0  0  0  0  0  0  0  0
    2.9684   -1.2375    0.0000 O   0  0  0  0  0  0  0  0  0  0  0  0
    1.3184   -1.2375    0.0000 O   0  0  0  0  0  0  0  0  0  0  0  0
    2.1434   -2.0625    0.0000 O   0  0  0  0  0  0  0  0  0  0  0  0
    3.5723    0.4125    0.0000 O   0  0  0  0  0  0  0  0  0  0  0  0
    3.2703    1.5394    0.0000 O   0  0  0  0  0  0  0  0  0  0  0  0
    2.4453    0.1105    0.0000 O   0  0  0  0  0  0  0  0  0  0  0  0
    0.7144    2.0625    0.0000 O   0  0  0  0  0  0  0  0  0  0  0  0
   -2.8578   -1.6500    0.0000 O   0  0  0  0  0  0  0  0  0  0  0  0
   -1.4289    0.8250    0.0000 O   0  0  0  0  0  0  0  0  0  0  0  0
   -2.8578    0.0000    0.0000 O   0  0  0  0  0  0  0  0  0  0  0  0
    2.1434   -0.4125    0.0000 O   0  0  0  0  0  0  0  0  0  0  0  0
    2.1434    1.2375    0.0000 O   0  0  0  0  0  0  0  0  0  0  0  0
    2.1434   -1.2375    0.0000 P   0  0  0  0  0  0  0  0  0  0  0  0
    2.8578    0.8250    0.0000 P   0  0  0  0  0  0  0  0  0  0  0  0
    0.0000   -2.4750    0.0000 H   0  0  0  0  0  0  0  0  0  0  0  0
    0.9279   -2.0343    0.0000 H   0  0  0  0  0  0  0  0  0  0  0  0
  6  5  2  0  0  0  0
  8  7  2  0  0  0  0
 11  5  1  0  0  0  0
 11  9  2  0  0  0  0
 11 10  1  0  0  0  0
 12  6  1  0  0  0  0
 12  7  1  0  0  0  0
 13  8  1  0  0  0  0
 14  9  1  0  0  0  0
 15 10  2  0  0  0  0
 16 12  2  0  0  0  0
 17 14  2  0  0  0  0
 17 15  1  0  0  0  0
 18 13  2  0  0  0  0
 18 16  1  0  0  0  0
 25  1  1  0  0  0  0
 25 13  1  0  0  0  0
 26  2  1  0  0  0  0
 26 14  1  0  0  0  0
 27  3  1  0  0  0  0
 27 15  1  0  0  0  0
 28  4  1  0  0  0  0
 28 17  1  0  0  0  0
 29 16  1  0  0  0  0
 30 18  1  0  0  0  0
 31 19  1  0  0  0  0
 31 20  1  0  0  0  0
 31 21  2  0  0  0  0
 31 29  1  0  0  0  0
 32 22  1  0  0  0  0
 32 23  1  0  0  0  0
 32 24  2  0  0  0  0
 32 30  1  0  0  0  0
 33  5  1  0  0  0  0
 34  6  1  0  0  0  0
M  END
> <DATABASE_ID>
DB05143

> <DATABASE_NAME>
drugbank

> <SMILES>
[H]\C(=C(/[H])C1=C(OP(O)(O)=O)C(OP(O)(O)=O)=C(OC)C=C1)C1=CC(OC)=C(OC)C(OC)=C1

> <INCHI_IDENTIFIER>
InChI=1S/C18H22O12P2/c1-25-13-8-7-12(16(29-31(19,20)21)18(13)30-32(22,23)24)6-5-11-9-14(26-2)17(28-4)15(10-11)27-3/h5-10H,1-4H3,(H2,19,20,21)(H2,22,23,24)/b6-5-

> <INCHI_KEY>
GSOXMQLWUDQTNT-WAYWQWQTSA-N

> <FORMULA>
C18H22O12P2

> <MOLECULAR_WEIGHT>
492.31

> <EXACT_MASS>
492.058650144

> <JCHEM_ACCEPTOR_COUNT>
10

> <JCHEM_ATOM_COUNT>
54

> <JCHEM_AVERAGE_POLARIZABILITY>
43.30707736941818

> <JCHEM_BIOAVAILABILITY>
1

> <JCHEM_DONOR_COUNT>
4

> <JCHEM_FORMAL_CHARGE>
0

> <JCHEM_GHOSE_FILTER>
0

> <JCHEM_IUPAC>
[3-methoxy-2-(phosphonooxy)-6-[(Z)-2-(3,4,5-trimethoxyphenyl)ethenyl]phenoxy]phosphonic acid

> <ALOGPS_LOGP>
1.76

> <JCHEM_LOGP>
1.7675408539999997

> <ALOGPS_LOGS>
-4.26

> <JCHEM_MDDR_LIKE_RULE>
0

> <JCHEM_NUMBER_OF_RINGS>
2

> <JCHEM_PHYSIOLOGICAL_CHARGE>
-4

> <JCHEM_PKA>
1.9321060226573152

> <JCHEM_PKA_STRONGEST_ACIDIC>
1.3140167611808669

> <JCHEM_PKA_STRONGEST_BASIC>
-4.31959572454476

> <JCHEM_POLAR_SURFACE_AREA>
170.43999999999997

> <JCHEM_REFRACTIVITY>
113.07319999999999

> <JCHEM_ROTATABLE_BOND_COUNT>
10

> <JCHEM_RULE_OF_FIVE>
1

> <ALOGPS_SOLUBILITY>
2.68e-02 g/l

> <JCHEM_TRADITIONAL_IUPAC>
3-methoxy-2-(phosphonooxy)-6-[(Z)-2-(3,4,5-trimethoxyphenyl)ethenyl]phenoxyphosphonic acid

> <JCHEM_VEBER_RULE>
0

> <DRUGBANK_ID>
DB05143

> <DRUG_GROUPS>
investigational

> <GENERIC_NAME>
OXI-4503

> <SYNONYMS>
CA1P; Combretastatin A-1 bis(phosphate); Combretastatin A1 diphosphate; OXI4503

> <SALTS>
OXI-4503 dipotassium

$$$$
