
  Mrv1909 05201914382D          

 37 40  0  0  1  0            999 V2000
   -8.7723    3.4050    0.0000 C   0  0  0  0  0  0  0  0  0  0  0  0
   -8.7723    2.5800    0.0000 C   0  0  0  0  0  0  0  0  0  0  0  0
   -8.0579    2.1675    0.0000 C   0  0  0  0  0  0  0  0  0  0  0  0
   -8.0579    1.3425    0.0000 C   0  0  1  0  0  0  0  0  0  0  0  0
   -8.7723    0.9300    0.0000 C   0  0  1  0  0  0  0  0  0  0  0  0
   -9.4868    1.3425    0.0000 C   0  0  0  0  0  0  0  0  0  0  0  0
   -9.5730    2.1630    0.0000 C   0  0  0  0  0  0  0  0  0  0  0  0
  -10.3800    2.3345    0.0000 N   0  0  0  0  0  0  0  0  0  0  0  0
  -10.7925    1.6200    0.0000 C   0  0  0  0  0  0  0  0  0  0  0  0
  -10.2405    1.0070    0.0000 C   0  0  0  0  0  0  0  0  0  0  0  0
  -10.4954    0.2223    0.0000 C   0  0  0  0  0  0  0  0  0  0  0  0
  -11.3024    0.0508    0.0000 C   0  0  0  0  0  0  0  0  0  0  0  0
  -11.5573   -0.7338    0.0000 C   0  0  0  0  0  0  0  0  0  0  0  0
  -11.8544    0.6639    0.0000 C   0  0  0  0  0  0  0  0  0  0  0  0
  -11.5995    1.4485    0.0000 C   0  0  0  0  0  0  0  0  0  0  0  0
  -12.1515    2.0616    0.0000 F   0  0  0  0  0  0  0  0  0  0  0  0
   -8.7723    0.1050    0.0000 C   0  0  0  0  0  0  0  0  0  0  0  0
   -8.0579   -0.3075    0.0000 C   0  0  0  0  0  0  0  0  0  0  0  0
   -8.0579   -1.1325    0.0000 C   0  0  0  0  0  0  0  0  0  0  0  0
   -8.7723   -1.5450    0.0000 C   0  0  0  0  0  0  0  0  0  0  0  0
   -8.7723   -2.3700    0.0000 Cl  0  0  0  0  0  0  0  0  0  0  0  0
   -9.4868   -1.1325    0.0000 C   0  0  0  0  0  0  0  0  0  0  0  0
   -9.4868   -0.3075    0.0000 C   0  0  0  0  0  0  0  0  0  0  0  0
   -7.3434    0.9300    0.0000 C   0  0  0  0  0  0  0  0  0  0  0  0
   -6.6289    1.3425    0.0000 C   0  0  0  0  0  0  0  0  0  0  0  0
   -5.9145    0.9300    0.0000 C   0  0  0  0  0  0  0  0  0  0  0  0
   -5.9145    0.1050    0.0000 C   0  0  0  0  0  0  0  0  0  0  0  0
   -6.6289   -0.3075    0.0000 C   0  0  0  0  0  0  0  0  0  0  0  0
   -7.3434    0.1050    0.0000 C   0  0  0  0  0  0  0  0  0  0  0  0
   -5.2000   -0.3075    0.0000 C   0  0  0  0  0  0  0  0  0  0  0  0
   -5.2000   -1.1325    0.0000 O   0  0  0  0  0  0  0  0  0  0  0  0
   -4.4855    0.1050    0.0000 N   0  0  0  0  0  0  0  0  0  0  0  0
   -3.7710   -0.3075    0.0000 C   0  0  0  0  0  0  0  0  0  0  0  0
   -3.0566    0.1050    0.0000 C   0  0  0  0  0  0  0  0  0  0  0  0
   -2.3421   -0.3075    0.0000 C   0  0  0  0  0  0  0  0  0  0  0  0
   -1.6276    0.1050    0.0000 O   0  0  0  0  0  0  0  0  0  0  0  0
   -2.3421   -1.1325    0.0000 O   0  0  0  0  0  0  0  0  0  0  0  0
  1  2  1  0  0  0  0
  2  3  1  0  0  0  0
  4  3  1  6  0  0  0
  4  5  1  0  0  0  0
  5  6  1  6  0  0  0
  6  7  2  0  0  0  0
  7  8  1  0  0  0  0
  8  9  1  0  0  0  0
  9 10  2  0  0  0  0
  6 10  1  0  0  0  0
 10 11  1  0  0  0  0
 11 12  2  0  0  0  0
 12 13  1  0  0  0  0
 12 14  1  0  0  0  0
 14 15  2  0  0  0  0
  9 15  1  0  0  0  0
 15 16  1  0  0  0  0
  5 17  1  0  0  0  0
 17 18  2  0  0  0  0
 18 19  1  0  0  0  0
 19 20  2  0  0  0  0
 20 21  1  0  0  0  0
 20 22  1  0  0  0  0
 22 23  2  0  0  0  0
 17 23  1  0  0  0  0
  4 24  1  0  0  0  0
 24 25  2  0  0  0  0
 25 26  1  0  0  0  0
 26 27  2  0  0  0  0
 27 28  1  0  0  0  0
 28 29  2  0  0  0  0
 24 29  1  0  0  0  0
 27 30  1  0  0  0  0
 30 31  2  0  0  0  0
 30 32  1  0  0  0  0
 32 33  1  0  0  0  0
 33 34  1  0  0  0  0
 34 35  1  0  0  0  0
 35 36  1  0  0  0  0
 35 37  2  0  0  0  0
M  END
> <DATABASE_ID>
DB14957

> <DATABASE_NAME>
drugbank

> <SMILES>
CCC[C@@H]([C@@H](C1=CNC2=C1C=C(C)C=C2F)C1=CC=C(Cl)C=C1)C1=CC=C(C=C1)C(=O)NCCC(O)=O

> <INCHI_IDENTIFIER>
InChI=1S/C30H30ClFN2O3/c1-3-4-23(19-5-7-21(8-6-19)30(37)33-14-13-27(35)36)28(20-9-11-22(31)12-10-20)25-17-34-29-24(25)15-18(2)16-26(29)32/h5-12,15-17,23,28,34H,3-4,13-14H2,1-2H3,(H,33,37)(H,35,36)/t23-,28+/m1/s1

> <INCHI_KEY>
FYRJJCYFYLLOSC-LXFBAYGMSA-N

> <FORMULA>
C30H30ClFN2O3

> <MOLECULAR_WEIGHT>
521.03

> <EXACT_MASS>
520.1928987

> <JCHEM_ACCEPTOR_COUNT>
3

> <JCHEM_ATOM_COUNT>
67

> <JCHEM_AVERAGE_POLARIZABILITY>
55.92189029155967

> <JCHEM_BIOAVAILABILITY>
0

> <JCHEM_DONOR_COUNT>
3

> <JCHEM_FORMAL_CHARGE>
0

> <JCHEM_GHOSE_FILTER>
0

> <JCHEM_IUPAC>
3-({4-[(1R,2S)-1-(4-chlorophenyl)-1-(7-fluoro-5-methyl-1H-indol-3-yl)pentan-2-yl]phenyl}formamido)propanoic acid

> <ALOGPS_LOGP>
6.27

> <JCHEM_LOGP>
7.254830403

> <ALOGPS_LOGS>
-6.80

> <JCHEM_MDDR_LIKE_RULE>
1

> <JCHEM_NUMBER_OF_RINGS>
4

> <JCHEM_PHYSIOLOGICAL_CHARGE>
-1

> <JCHEM_PKA>
14.900705162686016

> <JCHEM_PKA_STRONGEST_ACIDIC>
3.9765220835897765

> <JCHEM_PKA_STRONGEST_BASIC>
-0.7954189064425228

> <JCHEM_POLAR_SURFACE_AREA>
82.19

> <JCHEM_REFRACTIVITY>
144.69840000000005

> <JCHEM_ROTATABLE_BOND_COUNT>
10

> <JCHEM_RULE_OF_FIVE>
0

> <ALOGPS_SOLUBILITY>
8.26e-05 g/l

> <JCHEM_TRADITIONAL_IUPAC>
(2R)-14-fluoro-2-methyl-6,9,10,19-tetraazapentacyclo[14.2.1.0^{2,6}.0^{8,18}.0^{12,17}]nonadeca-1(18),8,12(17),13,15-pentaen-11-one

> <JCHEM_VEBER_RULE>
0

> <DRUGBANK_ID>
DB14957

> <DRUG_GROUPS>
investigational

> <GENERIC_NAME>
MK-3577

$$$$
