
  Mrv1909 12231902552D          

 48 53  0  0  0  0            999 V2000
   -2.4671    1.7469    0.0000 C   0  0  0  0  0  0  0  0  0  0  0  0
   -2.4671    0.9219    0.0000 C   0  0  0  0  0  0  0  0  0  0  0  0
   -3.1809    0.5055    0.0000 C   0  0  0  0  0  0  0  0  0  0  0  0
   -3.1809    2.1555    0.0000 C   0  0  0  0  0  0  0  0  0  0  0  0
   -1.0395    0.9219    0.0000 C   0  0  0  0  0  0  0  0  0  0  0  0
   -1.0395    1.7469    0.0000 C   0  0  0  0  0  0  0  0  0  0  0  0
   -3.8946    0.9219    0.0000 C   0  0  0  0  0  0  0  0  0  0  0  0
   -1.7482    2.1555    0.0000 C   0  0  0  0  0  0  0  0  0  0  0  0
   -1.7482    0.5055    0.0000 C   0  0  0  0  0  0  0  0  0  0  0  0
   -3.8946    1.7469    0.0000 C   0  0  0  0  0  0  0  0  0  0  0  0
    0.3879    1.7469    0.0000 C   0  0  2  0  0  0  0  0  0  0  0  0
   -0.3258    0.5055    0.0000 C   0  0  2  0  0  0  0  0  0  0  0  0
   -0.3258    2.1555    0.0000 C   0  0  0  0  0  0  0  0  0  0  0  0
    0.0905   -1.0254    0.0000 C   0  0  2  0  0  0  0  0  0  0  0  0
   -0.3129   -1.7417    0.0000 O   0  0  0  0  0  0  0  0  0  0  0  0
    0.3879    0.9219    0.0000 C   0  0  0  0  0  0  0  0  0  0  0  0
    0.9206   -1.0202    0.0000 C   0  0  0  0  0  0  0  0  0  0  0  0
    1.6240    2.4606    0.0000 N   0  0  0  0  0  0  0  0  0  0  0  0
    0.7991    2.4606    0.0000 C   0  0  0  0  0  0  0  0  0  0  0  0
    0.9361   -2.4477    0.0000 C   0  0  1  0  0  0  0  0  0  0  0  0
    1.3396   -1.7314    0.0000 C   0  0  1  0  0  0  0  0  0  0  0  0
    0.1060   -2.4581    0.0000 C   0  0  2  0  0  0  0  0  0  0  0  0
    2.8602    1.7520    0.0000 C   0  0  0  0  0  0  0  0  0  0  0  0
    2.4490    2.4658    0.0000 N   0  0  0  0  0  0  0  0  0  0  0  0
   -0.3258   -0.3194    0.0000 O   0  0  0  0  0  0  0  0  0  0  0  0
   -3.1809    2.9805    0.0000 O   0  0  0  0  0  0  0  0  0  0  0  0
   -3.1809   -0.3194    0.0000 O   0  0  0  0  0  0  0  0  0  0  0  0
   -4.6110    0.5055    0.0000 C   0  0  0  0  0  0  0  0  0  0  0  0
    2.4464    1.0382    0.0000 O   0  0  0  0  0  0  0  0  0  0  0  0
    3.6826    1.7495    0.0000 C   0  0  0  0  0  0  0  0  0  0  0  0
   -1.7482    2.9805    0.0000 O   0  0  0  0  0  0  0  0  0  0  0  0
   -1.7482   -0.3194    0.0000 O   0  0  0  0  0  0  0  0  0  0  0  0
    1.2103    1.7469    0.0000 O   0  0  0  0  0  0  0  0  0  0  0  0
    2.1646   -1.7262    0.0000 N   0  0  0  0  0  0  0  0  0  0  0  0
    1.3499   -3.1641    0.0000 O   0  0  0  0  0  0  0  0  0  0  0  0
   -4.6110    2.1555    0.0000 C   0  0  0  0  0  0  0  0  0  0  0  0
   -4.6110   -0.3194    0.0000 O   0  0  0  0  0  0  0  0  0  0  0  0
    0.3853    3.1745    0.0000 C   0  0  0  0  0  0  0  0  0  0  0  0
   -0.3000   -3.1745    0.0000 C   0  0  0  0  0  0  0  0  0  0  0  0
   -5.3248    1.7469    0.0000 C   0  0  0  0  0  0  0  0  0  0  0  0
   -5.3248    0.9219    0.0000 C   0  0  0  0  0  0  0  0  0  0  0  0
    4.0887    1.0331    0.0000 C   0  0  0  0  0  0  0  0  0  0  0  0
    4.0887    2.4606    0.0000 C   0  0  0  0  0  0  0  0  0  0  0  0
   -5.3248   -0.7306    0.0000 C   0  0  0  0  0  0  0  0  0  0  0  0
    4.9111    2.4633    0.0000 C   0  0  0  0  0  0  0  0  0  0  0  0
    4.9136    1.0331    0.0000 C   0  0  0  0  0  0  0  0  0  0  0  0
    5.3248    1.7469    0.0000 C   0  0  0  0  0  0  0  0  0  0  0  0
    0.3879    0.0943    0.0000 H   0  0  0  0  0  0  0  0  0  0  0  0
  2  1  2  0  0  0  0
  3  2  1  0  0  0  0
  4  1  1  0  0  0  0
  5  9  2  0  0  0  0
  6  8  2  0  0  0  0
  7  3  1  0  0  0  0
  8  1  1  0  0  0  0
  9  2  1  0  0  0  0
 10  4  1  0  0  0  0
 11 13  1  0  0  0  0
 12  5  1  0  0  0  0
 13  6  1  0  0  0  0
 14 25  1  1  0  0  0
 15 14  1  0  0  0  0
 16 12  1  0  0  0  0
 17 14  1  0  0  0  0
 19 18  2  3  0  0  0
 11 19  1  1  0  0  0
 20 21  1  0  0  0  0
 21 17  1  0  0  0  0
 22 15  1  0  0  0  0
 23 24  1  0  0  0  0
 24 18  1  0  0  0  0
 25 12  1  0  0  0  0
 26  4  2  0  0  0  0
 27  3  2  0  0  0  0
 28  7  1  0  0  0  0
 29 23  2  0  0  0  0
 30 23  1  0  0  0  0
 31  8  1  0  0  0  0
 32  9  1  0  0  0  0
 11 33  1  6  0  0  0
 21 34  1  6  0  0  0
 20 35  1  6  0  0  0
 36 10  1  0  0  0  0
 37 28  1  0  0  0  0
 38 19  1  0  0  0  0
 22 39  1  6  0  0  0
 40 36  2  0  0  0  0
 41 28  2  0  0  0  0
 42 30  2  0  0  0  0
 43 30  1  0  0  0  0
 44 37  1  0  0  0  0
 45 43  2  0  0  0  0
 46 42  1  0  0  0  0
 47 45  1  0  0  0  0
 12 48  1  1  0  0  0
  6  5  1  0  0  0  0
 10  7  2  0  0  0  0
 11 16  1  0  0  0  0
 40 41  1  0  0  0  0
 22 20  1  0  0  0  0
 47 46  2  0  0  0  0
M  END
> <DATABASE_ID>
DB11618

> <DATABASE_NAME>
drugbank

> <SMILES>
[H][C@@]1(C[C@@](O)(CC2=C(O)C3=C(C(O)=C12)C(=O)C1=C(C=CC=C1OC)C3=O)C(C)=NNC(=O)C1=CC=CC=C1)O[C@H]1C[C@H](N)[C@H](O)[C@H](C)O1

> <INCHI_IDENTIFIER>
InChI=1S/C34H35N3O10/c1-15-28(38)20(35)12-23(46-15)47-22-14-34(44,16(2)36-37-33(43)17-8-5-4-6-9-17)13-19-25(22)32(42)27-26(30(19)40)29(39)18-10-7-11-21(45-3)24(18)31(27)41/h4-11,15,20,22-23,28,38,40,42,44H,12-14,35H2,1-3H3,(H,37,43)/t15-,20-,22-,23-,28+,34-/m0/s1

> <INCHI_KEY>
FBTUMDXHSRTGRV-BJISBDEGSA-N

> <FORMULA>
C34H35N3O10

> <MOLECULAR_WEIGHT>
645.665

> <EXACT_MASS>
645.232244339

> <JCHEM_ACCEPTOR_COUNT>
12

> <JCHEM_ATOM_COUNT>
82

> <JCHEM_AVERAGE_NEUTRAL_MICROSPECIES_CHARGE>
0.9362814804085954

> <JCHEM_AVERAGE_POLARIZABILITY>
65.84000585666449

> <JCHEM_BIOAVAILABILITY>
0

> <JCHEM_DONOR_COUNT>
6

> <JCHEM_FORMAL_CHARGE>
0

> <JCHEM_GHOSE_FILTER>
0

> <JCHEM_IUPAC>
N'-{1-[(2S,4S)-4-{[(2R,4S,5S,6S)-4-amino-5-hydroxy-6-methyloxan-2-yl]oxy}-2,5,12-trihydroxy-7-methoxy-6,11-dioxo-1,2,3,4,6,11-hexahydrotetracen-2-yl]ethylidene}benzohydrazide

> <ALOGPS_LOGP>
2.01

> <JCHEM_LOGP>
2.6598447192653936

> <ALOGPS_LOGS>
-4.04

> <JCHEM_MDDR_LIKE_RULE>
1

> <JCHEM_NEUTRAL_CHARGE>
1

> <JCHEM_NUMBER_OF_RINGS>
6

> <JCHEM_PHYSIOLOGICAL_CHARGE>
1

> <JCHEM_PKA>
10.10941799316731

> <JCHEM_PKA_STRONGEST_ACIDIC>
8.203558806950095

> <JCHEM_PKA_STRONGEST_BASIC>
9.487492205840308

> <JCHEM_POLAR_SURFACE_AREA>
210.23

> <JCHEM_REFRACTIVITY>
168.48499999999987

> <JCHEM_ROTATABLE_BOND_COUNT>
6

> <JCHEM_RULE_OF_FIVE>
0

> <ALOGPS_SOLUBILITY>
5.83e-02 g/l

> <JCHEM_TRADITIONAL_IUPAC>
N''-({4-[(4R)-4-(hydroxymethyl)-1,3,2-dioxaborolan-2-yl]phenyl}methyl)guanidine

> <JCHEM_VEBER_RULE>
0

> <DRUGBANK_ID>
DB11618

> <DRUG_GROUPS>
experimental

> <GENERIC_NAME>
Zorubicin

> <SYNONYMS>
Benzoic acid hydrazide, 3-hydrazone with daunorubicin; Zorubicin

> <SALTS>
Zorubicin hydrochloride

$$$$
