
  Mrv1909 11121901272D          

 27 28  0  0  0  0            999 V2000
    2.3808   -2.9620    0.0000 F   0  0  0  0  0  0  0  0  0  0  0  0
    3.2001   -1.5335    0.0000 F   0  0  0  0  0  0  0  0  0  0  0  0
    3.5013   -2.6609    0.0000 F   0  0  0  0  0  0  0  0  0  0  0  0
   -2.1848    2.1427    0.0000 F   0  0  0  0  0  0  0  0  0  0  0  0
   -0.5392    2.1427    0.0000 F   0  0  0  0  0  0  0  0  0  0  0  0
   -1.3654    2.9620    0.0000 F   0  0  0  0  0  0  0  0  0  0  0  0
   -0.6512   -1.5615    0.0000 O   0  0  0  0  0  0  0  0  0  0  0  0
    1.1834   -0.8472    0.0000 N   0  0  0  0  0  0  0  0  0  0  0  0
    1.9887   -1.0223    0.0000 N   0  0  0  0  0  0  0  0  0  0  0  0
    0.0629   -0.3291    0.0000 N   0  0  0  0  0  0  0  0  0  0  0  0
   -3.5013    1.7295    0.0000 N   0  0  0  0  0  0  0  0  0  0  0  0
    0.7772   -1.5615    0.0000 C   0  0  2  0  0  0  0  0  0  0  0  0
    1.3234   -2.1707    0.0000 C   0  0  0  0  0  0  0  0  0  0  0  0
    0.1609   -2.1147    0.0000 C   0  0  0  0  0  0  0  0  0  0  0  0
    2.0727   -1.8347    0.0000 C   0  0  0  0  0  0  0  0  0  0  0  0
    0.0629   -1.1484    0.0000 C   0  0  0  0  0  0  0  0  0  0  0  0
    2.7870   -2.2478    0.0000 C   0  0  0  0  0  0  0  0  0  0  0  0
   -0.6512    0.0840    0.0000 C   0  0  0  0  0  0  0  0  0  0  0  0
   -0.6512    0.9103    0.0000 C   0  0  0  0  0  0  0  0  0  0  0  0
   -1.3654   -0.3291    0.0000 C   0  0  0  0  0  0  0  0  0  0  0  0
   -1.3654    1.3164    0.0000 C   0  0  0  0  0  0  0  0  0  0  0  0
   -2.0727    0.9103    0.0000 C   0  0  0  0  0  0  0  0  0  0  0  0
   -2.0727    0.0840    0.0000 C   0  0  0  0  0  0  0  0  0  0  0  0
   -1.3654    2.1427    0.0000 C   0  0  0  0  0  0  0  0  0  0  0  0
   -2.7870    1.3164    0.0000 C   0  0  0  0  0  0  0  0  0  0  0  0
    0.9803   -0.3851    0.0000 H   0  0  0  0  0  0  0  0  0  0  0  0
    0.5041   -0.0700    0.0000 H   0  0  0  0  0  0  0  0  0  0  0  0
  1 17  1  0  0  0  0
  2 17  1  0  0  0  0
  3 17  1  0  0  0  0
  4 24  1  0  0  0  0
  5 24  1  0  0  0  0
  6 24  1  0  0  0  0
  7 16  2  0  0  0  0
  8  9  1  0  0  0  0
  8 12  1  0  0  0  0
  8 26  1  0  0  0  0
  9 15  2  0  0  0  0
 10 16  1  0  0  0  0
 10 18  1  0  0  0  0
 10 27  1  0  0  0  0
 11 25  3  0  0  0  0
 12 13  1  0  0  0  0
 12 14  1  6  0  0  0
 12 16  1  0  0  0  0
 13 15  1  0  0  0  0
 15 17  1  0  0  0  0
 18 19  2  0  0  0  0
 18 20  1  0  0  0  0
 19 21  1  0  0  0  0
 20 23  2  0  0  0  0
 21 22  2  0  0  0  0
 21 24  1  0  0  0  0
 22 23  1  0  0  0  0
 22 25  1  0  0  0  0
M  END
> <DATABASE_ID>
DB13936

> <DATABASE_NAME>
drugbank

> <SMILES>
[H]N(C(=O)[C@]1(C)CC(=NN1[H])C(F)(F)F)C1=CC(=C(C=C1)C#N)C(F)(F)F

> <INCHI_IDENTIFIER>
InChI=1S/C14H10F6N4O/c1-12(5-10(23-24-12)14(18,19)20)11(25)22-8-3-2-7(6-21)9(4-8)13(15,16)17/h2-4,24H,5H2,1H3,(H,22,25)/t12-/m0/s1

> <INCHI_KEY>
RYBKPGYFXRNMMU-LBPRGKRZSA-N

> <FORMULA>
C14H10F6N4O

> <MOLECULAR_WEIGHT>
364.251

> <EXACT_MASS>
364.075879936

> <JCHEM_ACCEPTOR_COUNT>
4

> <JCHEM_ATOM_COUNT>
35

> <JCHEM_AVERAGE_POLARIZABILITY>
28.495194180282926

> <JCHEM_BIOAVAILABILITY>
1

> <JCHEM_DONOR_COUNT>
2

> <JCHEM_FORMAL_CHARGE>
0

> <JCHEM_GHOSE_FILTER>
1

> <JCHEM_IUPAC>
(5S)-N-[4-cyano-3-(trifluoromethyl)phenyl]-5-methyl-3-(trifluoromethyl)-4,5-dihydro-1H-pyrazole-5-carboxamide

> <ALOGPS_LOGP>
3.48

> <JCHEM_LOGP>
3.4077641413333333

> <ALOGPS_LOGS>
-4.44

> <JCHEM_MDDR_LIKE_RULE>
0

> <JCHEM_NUMBER_OF_RINGS>
2

> <JCHEM_PHYSIOLOGICAL_CHARGE>
0

> <JCHEM_PKA>
18.811568786638322

> <JCHEM_PKA_STRONGEST_ACIDIC>
12.760101087752023

> <JCHEM_PKA_STRONGEST_BASIC>
-1.5823225373118692

> <JCHEM_POLAR_SURFACE_AREA>
77.28

> <JCHEM_REFRACTIVITY>
86.7298

> <JCHEM_ROTATABLE_BOND_COUNT>
4

> <JCHEM_RULE_OF_FIVE>
1

> <ALOGPS_SOLUBILITY>
1.32e-02 g/l

> <JCHEM_TRADITIONAL_IUPAC>
chlorphenesin carbamate

> <JCHEM_VEBER_RULE>
0

> <DRUGBANK_ID>
DB13936

> <DRUG_GROUPS>
experimental

> <GENERIC_NAME>
JNJ-28330835

$$$$
