
  Mrv1572004081619282D          

 36 41  0  0  0  0            999 V2000
    3.9176   -0.8605    0.0000 C   0  0  0  0  0  0  0  0  0  0  0  0
   -3.4814   -2.7495    0.0000 C   0  0  0  0  0  0  0  0  0  0  0  0
    1.5133   -1.5549    0.0000 C   0  0  0  0  0  0  0  0  0  0  0  0
   -1.3666    2.7495    0.0000 C   0  0  0  0  0  0  0  0  0  0  0  0
   -0.3619   -2.3118    0.0000 C   0  0  0  0  0  0  0  0  0  0  0  0
    3.1668   -0.5779    0.0000 C   0  0  0  0  0  0  0  0  0  0  0  0
   -2.7957    0.4429    0.0000 C   0  0  0  0  0  0  0  0  0  0  0  0
   -2.9835   -0.3584    0.0000 C   0  0  0  0  0  0  0  0  0  0  0  0
    2.5467   -1.0868    0.0000 C   0  0  0  0  0  0  0  0  0  0  0  0
    0.1501    0.1720    0.0000 C   0  0  0  0  0  0  0  0  0  0  0  0
    0.4851   -0.4437    0.0000 C   0  0  0  0  0  0  0  0  0  0  0  0
   -0.2073    1.2519    0.0000 C   0  0  0  0  0  0  0  0  0  0  0  0
   -0.0128    2.0632    0.0000 C   0  0  0  0  0  0  0  0  0  0  0  0
   -1.5633    1.3776    0.0000 C   0  0  0  0  0  0  0  0  0  0  0  0
    0.8965    0.3657    0.0000 C   0  0  0  0  0  0  0  0  0  0  0  0
   -3.3186   -1.9639    0.0000 C   0  0  0  0  0  0  0  0  0  0  0  0
   -1.9941    0.6717    0.0000 C   0  0  0  0  0  0  0  0  0  0  0  0
   -2.3943   -0.9266    0.0000 C   0  0  0  0  0  0  0  0  0  0  0  0
    1.0452   -0.5216    0.0000 C   0  0  2  0  0  0  0  0  0  0  0  0
   -0.7300    1.3362    0.0000 C   0  0  2  0  0  0  0  0  0  0  0  0
   -1.3407    0.1548    0.0000 C   0  0  0  0  0  0  0  0  0  0  0  0
   -1.6249   -0.6382    0.0000 C   0  0  0  0  0  0  0  0  0  0  0  0
   -0.3695   -0.5432    0.0000 C   0  0  2  0  0  0  0  0  0  0  0  0
    1.7959   -0.8041    0.0000 C   0  0  1  0  0  0  0  0  0  0  0  0
    0.1473    0.8799    0.0000 C   0  0  1  0  0  0  0  0  0  0  0  0
   -0.5125    0.3739    0.0000 C   0  0  2  0  0  0  0  0  0  0  0  0
    0.3289   -1.1064    0.0000 C   0  0  1  0  0  0  0  0  0  0  0  0
   -0.8105    2.1713    0.0000 N   0  0  0  0  0  0  0  0  0  0  0  0
   -3.9176   -1.4303    0.0000 O   0  0  0  0  0  0  0  0  0  0  0  0
    2.0785   -0.0534    0.0000 O   0  0  0  0  0  0  0  0  0  0  0  0
    0.3315   -1.9086    0.0000 O   0  0  0  0  0  0  0  0  0  0  0  0
   -2.5570   -1.7121    0.0000 O   0  0  0  0  0  0  0  0  0  0  0  0
   -0.9586   -1.1116    0.0000 O   0  0  0  0  0  0  0  0  0  0  0  0
    1.1749   -1.3132    0.0000 H   0  0  0  0  0  0  0  0  0  0  0  0
   -0.9398    0.5619    0.0000 H   0  0  0  0  0  0  0  0  0  0  0  0
   -1.1299   -0.2875    0.0000 H   0  0  0  0  0  0  0  0  0  0  0  0
  6  1  1  0  0  0  0
  8  7  2  0  0  0  0
  9  6  1  0  0  0  0
 11 10  2  0  0  0  0
 13 12  1  0  0  0  0
 16  2  1  0  0  0  0
 17  7  1  0  0  0  0
 17 14  1  0  0  0  0
 18  8  1  0  0  0  0
 19 15  1  0  0  0  0
 20 14  1  0  0  0  0
 21 17  2  0  0  0  0
 22 18  2  0  0  0  0
 22 21  1  0  0  0  0
 24  3  1  1  0  0  0
 24  9  1  0  0  0  0
 19 24  1  6  0  0  0
 25 10  1  0  0  0  0
 25 15  1  1  0  0  0
 25 20  1  0  0  0  0
 26 12  1  0  0  0  0
 26 21  1  6  0  0  0
 26 23  1  0  0  0  0
 26 25  1  0  0  0  0
 27 11  1  0  0  0  0
 27 19  1  0  0  0  0
 27 23  1  0  0  0  0
 28  4  1  0  0  0  0
 28 13  1  0  0  0  0
 28 20  1  0  0  0  0
 29 16  2  0  0  0  0
 24 30  1  1  0  0  0
 31  5  1  0  0  0  0
 27 31  1  6  0  0  0
 32 16  1  0  0  0  0
 32 18  1  0  0  0  0
 33 22  1  0  0  0  0
 33 23  1  0  0  0  0
 19 34  1  1  0  0  0
 20 35  1  6  0  0  0
 23 36  1  1  0  0  0
M  END
> <DATABASE_ID>
DB01469

> <DATABASE_NAME>
drugbank

> <SMILES>
[H][C@@]12OC3=C(OC(C)=O)C=CC4=C3[C@@]11CCN(C)[C@]([H])(C4)[C@@]11C[C@]([H])([C@](C)(O)CCC)[C@]2(OC)C=C1

> <INCHI_IDENTIFIER>
InChI=1S/C27H35NO5/c1-6-9-24(3,30)19-15-25-10-11-27(19,31-5)23-26(25)12-13-28(4)20(25)14-17-7-8-18(32-16(2)29)22(33-23)21(17)26/h7-8,10-11,19-20,23,30H,6,9,12-15H2,1-5H3/t19-,20-,23-,24-,25-,26+,27-/m1/s1

> <INCHI_KEY>
LFYBMMHFJIAKFE-PMEKXCSPSA-N

> <FORMULA>
C27H35NO5

> <MOLECULAR_WEIGHT>
453.579

> <EXACT_MASS>
453.251523231

> <JCHEM_ACCEPTOR_COUNT>
5

> <JCHEM_ATOM_COUNT>
68

> <JCHEM_AVERAGE_POLARIZABILITY>
49.84173060152807

> <JCHEM_BIOAVAILABILITY>
1

> <JCHEM_DONOR_COUNT>
1

> <JCHEM_FORMAL_CHARGE>
0

> <JCHEM_GHOSE_FILTER>
1

> <JCHEM_IUPAC>
(1R,2R,6S,14R,15R,19R)-19-[(2R)-2-hydroxypentan-2-yl]-15-methoxy-3-methyl-13-oxa-3-azahexacyclo[13.2.2.1²,⁸.0¹,⁶.0⁶,¹⁴.0⁷,¹²]icosa-7,9,11,16-tetraen-11-yl acetate

> <ALOGPS_LOGP>
3.59

> <JCHEM_LOGP>
2.6579090620000008

> <ALOGPS_LOGS>
-4.36

> <JCHEM_MDDR_LIKE_RULE>
1

> <JCHEM_NUMBER_OF_RINGS>
6

> <JCHEM_PHYSIOLOGICAL_CHARGE>
1

> <JCHEM_PKA_STRONGEST_ACIDIC>
14.683273029209158

> <JCHEM_PKA_STRONGEST_BASIC>
8.970648930170505

> <JCHEM_POLAR_SURFACE_AREA>
68.23000000000002

> <JCHEM_REFRACTIVITY>
125.66569999999996

> <JCHEM_ROTATABLE_BOND_COUNT>
6

> <JCHEM_RULE_OF_FIVE>
1

> <ALOGPS_SOLUBILITY>
1.97e-02 g/l

> <JCHEM_TRADITIONAL_IUPAC>
acetorphine

> <JCHEM_VEBER_RULE>
0

> <DRUGBANK_ID>
DB01469

> <DRUG_GROUPS>
experimental; illicit

> <GENERIC_NAME>
Acetorphine

> <SYNONYMS>
7alpha-etorphine 3-acetate; Acetorfina; Acetorphine; Acetylpropylorvinol

$$$$
