
  Mrv1652310211600422D          

 29 32  0  0  0  0            999 V2000
    4.0668    2.3479    0.0000 C   0  0  0  0  0  0  0  0  0  0  0  0
    3.3523    1.9354    0.0000 C   0  0  0  0  0  0  0  0  0  0  0  0
    3.3523    1.1104    0.0000 C   0  0  0  0  0  0  0  0  0  0  0  0
    2.6378    0.6979    0.0000 C   0  0  0  0  0  0  0  0  0  0  0  0
    1.9233    1.1104    0.0000 C   0  0  0  0  0  0  0  0  0  0  0  0
    1.9233    1.9354    0.0000 C   0  0  0  0  0  0  0  0  0  0  0  0
    2.6378    2.3479    0.0000 C   0  0  0  0  0  0  0  0  0  0  0  0
    1.1387    2.1904    0.0000 N   0  0  0  0  0  0  0  0  0  0  0  0
    0.6538    1.5229    0.0000 C   0  0  0  0  0  0  0  0  0  0  0  0
    1.1387    0.8555    0.0000 N   0  0  0  0  0  0  0  0  0  0  0  0
   -0.1712    1.5229    0.0000 C   0  0  0  0  0  0  0  0  0  0  0  0
   -0.5837    0.8085    0.0000 C   0  0  0  0  0  0  0  0  0  0  0  0
   -1.4087    0.8085    0.0000 N   0  0  0  0  0  0  0  0  0  0  0  0
   -1.8212    1.5229    0.0000 C   0  0  0  0  0  0  0  0  0  0  0  0
   -1.4087    2.2374    0.0000 N   0  0  0  0  0  0  0  0  0  0  0  0
   -0.5837    2.2374    0.0000 C   0  0  0  0  0  0  0  0  0  0  0  0
   -0.1712    2.9519    0.0000 C   0  0  0  0  0  0  0  0  0  0  0  0
   -2.6462    1.5229    0.0000 N   0  0  0  0  0  0  0  0  0  0  0  0
   -3.0587    0.8085    0.0000 C   0  0  0  0  0  0  0  0  0  0  0  0
   -3.8837    0.8085    0.0000 C   0  0  0  0  0  0  0  0  0  0  0  0
   -4.2962    0.0940    0.0000 C   0  0  0  0  0  0  0  0  0  0  0  0
   -5.1212    0.0940    0.0000 C   0  0  0  0  0  0  0  0  0  0  0  0
   -5.5337   -0.6205    0.0000 C   0  0  0  0  0  0  0  0  0  0  0  0
   -6.3587   -0.6205    0.0000 C   0  0  0  0  0  0  0  0  0  0  0  0
   -6.7712    0.0940    0.0000 N   0  0  0  0  0  0  0  0  0  0  0  0
   -6.3587    0.8085    0.0000 C   0  0  0  0  0  0  0  0  0  0  0  0
   -5.5337    0.8085    0.0000 C   0  0  0  0  0  0  0  0  0  0  0  0
   -7.5962    0.0940    0.0000 C   0  0  0  0  0  0  0  0  0  0  0  0
    2.6378   -0.1271    0.0000 C   0  0  0  0  0  0  0  0  0  0  0  0
  1  2  1  0  0  0  0
  2  3  2  0  0  0  0
  3  4  1  0  0  0  0
  4  5  2  0  0  0  0
  5  6  1  0  0  0  0
  6  7  2  0  0  0  0
  2  7  1  0  0  0  0
  6  8  1  0  0  0  0
  8  9  1  0  0  0  0
  9 10  2  0  0  0  0
  5 10  1  0  0  0  0
  9 11  1  0  0  0  0
 11 12  2  0  0  0  0
 12 13  1  0  0  0  0
 13 14  2  0  0  0  0
 14 15  1  0  0  0  0
 15 16  2  0  0  0  0
 11 16  1  0  0  0  0
 16 17  1  0  0  0  0
 14 18  1  0  0  0  0
 18 19  1  0  0  0  0
 19 20  1  0  0  0  0
 20 21  1  0  0  0  0
 21 22  1  0  0  0  0
 22 23  1  0  0  0  0
 23 24  1  0  0  0  0
 24 25  1  0  0  0  0
 25 26  1  0  0  0  0
 26 27  1  0  0  0  0
 22 27  1  0  0  0  0
 25 28  1  0  0  0  0
  4 29  1  0  0  0  0
M  END
> <DATABASE_ID>
DB12522

> <DATABASE_NAME>
drugbank

> <SMILES>
CN1CCC(CCCNC2=NC=C(C3=NC4=C(C)C=C(C)C=C4N3)C(C)=N2)CC1

> <INCHI_IDENTIFIER>
InChI=1S/C23H32N6/c1-15-12-16(2)21-20(13-15)27-22(28-21)19-14-25-23(26-17(19)3)24-9-5-6-18-7-10-29(4)11-8-18/h12-14,18H,5-11H2,1-4H3,(H,27,28)(H,24,25,26)

> <INCHI_KEY>
FCRFVPZAXGJLPW-UHFFFAOYSA-N

> <FORMULA>
C23H32N6

> <MOLECULAR_WEIGHT>
392.551

> <EXACT_MASS>
392.268845054

> <JCHEM_ACCEPTOR_COUNT>
5

> <JCHEM_ATOM_COUNT>
61

> <JCHEM_AVERAGE_POLARIZABILITY>
47.99732303714061

> <JCHEM_BIOAVAILABILITY>
1

> <JCHEM_DONOR_COUNT>
2

> <JCHEM_FORMAL_CHARGE>
0

> <JCHEM_GHOSE_FILTER>
0

> <JCHEM_IUPAC>
5-(4,6-dimethyl-1H-1,3-benzodiazol-2-yl)-4-methyl-N-[3-(1-methylpiperidin-4-yl)propyl]pyrimidin-2-amine

> <ALOGPS_LOGP>
4.72

> <JCHEM_LOGP>
3.969131461

> <ALOGPS_LOGS>
-4.88

> <JCHEM_MDDR_LIKE_RULE>
1

> <JCHEM_NUMBER_OF_RINGS>
4

> <JCHEM_PHYSIOLOGICAL_CHARGE>
1

> <JCHEM_PKA>
15.95406632348266

> <JCHEM_PKA_STRONGEST_ACIDIC>
11.897590095486182

> <JCHEM_PKA_STRONGEST_BASIC>
9.413957442759832

> <JCHEM_POLAR_SURFACE_AREA>
69.72999999999999

> <JCHEM_REFRACTIVITY>
131.09619999999998

> <JCHEM_ROTATABLE_BOND_COUNT>
6

> <JCHEM_RULE_OF_FIVE>
1

> <ALOGPS_SOLUBILITY>
5.17e-03 g/l

> <JCHEM_TRADITIONAL_IUPAC>
5-(4,6-dimethyl-1H-1,3-benzodiazol-2-yl)-4-methyl-N-[3-(1-methylpiperidin-4-yl)propyl]pyrimidin-2-amine

> <JCHEM_VEBER_RULE>
0

> <DRUGBANK_ID>
DB12522

> <DRUG_GROUPS>
investigational

> <GENERIC_NAME>
Toreforant

> <SYNONYMS>
Toreforant

$$$$
