
  Mrv1909 03052019162D          

 56 56  0  0  0  0            999 V2000
    6.2692   -0.2062    0.0000 Fe  0  0  0  0  0  0  0  0  0  0  0  0
   -0.8250   -2.3030    0.0000 O   0  0  0  0  0  0  0  0  0  0  0  0
    1.3184   -0.2405    0.0000 O   0  0  0  0  0  0  0  0  0  0  0  0
   -0.1105   -0.2405    0.0000 O   0  0  0  0  0  0  0  0  0  0  0  0
   -0.7836   -3.3303    0.0000 O   0  0  0  0  0  0  0  0  0  0  0  0
    3.4618    0.1719    0.0000 O   0  0  0  0  0  0  0  0  0  0  0  0
   -4.3973   -1.0655    0.0000 O   0  0  0  0  0  0  0  0  0  0  0  0
    4.1763   -3.5405    0.0000 O   0  0  0  0  0  0  0  0  0  0  0  0
    0.6039    0.9969    0.0000 O   0  0  0  0  0  0  0  0  0  0  0  0
   -0.8250    2.6469    0.0000 O   0  0  0  0  0  0  0  0  0  0  0  0
   -2.9389   -3.6758    0.0000 O   0  0  0  0  0  0  0  0  0  0  0  0
   -5.1117    0.9969    0.0000 O   0  0  0  0  0  0  0  0  0  0  0  0
    2.7473   -5.1905    0.0000 O   0  0  0  0  0  0  0  0  0  0  0  0
    0.6039   -1.4780    0.0000 N   0  0  0  0  0  0  0  0  0  0  0  0
   -1.5394   -1.0655    0.0000 N   0  0  0  0  0  0  0  0  0  0  0  0
    2.7473   -1.0655    0.0000 N   0  0  0  0  0  0  0  0  0  0  0  0
   -0.8250    0.9969    0.0000 N   0  0  0  0  0  0  0  0  0  0  0  0
   -1.5961   -3.1871    0.0000 N   0  0  0  0  0  0  0  0  0  0  0  0
   -4.3973   -0.2405    0.0000 N   0  0  0  0  0  0  0  0  0  0  0  0
    3.4618   -3.9530    0.0000 N   0  0  0  0  0  0  0  0  0  0  0  0
    0.6039    2.6469    0.0000 N   0  0  0  0  0  0  0  0  0  0  0  0
    2.0328    0.9969    0.0000 N   0  0  0  0  0  0  0  0  0  0  0  0
   -0.1105   -1.0655    0.0000 C   0  0  1  0  0  0  0  0  0  0  0  0
   -0.9355   -1.0655    0.0000 C   0  0  0  0  0  0  0  0  0  0  0  0
   -1.5394   -0.2405    0.0000 C   0  0  1  0  0  0  0  0  0  0  0  0
    2.0328   -1.4780    0.0000 C   0  0  1  0  0  0  0  0  0  0  0  0
   -1.3480   -1.7798    0.0000 C   0  0  0  0  0  0  0  0  0  0  0  0
   -2.2539    0.1719    0.0000 C   0  0  0  0  0  0  0  0  0  0  0  0
    2.0328   -2.3030    0.0000 C   0  0  0  0  0  0  0  0  0  0  0  0
   -0.8250   -1.4780    0.0000 C   0  0  0  0  0  0  0  0  0  0  0  0
    1.3184   -1.0655    0.0000 C   0  0  0  0  0  0  0  0  0  0  0  0
   -2.9684   -0.2405    0.0000 C   0  0  0  0  0  0  0  0  0  0  0  0
    2.7473   -2.7155    0.0000 C   0  0  0  0  0  0  0  0  0  0  0  0
   -1.8783   -2.4118    0.0000 C   0  0  0  0  0  0  0  0  0  0  0  0
   -0.8250    0.1719    0.0000 C   0  0  0  0  0  0  0  0  0  0  0  0
   -3.6828    0.1719    0.0000 C   0  0  0  0  0  0  0  0  0  0  0  0
    2.7473   -3.5405    0.0000 C   0  0  0  0  0  0  0  0  0  0  0  0
    2.7473   -0.2405    0.0000 C   0  0  0  0  0  0  0  0  0  0  0  0
    1.3184    2.2344    0.0000 C   0  0  2  0  0  0  0  0  0  0  0  0
   -0.1105    1.4094    0.0000 C   0  0  0  0  0  0  0  0  0  0  0  0
    2.0328    0.1719    0.0000 C   0  0  0  0  0  0  0  0  0  0  0  0
    2.0328    2.6469    0.0000 C   0  0  0  0  0  0  0  0  0  0  0  0
    1.3184    1.4094    0.0000 C   0  0  0  0  0  0  0  0  0  0  0  0
   -0.1105    2.2344    0.0000 C   0  0  0  0  0  0  0  0  0  0  0  0
   -2.1265   -3.8191    0.0000 C   0  0  0  0  0  0  0  0  0  0  0  0
    2.0328    3.4719    0.0000 C   0  0  0  0  0  0  0  0  0  0  0  0
   -5.1117    0.1719    0.0000 C   0  0  0  0  0  0  0  0  0  0  0  0
    3.4618   -4.7780    0.0000 C   0  0  0  0  0  0  0  0  0  0  0  0
   -1.8442   -4.5943    0.0000 C   0  0  0  0  0  0  0  0  0  0  0  0
    2.7473    3.8844    0.0000 C   0  0  0  0  0  0  0  0  0  0  0  0
    1.3184    3.8844    0.0000 C   0  0  0  0  0  0  0  0  0  0  0  0
   -5.8263   -0.2405    0.0000 C   0  0  0  0  0  0  0  0  0  0  0  0
    4.1763   -5.1905    0.0000 C   0  0  0  0  0  0  0  0  0  0  0  0
    2.7473    4.7094    0.0000 C   0  0  0  0  0  0  0  0  0  0  0  0
    1.3184    4.7094    0.0000 C   0  0  0  0  0  0  0  0  0  0  0  0
    2.0328    5.1219    0.0000 C   0  0  0  0  0  0  0  0  0  0  0  0
  2 30  2  0  0  0  0
  3 31  2  0  0  0  0
  4 35  2  0  0  0  0
  5 18  1  0  0  0  0
  6 38  2  0  0  0  0
  7 19  1  0  0  0  0
  8 20  1  0  0  0  0
  9 43  2  0  0  0  0
 10 44  2  0  0  0  0
 11 45  2  0  0  0  0
 12 47  2  0  0  0  0
 13 48  2  0  0  0  0
 14 23  1  0  0  0  0
 14 31  1  0  0  0  0
 15 25  1  0  0  0  0
 15 30  1  0  0  0  0
 16 26  1  0  0  0  0
 16 38  1  0  0  0  0
 17 35  1  0  0  0  0
 17 40  1  0  0  0  0
 18 34  1  0  0  0  0
 18 45  1  0  0  0  0
 19 36  1  0  0  0  0
 19 47  1  0  0  0  0
 20 37  1  0  0  0  0
 20 48  1  0  0  0  0
 21 39  1  0  0  0  0
 21 44  1  0  0  0  0
 22 41  1  0  0  0  0
 22 43  1  0  0  0  0
 23 24  1  6  0  0  0
 23 30  1  0  0  0  0
 24 27  1  0  0  0  0
 25 28  1  1  0  0  0
 25 35  1  0  0  0  0
 26 29  1  1  0  0  0
 26 31  1  0  0  0  0
 27 34  1  0  0  0  0
 28 32  1  0  0  0  0
 29 33  1  0  0  0  0
 32 36  1  0  0  0  0
 33 37  1  0  0  0  0
 38 41  1  0  0  0  0
 39 42  1  6  0  0  0
 39 43  1  0  0  0  0
 40 44  1  0  0  0  0
 42 46  1  0  0  0  0
 45 49  1  0  0  0  0
 46 50  2  0  0  0  0
 46 51  1  0  0  0  0
 47 52  1  0  0  0  0
 48 53  1  0  0  0  0
 50 54  1  0  0  0  0
 51 55  2  0  0  0  0
 54 56  2  0  0  0  0
 55 56  1  0  0  0  0
M  END
> <DATABASE_ID>
DB02626

> <DATABASE_NAME>
drugbank

> <SMILES>
[Fe].CC(=O)N(O)CCC[C@@H]1NC(=O)CNC(=O)[C@@H](CC2=CC=CC=C2)NC(=O)CNC(=O)[C@H](CCCN(O)C(C)=O)NC(=O)[C@H](CCCN(O)C(C)=O)NC1=O

> <INCHI_IDENTIFIER>
InChI=1S/C34H51N9O12.Fe/c1-21(44)41(53)15-7-12-25-31(49)35-20-30(48)38-28(18-24-10-5-4-6-11-24)32(50)36-19-29(47)37-26(13-8-16-42(54)22(2)45)33(51)40-27(34(52)39-25)14-9-17-43(55)23(3)46;/h4-6,10-11,25-28,53-55H,7-9,12-20H2,1-3H3,(H,35,49)(H,36,50)(H,37,47)(H,38,48)(H,39,52)(H,40,51);/t25-,26-,27-,28+;/m0./s1

> <INCHI_KEY>
SJKVBDKBQHKHPK-OVSNALSBSA-N

> <FORMULA>
C34H51FeN9O12

> <MOLECULAR_WEIGHT>
833.667

> <EXACT_MASS>
833.300660274

> <JCHEM_ACCEPTOR_COUNT>
12

> <JCHEM_ATOM_COUNT>
107

> <JCHEM_AVERAGE_NEUTRAL_MICROSPECIES_CHARGE>
-0.19682076056744038

> <JCHEM_AVERAGE_POLARIZABILITY>
78.47608123280486

> <JCHEM_BIOAVAILABILITY>
0

> <JCHEM_DONOR_COUNT>
9

> <JCHEM_FORMAL_CHARGE>
0

> <JCHEM_GHOSE_FILTER>
0

> <JCHEM_IUPAC>
N-{3-[(2S,5S,11R,17S)-11-benzyl-5,17-bis[3-(N-hydroxyacetamido)propyl]-3,6,9,12,15,18-hexaoxo-1,4,7,10,13,16-hexaazacyclooctadecan-2-yl]propyl}-N-hydroxyacetamide iron

> <ALOGPS_LOGP>
-0.26

> <JCHEM_LOGP>
-4.982729534000001

> <ALOGPS_LOGS>
-3.14

> <JCHEM_MDDR_LIKE_RULE>
0

> <JCHEM_NEUTRAL_CHARGE>
0

> <JCHEM_NUMBER_OF_RINGS>
2

> <JCHEM_PHYSIOLOGICAL_CHARGE>
0

> <JCHEM_PKA>
8.408813744427942

> <JCHEM_PKA_STRONGEST_ACIDIC>
7.933089988443525

> <JCHEM_PKA_STRONGEST_BASIC>
-5.680421709238066

> <JCHEM_POLAR_SURFACE_AREA>
296.2199999999999

> <JCHEM_REFRACTIVITY>
191.17439999999993

> <JCHEM_ROTATABLE_BOND_COUNT>
14

> <JCHEM_RULE_OF_FIVE>
0

> <ALOGPS_SOLUBILITY>
5.63e-01 g/l

> <JCHEM_TRADITIONAL_IUPAC>
(2R,3S,4R,5R,6R)-5-amino-2-(aminomethyl)-6-{[(1R,2R,3S,4R,6S)-4,6-diamino-2-{[(2S,3R,4S,5R)-4-{[(2R,3R,4R,5S,6S)-3-amino-6-(aminomethyl)-4,5-dihydroxyoxan-2-yl]oxy}-3-hydroxy-5-(hydroxymethyl)oxolan-2-yl]oxy}-3-hydroxycyclohexyl]oxy}oxane-3,4-diol

> <JCHEM_VEBER_RULE>
0

> <DRUGBANK_ID>
DB02626

> <SECONDARY_ACCESSION_NUMBERS>
EXPT02556

> <DRUG_GROUPS>
experimental

> <GENERIC_NAME>
Phenylferricrocin-iron

$$$$
