
  Mrv1902 03291921302D          

 14 14  0  0  0  0            999 V2000
    0.0000   -0.8250    0.0000 N   0  0  0  0  0  0  0  0  0  0  0  0
    0.0000    0.0000    0.0000 C   0  0  1  0  0  0  0  0  0  0  0  0
   -0.7144    0.4125    0.0000 C   0  0  0  0  0  0  0  0  0  0  0  0
   -1.4289    0.0000    0.0000 O   0  0  0  0  0  0  0  0  0  0  0  0
   -2.1434    0.4125    0.0000 C   0  0  0  0  0  0  0  0  0  0  0  0
   -2.8578    0.0000    0.0000 O   0  0  0  0  0  0  0  0  0  0  0  0
   -2.1434    1.2375    0.0000 N   0  0  0  0  0  0  0  0  0  0  0  0
    0.7144    0.4125    0.0000 C   0  0  0  0  0  0  0  0  0  0  0  0
    1.4289    0.0000    0.0000 C   0  0  0  0  0  0  0  0  0  0  0  0
    2.1434    0.4125    0.0000 C   0  0  0  0  0  0  0  0  0  0  0  0
    2.8578    0.0000    0.0000 C   0  0  0  0  0  0  0  0  0  0  0  0
    2.8578   -0.8250    0.0000 C   0  0  0  0  0  0  0  0  0  0  0  0
    2.1434   -1.2375    0.0000 C   0  0  0  0  0  0  0  0  0  0  0  0
    1.4289   -0.8250    0.0000 C   0  0  0  0  0  0  0  0  0  0  0  0
  2  1  1  1  0  0  0
  2  3  1  0  0  0  0
  3  4  1  0  0  0  0
  4  5  1  0  0  0  0
  5  6  2  0  0  0  0
  5  7  1  0  0  0  0
  2  8  1  0  0  0  0
  8  9  1  0  0  0  0
  9 10  2  0  0  0  0
 10 11  1  0  0  0  0
 11 12  2  0  0  0  0
 12 13  1  0  0  0  0
 13 14  2  0  0  0  0
  9 14  1  0  0  0  0
M  END
> <DATABASE_ID>
DB14754

> <DATABASE_NAME>
drugbank

> <SMILES>
N[C@@H](COC(N)=O)CC1=CC=CC=C1

> <INCHI_IDENTIFIER>
InChI=1S/C10H14N2O2/c11-9(7-14-10(12)13)6-8-4-2-1-3-5-8/h1-5,9H,6-7,11H2,(H2,12,13)/t9-/m1/s1

> <INCHI_KEY>
UCTRAOBQFUDCSR-SECBINFHSA-N

> <FORMULA>
C10H14N2O2

> <MOLECULAR_WEIGHT>
194.234

> <EXACT_MASS>
194.105527699

> <JCHEM_ACCEPTOR_COUNT>
2

> <JCHEM_ATOM_COUNT>
28

> <JCHEM_AVERAGE_POLARIZABILITY>
20.641828807652104

> <JCHEM_BIOAVAILABILITY>
1

> <JCHEM_DONOR_COUNT>
2

> <JCHEM_FORMAL_CHARGE>
0

> <JCHEM_GHOSE_FILTER>
1

> <JCHEM_IUPAC>
(2R)-2-amino-3-phenylpropyl carbamate

> <ALOGPS_LOGP>
0.62

> <JCHEM_LOGP>
0.8649203916666665

> <ALOGPS_LOGS>
-2.00

> <JCHEM_MDDR_LIKE_RULE>
0

> <JCHEM_NUMBER_OF_RINGS>
1

> <JCHEM_PHYSIOLOGICAL_CHARGE>
1

> <JCHEM_PKA_STRONGEST_ACIDIC>
15.676590441454692

> <JCHEM_PKA_STRONGEST_BASIC>
9.075318242222782

> <JCHEM_POLAR_SURFACE_AREA>
78.34

> <JCHEM_REFRACTIVITY>
53.077100000000016

> <JCHEM_ROTATABLE_BOND_COUNT>
5

> <JCHEM_RULE_OF_FIVE>
1

> <ALOGPS_SOLUBILITY>
1.95e+00 g/l

> <JCHEM_TRADITIONAL_IUPAC>
solriamfetol

> <JCHEM_VEBER_RULE>
0

> <DRUGBANK_ID>
DB14754

> <SECONDARY_ACCESSION_NUMBERS>
DB05795

> <DRUG_GROUPS>
approved

> <GENERIC_NAME>
Solriamfetol

> <SYNONYMS>
(2R)-2-amino-3-phenylpropyl carbamate; Solriamfetol

> <PRODUCTS>
Sunosi

> <SALTS>
Solriamfetol hydrochloride

$$$$
