
  Mrv1909 01032021542D          

 93104  0  0  0  0            999 V2000
   -0.3218    2.2434    0.0000 Co  0  7  0  0  0  0  0  0  0  0  0  0
   -1.0291    0.5413    0.0000 C   0  0  0  0  0  0  0  0  0  0  0  0
   -1.1410    1.3449    0.0000 N   0  0  0  0  0  0  0  0  0  0  0  0
   -1.1410    3.0429    0.0000 N   0  3  0  0  0  0  0  0  0  0  0  0
   -1.0291    3.8464    0.0000 C   0  0  0  0  0  0  0  0  0  0  0  0
   -1.7415    4.2233    0.0000 C   0  0  2  0  0  0  0  0  0  0  0  0
    0.4120    3.8464    0.0000 C   0  0  0  0  0  0  0  0  0  0  0  0
    0.5364    3.0429    0.0000 N   0  3  0  0  0  0  0  0  0  0  0  0
    1.3605    2.8938    0.0000 C   0  0  0  0  0  0  0  0  0  0  0  0
    1.7747    2.1938    0.0000 C   0  0  0  0  0  0  0  0  0  0  0  0
    1.3605    1.4897    0.0000 C   0  0  0  0  0  0  0  0  0  0  0  0
    0.5364    1.3449    0.0000 N   0  3  0  0  0  0  0  0  0  0  0  0
    0.4120    0.5413    0.0000 C   0  0  0  0  0  0  0  0  0  0  0  0
    1.1493    0.1603    0.0000 C   0  0  1  0  0  0  0  0  0  0  0  0
    1.2717   -0.6555    0.0000 C   0  0  0  0  0  0  0  0  0  0  0  0
    2.0394   -0.9574    0.0000 C   0  0  0  0  0  0  0  0  0  0  0  0
    2.1618   -1.7733    0.0000 C   0  0  0  0  0  0  0  0  0  0  0  0
    1.7415    0.7401    0.0000 C   0  0  0  0  0  0  0  0  0  0  0  0
    2.3797    0.2172    0.0000 C   0  0  0  0  0  0  0  0  0  0  0  0
    2.5134    1.0313    0.0000 C   0  0  0  0  0  0  0  0  0  0  0  0
    1.9001    4.5651    0.0000 C   0  0  0  0  0  0  0  0  0  0  0  0
   -0.2919    4.2563    0.0000 C   0  0  0  0  0  0  0  0  0  0  0  0
   -0.2919    5.0814    0.0000 C   0  0  0  0  0  0  0  0  0  0  0  0
   -0.2919    0.1271    0.0000 C   0  0  0  0  0  0  0  0  0  0  0  0
   -0.2919   -0.6978    0.0000 C   0  0  0  0  0  0  0  0  0  0  0  0
   -1.9527    1.4897    0.0000 C   0  0  1  0  0  0  0  0  0  0  0  0
   -2.7496    1.7032    0.0000 H   0  0  0  0  0  0  0  0  0  0  0  0
   -1.9527    2.9186    0.0000 C   0  0  2  0  0  0  0  0  0  0  0  0
   -2.7496    2.7051    0.0000 C   0  0  0  0  0  0  0  0  0  0  0  0
   -1.7415   -0.6646    0.0000 C   0  0  0  0  0  0  0  0  0  0  0  0
    1.7415    3.6434    0.0000 C   0  0  1  0  0  0  0  0  0  0  0  0
    2.4560    4.0559    0.0000 C   0  0  0  0  0  0  0  0  0  0  0  0
    3.1705    3.6434    0.0000 C   0  0  0  0  0  0  0  0  0  0  0  0
    3.8849    4.0559    0.0000 C   0  0  0  0  0  0  0  0  0  0  0  0
    3.8849    4.8809    0.0000 O   0  0  0  0  0  0  0  0  0  0  0  0
    4.5994    3.6434    0.0000 N   0  0  0  0  0  0  0  0  0  0  0  0
    1.1493    5.0483    0.0000 C   0  0  0  0  0  0  0  0  0  0  0  0
    1.8639    5.4607    0.0000 C   0  0  0  0  0  0  0  0  0  0  0  0
    1.8639    6.2857    0.0000 O   0  0  0  0  0  0  0  0  0  0  0  0
    2.5783    5.0483    0.0000 N   0  0  0  0  0  0  0  0  0  0  0  0
    1.1493    4.2233    0.0000 C   0  0  2  0  0  0  0  0  0  0  0  0
   -3.0481    3.2309    0.0000 C   0  0  0  0  0  0  0  0  0  0  0  0
   -3.7625    3.6434    0.0000 C   0  0  0  0  0  0  0  0  0  0  0  0
   -3.7625    4.4684    0.0000 O   0  0  0  0  0  0  0  0  0  0  0  0
   -4.4772    3.2309    0.0000 N   0  0  0  0  0  0  0  0  0  0  0  0
   -2.3337    0.7401    0.0000 C   0  0  2  0  0  0  0  0  0  0  0  0
   -3.0481    0.3276    0.0000 C   0  0  0  0  0  0  0  0  0  0  0  0
   -3.7625    0.7401    0.0000 C   0  0  0  0  0  0  0  0  0  0  0  0
   -3.7625    1.5651    0.0000 O   0  0  0  0  0  0  0  0  0  0  0  0
   -4.4772    0.3276    0.0000 N   0  0  0  0  0  0  0  0  0  0  0  0
    1.3208   -3.2803    0.0000 C   0  0  0  0  0  0  0  0  0  0  0  0
    0.0000   -3.0876    0.0000 C   0  0  0  0  0  0  0  0  0  0  0  0
    0.9553   -4.0199    0.0000 C   0  0  0  0  0  0  0  0  0  0  0  0
    0.7303   -2.7041    0.0000 N   0  3  0  0  0  0  0  0  0  0  0  0
    0.1389   -3.9009    0.0000 N   0  0  0  0  0  0  0  0  0  0  0  0
   -0.4379   -4.4925    0.0000 C   0  0  1  0  0  0  0  0  0  0  0  0
   -0.6928   -5.2771    0.0000 O   0  0  0  0  0  0  0  0  0  0  0  0
   -1.5178   -5.2771    0.0000 C   0  0  2  0  0  0  0  0  0  0  0  0
   -2.0027   -5.9446    0.0000 C   0  0  0  0  0  0  0  0  0  0  0  0
   -1.6672   -6.6983    0.0000 O   0  0  0  0  0  0  0  0  0  0  0  0
   -1.1053   -4.0076    0.0000 C   0  0  2  0  0  0  0  0  0  0  0  0
   -1.1053   -3.1826    0.0000 O   0  0  0  0  0  0  0  0  0  0  0  0
   -1.7727   -4.4925    0.0000 C   0  0  2  0  0  0  0  0  0  0  0  0
   -2.5574   -4.2376    0.0000 O   0  0  0  0  0  0  0  0  0  0  0  0
   -2.4560   -1.0771    0.0000 C   0  0  0  0  0  0  0  0  0  0  0  0
   -3.1703   -1.4896    0.0000 C   0  0  0  0  0  0  0  0  0  0  0  0
   -3.8849   -1.0771    0.0000 O   0  0  0  0  0  0  0  0  0  0  0  0
   -3.1703   -2.3146    0.0000 N   0  0  0  0  0  0  0  0  0  0  0  0
   -3.8849   -2.7271    0.0000 C   0  0  0  0  0  0  0  0  0  0  0  0
   -2.4560   -0.2521    0.0000 C   0  0  0  0  0  0  0  0  0  0  0  0
   -1.7415    0.1603    0.0000 C   0  0  1  0  0  0  0  0  0  0  0  0
   -3.8849   -3.5521    0.0000 C   0  0  2  0  0  0  0  0  0  0  0  0
   -3.1705   -3.9647    0.0000 O   0  0  0  0  0  0  0  0  0  0  0  0
   -4.5994   -3.9647    0.0000 C   0  0  0  0  0  0  0  0  0  0  0  0
   -3.9955   -4.7897    0.0000 O   0  0  0  0  0  0  0  0  0  0  0  0
   -3.1705   -4.7897    0.0000 P   0  0  0  0  0  0  0  0  0  0  0  0
   -2.7580   -5.5042    0.0000 O   0  5  0  0  0  0  0  0  0  0  0  0
    1.5163   -2.2872    0.0000 O   0  0  0  0  0  0  0  0  0  0  0  0
    2.9295   -2.0754    0.0000 N   0  0  0  0  0  0  0  0  0  0  0  0
   -2.3337    3.6434    0.0000 C   0  0  1  0  0  0  0  0  0  0  0  0
   -2.9846    4.1373    0.0000 C   0  0  0  0  0  0  0  0  0  0  0  0
    1.4130   -4.7064    0.0000 C   0  0  0  0  0  0  0  0  0  0  0  0
    2.6018   -3.9134    0.0000 C   0  0  0  0  0  0  0  0  0  0  0  0
   -1.7483    5.0483    0.0000 C   0  0  0  0  0  0  0  0  0  0  0  0
   -2.4659    5.4553    0.0000 C   0  0  0  0  0  0  0  0  0  0  0  0
   -2.4723    6.2803    0.0000 C   0  0  0  0  0  0  0  0  0  0  0  0
   -3.1900    6.6871    0.0000 O   0  0  0  0  0  0  0  0  0  0  0  0
   -1.7610    6.6983    0.0000 N   0  0  0  0  0  0  0  0  0  0  0  0
    2.2364   -4.6530    0.0000 C   0  0  0  0  0  0  0  0  0  0  0  0
    2.1441   -3.2271    0.0000 C   0  0  0  0  0  0  0  0  0  0  0  0
    2.6941   -5.3395    0.0000 C   0  0  0  0  0  0  0  0  0  0  0  0
    3.4250   -3.8603    0.0000 C   0  0  0  0  0  0  0  0  0  0  0  0
   -0.3206    3.3121    0.0000 C   0  0  0  0  0  0  0  0  0  0  0  0
  3  1  1  0  0  0  0
 24  2  2  0  0  0  0
  2  3  1  0  0  0  0
 71  2  1  0  0  0  0
 26  3  1  0  0  0  0
 28  4  1  0  0  0  0
  4  5  2  0  0  0  0
  6  5  1  0  0  0  0
  5 22  1  0  0  0  0
  6 84  1  6  0  0  0
 80  6  1  0  0  0  0
 22  7  2  0  0  0  0
  7  8  1  0  0  0  0
 41  7  1  0  0  0  0
  8  9  2  0  0  0  0
  9 10  1  0  0  0  0
 31  9  1  0  0  0  0
 10 11  2  0  0  0  0
 11 12  1  0  0  0  0
 11 18  1  0  0  0  0
 12 13  2  0  0  0  0
 13 14  1  0  0  0  0
 24 13  1  0  0  0  0
 14 15  1  6  0  0  0
 14 18  1  0  0  0  0
 15 16  1  0  0  0  0
 16 17  1  0  0  0  0
 17 78  2  0  0  0  0
 17 79  1  0  0  0  0
 18 19  1  0  0  0  0
 18 20  1  0  0  0  0
 41 21  1  0  0  0  0
 22 23  1  0  0  0  0
 24 25  1  0  0  0  0
 26 46  1  0  0  0  0
 26 28  1  0  0  0  0
 26 27  1  1  0  0  0
 28 80  1  0  0  0  0
 28 29  1  6  0  0  0
 71 30  1  1  0  0  0
 31 41  1  0  0  0  0
 31 32  1  6  0  0  0
 32 33  1  0  0  0  0
 33 34  1  0  0  0  0
 34 35  2  0  0  0  0
 34 36  1  0  0  0  0
 37 38  1  0  0  0  0
 41 37  1  1  0  0  0
 38 40  1  0  0  0  0
 38 39  2  0  0  0  0
 80 42  1  1  0  0  0
 42 43  1  0  0  0  0
 43 44  2  0  0  0  0
 43 45  1  0  0  0  0
 46 71  1  0  0  0  0
 46 47  1  1  0  0  0
 47 48  1  0  0  0  0
 48 49  2  0  0  0  0
 48 50  1  0  0  0  0
 90 51  2  0  0  0  0
 51 54  1  0  0  0  0
 51 53  1  0  0  0  0
 52 55  1  0  0  0  0
 52 54  2  0  0  0  0
 53 82  2  0  0  0  0
 55 53  1  0  0  0  0
 56 55  1  1  0  0  0
 56 61  1  0  0  0  0
 56 57  1  0  0  0  0
 58 57  1  0  0  0  0
 63 58  1  0  0  0  0
 58 59  1  6  0  0  0
 59 60  1  0  0  0  0
 61 63  1  0  0  0  0
 61 62  1  1  0  0  0
 63 64  1  1  0  0  0
 76 64  1  0  0  0  0
 70 65  1  0  0  0  0
 65 66  1  0  0  0  0
 66 67  2  0  0  0  0
 66 68  1  0  0  0  0
 69 68  1  0  0  0  0
 72 69  1  0  0  0  0
 71 70  1  0  0  0  0
 72 73  1  0  0  0  0
 72 74  1  6  0  0  0
 76 73  1  0  0  0  0
 76 75  2  0  0  0  0
 76 77  1  0  0  0  0
 80 81  1  0  0  0  0
 82 89  1  0  0  0  0
 89 83  2  0  0  0  0
 90 83  1  0  0  0  0
 84 85  1  0  0  0  0
 85 86  1  0  0  0  0
 86 88  1  0  0  0  0
 86 87  2  0  0  0  0
 83 92  1  0  0  0  0
 89 91  1  0  0  0  0
  8  1  1  0  0  0  0
  4  1  1  0  0  0  0
 12  1  1  0  0  0  0
  1 93  1  1  0  0  0
  1 54  1  0  0  0  0
M  CHG  6   1  -3   4   1   8   1  12   1  54   1  77  -1
M  END
> <DATABASE_ID>
DB03614

> <DATABASE_NAME>
drugbank

> <SMILES>
C1(CC[C@@]2([C@@H](CC(N)=O)[C@@]3([C@@]4([N+]5=C([C@H]([C@@]4(CC(N)=O)C)CCC(N)=O)C(C)=C4[N+]6=C(C=C7[N+]8=C([C@H](C7(C)C)CCC(N)=O)C(C)=C2N3[Co-3]568([N+]2=CN([C@H]3O[C@@H]([C@@H](OP(O[C@@H](CN1)C)([O-])=O)[C@H]3O)CO)C1=CC(C)=C(C=C21)C)C)[C@H]([C@@]4(CC(N)=O)C)CCC(N)=O)C)[H])C)=O

> <INCHI_IDENTIFIER>
InChI=1S/C62H90N13O14P.CH3.Co/c1-29-20-39-40(21-30(29)2)75(28-70-39)57-52(84)53(41(27-76)87-57)89-90(85,86)88-31(3)26-69-49(83)18-19-59(8)37(22-46(66)80)56-62(11)61(10,25-48(68)82)36(14-17-45(65)79)51(74-62)33(5)55-60(9,24-47(67)81)34(12-15-43(63)77)38(71-55)23-42-58(6,7)35(13-16-44(64)78)50(72-42)32(4)54(59)73-56;;/h20-21,23,28,31,34-37,41,52-53,56-57,76,84H,12-19,22,24-27H2,1-11H3,(H15,63,64,65,66,67,68,69,71,72,73,74,77,78,79,80,81,82,83,85,86);1H3;/q;;+2/p-2/t31-,34-,35-,36-,37+,41-,52-,53-,56-,57+,59-,60+,61+,62+;;/m1../s1

> <INCHI_KEY>
JEWJRMKHSMTXPP-WZHZPDAFSA-L

> <FORMULA>
C63H91CoN13O14P

> <MOLECULAR_WEIGHT>
1344.3823

> <EXACT_MASS>
1343.587806391

> <JCHEM_ACCEPTOR_COUNT>
13

> <JCHEM_ATOM_COUNT>
183

> <JCHEM_AVERAGE_NEUTRAL_MICROSPECIES_CHARGE>
3.0000070169032327

> <JCHEM_AVERAGE_POLARIZABILITY>
135.9251303017508

> <JCHEM_BIOAVAILABILITY>
0

> <JCHEM_DONOR_COUNT>
9

> <JCHEM_FORMAL_CHARGE>
0

> <JCHEM_GHOSE_FILTER>
0

> <JCHEM_IUPAC>
(10S,12R,13S,17R,23R,24R,25R,30S,35S,36S,40S,41S,42R,46R)-30,35,40-tris(2-carbamoylethyl)-24,36,41-tris(carbamoylmethyl)-46-hydroxy-12-(hydroxymethyl)-1,5,6,17,23,28,31,31,36,38,41,42-dodecamethyl-15,20-dioxo-11,14,16-trioxa-2lambda5,9,19,26,43lambda5,44lambda5,45lambda5-heptaaza-15lambda5-phospha-1-cobaltadodecacyclo[27.14.1.1^{1,34}.1^{2,9}.1^{10,13}.0^{1,26}.0^{3,8}.0^{23,27}.0^{25,42}.0^{32,44}.0^{39,43}.0^{37,45}]heptatetraconta-2(47),3,5,7,27,29(44),32,34(45),37,39(43)-decaene-2,43,44,45-tetrakis(ylium)-1,1,1-triuid-15-olate

> <JCHEM_LOGP>
-13.88479676588698

> <JCHEM_MDDR_LIKE_RULE>
1

> <JCHEM_NEUTRAL_CHARGE>
0

> <JCHEM_NUMBER_OF_RINGS>
12

> <JCHEM_PHYSIOLOGICAL_CHARGE>
0

> <JCHEM_PKA>
12.579386323469642

> <JCHEM_PKA_STRONGEST_ACIDIC>
1.8190893728359199

> <JCHEM_PKA_STRONGEST_BASIC>
-0.4426613958262743

> <JCHEM_POLAR_SURFACE_AREA>
416.99999999999994

> <JCHEM_REFRACTIVITY>
342.7936000000002

> <JCHEM_ROTATABLE_BOND_COUNT>
16

> <JCHEM_RULE_OF_FIVE>
0

> <JCHEM_TRADITIONAL_IUPAC>
(2S)-2-({4-[(2E)-N-({2-amino-4-oxo-1H-pyrido[3,2-d]pyrimidin-6-yl}methyl)-3-{5-carbamoyl-3-[(2R,3R,4S,5R)-3,4-dihydroxy-5-[(phosphonooxy)methyl]oxolan-2-yl]imidazol-4-yl}prop-2-enamido]phenyl}formamido)pentanedioic acid

> <JCHEM_VEBER_RULE>
0

> <DRUGBANK_ID>
DB03614

> <SECONDARY_ACCESSION_NUMBERS>
EXPT00979

> <DRUG_GROUPS>
approved; investigational

> <GENERIC_NAME>
Mecobalamin

> <SYNONYMS>
Co-methylcobalamin; MeCbl; Mecobalamin; Mecobalamina; Mecobalaminum; Methyl vitamin B12; Methyl(III)cobalamin; Methylcobalamin

> <PRODUCTS>
Abavite; Amladex; AzesChew; Azesco; B-Combo; B12 1000mcg (methylcobalamin); Co-Balamin; Co-Veratrol; Dayavite; Dexivite; Dyzbac; EnLyte Extra-LN; Feonyx; Folika-T; Folika-V; Folinex; Genicin Vita-Q; Genicin Vita-S; Hylavite; Hylazinc; Jenliva; L-Methyl MC NAC; L-Methyl PNV DHA; L-Methyl-B6-B12; L-Methyl-MC-NAC; Levomefolate Calcium Acetylcysteine Mecobalamin Algal; Levomefolate Calcium Acetylcysteine and Mecobalamin Algal; Levomefolate Calcium Pyridoxal-5 Phosphate Mecobalamin Algal; Levomefolate Calcium, Acetylcysteine, Mecobalamin and Algal; Levomefolate Calcium, Pyridoxal 5-phosphate, Methylcobalamin and Schizochytrium DHA Oil; Levomefolate Calcium-Pyridoxal Phosphate-Mecobalamin; Lexazin; Lipovite; LorMate; Lorid; Maxaron Forte; Mebolex; Mebolic; Medi-10; Methaver; Methazel; Methylcobalamin; Mic B12; Nutra-Z; Omniquin; Omnivex; Oveeza; PramLyte; Prena1 Chew; Protect Cardio AF; RayaVit; RediChew; TRONVite; Trinaz; Vita-Pac; Vita-Rx Diabetic Vitamin; Vitasure; Xvite; Xyzbac; Xyzbac G; Zalvit; Zavitrol; Ziphex; Zyvit; healthy mamaBE WELL ROUNDED BE WELL ROUNDED

$$$$
