
  Mrv1909 09142219212D          

 29 30  0  0  1  0            999 V2000
    0.1265   -4.0888    0.0000 C   0  0  0  0  0  0  0  0  0  0  0  0
    0.4621   -3.3351    0.0000 C   0  0  1  0  0  0  0  0  0  0  0  0
    1.2826   -3.2489    0.0000 O   0  0  0  0  0  0  0  0  0  0  0  0
   -0.0228   -2.6677    0.0000 C   0  0  2  0  0  0  0  0  0  0  0  0
   -0.8433   -2.7539    0.0000 N   0  0  0  0  0  0  0  0  0  0  0  0
    0.3127   -1.9140    0.0000 C   0  0  0  0  0  0  0  0  0  0  0  0
    1.1332   -1.8278    0.0000 O   0  0  0  0  0  0  0  0  0  0  0  0
   -0.1722   -1.2466    0.0000 N   0  0  0  0  0  0  0  0  0  0  0  0
   -0.9972   -1.2466    0.0000 C   0  0  0  0  0  0  0  0  0  0  0  0
   -1.2521   -0.4619    0.0000 C   0  0  0  0  0  0  0  0  0  0  0  0
   -0.5847    0.0230    0.0000 C   0  0  0  0  0  0  0  0  0  0  0  0
    0.0827   -0.4619    0.0000 C   0  0  1  0  0  0  0  0  0  0  0  0
    0.8674   -0.2070    0.0000 C   0  0  0  0  0  0  0  0  0  0  0  0
    1.4805   -0.7590    0.0000 O   0  0  0  0  0  0  0  0  0  0  0  0
    1.0389    0.6000    0.0000 N   0  0  0  0  0  0  0  0  0  0  0  0
    0.4869    1.2131    0.0000 C   0  0  0  0  0  0  0  0  0  0  0  0
    0.8994    1.9275    0.0000 C   0  0  0  0  0  0  0  0  0  0  0  0
    1.7063    1.7560    0.0000 C   0  0  0  0  0  0  0  0  0  0  0  0
    1.7926    0.9355    0.0000 C   0  0  1  0  0  0  0  0  0  0  0  0
    2.5070    0.5230    0.0000 C   0  0  0  0  0  0  0  0  0  0  0  0
    3.2215    0.9355    0.0000 O   0  0  0  0  0  0  0  0  0  0  0  0
    2.5070   -0.3020    0.0000 N   0  0  0  0  0  0  0  0  0  0  0  0
    3.2215   -0.7145    0.0000 C   0  0  1  0  0  0  0  0  0  0  0  0
    3.2215   -1.5395    0.0000 C   0  0  1  0  0  0  0  0  0  0  0  0
    3.9360   -1.9520    0.0000 C   0  0  0  0  0  0  0  0  0  0  0  0
    2.5070   -1.9520    0.0000 O   0  0  0  0  0  0  0  0  0  0  0  0
    3.9360   -0.3020    0.0000 C   0  0  0  0  0  0  0  0  0  0  0  0
    3.9360    0.5230    0.0000 O   0  0  0  0  0  0  0  0  0  0  0  0
    4.6505   -0.7145    0.0000 O   0  0  0  0  0  0  0  0  0  0  0  0
  2  1  1  0  0  0  0
  2  3  1  6  0  0  0
  2  4  1  0  0  0  0
  4  5  1  6  0  0  0
  4  6  1  0  0  0  0
  6  7  2  0  0  0  0
  6  8  1  0  0  0  0
  8  9  1  0  0  0  0
  9 10  1  0  0  0  0
 10 11  1  0  0  0  0
 12 11  1  0  0  0  0
 12  8  1  0  0  0  0
 12 13  1  1  0  0  0
 13 14  2  0  0  0  0
 13 15  1  0  0  0  0
 15 16  1  0  0  0  0
 16 17  1  0  0  0  0
 17 18  1  0  0  0  0
 19 18  1  0  0  0  0
 19 15  1  0  0  0  0
 19 20  1  1  0  0  0
 20 21  2  0  0  0  0
 20 22  1  0  0  0  0
 23 22  1  6  0  0  0
 23 24  1  0  0  0  0
 24 25  1  0  0  0  0
 24 26  1  1  0  0  0
 23 27  1  0  0  0  0
 27 28  1  0  0  0  0
 27 29  2  0  0  0  0
M  END
> <DATABASE_ID>
DB16953

> <DATABASE_NAME>
drugbank

> <SMILES>
C[C@@H](O)[C@H](N)C(=O)N1CCC[C@H]1C(=O)N1CCC[C@H]1C(=O)N[C@@H]([C@@H](C)O)C(O)=O

> <INCHI_IDENTIFIER>
InChI=1S/C18H30N4O7/c1-9(23)13(19)17(27)22-8-4-6-12(22)16(26)21-7-3-5-11(21)15(25)20-14(10(2)24)18(28)29/h9-14,23-24H,3-8,19H2,1-2H3,(H,20,25)(H,28,29)/t9-,10-,11+,12+,13+,14+/m1/s1

> <INCHI_KEY>
DSBPAFWXMCKFIM-BSOLPCOYSA-N

> <FORMULA>
C18H30N4O7

> <MOLECULAR_WEIGHT>
414.459

> <EXACT_MASS>
414.211449322

> <JCHEM_ACCEPTOR_COUNT>
8

> <JCHEM_ATOM_COUNT>
59

> <JCHEM_AVERAGE_NEUTRAL_MICROSPECIES_CHARGE>
-0.19523979796996702

> <JCHEM_AVERAGE_POLARIZABILITY>
40.68899784659097

> <JCHEM_BIOAVAILABILITY>
1

> <JCHEM_DONOR_COUNT>
5

> <JCHEM_FORMAL_CHARGE>
0

> <JCHEM_GHOSE_FILTER>
0

> <JCHEM_IUPAC>
(2S,3R)-2-{[(2S)-1-[(2S)-1-[(2S,3R)-2-amino-3-hydroxybutanoyl]pyrrolidine-2-carbonyl]pyrrolidin-2-yl]formamido}-3-hydroxybutanoic acid

> <ALOGPS_LOGP>
-2.05

> <JCHEM_LOGP>
-5.170412177011821

> <ALOGPS_LOGS>
-0.93

> <JCHEM_MDDR_LIKE_RULE>
0

> <JCHEM_NEUTRAL_CHARGE>
0

> <JCHEM_NUMBER_OF_RINGS>
2

> <JCHEM_PHYSIOLOGICAL_CHARGE>
0

> <JCHEM_PKA>
12.49971668105043

> <JCHEM_PKA_STRONGEST_ACIDIC>
3.291437313217254

> <JCHEM_PKA_STRONGEST_BASIC>
7.614049201502464

> <JCHEM_POLAR_SURFACE_AREA>
173.49999999999997

> <JCHEM_REFRACTIVITY>
99.6927

> <JCHEM_ROTATABLE_BOND_COUNT>
7

> <JCHEM_RULE_OF_FIVE>
1

> <ALOGPS_SOLUBILITY>
4.88e+01 g/l

> <JCHEM_TRADITIONAL_IUPAC>
6-cyclopropaneamido-N-[hydroxy(2H2)methyl]-4-{[2-methoxy-3-(1-methyl-1,2,4-triazol-3-yl)phenyl]amino}pyridazine-3-carboxamide

> <JCHEM_VEBER_RULE>
0

> <DRUGBANK_ID>
DB16953

> <DRUG_GROUPS>
experimental

> <GENERIC_NAME>
NT 13

> <SYNONYMS>
L-threonyl-l-prolyl-l-prolyl-l-threonine

$$$$
