
  Mrv1909 12171921492D          

 54 59  0  0  0  0            999 V2000
    1.9131   -0.4190    0.0000 C   0  0  1  0  0  0  0  0  0  0  0  0
    2.3255   -1.2439    0.0000 C   0  0  0  0  0  0  0  0  0  0  0  0
    1.5693   -1.2439    0.0000 C   0  0  1  0  0  0  0  0  0  0  0  0
    2.1722   -1.8467    0.0000 C   0  0  0  0  0  0  0  0  0  0  0  0
    2.1722   -2.6992    0.0000 C   0  0  0  0  0  0  0  0  0  0  0  0
    2.6006   -0.1438    0.0000 C   0  0  0  0  0  0  0  0  0  0  0  0
    3.2193   -0.4190    0.0000 N   0  0  0  0  0  0  0  0  0  0  0  0
    3.8864    0.0664    0.0000 S   0  0  0  0  0  0  0  0  0  0  0  0
    4.5536    0.5516    0.0000 C   0  0  0  0  0  0  0  0  0  0  0  0
    5.3739    0.6383    0.0000 C   0  0  0  0  0  0  0  0  0  0  0  0
    4.8886    1.3055    0.0000 C   0  0  0  0  0  0  0  0  0  0  0  0
    3.4011    0.7334    0.0000 O   0  0  0  0  0  0  0  0  0  0  0  0
    4.3716   -0.6007    0.0000 O   0  0  0  0  0  0  0  0  0  0  0  0
    2.6006    0.6810    0.0000 O   0  0  0  0  0  0  0  0  0  0  0  0
    1.2943   -0.1438    0.0000 N   0  0  0  0  0  0  0  0  0  0  0  0
    0.6069   -0.4190    0.0000 C   0  0  0  0  0  0  0  0  0  0  0  0
    0.6069   -1.2439    0.0000 O   0  0  0  0  0  0  0  0  0  0  0  0
   -0.0116   -0.1438    0.0000 C   0  0  1  0  0  0  0  0  0  0  0  0
   -0.6304   -0.6938    0.0000 N   0  0  0  0  0  0  0  0  0  0  0  0
   -1.2491   -0.1438    0.0000 C   0  0  0  0  0  0  0  0  0  0  0  0
   -1.0429    0.6810    0.0000 C   0  0  1  0  0  0  0  0  0  0  0  0
   -0.2867    0.6810    0.0000 C   0  0  0  0  0  0  0  0  0  0  0  0
   -1.6829    1.4620    0.0000 O   0  0  0  0  0  0  0  0  0  0  0  0
   -1.8566    2.2671    0.0000 C   0  0  0  0  0  0  0  0  0  0  0  0
   -2.7879    2.4160    0.0000 N   0  0  0  0  0  0  0  0  0  0  0  0
   -3.1487    3.1687    0.0000 C   0  0  0  0  0  0  0  0  0  0  0  0
   -3.9303    2.8809    0.0000 C   0  0  0  0  0  0  0  0  0  0  0  0
   -3.9303    2.0559    0.0000 C   0  0  0  0  0  0  0  0  0  0  0  0
   -4.6177    1.7810    0.0000 C   0  0  0  0  0  0  0  0  0  0  0  0
   -4.6177    0.9560    0.0000 C   0  0  0  0  0  0  0  0  0  0  0  0
   -5.2365    0.6810    0.0000 C   0  0  0  0  0  0  0  0  0  0  0  0
   -5.2365   -0.1438    0.0000 C   0  0  0  0  0  0  0  0  0  0  0  0
   -4.6177   -0.6938    0.0000 C   0  0  0  0  0  0  0  0  0  0  0  0
   -4.6177   -1.2439    0.0000 C   0  0  0  0  0  0  0  0  0  0  0  0
   -3.9303   -1.7300    0.0000 C   0  0  0  0  0  0  0  0  0  0  0  0
   -3.3115   -1.2439    0.0000 O   0  0  0  0  0  0  0  0  0  0  0  0
   -2.6241   -1.7938    0.0000 C   0  0  0  0  0  0  0  0  0  0  0  0
   -2.6241   -2.6187    0.0000 O   0  0  0  0  0  0  0  0  0  0  0  0
   -2.0054   -1.2439    0.0000 N   0  0  0  0  0  0  0  0  0  0  0  0
   -1.3179   -1.7938    0.0000 C   0  0  2  0  0  0  0  0  0  0  0  0
   -0.6304   -1.2439    0.0000 C   0  0  0  0  0  0  0  0  0  0  0  0
   -0.0116   -1.7938    0.0000 O   0  0  0  0  0  0  0  0  0  0  0  0
   -1.3179   -2.3437    0.0000 C   0  0  0  0  0  0  0  0  0  0  0  0
   -1.9367   -2.8938    0.0000 C   0  0  0  0  0  0  0  0  0  0  0  0
   -0.6304   -2.8938    0.0000 C   0  0  0  0  0  0  0  0  0  0  0  0
   -1.3179   -3.1687    0.0000 C   0  0  0  0  0  0  0  0  0  0  0  0
   -5.3739   -1.2439    0.0000 C   0  0  0  0  0  0  0  0  0  0  0  0
   -4.9189   -2.0476    0.0000 C   0  0  0  0  0  0  0  0  0  0  0  0
   -5.2365    2.0559    0.0000 C   0  0  0  0  0  0  0  0  0  0  0  0
   -5.2365    2.8809    0.0000 C   0  0  0  0  0  0  0  0  0  0  0  0
   -4.6177    3.1559    0.0000 C   0  0  0  0  0  0  0  0  0  0  0  0
   -3.1259    1.8051    0.0000 C   0  0  0  0  0  0  0  0  0  0  0  0
   -1.3638    2.9007    0.0000 O   0  0  0  0  0  0  0  0  0  0  0  0
    0.6069    0.1311    0.0000 H   0  0  0  0  0  0  0  0  0  0  0  0
  1  2  1  6  0  0  0
  3  2  1  6  0  0  0
  1  3  1  0  0  0  0
  3  4  1  0  0  0  0
  4  5  1  0  0  0  0
  1  6  1  0  0  0  0
  6  7  1  0  0  0  0
  7  8  1  0  0  0  0
  8  9  1  0  0  0  0
 10  9  1  0  0  0  0
 11 10  1  0  0  0  0
  9 11  1  0  0  0  0
  8 12  2  0  0  0  0
  8 13  2  0  0  0  0
  6 14  2  0  0  0  0
  1 15  1  6  0  0  0
 16 15  1  0  0  0  0
 16 17  2  0  0  0  0
 18 16  1  1  0  0  0
 19 18  1  0  0  0  0
 20 19  1  0  0  0  0
 21 20  1  0  0  0  0
 22 21  1  0  0  0  0
 18 22  1  0  0  0  0
 21 23  1  6  0  0  0
 24 23  1  0  0  0  0
 25 24  1  0  0  0  0
 25 26  1  0  0  0  0
 26 27  1  0  0  0  0
 27 28  1  0  0  0  0
 29 28  2  0  0  0  0
 29 30  1  0  0  0  0
 30 31  1  0  0  0  0
 31 32  1  0  0  0  0
 32 33  1  0  0  0  0
 33 34  1  0  0  0  0
 34 35  1  0  0  0  0
 35 36  1  0  0  0  0
 36 37  1  0  0  0  0
 37 38  2  0  0  0  0
 37 39  1  0  0  0  0
 39 40  1  0  0  0  0
 40 41  1  0  0  0  0
 41 19  1  0  0  0  0
 41 42  2  0  0  0  0
 40 43  1  6  0  0  0
 43 44  1  0  0  0  0
 43 45  1  0  0  0  0
 43 46  1  0  0  0  0
 34 47  1  0  0  0  0
 34 48  1  0  0  0  0
 49 29  1  0  0  0  0
 50 49  2  0  0  0  0
 51 50  1  0  0  0  0
 27 51  2  0  0  0  0
 28 52  1  0  0  0  0
 52 25  1  0  0  0  0
 24 53  2  0  0  0  0
 18 54  1  6  0  0  0
M  END
> <DATABASE_ID>
DB11929

> <DATABASE_NAME>
drugbank

> <SMILES>
[H][C@]1(C[C@@H]2CN1C(=O)[C@@H](NC(=O)OCC(C)(C)CCCCC1=C3CN(CC3=CC=C1)C(=O)O2)C(C)(C)C)C(=O)N[C@@]1(C[C@H]1CC)C(=O)NS(=O)(=O)C1CC1

> <INCHI_IDENTIFIER>
InChI=1S/C38H55N5O9S/c1-7-25-18-38(25,33(46)41-53(49,50)27-14-15-27)40-31(44)29-17-26-20-43(29)32(45)30(36(2,3)4)39-34(47)51-22-37(5,6)16-9-8-11-23-12-10-13-24-19-42(21-28(23)24)35(48)52-26/h10,12-13,25-27,29-30H,7-9,11,14-22H2,1-6H3,(H,39,47)(H,40,44)(H,41,46)/t25-,26-,29+,30-,38-/m1/s1

> <INCHI_KEY>
KUQWGLQLLVFLSM-ONAXAZCASA-N

> <FORMULA>
C38H55N5O9S

> <MOLECULAR_WEIGHT>
757.936

> <EXACT_MASS>
757.372049073

> <JCHEM_ACCEPTOR_COUNT>
7

> <JCHEM_ATOM_COUNT>
108

> <JCHEM_AVERAGE_NEUTRAL_MICROSPECIES_CHARGE>
-0.9994219906052288

> <JCHEM_AVERAGE_POLARIZABILITY>
81.92896010946339

> <JCHEM_BIOAVAILABILITY>
1

> <JCHEM_DONOR_COUNT>
3

> <JCHEM_FORMAL_CHARGE>
0

> <JCHEM_GHOSE_FILTER>
0

> <JCHEM_IUPAC>
(1R,21S,24S)-21-tert-butyl-N-[(1R,2R)-1-[(cyclopropanesulfonyl)carbamoyl]-2-ethylcyclopropyl]-16,16-dimethyl-3,19,22-trioxo-2,18-dioxa-4,20,23-triazatetracyclo[21.2.1.1^{4,7}.0^{6,11}]heptacosa-6(11),7,9-triene-24-carboxamide

> <ALOGPS_LOGP>
3.20

> <JCHEM_LOGP>
4.149758145666666

> <ALOGPS_LOGS>
-4.78

> <JCHEM_MDDR_LIKE_RULE>
1

> <JCHEM_NEUTRAL_CHARGE>
-1

> <JCHEM_NUMBER_OF_RINGS>
6

> <JCHEM_PHYSIOLOGICAL_CHARGE>
-1

> <JCHEM_PKA>
11.856925659620467

> <JCHEM_PKA_STRONGEST_ACIDIC>
3.772991985546862

> <JCHEM_PKA_STRONGEST_BASIC>
-3.457557219066919

> <JCHEM_POLAR_SURFACE_AREA>
180.51999999999998

> <JCHEM_REFRACTIVITY>
194.20990000000003

> <JCHEM_ROTATABLE_BOND_COUNT>
6

> <JCHEM_RULE_OF_FIVE>
0

> <ALOGPS_SOLUBILITY>
1.25e-02 g/l

> <JCHEM_TRADITIONAL_IUPAC>
(2S)-N-[(1S,2R)-1-{[(1S)-1-[({[(1S)-1-{[(1S)-1-{[(1S)-1-carbamoyl-2-(1H-indol-3-yl)ethyl]carbamoyl}-4-(N'-methylcarbamimidamido)butyl]carbamoyl}-3-methylbutyl]carbamoyl}amino)carbamoyl]-2-phenylethyl]carbamoyl}-2-hydroxypropyl]-2-{[(2S,4R)-1-[(2R)-2-acetamido-3-(4-hydroxyphenyl)propanoyl]-4-hydroxypyrrolidin-2-yl]formamido}succinamide

> <JCHEM_VEBER_RULE>
0

> <DRUGBANK_ID>
DB11929

> <DRUG_GROUPS>
investigational

> <GENERIC_NAME>
Vaniprevir

> <SYNONYMS>
VaniprÃ©vir; Vaniprevir; Vaniprevirum

> <INTERNATIONAL_BRANDS>
Vanihep

> <SALTS>
Vaniprevir potassium

$$$$
