
  Mrv1652310211605042D          

 10  9  0  0  0  0            999 V2000
    0.5230    0.5230    0.0000 C   0  0  0  0  0  0  0  0  0  0  0  0
    1.2375    0.1105    0.0000 C   0  0  0  0  0  0  0  0  0  0  0  0
    1.2375   -0.7145    0.0000 C   0  0  0  0  0  0  0  0  0  0  0  0
    0.5230   -1.1270    0.0000 C   0  0  0  0  0  0  0  0  0  0  0  0
    1.9520   -1.1270    0.0000 C   0  0  0  0  0  0  0  0  0  0  0  0
    1.9520   -1.9520    0.0000 C   0  0  0  0  0  0  0  0  0  0  0  0
    2.6664   -2.3645    0.0000 C   0  0  0  0  0  0  0  0  0  0  0  0
    2.6664   -0.7145    0.0000 C   0  0  0  0  0  0  0  0  0  0  0  0
    2.6664    0.1105    0.0000 O   0  0  0  0  0  0  0  0  0  0  0  0
    3.3809   -1.1270    0.0000 N   0  0  0  0  0  0  0  0  0  0  0  0
  1  2  1  0  0  0  0
  2  3  1  0  0  0  0
  3  4  1  0  0  0  0
  3  5  1  0  0  0  0
  5  6  1  0  0  0  0
  6  7  1  0  0  0  0
  5  8  1  0  0  0  0
  8  9  2  0  0  0  0
  8 10  1  0  0  0  0
M  END
> <DATABASE_ID>
DB13099

> <DATABASE_NAME>
drugbank

> <SMILES>
CCC(C)C(CC)C(N)=O

> <INCHI_IDENTIFIER>
InChI=1S/C8H17NO/c1-4-6(3)7(5-2)8(9)10/h6-7H,4-5H2,1-3H3,(H2,9,10)

> <INCHI_KEY>
QRCJOCOSPZMDJY-UHFFFAOYSA-N

> <FORMULA>
C8H17NO

> <MOLECULAR_WEIGHT>
143.23

> <EXACT_MASS>
143.131014171

> <JCHEM_ACCEPTOR_COUNT>
1

> <JCHEM_ATOM_COUNT>
27

> <JCHEM_AVERAGE_POLARIZABILITY>
17.100133217559872

> <JCHEM_BIOAVAILABILITY>
1

> <JCHEM_DONOR_COUNT>
1

> <JCHEM_FORMAL_CHARGE>
0

> <JCHEM_GHOSE_FILTER>
0

> <JCHEM_IUPAC>
2-ethyl-3-methylpentanamide

> <ALOGPS_LOGP>
1.77

> <JCHEM_LOGP>
1.8339588886666673

> <ALOGPS_LOGS>
-1.51

> <JCHEM_MDDR_LIKE_RULE>
0

> <JCHEM_NUMBER_OF_RINGS>
0

> <JCHEM_PHYSIOLOGICAL_CHARGE>
0

> <JCHEM_PKA_STRONGEST_ACIDIC>
17.088268196241707

> <JCHEM_PKA_STRONGEST_BASIC>
-1.1050541216291219

> <JCHEM_POLAR_SURFACE_AREA>
43.09

> <JCHEM_REFRACTIVITY>
42.01890000000001

> <JCHEM_ROTATABLE_BOND_COUNT>
4

> <JCHEM_RULE_OF_FIVE>
1

> <ALOGPS_SOLUBILITY>
4.42e+00 g/l

> <JCHEM_TRADITIONAL_IUPAC>
nirvanil

> <JCHEM_VEBER_RULE>
0

> <DRUGBANK_ID>
DB13099

> <DRUG_GROUPS>
investigational

> <GENERIC_NAME>
Valnoctamide

> <SYNONYMS>
Valnoctamide

$$$$
