
  Mrv1902 04081905542D          

 49 53  0  0  0  0            999 V2000
   -4.6526   -1.5272    0.0000 C   0  0  0  0  0  0  0  0  0  0  0  0
   -3.7540   -1.3342    0.0000 C   0  0  0  0  0  0  0  0  0  0  0  0
   -2.6934   -1.3342    0.0000 C   0  0  0  0  0  0  0  0  0  0  0  0
   -3.9382   -0.2897    0.0000 C   0  0  2  0  0  0  0  0  0  0  0  0
   -3.9382    0.5352    0.0000 C   0  0  2  0  0  0  0  0  0  0  0  0
   -3.2237    0.9477    0.0000 C   0  0  2  0  0  0  0  0  0  0  0  0
   -2.5093    0.5352    0.0000 C   0  0  1  0  0  0  0  0  0  0  0  0
   -3.2237   -0.7022    0.0000 C   0  0  0  0  0  0  0  0  0  0  0  0
   -0.3657    1.7727    0.0000 Cl  0  0  0  0  0  0  0  0  0  0  0  0
   -1.0803    0.5352    0.0000 C   0  0  0  0  0  0  0  0  0  0  0  0
   -0.3657    0.9477    0.0000 C   0  0  0  0  0  0  0  0  0  0  0  0
    0.3486    0.5352    0.0000 C   0  0  0  0  0  0  0  0  0  0  0  0
    1.7776    0.5352    0.0000 C   0  0  0  0  0  0  0  0  0  0  0  0
    1.7776   -0.2897    0.0000 C   0  0  0  0  0  0  0  0  0  0  0  0
    1.0631   -0.7022    0.0000 C   0  0  0  0  0  0  0  0  0  0  0  0
    0.3486   -0.2897    0.0000 C   0  0  0  0  0  0  0  0  0  0  0  0
   -0.3657   -0.7022    0.0000 C   0  0  0  0  0  0  0  0  0  0  0  0
   -1.0803   -0.2897    0.0000 C   0  0  0  0  0  0  0  0  0  0  0  0
    3.2065   -0.2897    0.0000 C   0  0  0  0  0  0  0  0  0  0  0  0
    3.9210   -0.7022    0.0000 C   0  0  0  0  0  0  0  0  0  0  0  0
    4.6354   -0.2897    0.0000 C   0  0  0  0  0  0  0  0  0  0  0  0
    5.3499   -0.7022    0.0000 C   0  0  0  0  0  0  0  0  0  0  0  0
    5.3499   -1.5272    0.0000 C   0  0  0  0  0  0  0  0  0  0  0  0
    4.6354   -1.9397    0.0000 C   0  0  0  0  0  0  0  0  0  0  0  0
    3.9210   -1.5272    0.0000 C   0  0  0  0  0  0  0  0  0  0  0  0
    6.0643   -0.2897    0.0000 C   0  0  0  0  0  0  0  0  0  0  0  0
    6.7789   -0.7022    0.0000 C   0  0  0  0  0  0  0  0  0  0  0  0
    7.4933   -0.2897    0.0000 C   0  0  0  0  0  0  0  0  0  0  0  0
    8.2078   -0.7022    0.0000 C   0  0  0  0  0  0  0  0  0  0  0  0
    7.4933    0.5352    0.0000 C   0  0  0  0  0  0  0  0  0  0  0  0
    2.4920   -0.7022    0.0000 N   0  0  0  0  0  0  0  0  0  0  0  0
   -4.6526   -0.7022    0.0000 O   0  0  0  0  0  0  0  0  0  0  0  0
   -4.6526    0.9477    0.0000 O   0  0  0  0  0  0  0  0  0  0  0  0
   -2.5093   -0.2897    0.0000 O   0  0  0  0  0  0  0  0  0  0  0  0
   -1.7947    0.9477    0.0000 O   0  0  0  0  0  0  0  0  0  0  0  0
    1.0631   -1.5272    0.0000 O   0  0  0  0  0  0  0  0  0  0  0  0
    1.0631    0.9477    0.0000 O   0  0  0  0  0  0  0  0  0  0  0  0
    2.4920    0.9477    0.0000 O   0  0  0  0  0  0  0  0  0  0  0  0
    3.2065    0.5352    0.0000 O   0  0  0  0  0  0  0  0  0  0  0  0
    6.0643   -1.9397    0.0000 O   0  0  0  0  0  0  0  0  0  0  0  0
   -6.9747    1.9397    0.0000 C   0  0  0  0  0  0  0  0  0  0  0  0
   -6.1678    1.7682    0.0000 C   0  0  0  0  0  0  0  0  0  0  0  0
   -6.0816    0.9477    0.0000 C   0  0  0  0  0  0  0  0  0  0  0  0
   -6.8352    0.6121    0.0000 N   0  0  0  0  0  0  0  0  0  0  0  0
   -7.3873    1.2252    0.0000 C   0  0  0  0  0  0  0  0  0  0  0  0
   -8.2077    1.1390    0.0000 C   0  0  0  0  0  0  0  0  0  0  0  0
   -5.3671    0.5352    0.0000 C   0  0  0  0  0  0  0  0  0  0  0  0
   -5.3671   -0.2897    0.0000 O   0  0  0  0  0  0  0  0  0  0  0  0
   -3.2237    1.7727    0.0000 O   0  0  0  0  0  0  0  0  0  0  0  0
  1 32  1  0  0  0  0
  8  2  1  0  0  0  0
  3  8  1  0  0  0  0
  4  5  1  0  0  0  0
  4  8  1  0  0  0  0
  4 32  1  6  0  0  0
  5  6  1  0  0  0  0
  5 33  1  1  0  0  0
  6  7  1  0  0  0  0
  6 49  1  1  0  0  0
  7 34  1  0  0  0  0
  7 35  1  6  0  0  0
  8 34  1  0  0  0  0
 11  9  1  0  0  0  0
 10 11  2  0  0  0  0
 10 18  1  0  0  0  0
 10 35  1  0  0  0  0
 11 12  1  0  0  0  0
 16 12  2  0  0  0  0
 12 37  1  0  0  0  0
 13 14  1  0  0  0  0
 13 37  1  0  0  0  0
 13 38  2  0  0  0  0
 14 15  2  0  0  0  0
 14 31  1  0  0  0  0
 16 15  1  0  0  0  0
 15 36  1  0  0  0  0
 16 17  1  0  0  0  0
 17 18  2  0  0  0  0
 19 20  1  0  0  0  0
 19 31  1  0  0  0  0
 19 39  2  0  0  0  0
 20 21  2  0  0  0  0
 20 25  1  0  0  0  0
 21 22  1  0  0  0  0
 22 23  2  0  0  0  0
 22 26  1  0  0  0  0
 23 24  1  0  0  0  0
 23 40  1  0  0  0  0
 24 25  2  0  0  0  0
 26 27  1  0  0  0  0
 27 28  2  0  0  0  0
 28 29  1  0  0  0  0
 28 30  1  0  0  0  0
 47 33  1  0  0  0  0
 41 42  1  0  0  0  0
 41 45  2  0  0  0  0
 42 43  2  0  0  0  0
 43 44  1  0  0  0  0
 47 43  1  0  0  0  0
 45 44  1  0  0  0  0
 45 46  1  0  0  0  0
 47 48  2  0  0  0  0
M  END
> <DATABASE_ID>
DB03966

> <DATABASE_NAME>
drugbank

> <SMILES>
CO[C@@H]1[C@@H](OC(=O)C2=CC=C(C)N2)[C@@H](O)[C@H](OC2=C(Cl)C3=C(C=C2)C(O)=C(NC(=O)C2=CC(CC=C(C)C)=C(O)C=C2)C(=O)O3)OC1(C)C

> <INCHI_IDENTIFIER>
InChI=1S/C35H37ClN2O11/c1-16(2)7-9-18-15-19(10-13-22(18)39)31(42)38-25-26(40)20-11-14-23(24(36)28(20)47-33(25)44)46-34-27(41)29(30(45-6)35(4,5)49-34)48-32(43)21-12-8-17(3)37-21/h7-8,10-15,27,29-30,34,37,39-41H,9H2,1-6H3,(H,38,42)/t27-,29+,30-,34-/m1/s1

> <INCHI_KEY>
FJAQNRBDVKIIKK-LFLQOBSNSA-N

> <FORMULA>
C35H37ClN2O11

> <MOLECULAR_WEIGHT>
697.128

> <EXACT_MASS>
696.208587743

> <JCHEM_ACCEPTOR_COUNT>
9

> <JCHEM_ATOM_COUNT>
86

> <JCHEM_AVERAGE_POLARIZABILITY>
72.30478851082665

> <JCHEM_BIOAVAILABILITY>
1

> <JCHEM_DONOR_COUNT>
5

> <JCHEM_FORMAL_CHARGE>
0

> <JCHEM_GHOSE_FILTER>
0

> <JCHEM_IUPAC>
(3R,4S,5R,6S)-6-({8-chloro-4-hydroxy-3-[4-hydroxy-3-(3-methylbut-2-en-1-yl)benzamido]-2-oxo-2H-chromen-7-yl}oxy)-5-hydroxy-3-methoxy-2,2-dimethyloxan-4-yl 5-methyl-1H-pyrrole-2-carboxylate

> <ALOGPS_LOGP>
5.00

> <JCHEM_LOGP>
4.941600984333333

> <ALOGPS_LOGS>
-5.33

> <JCHEM_MDDR_LIKE_RULE>
1

> <JCHEM_NUMBER_OF_RINGS>
5

> <JCHEM_PHYSIOLOGICAL_CHARGE>
-1

> <JCHEM_PKA>
8.243587475723201

> <JCHEM_PKA_STRONGEST_ACIDIC>
5.151451706121189

> <JCHEM_PKA_STRONGEST_BASIC>
-3.9299605345660744

> <JCHEM_POLAR_SURFACE_AREA>
185.86999999999998

> <JCHEM_REFRACTIVITY>
179.78760000000005

> <JCHEM_ROTATABLE_BOND_COUNT>
10

> <JCHEM_RULE_OF_FIVE>
0

> <ALOGPS_SOLUBILITY>
3.28e-03 g/l

> <JCHEM_TRADITIONAL_IUPAC>
seocalcitol

> <JCHEM_VEBER_RULE>
0

> <DRUGBANK_ID>
DB03966

> <SECONDARY_ACCESSION_NUMBERS>
EXPT00847

> <DRUG_GROUPS>
experimental

> <GENERIC_NAME>
Clorobiocin

> <SYNONYMS>
Chlorobiocin

$$$$
