
  Mrv1909 12222119192D          

 45 46  0  0  0  0            999 V2000
   -0.3585   -0.4952    0.0000 N   0  0  0  0  0  0  0  0  0  0  0  0
   -1.1850   -0.4952    0.0000 C   0  0  0  0  0  0  0  0  0  0  0  0
   -1.4011   -1.2942    0.0000 C   0  0  0  0  0  0  0  0  0  0  0  0
   -0.8194   -1.8807    0.0000 C   0  0  0  0  0  0  0  0  0  0  0  0
   -0.3585   -1.3241    0.0000 C   0  0  0  0  0  0  0  0  0  0  0  0
    0.3571   -1.7381    0.0000 C   0  0  0  0  0  0  0  0  0  0  0  0
    1.0791   -1.3235    0.0000 C   0  0  0  0  0  0  0  0  0  0  0  0
    1.0791   -0.4958    0.0000 N   0  0  0  0  0  0  0  0  0  0  0  0
    1.9111   -0.4958    0.0000 C   0  0  0  0  0  0  0  0  0  0  0  0
    2.3247    0.2236    0.0000 C   0  0  0  0  0  0  0  0  0  0  0  0
    1.9027    0.9344    0.0000 C   0  0  0  0  0  0  0  0  0  0  0  0
    1.0759    0.9344    0.0000 N   0  0  0  0  0  0  0  0  0  0  0  0
    1.0759    1.7628    0.0000 C   0  0  0  0  0  0  0  0  0  0  0  0
    0.3551    2.1727    0.0000 C   0  0  0  0  0  0  0  0  0  0  0  0
   -0.3572    1.7587    0.0000 C   0  0  0  0  0  0  0  0  0  0  0  0
   -0.3572    0.9305    0.0000 N   0  0  0  0  0  0  0  0  0  0  0  0
   -1.1901    0.9305    0.0000 C   0  0  0  0  0  0  0  0  0  0  0  0
   -1.5960    0.2157    0.0000 C   0  0  0  0  0  0  0  0  0  0  0  0
   -1.4057    1.7315    0.0000 C   0  0  0  0  0  0  0  0  0  0  0  0
   -2.2279    1.7315    0.0000 C   0  0  0  0  0  0  0  0  0  0  0  0
   -2.6416    1.0182    0.0000 C   0  0  0  0  0  0  0  0  0  0  0  0
   -0.8238    2.3179    0.0000 C   0  0  0  0  0  0  0  0  0  0  0  0
   -0.8238    3.1438    0.0000 C   0  0  0  0  0  0  0  0  0  0  0  0
    1.5251    2.3179    0.0000 C   0  0  0  0  0  0  0  0  0  0  0  0
    1.5251    3.1401    0.0000 C   0  0  0  0  0  0  0  0  0  0  0  0
    2.1109    1.7360    0.0000 C   0  0  0  0  0  0  0  0  0  0  0  0
    2.8247    2.1498    0.0000 C   0  0  0  0  0  0  0  0  0  0  0  0
    3.5378    1.7360    0.0000 C   0  0  0  0  0  0  0  0  0  0  0  0
    4.2560    2.1498    0.0000 C   0  0  0  0  0  0  0  0  0  0  0  0
    4.2560    2.9765    0.0000 O   0  0  0  0  0  0  0  0  0  0  0  0
    4.9718    1.7370    0.0000 O   0  5  0  0  0  0  0  0  0  0  0  0
    2.1201   -1.2897    0.0000 C   0  0  0  0  0  0  0  0  0  0  0  0
    2.8336   -0.8767    0.0000 C   0  0  0  0  0  0  0  0  0  0  0  0
    3.5468   -1.2851    0.0000 C   0  0  0  0  0  0  0  0  0  0  0  0
    4.2650   -0.8721    0.0000 C   0  0  0  0  0  0  0  0  0  0  0  0
    4.9782   -1.2851    0.0000 O   0  5  0  0  0  0  0  0  0  0  0  0
    4.2650   -0.0447    0.0000 O   0  0  0  0  0  0  0  0  0  0  0  0
    1.5342   -1.8715    0.0000 C   0  0  0  0  0  0  0  0  0  0  0  0
    1.5342   -2.6937    0.0000 C   0  0  0  0  0  0  0  0  0  0  0  0
   -0.8194   -2.7029    0.0000 C   0  0  0  0  0  0  0  0  0  0  0  0
   -1.4875   -3.1438    0.0000 C   0  0  0  0  0  0  0  0  0  0  0  0
   -2.2007   -1.4943    0.0000 C   0  0  0  0  0  0  0  0  0  0  0  0
    0.1676    0.0760    0.0000 Sn  0  0  0  0  0  0  0  0  0  0  0  0
   -4.9782   -0.6393    0.0000 Cl  0  5  0  0  0  0  0  0  0  0  0  0
   -4.9782   -0.6393    0.0000 Cl  0  5  0  0  0  0  0  0  0  0  0  0
  2  3  1  0  0  0  0
  3  4  2  0  0  0  0
  5  4  1  0  0  0  0
  1  5  2  0  0  0  0
  5  6  1  0  0  0  0
  6  7  2  0  0  0  0
  7  8  1  0  0  0  0
  8  9  1  0  0  0  0
  9 10  2  0  0  0  0
 11 10  1  0  0  0  0
 11 12  2  0  0  0  0
 12 13  1  0  0  0  0
 13 14  2  0  0  0  0
 14 15  1  0  0  0  0
 15 16  1  0  0  0  0
 16 17  1  0  0  0  0
 17 18  1  0  0  0  0
 18  2  2  0  0  0  0
 17 19  2  0  0  0  0
 19 20  1  0  0  0  0
 20 21  2  0  0  0  0
 19 22  1  0  0  0  0
 22 23  1  0  0  0  0
 15 22  2  0  0  0  0
 13 24  1  0  0  0  0
 24 25  1  0  0  0  0
 26 24  2  0  0  0  0
 26 27  1  0  0  0  0
 27 28  1  0  0  0  0
 28 29  1  0  0  0  0
 29 30  2  0  0  0  0
 29 31  1  0  0  0  0
 11 26  1  0  0  0  0
  9 32  1  0  0  0  0
 32 33  1  0  0  0  0
 33 34  1  0  0  0  0
 34 35  1  0  0  0  0
 35 36  1  0  0  0  0
 35 37  2  0  0  0  0
 32 38  2  0  0  0  0
 38 39  1  0  0  0  0
  7 38  1  0  0  0  0
  4 40  1  0  0  0  0
 40 41  2  0  0  0  0
  3 42  1  0  0  0  0
  2  1  1  0  0  0  0
M  CHG  5  31  -1  36  -1  43   4  44  -1  45  -1
M  STY  1   1 SRU
M  SAL   1  1  44
M  SDI   1  4   -5.3907   -1.0518   -5.3907   -0.2268
M  SDI   1  4   -4.5657   -0.2268   -4.5657   -1.0518
M  SMT   1 2
M  END
> <DATABASE_ID>
DB16449

> <DATABASE_NAME>
drugbank

> <SMILES>
[Cl-].[Cl-].[Sn+4].CC1=C(CCC([O-])=O)/C2=C/C3=N/C(=C\C4=C(C)C(C=C)=C(N4)/C=C4\N=C(\C=C\1/N\2)C(C=C)=C4C)/C(C)=C3CCC([O-])=O

> <INCHI_IDENTIFIER>
InChI=1S/C34H34N4O4.2ClH.Sn/c1-7-21-17(3)25-13-26-19(5)23(9-11-33(39)40)31(37-26)16-32-24(10-12-34(41)42)20(6)28(38-32)15-30-22(8-2)18(4)27(36-30)14-29(21)35-25;;;/h7-8,13-16,35,38H,1-2,9-12H2,3-6H3,(H,39,40)(H,41,42);2*1H;/q;;;+4/p-4/b25-13-,26-13-,27-14-,28-15-,29-14-,30-15-,31-16-,32-16-;;;

> <INCHI_KEY>
KXYSGXXTXAHPIX-UHEVNVKKSA-J

> <FORMULA>
C34H32Cl3N4O4Sn

> <MOLECULAR_WEIGHT>
785.71

> <EXACT_MASS>
785.051664

> <JCHEM_ATOM_COUNT>
78

> <JCHEM_FORMAL_CHARGE>
0

> <JCHEM_GHOSE_FILTER>
0

> <ALOGPS_LOGP>
5.67

> <ALOGPS_LOGS>
-5.10

> <JCHEM_RULE_OF_FIVE>
0

> <ALOGPS_SOLUBILITY>
5.96e-03 g/l

> <DRUGBANK_ID>
DB16449

> <DRUG_GROUPS>
investigational

> <GENERIC_NAME>
Tin protoporphyrin IX

> <SYNONYMS>
Sn Protoporphyrin; Sn-heme; SnPP; SnPP Protoporphyrin; Tin protoporphyrin IX

$$$$
