
  Mrv1909 12111918482D          

 18 19  0  0  0  0            999 V2000
    0.2942    0.2037    0.0000 C   0  0  2  0  0  0  0  0  0  0  0  0
   -0.4205    0.6158    0.0000 C   0  0  0  0  0  0  0  0  0  0  0  0
   -1.1310    0.2037    0.0000 N   0  0  0  0  0  0  0  0  0  0  0  0
   -1.2161   -0.6112    0.0000 N   0  0  0  0  0  0  0  0  0  0  0  0
   -2.0224   -0.7853    0.0000 C   0  0  0  0  0  0  0  0  0  0  0  0
   -2.4344   -0.0704    0.0000 N   0  0  0  0  0  0  0  0  0  0  0  0
   -1.8845    0.5398    0.0000 N   0  0  0  0  0  0  0  0  0  0  0  0
    0.2942   -0.6158    0.0000 O   0  0  0  0  0  0  0  0  0  0  0  0
    1.0046   -1.0278    0.0000 C   0  0  0  0  0  0  0  0  0  0  0  0
    1.7195   -0.6158    0.0000 N   0  0  0  0  0  0  0  0  0  0  0  0
    1.0046   -1.8519    0.0000 O   0  0  0  0  0  0  0  0  0  0  0  0
    1.0046    0.6158    0.0000 C   0  0  0  0  0  0  0  0  0  0  0  0
    1.0046    1.4398    0.0000 C   0  0  0  0  0  0  0  0  0  0  0  0
    1.7195    1.8519    0.0000 C   0  0  0  0  0  0  0  0  0  0  0  0
    2.4344    1.4398    0.0000 C   0  0  0  0  0  0  0  0  0  0  0  0
    2.4344    0.6158    0.0000 C   0  0  0  0  0  0  0  0  0  0  0  0
    1.7195    0.2037    0.0000 C   0  0  0  0  0  0  0  0  0  0  0  0
    0.2942    1.8519    0.0000 Cl  0  0  0  0  0  0  0  0  0  0  0  0
  1  2  1  0  0  0  0
  2  3  1  0  0  0  0
  3  4  1  0  0  0  0
  4  5  2  0  0  0  0
  5  6  1  0  0  0  0
  7  6  2  0  0  0  0
  3  7  1  0  0  0  0
  1  8  1  1  0  0  0
  8  9  1  0  0  0  0
  9 10  1  0  0  0  0
  9 11  2  0  0  0  0
  1 12  1  0  0  0  0
 12 13  2  0  0  0  0
 13 14  1  0  0  0  0
 14 15  2  0  0  0  0
 16 15  1  0  0  0  0
 17 16  2  0  0  0  0
 12 17  1  0  0  0  0
 13 18  1  0  0  0  0
M  END
> <DATABASE_ID>
DB06119

> <DATABASE_NAME>
drugbank

> <SMILES>
NC(=O)O[C@@H](CN1N=CN=N1)C1=C(Cl)C=CC=C1

> <INCHI_IDENTIFIER>
InChI=1S/C10H10ClN5O2/c11-8-4-2-1-3-7(8)9(18-10(12)17)5-16-14-6-13-15-16/h1-4,6,9H,5H2,(H2,12,17)/t9-/m0/s1

> <INCHI_KEY>
GFHAXPJGXSQLPT-VIFPVBQESA-N

> <FORMULA>
C10H10ClN5O2

> <MOLECULAR_WEIGHT>
267.67

> <EXACT_MASS>
267.0523023

> <JCHEM_ACCEPTOR_COUNT>
4

> <JCHEM_ATOM_COUNT>
28

> <JCHEM_AVERAGE_POLARIZABILITY>
24.3549254862981

> <JCHEM_BIOAVAILABILITY>
1

> <JCHEM_DONOR_COUNT>
1

> <JCHEM_FORMAL_CHARGE>
0

> <JCHEM_GHOSE_FILTER>
1

> <JCHEM_IUPAC>
(1R)-1-(2-chlorophenyl)-2-(2H-1,2,3,4-tetrazol-2-yl)ethyl carbamate

> <ALOGPS_LOGP>
0.99

> <JCHEM_LOGP>
1.6621271340000003

> <ALOGPS_LOGS>
-2.46

> <JCHEM_MDDR_LIKE_RULE>
0

> <JCHEM_NUMBER_OF_RINGS>
2

> <JCHEM_PHYSIOLOGICAL_CHARGE>
0

> <JCHEM_PKA_STRONGEST_ACIDIC>
14.280235925971398

> <JCHEM_PKA_STRONGEST_BASIC>
-1.6906065073207892

> <JCHEM_POLAR_SURFACE_AREA>
95.91999999999999

> <JCHEM_REFRACTIVITY>
76.43320000000001

> <JCHEM_ROTATABLE_BOND_COUNT>
5

> <JCHEM_RULE_OF_FIVE>
1

> <ALOGPS_SOLUBILITY>
9.36e-01 g/l

> <JCHEM_TRADITIONAL_IUPAC>
cenobamate

> <JCHEM_VEBER_RULE>
0

> <DRUGBANK_ID>
DB06119

> <DRUG_GROUPS>
approved; investigational

> <GENERIC_NAME>
Cenobamate

> <SYNONYMS>
CÃ©nobamate; Cenobamate; Cenobamato; Cenobamatum

> <PRODUCTS>
Ontozry; Xcopri; Xcopri Maintenance Pack; Xcopri Titration Pack

> <INTERNATIONAL_BRANDS>
XCopri

$$$$
