
  Mrv1718007061818392D          

  7  4  0  0  0  0            999 V2000
   -0.2247   -0.0072    0.0000 P   0  0  0  0  0  0  0  0  0  0  0  0
    0.1858   -0.7171    0.0000 O   0  5  0  0  0  0  0  0  0  0  0  0
    0.1858    0.7075    0.0000 O   0  5  0  0  0  0  0  0  0  0  0  0
   -0.9441    0.3984    0.0000 O   0  0  0  0  0  0  0  0  0  0  0  0
   -0.9441   -0.4225    0.0000 F   0  0  0  0  0  0  0  0  0  0  0  0
    0.9441   -0.7798    0.0000 Na  0  3  0  0  0  0  0  0  0  0  0  0
    0.9441    0.7798    0.0000 Na  0  3  0  0  0  0  0  0  0  0  0  0
  2  1  1  0  0  0  0
  3  1  1  0  0  0  0
  4  1  2  0  0  0  0
  5  1  1  0  0  0  0
M  CHG  4   2  -1   3  -1   6   1   7   1
M  END
> <DATABASE_ID>
DB09484

> <DATABASE_NAME>
drugbank

> <SMILES>
[Na+].[Na+].[O-]P([O-])(F)=O

> <INCHI_IDENTIFIER>
InChI=1S/FH2O3P.2Na/c1-5(2,3)4;;/h(H2,2,3,4);;/q;2*+1/p-2

> <INCHI_KEY>
BFDWBSRJQZPEEB-UHFFFAOYSA-L

> <FORMULA>
FNa2O3P

> <MOLECULAR_WEIGHT>
143.949

> <EXACT_MASS>
143.93644758

> <JCHEM_ACCEPTOR_COUNT>
3

> <JCHEM_ATOM_COUNT>
7

> <JCHEM_AVERAGE_POLARIZABILITY>
4.590426311632566

> <JCHEM_BIOAVAILABILITY>
1

> <JCHEM_DONOR_COUNT>
0

> <JCHEM_FORMAL_CHARGE>
0

> <JCHEM_GHOSE_FILTER>
0

> <JCHEM_IUPAC>
disodium phosphorofluoridate

> <JCHEM_LOGP>
-0.5422967586666666

> <JCHEM_MDDR_LIKE_RULE>
0

> <JCHEM_NUMBER_OF_RINGS>
0

> <JCHEM_PHYSIOLOGICAL_CHARGE>
-2

> <JCHEM_PKA>
6.102338985129987

> <JCHEM_PKA_STRONGEST_ACIDIC>
0.1004405187666988

> <JCHEM_POLAR_SURFACE_AREA>
63.19

> <JCHEM_REFRACTIVITY>
11.3452

> <JCHEM_ROTATABLE_BOND_COUNT>
0

> <JCHEM_RULE_OF_FIVE>
1

> <JCHEM_TRADITIONAL_IUPAC>
sodium monofluorophosphate

> <JCHEM_VEBER_RULE>
0

> <DRUGBANK_ID>
DB09484

> <DRUG_GROUPS>
approved

> <GENERIC_NAME>
Sodium fluorophosphate

> <SYNONYMS>
Disodium phosphorofluoridate; Phosphorofluoridic acid, disodium salt; Sodium monofluorophosphate

> <PRODUCTS>
100 toothpast e Morning; 100 toothpast e Night; 10g Colgate plus Toothbrush Kit; 10g Colgate plus Toothbrush plus Floss Kit; 28tak Clair Tooth; 365 Everyday Value Cavity Fighting and Whitening; 365 Everyday Value Kids Flouride; 5g Colgate plus Toothbrush Kit; 5g Colgate plus Toothbrush plus Floss Kit; AGToothpaste; AP-24 Fluoride; AP-24 Whitening; ATOMY PROPOLIS 200g; ATOMY PROPOLIS 50g; ATOMY PROPOLIS TOOTHPAS TE 200g; ATOMY PROPOLIS TOOTHPAS TE 50g; AdoptaPlatoon; Advanced Fluoride Anticavity; Advanced Whitening Anti Cavity Fluoride; Advanced Whitening Anticavity Fluoride; Aim; Aim Clinical Maximum Fluoride Level without a Prescription; Alegria; Amar Regular; AmerFresh; AmerFresh Fluoride; AmerFresh Tooth; Amerfresh; American Airlines International Business; An Tooth; Ancalima-Good morning; Anti Cavity Fluoride; Anti E-Sirin; Any Where Tooth Tabs; Apatite; AquaWhite Blue Gel Cavity FightingTooth; AquaWhite Cavity FightingTooth; AquaWhite Red Gel Cavity FightingTooth; Aquafresh; Aquafresh Advanced Clean Mint Toothpaste (pump); Aquafresh Advanced Extra Fresh Toothpaste; Aquafresh Anti-Cavity; Aquafresh BUBBLE FRESH; Aquafresh Baking Soda Clean Taste; Aquafresh Cavity Protection; Aquafresh Extra Breath Freshening Toothpaste; Aquafresh Extra Fresh; Aquafresh Extra Fresh Whitening; Aquafresh Fresh and White; Aquafresh Kids Cavity Protection; Aquafresh Kids Toothpaste (pump) 0.8%; Aquafresh Mint Toothpaste (pump) 0.8%; Aquafresh Mint Toothpaste (tube) 0.8%; Aquafresh Multi-active Mint Toothpaste; Aquafresh Multi-active Mint Toothpaste (pump); Aquafresh Original Toothpaste; Aquafresh Original Toothpaste (tube); Aquafresh Reg Toothpaste (pump) 0.8%; Aquafresh fresh n fruity; Arm & Hammer All-IN-one; Arm & Hammer Dental Care Extra Whitening; Arm & Hammer Intense Freshening; Atomy Propolis Toothpas Te 200g; Atomy Propolis Toothpas Te 50g; Atomy Toothpaste; BEYOU Orange; BEYOU Pink; BIOTENE Fresh Mint Original; BIOTENE Gentle Mint; BIOTENE Sensitive; BLUE Save the Animals; Baird Good Night; Barbie; Bee Smart; Beepropolis; Binaca Anticavity Flouride Peppermint; Biotene; Black Is White; BlanX Advanced Whitening; BlanX Intensive Stain Removal; BlanX White Shock; BlanX White Shock White and Protect; Brident; Bright Smiles; Brush Buddies Value 2 pack Whitening; Brushbuddies Barbie Anticavity FluorideTooth; Brushbuddies Shopkins Anticavity Tooth; Brushbuddies Thomas Friends Anticavity Fluroride Tooth; Business Class Kit; CO Oh So Dazzling Sweet Mint; CO. to Go; COLGATE Baking Soda and Peroxide Whitening Brisk Mint; COLGATE Great Regular Flavor; CVS Pharmacy Reflective White; Cavity Protection Peppermint with baking soda; Cavity Protection Spearmint; Cavity Protection Wintermint; Charm Tex; Charm Tex Fluoride; Charm-Tex FLUORIDE; Childrens Outrageous Orange Mango; Childrens Silly Strawberry; Chunzam Silk Amino Acid Tooth; Clean and Gentle Peppermint; Clean and Polish Luxury; Close Up (paste) With Baking Soda; Close Up Gel; Colgate 10g and Toothbrush Dental Kit; Colgate 2in1 Oxygen Whitening Cool Mint Fluoride; Colgate 5g Toothbrush Kit; Colgate 5g and Toothbrush Dental Kit; Colgate Anticavity; Colgate Anticavity Kit; Colgate Baking Soda and Peroxide Whitening Oxygen Bubbles Frosty Mint; Colgate Cavity Protection Great Regular Flavor; Colgate Essentials; Colgate Great Regular Flavor; Colgate Herbal White; Colgate Jr Fluoride Toothpaste 0.76%(tube); Colgate Optic White - Sparkling Mint; Colgate Optic White Advanced Icy Fresh; Colgate Optic White Advanced Sparkling White; Colgate Optic White Advanced Vibrant Clean; Colgate Optic White Beauty Radiant; Colgate Optic White Cool Mild Mint; Colgate Optic White Dual Action Crystal Mint; Colgate Optic White Enamel White; Colgate Optic White Enamel White Luminous Mint; Colgate Optic White High Impact Fluoride; Colgate Optic White Icy Fresh Cool Fresh Mint; Colgate Optic White Platinum Anticavity Fluoride; Colgate Optic White Platinum Cool Mint; Colgate Optic White Platinum Crystal Mint; Colgate Optic White Platinum Express White Fresh Mint; Colgate Optic White Platinum Stain-Less; Colgate Optic White Pro Series Stain Prevention; Colgate Optic White ProSeries Enamel Strenght; Colgate Optic White ProSeries Vividly Fresh; Colgate Optic White Renewal Enamel Strength; Colgate Optic White Renewal High Impact White; Colgate Optic White Renewal Lasting Fresh; Colgate Optic White Sparkling; Colgate Optic White Sparkling Mint; Colgate Optic White Sparkling Mint Flavor; Colgate Optic White Stain Prevention; Colgate Proclinical Refreshing Mint; Colgate Sensation Whitening; Colgate Sensation Whitening Mint Plus Toothpaste; Colgate Sensitive Pro Relief Enamel Repair; Colgate Sparkling White Mint Zing; Colgate Total Zx Pro-Shield Plus Sensitive; Colgate ULTRA BRITE Baking Soda and Peroxide Whitening; Cool Ice; Crest 3D White Brilliance Advanced Whitening Fresh Mint; Crest 3D White Professional Ultra White; Curaprox Black Is White; Curetech-Good morning; Curodont Repair Fluoride Plus; DELTA COMFORT PLUS 2019 AMENITY With Colgate Cavity Protection; DELTA PREMIUM SELECT 2019 TUMI MORRISON AMENITY With Colgate Cavity Protection; DELTA RON 2019 AMENITY With Colgate Cavity Protection; DR. Fresh Dailies Travel; DR.EL Very Good Tooth; DT Fluoride; DT Whitening Anticavity Fluoride; DawnMist; DawnMist Fluoride; Dawnmist; Dawnmist Fluoride; Delta Airline Ron Kit; Delta Travel Kit Comfort plus; Denblan Whitening Formula Anti Cavity Fluoride; Dental Clinic 2080 Cavity Protection; Dental Clinic 2080 Fresh Up; Dental Clinic 2080 Vita Care; Dental Kit; Dental Kit Soft Mint; Dental Kit Strong Mint; Dental Plus Fresh Mint Flavor; Dental Plus Regular Flavor; Dental Plus Whitening; Dental guardian; Dental plus Baking Soda; Dental plus Extra Menta; Dental plus Extra Mint; Dental plus Regular Flavor; Dental plus Whitening; Denti Whoo Blue Tabletgargle; Denti Whoo CTS Gum CareToothpaste; Denti Whoo Cts Germ Free-F; Denti-care System Fluoride Mint Tooth Gel; Denti-clean Extra-whitening Toothpaste; Dinosaur Fluoride Toothpaste; Doctor EL Black White Tooth; Doctor Will; Dr. DADDYS GumToothpaste; Dr. DADDYS Junior Toothpaste(Green grape); Dr. DADDYS Kids Tooth; Dr. DADDYS Kids ToothToothpaste(Raspberry flavor); Dr. DADDYS Kids Toothpaste(Raspberry flavor); Dr. Fresh Oral Care; Dr. Fresh Travel; Dr. Zenni Childrens Tooth; Dr. Zenni GGOMA ToothpasteRaspberry flavor; Dr. Zenni GGOMA ToothpasteVanilla flavor; Dr. Zenni Gum Project Propoli Tooth for Gum Disease; Dr. Zenni Junior Toothpaste(Lime flavor); Dr. Zenni Junior Toothpaste(Mint flavor); Dr. Zenni Natural OrthodonticToothpaste; Dr. Zenni Natural WhiteToothpaste; Dr. Zenni White Tooth; Dr.Althea I am Natural ToothpasteForAdults; Dr.Althea IamNaturalToothpaste for Adults; Dr.DADDYS Junior Toothpaste(Mint flavor); Dr.EL BERRYGOOD TOOTH; Dr.EL CHARCOR PARTY TOOTH; Dr.EL CLAIR TOOTH; Dr.EL ORTHO CARE TOOTH; Dr.NOAH MARUFTOOTHPASTE; Dr.chois Toothpaste Fresh; Dude Perfect Fluoride Toothpastes and Spinbrush Combo Pack; E Enzyme; Emory Johns Creek Amenity; Englewood Amenity; Englewood Mesh Amenity; Escopinio PHYTO alpha Toothpaste; Esirin X; Esopinio Topaz Phyto; Exoden All In One; Exoden Cavity; FIREFLY AntiCavity Fluoride; FIREFLY Anticavity Fluoride Tooth Bubblegum; FIREFLY Pediatric; Far Infra Silver; Finefra Clinic Tooth 100g; Finefra Clinic Tooth 135g; Finefra Silver; FireFly SmileGuard Kids; First Class Kit; Fluoride; Fluoride Bits; Fluoride Soft Mint; Fluoride Strong Mint; FluorideToothpaste; Fresh & Go Toothpaste - Adult; Fresh & Go Toothpaste - Children; FreshDent Cavity Protection Anticavity; FreshMax Fluoride Minty Flavor; FreshMax Fluoride Regular Flavor; Freshenup Fluoride Cool Mint; Freshenup Fluoride Double Mint; Freshenup Fluoride Fresh Mint; Freshenup Fluoride Mint; Freshmint Anticavity Flouride; Freshmint Anticavity Fluoride; Gerigentle-Good morning; Glancure Tooth; Glo Science Antioxidant; Glo Scinece Antioxidant; Go Smile AM; Go Smile Green Apple; Go Smile Lemonade; Go Smile Luxury Am; Go Smile MINT; Go Smile PM; Go Smile REFRESH; Go Smile RELAX; Good Morning E-fresh Tooth; Good Morning e-fresh Tooth; Gracie Square Hospital Amenity; Great White Shark Children's Whitening Toothpaste; Grin; Grin Kids; HEB Brilliant White; Handy Solutions Colgate Cavity Protection; Hawaiian Airline EC with Colgate Toothbrush and Sun; Hello Activated Charcoal; Hello Bye Bye Bacteria Fluoride; Hello CBD Fluoride; Hello Charcoal; Hello Extra Whitening Natural Pure Mint; Hello Naturally Whitening; Hello Whitening; Hello activated charcoal plus matcha green tea epic whitening fluoride; Hemp with Flouride, Spearmint; Himalayan Pink Salt Fresh Soothing Mint; Himalayan Pink Salt Sweet Herbal Mint; House Living; IODENT tooth; Idodent Flouride Mint; In-7-One; Iodent Fluoride Mint; Iodent Fluoride Regular; Iodent Fluoride Toothpaste; Ipana Bucky Beaver Bubble Gum Childrens Fluoride; Ipana Wintergreen Fluoride; Jason Healthy Mouth Anticavity ,Tartar Control Tea Tree Oil and Cinnamon; Jason Healthy Mouth Anticavity Tartar Control Tea Tree Cinnamon; Jason Nutrismile Anticavity Orange Cinnamon Mint; Jason Powersmile Anticavity ,Whitening Powerful Peppermint; Jason Powersmile Anticavity Whitening Peppermint; Jason Sea Fresh Anticavity Deep Sea Spearmint; Jason Sea Fresh Anticavity Strengthening Deep Sea Spearmint; K-MOM Kids Tooth; KMart Corporation Prisim White; Karl and Hans Botanic Double Mint; Karl and Hans Botanic Jasmine; Kids Silly Strawberry TP; Kids Strawberry FTP; Kiss My Face Kids Berry Smart; Kiss My Face Kids Fluoride - Berry Smart; Kiss My Face Triple Action; Kiss My Face Whitening; Koala Pals Sparkling Tooth Gel - 0.76%; Kosette Salt Tooth; Kroger Company Radiant White; Lath NonisToothpaste; Level Anticavity; Level Herbal Mint Five Sensitive Formula Anticavity; Level Wintermint Five Whitening Formula Anticavity; Listerine Essential Care; Listerine Essential Care Tartar Control; Listerine Whitening Fluoride Anticavity Original; Long-Lasting Wicked Fresh - Cool Peppermint; Long-Lasting Wicked Fresh - Spearmint Ice; Lucky Super Soft Anti Cavity; Lucky Super Soft Anti Cavity with Free Toothbrush; Lucky Super Soft Whitening Anti Cavity; Lucky Super Soft Whitening Anti Cavity with Free Toothbrush; Luster Power White Deep Stain Eraser; Luster Premium White AM/PM; Luster Premium White Power White Pro; Luster Premium White Pro Light Dental Whitening System; Luster Premium White Pro Sonic Dental Whitening System; Macleans Fresh Mint Toothpaste (tube); Macleans Mild Mint Toothpast (tube); Macleans Mild Mint Toothpaste - 0.8%; Macleans Toothpaste; McKesson Fluoride; Medi i Tooth; MediChoice Fluoride; Medpride; MegaFresh Fluoride Tooth; Meijer Glisten White; Meijer Whole Care with Fluoride; Memorial Sloan Kettering Cancer Center Amenity Kit; Mentadent Specialty Whitening Toothpaste and Polishing; Mentadent Toothpolish; Mint; Mitnty Ocean Salt Tooth; Mongdies blueberry kids tooth; Mongdies spearmint adult tooth; Morning Fresh; Murchison Hume Dental Kit; My Earthday Alpha Care Plus; MyntSmile DIAMYNT; Mystic Forest Tooth; NAVI Amazon Propol; NAVI Mate Gold; NAVI Mate Silver; NBF Gingival; Nano Silver Toothpaste; Natural Adult Fluoride; Natural White Wht. Tpt Sens.teeth-fresh Mint; Nature Mint Anti-cavity; Nature Mint Anticavity; Natures Gum Balm; Natures Promise Childrens Fluoride Strawberry; Need For You Limpio Tooth; New Doctor Ag Plus Gold; NewYork-Presbyterian Amenity; Newchito Plus One; Newworld; Northside Hospital Amenity Kit; Northside Hospital Bereavement; Northside Hospital C-Section Mothers; Northside Hospital C-Section Mothers Bag; Northside Hospital C-Section Mothers Tote; Northside Hospital H.E.A.R.T. Strings; Northside Hospital H.E.A.R.T. Strings Bag; Northside Hospital H.E.A.R.T. Strings Tote; Northside Hospital Mothers Bag; Northside Hospital Mothers Vaginal; Northside Hospital Mothers Vaginal Tote; Northside Hospital Natural Mothers Bag; Nuga Tourcia; Ology Fluoride; Oprecare 07; Oprecare 21; Oprecare 3set (07,12,21); Oral7; Oral7 Dry Mouth Moisturizing; Orbitol; Orbitol Alpine Fresh Fluoride Whitening Toothpaste; Orbitol Fluoride Toothpaste with Baking Soda; Orbitol Fluoride Whitening Toothpaste; Orbitol Mint Flavored Fluoride Toothpaste; Outrageous Orange Anticavity - OFT51 MRT; PERIOSCIENCES HYDRATING AO Pro; PERIOSCIENCES SENSITIVE AO Pro; PLUS153 Toothpast e; PROPOLIS 200g; PROPOLIS 50g; Pearl Drops Stainfighting Extra Stgth Tpt.8%; Pearl Drops Stainfighting Extra Str.toothp.; Pearl Drops Toothpolish Regular - Sus 0.8%; Pearl Drops Whitening Toothpolish - Electric; Perioe lucky fresh - breath care; Perioe lucky fresh - cavity care; Plus Plus White Smokers Whitening; Plus White; Plus White Coffee; Plus White Coffee Drinkers Whitening; Plus White Extra Whitening; Plus White Plus EVERY DAY WHITENING; Plus White Smokers Whitening; Plus White Super White TOOTH with PEROXIDE; Plus White With Peroxide; Plus White Xtra; Plus White Xtra Whitening; Pororo Toothpas te Apple; Pororo Toothpas te Melon; Pororo Toothpas te Mixed Fruits; Pororo Toothpas te Pineapple; Power White Deep Stain Eraser; Premier Value Cavity Protection Mint; PremierPro Fluoride Tooth; Priyal; Professional Choice Whitening Toothpaste; Quip; Rael Himalayan Pink Salt Fresh soothing mint; Regular; Rembrandt; Rembrandt Deeply White; Rembrandt Deeply White Plus Peroxide Whitening Fresh Mint; Rembrandt Deeply White Plus Peroxide Whitening Winter Mint; Rembrandt Plus; Rembrandt Power Whitening Anti-cavity Toothpaste; Rembrandt Whitening Toothpaste; Rembrandt Whitening Toothpaste for Sensitive Teeth; Rembrandt Whitening Toothpaste-7.6g/kg; Rexall Travel Toothbrush and Tooth-paste; Rite Aid Brilliant White; Ron 2; Rorobell WaWa Tooth; SMARTH Extra Strength REGULAR; SafetyMAXX Mint Flavor; Saltrain Tooth; Sarasota Memorial Amenity; Schmidts ACTIVATED CHARCOAL WITH WONDERMINT TOOTH AND MOUTH; Schmidts MINT and BERRY KIDS TOOTH AND MOUTH; Schmidts WATERMELON and STRAWBERRY KIDS TOOTH AND MOUTH; Schmidts WONDERMINT TOOTH AND MOUTH; Sensodyne-F Fluoride Toothpaste; Silly Strawberry Anticavity - BFT51 MRT; Simple Truth Kids Flouride; Sirinmedi One; Skyline Herbals; Slow Corporation; SmartMouth Advance Clinical Formula; SmartMouth Premium Action SmartMouth Advanced Clinical Formula (ACF); Smarth Extra Strength Baking Soda; Smarth Extra Strength Minty Fresh; Smarth Extra Strength Whitening; Smilecare; SparkleFresh; SparkleFresh Flouride Toothpaste; Spearmint Whitening with Hemp Oil; SprinJene Health Boost; SprinJene Natural; SprinJene Natural Apple-Mint; SprinJene Natural Sensitivity Relief; SprinJene Natural Watermelon; SuperSmile Professional Whitening; Supersmile; Surefresh Whitening Toothpaste - 0.76%; Tayadent With Fluoride; Teen Toothpast e Eucalyptus Flavor; Teen Toothpast e Peach Leaf Flavor; Thomas and Friends; Tom Whole Care Peppermint fights cavities whitening fresh breath helps fight tartar; Tom's Of Maine Fluoride Toothpaste (gingermint Or Peppermint Flavour); Tom's Of Maine Fluoride Toothpaste (wintermint Or Strawberry Flavour); Toms Baking Soda Cavity Protection Peppermint Fights cavities / Fresh Breath; Toms Cavity Protection Spearmint Fights cavities / Fresh Breath; Toms Cavity Protection Spearmint Fights cavities Fresh Breath; Toms Childrens Fluoride Silly Strawberry Prevents cavities / tastes great / dye free; Toms Childrens Wild Blueberry Anticavity BLUE; Toms Fresh and Bright; Toms Whole Care Cinnamon Clove FIGHTS CAVITIES WHITENING FRESH BREATH HELPS FIGHT TARTAR; Toms Whole Care Peppermint fights cavities / whitening / fresh breath / helps fight tartar; Toms Whole Care Spearmint fights cavities whitening fresh breath helps fight tartar; Toms Whole Care Wintermint - WWT4; Toms Whole Care Wintermint fights cavities / whitening / fresh breath / helps fight tartar / no artificial dyes or sweeteners; Toms Wicked Cool Fluoride - Mild Mint fights cavities / strengthens enamel / freshens breath / dye free; Toms Wicked Fresh Cool Peppermint fresh breath / cavity protection; Toms Wicked Fresh Spearmint Ice fresh breath / cavity protection; Toosty Golden Dookkeobi Tooth; Topco Radiant White; Topol Plus Whitening Tpt With Baking Soda; Topol Plus Whitening Tpt for Sensitive Teeth; Topol Plus With Calcium; Tough Tusk Toothpaste; Trade Joe Anticavity Peppermint; Transcon Business Class / Premium Economy Kit; Tropical Ocean Tooth; Truly Radiant Clean and Fresh; Truly Whitening System; UA Main Cabin Hawaii Economy 2020 w Colgate; UA Main Cabin Hawaii Premium 2020 w Colgate; UA Main Cabin Intl Economy 2020 w Colgate; UA Olympics Polaris 2020 w Colgate; UA Olympics Transcon 2020 w Colgate; UA Olympics UPP 2020 w Colgate; UPC 801803 00203 MegaFresh Fluoride Tooth; US Airways RON Kit; United Airlines Business Class Kit; United Airlines Polaris Business Class 2019 - Navy Blue With Colgate; United Airlines Polaris Business Class 2019 Star Wars with Colgate; United Airlines Polaris Kit; United Airlines Polaris Kit with Sanitizer Wipe; United Airlines Premium Plus 2019 - Purple With Colgate; United Airlines Premium Plus 2019 Star Wars with Colgate; United Airlines Spiderman Business Class 2019 - Red and Navy Blue With Colgate; United Airlines Transcon 2019 - Sky Blue With Colgate; United Airlines Transcon 2019 Star Wars with Colgate; United Airlines Transcon Kit; United Airlines Transcon Kit with Sanitizer Wipe; United Airlines UPP Kit; United Airlines UPP Kit with Sanitizer Wipe; Univ of Vermont Medical Center Amenity; Universal Advanced Whitening Anti-cavity Fluoride; Universal Anti-cavity Fluoride; Vita Fresh; Vvardis Set Soft Mint; Vvardis Set Strong Mint; Walgreens Peroxide Whitening; Watermelon Save the Animals; Wellstar Amenity; Western Dental; White Glo 2 in 1 with Mouthwash; White Glo 2in1 Tooth w Mouthwash; White Glo 2in1 with Mouthwash; White Glo Bio-enzyme; White Glo Charcoal; White Glo Charcoal Deep Stain Remover Tooth; White Glo Charcoal Sensitive; White Glo Coffee Tea Drinkers Formula; White Glo Instant White; White Glo Maximum White Charcoal; White Glo Micellar; White Glo Mouthwash Protection; White Glo Professional Choice; White Glo Smokers Formula; White Is Black; White-Glo 2in1 with mouthwash; White-Glo professional choice; White-Glo whiting tooth; Whitening Anticavity Fluoride Tooth; Whitening Kit; Whole Care Cinnamon Clove; Whole Care Peppermint; Whole Care Spearmint; Whole Care Wintermint; Wicked Cool Anticavity - LMFT51 MRT; Wicked Cool Fluoride Tween Mild Mint LMFT; Youduo Gentle Whitening Fluoride; Zohar Toothpaste Cool Mint; Zohar Toothpaste Fresh Mint; Zohar Toothpaste Regular Mint; fluorodine ACTIVE fresh Fluoride Anticavity; unpa Cha Cha Energy Toothpaste; unpa Cha Cha Toothpaste; unpa cha cha toothpaste Grapefruit; unpa cha cha toothpaste Jasmine Mint; vVARDIS Switzerland Edelweiss White and Protect Fluoride Tooth Strong Mint

$$$$
