
  Mrv1909 01162013352D          

 47 47  0  0  0  0            999 V2000
   -3.3191   -0.6272    0.0000 P   0  0  0  0  0  0  0  0  0  0  0  0
   -0.3562   -1.0355    0.0000 S   0  0  0  0  0  0  0  0  0  0  0  0
    1.1813   -0.6147    0.0000 C   0  0  2  0  0  0  0  0  0  0  0  0
    1.1813    0.2103    0.0000 C   0  0  0  0  0  0  0  0  0  0  0  0
    0.4646    0.6229    0.0000 N   0  0  0  0  0  0  0  0  0  0  0  0
    0.4688   -1.0355    0.0000 C   0  0  0  0  0  0  0  0  0  0  0  0
    0.4563    1.4480    0.0000 C   0  0  1  0  0  0  0  0  0  0  0  0
    1.8939   -1.0272    0.0000 N   0  0  0  0  0  0  0  0  0  0  0  0
   -3.3191    0.1978    0.0000 N   0  0  0  0  0  0  0  0  0  0  0  0
   -4.0317   -1.0397    0.0000 N   0  0  0  0  0  0  0  0  0  0  0  0
   -0.2562    1.8605    0.0000 C   0  0  0  0  0  0  0  0  0  0  0  0
    5.4569   -0.6022    0.0000 C   0  0  0  0  0  0  0  0  0  0  0  0
    2.6065   -0.6147    0.0000 C   0  0  0  0  0  0  0  0  0  0  0  0
   -1.1813   -1.0355    0.0000 C   0  0  0  0  0  0  0  0  0  0  0  0
   -3.3191   -1.4523    0.0000 O   0  0  0  0  0  0  0  0  0  0  0  0
   -0.3562   -0.2104    0.0000 O   0  0  0  0  0  0  0  0  0  0  0  0
   -0.3562   -1.8606    0.0000 O   0  0  0  0  0  0  0  0  0  0  0  0
   -2.6065   -1.0397    0.0000 O   0  0  0  0  0  0  0  0  0  0  0  0
    1.8939    0.6229    0.0000 O   0  0  0  0  0  0  0  0  0  0  0  0
   -0.2604    2.6856    0.0000 O   0  0  0  0  0  0  0  0  0  0  0  0
    5.4569    0.2228    0.0000 O   0  0  0  0  0  0  0  0  0  0  0  0
   -1.8939   -0.6230    0.0000 C   0  0  0  0  0  0  0  0  0  0  0  0
    4.7443   -1.0230    0.0000 C   0  0  2  0  0  0  0  0  0  0  0  0
    1.1688    1.8605    0.0000 C   0  0  0  0  0  0  0  0  0  0  0  0
    2.6065    0.2103    0.0000 O   0  0  0  0  0  0  0  0  0  0  0  0
    4.0317   -0.6105    0.0000 C   0  0  0  0  0  0  0  0  0  0  0  0
    3.3191   -1.0272    0.0000 C   0  0  0  0  0  0  0  0  0  0  0  0
   -4.7443   -0.6272    0.0000 C   0  0  0  0  0  0  0  0  0  0  0  0
   -4.0317   -1.8648    0.0000 C   0  0  0  0  0  0  0  0  0  0  0  0
   -4.0359    0.6104    0.0000 C   0  0  0  0  0  0  0  0  0  0  0  0
   -2.6065    0.6146    0.0000 C   0  0  0  0  0  0  0  0  0  0  0  0
   -0.9730    1.4480    0.0000 O   0  0  0  0  0  0  0  0  0  0  0  0
    6.1694   -1.0147    0.0000 O   0  0  0  0  0  0  0  0  0  0  0  0
    4.7443   -1.8481    0.0000 N   0  0  0  0  0  0  0  0  0  0  0  0
   -6.1694   -0.6355    0.0000 Cl  0  0  0  0  0  0  0  0  0  0  0  0
   -4.7568    1.8480    0.0000 Cl  0  0  0  0  0  0  0  0  0  0  0  0
   -4.7568   -3.1024    0.0000 Cl  0  0  0  0  0  0  0  0  0  0  0  0
   -1.8981    1.8605    0.0000 Cl  0  0  0  0  0  0  0  0  0  0  0  0
   -5.4569   -1.0480    0.0000 C   0  0  0  0  0  0  0  0  0  0  0  0
   -4.7402   -2.2774    0.0000 C   0  0  0  0  0  0  0  0  0  0  0  0
   -2.6107    1.4397    0.0000 C   0  0  0  0  0  0  0  0  0  0  0  0
   -4.0442    1.4355    0.0000 C   0  0  0  0  0  0  0  0  0  0  0  0
    1.1646    2.6815    0.0000 C   0  0  0  0  0  0  0  0  0  0  0  0
    1.8897    1.4522    0.0000 C   0  0  0  0  0  0  0  0  0  0  0  0
    2.5981    1.8689    0.0000 C   0  0  0  0  0  0  0  0  0  0  0  0
    1.8730    3.1024    0.0000 C   0  0  0  0  0  0  0  0  0  0  0  0
    2.5940    2.6940    0.0000 C   0  0  0  0  0  0  0  0  0  0  0  0
  2 14  1  0  0  0  0
  3  6  1  0  0  0  0
  3  4  1  1  0  0  0
  5  4  1  0  0  0  0
  6  2  1  0  0  0  0
  7  5  1  1  0  0  0
  8  3  1  0  0  0  0
  9  1  1  0  0  0  0
 10  1  1  0  0  0  0
 11  7  1  0  0  0  0
 12 23  1  0  0  0  0
 13  8  1  0  0  0  0
 14 22  1  0  0  0  0
 15  1  2  0  0  0  0
 16  2  2  0  0  0  0
 17  2  2  0  0  0  0
 18  1  1  0  0  0  0
 19  4  2  0  0  0  0
 20 11  2  0  0  0  0
 21 12  2  0  0  0  0
 22 18  1  0  0  0  0
 23 26  1  0  0  0  0
 24  7  1  0  0  0  0
 25 13  2  0  0  0  0
 26 27  1  0  0  0  0
 27 13  1  0  0  0  0
 28 10  1  0  0  0  0
 29 10  1  0  0  0  0
 30  9  1  0  0  0  0
 31  9  1  0  0  0  0
 32 11  1  0  0  0  0
 33 12  1  0  0  0  0
 23 34  1  1  0  0  0
 35 39  1  0  0  0  0
 36 42  1  0  0  0  0
 37 40  1  0  0  0  0
 38 41  1  0  0  0  0
 39 28  1  0  0  0  0
 40 29  1  0  0  0  0
 41 31  1  0  0  0  0
 42 30  1  0  0  0  0
 43 24  1  0  0  0  0
 44 24  2  0  0  0  0
 45 44  1  0  0  0  0
 46 43  2  0  0  0  0
 47 46  1  0  0  0  0
 47 45  2  0  0  0  0
M  END
> <DATABASE_ID>
DB04972

> <DATABASE_NAME>
drugbank

> <SMILES>
N[C@@H](CCC(=O)N[C@@H](CS(=O)(=O)CCOP(=O)(N(CCCl)CCCl)N(CCCl)CCCl)C(=O)N[C@@H](C(O)=O)C1=CC=CC=C1)C(O)=O

> <INCHI_IDENTIFIER>
InChI=1S/C26H40Cl4N5O10PS/c27-8-12-34(13-9-28)46(42,35(14-10-29)15-11-30)45-16-17-47(43,44)18-21(32-22(36)7-6-20(31)25(38)39)24(37)33-23(26(40)41)19-4-2-1-3-5-19/h1-5,20-21,23H,6-18,31H2,(H,32,36)(H,33,37)(H,38,39)(H,40,41)/t20-,21-,23+/m0/s1

> <INCHI_KEY>
OJLHWPALWODJPQ-QNWVGRARSA-N

> <FORMULA>
C26H40Cl4N5O10PS

> <MOLECULAR_WEIGHT>
787.46

> <EXACT_MASS>
785.0987615

> <JCHEM_ACCEPTOR_COUNT>
10

> <JCHEM_ATOM_COUNT>
87

> <JCHEM_AVERAGE_NEUTRAL_MICROSPECIES_CHARGE>
0.9700351708084644

> <JCHEM_AVERAGE_POLARIZABILITY>
74.16830252464405

> <JCHEM_BIOAVAILABILITY>
0

> <JCHEM_DONOR_COUNT>
5

> <JCHEM_FORMAL_CHARGE>
0

> <JCHEM_GHOSE_FILTER>
0

> <JCHEM_IUPAC>
(2S)-2-amino-4-{[(1R)-2-[2-({bis[bis(2-chloroethyl)amino]phosphoryl}oxy)ethanesulfonyl]-1-{[(R)-carboxy(phenyl)methyl]carbamoyl}ethyl]carbamoyl}butanoic acid

> <ALOGPS_LOGP>
-1.01

> <JCHEM_LOGP>
-2.925608078161385

> <ALOGPS_LOGS>
-4.31

> <JCHEM_MDDR_LIKE_RULE>
0

> <JCHEM_NEUTRAL_CHARGE>
-1

> <JCHEM_NUMBER_OF_RINGS>
1

> <JCHEM_PHYSIOLOGICAL_CHARGE>
-1

> <JCHEM_PKA>
3.3345066896314326

> <JCHEM_PKA_STRONGEST_ACIDIC>
1.3676637455729341

> <JCHEM_PKA_STRONGEST_BASIC>
9.2602464276993

> <JCHEM_POLAR_SURFACE_AREA>
225.73999999999998

> <JCHEM_REFRACTIVITY>
175.76469999999992

> <JCHEM_ROTATABLE_BOND_COUNT>
25

> <JCHEM_RULE_OF_FIVE>
0

> <ALOGPS_SOLUBILITY>
3.85e-02 g/l

> <JCHEM_TRADITIONAL_IUPAC>
canfosfamide

> <JCHEM_VEBER_RULE>
0

> <DRUGBANK_ID>
DB04972

> <DRUG_GROUPS>
investigational

> <GENERIC_NAME>
Canfosfamide

> <SYNONYMS>
Canfosfamide

> <INTERNATIONAL_BRANDS>
Telcyta

> <SALTS>
Canfosfamide hydrochloride

$$$$
