
  Mrv1652310201623062D          

 41 46  0  0  1  0            999 V2000
   -1.0215   -6.2741    0.0000 C   0  0  0  0  0  0  0  0  0  0  0  0
   -1.8070   -6.0221    0.0000 O   0  0  0  0  0  0  0  0  0  0  0  0
   -2.4180   -6.5765    0.0000 C   0  0  0  0  0  0  0  0  0  0  0  0
   -3.2036   -6.3245    0.0000 C   0  0  0  0  0  0  0  0  0  0  0  0
   -3.8146   -6.8789    0.0000 C   0  0  0  0  0  0  0  0  0  0  0  0
   -3.6400   -7.6852    0.0000 C   0  0  0  0  0  0  0  0  0  0  0  0
   -2.8545   -7.9371    0.0000 C   0  0  0  0  0  0  0  0  0  0  0  0
   -2.2435   -7.3828    0.0000 C   0  0  0  0  0  0  0  0  0  0  0  0
   -1.4579   -7.6348    0.0000 O   0  0  0  0  0  0  0  0  0  0  0  0
   -0.8469   -7.0804    0.0000 C   0  0  0  0  0  0  0  0  0  0  0  0
   -0.0613   -7.3324    0.0000 C   0  0  0  0  0  0  0  0  0  0  0  0
    0.5497   -6.7780    0.0000 C   0  0  0  0  0  0  0  0  0  0  0  0
    1.3353   -7.0300    0.0000 O   0  0  0  0  0  0  0  0  0  0  0  0
    1.9463   -6.4757    0.0000 C   0  0  0  0  0  0  0  0  0  0  0  0
    2.7319   -6.7276    0.0000 C   0  0  0  0  0  0  0  0  0  0  0  0
    3.3429   -6.1733    0.0000 C   0  0  0  0  0  0  0  0  0  0  0  0
    3.1683   -5.3670    0.0000 C   0  0  0  0  0  0  0  0  0  0  0  0
    2.3827   -5.1150    0.0000 C   0  0  0  0  0  0  0  0  0  0  0  0
    1.7717   -5.6694    0.0000 C   0  0  0  0  0  0  0  0  0  0  0  0
    0.9861   -5.4174    0.0000 O   0  0  0  0  0  0  0  0  0  0  0  0
    0.3751   -5.9717    0.0000 C   0  0  0  0  0  0  0  0  0  0  0  0
    3.6899   -4.7278    0.0000 C   0  0  0  0  0  0  0  0  0  0  0  0
    3.3402   -3.9805    0.0000 O   0  0  0  0  0  0  0  0  0  0  0  0
    4.5148   -4.7370    0.0000 N   0  0  0  0  0  0  0  0  0  0  0  0
    4.9770   -4.0536    0.0000 C   0  0  0  0  0  0  0  0  0  0  0  0
    5.7697   -4.2819    0.0000 C   0  0  0  0  0  0  0  0  0  0  0  0
    6.4204   -3.7748    0.0000 C   0  0  0  0  0  0  0  0  0  0  0  0
    5.7975   -5.1065    0.0000 C   0  0  0  0  0  0  0  0  0  0  0  0
    5.0219   -5.3877    0.0000 C   0  0  1  0  0  0  0  0  0  0  0  0
    4.8294   -6.1899    0.0000 C   0  0  0  0  0  0  0  0  0  0  0  0
    4.0821   -6.5395    0.0000 N   0  0  0  0  0  0  0  0  0  0  0  0
   -4.1616   -8.3244    0.0000 N   0  0  0  0  0  0  0  0  0  0  0  0
   -4.9865   -8.3152    0.0000 C   0  0  0  0  0  0  0  0  0  0  0  0
   -5.4937   -7.6645    0.0000 C   0  0  2  0  0  0  0  0  0  0  0  0
   -6.3161   -7.7292    0.0000 C   0  0  0  0  0  0  0  0  0  0  0  0
   -6.6319   -6.9670    0.0000 C   0  0  0  0  0  0  0  0  0  0  0  0
   -7.4341   -6.7745    0.0000 C   0  0  0  0  0  0  0  0  0  0  0  0
   -6.0046   -6.4312    0.0000 C   0  0  0  0  0  0  0  0  0  0  0  0
   -5.3011   -6.8622    0.0000 N   0  0  0  0  0  0  0  0  0  0  0  0
   -4.5539   -6.5126    0.0000 C   0  0  0  0  0  0  0  0  0  0  0  0
   -4.5446   -5.6877    0.0000 O   0  0  0  0  0  0  0  0  0  0  0  0
  1  2  1  0  0  0  0
  2  3  1  0  0  0  0
  3  4  2  0  0  0  0
  4  5  1  0  0  0  0
  5  6  2  0  0  0  0
  6  7  1  0  0  0  0
  7  8  2  0  0  0  0
  3  8  1  0  0  0  0
  8  9  1  0  0  0  0
  9 10  1  0  0  0  0
 10 11  1  0  0  0  0
 11 12  1  0  0  0  0
 12 13  1  0  0  0  0
 13 14  1  0  0  0  0
 14 15  2  0  0  0  0
 15 16  1  0  0  0  0
 16 17  2  0  0  0  0
 17 18  1  0  0  0  0
 18 19  2  0  0  0  0
 14 19  1  0  0  0  0
 19 20  1  0  0  0  0
 20 21  1  0  0  0  0
 17 22  1  0  0  0  0
 22 23  2  0  0  0  0
 22 24  1  0  0  0  0
 24 25  1  0  0  0  0
 25 26  1  0  0  0  0
 26 27  2  0  0  0  0
 26 28  1  0  0  0  0
 28 29  1  0  0  0  0
 29 24  1  1  0  0  0
 29 30  1  0  0  0  0
 30 31  2  0  0  0  0
 16 31  1  0  0  0  0
  6 32  1  0  0  0  0
 32 33  2  0  0  0  0
 33 34  1  0  0  0  0
 34 35  1  0  0  0  0
 35 36  1  0  0  0  0
 36 37  2  0  0  0  0
 36 38  1  0  0  0  0
 38 39  1  0  0  0  0
 34 39  1  6  0  0  0
 39 40  1  0  0  0  0
  5 40  1  0  0  0  0
 40 41  2  0  0  0  0
M  END
> <DATABASE_ID>
DB11965

> <DATABASE_NAME>
drugbank

> <SMILES>
COC1=CC2=C(C=C1OCCCOC1=CC3=C(C=C1OC)C(=O)N1CC(=C)C[C@H]1C=N3)N=C[C@@H]1CC(=C)CN1C2=O

> <INCHI_IDENTIFIER>
InChI=1S/C31H32N4O6/c1-18-8-20-14-32-24-12-28(26(38-3)10-22(24)30(36)34(20)16-18)40-6-5-7-41-29-13-25-23(11-27(29)39-4)31(37)35-17-19(2)9-21(35)15-33-25/h10-15,20-21H,1-2,5-9,16-17H2,3-4H3/t20-,21-/m0/s1

> <INCHI_KEY>
RWZVMMQNDHPRQD-SFTDATJTSA-N

> <FORMULA>
C31H32N4O6

> <MOLECULAR_WEIGHT>
556.619

> <EXACT_MASS>
556.232184766

> <JCHEM_ACCEPTOR_COUNT>
8

> <JCHEM_ATOM_COUNT>
73

> <JCHEM_AVERAGE_POLARIZABILITY>
61.87300411317911

> <JCHEM_BIOAVAILABILITY>
1

> <JCHEM_DONOR_COUNT>
0

> <JCHEM_FORMAL_CHARGE>
0

> <JCHEM_GHOSE_FILTER>
0

> <JCHEM_IUPAC>
(7S)-13-methoxy-12-(3-{[(7S)-13-methoxy-5-methylidene-2-oxo-3,9-diazatricyclo[8.4.0.0^{3,7}]tetradeca-1(10),8,11,13-tetraen-12-yl]oxy}propoxy)-5-methylidene-3,9-diazatricyclo[8.4.0.0^{3,7}]tetradeca-1(10),8,11,13-tetraen-2-one

> <ALOGPS_LOGP>
2.68

> <JCHEM_LOGP>
2.2420548316666666

> <ALOGPS_LOGS>
-4.54

> <JCHEM_MDDR_LIKE_RULE>
1

> <JCHEM_NUMBER_OF_RINGS>
6

> <JCHEM_PHYSIOLOGICAL_CHARGE>
0

> <JCHEM_PKA_STRONGEST_BASIC>
4.398165244734072

> <JCHEM_POLAR_SURFACE_AREA>
102.25999999999999

> <JCHEM_REFRACTIVITY>
157.21919999999997

> <JCHEM_ROTATABLE_BOND_COUNT>
8

> <JCHEM_RULE_OF_FIVE>
0

> <ALOGPS_SOLUBILITY>
1.62e-02 g/l

> <JCHEM_TRADITIONAL_IUPAC>
(7S)-13-methoxy-12-(3-{[(7S)-13-methoxy-5-methylidene-2-oxo-3,9-diazatricyclo[8.4.0.0^{3,7}]tetradeca-1(10),8,11,13-tetraen-12-yl]oxy}propoxy)-5-methylidene-3,9-diazatricyclo[8.4.0.0^{3,7}]tetradeca-1(10),8,11,13-tetraen-2-one

> <JCHEM_VEBER_RULE>
0

> <DRUGBANK_ID>
DB11965

> <DRUG_GROUPS>
investigational

> <GENERIC_NAME>
SJG-136

$$$$
