
  Mrv1909 05201914372D          

 36 40  0  0  1  0            999 V2000
   -6.8434    0.5265    0.0000 C   0  0  0  0  0  0  0  0  0  0  0  0
   -7.5430    0.0893    0.0000 C   0  0  1  0  0  0  0  0  0  0  0  0
   -7.5142   -0.7352    0.0000 O   0  0  0  0  0  0  0  0  0  0  0  0
   -8.2138   -1.1724    0.0000 C   0  0  0  0  0  0  0  0  0  0  0  0
   -8.9423   -0.7851    0.0000 O   0  0  0  0  0  0  0  0  0  0  0  0
   -8.1851   -1.9969    0.0000 N   0  0  0  0  0  0  0  0  0  0  0  0
   -8.8847   -2.4341    0.0000 C   0  0  0  0  0  0  0  0  0  0  0  0
   -8.9422   -3.2571    0.0000 C   0  0  0  0  0  0  0  0  0  0  0  0
   -9.7427   -3.4566    0.0000 O   0  0  0  0  0  0  0  0  0  0  0  0
  -10.1799   -2.7570    0.0000 N   0  0  0  0  0  0  0  0  0  0  0  0
   -9.6496   -2.1250    0.0000 C   0  0  0  0  0  0  0  0  0  0  0  0
   -9.8492   -1.3245    0.0000 C   0  0  0  0  0  0  0  0  0  0  0  0
   -8.3103   -3.7874    0.0000 C   0  0  0  0  0  0  0  0  0  0  0  0
   -7.5350   -3.5052    0.0000 C   0  0  0  0  0  0  0  0  0  0  0  0
   -6.9030   -4.0355    0.0000 C   0  0  0  0  0  0  0  0  0  0  0  0
   -7.0463   -4.8480    0.0000 C   0  0  0  0  0  0  0  0  0  0  0  0
   -7.8215   -5.1301    0.0000 C   0  0  0  0  0  0  0  0  0  0  0  0
   -8.4535   -4.5998    0.0000 C   0  0  0  0  0  0  0  0  0  0  0  0
   -6.4143   -5.3783    0.0000 C   0  0  0  0  0  0  0  0  0  0  0  0
   -5.6391   -5.0961    0.0000 C   0  0  0  0  0  0  0  0  0  0  0  0
   -5.0071   -5.6264    0.0000 C   0  0  0  0  0  0  0  0  0  0  0  0
   -5.1503   -6.4389    0.0000 C   0  0  0  0  0  0  0  0  0  0  0  0
   -5.9256   -6.7210    0.0000 C   0  0  0  0  0  0  0  0  0  0  0  0
   -6.5576   -6.1907    0.0000 C   0  0  0  0  0  0  0  0  0  0  0  0
   -4.5183   -6.9692    0.0000 C   0  0  0  0  0  0  0  0  0  0  0  0
   -4.1058   -7.6836    0.0000 C   0  0  0  0  0  0  0  0  0  0  0  0
   -4.9308   -7.6836    0.0000 C   0  0  0  0  0  0  0  0  0  0  0  0
   -3.8864   -6.4389    0.0000 C   0  0  0  0  0  0  0  0  0  0  0  0
   -3.1111   -6.7210    0.0000 O   0  0  0  0  0  0  0  0  0  0  0  0
   -4.0296   -5.6264    0.0000 O   0  0  0  0  0  0  0  0  0  0  0  0
   -8.2714    0.4766    0.0000 C   0  0  0  0  0  0  0  0  0  0  0  0
   -8.9711    0.0394    0.0000 C   0  0  0  0  0  0  0  0  0  0  0  0
   -9.6995    0.4267    0.0000 C   0  0  0  0  0  0  0  0  0  0  0  0
   -9.7283    1.2512    0.0000 C   0  0  0  0  0  0  0  0  0  0  0  0
   -9.0287    1.6884    0.0000 C   0  0  0  0  0  0  0  0  0  0  0  0
   -8.3002    1.3011    0.0000 C   0  0  0  0  0  0  0  0  0  0  0  0
  2  1  1  1  0  0  0
  2  3  1  0  0  0  0
  3  4  1  0  0  0  0
  4  5  2  0  0  0  0
  4  6  1  0  0  0  0
  6  7  1  0  0  0  0
  7  8  2  0  0  0  0
  8  9  1  0  0  0  0
  9 10  1  0  0  0  0
 10 11  2  0  0  0  0
  7 11  1  0  0  0  0
 11 12  1  0  0  0  0
  8 13  1  0  0  0  0
 13 14  2  0  0  0  0
 14 15  1  0  0  0  0
 15 16  2  0  0  0  0
 16 17  1  0  0  0  0
 17 18  2  0  0  0  0
 13 18  1  0  0  0  0
 16 19  1  0  0  0  0
 19 20  2  0  0  0  0
 20 21  1  0  0  0  0
 21 22  2  0  0  0  0
 22 23  1  0  0  0  0
 23 24  2  0  0  0  0
 19 24  1  0  0  0  0
 22 25  1  0  0  0  0
 25 26  1  0  0  0  0
 26 27  1  0  0  0  0
 25 27  1  0  0  0  0
 25 28  1  0  0  0  0
 28 29  1  0  0  0  0
 28 30  2  0  0  0  0
  2 31  1  0  0  0  0
 31 32  2  0  0  0  0
 32 33  1  0  0  0  0
 33 34  2  0  0  0  0
 34 35  1  0  0  0  0
 35 36  2  0  0  0  0
 31 36  1  0  0  0  0
M  END
> <DATABASE_ID>
DB14948

> <DATABASE_NAME>
drugbank

> <SMILES>
C[C@@H](OC(=O)NC1=C(ON=C1C)C1=CC=C(C=C1)C1=CC=C(C=C1)C1(CC1)C(O)=O)C1=CC=CC=C1

> <INCHI_IDENTIFIER>
InChI=1S/C29H26N2O5/c1-18-25(30-28(34)35-19(2)20-6-4-3-5-7-20)26(36-31-18)23-10-8-21(9-11-23)22-12-14-24(15-13-22)29(16-17-29)27(32)33/h3-15,19H,16-17H2,1-2H3,(H,30,34)(H,32,33)/t19-/m1/s1

> <INCHI_KEY>
GQBRZBHEPUQRPL-LJQANCHMSA-N

> <FORMULA>
C29H26N2O5

> <MOLECULAR_WEIGHT>
482.536

> <EXACT_MASS>
482.184171945

> <JCHEM_ACCEPTOR_COUNT>
5

> <JCHEM_ATOM_COUNT>
62

> <JCHEM_AVERAGE_POLARIZABILITY>
51.690369080733724

> <JCHEM_BIOAVAILABILITY>
1

> <JCHEM_DONOR_COUNT>
2

> <JCHEM_FORMAL_CHARGE>
0

> <JCHEM_GHOSE_FILTER>
0

> <JCHEM_IUPAC>
1-{4'-[3-methyl-4-({[(1R)-1-phenylethoxy]carbonyl}amino)-1,2-oxazol-5-yl]-[1,1'-biphenyl]-4-yl}cyclopropane-1-carboxylic acid

> <ALOGPS_LOGP>
5.63

> <JCHEM_LOGP>
5.954685844666668

> <ALOGPS_LOGS>
-4.86

> <JCHEM_MDDR_LIKE_RULE>
1

> <JCHEM_NUMBER_OF_RINGS>
5

> <JCHEM_PHYSIOLOGICAL_CHARGE>
-1

> <JCHEM_PKA>
11.427910210840645

> <JCHEM_PKA_STRONGEST_ACIDIC>
4.534168303916845

> <JCHEM_PKA_STRONGEST_BASIC>
0.6692007069813977

> <JCHEM_POLAR_SURFACE_AREA>
101.66

> <JCHEM_REFRACTIVITY>
136.34029999999998

> <JCHEM_ROTATABLE_BOND_COUNT>
8

> <JCHEM_RULE_OF_FIVE>
0

> <ALOGPS_SOLUBILITY>
6.69e-03 g/l

> <JCHEM_TRADITIONAL_IUPAC>
(2R)-14-fluoro-2-methyl-6,9,10,19-tetraazapentacyclo[14.2.1.0^{2,6}.0^{8,18}.0^{12,17}]nonadeca-1(18),8,12(17),13,15-pentaen-11-one

> <JCHEM_VEBER_RULE>
0

> <DRUGBANK_ID>
DB14948

> <DRUG_GROUPS>
investigational

> <GENERIC_NAME>
BMS-986020

$$$$
