
  Mrv1909 10112219222D          

 27 30  0  0  0  0            999 V2000
    3.0483   -3.0504    0.0000 C   0  0  0  0  0  0  0  0  0  0  0  0
    3.6004   -2.4373    0.0000 O   0  0  0  0  0  0  0  0  0  0  0  0
    3.3454   -1.6527    0.0000 C   0  0  0  0  0  0  0  0  0  0  0  0
    3.8974   -1.0396    0.0000 C   0  0  0  0  0  0  0  0  0  0  0  0
    3.6425   -0.2549    0.0000 N   0  3  0  0  0  0  0  0  0  0  0  0
    4.1274    0.4125    0.0000 C   0  0  0  0  0  0  0  0  0  0  0  0
    4.9524    0.4125    0.0000 C   0  0  0  0  0  0  0  0  0  0  0  0
    3.6425    1.0799    0.0000 N   0  0  0  0  0  0  0  0  0  0  0  0
    3.8974    1.8646    0.0000 C   0  0  0  0  0  0  0  0  0  0  0  0
    4.7044    2.0361    0.0000 C   0  0  0  0  0  0  0  0  0  0  0  0
    4.9594    2.8207    0.0000 N   0  0  0  0  0  0  0  0  0  0  0  0
    5.7663    2.9922    0.0000 C   0  0  0  0  0  0  0  0  0  0  0  0
    6.3184    2.3791    0.0000 C   0  0  0  0  0  0  0  0  0  0  0  0
    6.0634    1.5945    0.0000 N   0  0  0  0  0  0  0  0  0  0  0  0
    5.2564    1.4230    0.0000 C   0  0  0  0  0  0  0  0  0  0  0  0
    2.8579    0.8250    0.0000 C   0  0  0  0  0  0  0  0  0  0  0  0
    2.8579    0.0000    0.0000 C   0  0  0  0  0  0  0  0  0  0  0  0
    2.1434   -0.4125    0.0000 C   0  0  0  0  0  0  0  0  0  0  0  0
    2.1434   -1.2375    0.0000 O   0  0  0  0  0  0  0  0  0  0  0  0
    1.4289   -0.0000    0.0000 C   0  0  0  0  0  0  0  0  0  0  0  0
    0.7145   -0.4125    0.0000 C   0  0  0  0  0  0  0  0  0  0  0  0
   -0.0000    0.0000    0.0000 C   0  0  0  0  0  0  0  0  0  0  0  0
    0.0000    0.8250    0.0000 C   0  0  0  0  0  0  0  0  0  0  0  0
    0.7145    1.2375    0.0000 C   0  0  0  0  0  0  0  0  0  0  0  0
    1.4289    0.8250    0.0000 C   0  0  0  0  0  0  0  0  0  0  0  0
    2.1434    1.2375    0.0000 C   0  0  0  0  0  0  0  0  0  0  0  0
    2.1434    2.0625    0.0000 O   0  0  0  0  0  0  0  0  0  0  0  0
  1  2  1  0  0  0  0
  2  3  1  0  0  0  0
  3  4  1  0  0  0  0
  4  5  1  0  0  0  0
  5  6  2  0  0  0  0
  6  7  1  0  0  0  0
  6  8  1  0  0  0  0
  8  9  1  0  0  0  0
  9 10  1  0  0  0  0
 10 11  2  0  0  0  0
 11 12  1  0  0  0  0
 12 13  2  0  0  0  0
 13 14  1  0  0  0  0
 14 15  2  0  0  0  0
 10 15  1  0  0  0  0
  8 16  1  0  0  0  0
 16 17  2  0  0  0  0
  5 17  1  0  0  0  0
 17 18  1  0  0  0  0
 18 19  2  0  0  0  0
 18 20  1  0  0  0  0
 20 21  2  0  0  0  0
 21 22  1  0  0  0  0
 22 23  2  0  0  0  0
 23 24  1  0  0  0  0
 24 25  2  0  0  0  0
 20 25  1  0  0  0  0
 25 26  1  0  0  0  0
 16 26  1  0  0  0  0
 26 27  2  0  0  0  0
M  CHG  1   5   1
M  END
> <DATABASE_ID>
DB17062

> <DATABASE_NAME>
drugbank

> <SMILES>
COCC[N+]1=C(C)N(CC2=NC=CN=C2)C2=C1C(=O)C1=CC=CC=C1C2=O

> <INCHI_IDENTIFIER>
InChI=1S/C20H19N4O3/c1-13-23(9-10-27-2)17-18(24(13)12-14-11-21-7-8-22-14)20(26)16-6-4-3-5-15(16)19(17)25/h3-8,11H,9-10,12H2,1-2H3/q+1

> <INCHI_KEY>
OTSOOHRUMBRSHZ-UHFFFAOYSA-N

> <FORMULA>
C20H19N4O3

> <MOLECULAR_WEIGHT>
363.396

> <EXACT_MASS>
363.145166908

> <JCHEM_ACCEPTOR_COUNT>
5

> <JCHEM_ATOM_COUNT>
46

> <JCHEM_AVERAGE_NEUTRAL_MICROSPECIES_CHARGE>
1.0000021691987948

> <JCHEM_AVERAGE_POLARIZABILITY>
38.57145960733787

> <JCHEM_BIOAVAILABILITY>
1

> <JCHEM_DONOR_COUNT>
0

> <JCHEM_FORMAL_CHARGE>
1

> <JCHEM_GHOSE_FILTER>
0

> <JCHEM_IUPAC>
3-(2-methoxyethyl)-2-methyl-4,9-dioxo-1-[(pyrazin-2-yl)methyl]-1H,4H,9H-naphtho[2,3-d]imidazol-3-ium

> <ALOGPS_LOGP>
0.02

> <JCHEM_LOGP>
-3.7216281214717455

> <ALOGPS_LOGS>
-4.79

> <JCHEM_MDDR_LIKE_RULE>
0

> <JCHEM_NEUTRAL_CHARGE>
1

> <JCHEM_NUMBER_OF_RINGS>
4

> <JCHEM_PHYSIOLOGICAL_CHARGE>
1

> <JCHEM_PKA_STRONGEST_BASIC>
0.5841040267946653

> <JCHEM_POLAR_SURFACE_AREA>
77.96000000000001

> <JCHEM_REFRACTIVITY>
109.72719999999998

> <JCHEM_ROTATABLE_BOND_COUNT>
5

> <JCHEM_RULE_OF_FIVE>
1

> <ALOGPS_SOLUBILITY>
6.45e-03 g/l

> <JCHEM_TRADITIONAL_IUPAC>
6-cyclopropaneamido-N-[hydroxy(2H2)methyl]-4-{[2-methoxy-3-(1-methyl-1,2,4-triazol-3-yl)phenyl]amino}pyridazine-3-carboxamide

> <JCHEM_VEBER_RULE>
0

> <DRUGBANK_ID>
DB17062

> <DRUG_GROUPS>
investigational

> <GENERIC_NAME>
Sepantronium

> <SYNONYMS>
1h-naphth(2,3-d)imidazolium, 4,9-dihydro-1-(2-methoxyethyl)-2-methyl-4,9-dioxo-3-(2-pyrazinylmethyl)-; Sepantronium cation; Sepantronium ion

> <SALTS>
Sepantronium bromide

$$$$
