
  Mrv1909 05212117382D          

234255  0  0  1  0            999 V2000
   -3.3183   -2.2988    0.0000 C   0  0  0  0  0  0  0  0  0  0  0  0
   -4.0230   -2.7099    0.0000 C   0  0  0  0  0  0  0  0  0  0  0  0
   -2.6084   -2.7081    0.0000 O   0  0  0  0  0  0  0  0  0  0  0  0
   -4.7378   -2.2977    0.0000 N   0  0  0  0  0  0  0  0  0  0  0  0
   -4.7378   -1.4815    0.0000 C   0  0  0  0  0  0  0  0  0  0  0  0
   -5.4494   -1.0712    0.0000 C   0  0  0  0  0  0  0  0  0  0  0  0
   -5.4453   -2.7037    0.0000 C   0  0  0  0  0  0  0  0  0  0  0  0
   -6.1526   -2.2935    0.0000 C   0  0  0  0  0  0  0  0  0  0  0  0
   -6.8643   -2.6995    0.0000 C   0  0  0  0  0  0  0  0  0  0  0  0
   -7.5718   -2.2893    0.0000 C   0  0  0  0  0  0  0  0  0  0  0  0
   -6.1568   -1.4773    0.0000 C   0  0  0  0  0  0  0  0  0  0  0  0
   -6.8685   -1.0670    0.0000 C   0  0  0  0  0  0  0  0  0  0  0  0
   -1.8028   -0.1565    0.0000 C   0  0  0  0  0  0  0  0  0  0  0  0
   -2.5883   -1.2298    0.0000 C   0  0  0  0  0  0  0  0  0  0  0  0
   -2.5883   -0.4075    0.0000 C   0  0  0  0  0  0  0  0  0  0  0  0
   -3.3078    0.0085    0.0000 C   0  0  0  0  0  0  0  0  0  0  0  0
   -4.0287   -0.4127    0.0000 C   0  0  0  0  0  0  0  0  0  0  0  0
   -4.0287   -1.2310    0.0000 C   0  0  0  0  0  0  0  0  0  0  0  0
   -3.3183   -1.6481    0.0000 C   0  0  0  0  0  0  0  0  0  0  0  0
   -1.3167   -0.8165    0.0000 C   0  0  0  0  0  0  0  0  0  0  0  0
   -1.8006   -1.4886    0.0000 C   0  0  0  0  0  0  0  0  0  0  0  0
   -1.4557   -2.2439    0.0000 C   0  0  0  0  0  0  0  0  0  0  0  0
   -0.6316   -2.3266    0.0000 C   0  0  0  0  0  0  0  0  0  0  0  0
   -0.1523   -1.6580    0.0000 C   0  0  0  0  0  0  0  0  0  0  0  0
   -0.4880   -0.8994    0.0000 C   0  0  0  0  0  0  0  0  0  0  0  0
    0.6721   -1.7490    0.0000 Cl  0  0  0  0  0  0  0  0  0  0  0  0
   -4.7529   -0.0042    0.0000 Cl  0  0  0  0  0  0  0  0  0  0  0  0
   -1.5382    0.6383    0.0000 C   0  0  0  0  0  0  0  0  0  0  0  0
   -2.0888    1.2614    0.0000 C   0  0  0  0  0  0  0  0  0  0  0  0
   -1.8272    2.0431    0.0000 C   0  0  0  0  0  0  0  0  0  0  0  0
   -2.3740    2.6560    0.0000 C   0  0  0  0  0  0  0  0  0  0  0  0
   -3.1858    2.4962    0.0000 C   0  0  0  0  0  0  0  0  0  0  0  0
   -3.4464    1.7132    0.0000 C   0  0  0  0  0  0  0  0  0  0  0  0
   -2.9001    1.0950    0.0000 C   0  0  0  0  0  0  0  0  0  0  0  0
   -3.7341    3.1114    0.0000 Cl  0  0  0  0  0  0  0  0  0  0  0  0
    2.5570   -1.8682    0.0000 C   0  0  0  0  0  0  0  0  0  0  0  0
    3.2769   -2.2826    0.0000 O   0  0  0  0  0  0  0  0  0  0  0  0
    4.7122   -3.1114    0.0000 C   0  0  0  0  0  0  0  0  0  0  0  0
    5.4276   -2.6971    0.0000 H   0  0  0  0  0  0  0  0  0  0  0  0
    6.8560   -0.2105    0.0000 H   0  0  0  0  0  0  0  0  0  0  0  0
    4.5069    1.8902    0.0000 C   0  0  0  0  0  0  0  0  0  0  0  0
    3.8169   -0.2733    0.0000 H   0  0  0  0  0  0  0  0  0  0  0  0
    5.5037    0.4215    0.0000 O   0  0  0  0  0  0  0  0  0  0  0  0
    5.1312   -0.2733    0.0000 O   0  0  0  0  0  0  0  0  0  0  0  0
    5.4276   -1.0434    0.0000 C   0  0  2  0  0  0  0  0  0  0  0  0
    4.7122   -0.6249    0.0000 C   0  0  1  0  0  0  0  0  0  0  0  0
    4.3150    0.2289    0.0000 O   0  0  0  0  0  0  0  0  0  0  0  0
    4.9177    1.0076    0.0000 C   0  0  1  0  0  0  0  0  0  0  0  0
    5.8848    1.0076    0.0000 C   0  0  0  0  0  0  0  0  0  0  0  0
    6.3536    0.1369    0.0000 C   0  0  0  0  0  0  0  0  0  0  0  0
    6.1408   -0.6258    0.0000 C   0  0  1  0  0  0  0  0  0  0  0  0
    7.5718   -0.6207    0.0000 C   0  0  0  0  0  0  0  0  0  0  0  0
    6.8597   -1.0416    0.0000 C   0  0  2  0  0  0  0  0  0  0  0  0
    6.8597   -1.8705    0.0000 C   0  0  0  0  0  0  0  0  0  0  0  0
    6.1429   -2.2835    0.0000 C   0  0  0  0  0  0  0  0  0  0  0  0
    5.4276   -1.8723    0.0000 C   0  0  1  0  0  0  0  0  0  0  0  0
    4.7122   -2.2826    0.0000 C   0  0  2  0  0  0  0  0  0  0  0  0
    3.9968   -1.8723    0.0000 C   0  0  2  0  0  0  0  0  0  0  0  0
    3.9968   -1.0434    0.0000 O   0  0  0  0  0  0  0  0  0  0  0  0
   -3.3183   -2.2988    0.0000 C   0  0  0  0  0  0  0  0  0  0  0  0
   -4.0230   -2.7099    0.0000 C   0  0  0  0  0  0  0  0  0  0  0  0
   -2.6084   -2.7081    0.0000 O   0  0  0  0  0  0  0  0  0  0  0  0
   -4.7378   -2.2977    0.0000 N   0  0  0  0  0  0  0  0  0  0  0  0
   -4.7378   -1.4815    0.0000 C   0  0  0  0  0  0  0  0  0  0  0  0
   -5.4494   -1.0712    0.0000 C   0  0  0  0  0  0  0  0  0  0  0  0
   -5.4453   -2.7037    0.0000 C   0  0  0  0  0  0  0  0  0  0  0  0
   -6.1526   -2.2935    0.0000 C   0  0  0  0  0  0  0  0  0  0  0  0
   -6.8643   -2.6995    0.0000 C   0  0  0  0  0  0  0  0  0  0  0  0
   -7.5718   -2.2893    0.0000 C   0  0  0  0  0  0  0  0  0  0  0  0
   -6.1568   -1.4773    0.0000 C   0  0  0  0  0  0  0  0  0  0  0  0
   -6.8685   -1.0670    0.0000 C   0  0  0  0  0  0  0  0  0  0  0  0
   -1.8028   -0.1565    0.0000 C   0  0  0  0  0  0  0  0  0  0  0  0
   -2.5883   -1.2298    0.0000 C   0  0  0  0  0  0  0  0  0  0  0  0
   -2.5883   -0.4075    0.0000 C   0  0  0  0  0  0  0  0  0  0  0  0
   -3.3078    0.0085    0.0000 C   0  0  0  0  0  0  0  0  0  0  0  0
   -4.0287   -0.4127    0.0000 C   0  0  0  0  0  0  0  0  0  0  0  0
   -4.0287   -1.2310    0.0000 C   0  0  0  0  0  0  0  0  0  0  0  0
   -3.3183   -1.6481    0.0000 C   0  0  0  0  0  0  0  0  0  0  0  0
   -1.3167   -0.8165    0.0000 C   0  0  0  0  0  0  0  0  0  0  0  0
   -1.8006   -1.4886    0.0000 C   0  0  0  0  0  0  0  0  0  0  0  0
   -1.4557   -2.2439    0.0000 C   0  0  0  0  0  0  0  0  0  0  0  0
   -0.6316   -2.3266    0.0000 C   0  0  0  0  0  0  0  0  0  0  0  0
   -0.1523   -1.6580    0.0000 C   0  0  0  0  0  0  0  0  0  0  0  0
   -0.4880   -0.8994    0.0000 C   0  0  0  0  0  0  0  0  0  0  0  0
    0.6721   -1.7490    0.0000 Cl  0  0  0  0  0  0  0  0  0  0  0  0
   -4.7529   -0.0042    0.0000 Cl  0  0  0  0  0  0  0  0  0  0  0  0
   -1.5382    0.6383    0.0000 C   0  0  0  0  0  0  0  0  0  0  0  0
   -2.0888    1.2614    0.0000 C   0  0  0  0  0  0  0  0  0  0  0  0
   -1.8272    2.0431    0.0000 C   0  0  0  0  0  0  0  0  0  0  0  0
   -2.3740    2.6560    0.0000 C   0  0  0  0  0  0  0  0  0  0  0  0
   -3.1858    2.4962    0.0000 C   0  0  0  0  0  0  0  0  0  0  0  0
   -3.4464    1.7132    0.0000 C   0  0  0  0  0  0  0  0  0  0  0  0
   -2.9001    1.0950    0.0000 C   0  0  0  0  0  0  0  0  0  0  0  0
   -3.7341    3.1114    0.0000 Cl  0  0  0  0  0  0  0  0  0  0  0  0
   -3.3183   -2.2988    0.0000 C   0  0  0  0  0  0  0  0  0  0  0  0
   -4.0230   -2.7099    0.0000 C   0  0  0  0  0  0  0  0  0  0  0  0
   -2.6084   -2.7081    0.0000 O   0  0  0  0  0  0  0  0  0  0  0  0
   -4.7378   -2.2977    0.0000 N   0  0  0  0  0  0  0  0  0  0  0  0
   -4.7378   -1.4815    0.0000 C   0  0  0  0  0  0  0  0  0  0  0  0
   -5.4494   -1.0712    0.0000 C   0  0  0  0  0  0  0  0  0  0  0  0
   -5.4453   -2.7037    0.0000 C   0  0  0  0  0  0  0  0  0  0  0  0
   -6.1526   -2.2935    0.0000 C   0  0  0  0  0  0  0  0  0  0  0  0
   -6.8643   -2.6995    0.0000 C   0  0  0  0  0  0  0  0  0  0  0  0
   -7.5718   -2.2893    0.0000 C   0  0  0  0  0  0  0  0  0  0  0  0
   -6.1568   -1.4773    0.0000 C   0  0  0  0  0  0  0  0  0  0  0  0
   -6.8685   -1.0670    0.0000 C   0  0  0  0  0  0  0  0  0  0  0  0
   -1.8028   -0.1565    0.0000 C   0  0  0  0  0  0  0  0  0  0  0  0
   -2.5883   -1.2298    0.0000 C   0  0  0  0  0  0  0  0  0  0  0  0
   -2.5883   -0.4075    0.0000 C   0  0  0  0  0  0  0  0  0  0  0  0
   -3.3078    0.0085    0.0000 C   0  0  0  0  0  0  0  0  0  0  0  0
   -4.0287   -0.4127    0.0000 C   0  0  0  0  0  0  0  0  0  0  0  0
   -4.0287   -1.2310    0.0000 C   0  0  0  0  0  0  0  0  0  0  0  0
   -3.3183   -1.6481    0.0000 C   0  0  0  0  0  0  0  0  0  0  0  0
   -1.3167   -0.8165    0.0000 C   0  0  0  0  0  0  0  0  0  0  0  0
   -1.8006   -1.4886    0.0000 C   0  0  0  0  0  0  0  0  0  0  0  0
   -1.4557   -2.2439    0.0000 C   0  0  0  0  0  0  0  0  0  0  0  0
   -0.6316   -2.3266    0.0000 C   0  0  0  0  0  0  0  0  0  0  0  0
   -0.1523   -1.6580    0.0000 C   0  0  0  0  0  0  0  0  0  0  0  0
   -0.4880   -0.8994    0.0000 C   0  0  0  0  0  0  0  0  0  0  0  0
    0.6721   -1.7490    0.0000 Cl  0  0  0  0  0  0  0  0  0  0  0  0
   -4.7529   -0.0042    0.0000 Cl  0  0  0  0  0  0  0  0  0  0  0  0
   -1.5382    0.6383    0.0000 C   0  0  0  0  0  0  0  0  0  0  0  0
   -2.0888    1.2614    0.0000 C   0  0  0  0  0  0  0  0  0  0  0  0
   -1.8272    2.0431    0.0000 C   0  0  0  0  0  0  0  0  0  0  0  0
   -2.3740    2.6560    0.0000 C   0  0  0  0  0  0  0  0  0  0  0  0
   -3.1858    2.4962    0.0000 C   0  0  0  0  0  0  0  0  0  0  0  0
   -3.4464    1.7132    0.0000 C   0  0  0  0  0  0  0  0  0  0  0  0
   -2.9001    1.0950    0.0000 C   0  0  0  0  0  0  0  0  0  0  0  0
   -3.7341    3.1114    0.0000 Cl  0  0  0  0  0  0  0  0  0  0  0  0
   -3.3183   -2.2988    0.0000 C   0  0  0  0  0  0  0  0  0  0  0  0
   -4.0230   -2.7099    0.0000 C   0  0  0  0  0  0  0  0  0  0  0  0
   -2.6084   -2.7081    0.0000 O   0  0  0  0  0  0  0  0  0  0  0  0
   -4.7378   -2.2977    0.0000 N   0  0  0  0  0  0  0  0  0  0  0  0
   -4.7378   -1.4815    0.0000 C   0  0  0  0  0  0  0  0  0  0  0  0
   -5.4494   -1.0712    0.0000 C   0  0  0  0  0  0  0  0  0  0  0  0
   -5.4453   -2.7037    0.0000 C   0  0  0  0  0  0  0  0  0  0  0  0
   -6.1526   -2.2935    0.0000 C   0  0  0  0  0  0  0  0  0  0  0  0
   -6.8643   -2.6995    0.0000 C   0  0  0  0  0  0  0  0  0  0  0  0
   -7.5718   -2.2893    0.0000 C   0  0  0  0  0  0  0  0  0  0  0  0
   -6.1568   -1.4773    0.0000 C   0  0  0  0  0  0  0  0  0  0  0  0
   -6.8685   -1.0670    0.0000 C   0  0  0  0  0  0  0  0  0  0  0  0
   -1.8028   -0.1565    0.0000 C   0  0  0  0  0  0  0  0  0  0  0  0
   -2.5883   -1.2298    0.0000 C   0  0  0  0  0  0  0  0  0  0  0  0
   -2.5883   -0.4075    0.0000 C   0  0  0  0  0  0  0  0  0  0  0  0
   -3.3078    0.0085    0.0000 C   0  0  0  0  0  0  0  0  0  0  0  0
   -4.0287   -0.4127    0.0000 C   0  0  0  0  0  0  0  0  0  0  0  0
   -4.0287   -1.2310    0.0000 C   0  0  0  0  0  0  0  0  0  0  0  0
   -3.3183   -1.6481    0.0000 C   0  0  0  0  0  0  0  0  0  0  0  0
   -1.3167   -0.8165    0.0000 C   0  0  0  0  0  0  0  0  0  0  0  0
   -1.8006   -1.4886    0.0000 C   0  0  0  0  0  0  0  0  0  0  0  0
   -1.4557   -2.2439    0.0000 C   0  0  0  0  0  0  0  0  0  0  0  0
   -0.6316   -2.3266    0.0000 C   0  0  0  0  0  0  0  0  0  0  0  0
   -0.1523   -1.6580    0.0000 C   0  0  0  0  0  0  0  0  0  0  0  0
   -0.4880   -0.8994    0.0000 C   0  0  0  0  0  0  0  0  0  0  0  0
    0.6721   -1.7490    0.0000 Cl  0  0  0  0  0  0  0  0  0  0  0  0
   -4.7529   -0.0042    0.0000 Cl  0  0  0  0  0  0  0  0  0  0  0  0
   -1.5382    0.6383    0.0000 C   0  0  0  0  0  0  0  0  0  0  0  0
   -2.0888    1.2614    0.0000 C   0  0  0  0  0  0  0  0  0  0  0  0
   -1.8272    2.0431    0.0000 C   0  0  0  0  0  0  0  0  0  0  0  0
   -2.3740    2.6560    0.0000 C   0  0  0  0  0  0  0  0  0  0  0  0
   -3.1858    2.4962    0.0000 C   0  0  0  0  0  0  0  0  0  0  0  0
   -3.4464    1.7132    0.0000 C   0  0  0  0  0  0  0  0  0  0  0  0
   -2.9001    1.0950    0.0000 C   0  0  0  0  0  0  0  0  0  0  0  0
   -3.7341    3.1114    0.0000 Cl  0  0  0  0  0  0  0  0  0  0  0  0
   -3.3183   -2.2988    0.0000 C   0  0  0  0  0  0  0  0  0  0  0  0
   -4.0230   -2.7099    0.0000 C   0  0  0  0  0  0  0  0  0  0  0  0
   -2.6084   -2.7081    0.0000 O   0  0  0  0  0  0  0  0  0  0  0  0
   -4.7378   -2.2977    0.0000 N   0  0  0  0  0  0  0  0  0  0  0  0
   -4.7378   -1.4815    0.0000 C   0  0  0  0  0  0  0  0  0  0  0  0
   -5.4494   -1.0712    0.0000 C   0  0  0  0  0  0  0  0  0  0  0  0
   -5.4453   -2.7037    0.0000 C   0  0  0  0  0  0  0  0  0  0  0  0
   -6.1526   -2.2935    0.0000 C   0  0  0  0  0  0  0  0  0  0  0  0
   -6.8643   -2.6995    0.0000 C   0  0  0  0  0  0  0  0  0  0  0  0
   -7.5718   -2.2893    0.0000 C   0  0  0  0  0  0  0  0  0  0  0  0
   -6.1568   -1.4773    0.0000 C   0  0  0  0  0  0  0  0  0  0  0  0
   -6.8685   -1.0670    0.0000 C   0  0  0  0  0  0  0  0  0  0  0  0
   -1.8028   -0.1565    0.0000 C   0  0  0  0  0  0  0  0  0  0  0  0
   -2.5883   -1.2298    0.0000 C   0  0  0  0  0  0  0  0  0  0  0  0
   -2.5883   -0.4075    0.0000 C   0  0  0  0  0  0  0  0  0  0  0  0
   -3.3078    0.0085    0.0000 C   0  0  0  0  0  0  0  0  0  0  0  0
   -4.0287   -0.4127    0.0000 C   0  0  0  0  0  0  0  0  0  0  0  0
   -4.0287   -1.2310    0.0000 C   0  0  0  0  0  0  0  0  0  0  0  0
   -3.3183   -1.6481    0.0000 C   0  0  0  0  0  0  0  0  0  0  0  0
   -1.3167   -0.8165    0.0000 C   0  0  0  0  0  0  0  0  0  0  0  0
   -1.8006   -1.4886    0.0000 C   0  0  0  0  0  0  0  0  0  0  0  0
   -1.4557   -2.2439    0.0000 C   0  0  0  0  0  0  0  0  0  0  0  0
   -0.6316   -2.3266    0.0000 C   0  0  0  0  0  0  0  0  0  0  0  0
   -0.1523   -1.6580    0.0000 C   0  0  0  0  0  0  0  0  0  0  0  0
   -0.4880   -0.8994    0.0000 C   0  0  0  0  0  0  0  0  0  0  0  0
    0.6721   -1.7490    0.0000 Cl  0  0  0  0  0  0  0  0  0  0  0  0
   -4.7529   -0.0042    0.0000 Cl  0  0  0  0  0  0  0  0  0  0  0  0
   -1.5382    0.6383    0.0000 C   0  0  0  0  0  0  0  0  0  0  0  0
   -2.0888    1.2614    0.0000 C   0  0  0  0  0  0  0  0  0  0  0  0
   -1.8272    2.0431    0.0000 C   0  0  0  0  0  0  0  0  0  0  0  0
   -2.3740    2.6560    0.0000 C   0  0  0  0  0  0  0  0  0  0  0  0
   -3.1858    2.4962    0.0000 C   0  0  0  0  0  0  0  0  0  0  0  0
   -3.4464    1.7132    0.0000 C   0  0  0  0  0  0  0  0  0  0  0  0
   -2.9001    1.0950    0.0000 C   0  0  0  0  0  0  0  0  0  0  0  0
   -3.7341    3.1114    0.0000 Cl  0  0  0  0  0  0  0  0  0  0  0  0
   -3.3183   -2.2988    0.0000 C   0  0  0  0  0  0  0  0  0  0  0  0
   -4.0230   -2.7099    0.0000 C   0  0  0  0  0  0  0  0  0  0  0  0
   -2.6084   -2.7081    0.0000 O   0  0  0  0  0  0  0  0  0  0  0  0
   -4.7378   -2.2977    0.0000 N   0  0  0  0  0  0  0  0  0  0  0  0
   -4.7378   -1.4815    0.0000 C   0  0  0  0  0  0  0  0  0  0  0  0
   -5.4494   -1.0712    0.0000 C   0  0  0  0  0  0  0  0  0  0  0  0
   -5.4453   -2.7037    0.0000 C   0  0  0  0  0  0  0  0  0  0  0  0
   -6.1526   -2.2935    0.0000 C   0  0  0  0  0  0  0  0  0  0  0  0
   -6.8643   -2.6995    0.0000 C   0  0  0  0  0  0  0  0  0  0  0  0
   -7.5718   -2.2893    0.0000 C   0  0  0  0  0  0  0  0  0  0  0  0
   -6.1568   -1.4773    0.0000 C   0  0  0  0  0  0  0  0  0  0  0  0
   -6.8685   -1.0670    0.0000 C   0  0  0  0  0  0  0  0  0  0  0  0
   -1.8028   -0.1565    0.0000 C   0  0  0  0  0  0  0  0  0  0  0  0
   -2.5883   -1.2298    0.0000 C   0  0  0  0  0  0  0  0  0  0  0  0
   -2.5883   -0.4075    0.0000 C   0  0  0  0  0  0  0  0  0  0  0  0
   -3.3078    0.0085    0.0000 C   0  0  0  0  0  0  0  0  0  0  0  0
   -4.0287   -0.4127    0.0000 C   0  0  0  0  0  0  0  0  0  0  0  0
   -4.0287   -1.2310    0.0000 C   0  0  0  0  0  0  0  0  0  0  0  0
   -3.3183   -1.6481    0.0000 C   0  0  0  0  0  0  0  0  0  0  0  0
   -1.3167   -0.8165    0.0000 C   0  0  0  0  0  0  0  0  0  0  0  0
   -1.8006   -1.4886    0.0000 C   0  0  0  0  0  0  0  0  0  0  0  0
   -1.4557   -2.2439    0.0000 C   0  0  0  0  0  0  0  0  0  0  0  0
   -0.6316   -2.3266    0.0000 C   0  0  0  0  0  0  0  0  0  0  0  0
   -0.1523   -1.6580    0.0000 C   0  0  0  0  0  0  0  0  0  0  0  0
   -0.4880   -0.8994    0.0000 C   0  0  0  0  0  0  0  0  0  0  0  0
    0.6721   -1.7490    0.0000 Cl  0  0  0  0  0  0  0  0  0  0  0  0
   -4.7529   -0.0042    0.0000 Cl  0  0  0  0  0  0  0  0  0  0  0  0
   -1.5382    0.6383    0.0000 C   0  0  0  0  0  0  0  0  0  0  0  0
   -2.0888    1.2614    0.0000 C   0  0  0  0  0  0  0  0  0  0  0  0
   -1.8272    2.0431    0.0000 C   0  0  0  0  0  0  0  0  0  0  0  0
   -2.3740    2.6560    0.0000 C   0  0  0  0  0  0  0  0  0  0  0  0
   -3.1858    2.4962    0.0000 C   0  0  0  0  0  0  0  0  0  0  0  0
   -3.4464    1.7132    0.0000 C   0  0  0  0  0  0  0  0  0  0  0  0
   -2.9001    1.0950    0.0000 C   0  0  0  0  0  0  0  0  0  0  0  0
   -3.7341    3.1114    0.0000 Cl  0  0  0  0  0  0  0  0  0  0  0  0
  1  2  1  0  0  0  0
  1  3  1  0  0  0  0
  1 19  1  0  0  0  0
  2  4  1  0  0  0  0
  4  5  1  0  0  0  0
  4  7  1  0  0  0  0
  5  6  1  0  0  0  0
  6 11  1  0  0  0  0
  7  8  1  0  0  0  0
  8  9  1  0  0  0  0
  9 10  1  0  0  0  0
 11 12  1  0  0  0  0
 13 15  1  0  0  0  0
 13 28  2  0  0  0  0
 20 13  1  0  0  0  0
 19 14  1  0  0  0  0
 14 15  2  0  0  0  0
 14 21  1  0  0  0  0
 15 16  1  0  0  0  0
 16 17  2  0  0  0  0
 17 27  1  0  0  0  0
 17 18  1  0  0  0  0
 18 19  2  0  0  0  0
 20 21  1  0  0  0  0
 20 25  2  0  0  0  0
 21 22  2  0  0  0  0
 22 23  1  0  0  0  0
 23 24  2  0  0  0  0
 24 25  1  0  0  0  0
 24 26  1  0  0  0  0
 28 29  1  0  0  0  0
 34 29  1  0  0  0  0
 29 30  2  0  0  0  0
 30 31  1  0  0  0  0
 31 32  2  0  0  0  0
 32 33  1  0  0  0  0
 32 35  1  0  0  0  0
 33 34  2  0  0  0  0
 37 36  1  0  0  0  0
 58 37  1  1  0  0  0
 57 38  1  1  0  0  0
 56 39  1  6  0  0  0
 51 40  1  6  0  0  0
 48 41  1  1  0  0  0
 46 42  1  1  0  0  0
 48 43  1  6  0  0  0
 44 43  1  0  0  0  0
 45 44  1  6  0  0  0
 45 56  1  0  0  0  0
 45 51  1  0  0  0  0
 45 46  1  0  0  0  0
 59 46  1  0  0  0  0
 46 47  1  0  0  0  0
 47 48  1  0  0  0  0
 48 49  1  0  0  0  0
 50 49  1  0  0  0  0
 51 50  1  0  0  0  0
 53 51  1  0  0  0  0
 53 52  1  6  0  0  0
 54 53  1  0  0  0  0
 55 54  1  0  0  0  0
 56 55  1  0  0  0  0
 57 56  1  0  0  0  0
 58 57  1  0  0  0  0
 59 58  1  0  0  0  0
200201  1  0  0  0  0
200202  1  0  0  0  0
200218  1  0  0  0  0
201203  1  0  0  0  0
203204  1  0  0  0  0
203206  1  0  0  0  0
204205  1  0  0  0  0
205210  1  0  0  0  0
206207  1  0  0  0  0
207208  1  0  0  0  0
208209  1  0  0  0  0
210211  1  0  0  0  0
212214  1  0  0  0  0
212227  2  0  0  0  0
219212  1  0  0  0  0
218213  1  0  0  0  0
213214  2  0  0  0  0
213220  1  0  0  0  0
214215  1  0  0  0  0
215216  2  0  0  0  0
216226  1  0  0  0  0
216217  1  0  0  0  0
217218  2  0  0  0  0
219220  1  0  0  0  0
219224  2  0  0  0  0
220221  2  0  0  0  0
221222  1  0  0  0  0
222223  2  0  0  0  0
223224  1  0  0  0  0
223225  1  0  0  0  0
227228  1  0  0  0  0
233228  1  0  0  0  0
228229  2  0  0  0  0
229230  1  0  0  0  0
230231  2  0  0  0  0
231232  1  0  0  0  0
231234  1  0  0  0  0
232233  2  0  0  0  0
165166  1  0  0  0  0
165167  1  0  0  0  0
165183  1  0  0  0  0
166168  1  0  0  0  0
168169  1  0  0  0  0
168171  1  0  0  0  0
169170  1  0  0  0  0
170175  1  0  0  0  0
171172  1  0  0  0  0
172173  1  0  0  0  0
173174  1  0  0  0  0
175176  1  0  0  0  0
177179  1  0  0  0  0
177192  2  0  0  0  0
184177  1  0  0  0  0
183178  1  0  0  0  0
178179  2  0  0  0  0
178185  1  0  0  0  0
179180  1  0  0  0  0
180181  2  0  0  0  0
181191  1  0  0  0  0
181182  1  0  0  0  0
182183  2  0  0  0  0
184185  1  0  0  0  0
184189  2  0  0  0  0
185186  2  0  0  0  0
186187  1  0  0  0  0
187188  2  0  0  0  0
188189  1  0  0  0  0
188190  1  0  0  0  0
192193  1  0  0  0  0
198193  1  0  0  0  0
193194  2  0  0  0  0
194195  1  0  0  0  0
195196  2  0  0  0  0
196197  1  0  0  0  0
196199  1  0  0  0  0
197198  2  0  0  0  0
130131  1  0  0  0  0
130132  1  0  0  0  0
130148  1  0  0  0  0
131133  1  0  0  0  0
133134  1  0  0  0  0
133136  1  0  0  0  0
134135  1  0  0  0  0
135140  1  0  0  0  0
136137  1  0  0  0  0
137138  1  0  0  0  0
138139  1  0  0  0  0
140141  1  0  0  0  0
142144  1  0  0  0  0
142157  2  0  0  0  0
149142  1  0  0  0  0
148143  1  0  0  0  0
143144  2  0  0  0  0
143150  1  0  0  0  0
144145  1  0  0  0  0
145146  2  0  0  0  0
146156  1  0  0  0  0
146147  1  0  0  0  0
147148  2  0  0  0  0
149150  1  0  0  0  0
149154  2  0  0  0  0
150151  2  0  0  0  0
151152  1  0  0  0  0
152153  2  0  0  0  0
153154  1  0  0  0  0
153155  1  0  0  0  0
157158  1  0  0  0  0
163158  1  0  0  0  0
158159  2  0  0  0  0
159160  1  0  0  0  0
160161  2  0  0  0  0
161162  1  0  0  0  0
161164  1  0  0  0  0
162163  2  0  0  0  0
 95 96  1  0  0  0  0
 95 97  1  0  0  0  0
 95113  1  0  0  0  0
 96 98  1  0  0  0  0
 98 99  1  0  0  0  0
 98101  1  0  0  0  0
 99100  1  0  0  0  0
100105  1  0  0  0  0
101102  1  0  0  0  0
102103  1  0  0  0  0
103104  1  0  0  0  0
105106  1  0  0  0  0
107109  1  0  0  0  0
107122  2  0  0  0  0
114107  1  0  0  0  0
113108  1  0  0  0  0
108109  2  0  0  0  0
108115  1  0  0  0  0
109110  1  0  0  0  0
110111  2  0  0  0  0
111121  1  0  0  0  0
111112  1  0  0  0  0
112113  2  0  0  0  0
114115  1  0  0  0  0
114119  2  0  0  0  0
115116  2  0  0  0  0
116117  1  0  0  0  0
117118  2  0  0  0  0
118119  1  0  0  0  0
118120  1  0  0  0  0
122123  1  0  0  0  0
128123  1  0  0  0  0
123124  2  0  0  0  0
124125  1  0  0  0  0
125126  2  0  0  0  0
126127  1  0  0  0  0
126129  1  0  0  0  0
127128  2  0  0  0  0
 60 61  1  0  0  0  0
 60 62  1  0  0  0  0
 60 78  1  0  0  0  0
 61 63  1  0  0  0  0
 63 64  1  0  0  0  0
 63 66  1  0  0  0  0
 64 65  1  0  0  0  0
 65 70  1  0  0  0  0
 66 67  1  0  0  0  0
 67 68  1  0  0  0  0
 68 69  1  0  0  0  0
 70 71  1  0  0  0  0
 72 74  1  0  0  0  0
 72 87  2  0  0  0  0
 79 72  1  0  0  0  0
 78 73  1  0  0  0  0
 73 74  2  0  0  0  0
 73 80  1  0  0  0  0
 74 75  1  0  0  0  0
 75 76  2  0  0  0  0
 76 86  1  0  0  0  0
 76 77  1  0  0  0  0
 77 78  2  0  0  0  0
 79 80  1  0  0  0  0
 79 84  2  0  0  0  0
 80 81  2  0  0  0  0
 81 82  1  0  0  0  0
 82 83  2  0  0  0  0
 83 84  1  0  0  0  0
 83 85  1  0  0  0  0
 87 88  1  0  0  0  0
 93 88  1  0  0  0  0
 88 89  2  0  0  0  0
 89 90  1  0  0  0  0
 90 91  2  0  0  0  0
 91 92  1  0  0  0  0
 91 94  1  0  0  0  0
 92 93  2  0  0  0  0
M  STY  1   1 SRU
M  SAL   1 15   1   2   3   4   5   6   7   8   9  10  11  12  13  14  15
M  SAL   1 15  16  17  18  19  20  21  22  23  24  25  26  27  28  29  30
M  SAL   1  5  31  32  33  34  35
M  SDI   1  4   -7.9843   -3.1224   -7.9843    3.5239
M  SDI   1  4    1.0846    3.5239    1.0846   -3.1224
M  SMT   1 6
M  END
> <DATABASE_ID>
DB13085

> <DATABASE_NAME>
drugbank

> <SMILES>
[H][C@@]12CC[C@@H](C)[C@]3([H])CC[C@]4(C)OO[C@@]13[C@]([H])(O[C@H](OC)[C@@H]2C)O4.CCCCN(CCCC)CC(O)C1=CC(Cl)=CC2=C1C1=CC=C(Cl)C=C1\C2=C\C1=CC=C(Cl)C=C1.CCCCN(CCCC)CC(O)C1=CC(Cl)=CC2=C1C1=CC=C(Cl)C=C1\C2=C\C1=CC=C(Cl)C=C1.CCCCN(CCCC)CC(O)C1=CC(Cl)=CC2=C1C1=CC=C(Cl)C=C1\C2=C\C1=CC=C(Cl)C=C1.CCCCN(CCCC)CC(O)C1=CC(Cl)=CC2=C1C1=CC=C(Cl)C=C1\C2=C\C1=CC=C(Cl)C=C1.CCCCN(CCCC)CC(O)C1=CC(Cl)=CC2=C1C1=CC=C(Cl)C=C1\C2=C\C1=CC=C(Cl)C=C1.CCCCN(CCCC)CC(O)C1=CC(Cl)=CC2=C1C1=CC=C(Cl)C=C1\C2=C\C1=CC=C(Cl)C=C1

> <INCHI_IDENTIFIER>
InChI=1S/6C30H32Cl3NO.C16H26O5/c6*1-3-5-13-34(14-6-4-2)19-29(35)28-18-23(33)17-27-25(15-20-7-9-21(31)10-8-20)26-16-22(32)11-12-24(26)30(27)28;1-9-5-6-12-10(2)13(17-4)18-14-16(12)11(9)7-8-15(3,19-14)20-21-16/h6*7-12,15-18,29,35H,3-6,13-14,19H2,1-2H3;9-14H,5-8H2,1-4H3/b6*25-15-;/t;;;;;;9-,10-,11+,12+,13+,14-,15-,16-/m......1/s1

> <INCHI_KEY>
VZQXHIJHMCHBNW-UFIXNTOBSA-N

> <FORMULA>
C346H378Cl33N11O16

> <MOLECULAR_WEIGHT>
6116.74

> <EXACT_MASS>
6096.8824492

> <JCHEM_ATOM_COUNT>
784

> <JCHEM_FORMAL_CHARGE>
0

> <JCHEM_GHOSE_FILTER>
0

> <ALOGPS_LOGP>
8.34

> <ALOGPS_LOGS>
-7.23

> <JCHEM_RULE_OF_FIVE>
0

> <ALOGPS_SOLUBILITY>
3.09e-05 g/l

> <DRUGBANK_ID>
DB13085

> <DRUG_GROUPS>
approved; investigational

> <GENERIC_NAME>
Lumefantrine co-artemether

> <SYNONYMS>
Artemether/lumefantrine; Lumefantrine co-artemether

> <INTERNATIONAL_BRANDS>
Coartem; Riamet

$$$$
