
  Mrv1909 11231916132D          

 16 16  0  0  0  0            999 V2000
    0.7145   -0.8250    0.0000 O   0  0  0  0  0  0  0  0  0  0  0  0
   -1.4289    0.4125    0.0000 O   0  0  0  0  0  0  0  0  0  0  0  0
   -1.4289   -1.2375    0.0000 O   0  0  0  0  0  0  0  0  0  0  0  0
    1.4289    0.4125    0.0000 O   0  0  0  0  0  0  0  0  0  0  0  0
    0.7145   -2.4750    0.0000 O   0  0  0  0  0  0  0  0  0  0  0  0
    1.4289    1.2375    0.0000 O   0  0  0  0  0  0  0  0  0  0  0  0
    0.0000    1.2375    0.0000 N   0  0  0  0  0  0  0  0  0  0  0  0
   -0.7144    0.0000    0.0000 C   0  0  1  0  0  0  0  0  0  0  0  0
    0.0000    0.4125    0.0000 C   0  0  2  0  0  0  0  0  0  0  0  0
   -0.7144   -0.8250    0.0000 C   0  0  1  0  0  0  0  0  0  0  0  0
    0.0000   -1.2375    0.0000 C   0  0  1  0  0  0  0  0  0  0  0  0
    0.7145    0.0000    0.0000 C   0  0  1  0  0  0  0  0  0  0  0  0
    0.0000   -2.0625    0.0000 C   0  0  0  0  0  0  0  0  0  0  0  0
    0.7145    1.6500    0.0000 C   0  0  0  0  0  0  0  0  0  0  0  0
    0.7145    2.4750    0.0000 C   0  0  0  0  0  0  0  0  0  0  0  0
   -0.4429    1.4932    0.0000 H   0  0  0  0  0  0  0  0  0  0  0  0
  1 11  1  0  0  0  0
  1 12  1  0  0  0  0
  8  2  1  1  0  0  0
 10  3  1  1  0  0  0
 12  4  1  6  0  0  0
  5 13  1  0  0  0  0
  6 14  2  0  0  0  0
  9  7  1  1  0  0  0
  7 14  1  0  0  0  0
  7 16  1  0  0  0  0
  8  9  1  0  0  0  0
  8 10  1  0  0  0  0
  9 12  1  0  0  0  0
 10 11  1  0  0  0  0
 11 13  1  6  0  0  0
 14 15  1  0  0  0  0
M  END
> <DATABASE_ID>
DB03109

> <DATABASE_NAME>
drugbank

> <SMILES>
[H]N([C@H]1[C@H](O)O[C@H](CO)[C@@H](O)[C@H]1O)C(C)=O

> <INCHI_IDENTIFIER>
InChI=1S/C8H15NO6/c1-3(11)9-5-7(13)6(12)4(2-10)15-8(5)14/h4-8,10,12-14H,2H2,1H3,(H,9,11)/t4-,5-,6-,7+,8-/m1/s1

> <INCHI_KEY>
OVRNDRQMDRJTHS-UIAUGNHASA-N

> <FORMULA>
C8H15NO6

> <MOLECULAR_WEIGHT>
221.2078

> <EXACT_MASS>
221.089937217

> <JCHEM_ACCEPTOR_COUNT>
6

> <JCHEM_ATOM_COUNT>
30

> <JCHEM_AVERAGE_POLARIZABILITY>
20.33699724327782

> <JCHEM_BIOAVAILABILITY>
1

> <JCHEM_DONOR_COUNT>
5

> <JCHEM_FORMAL_CHARGE>
0

> <JCHEM_GHOSE_FILTER>
0

> <JCHEM_IUPAC>
N-[(2R,3R,4S,5S,6R)-2,4,5-trihydroxy-6-(hydroxymethyl)oxan-3-yl]acetamide

> <ALOGPS_LOGP>
-2.60

> <JCHEM_LOGP>
-3.220574411666667

> <ALOGPS_LOGS>
0.06

> <JCHEM_MDDR_LIKE_RULE>
0

> <JCHEM_NUMBER_OF_RINGS>
1

> <JCHEM_PHYSIOLOGICAL_CHARGE>
0

> <JCHEM_PKA>
12.811681816700895

> <JCHEM_PKA_STRONGEST_ACIDIC>
11.604129514800414

> <JCHEM_PKA_STRONGEST_BASIC>
-1.5720778168170406

> <JCHEM_POLAR_SURFACE_AREA>
119.25

> <JCHEM_REFRACTIVITY>
47.0247

> <JCHEM_ROTATABLE_BOND_COUNT>
2

> <JCHEM_RULE_OF_FIVE>
1

> <ALOGPS_SOLUBILITY>
2.54e+02 g/l

> <JCHEM_TRADITIONAL_IUPAC>
N-(3-{[4-(benzyloxy)-3,5-dimethoxyphenyl]formamido}-2-hydroxy-4-phenylbutyl)-3-(1,3-dioxoisoindol-2-yl)-N-{2-[(5S)-hexahydro-2H-1,3-benzodioxol-5-yl]ethyl}propanamide

> <JCHEM_VEBER_RULE>
0

> <DRUGBANK_ID>
DB03109

> <SECONDARY_ACCESSION_NUMBERS>
EXPT02281

> <DRUG_GROUPS>
experimental

> <GENERIC_NAME>
2-acetylamino-2-deoxy-b-D-allopyranose

> <SYNONYMS>
N-acetyl-D-allosamine

$$$$
