
  Mrv1652306131722002D          

 38 42  0  0  1  0            999 V2000
    7.8592    2.0625    0.0000 C   0  0  0  0  0  0  0  0  0  0  0  0
    7.1447    2.4750    0.0000 C   0  0  1  0  0  0  0  0  0  0  0  0
    7.1447    3.3000    0.0000 C   0  0  1  0  0  0  0  0  0  0  0  0
    6.4302    3.7125    0.0000 C   0  0  2  0  0  0  0  0  0  0  0  0
    5.7158    3.3000    0.0000 C   0  0  2  0  0  0  0  0  0  0  0  0
    5.7158    2.4750    0.0000 C   0  0  1  0  0  0  0  0  0  0  0  0
    6.4302    2.0625    0.0000 O   0  0  0  0  0  0  0  0  0  0  0  0
    5.0013    2.0625    0.0000 O   0  0  0  0  0  0  0  0  0  0  0  0
    5.0013    1.2375    0.0000 C   0  0  1  0  0  0  0  0  0  0  0  0
    5.7158    0.8250    0.0000 C   0  0  0  0  0  0  0  0  0  0  0  0
    5.7158    0.0000    0.0000 C   0  0  1  0  0  0  0  0  0  0  0  0
    5.0013   -0.4125    0.0000 C   0  0  0  0  0  0  0  0  0  0  0  0
    4.2868    0.0000    0.0000 C   0  0  0  0  0  0  0  0  0  0  0  0
    4.2868    0.8250    0.0000 C   0  0  0  0  0  0  0  0  0  0  0  0
    3.5724    1.2375    0.0000 C   0  0  0  0  0  0  0  0  0  0  0  0
    2.8579    0.8250    0.0000 C   0  0  0  0  0  0  0  0  0  0  0  0
    2.8579    0.0000    0.0000 C   0  0  0  0  0  0  0  0  0  0  0  0
    3.5724   -0.4125    0.0000 C   0  0  0  0  0  0  0  0  0  0  0  0
    3.5724   -1.2375    0.0000 O   0  0  0  0  0  0  0  0  0  0  0  0
    2.1434   -0.4125    0.0000 C   0  0  0  0  0  0  0  0  0  0  0  0
    2.1434   -1.2375    0.0000 O   0  0  0  0  0  0  0  0  0  0  0  0
    1.4289   -0.0000    0.0000 C   0  0  0  0  0  0  0  0  0  0  0  0
    0.7145   -0.4125    0.0000 C   0  0  0  0  0  0  0  0  0  0  0  0
   -0.0000    0.0000    0.0000 C   0  0  0  0  0  0  0  0  0  0  0  0
    0.0000    0.8250    0.0000 C   0  0  0  0  0  0  0  0  0  0  0  0
    0.7145    1.2375    0.0000 C   0  0  0  0  0  0  0  0  0  0  0  0
    1.4289    0.8250    0.0000 C   0  0  0  0  0  0  0  0  0  0  0  0
    2.1434    1.2375    0.0000 C   0  0  0  0  0  0  0  0  0  0  0  0
    2.1434    2.0625    0.0000 O   0  0  0  0  0  0  0  0  0  0  0  0
    3.5724    2.0625    0.0000 O   0  0  0  0  0  0  0  0  0  0  0  0
    6.5403   -0.0288    0.0000 C   0  0  0  0  0  0  0  0  0  0  0  0
    6.9276   -0.7572    0.0000 O   0  0  0  0  0  0  0  0  0  0  0  0
    6.9774    0.6708    0.0000 C   0  0  0  0  0  0  0  0  0  0  0  0
    6.5901    1.3993    0.0000 O   0  0  0  0  0  0  0  0  0  0  0  0
    6.1530   -0.6996    0.0000 O   0  0  0  0  0  0  0  0  0  0  0  0
    5.0013    3.7125    0.0000 I   0  0  0  0  0  0  0  0  0  0  0  0
    6.4302    4.5375    0.0000 O   0  0  0  0  0  0  0  0  0  0  0  0
    7.8592    3.7125    0.0000 O   0  0  0  0  0  0  0  0  0  0  0  0
  2  1  1  6  0  0  0
  2  3  1  0  0  0  0
  3  4  1  0  0  0  0
  4  5  1  0  0  0  0
  5  6  1  0  0  0  0
  6  7  1  0  0  0  0
  2  7  1  0  0  0  0
  6  8  1  1  0  0  0
  9  8  1  1  0  0  0
  9 10  1  0  0  0  0
 10 11  1  0  0  0  0
 11 12  1  0  0  0  0
 12 13  1  0  0  0  0
 13 14  2  0  0  0  0
  9 14  1  0  0  0  0
 14 15  1  0  0  0  0
 15 16  2  0  0  0  0
 16 17  1  0  0  0  0
 17 18  2  0  0  0  0
 13 18  1  0  0  0  0
 18 19  1  0  0  0  0
 17 20  1  0  0  0  0
 20 21  2  0  0  0  0
 20 22  1  0  0  0  0
 22 23  2  0  0  0  0
 23 24  1  0  0  0  0
 24 25  2  0  0  0  0
 25 26  1  0  0  0  0
 26 27  2  0  0  0  0
 22 27  1  0  0  0  0
 27 28  1  0  0  0  0
 16 28  1  0  0  0  0
 28 29  2  0  0  0  0
 15 30  1  0  0  0  0
 11 31  1  6  0  0  0
 31 32  2  0  0  0  0
 31 33  1  0  0  0  0
 33 34  1  0  0  0  0
 11 35  1  1  0  0  0
  5 36  1  6  0  0  0
  4 37  1  6  0  0  0
  3 38  1  1  0  0  0
M  END
> <DATABASE_ID>
DB06420

> <DATABASE_NAME>
drugbank

> <SMILES>
C[C@@H]1O[C@@H](O[C@H]2C[C@@](O)(CC3=C2C(O)=C2C(=O)C4=CC=CC=C4C(=O)C2=C3O)C(=O)CO)[C@H](I)[C@H](O)[C@H]1O

> <INCHI_IDENTIFIER>
InChI=1S/C26H25IO11/c1-9-19(30)24(35)18(27)25(37-9)38-13-7-26(36,14(29)8-28)6-12-15(13)23(34)17-16(22(12)33)20(31)10-4-2-3-5-11(10)21(17)32/h2-5,9,13,18-19,24-25,28,30,33-36H,6-8H2,1H3/t9-,13-,18+,19-,24-,25-,26-/m0/s1

> <INCHI_KEY>
CIDNKDMVSINJCG-GKXONYSUSA-N

> <FORMULA>
C26H25IO11

> <MOLECULAR_WEIGHT>
640.379

> <EXACT_MASS>
640.04416

> <JCHEM_ACCEPTOR_COUNT>
11

> <JCHEM_ATOM_COUNT>
63

> <JCHEM_AVERAGE_POLARIZABILITY>
55.55456976681561

> <JCHEM_BIOAVAILABILITY>
0

> <JCHEM_DONOR_COUNT>
6

> <JCHEM_FORMAL_CHARGE>
0

> <JCHEM_GHOSE_FILTER>
0

> <JCHEM_IUPAC>
(7S,9S)-7-{[(2R,3R,4R,5R,6S)-4,5-dihydroxy-3-iodo-6-methyloxan-2-yl]oxy}-6,9,11-trihydroxy-9-(2-hydroxyacetyl)-5,7,8,9,10,12-hexahydrotetracene-5,12-dione

> <ALOGPS_LOGP>
2.16

> <JCHEM_LOGP>
2.647542398999999

> <ALOGPS_LOGS>
-3.08

> <JCHEM_MDDR_LIKE_RULE>
0

> <JCHEM_NUMBER_OF_RINGS>
5

> <JCHEM_PHYSIOLOGICAL_CHARGE>
0

> <JCHEM_PKA>
9.845566468064563

> <JCHEM_PKA_STRONGEST_ACIDIC>
8.049667963826677

> <JCHEM_PKA_STRONGEST_BASIC>
-3.3298697473633148

> <JCHEM_POLAR_SURFACE_AREA>
191.04999999999995

> <JCHEM_REFRACTIVITY>
139.2415

> <JCHEM_ROTATABLE_BOND_COUNT>
4

> <JCHEM_RULE_OF_FIVE>
0

> <ALOGPS_SOLUBILITY>
5.27e-01 g/l

> <JCHEM_TRADITIONAL_IUPAC>
annamycin

> <JCHEM_VEBER_RULE>
0

> <DRUGBANK_ID>
DB06420

> <DRUG_GROUPS>
investigational

> <GENERIC_NAME>
Annamycin

> <SYNONYMS>
2'-Iodo-3'-hydroxy-4'-epi-4-demethoxydoxorubicin

$$$$
