
  Mrv1909 10112215462D          

 26 30  0  0  0  0            999 V2000
    6.8754    2.7688    0.0000 C   0  0  0  0  0  0  0  0  0  0  0  0
    6.6716    1.9694    0.0000 O   0  0  0  0  0  0  0  0  0  0  0  0
    5.8774    1.7462    0.0000 C   0  0  0  0  0  0  0  0  0  0  0  0
    5.6736    0.9467    0.0000 C   0  0  0  0  0  0  0  0  0  0  0  0
    4.8794    0.7235    0.0000 C   0  0  0  0  0  0  0  0  0  0  0  0
    4.2890    1.2997    0.0000 C   0  0  0  0  0  0  0  0  0  0  0  0
    4.4927    2.0991    0.0000 C   0  0  0  0  0  0  0  0  0  0  0  0
    3.9023    2.6753    0.0000 C   0  0  0  0  0  0  0  0  0  0  0  0
    3.1081    2.4521    0.0000 N   0  3  0  0  0  0  0  0  0  0  0  0
    2.5176    3.0283    0.0000 C   0  0  0  0  0  0  0  0  0  0  0  0
    2.9043    1.6527    0.0000 C   0  0  0  0  0  0  0  0  0  0  0  0
    3.4947    1.0765    0.0000 C   0  0  0  0  0  0  0  0  0  0  0  0
    3.2910    0.2770    0.0000 C   0  0  0  0  0  0  0  0  0  0  0  0
    2.4967    0.0538    0.0000 C   0  0  0  0  0  0  0  0  0  0  0  0
    1.9063    0.6300    0.0000 C   0  0  0  0  0  0  0  0  0  0  0  0
    1.1121    0.4068    0.0000 C   0  0  0  0  0  0  0  0  0  0  0  0
    0.5216    0.9830    0.0000 C   0  0  0  0  0  0  0  0  0  0  0  0
    0.7254    1.7824    0.0000 C   0  0  0  0  0  0  0  0  0  0  0  0
    0.0281    2.2233    0.0000 O   0  0  0  0  0  0  0  0  0  0  0  0
   -0.6067    1.6963    0.0000 C   0  0  0  0  0  0  0  0  0  0  0  0
   -0.3017    0.9298    0.0000 O   0  0  0  0  0  0  0  0  0  0  0  0
    1.5196    2.0056    0.0000 C   0  0  0  0  0  0  0  0  0  0  0  0
    2.1101    1.4294    0.0000 C   0  0  0  0  0  0  0  0  0  0  0  0
    5.2870    2.3224    0.0000 C   0  0  0  0  0  0  0  0  0  0  0  0
    5.4908    3.1218    0.0000 O   0  0  0  0  0  0  0  0  0  0  0  0
    6.2850    3.3450    0.0000 C   0  0  0  0  0  0  0  0  0  0  0  0
  1  2  1  0  0  0  0
  2  3  1  0  0  0  0
  3  4  2  0  0  0  0
  4  5  1  0  0  0  0
  5  6  2  0  0  0  0
  6  7  1  0  0  0  0
  7  8  1  0  0  0  0
  8  9  2  0  0  0  0
  9 10  1  0  0  0  0
  9 11  1  0  0  0  0
 11 12  2  0  0  0  0
  6 12  1  0  0  0  0
 12 13  1  0  0  0  0
 13 14  2  0  0  0  0
 14 15  1  0  0  0  0
 15 16  2  0  0  0  0
 16 17  1  0  0  0  0
 17 18  2  0  0  0  0
 18 19  1  0  0  0  0
 19 20  1  0  0  0  0
 20 21  1  0  0  0  0
 17 21  1  0  0  0  0
 18 22  1  0  0  0  0
 22 23  2  0  0  0  0
 11 23  1  0  0  0  0
 15 23  1  0  0  0  0
  7 24  2  0  0  0  0
  3 24  1  0  0  0  0
 24 25  1  0  0  0  0
 25 26  1  0  0  0  0
M  CHG  1   9   1
M  END
> <DATABASE_ID>
DB17024

> <DATABASE_NAME>
drugbank

> <SMILES>
COC1=CC=C2C(C=[N+](C)C3=C2C=CC2=CC4=C(OCO4)C=C32)=C1OC

> <INCHI_IDENTIFIER>
InChI=1S/C21H18NO4/c1-22-10-16-13(6-7-17(23-2)21(16)24-3)14-5-4-12-8-18-19(26-11-25-18)9-15(12)20(14)22/h4-10H,11H2,1-3H3/q+1

> <INCHI_KEY>
LLEJIEBFSOEYIV-UHFFFAOYSA-N

> <FORMULA>
C21H18NO4

> <MOLECULAR_WEIGHT>
348.377

> <EXACT_MASS>
348.123034484

> <JCHEM_ACCEPTOR_COUNT>
4

> <JCHEM_ATOM_COUNT>
44

> <JCHEM_AVERAGE_NEUTRAL_MICROSPECIES_CHARGE>
1.0000000000027978

> <JCHEM_AVERAGE_POLARIZABILITY>
38.12489912155257

> <JCHEM_BIOAVAILABILITY>
1

> <JCHEM_DONOR_COUNT>
0

> <JCHEM_FORMAL_CHARGE>
1

> <JCHEM_GHOSE_FILTER>
0

> <JCHEM_IUPAC>
17,18-dimethoxy-21-methyl-5,7-dioxa-21-azapentacyclo[11.8.0.0^{2,10}.0^{4,8}.0^{14,19}]henicosa-1(13),2,4(8),9,11,14,16,18,20-nonaen-21-ium

> <ALOGPS_LOGP>
-0.13

> <JCHEM_LOGP>
-0.882072640805079

> <ALOGPS_LOGS>
-6.97

> <JCHEM_MDDR_LIKE_RULE>
0

> <JCHEM_NEUTRAL_CHARGE>
1

> <JCHEM_NUMBER_OF_RINGS>
5

> <JCHEM_PHYSIOLOGICAL_CHARGE>
1

> <JCHEM_PKA_STRONGEST_BASIC>
-4.387090973095842

> <JCHEM_POLAR_SURFACE_AREA>
40.8

> <JCHEM_REFRACTIVITY>
97.9779

> <JCHEM_ROTATABLE_BOND_COUNT>
2

> <JCHEM_RULE_OF_FIVE>
1

> <ALOGPS_SOLUBILITY>
4.08e-05 g/l

> <JCHEM_TRADITIONAL_IUPAC>
6-cyclopropaneamido-N-[hydroxy(2H2)methyl]-4-{[2-methoxy-3-(1-methyl-1,2,4-triazol-3-yl)phenyl]amino}pyridazine-3-carboxamide

> <JCHEM_VEBER_RULE>
0

> <DRUGBANK_ID>
DB17024

> <DRUG_GROUPS>
investigational

> <GENERIC_NAME>
Chelerythrine

> <SYNONYMS>
(1,3)benzodioxolo(5,6-c)phenanthridinium, 1,2-dimethoxy-12-methyl-; 1,2-dimethoxy-12-methyl(1,3)dioxolo)4',5':4,5)benzo(1,2-c)phenanthridinium; Broussonpapyrine; Cheleritrine; Toddalin; Toddaline

> <SALTS>
Chelerythrine chloride

$$$$
