
  Mrv1909 12152018052D          

 34 38  0  0  0  0            999 V2000
    6.8462    0.2102    0.0000 O   0  0  0  0  0  0  0  0  0  0  0  0
    6.7030   -0.6022    0.0000 C   0  0  0  0  0  0  0  0  0  0  0  0
    7.3349   -1.1325    0.0000 O   0  0  0  0  0  0  0  0  0  0  0  0
    5.9277   -0.8844    0.0000 C   0  0  0  0  0  0  0  0  0  0  0  0
    5.7845   -1.6969    0.0000 C   0  0  0  0  0  0  0  0  0  0  0  0
    5.0092   -1.9790    0.0000 C   0  0  0  0  0  0  0  0  0  0  0  0
    4.3772   -1.4487    0.0000 C   0  0  0  0  0  0  0  0  0  0  0  0
    4.5205   -0.6363    0.0000 C   0  0  0  0  0  0  0  0  0  0  0  0
    5.2957   -0.3541    0.0000 C   0  0  0  0  0  0  0  0  0  0  0  0
    3.6020   -1.7309    0.0000 C   0  0  0  0  0  0  0  0  0  0  0  0
    2.9700   -2.2612    0.0000 C   0  0  0  0  0  0  0  0  0  0  0  0
    3.7452   -2.5434    0.0000 C   0  0  0  0  0  0  0  0  0  0  0  0
    3.1895   -1.0164    0.0000 N   0  0  0  0  0  0  0  0  0  0  0  0
    2.3645   -1.0164    0.0000 C   0  0  0  0  0  0  0  0  0  0  0  0
    1.9520   -1.7309    0.0000 O   0  0  0  0  0  0  0  0  0  0  0  0
    1.9520   -0.3020    0.0000 C   0  0  0  0  0  0  0  0  0  0  0  0
    1.1270   -0.3020    0.0000 C   0  0  0  0  0  0  0  0  0  0  0  0
    0.7145    0.4125    0.0000 C   0  0  0  0  0  0  0  0  0  0  0  0
    0.0000    0.0000    0.0000 C   0  0  0  0  0  0  0  0  0  0  0  0
    0.0000    0.8250    0.0000 C   0  0  0  0  0  0  0  0  0  0  0  0
    1.1270    1.1270    0.0000 C   0  0  0  0  0  0  0  0  0  0  0  0
    1.9520    1.1270    0.0000 C   0  0  0  0  0  0  0  0  0  0  0  0
    2.3645    0.4125    0.0000 N   0  0  0  0  0  0  0  0  0  0  0  0
    3.1895    0.4125    0.0000 C   0  0  0  0  0  0  0  0  0  0  0  0
    3.6020    1.1270    0.0000 C   0  0  0  0  0  0  0  0  0  0  0  0
    3.1895    1.8414    0.0000 C   0  0  0  0  0  0  0  0  0  0  0  0
    3.6020    2.5559    0.0000 C   0  0  0  0  0  0  0  0  0  0  0  0
    4.4270    2.5559    0.0000 C   0  0  0  0  0  0  0  0  0  0  0  0
    4.8395    1.8414    0.0000 C   0  0  0  0  0  0  0  0  0  0  0  0
    4.4270    1.1270    0.0000 C   0  0  0  0  0  0  0  0  0  0  0  0
    4.8395    3.2704    0.0000 C   0  0  0  0  0  0  0  0  0  0  0  0
    5.2520    3.9849    0.0000 F   0  0  0  0  0  0  0  0  0  0  0  0
    5.5539    2.8579    0.0000 F   0  0  0  0  0  0  0  0  0  0  0  0
    4.1250    3.6829    0.0000 F   0  0  0  0  0  0  0  0  0  0  0  0
  1  2  1  0  0  0  0
  2  3  2  0  0  0  0
  2  4  1  0  0  0  0
  4  5  2  0  0  0  0
  5  6  1  0  0  0  0
  6  7  2  0  0  0  0
  7  8  1  0  0  0  0
  8  9  2  0  0  0  0
  4  9  1  0  0  0  0
  7 10  1  0  0  0  0
 10 11  1  0  0  0  0
 11 12  1  0  0  0  0
 10 12  1  0  0  0  0
 10 13  1  0  0  0  0
 13 14  1  0  0  0  0
 14 15  2  0  0  0  0
 14 16  1  0  0  0  0
 16 17  1  0  0  0  0
 17 18  1  0  0  0  0
 18 19  1  0  0  0  0
 19 20  1  0  0  0  0
 18 20  1  0  0  0  0
 18 21  1  0  0  0  0
 21 22  1  0  0  0  0
 22 23  1  0  0  0  0
 16 23  1  0  0  0  0
 23 24  1  0  0  0  0
 24 25  1  0  0  0  0
 25 26  2  0  0  0  0
 26 27  1  0  0  0  0
 27 28  2  0  0  0  0
 28 29  1  0  0  0  0
 29 30  2  0  0  0  0
 25 30  1  0  0  0  0
 28 31  1  0  0  0  0
 31 32  1  0  0  0  0
 31 33  1  0  0  0  0
 31 34  1  0  0  0  0
M  END
> <DATABASE_ID>
DB16111

> <DATABASE_NAME>
drugbank

> <SMILES>
OC(=O)C1=CC=C(C=C1)C1(CC1)NC(=O)C1CC2(CC2)CCN1CC1=CC=C(C=C1)C(F)(F)F

> <INCHI_IDENTIFIER>
InChI=1S/C26H27F3N2O3/c27-26(28,29)20-5-1-17(2-6-20)16-31-14-13-24(9-10-24)15-21(31)22(32)30-25(11-12-25)19-7-3-18(4-8-19)23(33)34/h1-8,21H,9-16H2,(H,30,32)(H,33,34)

> <INCHI_KEY>
CADWTPLFEZSAHM-UHFFFAOYSA-N

> <FORMULA>
C26H27F3N2O3

> <MOLECULAR_WEIGHT>
472.508

> <EXACT_MASS>
472.197377226

> <JCHEM_ACCEPTOR_COUNT>
4

> <JCHEM_ATOM_COUNT>
61

> <JCHEM_AVERAGE_NEUTRAL_MICROSPECIES_CHARGE>
-0.1460602931554532

> <JCHEM_AVERAGE_POLARIZABILITY>
46.219101373726886

> <JCHEM_BIOAVAILABILITY>
1

> <JCHEM_DONOR_COUNT>
2

> <JCHEM_FORMAL_CHARGE>
0

> <JCHEM_GHOSE_FILTER>
1

> <JCHEM_IUPAC>
4-[1-(6-{[4-(trifluoromethyl)phenyl]methyl}-6-azaspiro[2.5]octane-5-amido)cyclopropyl]benzoic acid

> <ALOGPS_LOGP>
4.11

> <JCHEM_LOGP>
1.947796451752448

> <ALOGPS_LOGS>
-5.49

> <JCHEM_MDDR_LIKE_RULE>
1

> <JCHEM_NEUTRAL_CHARGE>
0

> <JCHEM_NUMBER_OF_RINGS>
5

> <JCHEM_PHYSIOLOGICAL_CHARGE>
0

> <JCHEM_PKA>
12.7225779602141

> <JCHEM_PKA_STRONGEST_ACIDIC>
3.9900250933270804

> <JCHEM_PKA_STRONGEST_BASIC>
7.7635981384704

> <JCHEM_POLAR_SURFACE_AREA>
69.64

> <JCHEM_REFRACTIVITY>
121.45630000000001

> <JCHEM_ROTATABLE_BOND_COUNT>
7

> <JCHEM_RULE_OF_FIVE>
1

> <ALOGPS_SOLUBILITY>
1.52e-03 g/l

> <JCHEM_TRADITIONAL_IUPAC>
5-({4-[2-(3-methoxyphenyl)-2-oxoethoxy]phenyl}methyl)-1,3-thiazolidine-2,4-dione

> <JCHEM_VEBER_RULE>
0

> <DRUGBANK_ID>
DB16111

> <DRUG_GROUPS>
investigational

> <GENERIC_NAME>
CR6086

$$$$
