
  Mrv1652310211600142D          

 20 22  0  0  0  0            999 V2000
   -0.7145   -2.8875    0.0000 C   0  0  0  0  0  0  0  0  0  0  0  0
   -0.0000   -2.4750    0.0000 C   0  0  0  0  0  0  0  0  0  0  0  0
   -0.0000   -1.6500    0.0000 N   0  0  0  0  0  0  0  0  0  0  0  0
    0.7145   -1.2375    0.0000 C   0  0  0  0  0  0  0  0  0  0  0  0
    0.7145   -0.4125    0.0000 C   0  0  0  0  0  0  0  0  0  0  0  0
    0.0000   -0.0000    0.0000 C   0  0  0  0  0  0  0  0  0  0  0  0
   -0.7145   -0.4125    0.0000 C   0  0  0  0  0  0  0  0  0  0  0  0
   -0.7145   -1.2375    0.0000 C   0  0  0  0  0  0  0  0  0  0  0  0
   -1.4289   -1.6500    0.0000 O   0  0  0  0  0  0  0  0  0  0  0  0
   -1.4289    0.0000    0.0000 C   0  0  0  0  0  0  0  0  0  0  0  0
   -2.1826   -0.3356    0.0000 C   0  0  0  0  0  0  0  0  0  0  0  0
   -2.7346    0.2775    0.0000 C   0  0  0  0  0  0  0  0  0  0  0  0
   -2.3221    0.9920    0.0000 N   0  0  0  0  0  0  0  0  0  0  0  0
   -1.5152    0.8205    0.0000 N   0  0  0  0  0  0  0  0  0  0  0  0
    1.4289   -0.0000    0.0000 C   0  0  0  0  0  0  0  0  0  0  0  0
    2.1434   -0.4125    0.0000 N   0  0  0  0  0  0  0  0  0  0  0  0
    2.1434   -1.2375    0.0000 C   0  0  0  0  0  0  0  0  0  0  0  0
    1.4289   -1.6500    0.0000 N   0  0  0  0  0  0  0  0  0  0  0  0
    2.8579   -1.6500    0.0000 N   0  0  0  0  0  0  0  0  0  0  0  0
    1.4289    0.8250    0.0000 C   0  0  0  0  0  0  0  0  0  0  0  0
  1  2  1  0  0  0  0
  2  3  1  0  0  0  0
  3  4  1  0  0  0  0
  4  5  1  0  0  0  0
  5  6  1  0  0  0  0
  6  7  2  0  0  0  0
  7  8  1  0  0  0  0
  3  8  1  0  0  0  0
  8  9  2  0  0  0  0
  7 10  1  0  0  0  0
 10 11  2  0  0  0  0
 11 12  1  0  0  0  0
 12 13  2  0  0  0  0
 13 14  1  0  0  0  0
 10 14  1  0  0  0  0
  5 15  2  0  0  0  0
 15 16  1  0  0  0  0
 16 17  2  0  0  0  0
 17 18  1  0  0  0  0
  4 18  2  0  0  0  0
 17 19  1  0  0  0  0
 15 20  1  0  0  0  0
M  END
> <DATABASE_ID>
DB12400

> <DATABASE_NAME>
drugbank

> <SMILES>
CCN1C(=O)C(=CC2=C(C)N=C(N)N=C12)C1=CC=NN1

> <INCHI_IDENTIFIER>
InChI=1S/C13H14N6O/c1-3-19-11-8(7(2)16-13(14)17-11)6-9(12(19)20)10-4-5-15-18-10/h4-6H,3H2,1-2H3,(H,15,18)(H2,14,16,17)

> <INCHI_KEY>
RGHYDLZMTYDBDT-UHFFFAOYSA-N

> <FORMULA>
C13H14N6O

> <MOLECULAR_WEIGHT>
270.296

> <EXACT_MASS>
270.122909095

> <JCHEM_ACCEPTOR_COUNT>
5

> <JCHEM_ATOM_COUNT>
34

> <JCHEM_AVERAGE_POLARIZABILITY>
28.03837276716057

> <JCHEM_BIOAVAILABILITY>
1

> <JCHEM_DONOR_COUNT>
2

> <JCHEM_FORMAL_CHARGE>
0

> <JCHEM_GHOSE_FILTER>
1

> <JCHEM_IUPAC>
2-amino-8-ethyl-4-methyl-6-(1H-pyrazol-5-yl)-7H,8H-pyrido[2,3-d]pyrimidin-7-one

> <ALOGPS_LOGP>
1.00

> <JCHEM_LOGP>
0.36246668300000057

> <ALOGPS_LOGS>
-2.87

> <JCHEM_MDDR_LIKE_RULE>
0

> <JCHEM_NUMBER_OF_RINGS>
3

> <JCHEM_PHYSIOLOGICAL_CHARGE>
0

> <JCHEM_PKA>
16.623197474240325

> <JCHEM_PKA_STRONGEST_ACIDIC>
7.319549332728719

> <JCHEM_PKA_STRONGEST_BASIC>
3.6709596963044744

> <JCHEM_POLAR_SURFACE_AREA>
100.79

> <JCHEM_REFRACTIVITY>
77.3764

> <JCHEM_ROTATABLE_BOND_COUNT>
2

> <JCHEM_RULE_OF_FIVE>
1

> <ALOGPS_SOLUBILITY>
3.69e-01 g/l

> <JCHEM_TRADITIONAL_IUPAC>
2-amino-8-ethyl-4-methyl-6-(2H-pyrazol-3-yl)pyrido[2,3-d]pyrimidin-7-one

> <JCHEM_VEBER_RULE>
0

> <DRUGBANK_ID>
DB12400

> <DRUG_GROUPS>
investigational

> <GENERIC_NAME>
Voxtalisib

> <SYNONYMS>
Voxtalisib

$$$$
