
  Mrv1909 05201914402D          

 42 46  0  0  1  0            999 V2000
   -0.7145    1.2375    0.0000 C   0  0  0  0  0  0  0  0  0  0  0  0
   -1.4289    0.8250    0.0000 C   0  0  0  0  0  0  0  0  0  0  0  0
   -1.4289    0.0000    0.0000 O   0  0  0  0  0  0  0  0  0  0  0  0
   -0.7145   -0.4125    0.0000 C   0  0  0  0  0  0  0  0  0  0  0  0
   -0.7145   -1.2375    0.0000 C   0  0  0  0  0  0  0  0  0  0  0  0
   -1.4289   -1.6500    0.0000 N   0  0  0  0  0  0  0  0  0  0  0  0
   -2.1434   -1.2375    0.0000 C   0  0  0  0  0  0  0  0  0  0  0  0
   -2.1434   -0.4125    0.0000 O   0  0  0  0  0  0  0  0  0  0  0  0
   -2.8579   -1.6500    0.0000 C   0  0  0  0  0  0  0  0  0  0  0  0
   -2.8579   -2.4750    0.0000 C   0  0  0  0  0  0  0  0  0  0  0  0
   -3.5724   -2.8875    0.0000 C   0  0  1  0  0  0  0  0  0  0  0  0
   -3.6586   -3.7080    0.0000 C   0  0  0  0  0  0  0  0  0  0  0  0
   -4.4656   -3.8795    0.0000 C   0  0  0  0  0  0  0  0  0  0  0  0
   -4.8781   -3.1650    0.0000 C   0  0  0  0  0  0  0  0  0  0  0  0
   -4.3260   -2.5519    0.0000 N   0  0  0  0  0  0  0  0  0  0  0  0
   -4.4976   -1.7450    0.0000 C   0  0  0  0  0  0  0  0  0  0  0  0
    0.0000   -1.6500    0.0000 C   0  0  0  0  0  0  0  0  0  0  0  0
    0.7145   -1.2375    0.0000 C   0  0  0  0  0  0  0  0  0  0  0  0
    0.7145   -0.4125    0.0000 C   0  0  0  0  0  0  0  0  0  0  0  0
    0.0000   -0.0000    0.0000 C   0  0  0  0  0  0  0  0  0  0  0  0
    1.4289   -0.0000    0.0000 N   0  0  0  0  0  0  0  0  0  0  0  0
    2.1434   -0.4125    0.0000 C   0  0  0  0  0  0  0  0  0  0  0  0
    2.1434   -1.2375    0.0000 C   0  0  0  0  0  0  0  0  0  0  0  0
    2.8579   -1.6500    0.0000 C   0  0  0  0  0  0  0  0  0  0  0  0
    3.5724   -2.0625    0.0000 N   0  0  0  0  0  0  0  0  0  0  0  0
    1.4289   -1.6500    0.0000 C   0  0  0  0  0  0  0  0  0  0  0  0
    1.4289   -2.4750    0.0000 N   0  0  0  0  0  0  0  0  0  0  0  0
    0.7145   -2.8875    0.0000 C   0  0  0  0  0  0  0  0  0  0  0  0
    0.0000   -2.4750    0.0000 C   0  0  0  0  0  0  0  0  0  0  0  0
   -0.7145   -2.8875    0.0000 C   0  0  0  0  0  0  0  0  0  0  0  0
   -0.7145   -3.7125    0.0000 C   0  0  0  0  0  0  0  0  0  0  0  0
   -1.4289   -4.1250    0.0000 O   0  0  0  0  0  0  0  0  0  0  0  0
   -1.4289   -4.9500    0.0000 C   0  0  0  0  0  0  0  0  0  0  0  0
   -2.1434   -5.3625    0.0000 C   0  0  0  0  0  0  0  0  0  0  0  0
   -2.8579   -4.9500    0.0000 N   0  0  0  0  0  0  0  0  0  0  0  0
   -3.5724   -5.3625    0.0000 C   0  0  0  0  0  0  0  0  0  0  0  0
   -3.5724   -6.1875    0.0000 C   0  0  0  0  0  0  0  0  0  0  0  0
   -2.8579   -6.6000    0.0000 C   0  0  0  0  0  0  0  0  0  0  0  0
   -2.1434   -6.1875    0.0000 C   0  0  0  0  0  0  0  0  0  0  0  0
    0.0000   -4.1250    0.0000 C   0  0  0  0  0  0  0  0  0  0  0  0
   -0.0000   -4.9500    0.0000 Cl  0  0  0  0  0  0  0  0  0  0  0  0
    0.7145   -3.7125    0.0000 C   0  0  0  0  0  0  0  0  0  0  0  0
  1  2  1  0  0  0  0
  2  3  1  0  0  0  0
  3  4  1  0  0  0  0
  4  5  2  0  0  0  0
  5  6  1  0  0  0  0
  6  7  1  0  0  0  0
  7  8  2  0  0  0  0
  7  9  1  0  0  0  0
  9 10  2  0  0  0  0
 11 10  1  1  0  0  0
 11 12  1  0  0  0  0
 12 13  1  0  0  0  0
 13 14  1  0  0  0  0
 14 15  1  0  0  0  0
 11 15  1  0  0  0  0
 15 16  1  0  0  0  0
  5 17  1  0  0  0  0
 17 18  2  0  0  0  0
 18 19  1  0  0  0  0
 19 20  2  0  0  0  0
  4 20  1  0  0  0  0
 19 21  1  0  0  0  0
 21 22  2  0  0  0  0
 22 23  1  0  0  0  0
 23 24  1  0  0  0  0
 24 25  3  0  0  0  0
 23 26  2  0  0  0  0
 18 26  1  0  0  0  0
 26 27  1  0  0  0  0
 27 28  1  0  0  0  0
 28 29  2  0  0  0  0
 29 30  1  0  0  0  0
 30 31  2  0  0  0  0
 31 32  1  0  0  0  0
 32 33  1  0  0  0  0
 33 34  1  0  0  0  0
 34 35  2  0  0  0  0
 35 36  1  0  0  0  0
 36 37  2  0  0  0  0
 37 38  1  0  0  0  0
 38 39  2  0  0  0  0
 34 39  1  0  0  0  0
 31 40  1  0  0  0  0
 40 41  1  0  0  0  0
 40 42  2  0  0  0  0
 28 42  1  0  0  0  0
M  END
> <DATABASE_ID>
DB14993

> <DATABASE_NAME>
drugbank

> <SMILES>
CCOC1=C(NC(=O)\C=C\[C@H]2CCCN2C)C=C2C(=C1)N=CC(C#N)=C2NC1=CC=C(OCC2=NC=CC=C2)C(Cl)=C1

> <INCHI_IDENTIFIER>
InChI=1S/C32H31ClN6O3/c1-3-41-30-17-27-25(16-28(30)38-31(40)12-10-24-8-6-14-39(24)2)32(21(18-34)19-36-27)37-22-9-11-29(26(33)15-22)42-20-23-7-4-5-13-35-23/h4-5,7,9-13,15-17,19,24H,3,6,8,14,20H2,1-2H3,(H,36,37)(H,38,40)/b12-10+/t24-/m1/s1

> <INCHI_KEY>
SADXACCFNXBCFY-IYNHSRRRSA-N

> <FORMULA>
C32H31ClN6O3

> <MOLECULAR_WEIGHT>
583.09

> <EXACT_MASS>
582.2146166

> <JCHEM_ACCEPTOR_COUNT>
8

> <JCHEM_ATOM_COUNT>
73

> <JCHEM_AVERAGE_POLARIZABILITY>
60.79817193345701

> <JCHEM_BIOAVAILABILITY>
1

> <JCHEM_DONOR_COUNT>
2

> <JCHEM_FORMAL_CHARGE>
0

> <JCHEM_GHOSE_FILTER>
0

> <JCHEM_IUPAC>
(2E)-N-[4-({3-chloro-4-[(pyridin-2-yl)methoxy]phenyl}amino)-3-cyano-7-ethoxyquinolin-6-yl]-3-[(2R)-1-methylpyrrolidin-2-yl]prop-2-enamide

> <ALOGPS_LOGP>
5.10

> <JCHEM_LOGP>
4.934883398666667

> <ALOGPS_LOGS>
-5.00

> <JCHEM_MDDR_LIKE_RULE>
1

> <JCHEM_NUMBER_OF_RINGS>
5

> <JCHEM_PHYSIOLOGICAL_CHARGE>
1

> <JCHEM_PKA>
18.14729818027365

> <JCHEM_PKA_STRONGEST_ACIDIC>
12.550396256149929

> <JCHEM_PKA_STRONGEST_BASIC>
8.707956982496334

> <JCHEM_POLAR_SURFACE_AREA>
112.4

> <JCHEM_REFRACTIVITY>
164.49729999999994

> <JCHEM_ROTATABLE_BOND_COUNT>
10

> <JCHEM_RULE_OF_FIVE>
0

> <ALOGPS_SOLUBILITY>
5.89e-03 g/l

> <JCHEM_TRADITIONAL_IUPAC>
(2R)-14-fluoro-2-methyl-6,9,10,19-tetraazapentacyclo[14.2.1.0^{2,6}.0^{8,18}.0^{12,17}]nonadeca-1(18),8,12(17),13,15-pentaen-11-one

> <JCHEM_VEBER_RULE>
0

> <DRUGBANK_ID>
DB14993

> <DRUG_GROUPS>
investigational

> <GENERIC_NAME>
Pyrotinib

$$$$
