
  Mrv1909 07282214492D          

 27 29  0  0  1  0            999 V2000
   -0.3497    2.6943    0.0000 C   0  0  0  0  0  0  0  0  0  0  0  0
    1.7933   -1.0304    0.0000 C   0  0  0  0  0  0  0  0  0  0  0  0
    1.0796   -1.4790    0.0000 N   0  0  0  0  0  0  0  0  0  0  0  0
   -0.3497    1.0441    0.0000 C   0  0  1  0  0  0  0  0  0  0  0  0
    0.3702    1.4275    0.0000 O   0  0  0  0  0  0  0  0  0  0  0  0
    1.7933   -2.6943    0.0000 C   0  0  0  0  0  0  0  0  0  0  0  0
    2.5054   -2.2542    0.0000 N   0  0  0  0  0  0  0  0  0  0  0  0
   -0.3497    0.2851    0.0000 C   0  0  0  0  0  0  0  0  0  0  0  0
   -1.0682   -0.2467    0.0000 N   0  0  0  0  0  0  0  0  0  0  0  0
   -1.0682    2.2426    0.0000 N   0  0  0  0  0  0  0  0  0  0  0  0
    2.5054   -1.4320    0.0000 C   0  0  0  0  0  0  0  0  0  0  0  0
   -1.0682   -2.6943    0.0000 N   0  0  0  0  0  0  0  0  0  0  0  0
   -0.3497   -2.3040    0.0000 C   0  0  0  0  0  0  0  0  0  0  0  0
    0.3702   -2.6943    0.0000 N   0  0  0  0  0  0  0  0  0  0  0  0
   -1.0682    1.4833    0.0000 C   0  0  0  0  0  0  0  0  0  0  0  0
   -1.7672   -2.3040    0.0000 C   0  0  0  0  0  0  0  0  0  0  0  0
    0.3702    2.2426    0.0000 C   0  0  0  0  0  0  0  0  0  0  0  0
    3.1881   -1.0687    0.0000 C   0  0  0  0  0  0  0  0  0  0  0  0
    1.0796   -2.3040    0.0000 C   0  0  0  0  0  0  0  0  0  0  0  0
   -1.7672   -1.4790    0.0000 C   0  0  0  0  0  0  0  0  0  0  0  0
   -1.0682   -1.0687    0.0000 C   0  0  0  0  0  0  0  0  0  0  0  0
   -0.3497   -1.4790    0.0000 C   0  0  0  0  0  0  0  0  0  0  0  0
   -3.1109   -1.0687    0.0000 C   0  0  0  0  0  0  0  0  0  0  0  0
    4.1846   -0.5159    0.0000 N   0  0  0  0  0  0  0  0  0  0  0  0
   -3.9099   -1.8446    0.0000 F   0  0  0  0  0  0  0  0  0  0  0  0
   -3.3853    0.0150    0.0000 F   0  0  0  0  0  0  0  0  0  0  0  0
   -4.1846   -0.7634    0.0000 F   0  0  0  0  0  0  0  0  0  0  0  0
  1 17  1  0  0  0  0
  5 17  1  0  0  0  0
 13 14  1  0  0  0  0
  3 19  1  0  0  0  0
 11 18  1  0  0  0  0
  7 11  2  0  0  0  0
 13 22  1  0  0  0  0
  2  3  2  0  0  0  0
  6 19  2  0  0  0  0
  4  5  1  0  0  0  0
 12 16  1  0  0  0  0
 12 13  2  0  0  0  0
  1 10  1  0  0  0  0
  4  8  1  1  0  0  0
  6  7  1  0  0  0  0
 16 20  2  0  0  0  0
 14 19  1  0  0  0  0
 18 24  3  0  0  0  0
  8  9  1  0  0  0  0
 10 15  1  0  0  0  0
 20 23  1  0  0  0  0
  4 15  1  0  0  0  0
 21 22  2  0  0  0  0
 23 25  1  0  0  0  0
 20 21  1  0  0  0  0
 23 27  1  0  0  0  0
  2 11  1  0  0  0  0
 23 26  1  0  0  0  0
  9 21  1  0  0  0  0
M  END
> <DATABASE_ID>
DB16876

> <DATABASE_NAME>
drugbank

> <SMILES>
FC(F)(F)C1=CN=C(NC2=CN=C(C=N2)C#N)C=C1NC[C@H]1CNCCO1

> <INCHI_IDENTIFIER>
InChI=1S/C16H16F3N7O/c17-16(18,19)12-8-25-14(26-15-9-22-10(4-20)5-24-15)3-13(12)23-7-11-6-21-1-2-27-11/h3,5,8-9,11,21H,1-2,6-7H2,(H2,23,24,25,26)/t11-/m1/s1

> <INCHI_KEY>
YBYYWUUUGCNAHQ-LLVKDONJSA-N

> <FORMULA>
C16H16F3N7O

> <MOLECULAR_WEIGHT>
379.347

> <EXACT_MASS>
379.136842652

> <JCHEM_ACCEPTOR_COUNT>
8

> <JCHEM_ATOM_COUNT>
43

> <JCHEM_AVERAGE_NEUTRAL_MICROSPECIES_CHARGE>
1.2406750575682928

> <JCHEM_AVERAGE_POLARIZABILITY>
35.349287900804455

> <JCHEM_BIOAVAILABILITY>
1

> <JCHEM_DONOR_COUNT>
3

> <JCHEM_FORMAL_CHARGE>
0

> <JCHEM_GHOSE_FILTER>
1

> <JCHEM_IUPAC>
5-{[4-({[(2R)-morpholin-2-yl]methyl}amino)-5-(trifluoromethyl)pyridin-2-yl]amino}pyrazine-2-carbonitrile

> <ALOGPS_LOGP>
1.63

> <JCHEM_LOGP>
0.9164636623468211

> <ALOGPS_LOGS>
-3.55

> <JCHEM_MDDR_LIKE_RULE>
1

> <JCHEM_NEUTRAL_CHARGE>
1

> <JCHEM_NUMBER_OF_RINGS>
3

> <JCHEM_PHYSIOLOGICAL_CHARGE>
1

> <JCHEM_PKA_STRONGEST_ACIDIC>
10.20015919670926

> <JCHEM_PKA_STRONGEST_BASIC>
8.306901959317674

> <JCHEM_POLAR_SURFACE_AREA>
107.78

> <JCHEM_REFRACTIVITY>
91.68670000000002

> <JCHEM_ROTATABLE_BOND_COUNT>
6

> <JCHEM_RULE_OF_FIVE>
1

> <ALOGPS_SOLUBILITY>
1.07e-01 g/l

> <JCHEM_TRADITIONAL_IUPAC>
5-benzyl-N-[(3S)-5-methyl-4-oxo-2,3-dihydro-1,5-benzoxazepin-3-yl]-1H-1,2,4-triazole-3-carboxamide

> <JCHEM_VEBER_RULE>
0

> <DRUGBANK_ID>
DB16876

> <DRUG_GROUPS>
investigational

> <GENERIC_NAME>
SRA-737

$$$$
