
  Mrv1909 12112023392D          

 15 16  0  0  0  0            999 V2000
    2.0367    2.0009    0.0000 O   0  0  0  0  0  0  0  0  0  0  0  0
    2.7512    2.4134    0.0000 C   0  0  0  0  0  0  0  0  0  0  0  0
    2.7512    3.2384    0.0000 C   0  0  0  0  0  0  0  0  0  0  0  0
    3.4656    3.6509    0.0000 C   0  0  0  0  0  0  0  0  0  0  0  0
    4.1801    3.2384    0.0000 C   0  0  0  0  0  0  0  0  0  0  0  0
    4.1801    2.4134    0.0000 C   0  0  0  0  0  0  0  0  0  0  0  0
    4.8946    2.0009    0.0000 O   0  0  0  0  0  0  0  0  0  0  0  0
    3.4656    2.0009    0.0000 N   0  0  0  0  0  0  0  0  0  0  0  0
    3.4656    1.1759    0.0000 C   0  0  0  0  0  0  0  0  0  0  0  0
    4.1801    0.7634    0.0000 C   0  0  0  0  0  0  0  0  0  0  0  0
    4.1801   -0.0616    0.0000 C   0  0  0  0  0  0  0  0  0  0  0  0
    4.8476   -0.5465    0.0000 C   0  0  0  0  0  0  0  0  0  0  0  0
    4.5926   -1.3312    0.0000 N   0  0  0  0  0  0  0  0  0  0  0  0
    3.7676   -1.3312    0.0000 C   0  0  0  0  0  0  0  0  0  0  0  0
    3.5127   -0.5465    0.0000 N   0  0  0  0  0  0  0  0  0  0  0  0
  1  2  2  0  0  0  0
  2  3  1  0  0  0  0
  3  4  1  0  0  0  0
  4  5  1  0  0  0  0
  5  6  1  0  0  0  0
  6  7  2  0  0  0  0
  6  8  1  0  0  0  0
  2  8  1  0  0  0  0
  8  9  1  0  0  0  0
  9 10  1  0  0  0  0
 10 11  1  0  0  0  0
 11 12  2  0  0  0  0
 12 13  1  0  0  0  0
 13 14  2  0  0  0  0
 14 15  1  0  0  0  0
 11 15  1  0  0  0  0
M  END
> <DATABASE_ID>
DB16016

> <DATABASE_NAME>
drugbank

> <SMILES>
O=C1CCCC(=O)N1CCC1=CN=CN1

> <INCHI_IDENTIFIER>
InChI=1S/C10H13N3O2/c14-9-2-1-3-10(15)13(9)5-4-8-6-11-7-12-8/h6-7H,1-5H2,(H,11,12)

> <INCHI_KEY>
DYKZYSKWOHKZMF-UHFFFAOYSA-N

> <FORMULA>
C10H13N3O2

> <MOLECULAR_WEIGHT>
207.233

> <EXACT_MASS>
207.100776671

> <JCHEM_ACCEPTOR_COUNT>
3

> <JCHEM_ATOM_COUNT>
28

> <JCHEM_AVERAGE_NEUTRAL_MICROSPECIES_CHARGE>
0.9999998220968961

> <JCHEM_AVERAGE_POLARIZABILITY>
21.34029653190898

> <JCHEM_BIOAVAILABILITY>
1

> <JCHEM_DONOR_COUNT>
1

> <JCHEM_FORMAL_CHARGE>
0

> <JCHEM_GHOSE_FILTER>
0

> <JCHEM_IUPAC>
1-[2-(1H-imidazol-5-yl)ethyl]piperidine-2,6-dione

> <ALOGPS_LOGP>
0.12

> <JCHEM_LOGP>
-0.7392628733333334

> <ALOGPS_LOGS>
-1.39

> <JCHEM_MDDR_LIKE_RULE>
0

> <JCHEM_NEUTRAL_CHARGE>
1

> <JCHEM_NUMBER_OF_RINGS>
2

> <JCHEM_PHYSIOLOGICAL_CHARGE>
0

> <JCHEM_PKA_STRONGEST_ACIDIC>
12.938418075849235

> <JCHEM_PKA_STRONGEST_BASIC>
6.749816397328817

> <JCHEM_POLAR_SURFACE_AREA>
66.06

> <JCHEM_REFRACTIVITY>
54.08939999999999

> <JCHEM_ROTATABLE_BOND_COUNT>
3

> <JCHEM_RULE_OF_FIVE>
1

> <ALOGPS_SOLUBILITY>
8.40e+00 g/l

> <JCHEM_TRADITIONAL_IUPAC>
1-[2-(3H-imidazol-4-yl)ethyl]piperidine-2,6-dione

> <JCHEM_VEBER_RULE>
0

> <DRUGBANK_ID>
DB16016

> <DRUG_GROUPS>
investigational

> <GENERIC_NAME>
Histamine glutarimide

$$$$
