
  Mrv1652310171623502D          

 59 67  0  0  1  0            999 V2000
   -2.2352   -2.3214    0.0000 C   0  0  0  0  0  0  0  0  0  0  0  0
   -1.4646   -2.6162    0.0000 C   0  0  0  0  0  0  0  0  0  0  0  0
   -0.8240   -2.0963    0.0000 C   0  0  1  0  0  0  0  0  0  0  0  0
   -1.5946   -1.8015    0.0000 C   0  0  0  0  0  0  0  0  0  0  0  0
   -1.7245   -0.9868    0.0000 C   0  0  0  0  0  0  0  0  0  0  0  0
   -1.0839   -0.4669    0.0000 C   0  0  0  0  0  0  0  0  0  0  0  0
   -0.3134   -0.7618    0.0000 N   0  0  0  0  0  0  0  0  0  0  0  0
   -0.1834   -1.5765    0.0000 C   0  0  2  0  0  0  0  0  0  0  0  0
    0.5871   -1.8713    0.0000 C   0  0  1  0  0  0  0  0  0  0  0  0
    1.1056   -1.2296    0.0000 C   0  0  0  0  0  0  0  0  0  0  0  0
    0.6555   -0.5382    0.0000 C   0  0  0  0  0  0  0  0  0  0  0  0
    1.3218   -1.4960    0.0000 C   0  0  0  0  0  0  0  0  0  0  0  0
    1.5344   -0.6989    0.0000 C   0  0  0  0  0  0  0  0  0  0  0  0
    2.3311   -0.4845    0.0000 C   0  0  0  0  0  0  0  0  0  0  0  0
    2.9151   -1.0673    0.0000 C   0  0  0  0  0  0  0  0  0  0  0  0
    2.7024   -1.8644    0.0000 C   0  0  0  0  0  0  0  0  0  0  0  0
    1.9057   -2.0787    0.0000 C   0  0  0  0  0  0  0  0  0  0  0  0
    1.5320   -2.8142    0.0000 N   0  0  0  0  0  0  0  0  0  0  0  0
    0.7170   -2.6860    0.0000 C   0  0  1  0  0  0  0  0  0  0  0  0
    0.0764   -3.2059    0.0000 C   0  0  2  0  0  0  0  0  0  0  0  0
   -0.6941   -2.9110    0.0000 C   0  0  2  0  0  0  0  0  0  0  0  0
   -1.3347   -3.4309    0.0000 O   0  0  0  0  0  0  0  0  0  0  0  0
   -2.1052   -3.1361    0.0000 C   0  0  0  0  0  0  0  0  0  0  0  0
   -2.6892   -2.5533    0.0000 O   0  0  0  0  0  0  0  0  0  0  0  0
   -2.7458   -3.6559    0.0000 C   0  0  0  0  0  0  0  0  0  0  0  0
   -0.1914   -3.9862    0.0000 C   0  0  0  0  0  0  0  0  0  0  0  0
   -1.0011   -4.1445    0.0000 O   0  0  0  0  0  0  0  0  0  0  0  0
    0.3505   -4.6083    0.0000 O   0  0  0  0  0  0  0  0  0  0  0  0
    0.0827   -5.3886    0.0000 C   0  0  0  0  0  0  0  0  0  0  0  0
    0.5736   -3.8642    0.0000 O   0  0  0  0  0  0  0  0  0  0  0  0
    1.9073   -3.5489    0.0000 C   0  0  0  0  0  0  0  0  0  0  0  0
    3.7117   -0.8529    0.0000 O   0  0  0  0  0  0  0  0  0  0  0  0
    4.2957   -1.4356    0.0000 C   0  0  0  0  0  0  0  0  0  0  0  0
    2.2871    0.3393    0.0000 C   0  0  1  0  0  0  0  0  0  0  0  0
    1.8413    1.0698    0.0000 C   0  0  0  0  0  0  0  0  0  0  0  0
    1.9744    1.9327    0.0000 C   0  0  2  0  0  0  0  0  0  0  0  0
    1.8379    2.7882    0.0000 C   0  0  0  0  0  0  0  0  0  0  0  0
    2.4488    3.3726    0.0000 C   0  0  2  0  0  0  0  0  0  0  0  0
    3.2410    3.0777    0.0000 C   0  0  0  0  0  0  0  0  0  0  0  0
    3.4542    2.2380    0.0000 N   0  0  1  0  0  0  0  0  0  0  0  0
    2.7278    2.0200    0.0000 C   0  0  0  0  0  0  0  0  0  0  0  0
    3.9179    1.4982    0.0000 C   0  0  0  0  0  0  0  0  0  0  0  0
    3.7976    0.6509    0.0000 C   0  0  0  0  0  0  0  0  0  0  0  0
    3.1237    0.1751    0.0000 C   0  0  0  0  0  0  0  0  0  0  0  0
    3.3680   -0.6129    0.0000 N   0  0  0  0  0  0  0  0  0  0  0  0
    4.1929   -0.6241    0.0000 C   0  0  0  0  0  0  0  0  0  0  0  0
    4.4585    0.1570    0.0000 C   0  0  0  0  0  0  0  0  0  0  0  0
    5.2677    0.3176    0.0000 C   0  0  0  0  0  0  0  0  0  0  0  0
    5.8114   -0.3029    0.0000 C   0  0  0  0  0  0  0  0  0  0  0  0
    5.5458   -1.0840    0.0000 C   0  0  0  0  0  0  0  0  0  0  0  0
    4.7366   -1.2446    0.0000 C   0  0  0  0  0  0  0  0  0  0  0  0
    2.2821    4.1805    0.0000 C   0  0  0  0  0  0  0  0  0  0  0  0
    3.0901    4.3472    0.0000 C   0  0  0  0  0  0  0  0  0  0  0  0
    2.1154    4.9885    0.0000 F   0  0  0  0  0  0  0  0  0  0  0  0
    1.4741    4.0139    0.0000 F   0  0  0  0  0  0  0  0  0  0  0  0
    1.4991    0.0950    0.0000 C   0  0  0  0  0  0  0  0  0  0  0  0
    1.0770   -0.6139    0.0000 O   0  0  0  0  0  0  0  0  0  0  0  0
    0.8935    0.6552    0.0000 O   0  0  0  0  0  0  0  0  0  0  0  0
    0.1055    0.4109    0.0000 C   0  0  0  0  0  0  0  0  0  0  0  0
  1  2  1  0  0  0  0
  3  2  1  1  0  0  0
  3  4  1  0  0  0  0
  4  5  2  0  0  0  0
  5  6  1  0  0  0  0
  6  7  1  0  0  0  0
  8  7  1  6  0  0  0
  3  8  1  0  0  0  0
  8  9  1  0  0  0  0
  9 10  1  6  0  0  0
 10 11  1  0  0  0  0
  7 11  1  0  0  0  0
  9 12  1  0  0  0  0
 12 13  2  0  0  0  0
 13 14  1  0  0  0  0
 14 15  2  0  0  0  0
 15 16  1  0  0  0  0
 16 17  2  0  0  0  0
 12 17  1  0  0  0  0
 17 18  1  0  0  0  0
 19 18  1  1  0  0  0
  9 19  1  0  0  0  0
 19 20  1  0  0  0  0
 20 21  1  0  0  0  0
  3 21  1  0  0  0  0
 21 22  1  6  0  0  0
 22 23  1  0  0  0  0
 23 24  2  0  0  0  0
 23 25  1  0  0  0  0
 20 26  1  1  0  0  0
 26 27  2  0  0  0  0
 26 28  1  0  0  0  0
 28 29  1  0  0  0  0
 20 30  1  6  0  0  0
 18 31  1  0  0  0  0
 15 32  1  0  0  0  0
 32 33  1  0  0  0  0
 34 14  1  1  0  0  0
 34 35  1  0  0  0  0
 35 36  1  0  0  0  0
 36 37  1  0  0  0  0
 37 38  1  0  0  0  0
 38 39  1  0  0  0  0
 39 40  1  0  0  0  0
 40 41  1  6  0  0  0
 36 41  1  6  0  0  0
 40 42  1  0  0  0  0
 42 43  1  0  0  0  0
 43 44  2  0  0  0  0
 34 44  1  0  0  0  0
 44 45  1  0  0  0  0
 45 46  1  0  0  0  0
 46 47  1  0  0  0  0
 43 47  1  0  0  0  0
 47 48  2  0  0  0  0
 48 49  1  0  0  0  0
 49 50  2  0  0  0  0
 50 51  1  0  0  0  0
 46 51  2  0  0  0  0
 38 52  1  1  0  0  0
 52 53  1  0  0  0  0
 52 54  1  0  0  0  0
 52 55  1  0  0  0  0
 34 56  1  6  0  0  0
 56 57  2  0  0  0  0
 56 58  1  0  0  0  0
 58 59  1  0  0  0  0
M  END
> <DATABASE_ID>
DB11641

> <DATABASE_NAME>
drugbank

> <SMILES>
CC[C@@]12C=CCN3CC[C@@]4([C@H]13)[C@@H](N(C)C1=CC(OC)=C(C=C41)[C@]1(C[C@@H]3C[C@H](C[N@@](C3)CC3=C1NC1=CC=CC=C31)C(C)(F)F)C(=O)OC)[C@](O)([C@@H]2OC(C)=O)C(=O)OC

> <INCHI_IDENTIFIER>
InChI=1S/C45H54F2N4O8/c1-8-42-14-11-16-51-17-15-43(36(42)51)30-19-31(34(56-5)20-33(30)49(4)37(43)45(55,40(54)58-7)38(42)59-25(2)52)44(39(53)57-6)21-26-18-27(41(3,46)47)23-50(22-26)24-29-28-12-9-10-13-32(28)48-35(29)44/h9-14,19-20,26-27,36-38,48,55H,8,15-18,21-24H2,1-7H3/t26-,27+,36-,37+,38+,42+,43+,44-,45-/m0/s1

> <INCHI_KEY>
NMDYYWFGPIMTKO-KLCPSUAYSA-N

> <FORMULA>
C45H54F2N4O8

> <MOLECULAR_WEIGHT>
816.944

> <EXACT_MASS>
816.390971041

> <JCHEM_ACCEPTOR_COUNT>
8

> <JCHEM_ATOM_COUNT>
113

> <JCHEM_AVERAGE_POLARIZABILITY>
85.68418822573435

> <JCHEM_BIOAVAILABILITY>
1

> <JCHEM_DONOR_COUNT>
2

> <JCHEM_FORMAL_CHARGE>
0

> <JCHEM_GHOSE_FILTER>
0

> <JCHEM_IUPAC>
methyl (1R,9R,10S,11R,12R,19R)-11-(acetyloxy)-4-[(1R,12S,14S,16R)-16-(1,1-difluoroethyl)-12-(methoxycarbonyl)-1,10-diazatetracyclo[12.3.1.0^{3,11}.0^{4,9}]octadeca-3(11),4,6,8-tetraen-12-yl]-12-ethyl-10-hydroxy-5-methoxy-8-methyl-8,16-diazapentacyclo[10.6.1.0^{1,9}.0^{2,7}.0^{16,19}]nonadeca-2,4,6,13-tetraene-10-carboxylate

> <ALOGPS_LOGP>
4.50

> <JCHEM_LOGP>
4.645811736333335

> <ALOGPS_LOGS>
-5.16

> <JCHEM_MDDR_LIKE_RULE>
1

> <JCHEM_NUMBER_OF_RINGS>
9

> <JCHEM_PHYSIOLOGICAL_CHARGE>
2

> <JCHEM_PKA>
15.049793677788063

> <JCHEM_PKA_STRONGEST_ACIDIC>
10.868046138501164

> <JCHEM_PKA_STRONGEST_BASIC>
8.664317826862318

> <JCHEM_POLAR_SURFACE_AREA>
133.86999999999998

> <JCHEM_REFRACTIVITY>
216.52649999999994

> <JCHEM_ROTATABLE_BOND_COUNT>
10

> <JCHEM_RULE_OF_FIVE>
0

> <ALOGPS_SOLUBILITY>
5.64e-03 g/l

> <JCHEM_TRADITIONAL_IUPAC>
methyl (1R,9R,10S,11R,12R,19R)-11-(acetyloxy)-4-[(1R,12S,14S,16R)-16-(1,1-difluoroethyl)-12-(methoxycarbonyl)-1,10-diazatetracyclo[12.3.1.0^{3,11}.0^{4,9}]octadeca-3(11),4,6,8-tetraen-12-yl]-12-ethyl-10-hydroxy-5-methoxy-8-methyl-8,16-diazapentacyclo[10.6.1.0^{1,9}.0^{2,7}.0^{16,19}]nonadeca-2,4,6,13-tetraene-10-carboxylate

> <JCHEM_VEBER_RULE>
0

> <DRUGBANK_ID>
DB11641

> <DRUG_GROUPS>
approved; investigational

> <GENERIC_NAME>
Vinflunine

> <SYNONYMS>
20',20'-difluoro-3',4'-dihydrovinorelbine; 4'-deoxy-20',20'-difluoro-5'-norvincaleukoblastine; 4'-deoxy-20',20'-difluoro-8'-norvincaleukoblastine; Vinflunina; Vinflunine; Vinfluninum

> <PRODUCTS>
Javlor

> <SALTS>
Vinflunine ditartrate

$$$$
