
  Mrv1718007201817202D          

  5  4  0  0  0  0            999 V2000
    0.0000    0.0000    0.0000 P   0  0  0  0  0  0  0  0  0  0  0  0
    0.7145    0.4125    0.0000 O   0  5  0  0  0  0  0  0  0  0  0  0
   -0.7145   -0.4125    0.0000 O   0  5  0  0  0  0  0  0  0  0  0  0
   -0.4125    0.7145    0.0000 O   0  5  0  0  0  0  0  0  0  0  0  0
    0.4125   -0.7145    0.0000 O   0  0  0  0  0  0  0  0  0  0  0  0
  1  2  1  0  0  0  0
  1  3  1  0  0  0  0
  1  4  1  0  0  0  0
  1  5  2  0  0  0  0
M  CHG  3   2  -1   3  -1   4  -1
M  ISO  1   1  32
M  END
> <DATABASE_ID>
DB14573

> <DATABASE_NAME>
drugbank

> <SMILES>
[O-][32P]([O-])([O-])=O

> <INCHI_IDENTIFIER>
InChI=1S/H3O4P/c1-5(2,3)4/h(H3,1,2,3,4)/p-3/i5+1

> <INCHI_KEY>
NBIIXXVUZAFLBC-HOSYLAQJSA-K

> <FORMULA>
O4P

> <MOLECULAR_WEIGHT>
95.972

> <EXACT_MASS>
95.955211383

> <JCHEM_ACCEPTOR_COUNT>
4

> <JCHEM_ATOM_COUNT>
5

> <JCHEM_AVERAGE_POLARIZABILITY>
4.932162910070488

> <JCHEM_BIOAVAILABILITY>
1

> <JCHEM_DONOR_COUNT>
0

> <JCHEM_FORMAL_CHARGE>
-3

> <JCHEM_GHOSE_FILTER>
0

> <JCHEM_IUPAC>
(32P)phosphate

> <JCHEM_LOGP>
-1.0201038226666665

> <JCHEM_MDDR_LIKE_RULE>
0

> <JCHEM_NUMBER_OF_RINGS>
0

> <JCHEM_PHYSIOLOGICAL_CHARGE>
-2

> <JCHEM_PKA>
6.951626889535468

> <JCHEM_PKA_STRONGEST_ACIDIC>
1.7961261340181292

> <JCHEM_POLAR_SURFACE_AREA>
86.25

> <JCHEM_REFRACTIVITY>
11.2868

> <JCHEM_ROTATABLE_BOND_COUNT>
0

> <JCHEM_RULE_OF_FIVE>
1

> <JCHEM_TRADITIONAL_IUPAC>
(32P)phosphate

> <JCHEM_VEBER_RULE>
0

> <DRUGBANK_ID>
DB14573

> <DRUG_GROUPS>
experimental

> <GENERIC_NAME>
Phosphate ion P-32

> <SYNONYMS>
Phosphate-32; Phosphate-32P

$$$$
