
  Mrv1652306231722442D          

 47 47  0  0  1  0            999 V2000
    7.8592   -5.3625    0.0000 C   0  0  0  0  0  0  0  0  0  0  0  0
    8.5737   -4.9500    0.0000 C   0  0  0  0  0  0  0  0  0  0  0  0
    9.2881   -5.3625    0.0000 C   0  0  0  0  0  0  0  0  0  0  0  0
   10.0026   -4.9500    0.0000 C   0  0  0  0  0  0  0  0  0  0  0  0
   10.7171   -5.3625    0.0000 C   0  0  0  0  0  0  0  0  0  0  0  0
   11.4315   -4.9500    0.0000 C   0  0  2  0  0  0  0  0  0  0  0  0
   12.1460   -5.3625    0.0000 C   0  0  2  0  0  0  0  0  0  0  0  0
   12.8605   -4.9500    0.0000 C   0  0  2  0  0  0  0  0  0  0  0  0
   12.8605   -4.1250    0.0000 C   0  0  0  0  0  0  0  0  0  0  0  0
   13.5749   -3.7125    0.0000 C   0  0  2  0  0  0  0  0  0  0  0  0
   13.5749   -2.8875    0.0000 C   0  0  0  0  0  0  0  0  0  0  0  0
   14.2894   -2.4750    0.0000 C   0  0  2  0  0  0  0  0  0  0  0  0
   14.2894   -1.6500    0.0000 C   0  0  0  0  0  0  0  0  0  0  0  0
   15.0039   -1.2375    0.0000 C   0  0  2  0  0  0  0  0  0  0  0  0
   15.0039   -0.4125    0.0000 C   0  0  0  0  0  0  0  0  0  0  0  0
   15.7184   -0.0000    0.0000 C   0  0  2  0  0  0  0  0  0  0  0  0
   16.4328   -0.4125    0.0000 C   0  0  0  0  0  0  0  0  0  0  0  0
   17.1473   -0.0000    0.0000 C   0  0  2  0  0  0  0  0  0  0  0  0
   17.8618   -0.4125    0.0000 C   0  0  2  0  0  0  0  0  0  0  0  0
   17.8618   -1.2375    0.0000 C   0  0  1  0  0  0  0  0  0  0  0  0
   17.1473   -1.6500    0.0000 C   0  0  0  0  0  0  0  0  0  0  0  0
   17.1473   -2.4750    0.0000 C   0  0  0  0  0  0  0  0  0  0  0  0
   16.4328   -2.8875    0.0000 C   0  0  0  0  0  0  0  0  0  0  0  0
   16.4328   -3.7125    0.0000 C   0  0  0  0  0  0  0  0  0  0  0  0
   15.7184   -4.1250    0.0000 C   0  0  0  0  0  0  0  0  0  0  0  0
   15.7184   -4.9500    0.0000 C   0  0  0  0  0  0  0  0  0  0  0  0
   15.0039   -5.3625    0.0000 C   0  0  0  0  0  0  0  0  0  0  0  0
   15.0039   -6.1875    0.0000 C   0  0  0  0  0  0  0  0  0  0  0  0
   14.2894   -6.6000    0.0000 C   0  0  0  0  0  0  0  0  0  0  0  0
   14.2894   -7.4250    0.0000 C   0  0  0  0  0  0  0  0  0  0  0  0
   13.5749   -7.8375    0.0000 C   0  0  1  0  0  0  0  0  0  0  0  0
   12.8605   -7.4250    0.0000 C   0  0  2  0  0  0  0  0  0  0  0  0
   12.8605   -6.6000    0.0000 O   0  0  0  0  0  0  0  0  0  0  0  0
   12.1460   -6.1875    0.0000 C   0  0  0  0  0  0  0  0  0  0  0  0
   11.4315   -6.6000    0.0000 O   0  0  0  0  0  0  0  0  0  0  0  0
   12.1460   -7.8375    0.0000 C   0  0  0  0  0  0  0  0  0  0  0  0
   13.5749   -8.6625    0.0000 O   0  0  0  0  0  0  0  0  0  0  0  0
   16.4328   -1.2375    0.0000 C   0  0  0  0  0  0  0  0  0  0  0  0
   18.5762   -1.6500    0.0000 O   0  0  0  0  0  0  0  0  0  0  0  0
   18.5762   -0.0000    0.0000 O   0  0  0  0  0  0  0  0  0  0  0  0
   17.1473    0.8250    0.0000 O   0  0  0  0  0  0  0  0  0  0  0  0
   15.7184    0.8250    0.0000 O   0  0  0  0  0  0  0  0  0  0  0  0
   15.7184   -1.6500    0.0000 O   0  0  0  0  0  0  0  0  0  0  0  0
   15.0039   -2.8875    0.0000 O   0  0  0  0  0  0  0  0  0  0  0  0
   14.2894   -4.1250    0.0000 O   0  0  0  0  0  0  0  0  0  0  0  0
   13.5749   -5.3625    0.0000 O   0  0  0  0  0  0  0  0  0  0  0  0
   11.4315   -4.1250    0.0000 O   0  0  0  0  0  0  0  0  0  0  0  0
  1  2  1  0  0  0  0
  2  3  1  0  0  0  0
  3  4  1  0  0  0  0
  4  5  1  0  0  0  0
  5  6  1  0  0  0  0
  7  6  1  6  0  0  0
  7  8  1  0  0  0  0
  8  9  1  0  0  0  0
  9 10  1  0  0  0  0
 10 11  1  0  0  0  0
 11 12  1  0  0  0  0
 12 13  1  0  0  0  0
 13 14  1  0  0  0  0
 14 15  1  0  0  0  0
 15 16  1  0  0  0  0
 16 17  1  0  0  0  0
 17 18  1  0  0  0  0
 18 19  1  0  0  0  0
 19 20  1  0  0  0  0
 20 21  1  0  0  0  0
 21 22  2  0  0  0  0
 22 23  1  0  0  0  0
 23 24  2  0  0  0  0
 24 25  1  0  0  0  0
 25 26  2  0  0  0  0
 26 27  1  0  0  0  0
 27 28  2  0  0  0  0
 28 29  1  0  0  0  0
 29 30  2  0  0  0  0
 30 31  1  0  0  0  0
 31 32  1  0  0  0  0
 32 33  1  0  0  0  0
 33 34  1  0  0  0  0
  7 34  1  0  0  0  0
 34 35  2  0  0  0  0
 32 36  1  1  0  0  0
 31 37  1  6  0  0  0
 21 38  1  0  0  0  0
 20 39  1  6  0  0  0
 19 40  1  1  0  0  0
 18 41  1  1  0  0  0
 16 42  1  1  0  0  0
 14 43  1  6  0  0  0
 12 44  1  6  0  0  0
 10 45  1  6  0  0  0
  8 46  1  6  0  0  0
  6 47  1  1  0  0  0
M  END
> <DATABASE_ID>
DB13571

> <DATABASE_NAME>
drugbank

> <SMILES>
CCCCC[C@@H](O)[C@@H]1[C@@H](O)C[C@@H](O)C[C@@H](O)C[C@@H](O)C[C@@H](O)C[C@@H](O)[C@@H](O)[C@H](O)\C(C)=C\C=C\C=C\C=C\C=C\[C@H](O)[C@@H](C)OC1=O

> <INCHI_IDENTIFIER>
InChI=1S/C35H58O12/c1-4-5-11-16-29(41)32-30(42)20-26(38)18-24(36)17-25(37)19-27(39)21-31(43)34(45)33(44)22(2)14-12-9-7-6-8-10-13-15-28(40)23(3)47-35(32)46/h6-10,12-15,23-34,36-45H,4-5,11,16-21H2,1-3H3/b7-6+,10-8+,12-9+,15-13+,22-14+/t23-,24+,25-,26+,27-,28+,29-,30+,31-,32-,33-,34-/m1/s1

> <INCHI_KEY>
AGJUUQSLGVCRQA-SWOUQTJZSA-N

> <FORMULA>
C35H58O12

> <MOLECULAR_WEIGHT>
670.837

> <EXACT_MASS>
670.392827308

> <JCHEM_ACCEPTOR_COUNT>
11

> <JCHEM_ATOM_COUNT>
105

> <JCHEM_AVERAGE_POLARIZABILITY>
74.30020763866222

> <JCHEM_BIOAVAILABILITY>
0

> <JCHEM_DONOR_COUNT>
10

> <JCHEM_FORMAL_CHARGE>
0

> <JCHEM_GHOSE_FILTER>
0

> <JCHEM_IUPAC>
(3R,4S,6S,8S,10R,12R,14R,15R,16R,17E,19E,21E,23E,25E,27S,28R)-4,6,8,10,12,14,15,16,27-nonahydroxy-3-[(1R)-1-hydroxyhexyl]-17,28-dimethyl-1-oxacyclooctacosa-17,19,21,23,25-pentaen-2-one

> <ALOGPS_LOGP>
0.07

> <JCHEM_LOGP>
-0.6812924829999973

> <ALOGPS_LOGS>
-3.51

> <JCHEM_MDDR_LIKE_RULE>
0

> <JCHEM_NUMBER_OF_RINGS>
1

> <JCHEM_PHYSIOLOGICAL_CHARGE>
0

> <JCHEM_PKA>
13.612657766518982

> <JCHEM_PKA_STRONGEST_ACIDIC>
12.88715692916012

> <JCHEM_PKA_STRONGEST_BASIC>
-2.758294189003185

> <JCHEM_POLAR_SURFACE_AREA>
228.59999999999997

> <JCHEM_REFRACTIVITY>
182.93140000000014

> <JCHEM_ROTATABLE_BOND_COUNT>
5

> <JCHEM_RULE_OF_FIVE>
0

> <ALOGPS_SOLUBILITY>
2.09e-01 g/l

> <JCHEM_TRADITIONAL_IUPAC>
pentamycin

> <JCHEM_VEBER_RULE>
0

> <DRUGBANK_ID>
DB13571

> <DRUG_GROUPS>
experimental

> <GENERIC_NAME>
Pentamycin

> <SYNONYMS>
Pentamycin

$$$$
