
  Mrv1909 05201914282D          

  1  0  0  0  0  0            999 V2000
    0.0000    0.0000    0.0000 I   0  0  0  0  0  0  0  0  0  0  0  0
M  RAD  1   1   2
M  ISO  1   1 125
M  END
> <DATABASE_ID>
DB14804

> <DATABASE_NAME>
drugbank

> <SMILES>
[125I]

> <INCHI_IDENTIFIER>
InChI=1S/I/i1-2

> <INCHI_KEY>
ZCYVEMRRCGMTRW-YPZZEJLDSA-N

> <FORMULA>
I

> <MOLECULAR_WEIGHT>
124.9046

> <EXACT_MASS>
124.90462415

> <JCHEM_ACCEPTOR_COUNT>
0

> <JCHEM_ATOM_COUNT>
1

> <JCHEM_AVERAGE_POLARIZABILITY>
5.07487188

> <JCHEM_BIOAVAILABILITY>
1

> <JCHEM_DONOR_COUNT>
0

> <JCHEM_FORMAL_CHARGE>
0

> <JCHEM_GHOSE_FILTER>
0

> <JCHEM_IUPAC>
(125I)iodanyl

> <JCHEM_LOGP>
1.2409752596666666

> <JCHEM_MDDR_LIKE_RULE>
0

> <JCHEM_NUMBER_OF_RINGS>
0

> <JCHEM_PHYSIOLOGICAL_CHARGE>
0

> <JCHEM_POLAR_SURFACE_AREA>
0.0

> <JCHEM_REFRACTIVITY>
13.9462

> <JCHEM_ROTATABLE_BOND_COUNT>
0

> <JCHEM_RULE_OF_FIVE>
1

> <JCHEM_TRADITIONAL_IUPAC>
(2R)-14-fluoro-2-methyl-6,9,10,19-tetraazapentacyclo[14.2.1.0^{2,6}.0^{8,18}.0^{12,17}]nonadeca-1(18),8,12(17),13,15-pentaen-11-one

> <JCHEM_VEBER_RULE>
1

> <DRUGBANK_ID>
DB14804

> <DRUG_GROUPS>
investigational

> <GENERIC_NAME>
Iodine I-125

> <SYNONYMS>
125-IODINE

$$$$
