
  Mrv1909 12031923032D          

 54 55  0  0  0  0            999 V2000
    3.2148   -0.2716    0.0000 O   0  0  0  0  0  0  0  0  0  0  0  0
    3.2148   -1.0955    0.0000 C   0  0  0  0  0  0  0  0  0  0  0  0
    3.9298   -1.5073    0.0000 N   0  0  0  0  0  0  0  0  0  0  0  0
    4.6400   -1.0955    0.0000 C   0  0  0  0  0  0  0  0  0  0  0  0
    4.6400   -0.2716    0.0000 C   0  0  0  0  0  0  0  0  0  0  0  0
    5.3548    0.1401    0.0000 C   0  0  0  0  0  0  0  0  0  0  0  0
    5.3548    0.9640    0.0000 C   0  0  0  0  0  0  0  0  0  0  0  0
    4.6400    1.3805    0.0000 N   0  0  0  0  0  0  0  0  0  0  0  0
    4.6400    2.2043    0.0000 N   0  0  0  0  0  0  0  0  0  0  0  0
    3.9296    2.6161    0.0000 C   0  0  0  0  0  0  0  0  0  0  0  0
    3.2148    2.2043    0.0000 N   0  0  0  0  0  0  0  0  0  0  0  0
    3.9296    3.4399    0.0000 N   0  0  0  0  0  0  0  0  0  0  0  0
    6.0698    1.3805    0.0000 C   0  0  0  0  0  0  0  0  0  0  0  0
    6.0698   -0.2716    0.0000 C   0  0  0  0  0  0  0  0  0  0  0  0
    6.0698   -1.0955    0.0000 C   0  0  0  0  0  0  0  0  0  0  0  0
    6.7847   -1.5072    0.0000 C   0  0  0  0  0  0  0  0  0  0  0  0
    6.7847   -2.3311    0.0000 N   0  0  0  0  0  0  0  0  0  0  0  0
    7.4996   -2.7431    0.0000 N   0  0  0  0  0  0  0  0  0  0  0  0
    7.4996   -3.5715    0.0000 C   0  0  0  0  0  0  0  0  0  0  0  0
    6.7847   -3.9834    0.0000 N   0  0  0  0  0  0  0  0  0  0  0  0
    8.2099   -3.9834    0.0000 N   0  0  0  0  0  0  0  0  0  0  0  0
    7.4996   -1.0955    0.0000 C   0  0  0  0  0  0  0  0  0  0  0  0
    5.3548   -1.5073    0.0000 C   0  0  0  0  0  0  0  0  0  0  0  0
    2.4999   -1.5073    0.0000 C   0  0  0  0  0  0  0  0  0  0  0  0
    1.7849   -1.0955    0.0000 C   0  0  0  0  0  0  0  0  0  0  0  0
    1.0701   -1.5073    0.0000 C   0  0  0  0  0  0  0  0  0  0  0  0
    0.3598   -1.0955    0.0000 C   0  0  0  0  0  0  0  0  0  0  0  0
   -0.3551   -1.5073    0.0000 C   0  0  0  0  0  0  0  0  0  0  0  0
   -1.0698   -1.0955    0.0000 C   0  0  0  0  0  0  0  0  0  0  0  0
   -1.7849   -1.5073    0.0000 C   0  0  0  0  0  0  0  0  0  0  0  0
   -2.4999   -1.0955    0.0000 C   0  0  0  0  0  0  0  0  0  0  0  0
   -3.2146   -1.5073    0.0000 C   0  0  0  0  0  0  0  0  0  0  0  0
   -3.2146   -2.3312    0.0000 O   0  0  0  0  0  0  0  0  0  0  0  0
   -3.9250   -1.0955    0.0000 N   0  0  0  0  0  0  0  0  0  0  0  0
   -4.6399   -1.5073    0.0000 C   0  0  0  0  0  0  0  0  0  0  0  0
   -4.6399   -2.3312    0.0000 C   0  0  0  0  0  0  0  0  0  0  0  0
   -5.3547   -2.7431    0.0000 C   0  0  0  0  0  0  0  0  0  0  0  0
   -5.3547   -3.5715    0.0000 C   0  0  0  0  0  0  0  0  0  0  0  0
   -4.6399   -3.9834    0.0000 N   0  0  0  0  0  0  0  0  0  0  0  0
   -4.6399   -4.8073    0.0000 N   0  0  0  0  0  0  0  0  0  0  0  0
   -3.9250   -5.2191    0.0000 C   0  0  0  0  0  0  0  0  0  0  0  0
   -3.2146   -4.8073    0.0000 N   0  0  0  0  0  0  0  0  0  0  0  0
   -3.9250   -6.0429    0.0000 N   0  0  0  0  0  0  0  0  0  0  0  0
   -6.0696   -3.9834    0.0000 C   0  0  0  0  0  0  0  0  0  0  0  0
   -6.0696   -2.3312    0.0000 C   0  0  0  0  0  0  0  0  0  0  0  0
   -6.0696   -1.5073    0.0000 C   0  0  0  0  0  0  0  0  0  0  0  0
   -6.7846   -1.0955    0.0000 C   0  0  0  0  0  0  0  0  0  0  0  0
   -6.7846   -0.2716    0.0000 N   0  0  0  0  0  0  0  0  0  0  0  0
   -7.4996    0.1401    0.0000 N   0  0  0  0  0  0  0  0  0  0  0  0
   -7.4996    0.9640    0.0000 C   0  0  0  0  0  0  0  0  0  0  0  0
   -6.7846    1.3805    0.0000 N   0  0  0  0  0  0  0  0  0  0  0  0
   -8.2099    1.3805    0.0000 N   0  0  0  0  0  0  0  0  0  0  0  0
   -7.4996   -1.5073    0.0000 C   0  0  0  0  0  0  0  0  0  0  0  0
   -5.3547   -1.0955    0.0000 C   0  0  0  0  0  0  0  0  0  0  0  0
  2  1  2  0  0  0  0
  2  3  1  0  0  0  0
  4  3  1  0  0  0  0
  5  4  1  0  0  0  0
  5  6  2  0  0  0  0
  7  6  1  0  0  0  0
  7  8  2  0  0  0  0
  8  9  1  0  0  0  0
 10  9  1  0  0  0  0
 10 11  1  0  0  0  0
 10 12  2  0  0  0  0
 13  7  1  0  0  0  0
 14  6  1  0  0  0  0
 14 15  2  0  0  0  0
 16 15  1  0  0  0  0
 16 17  2  0  0  0  0
 17 18  1  0  0  0  0
 19 18  1  0  0  0  0
 19 20  1  0  0  0  0
 19 21  2  0  0  0  0
 22 16  1  0  0  0  0
 23 15  1  0  0  0  0
 23  4  2  0  0  0  0
 24  2  1  0  0  0  0
 25 24  1  0  0  0  0
 26 25  1  0  0  0  0
 27 26  1  0  0  0  0
 28 27  1  0  0  0  0
 28 29  1  0  0  0  0
 29 30  1  0  0  0  0
 30 31  1  0  0  0  0
 31 32  1  0  0  0  0
 32 33  2  0  0  0  0
 32 34  1  0  0  0  0
 35 34  1  0  0  0  0
 36 35  1  0  0  0  0
 36 37  2  0  0  0  0
 38 37  1  0  0  0  0
 38 39  2  0  0  0  0
 39 40  1  0  0  0  0
 41 40  1  0  0  0  0
 41 42  1  0  0  0  0
 41 43  2  0  0  0  0
 44 38  1  0  0  0  0
 45 37  1  0  0  0  0
 45 46  2  0  0  0  0
 47 46  1  0  0  0  0
 47 48  2  0  0  0  0
 48 49  1  0  0  0  0
 50 49  1  0  0  0  0
 50 51  1  0  0  0  0
 50 52  2  0  0  0  0
 53 47  1  0  0  0  0
 54 46  1  0  0  0  0
 54 35  2  0  0  0  0
M  END
> <DATABASE_ID>
DB12094

> <DATABASE_NAME>
drugbank

> <SMILES>
C\C(=N/NC(N)=N)C1=CC(=CC(NC(=O)CCCCCCCCC(=O)NC2=CC(=CC(=C2)C(\C)=N\NC(N)=N)C(\C)=N\NC(N)=N)=C1)C(\C)=N\NC(N)=N

> <INCHI_IDENTIFIER>
InChI=1S/C34H52N18O2/c1-19(45-49-31(35)36)23-13-24(20(2)46-50-32(37)38)16-27(15-23)43-29(53)11-9-7-5-6-8-10-12-30(54)44-28-17-25(21(3)47-51-33(39)40)14-26(18-28)22(4)48-52-34(41)42/h13-18H,5-12H2,1-4H3,(H,43,53)(H,44,54)(H4,35,36,49)(H4,37,38,50)(H4,39,40,51)(H4,41,42,52)/b45-19+,46-20+,47-21+,48-22+

> <INCHI_KEY>
PWDYHMBTPGXCSN-VCBMUGGBSA-N

> <FORMULA>
C34H52N18O2

> <MOLECULAR_WEIGHT>
744.914

> <EXACT_MASS>
744.452062986

> <JCHEM_ACCEPTOR_COUNT>
18

> <JCHEM_ATOM_COUNT>
106

> <JCHEM_AVERAGE_POLARIZABILITY>
84.10824543726696

> <JCHEM_BIOAVAILABILITY>
0

> <JCHEM_DONOR_COUNT>
14

> <JCHEM_FORMAL_CHARGE>
0

> <JCHEM_GHOSE_FILTER>
0

> <JCHEM_IUPAC>
N,N'-bis({3,5-bis[(1E)-1-(carbamimidamidoimino)ethyl]phenyl})decanediamide

> <ALOGPS_LOGP>
1.47

> <JCHEM_LOGP>
0.4941020566666662

> <ALOGPS_LOGS>
-4.30

> <JCHEM_MDDR_LIKE_RULE>
0

> <JCHEM_NUMBER_OF_RINGS>
2

> <JCHEM_PHYSIOLOGICAL_CHARGE>
3

> <JCHEM_PKA_STRONGEST_BASIC>
7.875528977568709

> <JCHEM_POLAR_SURFACE_AREA>
355.24

> <JCHEM_REFRACTIVITY>
296.5436

> <JCHEM_ROTATABLE_BOND_COUNT>
19

> <JCHEM_RULE_OF_FIVE>
0

> <ALOGPS_SOLUBILITY>
3.77e-02 g/l

> <JCHEM_TRADITIONAL_IUPAC>
(2S)-2-amino-4-[(2-ethanimidamidoethyl)sulfanyl]butanoic acid

> <JCHEM_VEBER_RULE>
0

> <DRUGBANK_ID>
DB12094

> <DRUG_GROUPS>
investigational

> <GENERIC_NAME>
Semapimod

> <SYNONYMS>
Semapimod

> <SALTS>
Semapimod mesylate; Semapimod tetrahydrochloride

$$$$
