
  Mrv1909 12152018132D          

 38 41  0  0  1  0            999 V2000
   -1.9412   -4.4022    0.0000 H   0  0  0  0  0  0  0  0  0  0  0  0
   -1.6862   -3.6175    0.0000 C   0  0  2  0  0  0  0  0  0  0  0  0
   -1.2737   -2.9031    0.0000 C   0  0  0  0  0  0  0  0  0  0  0  0
   -0.4667   -3.0746    0.0000 C   0  0  0  0  0  0  0  0  0  0  0  0
   -0.3805   -3.8951    0.0000 C   0  0  2  0  0  0  0  0  0  0  0  0
    0.3340   -4.3076    0.0000 O   0  0  0  0  0  0  0  0  0  0  0  0
    1.0484   -3.8951    0.0000 C   0  0  0  0  0  0  0  0  0  0  0  0
    1.0484   -3.0701    0.0000 O   0  0  0  0  0  0  0  0  0  0  0  0
    1.7629   -4.3076    0.0000 C   0  0  0  0  0  0  0  0  0  0  0  0
    2.4774   -3.8951    0.0000 C   0  0  0  0  0  0  0  0  0  0  0  0
    3.1918   -4.3076    0.0000 C   0  0  0  0  0  0  0  0  0  0  0  0
    3.9063   -3.8951    0.0000 C   0  0  0  0  0  0  0  0  0  0  0  0
    4.6208   -4.3076    0.0000 C   0  0  0  0  0  0  0  0  0  0  0  0
    5.3353   -3.8951    0.0000 C   0  0  0  0  0  0  0  0  0  0  0  0
    6.0497   -4.3076    0.0000 C   0  0  0  0  0  0  0  0  0  0  0  0
    6.7642   -3.8951    0.0000 C   0  0  0  0  0  0  0  0  0  0  0  0
    7.4787   -4.3076    0.0000 C   0  0  0  0  0  0  0  0  0  0  0  0
    8.1931   -3.8951    0.0000 C   0  0  0  0  0  0  0  0  0  0  0  0
   -1.1342   -4.2306    0.0000 C   0  0  2  0  0  0  0  0  0  0  0  0
   -0.5211   -4.7827    0.0000 C   0  0  0  0  0  0  0  0  0  0  0  0
   -1.3891   -5.0152    0.0000 C   0  0  0  0  0  0  0  0  0  0  0  0
   -2.1961   -5.1868    0.0000 C   0  0  2  0  0  0  0  0  0  0  0  0
   -2.4510   -5.9714    0.0000 C   0  0  0  0  0  0  0  0  0  0  0  0
   -2.7481   -4.5737    0.0000 C   0  0  2  0  0  0  0  0  0  0  0  0
   -3.3002   -3.9606    0.0000 H   0  0  0  0  0  0  0  0  0  0  0  0
   -3.5551   -4.7452    0.0000 C   0  0  1  0  0  0  0  0  0  0  0  0
   -3.0031   -5.3583    0.0000 H   0  0  0  0  0  0  0  0  0  0  0  0
   -3.8100   -5.5298    0.0000 C   0  0  0  0  0  0  0  0  0  0  0  0
   -4.6170   -5.7014    0.0000 C   0  0  0  0  0  0  0  0  0  0  0  0
   -5.1690   -5.0883    0.0000 C   0  0  0  0  0  0  0  0  0  0  0  0
   -5.9760   -5.2598    0.0000 O   0  0  0  0  0  0  0  0  0  0  0  0
   -4.9141   -4.3036    0.0000 C   0  0  0  0  0  0  0  0  0  0  0  0
   -4.1071   -4.1321    0.0000 C   0  0  0  0  0  0  0  0  0  0  0  0
   -3.8522   -3.3475    0.0000 C   0  0  0  0  0  0  0  0  0  0  0  0
   -3.0452   -3.1760    0.0000 C   0  0  1  0  0  0  0  0  0  0  0  0
   -2.7903   -2.3913    0.0000 C   0  0  0  0  0  0  0  0  0  0  0  0
   -2.4932   -3.7891    0.0000 C   0  0  1  0  0  0  0  0  0  0  0  0
   -2.2382   -3.0044    0.0000 H   0  0  0  0  0  0  0  0  0  0  0  0
  2  1  1  1  0  0  0
  2  3  1  0  0  0  0
  3  4  1  0  0  0  0
  5  4  1  0  0  0  0
  5  6  1  6  0  0  0
  6  7  1  0  0  0  0
  7  8  2  0  0  0  0
  7  9  1  0  0  0  0
  9 10  1  0  0  0  0
 10 11  1  0  0  0  0
 11 12  1  0  0  0  0
 12 13  1  0  0  0  0
 13 14  1  0  0  0  0
 14 15  1  0  0  0  0
 15 16  1  0  0  0  0
 16 17  1  0  0  0  0
 17 18  1  0  0  0  0
 19  5  1  0  0  0  0
  2 19  1  0  0  0  0
 19 20  1  6  0  0  0
 19 21  1  0  0  0  0
 22 21  1  0  0  0  0
 22 23  1  6  0  0  0
 24 22  1  0  0  0  0
 24 25  1  1  0  0  0
 24 26  1  0  0  0  0
 26 27  1  6  0  0  0
 26 28  1  0  0  0  0
 28 29  1  0  0  0  0
 29 30  1  0  0  0  0
 30 31  2  0  0  0  0
 30 32  1  0  0  0  0
 32 33  2  0  0  0  0
 26 33  1  0  0  0  0
 33 34  1  0  0  0  0
 35 34  1  0  0  0  0
 35 36  1  1  0  0  0
 37 35  1  0  0  0  0
 37  2  1  0  0  0  0
 24 37  1  0  0  0  0
 37 38  1  6  0  0  0
M  END
> <DATABASE_ID>
DB16141

> <DATABASE_NAME>
drugbank

> <SMILES>
[H][C@@]12CC[C@H](OC(=O)CCCCCCCCCC)[C@@]1(C)C[C@H](C)[C@]1([H])[C@@]3([H])CCC(=O)C=C3C[C@@H](C)[C@@]21[H]

> <INCHI_IDENTIFIER>
InChI=1S/C31H50O3/c1-5-6-7-8-9-10-11-12-13-28(33)34-27-17-16-26-30-21(2)18-23-19-24(32)14-15-25(23)29(30)22(3)20-31(26,27)4/h19,21-22,25-27,29-30H,5-18,20H2,1-4H3/t21-,22+,25+,26+,27+,29-,30+,31+/m1/s1

> <INCHI_KEY>
FVICENFBEMJOCE-RTFNQGFNSA-N

> <FORMULA>
C31H50O3

> <MOLECULAR_WEIGHT>
470.738

> <EXACT_MASS>
470.37599547

> <JCHEM_ACCEPTOR_COUNT>
2

> <JCHEM_ATOM_COUNT>
84

> <JCHEM_AVERAGE_NEUTRAL_MICROSPECIES_CHARGE>
-3.2471872436071896e-12

> <JCHEM_AVERAGE_POLARIZABILITY>
59.021626112604345

> <JCHEM_BIOAVAILABILITY>
0

> <JCHEM_DONOR_COUNT>
0

> <JCHEM_FORMAL_CHARGE>
0

> <JCHEM_GHOSE_FILTER>
0

> <JCHEM_IUPAC>
(1S,3aS,3bR,4R,9aR,9bS,10S,11aS)-4,10,11a-trimethyl-7-oxo-1H,2H,3H,3aH,3bH,4H,5H,7H,8H,9H,9aH,9bH,10H,11H,11aH-cyclopenta[a]phenanthren-1-yl undecanoate

> <ALOGPS_LOGP>
6.25

> <JCHEM_LOGP>
8.337624947666669

> <ALOGPS_LOGS>
-7.03

> <JCHEM_MDDR_LIKE_RULE>
1

> <JCHEM_NEUTRAL_CHARGE>
0

> <JCHEM_NUMBER_OF_RINGS>
4

> <JCHEM_PHYSIOLOGICAL_CHARGE>
0

> <JCHEM_PKA_STRONGEST_ACIDIC>
18.299398087324104

> <JCHEM_PKA_STRONGEST_BASIC>
-4.748833562869727

> <JCHEM_POLAR_SURFACE_AREA>
43.370000000000005

> <JCHEM_REFRACTIVITY>
139.6383

> <JCHEM_ROTATABLE_BOND_COUNT>
11

> <JCHEM_RULE_OF_FIVE>
0

> <ALOGPS_SOLUBILITY>
4.39e-05 g/l

> <JCHEM_TRADITIONAL_IUPAC>
5-({4-[2-(3-methoxyphenyl)-2-oxoethoxy]phenyl}methyl)-1,3-thiazolidine-2,4-dione

> <JCHEM_VEBER_RULE>
0

> <DRUGBANK_ID>
DB16141

> <DRUG_GROUPS>
investigational

> <GENERIC_NAME>
Dimethandrolone Undecanoate

$$$$
