
  Mrv1652310201623382D          

 32 35  0  0  1  0            999 V2000
    0.7145    1.2375    0.0000 C   0  0  0  0  0  0  0  0  0  0  0  0
    0.0000    0.8250    0.0000 C   0  0  1  0  0  0  0  0  0  0  0  0
    0.0000   -0.0000    0.0000 C   0  0  0  0  0  0  0  0  0  0  0  0
   -0.7145   -0.4125    0.0000 C   0  0  0  0  0  0  0  0  0  0  0  0
   -0.7145   -1.2375    0.0000 C   0  0  0  0  0  0  0  0  0  0  0  0
    0.0000   -1.6500    0.0000 C   0  0  0  0  0  0  0  0  0  0  0  0
    0.7145   -1.2375    0.0000 C   0  0  0  0  0  0  0  0  0  0  0  0
    0.7145   -0.4125    0.0000 C   0  0  0  0  0  0  0  0  0  0  0  0
    1.4289   -0.0000    0.0000 C   0  0  0  0  0  0  0  0  0  0  0  0
    2.1434   -0.4125    0.0000 C   0  0  0  0  0  0  0  0  0  0  0  0
    2.1434   -1.2375    0.0000 C   0  0  0  0  0  0  0  0  0  0  0  0
    1.4289   -1.6500    0.0000 C   0  0  0  0  0  0  0  0  0  0  0  0
   -1.4289   -1.6500    0.0000 Cl  0  0  0  0  0  0  0  0  0  0  0  0
   -0.7145    1.2375    0.0000 N   0  0  0  0  0  0  0  0  0  0  0  0
   -1.4289    0.8250    0.0000 C   0  0  0  0  0  0  0  0  0  0  0  0
   -0.7145    2.0625    0.0000 C   0  0  0  0  0  0  0  0  0  0  0  0
    0.0000    2.4750    0.0000 O   0  0  0  0  0  0  0  0  0  0  0  0
   -1.4289    2.4750    0.0000 C   0  0  0  0  0  0  0  0  0  0  0  0
   -1.4289    3.3000    0.0000 C   0  0  0  0  0  0  0  0  0  0  0  0
   -1.7111    4.0752    0.0000 C   0  0  0  0  0  0  0  0  0  0  0  0
   -1.1808    4.7072    0.0000 C   0  0  0  0  0  0  0  0  0  0  0  0
   -0.3683    4.5640    0.0000 N   0  0  0  0  0  0  0  0  0  0  0  0
   -0.0862    3.7887    0.0000 C   0  0  0  0  0  0  0  0  0  0  0  0
   -0.6165    3.1567    0.0000 C   0  0  0  0  0  0  0  0  0  0  0  0
    0.1620    5.1960    0.0000 C   0  0  0  0  0  0  0  0  0  0  0  0
   -2.2414    3.1567    0.0000 C   0  0  0  0  0  0  0  0  0  0  0  0
   -2.5236    2.3815    0.0000 C   0  0  0  0  0  0  0  0  0  0  0  0
   -3.3360    2.2382    0.0000 C   0  0  0  0  0  0  0  0  0  0  0  0
   -3.8663    2.8702    0.0000 C   0  0  0  0  0  0  0  0  0  0  0  0
   -3.5842    3.6455    0.0000 C   0  0  0  0  0  0  0  0  0  0  0  0
   -2.7717    3.7887    0.0000 C   0  0  0  0  0  0  0  0  0  0  0  0
   -4.6788    2.7270    0.0000 F   0  0  0  0  0  0  0  0  0  0  0  0
  2  1  1  1  0  0  0
  2  3  1  0  0  0  0
  3  4  1  0  0  0  0
  4  5  2  0  0  0  0
  5  6  1  0  0  0  0
  6  7  2  0  0  0  0
  7  8  1  0  0  0  0
  3  8  2  0  0  0  0
  8  9  1  0  0  0  0
  9 10  2  0  0  0  0
 10 11  1  0  0  0  0
 11 12  2  0  0  0  0
  7 12  1  0  0  0  0
  5 13  1  0  0  0  0
  2 14  1  0  0  0  0
 14 15  1  0  0  0  0
 14 16  1  0  0  0  0
 16 17  2  0  0  0  0
 16 18  1  0  0  0  0
 18 19  1  0  0  0  0
 19 20  1  0  0  0  0
 20 21  1  0  0  0  0
 21 22  1  0  0  0  0
 22 23  1  0  0  0  0
 23 24  1  0  0  0  0
 19 24  1  0  0  0  0
 22 25  1  0  0  0  0
 19 26  1  0  0  0  0
 26 27  2  0  0  0  0
 27 28  1  0  0  0  0
 28 29  2  0  0  0  0
 29 30  1  0  0  0  0
 30 31  2  0  0  0  0
 26 31  1  0  0  0  0
 29 32  1  0  0  0  0
M  END
> <DATABASE_ID>
DB12219

> <DATABASE_NAME>
drugbank

> <SMILES>
C[C@H](N(C)C(=O)CC1(CCN(C)CC1)C1=CC=C(F)C=C1)C1=C2C=CC=CC2=CC(Cl)=C1

> <INCHI_IDENTIFIER>
InChI=1S/C27H30ClFN2O/c1-19(25-17-22(28)16-20-6-4-5-7-24(20)25)31(3)26(32)18-27(12-14-30(2)15-13-27)21-8-10-23(29)11-9-21/h4-11,16-17,19H,12-15,18H2,1-3H3/t19-/m0/s1

> <INCHI_KEY>
DRXBWLBZWAJIEF-IBGZPJMESA-N

> <FORMULA>
C27H30ClFN2O

> <MOLECULAR_WEIGHT>
453.0

> <EXACT_MASS>
452.2030695

> <JCHEM_ACCEPTOR_COUNT>
2

> <JCHEM_ATOM_COUNT>
62

> <JCHEM_AVERAGE_POLARIZABILITY>
48.63413992211076

> <JCHEM_BIOAVAILABILITY>
1

> <JCHEM_DONOR_COUNT>
0

> <JCHEM_FORMAL_CHARGE>
0

> <JCHEM_GHOSE_FILTER>
1

> <JCHEM_IUPAC>
N-[(1S)-1-(3-chloronaphthalen-1-yl)ethyl]-2-[4-(4-fluorophenyl)-1-methylpiperidin-4-yl]-N-methylacetamide

> <ALOGPS_LOGP>
5.81

> <JCHEM_LOGP>
5.403413715333334

> <ALOGPS_LOGS>
-6.14

> <JCHEM_MDDR_LIKE_RULE>
0

> <JCHEM_NUMBER_OF_RINGS>
4

> <JCHEM_PHYSIOLOGICAL_CHARGE>
1

> <JCHEM_PKA_STRONGEST_BASIC>
8.537722434275423

> <JCHEM_POLAR_SURFACE_AREA>
23.550000000000004

> <JCHEM_REFRACTIVITY>
129.63359999999994

> <JCHEM_ROTATABLE_BOND_COUNT>
5

> <JCHEM_RULE_OF_FIVE>
0

> <ALOGPS_SOLUBILITY>
3.31e-04 g/l

> <JCHEM_TRADITIONAL_IUPAC>
N-[(1S)-1-(3-chloronaphthalen-1-yl)ethyl]-2-[4-(4-fluorophenyl)-1-methylpiperidin-4-yl]-N-methylacetamide

> <JCHEM_VEBER_RULE>
1

> <DRUGBANK_ID>
DB12219

> <DRUG_GROUPS>
investigational

> <GENERIC_NAME>
GSK-424887

$$$$
