
  Mrv1909 12271913472D          

 19 20  0  0  0  0            999 V2000
    2.5387    2.3320    0.0000 Br  0  0  0  0  0  0  0  0  0  0  0  0
   -0.8443   -0.3930    0.0000 O   0  0  0  0  0  0  0  0  0  0  0  0
    1.0947   -2.0002    0.0000 O   0  0  0  0  0  0  0  0  0  0  0  0
   -1.7527   -2.3320    0.0000 O   0  0  0  0  0  0  0  0  0  0  0  0
    2.9114    0.1891    0.0000 O   0  0  0  0  0  0  0  0  0  0  0  0
   -2.9114   -1.2199    0.0000 O   0  0  0  0  0  0  0  0  0  0  0  0
    0.5998   -0.6784    0.0000 N   0  0  0  0  0  0  0  0  0  0  0  0
    2.0030   -0.9287    0.0000 N   0  0  0  0  0  0  0  0  0  0  0  0
   -0.1863   -0.9287    0.0000 C   0  0  1  0  0  0  0  0  0  0  0  0
    1.2169   -1.1733    0.0000 C   0  0  0  0  0  0  0  0  0  0  0  0
   -1.5081   -0.8880    0.0000 C   0  0  1  0  0  0  0  0  0  0  0  0
    0.7628    0.1484    0.0000 C   0  0  0  0  0  0  0  0  0  0  0  0
   -1.2577   -1.6741    0.0000 C   0  0  2  0  0  0  0  0  0  0  0  0
   -0.4308   -1.6741    0.0000 C   0  0  0  0  0  0  0  0  0  0  0  0
    1.5488    0.4337    0.0000 C   0  0  0  0  0  0  0  0  0  0  0  0
    2.1661   -0.1018    0.0000 C   0  0  0  0  0  0  0  0  0  0  0  0
   -2.2942   -0.6376    0.0000 C   0  0  0  0  0  0  0  0  0  0  0  0
    1.6712    1.2606    0.0000 C   0  0  0  0  0  0  0  0  0  0  0  0
    2.4572    1.5109    0.0000 C   0  0  0  0  0  0  0  0  0  0  0  0
  1 19  1  0  0  0  0
  2  9  1  0  0  0  0
  2 11  1  0  0  0  0
  3 10  2  0  0  0  0
 13  4  1  6  0  0  0
  5 16  2  0  0  0  0
  6 17  1  0  0  0  0
  9  7  1  1  0  0  0
  7 10  1  0  0  0  0
  7 12  1  0  0  0  0
  8 10  1  0  0  0  0
  8 16  1  0  0  0  0
  9 14  1  0  0  0  0
 11 13  1  0  0  0  0
 11 17  1  1  0  0  0
 12 15  2  0  0  0  0
 13 14  1  0  0  0  0
 15 16  1  0  0  0  0
 15 18  1  0  0  0  0
 18 19  2  0  0  0  0
M  END
> <DATABASE_ID>
DB03312

> <DATABASE_NAME>
drugbank

> <SMILES>
OC[C@H]1O[C@H](C[C@@H]1O)N1C=C(\C=C\Br)C(=O)NC1=O

> <INCHI_IDENTIFIER>
InChI=1S/C11H13BrN2O5/c12-2-1-6-4-14(11(18)13-10(6)17)9-3-7(16)8(5-15)19-9/h1-2,4,7-9,15-16H,3,5H2,(H,13,17,18)/b2-1+/t7-,8+,9+/m0/s1

> <INCHI_KEY>
ODZBBRURCPAEIQ-PIXDULNESA-N

> <FORMULA>
C11H13BrN2O5

> <MOLECULAR_WEIGHT>
333.135

> <EXACT_MASS>
332.000784183

> <JCHEM_ACCEPTOR_COUNT>
5

> <JCHEM_ATOM_COUNT>
32

> <JCHEM_AVERAGE_NEUTRAL_MICROSPECIES_CHARGE>
-0.0018103066703868413

> <JCHEM_AVERAGE_POLARIZABILITY>
27.89768004590529

> <JCHEM_BIOAVAILABILITY>
1

> <JCHEM_DONOR_COUNT>
3

> <JCHEM_FORMAL_CHARGE>
0

> <JCHEM_GHOSE_FILTER>
0

> <JCHEM_IUPAC>
5-[(1E)-2-bromoethenyl]-1-[(2R,4S,5R)-4-hydroxy-5-(hydroxymethyl)oxolan-2-yl]-1,2,3,4-tetrahydropyrimidine-2,4-dione

> <JCHEM_LOGP>
-0.49656743466666603

> <JCHEM_MDDR_LIKE_RULE>
0

> <JCHEM_NEUTRAL_CHARGE>
0

> <JCHEM_NUMBER_OF_RINGS>
2

> <JCHEM_PHYSIOLOGICAL_CHARGE>
0

> <JCHEM_PKA>
13.907905121599981

> <JCHEM_PKA_STRONGEST_ACIDIC>
9.741494492426755

> <JCHEM_PKA_STRONGEST_BASIC>
-2.978083590515274

> <JCHEM_POLAR_SURFACE_AREA>
99.1

> <JCHEM_REFRACTIVITY>
67.6767

> <JCHEM_ROTATABLE_BOND_COUNT>
3

> <JCHEM_RULE_OF_FIVE>
1

> <JCHEM_TRADITIONAL_IUPAC>
N-[(2S)-1-(1,3-benzothiazol-2-yl)-5-[(diaminomethylidene)amino]-1-oxopentan-2-yl]cyclopentanecarboxamide

> <JCHEM_VEBER_RULE>
0

> <DRUGBANK_ID>
DB03312

> <SECONDARY_ACCESSION_NUMBERS>
EXPT00783; DB05041

> <DRUG_GROUPS>
approved; investigational

> <GENERIC_NAME>
Brivudine

> <SYNONYMS>
(E)-5-(2-Bromovinyl)-deoxyuridine; Brivudina; Brivudine; Brivudinum; BVdU

> <INTERNATIONAL_BRANDS>
Brivir; Mevir; Zostex

$$$$
