
  Mrv1909 11221903222D          

 39 40  0  0  0  0            999 V2000
   -2.3983   -0.6292    0.0000 S   0  0  0  0  0  0  0  0  0  0  0  0
    2.1040   -3.1546    0.0000 S   0  0  0  0  0  0  0  0  0  0  0  0
    0.4595    1.8457    0.0000 O   0  0  0  0  0  0  0  0  0  0  0  0
   -0.2548    0.6082    0.0000 O   0  0  0  0  0  0  0  0  0  0  0  0
   -2.3983    0.1957    0.0000 O   0  0  0  0  0  0  0  0  0  0  0  0
    2.8838    2.8307    0.0000 O   0  0  0  0  0  0  0  0  0  0  0  0
   -2.3983    1.8457    0.0000 O   0  0  0  0  0  0  0  0  0  0  0  0
    3.2233   -0.3986    0.0000 O   0  0  0  0  0  0  0  0  0  0  0  0
   -0.2548   -1.0417    0.0000 O   0  0  0  0  0  0  0  0  0  0  0  0
   -2.3983    2.6707    0.0000 O   0  0  0  0  0  0  0  0  0  0  0  0
   -2.3983   -1.4542    0.0000 O   0  0  0  0  0  0  0  0  0  0  0  0
   -3.2233   -0.6292    0.0000 O   0  0  0  0  0  0  0  0  0  0  0  0
   -1.5733   -0.6292    0.0000 O   0  0  0  0  0  0  0  0  0  0  0  0
    2.4396   -3.9082    0.0000 O   0  0  0  0  0  0  0  0  0  0  0  0
    1.3504   -3.4901    0.0000 O   0  0  0  0  0  0  0  0  0  0  0  0
    2.8577   -2.8190    0.0000 O   0  0  0  0  0  0  0  0  0  0  0  0
    2.4797    1.1557    0.0000 N   0  3  0  0  0  0  0  0  0  0  0  0
   -0.9693    2.6707    0.0000 N   0  0  0  0  0  0  0  0  0  0  0  0
    1.9179   -0.9798    0.0000 N   0  0  0  0  0  0  0  0  0  0  0  0
    1.1740    1.4332    0.0000 C   0  0  2  0  0  0  0  0  0  0  0  0
    1.9277    1.7688    0.0000 C   0  0  1  0  0  0  0  0  0  0  0  0
    2.0672    0.4412    0.0000 C   0  0  1  0  0  0  0  0  0  0  0  0
    1.2603    0.6128    0.0000 C   0  0  0  0  0  0  0  0  0  0  0  0
   -0.2548    1.4332    0.0000 C   0  0  2  0  0  0  0  0  0  0  0  0
   -0.9693    1.8457    0.0000 C   0  0  1  0  0  0  0  0  0  0  0  0
    2.0992    2.5758    0.0000 C   0  0  0  0  0  0  0  0  0  0  0  0
   -1.6838    1.4332    0.0000 C   0  0  2  0  0  0  0  0  0  0  0  0
   -1.6838    0.6082    0.0000 C   0  0  1  0  0  0  0  0  0  0  0  0
   -0.9693    0.1957    0.0000 C   0  0  1  0  0  0  0  0  0  0  0  0
    2.4027   -0.3124    0.0000 C   0  0  0  0  0  0  0  0  0  0  0  0
   -0.9693   -0.6292    0.0000 C   0  0  0  0  0  0  0  0  0  0  0  0
    2.2534   -1.7334    0.0000 C   0  0  0  0  0  0  0  0  0  0  0  0
   -1.6838    3.0832    0.0000 C   0  0  0  0  0  0  0  0  0  0  0  0
    1.7685   -2.4009    0.0000 C   0  0  0  0  0  0  0  0  0  0  0  0
   -1.6838    3.9082    0.0000 C   0  0  0  0  0  0  0  0  0  0  0  0
    2.9226    0.8999    0.0000 H   0  0  0  0  0  0  0  0  0  0  0  0
    2.8599    1.4980    0.0000 H   0  0  0  0  0  0  0  0  0  0  0  0
   -0.5263    2.9265    0.0000 H   0  0  0  0  0  0  0  0  0  0  0  0
    1.4092   -0.9263    0.0000 H   0  0  0  0  0  0  0  0  0  0  0  0
  1  5  1  0  0  0  0
  1 11  1  0  0  0  0
  1 12  2  0  0  0  0
  1 13  2  0  0  0  0
  2 14  1  0  0  0  0
  2 15  2  0  0  0  0
  2 16  2  0  0  0  0
  2 34  1  0  0  0  0
 20  3  1  6  0  0  0
 24  3  1  6  0  0  0
  4 24  1  0  0  0  0
  4 29  1  0  0  0  0
 28  5  1  1  0  0  0
  6 26  1  0  0  0  0
 27  7  1  6  0  0  0
  8 30  2  0  0  0  0
  9 31  1  0  0  0  0
 10 33  2  0  0  0  0
 17 21  1  0  0  0  0
 17 22  1  0  0  0  0
 17 36  1  0  0  0  0
 17 37  1  0  0  0  0
 25 18  1  1  0  0  0
 18 33  1  0  0  0  0
 18 38  1  0  0  0  0
 19 30  1  0  0  0  0
 19 32  1  0  0  0  0
 19 39  1  0  0  0  0
 20 21  1  0  0  0  0
 20 23  1  0  0  0  0
 21 26  1  1  0  0  0
 22 23  1  0  0  0  0
 22 30  1  6  0  0  0
 24 25  1  0  0  0  0
 25 27  1  0  0  0  0
 27 28  1  0  0  0  0
 28 29  1  0  0  0  0
 29 31  1  6  0  0  0
 32 34  1  0  0  0  0
 33 35  1  0  0  0  0
M  CHG  1  17   1
M  END
> <DATABASE_ID>
DB02595

> <DATABASE_NAME>
drugbank

> <SMILES>
[H]N(CCS(O)(=O)=O)C(=O)[C@@H]1C[C@H](O[C@@H]2O[C@H](CO)[C@@H](OS(O)(=O)=O)[C@H](O)[C@H]2N([H])C(C)=O)[C@@H](CO)[N+]1([H])[H]

> <INCHI_IDENTIFIER>
InChI=1S/C16H29N3O14S2/c1-7(22)18-12-13(23)14(33-35(28,29)30)11(6-21)32-16(12)31-10-4-8(19-9(10)5-20)15(24)17-2-3-34(25,26)27/h8-14,16,19-21,23H,2-6H2,1H3,(H,17,24)(H,18,22)(H,25,26,27)(H,28,29,30)/p+1/t8-,9+,10-,11+,12+,13+,14+,16+/m0/s1

> <INCHI_KEY>
RPNZWZDLNYCCIG-HMMVDTEZSA-O

> <FORMULA>
C16H30N3O14S2

> <MOLECULAR_WEIGHT>
552.551

> <EXACT_MASS>
552.116919063

> <JCHEM_ACCEPTOR_COUNT>
13

> <JCHEM_ATOM_COUNT>
65

> <JCHEM_AVERAGE_POLARIZABILITY>
50.87525863225148

> <JCHEM_BIOAVAILABILITY>
0

> <JCHEM_DONOR_COUNT>
8

> <JCHEM_FORMAL_CHARGE>
1

> <JCHEM_GHOSE_FILTER>
0

> <JCHEM_IUPAC>
(2R,3S,5S)-3-{[(2R,3R,4R,5S,6R)-3-acetamido-4-hydroxy-6-(hydroxymethyl)-5-(sulfooxy)oxan-2-yl]oxy}-2-(hydroxymethyl)-5-[(2-sulfoethyl)carbamoyl]pyrrolidin-1-ium

> <ALOGPS_LOGP>
-1.26

> <JCHEM_LOGP>
-7.695688527380655

> <ALOGPS_LOGS>
-2.02

> <JCHEM_MDDR_LIKE_RULE>
0

> <JCHEM_NUMBER_OF_RINGS>
2

> <JCHEM_PHYSIOLOGICAL_CHARGE>
-1

> <JCHEM_PKA>
-1.0129468811275517

> <JCHEM_PKA_STRONGEST_ACIDIC>
-1.8683051529829782

> <JCHEM_PKA_STRONGEST_BASIC>
8.564890540341706

> <JCHEM_POLAR_SURFACE_AREA>
271.9299999999999

> <JCHEM_REFRACTIVITY>
121.67119999999994

> <JCHEM_ROTATABLE_BOND_COUNT>
11

> <JCHEM_RULE_OF_FIVE>
0

> <ALOGPS_SOLUBILITY>
5.61e+00 g/l

> <JCHEM_TRADITIONAL_IUPAC>
udp-6-sulfoquinovose

> <JCHEM_VEBER_RULE>
0

> <DRUGBANK_ID>
DB02595

> <SECONDARY_ACCESSION_NUMBERS>
EXPT00715

> <DRUG_GROUPS>
experimental

> <GENERIC_NAME>
(2R,3S,5S)-2-(Hydroxymethyl)-5-[(2-sulfoethyl)carbamoyl]-3-pyrrolidiniumyl 2-acetamido-2-deoxy-4-O-sulfo-beta-D-glucopyranoside

$$$$
