
  Mrv1718006291816122D          

  1  0  0  0  0  0            999 V2000
    0.0000    0.0000    0.0000 Rb  0  3  0  0  0  0  0  0  0  0  0  0
M  CHG  1   1   1
M  ISO  1   1  82
M  END
> <DATABASE_ID>
DB09479

> <DATABASE_NAME>
drugbank

> <SMILES>
[82Rb+]

> <INCHI_IDENTIFIER>
InChI=1S/Rb/q+1/i1-3

> <INCHI_KEY>
NCCSSGKUIKYAJD-OIOBTWANSA-N

> <FORMULA>
Rb

> <MOLECULAR_WEIGHT>
81.9177

> <EXACT_MASS>
81.917659111

> <JCHEM_ACCEPTOR_COUNT>
0

> <JCHEM_ATOM_COUNT>
1

> <JCHEM_AVERAGE_POLARIZABILITY>
1.7784

> <JCHEM_BIOAVAILABILITY>
1

> <JCHEM_DONOR_COUNT>
0

> <JCHEM_FORMAL_CHARGE>
1

> <JCHEM_GHOSE_FILTER>
0

> <JCHEM_IUPAC>
(82Rb)rubidium(1+) ion

> <JCHEM_LOGP>
0.0

> <JCHEM_MDDR_LIKE_RULE>
0

> <JCHEM_NUMBER_OF_RINGS>
0

> <JCHEM_PHYSIOLOGICAL_CHARGE>
1

> <JCHEM_PKA>
3.55

> <JCHEM_PKA_STRONGEST_ACIDIC>
3.09

> <JCHEM_POLAR_SURFACE_AREA>
0.0

> <JCHEM_REFRACTIVITY>
0.0

> <JCHEM_ROTATABLE_BOND_COUNT>
0

> <JCHEM_RULE_OF_FIVE>
1

> <JCHEM_TRADITIONAL_IUPAC>
(82Rb)rubidium(1+) ion

> <JCHEM_VEBER_RULE>
1

> <DRUGBANK_ID>
DB09479

> <DRUG_GROUPS>
approved; investigational

> <GENERIC_NAME>
Rubidium Rb-82

> <SYNONYMS>
Rubidium (82Rb) cation; Rubidium cation Rb-82; Rubidium Rb-82 cation

> <PRODUCTS>
CardioGen-82; Ruby-fill

> <SALTS>
Rubidium chloride Rb-82

$$$$
