
  Mrv1909 05201914472D          

 37 40  0  0  0  0            999 V2000
    3.7125   -4.3974    0.0000 C   0  0  0  0  0  0  0  0  0  0  0  0
    4.4270   -4.8099    0.0000 C   0  0  0  0  0  0  0  0  0  0  0  0
    4.4270   -5.6349    0.0000 C   0  0  0  0  0  0  0  0  0  0  0  0
    5.1414   -4.3974    0.0000 O   0  0  0  0  0  0  0  0  0  0  0  0
    5.8559   -4.8099    0.0000 C   0  0  0  0  0  0  0  0  0  0  0  0
    5.8559   -5.6349    0.0000 O   0  0  0  0  0  0  0  0  0  0  0  0
    6.5704   -4.3974    0.0000 C   0  0  0  0  0  0  0  0  0  0  0  0
    7.2849   -4.8099    0.0000 N   0  0  0  0  0  0  0  0  0  0  0  0
    7.9993   -4.3974    0.0000 C   0  0  0  0  0  0  0  0  0  0  0  0
    8.7138   -4.8099    0.0000 C   0  0  0  0  0  0  0  0  0  0  0  0
    9.4283   -4.3974    0.0000 C   0  0  0  0  0  0  0  0  0  0  0  0
    9.4283   -3.5724    0.0000 C   0  0  0  0  0  0  0  0  0  0  0  0
    8.7138   -3.1599    0.0000 C   0  0  0  0  0  0  0  0  0  0  0  0
    8.7138   -2.3349    0.0000 C   0  0  0  0  0  0  0  0  0  0  0  0
    7.9993   -1.9224    0.0000 N   0  0  0  0  0  0  0  0  0  0  0  0
    7.2849   -2.3349    0.0000 C   0  0  0  0  0  0  0  0  0  0  0  0
    6.5704   -1.9224    0.0000 C   0  0  0  0  0  0  0  0  0  0  0  0
    5.8559   -2.3349    0.0000 C   0  0  0  0  0  0  0  0  0  0  0  0
    5.1414   -1.9224    0.0000 C   0  0  0  0  0  0  0  0  0  0  0  0
    5.1414   -1.0974    0.0000 C   0  0  0  0  0  0  0  0  0  0  0  0
    5.8559   -0.6849    0.0000 C   0  0  0  0  0  0  0  0  0  0  0  0
    6.5704   -1.0974    0.0000 C   0  0  0  0  0  0  0  0  0  0  0  0
    4.4270   -0.6849    0.0000 N   0  0  0  0  0  0  0  0  0  0  0  0
    3.6733   -1.0204    0.0000 C   0  0  0  0  0  0  0  0  0  0  0  0
    3.1213   -0.4073    0.0000 C   0  0  0  0  0  0  0  0  0  0  0  0
    3.5338    0.3072    0.0000 C   0  0  0  0  0  0  0  0  0  0  0  0
    4.3407    0.1356    0.0000 N   0  0  0  0  0  0  0  0  0  0  0  0
    7.9993   -1.0974    0.0000 S   0  0  0  0  0  0  0  0  0  0  0  0
    7.9993   -0.2724    0.0000 O   0  0  0  0  0  0  0  0  0  0  0  0
    7.1743   -1.0974    0.0000 O   0  0  0  0  0  0  0  0  0  0  0  0
    8.8243   -1.0974    0.0000 C   0  0  0  0  0  0  0  0  0  0  0  0
    9.2368   -0.3829    0.0000 C   0  0  0  0  0  0  0  0  0  0  0  0
   10.0618   -0.3829    0.0000 C   0  0  0  0  0  0  0  0  0  0  0  0
   10.4743   -1.0974    0.0000 C   0  0  0  0  0  0  0  0  0  0  0  0
   10.0618   -1.8118    0.0000 N   0  0  0  0  0  0  0  0  0  0  0  0
    9.2368   -1.8118    0.0000 C   0  0  0  0  0  0  0  0  0  0  0  0
    7.9993   -3.5724    0.0000 N   0  0  0  0  0  0  0  0  0  0  0  0
  1  2  1  0  0  0  0
  2  3  1  0  0  0  0
  2  4  1  0  0  0  0
  4  5  1  0  0  0  0
  5  6  2  0  0  0  0
  5  7  1  0  0  0  0
  7  8  1  0  0  0  0
  8  9  1  0  0  0  0
  9 10  2  0  0  0  0
 10 11  1  0  0  0  0
 11 12  2  0  0  0  0
 12 13  1  0  0  0  0
 13 14  1  0  0  0  0
 14 15  1  0  0  0  0
 15 16  1  0  0  0  0
 16 17  1  0  0  0  0
 17 18  2  0  0  0  0
 18 19  1  0  0  0  0
 19 20  2  0  0  0  0
 20 21  1  0  0  0  0
 21 22  2  0  0  0  0
 17 22  1  0  0  0  0
 20 23  1  0  0  0  0
 23 24  1  0  0  0  0
 24 25  2  0  0  0  0
 25 26  1  0  0  0  0
 26 27  2  0  0  0  0
 23 27  1  0  0  0  0
 15 28  1  0  0  0  0
 28 29  2  0  0  0  0
 28 30  2  0  0  0  0
 28 31  1  0  0  0  0
 31 32  2  0  0  0  0
 32 33  1  0  0  0  0
 33 34  2  0  0  0  0
 34 35  1  0  0  0  0
 35 36  2  0  0  0  0
 31 36  1  0  0  0  0
 13 37  2  0  0  0  0
  9 37  1  0  0  0  0
M  END
> <DATABASE_ID>
DB15071

> <DATABASE_NAME>
drugbank

> <SMILES>
CC(C)OC(=O)CNC1=CC=CC(CN(CC2=CC=C(C=C2)N2C=CC=N2)S(=O)(=O)C2=CC=CN=C2)=N1

> <INCHI_IDENTIFIER>
InChI=1S/C26H28N6O4S/c1-20(2)36-26(33)17-28-25-8-3-6-22(30-25)19-31(37(34,35)24-7-4-13-27-16-24)18-21-9-11-23(12-10-21)32-15-5-14-29-32/h3-16,20H,17-19H2,1-2H3,(H,28,30)

> <INCHI_KEY>
VIQCWEGEHRBLAC-UHFFFAOYSA-N

> <FORMULA>
C26H28N6O4S

> <MOLECULAR_WEIGHT>
520.61

> <EXACT_MASS>
520.18927458

> <JCHEM_ACCEPTOR_COUNT>
7

> <JCHEM_ATOM_COUNT>
65

> <JCHEM_AVERAGE_POLARIZABILITY>
53.4187764878972

> <JCHEM_BIOAVAILABILITY>
0

> <JCHEM_DONOR_COUNT>
1

> <JCHEM_FORMAL_CHARGE>
0

> <JCHEM_GHOSE_FILTER>
0

> <JCHEM_IUPAC>
propan-2-yl 2-({6-[(N-{[4-(1H-pyrazol-1-yl)phenyl]methyl}pyridine-3-sulfonamido)methyl]pyridin-2-yl}amino)acetate

> <ALOGPS_LOGP>
3.08

> <JCHEM_LOGP>
2.6720164953333336

> <ALOGPS_LOGS>
-4.51

> <JCHEM_MDDR_LIKE_RULE>
1

> <JCHEM_NUMBER_OF_RINGS>
4

> <JCHEM_PHYSIOLOGICAL_CHARGE>
0

> <JCHEM_PKA_STRONGEST_BASIC>
2.6196849696419755

> <JCHEM_POLAR_SURFACE_AREA>
119.31

> <JCHEM_REFRACTIVITY>
141.2886

> <JCHEM_ROTATABLE_BOND_COUNT>
11

> <JCHEM_RULE_OF_FIVE>
0

> <ALOGPS_SOLUBILITY>
1.62e-02 g/l

> <JCHEM_TRADITIONAL_IUPAC>
(2R)-14-fluoro-2-methyl-6,9,10,19-tetraazapentacyclo[14.2.1.0^{2,6}.0^{8,18}.0^{12,17}]nonadeca-1(18),8,12(17),13,15-pentaen-11-one

> <JCHEM_VEBER_RULE>
0

> <DRUGBANK_ID>
DB15071

> <DRUG_GROUPS>
approved; investigational

> <GENERIC_NAME>
Omidenepag isopropyl

> <SYNONYMS>
isopropyl N-(6-(((4-(1H-pyrazol-1-yl)benzyl)(3-pyridinylsulfonyl)amino)methyl)-2-pyridinyl)glycinate; Omidenepag isopropyl

> <PRODUCTS>
Omlonti

> <INTERNATIONAL_BRANDS>
Eybelis; Omlonti

$$$$
