
  Mrv1652310201622522D          

 23 25  0  0  0  0            999 V2000
    0.7145   -2.0625    0.0000 C   0  0  0  0  0  0  0  0  0  0  0  0
    0.7145   -2.8875    0.0000 C   0  0  0  0  0  0  0  0  0  0  0  0
    1.3819   -3.3724    0.0000 C   0  0  0  0  0  0  0  0  0  0  0  0
    1.1270   -4.1570    0.0000 N   0  0  0  0  0  0  0  0  0  0  0  0
    0.3020   -4.1570    0.0000 C   0  0  0  0  0  0  0  0  0  0  0  0
    0.0470   -3.3724    0.0000 N   0  0  0  0  0  0  0  0  0  0  0  0
   -0.7376   -3.1175    0.0000 C   0  0  0  0  0  0  0  0  0  0  0  0
   -1.3507   -3.6695    0.0000 C   0  0  0  0  0  0  0  0  0  0  0  0
   -2.1353   -3.4146    0.0000 C   0  0  0  0  0  0  0  0  0  0  0  0
   -2.3068   -2.6076    0.0000 C   0  0  0  0  0  0  0  0  0  0  0  0
   -1.6937   -2.0556    0.0000 C   0  0  0  0  0  0  0  0  0  0  0  0
   -0.9091   -2.3105    0.0000 C   0  0  0  0  0  0  0  0  0  0  0  0
   -3.0915   -2.3527    0.0000 F   0  0  0  0  0  0  0  0  0  0  0  0
   -0.1830   -4.8245    0.0000 C   0  0  0  0  0  0  0  0  0  0  0  0
    2.1665   -3.1175    0.0000 C   0  0  0  0  0  0  0  0  0  0  0  0
    2.9512   -2.8625    0.0000 C   0  0  0  0  0  0  0  0  0  0  0  0
    3.7358   -2.6076    0.0000 C   0  0  0  0  0  0  0  0  0  0  0  0
    3.9073   -1.8006    0.0000 C   0  0  0  0  0  0  0  0  0  0  0  0
    4.6919   -1.5457    0.0000 C   0  0  0  0  0  0  0  0  0  0  0  0
    5.3050   -2.0977    0.0000 N   0  0  0  0  0  0  0  0  0  0  0  0
    5.1335   -2.9047    0.0000 C   0  0  0  0  0  0  0  0  0  0  0  0
    4.3489   -3.1596    0.0000 C   0  0  0  0  0  0  0  0  0  0  0  0
    5.7466   -3.4567    0.0000 Cl  0  0  0  0  0  0  0  0  0  0  0  0
  1  2  1  0  0  0  0
  2  3  2  0  0  0  0
  3  4  1  0  0  0  0
  4  5  2  0  0  0  0
  5  6  1  0  0  0  0
  2  6  1  0  0  0  0
  6  7  1  0  0  0  0
  7  8  2  0  0  0  0
  8  9  1  0  0  0  0
  9 10  2  0  0  0  0
 10 11  1  0  0  0  0
 11 12  2  0  0  0  0
  7 12  1  0  0  0  0
 10 13  1  0  0  0  0
  5 14  1  0  0  0  0
  3 15  1  0  0  0  0
 15 16  3  0  0  0  0
 16 17  1  0  0  0  0
 17 18  2  0  0  0  0
 18 19  1  0  0  0  0
 19 20  2  0  0  0  0
 20 21  1  0  0  0  0
 21 22  2  0  0  0  0
 17 22  1  0  0  0  0
 21 23  1  0  0  0  0
M  END
> <DATABASE_ID>
DB11833

> <DATABASE_NAME>
drugbank

> <SMILES>
CC1=NC(C#CC2=CC=NC(Cl)=C2)=C(C)N1C1=CC=C(F)C=C1

> <INCHI_IDENTIFIER>
InChI=1S/C18H13ClFN3/c1-12-17(8-3-14-9-10-21-18(19)11-14)22-13(2)23(12)16-6-4-15(20)5-7-16/h4-7,9-11H,1-2H3

> <INCHI_KEY>
UPZWINBEAHDTLA-UHFFFAOYSA-N

> <FORMULA>
C18H13ClFN3

> <MOLECULAR_WEIGHT>
325.77

> <EXACT_MASS>
325.0782033

> <JCHEM_ACCEPTOR_COUNT>
2

> <JCHEM_ATOM_COUNT>
36

> <JCHEM_AVERAGE_POLARIZABILITY>
34.01400773925921

> <JCHEM_BIOAVAILABILITY>
1

> <JCHEM_DONOR_COUNT>
0

> <JCHEM_FORMAL_CHARGE>
0

> <JCHEM_GHOSE_FILTER>
1

> <JCHEM_IUPAC>
2-chloro-4-{2-[1-(4-fluorophenyl)-2,5-dimethyl-1H-imidazol-4-yl]ethynyl}pyridine

> <ALOGPS_LOGP>
4.04

> <JCHEM_LOGP>
4.315207406

> <ALOGPS_LOGS>
-4.81

> <JCHEM_MDDR_LIKE_RULE>
0

> <JCHEM_NUMBER_OF_RINGS>
3

> <JCHEM_PHYSIOLOGICAL_CHARGE>
0

> <JCHEM_PKA_STRONGEST_BASIC>
5.463171962229627

> <JCHEM_POLAR_SURFACE_AREA>
30.71

> <JCHEM_REFRACTIVITY>
94.98700000000001

> <JCHEM_ROTATABLE_BOND_COUNT>
3

> <JCHEM_RULE_OF_FIVE>
1

> <ALOGPS_SOLUBILITY>
5.04e-03 g/l

> <JCHEM_TRADITIONAL_IUPAC>
2-chloro-4-{2-[1-(4-fluorophenyl)-2,5-dimethylimidazol-4-yl]ethynyl}pyridine

> <JCHEM_VEBER_RULE>
1

> <DRUGBANK_ID>
DB11833

> <DRUG_GROUPS>
investigational

> <GENERIC_NAME>
Basimglurant

> <SYNONYMS>
Basimglurant

$$$$
