
  Mrv1909 12152020022D          

 32 34  0  0  0  0            999 V2000
    2.1434   -4.5375    0.0000 C   0  0  0  0  0  0  0  0  0  0  0  0
    2.8579   -4.9500    0.0000 C   0  0  0  0  0  0  0  0  0  0  0  0
    2.8579   -5.7750    0.0000 C   0  0  0  0  0  0  0  0  0  0  0  0
    3.5724   -6.1875    0.0000 C   0  0  0  0  0  0  0  0  0  0  0  0
    3.5724   -7.0125    0.0000 C   0  0  0  0  0  0  0  0  0  0  0  0
    2.8579   -7.4250    0.0000 C   0  0  0  0  0  0  0  0  0  0  0  0
    2.1434   -7.0125    0.0000 C   0  0  0  0  0  0  0  0  0  0  0  0
    2.1434   -6.1875    0.0000 C   0  0  0  0  0  0  0  0  0  0  0  0
    2.8579   -8.2500    0.0000 N   0  0  0  0  0  0  0  0  0  0  0  0
    3.5724   -8.6625    0.0000 C   0  0  0  0  0  0  0  0  0  0  0  0
    3.5724   -9.4875    0.0000 C   0  0  0  0  0  0  0  0  0  0  0  0
    2.8579   -9.9000    0.0000 C   0  0  0  0  0  0  0  0  0  0  0  0
    4.2868   -9.9000    0.0000 C   0  0  0  0  0  0  0  0  0  0  0  0
    2.1434   -8.6625    0.0000 S   0  0  0  0  0  0  0  0  0  0  0  0
    1.7309   -7.9480    0.0000 O   0  0  0  0  0  0  0  0  0  0  0  0
    2.5559   -9.3770    0.0000 O   0  0  0  0  0  0  0  0  0  0  0  0
    1.4289   -9.0750    0.0000 C   0  0  0  0  0  0  0  0  0  0  0  0
    1.4289   -9.9000    0.0000 C   0  0  0  0  0  0  0  0  0  0  0  0
    0.7145  -10.3125    0.0000 C   0  0  0  0  0  0  0  0  0  0  0  0
    0.7145  -11.1375    0.0000 C   0  0  0  0  0  0  0  0  0  0  0  0
   -0.0000  -11.5500    0.0000 O   0  0  0  0  0  0  0  0  0  0  0  0
   -0.0000   -9.9000    0.0000 C   0  0  0  0  0  0  0  0  0  0  0  0
   -0.7145  -10.3125    0.0000 O   0  0  0  0  0  0  0  0  0  0  0  0
   -0.7145  -11.1375    0.0000 C   0  0  0  0  0  0  0  0  0  0  0  0
   -1.4289  -11.5500    0.0000 C   0  0  0  0  0  0  0  0  0  0  0  0
   -1.4289  -12.3750    0.0000 C   0  0  0  0  0  0  0  0  0  0  0  0
   -2.1434  -12.7875    0.0000 C   0  0  0  0  0  0  0  0  0  0  0  0
   -2.8579  -12.3750    0.0000 O   0  0  0  0  0  0  0  0  0  0  0  0
   -2.8579  -11.5500    0.0000 C   0  0  0  0  0  0  0  0  0  0  0  0
   -2.1434  -11.1375    0.0000 C   0  0  0  0  0  0  0  0  0  0  0  0
    0.0000   -9.0750    0.0000 C   0  0  0  0  0  0  0  0  0  0  0  0
    0.7145   -8.6625    0.0000 C   0  0  0  0  0  0  0  0  0  0  0  0
  1  2  1  0  0  0  0
  2  3  1  0  0  0  0
  3  4  2  0  0  0  0
  4  5  1  0  0  0  0
  5  6  2  0  0  0  0
  6  7  1  0  0  0  0
  7  8  2  0  0  0  0
  3  8  1  0  0  0  0
  6  9  1  0  0  0  0
  9 10  1  0  0  0  0
 10 11  1  0  0  0  0
 11 12  1  0  0  0  0
 11 13  1  0  0  0  0
  9 14  1  0  0  0  0
 14 15  2  0  0  0  0
 14 16  2  0  0  0  0
 14 17  1  0  0  0  0
 17 18  2  0  0  0  0
 18 19  1  0  0  0  0
 19 20  1  0  0  0  0
 20 21  1  0  0  0  0
 19 22  2  0  0  0  0
 22 23  1  0  0  0  0
 23 24  1  0  0  0  0
 24 25  1  0  0  0  0
 25 26  1  0  0  0  0
 26 27  1  0  0  0  0
 27 28  1  0  0  0  0
 28 29  1  0  0  0  0
 29 30  1  0  0  0  0
 25 30  1  0  0  0  0
 22 31  1  0  0  0  0
 31 32  2  0  0  0  0
 17 32  1  0  0  0  0
M  END
> <DATABASE_ID>
DB16319

> <DATABASE_NAME>
drugbank

> <SMILES>
CCC1=CC=C(C=C1)N(CC(C)C)S(=O)(=O)C1=CC(CO)=C(OCC2CCOCC2)C=C1

> <INCHI_IDENTIFIER>
InChI=1S/C25H35NO5S/c1-4-20-5-7-23(8-6-20)26(16-19(2)3)32(28,29)24-9-10-25(22(15-24)17-27)31-18-21-11-13-30-14-12-21/h5-10,15,19,21,27H,4,11-14,16-18H2,1-3H3

> <INCHI_KEY>
LZLBRISQTJVZNP-UHFFFAOYSA-N

> <FORMULA>
C25H35NO5S

> <MOLECULAR_WEIGHT>
461.62

> <EXACT_MASS>
461.223594405

> <JCHEM_ACCEPTOR_COUNT>
5

> <JCHEM_ATOM_COUNT>
67

> <JCHEM_AVERAGE_NEUTRAL_MICROSPECIES_CHARGE>
-4.331520441948747e-08

> <JCHEM_AVERAGE_POLARIZABILITY>
51.664462745466984

> <JCHEM_BIOAVAILABILITY>
1

> <JCHEM_DONOR_COUNT>
1

> <JCHEM_FORMAL_CHARGE>
0

> <JCHEM_GHOSE_FILTER>
1

> <JCHEM_IUPAC>
N-(4-ethylphenyl)-3-(hydroxymethyl)-N-(2-methylpropyl)-4-[(oxan-4-yl)methoxy]benzene-1-sulfonamide

> <ALOGPS_LOGP>
4.24

> <JCHEM_LOGP>
4.383646207999999

> <ALOGPS_LOGS>
-5.66

> <JCHEM_MDDR_LIKE_RULE>
1

> <JCHEM_NEUTRAL_CHARGE>
0

> <JCHEM_NUMBER_OF_RINGS>
3

> <JCHEM_PHYSIOLOGICAL_CHARGE>
0

> <JCHEM_PKA_STRONGEST_ACIDIC>
14.362438973082142

> <JCHEM_PKA_STRONGEST_BASIC>
-3.0776691931738718

> <JCHEM_POLAR_SURFACE_AREA>
76.07000000000001

> <JCHEM_REFRACTIVITY>
127.74589999999998

> <JCHEM_ROTATABLE_BOND_COUNT>
9

> <JCHEM_RULE_OF_FIVE>
1

> <ALOGPS_SOLUBILITY>
1.01e-03 g/l

> <JCHEM_TRADITIONAL_IUPAC>
revaprazan

> <JCHEM_VEBER_RULE>
0

> <DRUGBANK_ID>
DB16319

> <DRUG_GROUPS>
investigational

> <GENERIC_NAME>
GSK-2981278

> <SYNONYMS>
Ror gama modulator 1

$$$$
