
  Mrv1718007091816042D          

  7  4  0  0  0  0            999 V2000
   -0.5009    0.4674    0.0000 Mo  0  0  0  0  0  0  0  0  0  0  0  0
    1.2911   -1.2911    0.0000 Na  0  3  0  0  0  0  0  0  0  0  0  0
    1.2911   -1.2911    0.0000 Na  0  3  0  0  0  0  0  0  0  0  0  0
   -0.5009   -0.3589    0.0000 O   0  5  0  0  0  0  0  0  0  0  0  0
    0.5009    0.4674    0.0000 O   0  5  0  0  0  0  0  0  0  0  0  0
   -0.5009    1.2911    0.0000 O   0  0  0  0  0  0  0  0  0  0  0  0
   -1.2911    0.4674    0.0000 O   0  0  0  0  0  0  0  0  0  0  0  0
  1  4  1  0  0  0  0
  1  5  1  0  0  0  0
  1  6  2  0  0  0  0
  1  7  2  0  0  0  0
M  CHG  4   2   1   3   1   4  -1   5  -1
M  END
> <DATABASE_ID>
DB14496

> <DATABASE_NAME>
drugbank

> <SMILES>
[Na+].[Na+].[O-][Mo]([O-])(=O)=O

> <INCHI_IDENTIFIER>
InChI=1S/Mo.2Na.4O/q;2*+1;;;2*-1

> <INCHI_KEY>
TVXXNOYZHKPKGW-UHFFFAOYSA-N

> <FORMULA>
MoNa2O4

> <MOLECULAR_WEIGHT>
205.93

> <EXACT_MASS>
207.864602

> <JCHEM_ACCEPTOR_COUNT>
4

> <JCHEM_ATOM_COUNT>
7

> <JCHEM_AVERAGE_POLARIZABILITY>
6.036749268894994

> <JCHEM_BIOAVAILABILITY>
1

> <JCHEM_DONOR_COUNT>
0

> <JCHEM_FORMAL_CHARGE>
0

> <JCHEM_GHOSE_FILTER>
0

> <JCHEM_IUPAC>
disodium dioxomolybdenumbis(olate)

> <JCHEM_LOGP>
-1.7751999999999997

> <JCHEM_MDDR_LIKE_RULE>
0

> <JCHEM_NUMBER_OF_RINGS>
0

> <JCHEM_PHYSIOLOGICAL_CHARGE>
-2

> <JCHEM_PKA>
3.301029995663981

> <JCHEM_PKA_STRONGEST_ACIDIC>
-2.3010299956639804

> <JCHEM_POLAR_SURFACE_AREA>
80.25999999999999

> <JCHEM_REFRACTIVITY>
5.7716

> <JCHEM_ROTATABLE_BOND_COUNT>
0

> <JCHEM_RULE_OF_FIVE>
1

> <JCHEM_TRADITIONAL_IUPAC>
sodium molybdate

> <JCHEM_VEBER_RULE>
0

> <DRUGBANK_ID>
DB14496

> <DRUG_GROUPS>
approved; experimental

> <GENERIC_NAME>
Sodium molybdate

> <SYNONYMS>
Anhydric sodium molybdate; Molybdenum (as sodium); Sodium molybdate (anhydrous); Sodium molybdate(VI); Sodium molybdenum oxide

> <PRODUCTS>
Addamel N; Addnutriv; Advanced B & T Formula; Daily Energy Brand Vitamin & Mineral Drink Mix; Doctor's Choice Brand for Men; Envirocomplex; High Potency Multivitamins & Minerals Caplets; K.L. Vitamin-mineral; Luna Vitamin and Mineral Bar for Women; Materna; Materna - Tab; Materna-tab; Mega Min Capsules; Mega Vitaminerals; Milltrium Senior Vitamin and Mineral Supplement; Mineral Support; Multi Cal Mag Liquid; Multi Mins Liquid; Multi-force for Women Tab; Multiple Vitamins and Minerals; Multivitamins and Minerals Tablets; One Daily Vitamin and Mineral Dietary Supplement; One Per Day Vitamin and Mineral Dietary Supplement; One Tablet Daily Mens Formula; One-A-day Advance Men's; Onyx; Organic Minerals Tablet; Prenatal Supplement - Tab; Prenatal Vitamin and Mineral Supplement; Prenatal Vitamin and Mineral Supplement -tab; Prenatal Vitamin and Mineral Supplement Tab; Prenatal Vitamins and Minerals Tablets; Prenatal and Post Partum Supplement; R.E.S. Complex; Right Choice P.M. Multi Formula - Caplet; Spectrum Performa Multivitamins and Minerals Tablets; Totalvit Plus; Tricare Prenatal 2-part Daily Prenatal Vitamin System; Tricare Prenatal Quick Dissolve; Wellness Formula

> <SALTS>
Sodium molybdate dihydrate

$$$$
