
  Mrv1572004191602032D          

  3  0  0  0  0  0            999 V2000
    0.4125    0.0000    0.0000 Na  0  3  0  0  0  0  0  0  0  0  0  0
    2.7696    0.0000    0.0000 Na  0  3  0  0  0  0  0  0  0  0  0  0
   -0.4125    0.0000    0.0000 S   0  6  0  0  0  0  0  0  0  0  0  0
M  CHG  3   1   1   2   1   3  -2
M  END
> <DATABASE_ID>
DB11159

> <DATABASE_NAME>
drugbank

> <SMILES>
[Na+].[Na+].[S--]

> <INCHI_IDENTIFIER>
InChI=1S/2Na.S/q2*+1;-2

> <INCHI_KEY>
GRVFOGOEDUUMBP-UHFFFAOYSA-N

> <FORMULA>
Na2S

> <MOLECULAR_WEIGHT>
78.04

> <EXACT_MASS>
77.95160973

> <JCHEM_ACCEPTOR_COUNT>
0

> <JCHEM_ATOM_COUNT>
3

> <JCHEM_AVERAGE_POLARIZABILITY>
1.7784

> <JCHEM_BIOAVAILABILITY>
1

> <JCHEM_DONOR_COUNT>
0

> <JCHEM_FORMAL_CHARGE>
0

> <JCHEM_GHOSE_FILTER>
0

> <JCHEM_IUPAC>
disodium sulfanediide

> <JCHEM_LOGP>
-0.77

> <JCHEM_MDDR_LIKE_RULE>
0

> <JCHEM_NUMBER_OF_RINGS>
0

> <JCHEM_PHYSIOLOGICAL_CHARGE>
1

> <JCHEM_PKA>
3.55

> <JCHEM_PKA_STRONGEST_ACIDIC>
3.09

> <JCHEM_POLAR_SURFACE_AREA>
0.0

> <JCHEM_REFRACTIVITY>
0.0

> <JCHEM_ROTATABLE_BOND_COUNT>
0

> <JCHEM_RULE_OF_FIVE>
1

> <JCHEM_TRADITIONAL_IUPAC>
disodium sulfanediide

> <JCHEM_VEBER_RULE>
1

> <DRUGBANK_ID>
DB11159

> <DRUG_GROUPS>
approved

> <GENERIC_NAME>
Sodium sulfide

> <PRODUCTS>
Dr. Scholls Ingrown Toenail Pain Reliever; Scholls Wellness Company LLC Ingrown Toenail; Sodium Sufide

$$$$
