
  Mrv1902 03121922312D          

 58 62  0  0  0  0            999 V2000
    0.5355   -1.0703    0.0000 C   0  0  1  0  0  0  0  0  0  0  0  0
    1.9873   -0.9811    0.0000 C   0  0  2  0  0  0  0  0  0  0  0  0
    1.2434   -0.6388    0.0000 O   0  0  0  0  0  0  0  0  0  0  0  0
   -0.1932   -1.4810    0.0000 O   0  0  0  0  0  0  0  0  0  0  0  0
   -4.8043   -1.2619    0.0000 O   0  0  0  0  0  0  0  0  0  0  0  0
   -5.5416   -0.8758    0.0000 C   0  0  1  0  0  0  0  0  0  0  0  0
   -2.2007   -1.5076    0.0000 C   0  0  0  0  0  0  0  0  0  0  0  0
   -0.8742   -1.1183    0.0000 C   0  0  2  0  0  0  0  0  0  0  0  0
   -4.7708   -2.0924    0.0000 C   0  0  1  0  0  0  0  0  0  0  0  0
    2.7861   -1.2569    0.0000 O   0  0  0  0  0  0  0  0  0  0  0  0
   -1.4616   -1.6637    0.0000 C   0  0  1  0  0  0  0  0  0  0  0  0
   -5.6170   -0.0660    0.0000 C   0  0  2  0  0  0  0  0  0  0  0  0
   -2.7323   -2.1183    0.0000 C   0  0  2  0  0  0  0  0  0  0  0  0
   -4.0708   -2.4280    0.0000 C   0  0  2  0  0  0  0  0  0  0  0  0
    3.3431   -0.5962    0.0000 C   0  0  2  0  0  0  0  0  0  0  0  0
   -3.4731   -1.9140    0.0000 C   0  0  2  0  0  0  0  0  0  0  0  0
    4.6554   -0.7191    0.0000 O   0  0  0  0  0  0  0  0  0  0  0  0
    0.6418   -1.9327    0.0000 C   0  0  0  0  0  0  0  0  0  0  0  0
   -4.9586    0.4328    0.0000 C   0  0  0  0  0  0  0  0  0  0  0  0
    4.1260   -0.2028    0.0000 C   0  0  2  0  0  0  0  0  0  0  0  0
   -6.2265   -1.3139    0.0000 C   0  0  2  0  0  0  0  0  0  0  0  0
   -5.4703   -2.5073    0.0000 C   0  0  2  0  0  0  0  0  0  0  0  0
   -1.0085   -0.3623    0.0000 C   0  0  2  0  0  0  0  0  0  0  0  0
    0.3228   -0.1592    0.0000 C   0  0  1  0  0  0  0  0  0  0  0  0
    1.3126   -2.2641    0.0000 C   0  0  0  0  0  0  0  0  0  0  0  0
    5.7484    0.3243    0.0000 C   0  0  1  0  0  0  0  0  0  0  0  0
    5.4661   -0.5182    0.0000 C   0  0  2  0  0  0  0  0  0  0  0  0
   -6.1950   -2.1172    0.0000 C   0  0  0  0  0  0  0  0  0  0  0  0
    1.9618   -1.8654    0.0000 C   0  0  1  0  0  0  0  0  0  0  0  0
   -0.4529    0.1101    0.0000 C   0  0  0  0  0  0  0  0  0  0  0  0
    2.1006   -0.1100    0.0000 C   0  0  0  0  0  0  0  0  0  0  0  0
   -2.4581   -0.7153    0.0000 O   0  0  0  0  0  0  0  0  0  0  0  0
    2.9050    0.0887    0.0000 C   0  0  0  0  0  0  0  0  0  0  0  0
   -4.1917    0.1050    0.0000 O   0  0  0  0  0  0  0  0  0  0  0  0
    5.0125    0.8778    0.0000 C   0  0  0  0  0  0  0  0  0  0  0  0
    4.2511    0.5678    0.0000 C   0  0  0  0  0  0  0  0  0  0  0  0
   -3.6530   -1.1035    0.0000 O   0  0  0  0  0  0  0  0  0  0  0  0
   -5.0591    1.2554    0.0000 O   0  0  0  0  0  0  0  0  0  0  0  0
    6.1680    1.0446    0.0000 O   0  0  0  0  0  0  0  0  0  0  0  0
   -6.3860    0.2680    0.0000 C   0  0  0  0  0  0  0  0  0  0  0  0
    2.6612   -2.2847    0.0000 O   0  0  0  0  0  0  0  0  0  0  0  0
   -1.2420   -2.4683    0.0000 C   0  0  0  0  0  0  0  0  0  0  0  0
   -2.4832   -2.9064    0.0000 C   0  0  0  0  0  0  0  0  0  0  0  0
   -3.9538   -3.2591    0.0000 C   0  0  0  0  0  0  0  0  0  0  0  0
    3.8463   -1.2460    0.0000 C   0  0  0  0  0  0  0  0  0  0  0  0
    6.4924   -0.0179    0.0000 C   0  0  0  0  0  0  0  0  0  0  0  0
   -6.9575   -0.9257    0.0000 C   0  0  0  0  0  0  0  0  0  0  0  0
   -1.7884   -0.0805    0.0000 C   0  0  0  0  0  0  0  0  0  0  0  0
   -5.4515   -3.3356    0.0000 C   0  0  0  0  0  0  0  0  0  0  0  0
    0.9501    0.3921    0.0000 C   0  0  0  0  0  0  0  0  0  0  0  0
    6.0323   -1.1268    0.0000 C   0  0  0  0  0  0  0  0  0  0  0  0
   -6.3212    1.0956    0.0000 C   0  0  0  0  0  0  0  0  0  0  0  0
   -0.4290   -2.5310    0.0000 C   0  0  0  0  0  0  0  0  0  0  0  0
    7.0740    0.5673    0.0000 C   0  0  0  0  0  0  0  0  0  0  0  0
    5.6332    0.2940    0.0000 H   0  0  0  0  0  0  0  0  0  0  0  0
   -3.4451   -1.2201    0.0000 H   0  0  0  0  0  0  0  0  0  0  0  0
   -0.6693   -2.6920    0.0000 H   0  0  0  0  0  0  0  0  0  0  0  0
   -4.2235    0.0077    0.0000 H   0  0  0  0  0  0  0  0  0  0  0  0
  2  3  1  6  0  0  0
  1  3  1  6  0  0  0
  4  1  1  0  0  0  0
  9  5  1  0  0  0  0
  6  5  1  0  0  0  0
  7 11  1  0  0  0  0
  8  4  1  0  0  0  0
  9 14  1  0  0  0  0
 10  2  1  0  0  0  0
 11  8  1  0  0  0  0
 12  6  1  0  0  0  0
 13  7  1  0  0  0  0
 14 16  1  0  0  0  0
 15 10  1  0  0  0  0
 16 13  1  0  0  0  0
 20 17  1  0  0  0  0
  1 18  1  0  0  0  0
 19 12  1  0  0  0  0
 20 15  1  0  0  0  0
 21 28  1  0  0  0  0
 22  9  1  0  0  0  0
 23 30  1  0  0  0  0
 24  1  1  0  0  0  0
 25 18  2  0  0  0  0
 26 35  1  0  0  0  0
 27 17  1  0  0  0  0
 28 22  1  0  0  0  0
 29 25  1  0  0  0  0
 30 24  1  0  0  0  0
  2 31  1  0  0  0  0
 32  7  2  0  0  0  0
 33 31  1  0  0  0  0
 34 19  2  0  0  0  0
 35 36  1  0  0  0  0
 36 20  1  0  0  0  0
 16 37  1  6  0  0  0
 38 19  1  0  0  0  0
 26 39  1  1  0  0  0
 12 40  1  1  0  0  0
 29 41  1  6  0  0  0
 11 42  1  1  0  0  0
 13 43  1  1  0  0  0
 14 44  1  6  0  0  0
 15 45  1  6  0  0  0
 46 26  1  0  0  0  0
 21 47  1  6  0  0  0
 23 48  1  1  0  0  0
 22 49  1  1  0  0  0
 24 50  1  1  0  0  0
 27 51  1  6  0  0  0
 52 40  1  0  0  0  0
 53 42  1  0  0  0  0
 54 46  1  0  0  0  0
  8 23  1  0  0  0  0
  2 29  1  0  0  0  0
 15 33  1  0  0  0  0
 27 26  1  0  0  0  0
  6 21  1  0  0  0  0
 20 55  1  6  0  0  0
  9 56  1  6  0  0  0
  8 57  1  1  0  0  0
  6 58  1  1  0  0  0
M  END
> <DATABASE_ID>
DB11432

> <DATABASE_NAME>
drugbank

> <SMILES>
[H][C@@]1(CC[C@](O)(CC)[C@H](C)O1)[C@]1(C)CC[C@]2(O1)O[C@@]1(O[C@]([H])([C@@H](CC)C(=O)[C@@H](C)[C@@H](O)[C@H](C)[C@]3([H])O[C@@]([H])([C@@H](CC)C(O)=O)[C@@H](C)C[C@@H]3C)[C@@H](C)C[C@H]1C)C=C[C@H]2O

> <INCHI_IDENTIFIER>
InChI=1S/C43H72O11/c1-12-30(35(46)27(8)34(45)28(9)36-23(4)21-24(5)37(51-36)31(13-2)39(47)48)38-25(6)22-26(7)42(52-38)18-15-32(44)43(54-42)20-19-40(11,53-43)33-16-17-41(49,14-3)29(10)50-33/h15,18,23-34,36-38,44-45,49H,12-14,16-17,19-22H2,1-11H3,(H,47,48)/t23-,24-,25-,26+,27-,28-,29-,30-,31+,32+,33+,34+,36+,37+,38-,40-,41+,42-,43-/m0/s1

> <INCHI_KEY>
VHKXXVVRRDYCIK-CWCPJSEDSA-N

> <FORMULA>
C43H72O11

> <MOLECULAR_WEIGHT>
765.038

> <EXACT_MASS>
764.507463138

> <JCHEM_ACCEPTOR_COUNT>
11

> <JCHEM_ATOM_COUNT>
126

> <JCHEM_AVERAGE_POLARIZABILITY>
85.69351344750483

> <JCHEM_BIOAVAILABILITY>
0

> <JCHEM_DONOR_COUNT>
4

> <JCHEM_FORMAL_CHARGE>
0

> <JCHEM_GHOSE_FILTER>
0

> <JCHEM_IUPAC>
(2R)-2-[(2R,3S,5S,6R)-6-[(2S,3S,4S,6R)-6-[(2S,5S,7R,9S,10S,12R,15R)-2-[(2R,5R,6S)-5-ethyl-5-hydroxy-6-methyloxan-2-yl]-15-hydroxy-2,10,12-trimethyl-1,6,8-trioxadispiro[4.1.5^{7}.3^{5}]pentadec-13-en-9-yl]-3-hydroxy-4-methyl-5-oxooctan-2-yl]-3,5-dimethyloxan-2-yl]butanoic acid

> <ALOGPS_LOGP>
4.70

> <JCHEM_LOGP>
7.876819573333334

> <ALOGPS_LOGS>
-5.50

> <JCHEM_MDDR_LIKE_RULE>
1

> <JCHEM_NUMBER_OF_RINGS>
5

> <JCHEM_PHYSIOLOGICAL_CHARGE>
-1

> <JCHEM_PKA>
12.792016161416017

> <JCHEM_PKA_STRONGEST_ACIDIC>
4.497462203863578

> <JCHEM_PKA_STRONGEST_BASIC>
-3.0374300232770617

> <JCHEM_POLAR_SURFACE_AREA>
161.21

> <JCHEM_REFRACTIVITY>
204.53790000000012

> <JCHEM_ROTATABLE_BOND_COUNT>
12

> <JCHEM_RULE_OF_FIVE>
0

> <ALOGPS_SOLUBILITY>
2.41e-03 g/l

> <JCHEM_TRADITIONAL_IUPAC>
(2R)-2-[(2R,3S,5S,6R)-6-[(2S,3S,4S,6R)-6-[(2S,5S,7R,9S,10S,12R,15R)-2-[(2R,5R,6S)-5-ethyl-5-hydroxy-6-methyloxan-2-yl]-15-hydroxy-2,10,12-trimethyl-1,6,8-trioxadispiro[4.1.5^{7}.3^{5}]pentadec-13-en-9-yl]-3-hydroxy-4-methyl-5-oxooctan-2-yl]-3,5-dimethyloxan-2-yl]butanoic acid

> <JCHEM_VEBER_RULE>
0

> <DRUGBANK_ID>
DB11432

> <DRUG_GROUPS>
experimental; vet_approved

> <GENERIC_NAME>
Narasin

> <SYNONYMS>
Narasin; Narasin A; Narasine; Narasino; Narasinum

> <INTERNATIONAL_BRANDS>
Monteban (veterinary)

$$$$
