
  Mrv1652310201622382D          

 27 30  0  0  1  0            999 V2000
    4.2868   -1.6500    0.0000 C   0  0  0  0  0  0  0  0  0  0  0  0
    3.5724   -1.2375    0.0000 O   0  0  0  0  0  0  0  0  0  0  0  0
    2.8579   -1.6500    0.0000 C   0  0  0  0  0  0  0  0  0  0  0  0
    2.8579   -2.4750    0.0000 C   0  0  0  0  0  0  0  0  0  0  0  0
    2.1434   -2.8875    0.0000 C   0  0  0  0  0  0  0  0  0  0  0  0
    1.4289   -2.4750    0.0000 C   0  0  0  0  0  0  0  0  0  0  0  0
    1.4289   -1.6500    0.0000 C   0  0  0  0  0  0  0  0  0  0  0  0
    2.1434   -1.2375    0.0000 C   0  0  0  0  0  0  0  0  0  0  0  0
    0.7145   -1.2375    0.0000 N   0  0  0  0  0  0  0  0  0  0  0  0
    0.7145   -0.4125    0.0000 C   0  0  0  0  0  0  0  0  0  0  0  0
    0.0000    0.0000    0.0000 C   0  0  0  0  0  0  0  0  0  0  0  0
   -0.7846   -0.2549    0.0000 C   0  0  0  0  0  0  0  0  0  0  0  0
   -1.2695    0.4125    0.0000 C   0  0  0  0  0  0  0  0  0  0  0  0
   -0.7846    1.0799    0.0000 C   0  0  0  0  0  0  0  0  0  0  0  0
    0.0000    0.8250    0.0000 N   0  0  0  0  0  0  0  0  0  0  0  0
    0.7145    1.2375    0.0000 N   0  0  0  0  0  0  0  0  0  0  0  0
    1.4289    0.8250    0.0000 C   0  0  0  0  0  0  0  0  0  0  0  0
    1.4289    0.0000    0.0000 N   0  0  0  0  0  0  0  0  0  0  0  0
   -1.0396   -1.0396    0.0000 C   0  0  0  0  0  0  0  0  0  0  0  0
   -1.8465   -1.2111    0.0000 N   0  0  0  0  0  0  0  0  0  0  0  0
   -2.1015   -1.9957    0.0000 C   0  0  0  0  0  0  0  0  0  0  0  0
   -2.9084   -2.1672    0.0000 C   0  0  0  0  0  0  0  0  0  0  0  0
   -3.4605   -1.5541    0.0000 C   0  0  2  0  0  0  0  0  0  0  0  0
   -3.2055   -0.7695    0.0000 C   0  0  1  0  0  0  0  0  0  0  0  0
   -2.3986   -0.5980    0.0000 C   0  0  0  0  0  0  0  0  0  0  0  0
   -3.7576   -0.1564    0.0000 O   0  0  0  0  0  0  0  0  0  0  0  0
   -4.2674   -1.7257    0.0000 N   0  0  0  0  0  0  0  0  0  0  0  0
  1  2  1  0  0  0  0
  2  3  1  0  0  0  0
  3  4  2  0  0  0  0
  4  5  1  0  0  0  0
  5  6  2  0  0  0  0
  6  7  1  0  0  0  0
  7  8  2  0  0  0  0
  3  8  1  0  0  0  0
  7  9  1  0  0  0  0
  9 10  1  0  0  0  0
 10 11  1  0  0  0  0
 11 12  2  0  0  0  0
 12 13  1  0  0  0  0
 13 14  2  0  0  0  0
 14 15  1  0  0  0  0
 11 15  1  0  0  0  0
 15 16  1  0  0  0  0
 16 17  2  0  0  0  0
 17 18  1  0  0  0  0
 10 18  2  0  0  0  0
 12 19  1  0  0  0  0
 19 20  1  0  0  0  0
 20 21  1  0  0  0  0
 21 22  1  0  0  0  0
 22 23  1  0  0  0  0
 23 24  1  0  0  0  0
 24 25  1  0  0  0  0
 20 25  1  0  0  0  0
 24 26  1  6  0  0  0
 23 27  1  1  0  0  0
M  END
> <DATABASE_ID>
DB11665

> <DATABASE_NAME>
drugbank

> <SMILES>
COC1=CC=CC(NC2=NC=NN3C=CC(CN4CC[C@@H](N)[C@H](O)C4)=C23)=C1

> <INCHI_IDENTIFIER>
InChI=1S/C19H24N6O2/c1-27-15-4-2-3-14(9-15)23-19-18-13(5-8-25(18)22-12-21-19)10-24-7-6-16(20)17(26)11-24/h2-5,8-9,12,16-17,26H,6-7,10-11,20H2,1H3,(H,21,22,23)/t16-,17-/m1/s1

> <INCHI_KEY>
CSGQVNMSRKWUSH-IAGOWNOFSA-N

> <FORMULA>
C19H24N6O2

> <MOLECULAR_WEIGHT>
368.441

> <EXACT_MASS>
368.196074037

> <JCHEM_ACCEPTOR_COUNT>
7

> <JCHEM_ATOM_COUNT>
51

> <JCHEM_AVERAGE_POLARIZABILITY>
39.55476901788086

> <JCHEM_BIOAVAILABILITY>
1

> <JCHEM_DONOR_COUNT>
3

> <JCHEM_FORMAL_CHARGE>
0

> <JCHEM_GHOSE_FILTER>
1

> <JCHEM_IUPAC>
(3R,4R)-4-amino-1-({4-[(3-methoxyphenyl)amino]pyrrolo[2,1-f][1,2,4]triazin-5-yl}methyl)piperidin-3-ol

> <ALOGPS_LOGP>
1.00

> <JCHEM_LOGP>
1.1363369816666666

> <ALOGPS_LOGS>
-3.08

> <JCHEM_MDDR_LIKE_RULE>
0

> <JCHEM_NUMBER_OF_RINGS>
4

> <JCHEM_PHYSIOLOGICAL_CHARGE>
1

> <JCHEM_PKA>
14.769394961007361

> <JCHEM_PKA_STRONGEST_ACIDIC>
14.086946786272385

> <JCHEM_PKA_STRONGEST_BASIC>
9.510346211510582

> <JCHEM_POLAR_SURFACE_AREA>
100.94

> <JCHEM_REFRACTIVITY>
115.08359999999996

> <JCHEM_ROTATABLE_BOND_COUNT>
5

> <JCHEM_RULE_OF_FIVE>
1

> <ALOGPS_SOLUBILITY>
3.06e-01 g/l

> <JCHEM_TRADITIONAL_IUPAC>
(3R,4R)-4-amino-1-({4-[(3-methoxyphenyl)amino]pyrrolo[2,1-f][1,2,4]triazin-5-yl}methyl)piperidin-3-ol

> <JCHEM_VEBER_RULE>
0

> <DRUGBANK_ID>
DB11665

> <DRUG_GROUPS>
investigational

> <GENERIC_NAME>
BMS-690514

$$$$
