
  Mrv1652310211604452D          

  1  0  0  0  0  0            999 V2000
    0.0000    0.0000    0.0000 Y   0  0  0  0  0  0  0  0  0  0  0  0
M  ISO  1   1  90
M  END
> <DATABASE_ID>
DB13076

> <DATABASE_NAME>
drugbank

> <SMILES>
[90Y]

> <INCHI_IDENTIFIER>
InChI=1S/Y/i1+1

> <INCHI_KEY>
VWQVUPCCIRVNHF-OUBTZVSYSA-N

> <FORMULA>
Y

> <MOLECULAR_WEIGHT>
89.9072

> <EXACT_MASS>
89.907151443

> <JCHEM_ACCEPTOR_COUNT>
0

> <JCHEM_ATOM_COUNT>
1

> <JCHEM_AVERAGE_POLARIZABILITY>
1.7784

> <JCHEM_BIOAVAILABILITY>
1

> <JCHEM_DONOR_COUNT>
0

> <JCHEM_FORMAL_CHARGE>
0

> <JCHEM_GHOSE_FILTER>
0

> <JCHEM_IUPAC>
(90Y)yttrium

> <JCHEM_LOGP>
0.0

> <JCHEM_MDDR_LIKE_RULE>
0

> <JCHEM_NUMBER_OF_RINGS>
0

> <JCHEM_PHYSIOLOGICAL_CHARGE>
0

> <JCHEM_POLAR_SURFACE_AREA>
0.0

> <JCHEM_REFRACTIVITY>
0.0

> <JCHEM_ROTATABLE_BOND_COUNT>
0

> <JCHEM_RULE_OF_FIVE>
1

> <JCHEM_TRADITIONAL_IUPAC>
(90Y)yttrium

> <JCHEM_VEBER_RULE>
1

> <DRUGBANK_ID>
DB13076

> <DRUG_GROUPS>
approved; investigational

> <GENERIC_NAME>
Yttrium Y-90

> <SYNONYMS>
Yttrium (90 Y); Yttrium (90Y); Yttrium Y 90; Yttrium-90

> <PRODUCTS>
Ytracis; Yttriga

> <SALTS>
Yttrium-90 chloride; Yttrium-90 citrate

$$$$
