
  Mrv1909 03172200582D          

 16 16  0  0  0  0            999 V2000
   -1.7861    2.4750    0.0000 C   0  0  0  0  0  0  0  0  0  0  0  0
   -0.3572    0.0000    0.0000 C   0  0  0  0  0  0  0  0  0  0  0  0
    1.7861   -1.2375    0.0000 C   0  0  0  0  0  0  0  0  0  0  0  0
    1.7861   -0.4125    0.0000 C   0  0  0  0  0  0  0  0  0  0  0  0
   -0.3572    0.8250    0.0000 C   0  0  0  0  0  0  0  0  0  0  0  0
    0.3572   -1.2375    0.0000 C   0  0  0  0  0  0  0  0  0  0  0  0
    0.3572   -0.4125    0.0000 C   0  0  0  0  0  0  0  0  0  0  0  0
    1.0717   -1.6500    0.0000 C   0  0  0  0  0  0  0  0  0  0  0  0
    1.0717    0.0000    0.0000 C   0  0  0  0  0  0  0  0  0  0  0  0
   -1.0717    1.2375    0.0000 C   0  0  0  0  0  0  0  0  0  0  0  0
    1.0717   -2.4750    0.0000 O   0  0  0  0  0  0  0  0  0  0  0  0
    1.0717    0.8250    0.0000 O   0  0  0  0  0  0  0  0  0  0  0  0
   -1.7861    0.8250    0.0000 O   0  0  0  0  0  0  0  0  0  0  0  0
   -1.0717    2.0625    0.0000 O   0  0  0  0  0  0  0  0  0  0  0  0
   -1.0717   -0.4125    0.0000 H   0  0  0  0  0  0  0  0  0  0  0  0
    0.3572    1.2375    0.0000 H   0  0  0  0  0  0  0  0  0  0  0  0
  4  3  1  0  0  0  0
  5  2  2  0  0  0  0
  7  2  1  0  0  0  0
  7  6  2  0  0  0  0
  8  3  2  0  0  0  0
  8  6  1  0  0  0  0
  9  4  2  0  0  0  0
  9  7  1  0  0  0  0
 10  5  1  0  0  0  0
 11  8  1  0  0  0  0
 12  9  1  0  0  0  0
 13 10  2  0  0  0  0
 14  1  1  0  0  0  0
 14 10  1  0  0  0  0
 15  2  1  0  0  0  0
 16  5  1  0  0  0  0
M  END
> <DATABASE_ID>
DB16769

> <DATABASE_NAME>
drugbank

> <SMILES>
[H]\C(=C(\[H])C1=CC(O)=CC=C1O)C(=O)OC

> <INCHI_IDENTIFIER>
InChI=1S/C10H10O4/c1-14-10(13)5-2-7-6-8(11)3-4-9(7)12/h2-6,11-12H,1H3/b5-2+

> <INCHI_KEY>
BQCNSTFWSKOWMA-GORDUTHDSA-N

> <FORMULA>
C10H10O4

> <MOLECULAR_WEIGHT>
194.186

> <EXACT_MASS>
194.057908802

> <JCHEM_ACCEPTOR_COUNT>
3

> <JCHEM_ATOM_COUNT>
24

> <JCHEM_AVERAGE_NEUTRAL_MICROSPECIES_CHARGE>
-3.3695837644785733e-10

> <JCHEM_AVERAGE_POLARIZABILITY>
19.388058983376354

> <JCHEM_BIOAVAILABILITY>
1

> <JCHEM_DONOR_COUNT>
2

> <JCHEM_FORMAL_CHARGE>
0

> <JCHEM_GHOSE_FILTER>
1

> <JCHEM_IUPAC>
methyl (2E)-3-(2,5-dihydroxyphenyl)prop-2-enoate

> <ALOGPS_LOGP>
2.03

> <JCHEM_LOGP>
1.9081830060000002

> <ALOGPS_LOGS>
-2.10

> <JCHEM_MDDR_LIKE_RULE>
0

> <JCHEM_NEUTRAL_CHARGE>
0

> <JCHEM_NUMBER_OF_RINGS>
1

> <JCHEM_PHYSIOLOGICAL_CHARGE>
0

> <JCHEM_PKA>
11.325139538256966

> <JCHEM_PKA_STRONGEST_ACIDIC>
9.48246932168149

> <JCHEM_PKA_STRONGEST_BASIC>
-5.9002273621825765

> <JCHEM_POLAR_SURFACE_AREA>
66.76

> <JCHEM_REFRACTIVITY>
51.79080000000001

> <JCHEM_ROTATABLE_BOND_COUNT>
3

> <JCHEM_RULE_OF_FIVE>
1

> <ALOGPS_SOLUBILITY>
1.55e+00 g/l

> <JCHEM_TRADITIONAL_IUPAC>
methyl (2E)-3-(2,5-dihydroxyphenyl)prop-2-enoate

> <JCHEM_VEBER_RULE>
0

> <DRUGBANK_ID>
DB16769

> <DRUG_GROUPS>
experimental

> <GENERIC_NAME>
Methyl 2,5-dihydroxycinnamate

> <SYNONYMS>
2,4-Dihydroxymethylcinnamate; Methyl-2,5-dihydroxycinnamate

$$$$
