
  Mrv1652309121709232D          

 12 11  0  0  1  0            999 V2000
    5.8559    2.5559    0.0000 C   0  0  0  0  0  0  0  0  0  0  0  0
    5.1414    2.1434    0.0000 C   0  0  0  0  0  0  0  0  0  0  0  0
    4.4270    2.5559    0.0000 C   0  0  1  0  0  0  0  0  0  0  0  0
    3.7125    2.1434    0.0000 C   0  0  0  0  0  0  0  0  0  0  0  0
    2.9980    2.5559    0.0000 O   0  0  0  0  0  0  0  0  0  0  0  0
    3.7125    1.3184    0.0000 O   0  0  0  0  0  0  0  0  0  0  0  0
    4.4270    3.3809    0.0000 N   0  0  0  0  0  0  0  0  0  0  0  0
    6.5704    2.1434    0.0000 C   0  0  0  0  0  0  0  0  0  0  0  0
    7.2849    2.5559    0.0000 N   0  0  0  0  0  0  0  0  0  0  0  0
    7.9993    2.1434    0.0000 C   0  0  0  0  0  0  0  0  0  0  0  0
    8.7138    2.5559    0.0000 O   0  0  0  0  0  0  0  0  0  0  0  0
    7.9993    1.3184    0.0000 N   0  0  0  0  0  0  0  0  0  0  0  0
  1  2  1  0  0  0  0
  2  3  1  0  0  0  0
  3  4  1  0  0  0  0
  4  5  2  0  0  0  0
  4  6  1  0  0  0  0
  3  7  1  1  0  0  0
  1  8  1  0  0  0  0
  8  9  1  0  0  0  0
  9 10  1  0  0  0  0
 10 11  2  0  0  0  0
 10 12  1  0  0  0  0
M  END
> <DATABASE_ID>
DB00155

> <DATABASE_NAME>
drugbank

> <SMILES>
N[C@@H](CCCNC(N)=O)C(O)=O

> <INCHI_IDENTIFIER>
InChI=1S/C6H13N3O3/c7-4(5(10)11)2-1-3-9-6(8)12/h4H,1-3,7H2,(H,10,11)(H3,8,9,12)/t4-/m0/s1

> <INCHI_KEY>
RHGKLRLOHDJJDR-BYPYZUCNSA-N

> <FORMULA>
C6H13N3O3

> <MOLECULAR_WEIGHT>
175.1857

> <EXACT_MASS>
175.095691297

> <JCHEM_ACCEPTOR_COUNT>
4

> <JCHEM_ATOM_COUNT>
25

> <JCHEM_AVERAGE_POLARIZABILITY>
17.34757818367823

> <JCHEM_BIOAVAILABILITY>
1

> <JCHEM_DONOR_COUNT>
4

> <JCHEM_FORMAL_CHARGE>
0

> <JCHEM_GHOSE_FILTER>
0

> <JCHEM_IUPAC>
(2S)-2-amino-5-(carbamoylamino)pentanoic acid

> <ALOGPS_LOGP>
-3.27

> <JCHEM_LOGP>
-3.9319578381140263

> <ALOGPS_LOGS>
-0.90

> <JCHEM_MDDR_LIKE_RULE>
0

> <JCHEM_NUMBER_OF_RINGS>
0

> <JCHEM_PHYSIOLOGICAL_CHARGE>
0

> <JCHEM_PKA>
15.333969157335531

> <JCHEM_PKA_STRONGEST_ACIDIC>
2.2682474980163243

> <JCHEM_PKA_STRONGEST_BASIC>
9.225134668659093

> <JCHEM_POLAR_SURFACE_AREA>
118.43999999999998

> <JCHEM_REFRACTIVITY>
41.329

> <JCHEM_ROTATABLE_BOND_COUNT>
5

> <JCHEM_RULE_OF_FIVE>
1

> <ALOGPS_SOLUBILITY>
2.18e+01 g/l

> <JCHEM_TRADITIONAL_IUPAC>
L-citrulline

> <JCHEM_VEBER_RULE>
0

> <DRUGBANK_ID>
DB00155

> <SECONDARY_ACCESSION_NUMBERS>
NUTR00021

> <DRUG_GROUPS>
investigational; nutraceutical

> <GENERIC_NAME>
Citrulline

> <SYNONYMS>
(S)-2-Amino-5-ureidopentanoic acid; 2-Amino-5-ureidovaleric acid; alpha-amino-delta-Ureidovaleric acid; Cit; Citrulina; Citrulline; delta-Ureidonorvaline; L-2-Amino-5-ureidovaleric acid; L-Citrulline; N(5)-(Aminocarbonyl)-L-ornithine; N(delta)-Carbamylornithine; N5-(Aminocarbonyl)ornithine; N5-Carbamoyl-L-ornithine; N5-carbamoylornithine; α-amino-δ-ureidovaleric acid; δ-ureidonorvaline

> <PRODUCTS>
Lipovite; tensioSAN

> <SALTS>
Citrulline malate

$$$$
