
  Mrv1909 12222218172D          

 28 32  0  0  0  0            999 V2000
    0.3758    0.3257    0.0000 C   0  0  0  0  0  0  0  0  0  0  0  0
    0.8068   -0.3777    0.0000 C   0  0  0  0  0  0  0  0  0  0  0  0
    1.6293   -0.4425    0.0000 C   0  0  0  0  0  0  0  0  0  0  0  0
    2.1364    0.2082    0.0000 N   0  0  0  0  0  0  0  0  0  0  0  0
    2.9614    0.2175    0.0000 C   0  0  0  0  0  0  0  0  0  0  0  0
    3.3110    0.9647    0.0000 C   0  0  0  0  0  0  0  0  0  0  0  0
    2.8387    1.6411    0.0000 C   0  0  0  0  0  0  0  0  0  0  0  0
    3.1883    2.3884    0.0000 C   0  0  0  0  0  0  0  0  0  0  0  0
    4.0103    2.4592    0.0000 C   0  0  0  0  0  0  0  0  0  0  0  0
    4.4826    1.7828    0.0000 C   0  0  0  0  0  0  0  0  0  0  0  0
    4.1330    1.0356    0.0000 C   0  0  0  0  0  0  0  0  0  0  0  0
    4.6053    0.3591    0.0000 Cl  0  0  0  0  0  0  0  0  0  0  0  0
    3.4829   -0.4218    0.0000 C   0  0  0  0  0  0  0  0  0  0  0  0
    3.3084   -1.2281    0.0000 C   0  0  0  0  0  0  0  0  0  0  0  0
    2.5691   -1.5943    0.0000 N   0  0  0  0  0  0  0  0  0  0  0  0
    1.8219   -1.2447    0.0000 C   0  0  0  0  0  0  0  0  0  0  0  0
    1.1184   -1.6757    0.0000 N   0  0  0  0  0  0  0  0  0  0  0  0
    0.4911   -1.1399    0.0000 N   0  0  0  0  0  0  0  0  0  0  0  0
    3.9194   -1.7824    0.0000 C   0  0  0  0  0  0  0  0  0  0  0  0
    4.7050   -1.5305    0.0000 C   0  0  0  0  0  0  0  0  0  0  0  0
    4.8795   -0.7241    0.0000 N   0  0  0  0  0  0  0  0  0  0  0  0
    4.2685   -0.1698    0.0000 C   0  0  0  0  0  0  0  0  0  0  0  0
    5.3160   -2.0848    0.0000 N   0  0  0  0  0  0  0  0  0  0  0  0
    6.1015   -1.8328    0.0000 C   0  0  0  0  0  0  0  0  0  0  0  0
    6.7125   -2.3872    0.0000 C   0  0  0  0  0  0  0  0  0  0  0  0
    6.5380   -3.1935    0.0000 O   0  0  0  0  0  0  0  0  0  0  0  0
    5.7524   -3.4455    0.0000 C   0  0  0  0  0  0  0  0  0  0  0  0
    5.1414   -2.8911    0.0000 C   0  0  0  0  0  0  0  0  0  0  0  0
  1  2  1  0  0  0  0
  2  3  2  0  0  0  0
  3  4  1  0  0  0  0
  4  5  2  0  0  0  0
  5  6  1  0  0  0  0
  6  7  2  0  0  0  0
  7  8  1  0  0  0  0
  8  9  2  0  0  0  0
  9 10  1  0  0  0  0
 10 11  2  0  0  0  0
  6 11  1  0  0  0  0
 11 12  1  0  0  0  0
  5 13  1  0  0  0  0
 13 14  2  0  0  0  0
 14 15  1  0  0  0  0
 15 16  1  0  0  0  0
  3 16  1  0  0  0  0
 16 17  2  0  0  0  0
 17 18  1  0  0  0  0
  2 18  1  0  0  0  0
 14 19  1  0  0  0  0
 19 20  2  0  0  0  0
 20 21  1  0  0  0  0
 21 22  2  0  0  0  0
 13 22  1  0  0  0  0
 20 23  1  0  0  0  0
 23 24  1  0  0  0  0
 24 25  1  0  0  0  0
 25 26  1  0  0  0  0
 26 27  1  0  0  0  0
 27 28  1  0  0  0  0
 23 28  1  0  0  0  0
M  END
> <DATABASE_ID>
DB17384

> <DATABASE_NAME>
drugbank

> <SMILES>
CC1=C2N=C(C3=CC=CC=C3Cl)C3=C(NC2=NN1)C=C(N=C3)N1CCOCC1

> <INCHI_IDENTIFIER>
InChI=1S/C20H19ClN6O/c1-12-18-20(26-25-12)23-16-10-17(27-6-8-28-9-7-27)22-11-14(16)19(24-18)13-4-2-3-5-15(13)21/h2-5,10-11H,6-9H2,1H3,(H2,23,25,26)

> <INCHI_KEY>
DQFCVOOFMXEPOC-UHFFFAOYSA-N

> <FORMULA>
C20H19ClN6O

> <MOLECULAR_WEIGHT>
394.86

> <EXACT_MASS>
394.130887

> <DRUGBANK_ID>
DB17384

> <DRUG_GROUPS>
investigational

> <GENERIC_NAME>
Tinengotinib

> <SYNONYMS>
4-(5-(2-Chlorophenyl)-3-Methyl-2,10-Dihydropyrazolo[4,3-B] Pyrido[4,3-E][1,4]Diazepin-8-Yl) Morpholine; 5-(2-chlorophenyl)-3-methyl-8-(morpholin-4-yl)-1,10-dihydropyrazolo[4,3-b]pyrido[4,3-e][1,4]diazepine; Pyrazolo(4,3-b)pyrido(4,3-e)(1,4)diazepine, 5-(2-chlorophenyl)-1,2-dihydro-3-methyl-8-(4-morpholinyl)-

$$$$
