
  Mrv1533004241520362D          

 23 26  0  0  0  0            999 V2000
    3.8598    2.4186    0.0000 C   0  0  0  0  0  0  0  0  0  0  0  0
    4.3228    1.7357    0.0000 C   0  0  0  0  0  0  0  0  0  0  0  0
    3.9629    0.9934    0.0000 C   0  0  0  0  0  0  0  0  0  0  0  0
    3.4311    1.6241    0.0000 C   0  0  0  0  0  0  0  0  0  0  0  0
    2.6190    1.4789    0.0000 C   0  0  0  0  0  0  0  0  0  0  0  0
    2.3387    0.7029    0.0000 C   0  0  0  0  0  0  0  0  0  0  0  0
    2.8705    0.0722    0.0000 C   0  0  0  0  0  0  0  0  0  0  0  0
    3.6826    0.2174    0.0000 C   0  0  0  0  0  0  0  0  0  0  0  0
    4.3340   -0.2889    0.0000 C   0  0  0  0  0  0  0  0  0  0  0  0
    5.0168    0.1741    0.0000 C   0  0  0  0  0  0  0  0  0  0  0  0
    4.7875    0.9666    0.0000 C   0  0  0  0  0  0  0  0  0  0  0  0
    5.5484    1.2854    0.0000 C   0  0  0  0  0  0  0  0  0  0  0  0
    6.3093    1.6043    0.0000 C   0  0  0  0  0  0  0  0  0  0  0  0
    4.9089    1.7826    0.0000 O   0  0  0  0  0  0  0  0  0  0  0  0
    2.5902   -0.7037    0.0000 C   0  0  0  0  0  0  0  0  0  0  0  0
    1.7781   -0.8489    0.0000 C   0  0  0  0  0  0  0  0  0  0  0  0
    1.2463   -0.2182    0.0000 C   0  0  0  0  0  0  0  0  0  0  0  0
    0.4342   -0.3634    0.0000 C   0  0  0  0  0  0  0  0  0  0  0  0
   -0.0976    0.2673    0.0000 C   0  0  0  0  0  0  0  0  0  0  0  0
   -0.9098    0.1221    0.0000 O   0  0  0  0  0  0  0  0  0  0  0  0
    0.1827    1.0432    0.0000 C   0  0  0  0  0  0  0  0  0  0  0  0
    0.9948    1.1884    0.0000 C   0  0  0  0  0  0  0  0  0  0  0  0
    1.5266    0.5577    0.0000 C   0  0  0  0  0  0  0  0  0  0  0  0
  1  2  1  0  0  0  0
  2  3  1  0  0  0  0
  3  4  1  0  0  0  0
  4  5  1  0  0  0  0
  5  6  1  0  0  0  0
  6  7  1  0  0  0  0
  7  8  1  0  0  0  0
  3  8  1  0  0  0  0
  8  9  1  0  0  0  0
  9 10  1  0  0  0  0
 10 11  1  0  0  0  0
  3 11  1  0  0  0  0
 11 12  1  0  0  0  0
 12 13  3  0  0  0  0
 11 14  1  0  0  0  0
  7 15  1  0  0  0  0
 15 16  1  0  0  0  0
 16 17  1  0  0  0  0
 17 18  2  0  0  0  0
 18 19  1  0  0  0  0
 19 20  2  0  0  0  0
 19 21  1  0  0  0  0
 21 22  1  0  0  0  0
 22 23  1  0  0  0  0
  6 23  1  0  0  0  0
 17 23  1  0  0  0  0
M  END
> <DATABASE_ID>
DB09389

> <DATABASE_NAME>
drugbank

> <SMILES>
CCC12CCC3C(CCC4=CC(=O)CCC34)C1CCC2(O)C#C

> <INCHI_IDENTIFIER>
InChI=1S/C21H28O2/c1-3-20-11-9-17-16-8-6-15(22)13-14(16)5-7-18(17)19(20)10-12-21(20,23)4-2/h2,13,16-19,23H,3,5-12H2,1H3

> <INCHI_KEY>
WWYNJERNGUHSAO-UHFFFAOYSA-N

> <FORMULA>
C21H28O2

> <MOLECULAR_WEIGHT>
312.453

> <EXACT_MASS>
312.208930142

> <JCHEM_ACCEPTOR_COUNT>
2

> <JCHEM_ATOM_COUNT>
51

> <JCHEM_AVERAGE_POLARIZABILITY>
36.83073886351822

> <JCHEM_BIOAVAILABILITY>
1

> <JCHEM_DONOR_COUNT>
1

> <JCHEM_FORMAL_CHARGE>
0

> <JCHEM_GHOSE_FILTER>
1

> <JCHEM_IUPAC>
15-ethyl-14-ethynyl-14-hydroxytetracyclo[8.7.0.0²,⁷.0¹¹,¹⁵]heptadec-6-en-5-one

> <ALOGPS_LOGP>
3.25

> <JCHEM_LOGP>
3.6617966023333337

> <ALOGPS_LOGS>
-4.73

> <JCHEM_MDDR_LIKE_RULE>
0

> <JCHEM_NUMBER_OF_RINGS>
4

> <JCHEM_PHYSIOLOGICAL_CHARGE>
0

> <JCHEM_PKA>
19.27817248474075

> <JCHEM_PKA_STRONGEST_ACIDIC>
17.909290746374914

> <JCHEM_PKA_STRONGEST_BASIC>
-1.526003464744241

> <JCHEM_POLAR_SURFACE_AREA>
37.3

> <JCHEM_REFRACTIVITY>
92.02549999999998

> <JCHEM_ROTATABLE_BOND_COUNT>
1

> <JCHEM_RULE_OF_FIVE>
1

> <ALOGPS_SOLUBILITY>
5.83e-03 g/l

> <JCHEM_TRADITIONAL_IUPAC>
methylnorethindrone

> <JCHEM_VEBER_RULE>
1

> <DRUGBANK_ID>
DB09389

> <DRUG_GROUPS>
approved

> <GENERIC_NAME>
Norgestrel

> <SYNONYMS>
17-ethynyl-17-hydroxy-18a-homoestr-4-en-3-one; LD norgestrel; Methylnorethindrone; Norgestrel; Norgestrelum

> <PRODUCTS>
Cryselle; Elinest; Lo-femenal 21 Tablets; Lo-ovral-28; Lo/Ovral; Lo/Ovral-28; Lo/ovral-28; Low-Ogestrel; Norgestrel/Ethinyl Estradiol; Ogestrel; Ovral 21; Ovral 21 Tab; Ovral 28 Tablets; Ovral 28tab; Ovrette Tablets

$$$$
