
  Mrv1572004191603142D          

 22 24  0  0  0  0            999 V2000
   -2.2673   -1.0568    0.0000 C   0  0  0  0  0  0  0  0  0  0  0  0
   -1.4604   -0.8853    0.0000 C   0  0  0  0  0  0  0  0  0  0  0  0
    4.9279    1.1104    0.0000 C   0  0  0  0  0  0  0  0  0  0  0  0
    4.9279    1.9354    0.0000 C   0  0  0  0  0  0  0  0  0  0  0  0
    4.2135    0.6979    0.0000 C   0  0  0  0  0  0  0  0  0  0  0  0
    4.2135    2.3479    0.0000 C   0  0  0  0  0  0  0  0  0  0  0  0
    3.4990    1.1104    0.0000 C   0  0  0  0  0  0  0  0  0  0  0  0
    1.3556    0.6979    0.0000 C   0  0  0  0  0  0  0  0  0  0  0  0
    2.0701    1.1104    0.0000 C   0  0  0  0  0  0  0  0  0  0  0  0
    2.7845    2.3479    0.0000 C   0  0  0  0  0  0  0  0  0  0  0  0
    1.3556    2.3479    0.0000 C   0  0  0  0  0  0  0  0  0  0  0  0
    3.4990    1.9354    0.0000 C   0  0  0  0  0  0  0  0  0  0  0  0
    0.6411    1.1104    0.0000 C   0  0  0  0  0  0  0  0  0  0  0  0
    0.6411    1.9354    0.0000 C   0  0  0  0  0  0  0  0  0  0  0  0
   -0.1435    0.8555    0.0000 C   0  0  0  0  0  0  0  0  0  0  0  0
   -0.6284    1.5229    0.0000 C   0  0  0  0  0  0  0  0  0  0  0  0
   -0.3984    0.0709    0.0000 C   0  0  0  0  0  0  0  0  0  0  0  0
   -1.4534    1.5229    0.0000 N   0  0  0  0  0  0  0  0  0  0  0  0
    2.0701    1.9354    0.0000 N   0  0  0  0  0  0  0  0  0  0  0  0
    0.1536   -0.5422    0.0000 O   0  0  0  0  0  0  0  0  0  0  0  0
   -1.2054   -0.1006    0.0000 O   0  0  0  0  0  0  0  0  0  0  0  0
   -0.1435    2.1904    0.0000 S   0  0  0  0  0  0  0  0  0  0  0  0
  2  1  1  0  0  0  0
  4  3  2  0  0  0  0
  5  3  1  0  0  0  0
  6  4  1  0  0  0  0
  7  5  2  0  0  0  0
  9  8  1  0  0  0  0
 12  6  2  0  0  0  0
 12  7  1  0  0  0  0
 12 10  1  0  0  0  0
 13  8  1  0  0  0  0
 14 11  1  0  0  0  0
 14 13  2  0  0  0  0
 15 13  1  0  0  0  0
 16 15  2  0  0  0  0
 17 15  1  0  0  0  0
 18 16  1  0  0  0  0
 19  9  1  0  0  0  0
 19 10  1  0  0  0  0
 19 11  1  0  0  0  0
 20 17  2  0  0  0  0
 21  2  1  0  0  0  0
 21 17  1  0  0  0  0
 22 14  1  0  0  0  0
 22 16  1  0  0  0  0
M  END
> <DATABASE_ID>
DB13001

> <DATABASE_NAME>
drugbank

> <SMILES>
CCOC(=O)C1=C(N)SC2=C1CCN(CC1=CC=CC=C1)C2

> <INCHI_IDENTIFIER>
InChI=1S/C17H20N2O2S/c1-2-21-17(20)15-13-8-9-19(11-14(13)22-16(15)18)10-12-6-4-3-5-7-12/h3-7H,2,8-11,18H2,1H3

> <INCHI_KEY>
PFENFDGYVLAFBR-UHFFFAOYSA-N

> <FORMULA>
C17H20N2O2S

> <MOLECULAR_WEIGHT>
316.42

> <EXACT_MASS>
316.124549066

> <JCHEM_ACCEPTOR_COUNT>
3

> <JCHEM_ATOM_COUNT>
42

> <JCHEM_AVERAGE_POLARIZABILITY>
34.64435646530739

> <JCHEM_BIOAVAILABILITY>
1

> <JCHEM_DONOR_COUNT>
1

> <JCHEM_FORMAL_CHARGE>
0

> <JCHEM_GHOSE_FILTER>
1

> <JCHEM_IUPAC>
ethyl 2-amino-6-benzyl-4H,5H,6H,7H-thieno[2,3-c]pyridine-3-carboxylate

> <ALOGPS_LOGP>
3.20

> <JCHEM_LOGP>
3.9392405159999995

> <ALOGPS_LOGS>
-4.18

> <JCHEM_MDDR_LIKE_RULE>
0

> <JCHEM_NUMBER_OF_RINGS>
3

> <JCHEM_PHYSIOLOGICAL_CHARGE>
1

> <JCHEM_PKA_STRONGEST_ACIDIC>
17.64624117965678

> <JCHEM_PKA_STRONGEST_BASIC>
7.30995677262561

> <JCHEM_POLAR_SURFACE_AREA>
55.56

> <JCHEM_REFRACTIVITY>
90.04699999999998

> <JCHEM_ROTATABLE_BOND_COUNT>
5

> <JCHEM_RULE_OF_FIVE>
1

> <ALOGPS_SOLUBILITY>
2.10e-02 g/l

> <JCHEM_TRADITIONAL_IUPAC>
tinoridine

> <JCHEM_VEBER_RULE>
0

> <DRUGBANK_ID>
DB13001

> <DRUG_GROUPS>
investigational

> <GENERIC_NAME>
Tinoridine

> <SYNONYMS>
Tinoridine

> <SALTS>
Tinoridine hydrochloride

$$$$
