
  Mrv1909 08212016472D          

  2  1  0  0  0  0            999 V2000
    0.4125   -0.0015    0.0000 I   0  0  0  0  0  0  0  0  0  0  0  0
   -0.4125    0.0015    0.0000 H   0  0  0  0  0  0  0  0  0  0  0  0
  1  2  1  0  0  0  0
M  END
> <DATABASE_ID>
DB15778

> <DATABASE_NAME>
drugbank

> <SMILES>
I[H]

> <INCHI_IDENTIFIER>
InChI=1S/HI/h1H

> <INCHI_KEY>
XMBWDFGMSWQBCA-UHFFFAOYSA-N

> <FORMULA>
HI

> <MOLECULAR_WEIGHT>
127.912

> <EXACT_MASS>
127.9123

> <JCHEM_ACCEPTOR_COUNT>
0

> <JCHEM_ATOM_COUNT>
2

> <JCHEM_AVERAGE_NEUTRAL_MICROSPECIES_CHARGE>
-1.0

> <JCHEM_AVERAGE_POLARIZABILITY>
5.527461071279427

> <JCHEM_BIOAVAILABILITY>
1

> <JCHEM_DONOR_COUNT>
0

> <JCHEM_FORMAL_CHARGE>
0

> <JCHEM_GHOSE_FILTER>
0

> <JCHEM_IUPAC>
hydrogen iodide

> <JCHEM_LOGP>
1.02055578

> <JCHEM_MDDR_LIKE_RULE>
0

> <JCHEM_NEUTRAL_CHARGE>
-1

> <JCHEM_NUMBER_OF_RINGS>
0

> <JCHEM_PHYSIOLOGICAL_CHARGE>
-1

> <JCHEM_PKA_STRONGEST_ACIDIC>
-8.999999999999998

> <JCHEM_POLAR_SURFACE_AREA>
0.0

> <JCHEM_REFRACTIVITY>
14.7462

> <JCHEM_ROTATABLE_BOND_COUNT>
0

> <JCHEM_RULE_OF_FIVE>
1

> <JCHEM_TRADITIONAL_IUPAC>
unii-71TH42O2CQ

> <JCHEM_VEBER_RULE>
1

> <DRUGBANK_ID>
DB15778

> <DRUG_GROUPS>
experimental

> <GENERIC_NAME>
Hydrogen iodide

> <SYNONYMS>
Acide iodhydrique; Acido yodhidrico; Hydriodic acid; Hydrogen iodide, anhydrous

$$$$
