
  Mrv1652310211603512D          

  1  0  0  0  0  0            999 V2000
    0.0000    0.0000    0.0000 Bk  0  0  0  0  0  0  0  0  0  0  0  0
M  END
> <DATABASE_ID>
DB12993

> <DATABASE_NAME>
drugbank

> <SMILES>
[Bk]

> <INCHI_IDENTIFIER>
InChI=1S/Bk

> <INCHI_KEY>
PWVKJRSRVJTHTR-UHFFFAOYSA-N

> <FORMULA>
Bk

> <MOLECULAR_WEIGHT>
247.0

> <EXACT_MASS>
247.0

> <JCHEM_ACCEPTOR_COUNT>
0

> <JCHEM_ATOM_COUNT>
1

> <JCHEM_AVERAGE_POLARIZABILITY>
1.7784

> <JCHEM_BIOAVAILABILITY>
1

> <JCHEM_DONOR_COUNT>
0

> <JCHEM_FORMAL_CHARGE>
0

> <JCHEM_GHOSE_FILTER>
0

> <JCHEM_IUPAC>
berkelium

> <JCHEM_LOGP>
0.0

> <JCHEM_MDDR_LIKE_RULE>
0

> <JCHEM_NUMBER_OF_RINGS>
0

> <JCHEM_PHYSIOLOGICAL_CHARGE>
0

> <JCHEM_POLAR_SURFACE_AREA>
0.0

> <JCHEM_REFRACTIVITY>
0.0

> <JCHEM_ROTATABLE_BOND_COUNT>
0

> <JCHEM_RULE_OF_FIVE>
1

> <JCHEM_TRADITIONAL_IUPAC>
berkelium

> <JCHEM_VEBER_RULE>
1

> <DRUGBANK_ID>
DB12993

> <DRUG_GROUPS>
investigational

> <GENERIC_NAME>
Berkelium

> <SYNONYMS>
berkelio; Bk

$$$$
