
  Mrv1909 01172018452D          

 40 44  0  0  0  0            999 V2000
    2.4965    0.0000    0.0000 C   0  0  0  0  0  0  0  0  0  0  0  0
    1.7786   -0.4071    0.0000 N   0  0  0  0  0  0  0  0  0  0  0  0
    1.0714    0.0000    0.0000 C   0  0  0  0  0  0  0  0  0  0  0  0
    0.3535   -0.4071    0.0000 C   0  0  0  0  0  0  0  0  0  0  0  0
    0.3535   -1.2321    0.0000 C   0  0  0  0  0  0  0  0  0  0  0  0
   -0.3535   -1.6501    0.0000 C   0  0  0  0  0  0  0  0  0  0  0  0
   -1.0714   -1.2321    0.0000 C   0  0  0  0  0  0  0  0  0  0  0  0
   -1.7894   -1.6501    0.0000 N   0  0  0  0  0  0  0  0  0  0  0  0
   -2.4965   -1.2321    0.0000 C   0  0  0  0  0  0  0  0  0  0  0  0
   -3.2145   -1.6501    0.0000 C   0  0  0  0  0  0  0  0  0  0  0  0
   -3.9323   -1.2321    0.0000 C   0  0  0  0  0  0  0  0  0  0  0  0
   -3.9323   -0.4071    0.0000 C   0  0  0  0  0  0  0  0  0  0  0  0
   -4.6502    0.0000    0.0000 C   0  0  0  0  0  0  0  0  0  0  0  0
   -4.6502    0.8249    0.0000 C   0  0  0  0  0  0  0  0  0  0  0  0
   -3.9323    1.2429    0.0000 C   0  0  0  0  0  0  0  0  0  0  0  0
   -3.9323    2.0679    0.0000 C   0  0  0  0  0  0  0  0  0  0  0  0
   -3.2145    2.4751    0.0000 F   0  0  0  0  0  0  0  0  0  0  0  0
   -4.6502    2.4751    0.0000 F   0  0  0  0  0  0  0  0  0  0  0  0
   -3.9323    2.8822    0.0000 F   0  0  0  0  0  0  0  0  0  0  0  0
   -3.2145    0.8249    0.0000 C   0  0  0  0  0  0  0  0  0  0  0  0
   -3.2145    0.0000    0.0000 C   0  0  0  0  0  0  0  0  0  0  0  0
   -4.6502   -1.6501    0.0000 C   0  0  0  0  0  0  0  0  0  0  0  0
   -5.3573   -1.2321    0.0000 O   0  0  0  0  0  0  0  0  0  0  0  0
   -5.3573   -0.4071    0.0000 C   0  0  0  0  0  0  0  0  0  0  0  0
   -4.6502   -2.4751    0.0000 C   0  0  0  0  0  0  0  0  0  0  0  0
   -3.9323   -2.8822    0.0000 C   0  0  0  0  0  0  0  0  0  0  0  0
   -3.2145   -2.4751    0.0000 C   0  0  0  0  0  0  0  0  0  0  0  0
   -2.4965   -0.4071    0.0000 O   0  0  0  0  0  0  0  0  0  0  0  0
   -1.0714   -0.4071    0.0000 C   0  0  0  0  0  0  0  0  0  0  0  0
   -0.3535    0.0000    0.0000 C   0  0  0  0  0  0  0  0  0  0  0  0
    1.0714   -1.6501    0.0000 C   0  0  0  0  0  0  0  0  0  0  0  0
    1.7786   -1.2321    0.0000 C   0  0  0  0  0  0  0  0  0  0  0  0
    3.2145   -0.4071    0.0000 O   0  0  0  0  0  0  0  0  0  0  0  0
    3.9323    0.0000    0.0000 C   0  0  0  0  0  0  0  0  0  0  0  0
    4.6395   -0.4071    0.0000 C   0  0  0  0  0  0  0  0  0  0  0  0
    5.3573    0.0000    0.0000 C   0  0  0  0  0  0  0  0  0  0  0  0
    5.3573    0.8249    0.0000 C   0  0  0  0  0  0  0  0  0  0  0  0
    4.6395    1.2429    0.0000 C   0  0  0  0  0  0  0  0  0  0  0  0
    3.9323    0.8249    0.0000 C   0  0  0  0  0  0  0  0  0  0  0  0
    2.4965    0.8249    0.0000 O   0  0  0  0  0  0  0  0  0  0  0  0
  1  2  1  0  0  0  0
  1 33  1  0  0  0  0
  1 40  2  0  0  0  0
  2  3  1  0  0  0  0
  2 32  1  0  0  0  0
  3  4  1  0  0  0  0
  4  5  2  0  0  0  0
  4 30  1  0  0  0  0
  5  6  1  0  0  0  0
  5 31  1  0  0  0  0
  6  7  2  0  0  0  0
  7  8  1  0  0  0  0
  7 29  1  0  0  0  0
  8  9  1  0  0  0  0
  9 10  1  0  0  0  0
  9 28  2  0  0  0  0
 10 11  2  0  0  0  0
 10 27  1  0  0  0  0
 11 12  1  0  0  0  0
 11 22  1  0  0  0  0
 12 13  2  0  0  0  0
 12 21  1  0  0  0  0
 13 14  1  0  0  0  0
 14 15  2  0  0  0  0
 15 16  1  0  0  0  0
 15 20  1  0  0  0  0
 16 17  1  0  0  0  0
 16 18  1  0  0  0  0
 16 19  1  0  0  0  0
 20 21  2  0  0  0  0
 22 23  1  0  0  0  0
 22 25  2  0  0  0  0
 23 24  1  0  0  0  0
 25 26  1  0  0  0  0
 26 27  2  0  0  0  0
 29 30  2  0  0  0  0
 31 32  1  0  0  0  0
 33 34  1  0  0  0  0
 34 35  2  0  0  0  0
 34 39  1  0  0  0  0
 35 36  1  0  0  0  0
 36 37  2  0  0  0  0
 37 38  1  0  0  0  0
 38 39  2  0  0  0  0
M  END
> <DATABASE_ID>
DB05678

> <DATABASE_NAME>
drugbank

> <SMILES>
COC1=CC=CC(C(=O)NC2=CC3=C(CN(CC3)C(=O)OC3=CC=CC=C3)C=C2)=C1C1=CC=C(C=C1)C(F)(F)F

> <INCHI_IDENTIFIER>
InChI=1S/C31H25F3N2O4/c1-39-27-9-5-8-26(28(27)20-10-13-23(14-11-20)31(32,33)34)29(37)35-24-15-12-22-19-36(17-16-21(22)18-24)30(38)40-25-6-3-2-4-7-25/h2-15,18H,16-17,19H2,1H3,(H,35,37)

> <INCHI_KEY>
AZUIUVJESCFSLJ-UHFFFAOYSA-N

> <FORMULA>
C31H25F3N2O4

> <MOLECULAR_WEIGHT>
546.546

> <EXACT_MASS>
546.176641782

> <JCHEM_ACCEPTOR_COUNT>
3

> <JCHEM_ATOM_COUNT>
65

> <JCHEM_AVERAGE_NEUTRAL_MICROSPECIES_CHARGE>
-7.683442215516473e-09

> <JCHEM_AVERAGE_POLARIZABILITY>
55.02023124053801

> <JCHEM_BIOAVAILABILITY>
0

> <JCHEM_DONOR_COUNT>
1

> <JCHEM_FORMAL_CHARGE>
0

> <JCHEM_GHOSE_FILTER>
0

> <JCHEM_IUPAC>
phenyl 6-[6-methoxy-4'-(trifluoromethyl)-[1,1'-biphenyl]-2-amido]-1,2,3,4-tetrahydroisoquinoline-2-carboxylate

> <ALOGPS_LOGP>
5.24

> <JCHEM_LOGP>
6.917962395333333

> <ALOGPS_LOGS>
-6.44

> <JCHEM_MDDR_LIKE_RULE>
1

> <JCHEM_NEUTRAL_CHARGE>
0

> <JCHEM_NUMBER_OF_RINGS>
5

> <JCHEM_PHYSIOLOGICAL_CHARGE>
0

> <JCHEM_PKA_STRONGEST_ACIDIC>
15.113631879078584

> <JCHEM_PKA_STRONGEST_BASIC>
-3.8283374178435694

> <JCHEM_POLAR_SURFACE_AREA>
67.87

> <JCHEM_REFRACTIVITY>
146.6893

> <JCHEM_ROTATABLE_BOND_COUNT>
7

> <JCHEM_RULE_OF_FIVE>
0

> <ALOGPS_SOLUBILITY>
1.97e-04 g/l

> <JCHEM_TRADITIONAL_IUPAC>
motesanib

> <JCHEM_VEBER_RULE>
0

> <DRUGBANK_ID>
DB05678

> <DRUG_GROUPS>
investigational

> <GENERIC_NAME>
SLx-4090

$$$$
