
  Mrv1909 12232016232D          

 34 37  0  0  1  0            999 V2000
   -1.3910    2.8296    0.0000 H   0  0  0  0  0  0  0  0  0  0  0  0
   -1.0164    2.0945    0.0000 C   0  0  1  0  0  0  0  0  0  0  0  0
   -0.7615    1.3099    0.0000 O   0  0  0  0  0  0  0  0  0  0  0  0
   -1.4289    0.8250    0.0000 C   0  0  1  0  0  0  0  0  0  0  0  0
   -1.4289    0.0000    0.0000 O   0  0  0  0  0  0  0  0  0  0  0  0
   -0.7145   -0.4125    0.0000 C   0  0  0  0  0  0  0  0  0  0  0  0
   -0.7145   -1.2375    0.0000 C   0  0  0  0  0  0  0  0  0  0  0  0
    0.0000   -1.6500    0.0000 O   0  0  0  0  0  0  0  0  0  0  0  0
    0.7145   -1.2375    0.0000 C   0  0  0  0  0  0  0  0  0  0  0  0
    0.7145   -0.4125    0.0000 C   0  0  0  0  0  0  0  0  0  0  0  0
    0.0000   -0.0000    0.0000 C   0  0  0  0  0  0  0  0  0  0  0  0
    0.0000    0.8250    0.0000 O   0  0  0  0  0  0  0  0  0  0  0  0
    1.4289   -0.0000    0.0000 C   0  0  0  0  0  0  0  0  0  0  0  0
    1.4289    0.8250    0.0000 O   0  0  0  0  0  0  0  0  0  0  0  0
    2.1434   -0.4125    0.0000 C   0  0  0  0  0  0  0  0  0  0  0  0
    2.1434   -1.2375    0.0000 C   0  0  0  0  0  0  0  0  0  0  0  0
    2.8579   -1.6500    0.0000 O   0  0  0  0  0  0  0  0  0  0  0  0
    1.4289   -1.6500    0.0000 C   0  0  0  0  0  0  0  0  0  0  0  0
   -1.4289   -1.6500    0.0000 C   0  0  0  0  0  0  0  0  0  0  0  0
   -1.4289   -2.4750    0.0000 C   0  0  0  0  0  0  0  0  0  0  0  0
   -2.1434   -2.8875    0.0000 C   0  0  0  0  0  0  0  0  0  0  0  0
   -2.8579   -2.4750    0.0000 C   0  0  0  0  0  0  0  0  0  0  0  0
   -3.5724   -2.8875    0.0000 O   0  0  0  0  0  0  0  0  0  0  0  0
   -2.8579   -1.6500    0.0000 C   0  0  0  0  0  0  0  0  0  0  0  0
   -3.5724   -1.2375    0.0000 O   0  0  0  0  0  0  0  0  0  0  0  0
   -2.1434   -1.2375    0.0000 C   0  0  0  0  0  0  0  0  0  0  0  0
   -2.0964    1.3099    0.0000 C   0  0  2  0  0  0  0  0  0  0  0  0
   -2.8810    1.0550    0.0000 O   0  0  0  0  0  0  0  0  0  0  0  0
   -1.8414    2.0945    0.0000 C   0  0  1  0  0  0  0  0  0  0  0  0
   -2.3264    2.7620    0.0000 O   0  0  0  0  0  0  0  0  0  0  0  0
   -0.5315    2.7620    0.0000 C   0  0  2  0  0  0  0  0  0  0  0  0
   -0.8671    3.5157    0.0000 O   0  0  0  0  0  0  0  0  0  0  0  0
    0.2890    2.6757    0.0000 C   0  0  0  0  0  0  0  0  0  0  0  0
    0.7739    3.3432    0.0000 O   0  0  0  0  0  0  0  0  0  0  0  0
  2  1  1  6  0  0  0
  2  3  1  0  0  0  0
  4  3  1  0  0  0  0
  4  5  1  1  0  0  0
  5  6  1  0  0  0  0
  6  7  2  0  0  0  0
  7  8  1  0  0  0  0
  8  9  1  0  0  0  0
  9 10  2  0  0  0  0
 10 11  1  0  0  0  0
  6 11  1  0  0  0  0
 11 12  2  0  0  0  0
 10 13  1  0  0  0  0
 13 14  1  0  0  0  0
 13 15  2  0  0  0  0
 15 16  1  0  0  0  0
 16 17  1  0  0  0  0
 16 18  2  0  0  0  0
  9 18  1  0  0  0  0
  7 19  1  0  0  0  0
 19 20  2  0  0  0  0
 20 21  1  0  0  0  0
 21 22  2  0  0  0  0
 22 23  1  0  0  0  0
 22 24  1  0  0  0  0
 24 25  1  0  0  0  0
 24 26  2  0  0  0  0
 19 26  1  0  0  0  0
 27  4  1  0  0  0  0
 27 28  1  6  0  0  0
 29 27  1  0  0  0  0
  2 29  1  0  0  0  0
 29 30  1  1  0  0  0
  2 31  1  1  0  0  0
 31 32  1  6  0  0  0
 31 33  1  0  0  0  0
 33 34  1  0  0  0  0
M  END
> <DATABASE_ID>
DB16403

> <DATABASE_NAME>
drugbank

> <SMILES>
[H][C@@]1(O[C@@H](OC2=C(OC3=C(C(O)=CC(O)=C3)C2=O)C2=CC=C(O)C(O)=C2)[C@H](O)[C@H]1O)[C@H](O)CO

> <INCHI_IDENTIFIER>
InChI=1S/C21H20O12/c22-6-12(27)19-16(29)17(30)21(32-19)33-20-15(28)14-11(26)4-8(23)5-13(14)31-18(20)7-1-2-9(24)10(25)3-7/h1-5,12,16-17,19,21-27,29-30H,6H2/t12-,16-,17-,19-,21+/m1/s1

> <INCHI_KEY>
OPJZLUXFQFQYAI-GNPVFZCLSA-N

> <FORMULA>
C21H20O12

> <MOLECULAR_WEIGHT>
464.379

> <EXACT_MASS>
464.095476084

> <JCHEM_ACCEPTOR_COUNT>
12

> <JCHEM_ATOM_COUNT>
53

> <JCHEM_AVERAGE_NEUTRAL_MICROSPECIES_CHARGE>
-0.9473631301097828

> <JCHEM_AVERAGE_POLARIZABILITY>
43.324738670357064

> <JCHEM_BIOAVAILABILITY>
0

> <JCHEM_DONOR_COUNT>
8

> <JCHEM_FORMAL_CHARGE>
0

> <JCHEM_GHOSE_FILTER>
1

> <JCHEM_IUPAC>
3-{[(2S,3R,4R,5R)-5-[(1R)-1,2-dihydroxyethyl]-3,4-dihydroxyoxolan-2-yl]oxy}-2-(3,4-dihydroxyphenyl)-5,7-dihydroxy-4H-chromen-4-one

> <ALOGPS_LOGP>
0.57

> <JCHEM_LOGP>
-0.14483529600000053

> <ALOGPS_LOGS>
-2.45

> <JCHEM_MDDR_LIKE_RULE>
0

> <JCHEM_NEUTRAL_CHARGE>
-1

> <JCHEM_NUMBER_OF_RINGS>
4

> <JCHEM_PHYSIOLOGICAL_CHARGE>
-1

> <JCHEM_PKA>
7.872522037593339

> <JCHEM_PKA_STRONGEST_ACIDIC>
6.372405547456904

> <JCHEM_PKA_STRONGEST_BASIC>
-2.9745070957240873

> <JCHEM_POLAR_SURFACE_AREA>
206.6

> <JCHEM_REFRACTIVITY>
109.2755

> <JCHEM_ROTATABLE_BOND_COUNT>
5

> <JCHEM_RULE_OF_FIVE>
0

> <ALOGPS_SOLUBILITY>
1.66e+00 g/l

> <JCHEM_TRADITIONAL_IUPAC>
quercetin-3-glucoside

> <JCHEM_VEBER_RULE>
0

> <DRUGBANK_ID>
DB16403

> <DRUG_GROUPS>
investigational

> <GENERIC_NAME>
Isoquercitrin

> <SYNONYMS>
Isoquercetin enzymatically modified; Isoquercitroside; Isotrifoliin; Isotrifolin; Quercetin 3-(beta-D-glucofuranoside)

$$$$
