
  Mrv1909 02272023492D          

 12 12  0  0  0  0            999 V2000
    0.3572   -0.4125    0.0000 C   0  0  2  0  0  0  0  0  0  0  0  0
   -0.3572   -0.8251    0.0000 C   0  0  2  0  0  0  0  0  0  0  0  0
   -1.0717   -0.4125    0.0000 C   0  0  1  0  0  0  0  0  0  0  0  0
   -1.0717    0.4125    0.0000 C   0  0  1  0  0  0  0  0  0  0  0  0
   -0.3572    0.8251    0.0000 C   0  0  2  0  0  0  0  0  0  0  0  0
   -0.3572    1.6501    0.0000 C   0  0  0  0  0  0  0  0  0  0  0  0
    1.0718   -0.8251    0.0000 O   0  0  0  0  0  0  0  0  0  0  0  0
   -0.3572   -1.6501    0.0000 O   0  0  0  0  0  0  0  0  0  0  0  0
   -1.7862   -0.8251    0.0000 O   0  0  0  0  0  0  0  0  0  0  0  0
   -1.7862    0.8251    0.0000 O   0  0  0  0  0  0  0  0  0  0  0  0
    0.3572    0.4125    0.0000 O   0  0  0  0  0  0  0  0  0  0  0  0
    1.7862   -0.4125    0.0000 C   0  0  0  0  0  0  0  0  0  0  0  0
  1  2  1  0  0  0  0
  1  7  1  1  0  0  0
  1 11  1  0  0  0  0
  2  3  1  0  0  0  0
  2  8  1  1  0  0  0
  3  4  1  0  0  0  0
  3  9  1  6  0  0  0
  4  5  1  0  0  0  0
  4 10  1  6  0  0  0
  5  6  1  6  0  0  0
  5 11  1  0  0  0  0
 12  7  1  0  0  0  0
M  END
> <DATABASE_ID>
DB03879

> <DATABASE_NAME>
drugbank

> <SMILES>
CO[C@@H]1O[C@@H](C)[C@@H](O)[C@@H](O)[C@@H]1O

> <INCHI_IDENTIFIER>
InChI=1S/C7H14O5/c1-3-4(8)5(9)6(10)7(11-2)12-3/h3-10H,1-2H3/t3-,4+,5+,6-,7+/m0/s1

> <INCHI_KEY>
OHWCAVRRXKJCRB-CXNFULCWSA-N

> <FORMULA>
C7H14O5

> <MOLECULAR_WEIGHT>
178.1831

> <EXACT_MASS>
178.084123558

> <JCHEM_ACCEPTOR_COUNT>
5

> <JCHEM_ATOM_COUNT>
26

> <JCHEM_AVERAGE_NEUTRAL_MICROSPECIES_CHARGE>
0.0006830042000242655

> <JCHEM_AVERAGE_POLARIZABILITY>
17.257294639436147

> <JCHEM_BIOAVAILABILITY>
1

> <JCHEM_DONOR_COUNT>
3

> <JCHEM_FORMAL_CHARGE>
0

> <JCHEM_GHOSE_FILTER>
0

> <JCHEM_IUPAC>
(2R,3S,4R,5S,6S)-2-methoxy-6-methyloxane-3,4,5-triol

> <ALOGPS_LOGP>
-1.65

> <JCHEM_LOGP>
-1.2425027476666664

> <ALOGPS_LOGS>
0.66

> <JCHEM_MDDR_LIKE_RULE>
0

> <JCHEM_NEUTRAL_CHARGE>
0

> <JCHEM_NUMBER_OF_RINGS>
1

> <JCHEM_PHYSIOLOGICAL_CHARGE>
0

> <JCHEM_PKA>
13.27285412036063

> <JCHEM_PKA_STRONGEST_ACIDIC>
12.225222350091551

> <JCHEM_PKA_STRONGEST_BASIC>
-3.6121820977268366

> <JCHEM_POLAR_SURFACE_AREA>
79.15

> <JCHEM_REFRACTIVITY>
39.130900000000004

> <JCHEM_ROTATABLE_BOND_COUNT>
1

> <JCHEM_RULE_OF_FIVE>
1

> <ALOGPS_SOLUBILITY>
8.12e+02 g/l

> <JCHEM_TRADITIONAL_IUPAC>
α-L-methyl-fucose

> <JCHEM_VEBER_RULE>
0

> <DRUGBANK_ID>
DB03879

> <SECONDARY_ACCESSION_NUMBERS>
EXPT02163; EXPT02160; DB04091

> <DRUG_GROUPS>
experimental

> <GENERIC_NAME>
alpha-L-methyl-fucose

> <SYNONYMS>
alpha-L-1-Methyl-fucose; Methyl alpha-L-fucopyranoside; α-L-Methyl-Fucose

$$$$
