
  Mrv1652306021705032D          

 26 26  0  0  0  0            999 V2000
   -5.4423    2.1498    0.0000 C   0  0  0  0  0  0  0  0  0  0  0  0
   -4.7279    1.7373    0.0000 C   0  0  0  0  0  0  0  0  0  0  0  0
   -4.7279    0.9123    0.0000 N   0  3  0  0  0  0  0  0  0  0  0  0
   -5.4423    0.4998    0.0000 C   0  0  0  0  0  0  0  0  0  0  0  0
   -6.1568    0.9123    0.0000 C   0  0  0  0  0  0  0  0  0  0  0  0
   -6.1568    1.7373    0.0000 C   0  0  0  0  0  0  0  0  0  0  0  0
   -4.0134    0.4998    0.0000 C   0  0  0  0  0  0  0  0  0  0  0  0
   -3.2989    0.9123    0.0000 C   0  0  0  0  0  0  0  0  0  0  0  0
   -2.5845    0.4998    0.0000 N   0  0  0  0  0  0  0  0  0  0  0  0
   -1.8700    0.9123    0.0000 C   0  0  0  0  0  0  0  0  0  0  0  0
   -1.1555    0.4998    0.0000 C   0  0  0  0  0  0  0  0  0  0  0  0
   -0.4410    0.9123    0.0000 O   0  0  0  0  0  0  0  0  0  0  0  0
    0.2733    0.4998    0.0000 C   0  0  0  0  0  0  0  0  0  0  0  0
    0.9878    0.9123    0.0000 C   0  0  0  0  0  0  0  0  0  0  0  0
    1.7023    0.4998    0.0000 C   0  0  0  0  0  0  0  0  0  0  0  0
    2.4167    0.9123    0.0000 C   0  0  0  0  0  0  0  0  0  0  0  0
    3.1312    0.4998    0.0000 C   0  0  0  0  0  0  0  0  0  0  0  0
    3.8457    0.9123    0.0000 C   0  0  0  0  0  0  0  0  0  0  0  0
    4.5602    0.4998    0.0000 C   0  0  0  0  0  0  0  0  0  0  0  0
    5.2746    0.9123    0.0000 C   0  0  0  0  0  0  0  0  0  0  0  0
    5.9891    0.4998    0.0000 C   0  0  0  0  0  0  0  0  0  0  0  0
    6.7036    0.9123    0.0000 C   0  0  0  0  0  0  0  0  0  0  0  0
    7.4180    0.4998    0.0000 C   0  0  0  0  0  0  0  0  0  0  0  0
    8.1325    0.9123    0.0000 C   0  0  0  0  0  0  0  0  0  0  0  0
   -3.2989    1.7373    0.0000 O   0  0  0  0  0  0  0  0  0  0  0  0
    0.2733   -0.3251    0.0000 O   0  0  0  0  0  0  0  0  0  0  0  0
 12 13  1  0  0  0  0
  6  1  1  0  0  0  0
 13 14  1  0  0  0  0
  2  3  1  0  0  0  0
 14 15  1  0  0  0  0
  3  7  1  0  0  0  0
 15 16  1  0  0  0  0
 16 17  1  0  0  0  0
  7  8  1  0  0  0  0
 17 18  1  0  0  0  0
  3  4  2  0  0  0  0
 18 19  1  0  0  0  0
  8  9  1  0  0  0  0
 19 20  1  0  0  0  0
  1  2  2  0  0  0  0
 20 21  1  0  0  0  0
  9 10  1  0  0  0  0
 21 22  1  0  0  0  0
  4  5  1  0  0  0  0
 22 23  1  0  0  0  0
 10 11  1  0  0  0  0
 23 24  1  0  0  0  0
  8 25  2  0  0  0  0
 11 12  1  0  0  0  0
 13 26  2  0  0  0  0
  5  6  2  0  0  0  0
M  CHG  1   3   1
M  END
> <DATABASE_ID>
DB09376

> <DATABASE_NAME>
drugbank

> <SMILES>
CCCCCCCCCCCC(=O)OCCNC(=O)C[N+]1=CC=CC=C1

> <INCHI_IDENTIFIER>
InChI=1S/C21H34N2O3/c1-2-3-4-5-6-7-8-9-11-14-21(25)26-18-15-22-20(24)19-23-16-12-10-13-17-23/h10,12-13,16-17H,2-9,11,14-15,18-19H2,1H3/p+1

> <INCHI_KEY>
UGJWZYARKOFRDB-UHFFFAOYSA-O

> <FORMULA>
C21H35N2O3

> <MOLECULAR_WEIGHT>
363.521

> <EXACT_MASS>
363.264219415

> <JCHEM_ACCEPTOR_COUNT>
2

> <JCHEM_ATOM_COUNT>
61

> <JCHEM_AVERAGE_POLARIZABILITY>
43.94509310453968

> <JCHEM_BIOAVAILABILITY>
1

> <JCHEM_DONOR_COUNT>
1

> <JCHEM_FORMAL_CHARGE>
1

> <JCHEM_GHOSE_FILTER>
1

> <JCHEM_IUPAC>
1-({[2-(dodecanoyloxy)ethyl]carbamoyl}methyl)pyridin-1-ium

> <ALOGPS_LOGP>
1.59

> <JCHEM_LOGP>
0.159599019861589

> <ALOGPS_LOGS>
-6.62

> <JCHEM_MDDR_LIKE_RULE>
0

> <JCHEM_NUMBER_OF_RINGS>
1

> <JCHEM_PHYSIOLOGICAL_CHARGE>
1

> <JCHEM_PKA>
19.624394486706976

> <JCHEM_PKA_STRONGEST_ACIDIC>
12.728298291910278

> <JCHEM_PKA_STRONGEST_BASIC>
-6.512922257418457

> <JCHEM_POLAR_SURFACE_AREA>
59.28

> <JCHEM_REFRACTIVITY>
104.3397

> <JCHEM_ROTATABLE_BOND_COUNT>
16

> <JCHEM_RULE_OF_FIVE>
1

> <ALOGPS_SOLUBILITY>
9.66e-05 g/l

> <JCHEM_TRADITIONAL_IUPAC>
1-({[2-(dodecanoyloxy)ethyl]carbamoyl}methyl)pyridin-1-ium

> <JCHEM_VEBER_RULE>
0

> <DRUGBANK_ID>
DB09376

> <DRUG_GROUPS>
approved

> <GENERIC_NAME>
Lapyrium

> <SALTS>
Lapyrium chloride

$$$$
