
  Mrv1572004101622162D          

 48 52  0  0  0  0            999 V2000
   -0.8461    3.7492    0.0000 C   0  0  0  0  0  0  0  0  0  0  0  0
   -1.2586    4.4637    0.0000 C   0  0  0  0  0  0  0  0  0  0  0  0
   -2.0836    4.4637    0.0000 C   0  0  0  0  0  0  0  0  0  0  0  0
   -2.4961    3.7492    0.0000 C   0  0  0  0  0  0  0  0  0  0  0  0
   -2.0836    3.0347    0.0000 C   0  0  0  0  0  0  0  0  0  0  0  0
   -1.2586    3.0347    0.0000 C   0  0  0  0  0  0  0  0  0  0  0  0
   -0.0211    3.7492    0.0000 Cl  0  0  0  0  0  0  0  0  0  0  0  0
   -0.8461    2.3202    0.0000 S   0  0  0  0  0  0  0  0  0  0  0  0
   -0.4336    1.6058    0.0000 O   0  0  0  0  0  0  0  0  0  0  0  0
   -0.1316    2.7327    0.0000 O   0  0  0  0  0  0  0  0  0  0  0  0
   -1.5606    1.9077    0.0000 N   0  0  0  0  0  0  0  0  0  0  0  0
   -2.3143    2.2433    0.0000 C   0  0  0  0  0  0  0  0  0  0  0  0
   -2.8663    1.6302    0.0000 C   0  0  0  0  0  0  0  0  0  0  0  0
   -2.4538    0.9158    0.0000 C   0  0  0  0  0  0  0  0  0  0  0  0
   -1.6468    1.0873    0.0000 C   0  0  1  0  0  0  0  0  0  0  0  0
   -1.0338    0.5352    0.0000 C   0  0  0  0  0  0  0  0  0  0  0  0
   -0.2491    0.7902    0.0000 O   0  0  0  0  0  0  0  0  0  0  0  0
   -1.2053   -0.2716    0.0000 N   0  0  0  0  0  0  0  0  0  0  0  0
   -0.8461    5.1781    0.0000 C   0  0  0  0  0  0  0  0  0  0  0  0
   -2.4961    5.1781    0.0000 Cl  0  0  0  0  0  0  0  0  0  0  0  0
   -0.0211    5.1781    0.0000 O   0  0  0  0  0  0  0  0  0  0  0  0
    0.3913    5.8926    0.0000 C   0  0  0  0  0  0  0  0  0  0  0  0
    1.2163    5.8926    0.0000 C   0  0  0  0  0  0  0  0  0  0  0  0
    1.6288    6.6071    0.0000 C   0  0  0  0  0  0  0  0  0  0  0  0
    1.2163    7.3216    0.0000 C   0  0  0  0  0  0  0  0  0  0  0  0
    0.3913    7.3216    0.0000 C   0  0  0  0  0  0  0  0  0  0  0  0
   -0.0211    6.6071    0.0000 C   0  0  0  0  0  0  0  0  0  0  0  0
    2.4538    6.6071    0.0000 C   0  0  0  0  0  0  0  0  0  0  0  0
    2.8663    5.8926    0.0000 C   0  0  0  0  0  0  0  0  0  0  0  0
    2.4538    5.1782    0.0000 C   0  0  0  0  0  0  0  0  0  0  0  0
    1.6288    5.1781    0.0000 N   0  0  0  0  0  0  0  0  0  0  0  0
    2.8663    7.3216    0.0000 C   0  0  0  0  0  0  0  0  0  0  0  0
    2.8663    4.4637    0.0000 C   0  0  0  0  0  0  0  0  0  0  0  0
   -0.5922   -0.8237    0.0000 C   0  0  0  0  0  0  0  0  0  0  0  0
   -0.7637   -1.6307    0.0000 C   0  0  0  0  0  0  0  0  0  0  0  0
   -0.1507   -2.1827    0.0000 C   0  0  0  0  0  0  0  0  0  0  0  0
   -0.3222   -2.9897    0.0000 N   0  0  0  0  0  0  0  0  0  0  0  0
    0.2908   -3.5417    0.0000 C   0  0  0  0  0  0  0  0  0  0  0  0
    0.1193   -4.3487    0.0000 C   0  0  0  0  0  0  0  0  0  0  0  0
    1.0754   -3.2868    0.0000 O   0  0  0  0  0  0  0  0  0  0  0  0
   -0.6653   -4.6036    0.0000 C   0  0  0  0  0  0  0  0  0  0  0  0
   -0.8368   -5.4106    0.0000 C   0  0  0  0  0  0  0  0  0  0  0  0
   -0.2237   -5.9626    0.0000 C   0  0  0  0  0  0  0  0  0  0  0  0
    0.5608   -5.7077    0.0000 C   0  0  0  0  0  0  0  0  0  0  0  0
    0.7324   -4.9007    0.0000 C   0  0  0  0  0  0  0  0  0  0  0  0
   -0.3952   -6.7696    0.0000 C   0  0  0  0  0  0  0  0  0  0  0  0
    0.2177   -7.3216    0.0000 N   0  0  0  0  0  0  0  0  0  0  0  0
   -1.1799   -7.0245    0.0000 N   0  0  0  0  0  0  0  0  0  0  0  0
  1  2  1  0  0  0  0
  6  1  2  0  0  0  0
  2  3  2  0  0  0  0
  3  4  1  0  0  0  0
  4  5  2  0  0  0  0
  5  6  1  0  0  0  0
  1  7  1  0  0  0  0
  6  8  1  0  0  0  0
  8  9  2  0  0  0  0
  8 10  2  0  0  0  0
  8 11  1  0  0  0  0
 11 12  1  0  0  0  0
 11 15  1  0  0  0  0
 12 13  1  0  0  0  0
 13 14  1  0  0  0  0
 14 15  1  0  0  0  0
 15 16  1  6  0  0  0
 16 17  2  0  0  0  0
 16 18  1  0  0  0  0
  2 19  1  0  0  0  0
  3 20  1  0  0  0  0
 19 21  1  0  0  0  0
 21 22  1  0  0  0  0
 22 23  1  0  0  0  0
 27 22  2  0  0  0  0
 24 25  1  0  0  0  0
 25 26  2  0  0  0  0
 26 27  1  0  0  0  0
 31 23  2  0  0  0  0
 23 24  1  0  0  0  0
 24 28  2  0  0  0  0
 28 29  1  0  0  0  0
 29 30  2  0  0  0  0
 30 31  1  0  0  0  0
 28 32  1  0  0  0  0
 30 33  1  0  0  0  0
 18 34  1  0  0  0  0
 34 35  1  0  0  0  0
 35 36  1  0  0  0  0
 36 37  1  0  0  0  0
 37 38  1  0  0  0  0
 38 39  1  0  0  0  0
 38 40  2  0  0  0  0
 39 41  1  0  0  0  0
 39 45  2  0  0  0  0
 41 42  2  0  0  0  0
 42 43  1  0  0  0  0
 43 44  2  0  0  0  0
 44 45  1  0  0  0  0
 43 46  1  0  0  0  0
 46 47  2  0  0  0  0
 46 48  1  0  0  0  0
M  END
> <DATABASE_ID>
DB05038

> <DATABASE_NAME>
drugbank

> <SMILES>
CC1=CC(C)=C2C=CC=C(OCC3=C(Cl)C=CC(=C3Cl)S(=O)(=O)N3CCC[C@H]3C(=O)NCCCNC(=O)C3=CC=C(C=C3)C(N)=N)C2=N1

> <INCHI_IDENTIFIER>
InChI=1S/C34H36Cl2N6O5S/c1-20-18-21(2)41-31-24(20)6-3-8-28(31)47-19-25-26(35)13-14-29(30(25)36)48(45,46)42-17-4-7-27(42)34(44)40-16-5-15-39-33(43)23-11-9-22(10-12-23)32(37)38/h3,6,8-14,18,27H,4-5,7,15-17,19H2,1-2H3,(H3,37,38)(H,39,43)(H,40,44)/t27-/m0/s1

> <INCHI_KEY>
XUHBBTKJWIBQMY-MHZLTWQESA-N

> <FORMULA>
C34H36Cl2N6O5S

> <MOLECULAR_WEIGHT>
711.66

> <EXACT_MASS>
710.1844949

> <JCHEM_ACCEPTOR_COUNT>
8

> <JCHEM_ATOM_COUNT>
84

> <JCHEM_AVERAGE_POLARIZABILITY>
73.36000156629554

> <JCHEM_BIOAVAILABILITY>
0

> <JCHEM_DONOR_COUNT>
4

> <JCHEM_FORMAL_CHARGE>
0

> <JCHEM_GHOSE_FILTER>
0

> <JCHEM_IUPAC>
4-carbamimidoyl-N-(3-{[(2S)-1-(2,4-dichloro-3-{[(2,4-dimethylquinolin-8-yl)oxy]methyl}benzenesulfonyl)pyrrolidin-2-yl]formamido}propyl)benzamide

> <ALOGPS_LOGP>
4.70

> <JCHEM_LOGP>
3.972902095666667

> <ALOGPS_LOGS>
-6.04

> <JCHEM_MDDR_LIKE_RULE>
1

> <JCHEM_NUMBER_OF_RINGS>
5

> <JCHEM_PHYSIOLOGICAL_CHARGE>
1

> <JCHEM_PKA>
14.893207029043399

> <JCHEM_PKA_STRONGEST_ACIDIC>
14.122104799752627

> <JCHEM_PKA_STRONGEST_BASIC>
10.941519462396633

> <JCHEM_POLAR_SURFACE_AREA>
167.57000000000002

> <JCHEM_REFRACTIVITY>
196.9405

> <JCHEM_ROTATABLE_BOND_COUNT>
11

> <JCHEM_RULE_OF_FIVE>
0

> <ALOGPS_SOLUBILITY>
6.54e-04 g/l

> <JCHEM_TRADITIONAL_IUPAC>
4-carbamimidoyl-N-(3-{[(2S)-1-(2,4-dichloro-3-{[(2,4-dimethylquinolin-8-yl)oxy]methyl}benzenesulfonyl)pyrrolidin-2-yl]formamido}propyl)benzamide

> <JCHEM_VEBER_RULE>
0

> <DRUGBANK_ID>
DB05038

> <DRUG_GROUPS>
investigational

> <GENERIC_NAME>
Anatibant

> <SYNONYMS>
Anatibant

$$$$
