
  Mrv1572004221603232D          

 20 21  0  0  0  0            999 V2000
   -2.8579    2.4750    0.0000 C   0  0  0  0  0  0  0  0  0  0  0  0
   -5.0013    0.4125    0.0000 C   0  0  0  0  0  0  0  0  0  0  0  0
   -0.7145   -2.8875    0.0000 C   0  0  0  0  0  0  0  0  0  0  0  0
   -2.1434   -2.8875    0.0000 C   0  0  0  0  0  0  0  0  0  0  0  0
   -0.7145   -2.0625    0.0000 C   0  0  0  0  0  0  0  0  0  0  0  0
   -2.1434   -2.0625    0.0000 C   0  0  0  0  0  0  0  0  0  0  0  0
   -2.8579   -0.0000    0.0000 C   0  0  0  0  0  0  0  0  0  0  0  0
   -2.8579    1.6500    0.0000 C   0  0  0  0  0  0  0  0  0  0  0  0
   -1.4289   -3.3000    0.0000 C   0  0  0  0  0  0  0  0  0  0  0  0
   -1.4289   -1.6500    0.0000 C   0  0  0  0  0  0  0  0  0  0  0  0
   -2.1434    0.4125    0.0000 C   0  0  0  0  0  0  0  0  0  0  0  0
   -3.5724    0.4125    0.0000 C   0  0  0  0  0  0  0  0  0  0  0  0
   -1.4289   -4.1250    0.0000 N   0  0  0  0  0  0  0  0  0  0  0  0
   -2.1434    1.2375    0.0000 N   0  0  0  0  0  0  0  0  0  0  0  0
   -3.5724    1.2375    0.0000 N   0  0  0  0  0  0  0  0  0  0  0  0
   -1.4289   -0.0000    0.0000 N   0  0  0  0  0  0  0  0  0  0  0  0
   -2.2539   -0.8250    0.0000 O   0  0  0  0  0  0  0  0  0  0  0  0
   -0.6039   -0.8250    0.0000 O   0  0  0  0  0  0  0  0  0  0  0  0
   -4.2868   -0.0000    0.0000 O   0  0  0  0  0  0  0  0  0  0  0  0
   -1.4289   -0.8250    0.0000 S   0  0  0  0  0  0  0  0  0  0  0  0
  5  3  1  0  0  0  0
  6  4  2  0  0  0  0
  8  1  1  0  0  0  0
  9  3  2  0  0  0  0
  9  4  1  0  0  0  0
 10  5  2  0  0  0  0
 10  6  1  0  0  0  0
 11  7  2  0  0  0  0
 12  7  1  0  0  0  0
 13  9  1  0  0  0  0
 14  8  2  0  0  0  0
 14 11  1  0  0  0  0
 15  8  1  0  0  0  0
 15 12  2  0  0  0  0
 16 11  1  0  0  0  0
 19  2  1  0  0  0  0
 19 12  1  0  0  0  0
 20 10  1  0  0  0  0
 20 16  1  0  0  0  0
 20 17  2  0  0  0  0
 20 18  2  0  0  0  0
M  END
> <DATABASE_ID>
DB13485

> <DATABASE_NAME>
drugbank

> <SMILES>
COC1=NC(C)=NC(NS(=O)(=O)C2=CC=C(N)C=C2)=C1

> <INCHI_IDENTIFIER>
InChI=1S/C12H14N4O3S/c1-8-14-11(7-12(15-8)19-2)16-20(17,18)10-5-3-9(13)4-6-10/h3-7H,13H2,1-2H3,(H,14,15,16)

> <INCHI_KEY>
QKLSCPPJEVXONT-UHFFFAOYSA-N

> <FORMULA>
C12H14N4O3S

> <MOLECULAR_WEIGHT>
294.33

> <EXACT_MASS>
294.078661501

> <JCHEM_ACCEPTOR_COUNT>
6

> <JCHEM_ATOM_COUNT>
34

> <JCHEM_AVERAGE_POLARIZABILITY>
28.9061519325289

> <JCHEM_BIOAVAILABILITY>
1

> <JCHEM_DONOR_COUNT>
2

> <JCHEM_FORMAL_CHARGE>
0

> <JCHEM_GHOSE_FILTER>
1

> <JCHEM_IUPAC>
4-amino-N-(6-methoxy-2-methylpyrimidin-4-yl)benzene-1-sulfonamide

> <ALOGPS_LOGP>
0.92

> <JCHEM_LOGP>
1.3882168166666664

> <ALOGPS_LOGS>
-3.05

> <JCHEM_MDDR_LIKE_RULE>
0

> <JCHEM_NUMBER_OF_RINGS>
2

> <JCHEM_PHYSIOLOGICAL_CHARGE>
0

> <JCHEM_PKA_STRONGEST_ACIDIC>
7.184579623396715

> <JCHEM_PKA_STRONGEST_BASIC>
3.6562556917018934

> <JCHEM_POLAR_SURFACE_AREA>
107.2

> <JCHEM_REFRACTIVITY>
75.9695

> <JCHEM_ROTATABLE_BOND_COUNT>
3

> <JCHEM_RULE_OF_FIVE>
1

> <ALOGPS_SOLUBILITY>
2.60e-01 g/l

> <JCHEM_TRADITIONAL_IUPAC>
sulfamethomidine

> <JCHEM_VEBER_RULE>
0

> <DRUGBANK_ID>
DB13485

> <DRUG_GROUPS>
experimental

> <GENERIC_NAME>
Sulfametomidine

> <SYNONYMS>
Sulfametomidine

$$$$
