
  Mrv1652306231722452D          

 16 18  0  0  0  0            999 V2000
   -0.1712   -0.6979    0.0000 C   0  0  0  0  0  0  0  0  0  0  0  0
    0.6538   -0.6979    0.0000 C   0  0  0  0  0  0  0  0  0  0  0  0
    1.1387   -0.0305    0.0000 C   0  0  0  0  0  0  0  0  0  0  0  0
    1.9233   -0.2854    0.0000 C   0  0  0  0  0  0  0  0  0  0  0  0
    2.6378    0.1271    0.0000 C   0  0  0  0  0  0  0  0  0  0  0  0
    3.3523   -0.2854    0.0000 C   0  0  0  0  0  0  0  0  0  0  0  0
    3.3523   -1.1104    0.0000 C   0  0  0  0  0  0  0  0  0  0  0  0
    2.6378   -1.5229    0.0000 C   0  0  0  0  0  0  0  0  0  0  0  0
    1.9233   -1.1104    0.0000 C   0  0  0  0  0  0  0  0  0  0  0  0
    1.1387   -1.3654    0.0000 S   0  0  0  0  0  0  0  0  0  0  0  0
    0.8838    0.7541    0.0000 C   0  0  0  0  0  0  0  0  0  0  0  0
    1.4358    1.3672    0.0000 C   0  0  0  0  0  0  0  0  0  0  0  0
    1.2643    2.1742    0.0000 N   0  0  0  0  0  0  0  0  0  0  0  0
    1.9788    2.5867    0.0000 C   0  0  0  0  0  0  0  0  0  0  0  0
    2.5919    2.0347    0.0000 C   0  0  0  0  0  0  0  0  0  0  0  0
    2.2563    1.2810    0.0000 N   0  0  0  0  0  0  0  0  0  0  0  0
  1  2  1  0  0  0  0
  2  3  2  0  0  0  0
  3  4  1  0  0  0  0
  4  5  2  0  0  0  0
  5  6  1  0  0  0  0
  6  7  2  0  0  0  0
  7  8  1  0  0  0  0
  8  9  2  0  0  0  0
  4  9  1  0  0  0  0
  9 10  1  0  0  0  0
  2 10  1  0  0  0  0
  3 11  1  0  0  0  0
 11 12  1  0  0  0  0
 12 13  2  0  0  0  0
 13 14  1  0  0  0  0
 14 15  1  0  0  0  0
 15 16  1  0  0  0  0
 12 16  1  0  0  0  0
M  END
> <DATABASE_ID>
DB13614

> <DATABASE_NAME>
drugbank

> <SMILES>
CC1=C(CC2=NCCN2)C2=CC=CC=C2S1

> <INCHI_IDENTIFIER>
InChI=1S/C13H14N2S/c1-9-11(8-13-14-6-7-15-13)10-4-2-3-5-12(10)16-9/h2-5H,6-8H2,1H3,(H,14,15)

> <INCHI_KEY>
NDNKHWUXXOFHTD-UHFFFAOYSA-N

> <FORMULA>
C13H14N2S

> <MOLECULAR_WEIGHT>
230.33

> <EXACT_MASS>
230.087769633

> <JCHEM_ACCEPTOR_COUNT>
2

> <JCHEM_ATOM_COUNT>
30

> <JCHEM_AVERAGE_POLARIZABILITY>
25.311427226653308

> <JCHEM_BIOAVAILABILITY>
1

> <JCHEM_DONOR_COUNT>
1

> <JCHEM_FORMAL_CHARGE>
0

> <JCHEM_GHOSE_FILTER>
1

> <JCHEM_IUPAC>
2-[(2-methyl-1-benzothiophen-3-yl)methyl]-4,5-dihydro-1H-imidazole

> <ALOGPS_LOGP>
3.29

> <JCHEM_LOGP>
2.7255257986666668

> <ALOGPS_LOGS>
-4.00

> <JCHEM_MDDR_LIKE_RULE>
0

> <JCHEM_NUMBER_OF_RINGS>
3

> <JCHEM_PHYSIOLOGICAL_CHARGE>
1

> <JCHEM_PKA_STRONGEST_BASIC>
10.094654557393058

> <JCHEM_POLAR_SURFACE_AREA>
24.39

> <JCHEM_REFRACTIVITY>
67.4657

> <JCHEM_ROTATABLE_BOND_COUNT>
2

> <JCHEM_RULE_OF_FIVE>
1

> <ALOGPS_SOLUBILITY>
2.33e-02 g/l

> <JCHEM_TRADITIONAL_IUPAC>
2-[(2-methyl-1-benzothiophen-3-yl)methyl]-4,5-dihydro-1H-imidazole

> <JCHEM_VEBER_RULE>
1

> <DRUGBANK_ID>
DB13614

> <DRUG_GROUPS>
experimental

> <GENERIC_NAME>
Metizoline

> <SYNONYMS>
Metizoline

$$$$
