
  Mrv1909 11101920122D          

 65 74  0  0  0  0            999 V2000
   -1.1552    0.0000    0.0000 C   0  0  0  0  0  0  0  0  0  0  0  0
   -0.9076   -0.8252    0.0000 C   0  0  0  0  0  0  0  0  0  0  0  0
   -0.0824   -0.8252    0.0000 C   0  0  0  0  0  0  0  0  0  0  0  0
    0.1650   -0.0412    0.0000 C   0  0  0  0  0  0  0  0  0  0  0  0
   -0.4950    0.4538    0.0000 C   0  0  0  0  0  0  0  0  0  0  0  0
    0.4126   -1.4442    0.0000 C   0  0  0  0  0  0  0  0  0  0  0  0
    1.2378   -1.3203    0.0000 C   0  0  0  0  0  0  0  0  0  0  0  0
    1.5266   -0.5364    0.0000 C   0  0  0  0  0  0  0  0  0  0  0  0
    0.9902    0.0825    0.0000 C   0  0  0  0  0  0  0  0  0  0  0  0
   -1.9804    0.1650    0.0000 C   0  0  0  0  0  0  0  0  0  0  0  0
   -2.5169   -0.4126    0.0000 C   0  0  0  0  0  0  0  0  0  0  0  0
   -2.3105   -1.1966    0.0000 C   0  0  0  0  0  0  0  0  0  0  0  0
   -1.4853   -1.4028    0.0000 C   0  0  0  0  0  0  0  0  0  0  0  0
    0.1237    1.0315    0.0000 F   0  0  0  0  0  0  0  0  0  0  0  0
   -1.0727    1.0315    0.0000 F   0  0  0  0  0  0  0  0  0  0  0  0
    2.2281    0.7014    0.0000 C   0  0  0  0  0  0  0  0  0  0  0  0
    2.2281   -0.1237    0.0000 C   0  0  0  0  0  0  0  0  0  0  0  0
    2.9295   -0.5364    0.0000 C   0  0  0  0  0  0  0  0  0  0  0  0
    3.6722   -0.1237    0.0000 C   0  0  0  0  0  0  0  0  0  0  0  0
    3.6722    0.7014    0.0000 C   0  0  0  0  0  0  0  0  0  0  0  0
    2.9295    1.1140    0.0000 C   0  0  0  0  0  0  0  0  0  0  0  0
    4.4561   -0.3714    0.0000 N   0  0  0  0  0  0  0  0  0  0  0  0
    4.9100    0.2888    0.0000 C   0  0  0  0  0  0  0  0  0  0  0  0
    4.4561    0.9489    0.0000 N   0  0  0  0  0  0  0  0  0  0  0  0
    5.7352    0.2888    0.0000 C   0  0  2  0  0  0  0  0  0  0  0  0
    6.1478   -0.4126    0.0000 C   0  0  1  0  0  0  0  0  0  0  0  0
    6.9730   -0.4126    0.0000 C   0  0  0  0  0  0  0  0  0  0  0  0
    7.3856    0.2888    0.0000 C   0  0  0  0  0  0  0  0  0  0  0  0
    6.9730    0.9902    0.0000 C   0  0  1  0  0  0  0  0  0  0  0  0
    6.1478    0.9902    0.0000 N   0  0  0  0  0  0  0  0  0  0  0  0
    5.7352    1.6916    0.0000 C   0  0  0  0  0  0  0  0  0  0  0  0
    4.9100    1.6916    0.0000 O   0  0  0  0  0  0  0  0  0  0  0  0
    6.1478    2.3930    0.0000 C   0  0  2  0  0  0  0  0  0  0  0  0
    6.9730    2.3930    0.0000 C   0  0  0  0  0  0  0  0  0  0  0  0
    5.7352    3.0945    0.0000 N   0  0  0  0  0  0  0  0  0  0  0  0
    7.3856    1.6916    0.0000 C   0  0  0  0  0  0  0  0  0  0  0  0
    7.3856    3.0945    0.0000 C   0  0  0  0  0  0  0  0  0  0  0  0
    4.9100    3.0945    0.0000 C   0  0  0  0  0  0  0  0  0  0  0  0
    4.4974    3.7959    0.0000 O   0  0  0  0  0  0  0  0  0  0  0  0
    4.4974    2.3930    0.0000 O   0  0  0  0  0  0  0  0  0  0  0  0
    3.6722    3.7959    0.0000 C   0  0  0  0  0  0  0  0  0  0  0  0
    6.2717    0.4538    0.0000 C   0  0  0  0  0  0  0  0  0  0  0  0
   -4.3735    0.6189    0.0000 N   0  0  0  0  0  0  0  0  0  0  0  0
   -4.6211   -0.1650    0.0000 C   0  0  0  0  0  0  0  0  0  0  0  0
   -3.9609   -0.6601    0.0000 N   0  0  0  0  0  0  0  0  0  0  0  0
   -3.3007   -0.1650    0.0000 C   0  0  0  0  0  0  0  0  0  0  0  0
   -3.5483    0.6189    0.0000 C   0  0  0  0  0  0  0  0  0  0  0  0
   -5.4051   -0.4126    0.0000 C   0  0  2  0  0  0  0  0  0  0  0  0
   -6.1891   -0.1237    0.0000 C   0  0  0  0  0  0  0  0  0  0  0  0
   -6.6842   -0.7840    0.0000 C   0  0  0  0  0  0  0  0  0  0  0  0
   -6.1891   -1.4853    0.0000 C   0  0  0  0  0  0  0  0  0  0  0  0
   -5.4051   -1.2378    0.0000 N   0  0  0  0  0  0  0  0  0  0  0  0
   -4.7449   -1.7329    0.0000 C   0  0  0  0  0  0  0  0  0  0  0  0
   -4.0023   -1.4028    0.0000 O   0  0  0  0  0  0  0  0  0  0  0  0
   -4.7449   -2.5581    0.0000 C   0  0  2  0  0  0  0  0  0  0  0  0
   -5.4464   -2.9707    0.0000 C   0  0  0  0  0  0  0  0  0  0  0  0
   -6.1478   -2.5581    0.0000 C   0  0  0  0  0  0  0  0  0  0  0  0
   -5.4464   -3.7959    0.0000 C   0  0  0  0  0  0  0  0  0  0  0  0
   -4.0434   -2.9707    0.0000 N   0  0  0  0  0  0  0  0  0  0  0  0
   -3.3007   -2.5581    0.0000 C   0  0  0  0  0  0  0  0  0  0  0  0
   -2.5994   -3.0121    0.0000 O   0  0  0  0  0  0  0  0  0  0  0  0
   -3.3007   -1.7329    0.0000 O   0  0  0  0  0  0  0  0  0  0  0  0
   -1.8979   -2.5994    0.0000 C   0  0  0  0  0  0  0  0  0  0  0  0
   -7.3856   -1.2378    0.0000 C   0  0  0  0  0  0  0  0  0  0  0  0
   -7.3856   -0.4126    0.0000 C   0  0  0  0  0  0  0  0  0  0  0  0
  1  2  1  0  0  0  0
  2  3  1  0  0  0  0
  3  4  1  0  0  0  0
  4  5  1  0  0  0  0
  1  5  1  0  0  0  0
  3  6  2  0  0  0  0
  6  7  1  0  0  0  0
  7  8  2  0  0  0  0
  8  9  1  0  0  0  0
  4  9  2  0  0  0  0
  1 10  2  0  0  0  0
 10 11  1  0  0  0  0
 11 12  2  0  0  0  0
 12 13  1  0  0  0  0
  2 13  2  0  0  0  0
  5 14  1  0  0  0  0
  5 15  1  0  0  0  0
 16 17  2  0  0  0  0
 17 18  1  0  0  0  0
 18 19  2  0  0  0  0
 19 20  1  0  0  0  0
 20 21  2  0  0  0  0
 16 21  1  0  0  0  0
 19 22  1  0  0  0  0
 22 23  2  0  0  0  0
 23 24  1  0  0  0  0
 20 24  1  0  0  0  0
 25 23  1  1  0  0  0
 25 26  1  0  0  0  0
 26 27  1  0  0  0  0
 27 28  1  0  0  0  0
 28 29  1  0  0  0  0
 29 30  1  0  0  0  0
 25 30  1  0  0  0  0
 30 31  1  0  0  0  0
 31 32  2  0  0  0  0
 33 31  1  0  0  0  0
 33 34  1  1  0  0  0
 33 35  1  0  0  0  0
 34 36  1  0  0  0  0
 34 37  1  0  0  0  0
 35 38  1  0  0  0  0
 38 39  1  0  0  0  0
 38 40  2  0  0  0  0
 39 41  1  0  0  0  0
 26 42  1  1  0  0  0
 29 42  1  1  0  0  0
 17  8  1  0  0  0  0
 43 44  1  0  0  0  0
 44 45  2  0  0  0  0
 45 46  1  0  0  0  0
 46 47  2  0  0  0  0
 43 47  1  0  0  0  0
 46 11  1  0  0  0  0
 48 44  1  1  0  0  0
 48 49  1  0  0  0  0
 49 50  1  0  0  0  0
 50 51  1  0  0  0  0
 51 52  1  0  0  0  0
 48 52  1  0  0  0  0
 52 53  1  0  0  0  0
 53 54  2  0  0  0  0
 55 53  1  0  0  0  0
 55 56  1  1  0  0  0
 56 57  1  0  0  0  0
 56 58  1  0  0  0  0
 55 59  1  0  0  0  0
 59 60  1  0  0  0  0
 60 61  1  0  0  0  0
 60 62  2  0  0  0  0
 61 63  1  0  0  0  0
 64 50  1  0  0  0  0
 65 64  1  0  0  0  0
 50 65  1  0  0  0  0
M  END
> <DATABASE_ID>
DB09027

> <DATABASE_NAME>
drugbank

> <SMILES>
COC(=O)N[C@@H](C(C)C)C(=O)N1CC2(CC2)C[C@H]1C1=NC(=CN1)C1=CC=C2C3=CC=C(C=C3C(F)(F)C2=C1)C1=CC=C2NC(=NC2=C1)[C@@H]1[C@H]2CC[C@H](C2)N1C(=O)[C@@H](NC(=O)OC)C(C)C

> <INCHI_IDENTIFIER>
InChI=1S/C49H54F2N8O6/c1-24(2)39(56-46(62)64-5)44(60)58-23-48(15-16-48)21-38(58)42-52-22-37(55-42)28-9-13-32-31-12-8-26(18-33(31)49(50,51)34(32)19-28)27-10-14-35-36(20-27)54-43(53-35)41-29-7-11-30(17-29)59(41)45(61)40(25(3)4)57-47(63)65-6/h8-10,12-14,18-20,22,24-25,29-30,38-41H,7,11,15-17,21,23H2,1-6H3,(H,52,55)(H,53,54)(H,56,62)(H,57,63)/t29-,30+,38-,39-,40-,41-/m0/s1

> <INCHI_KEY>
VRTWBAAJJOHBQU-KMWAZVGDSA-N

> <FORMULA>
C49H54F2N8O6

> <MOLECULAR_WEIGHT>
888.9999

> <EXACT_MASS>
888.41343791

> <JCHEM_ACCEPTOR_COUNT>
6

> <JCHEM_ATOM_COUNT>
119

> <JCHEM_AVERAGE_POLARIZABILITY>
97.49318620941649

> <JCHEM_BIOAVAILABILITY>
0

> <JCHEM_DONOR_COUNT>
4

> <JCHEM_FORMAL_CHARGE>
0

> <JCHEM_GHOSE_FILTER>
0

> <JCHEM_IUPAC>
methyl N-[(2S)-1-[(6S)-6-[4-(9,9-difluoro-7-{2-[(1R,3S,4S)-2-[(2S)-2-[(methoxycarbonyl)amino]-3-methylbutanoyl]-2-azabicyclo[2.2.1]heptan-3-yl]-1H-1,3-benzodiazol-5-yl}-9H-fluoren-2-yl)-1H-imidazol-2-yl]-5-azaspiro[2.4]heptan-5-yl]-3-methyl-1-oxobutan-2-yl]carbamate

> <ALOGPS_LOGP>
5.98

> <JCHEM_LOGP>
7.177163441999997

> <ALOGPS_LOGS>
-5.36

> <JCHEM_MDDR_LIKE_RULE>
1

> <JCHEM_NUMBER_OF_RINGS>
10

> <JCHEM_PHYSIOLOGICAL_CHARGE>
0

> <JCHEM_PKA>
12.707472670767752

> <JCHEM_PKA_STRONGEST_ACIDIC>
11.33171871751028

> <JCHEM_PKA_STRONGEST_BASIC>
5.293331407572157

> <JCHEM_POLAR_SURFACE_AREA>
174.63999999999996

> <JCHEM_REFRACTIVITY>
235.47240000000002

> <JCHEM_ROTATABLE_BOND_COUNT>
12

> <JCHEM_RULE_OF_FIVE>
0

> <ALOGPS_SOLUBILITY>
3.88e-03 g/l

> <JCHEM_TRADITIONAL_IUPAC>
[(2R,3R,4S,5S)-3,4-dihydroxy-5-{4-oxo-1H,5H-pyrrolo[3,2-d]pyrimidin-7-yl}pyrrolidin-2-yl]methoxyphosphonic acid

> <JCHEM_VEBER_RULE>
0

> <DRUGBANK_ID>
DB09027

> <DRUG_GROUPS>
approved

> <GENERIC_NAME>
Ledipasvir

> <SYNONYMS>
LÃ©dipasvir; Ledipasvir; Ledipasvirum

> <PRODUCTS>
Harvoni; Harvoni Access; Ledipasvir and Sofosbuvir

$$$$
