
  Mrv1652310211600322D          

 29 33  0  0  0  0            999 V2000
   -3.4316   -2.4225    0.0000 C   0  0  0  0  0  0  0  0  0  0  0  0
   -2.6111   -2.5087    0.0000 O   0  0  0  0  0  0  0  0  0  0  0  0
   -2.1262   -1.8413    0.0000 N   0  0  0  0  0  0  0  0  0  0  0  0
   -1.3057   -1.9275    0.0000 C   0  0  0  0  0  0  0  0  0  0  0  0
   -0.7537   -1.3144    0.0000 C   0  0  0  0  0  0  0  0  0  0  0  0
    0.0000   -1.6500    0.0000 N   0  0  0  0  0  0  0  0  0  0  0  0
   -0.0862   -2.4705    0.0000 C   0  0  0  0  0  0  0  0  0  0  0  0
   -0.8932   -2.6420    0.0000 C   0  0  0  0  0  0  0  0  0  0  0  0
   -0.5976   -3.4122    0.0000 C   0  0  0  0  0  0  0  0  0  0  0  0
   -1.3678   -3.7079    0.0000 N   0  0  0  0  0  0  0  0  0  0  0  0
   -1.6634   -2.9377    0.0000 C   0  0  0  0  0  0  0  0  0  0  0  0
    0.7145   -1.2375    0.0000 C   0  0  0  0  0  0  0  0  0  0  0  0
    0.7145   -0.4125    0.0000 C   0  0  0  0  0  0  0  0  0  0  0  0
    1.4289    0.0000    0.0000 C   0  0  0  0  0  0  0  0  0  0  0  0
    2.1434   -0.4125    0.0000 C   0  0  0  0  0  0  0  0  0  0  0  0
    2.8579    0.0000    0.0000 C   0  0  0  0  0  0  0  0  0  0  0  0
    2.8579    0.8250    0.0000 O   0  0  0  0  0  0  0  0  0  0  0  0
    3.5724   -0.4125    0.0000 C   0  0  0  0  0  0  0  0  0  0  0  0
    3.5724   -1.2375    0.0000 C   0  0  0  0  0  0  0  0  0  0  0  0
    2.8579   -1.6500    0.0000 N   0  0  0  0  0  0  0  0  0  0  0  0
    2.1434   -1.2375    0.0000 C   0  0  0  0  0  0  0  0  0  0  0  0
    1.4289   -1.6500    0.0000 N   0  0  0  0  0  0  0  0  0  0  0  0
    2.8579   -2.4750    0.0000 C   0  0  0  0  0  0  0  0  0  0  0  0
    3.2704   -3.1895    0.0000 C   0  0  0  0  0  0  0  0  0  0  0  0
    2.4454   -3.1895    0.0000 C   0  0  0  0  0  0  0  0  0  0  0  0
    4.2868   -0.0000    0.0000 C   0  0  0  0  0  0  0  0  0  0  0  0
    4.2868    0.8250    0.0000 O   0  0  0  0  0  0  0  0  0  0  0  0
    5.0013   -0.4125    0.0000 O   0  0  0  0  0  0  0  0  0  0  0  0
    0.0000    0.0000    0.0000 F   0  0  0  0  0  0  0  0  0  0  0  0
  1  2  1  0  0  0  0
  3  2  1  4  0  0  0
  3  4  2  0  0  0  0
  4  5  1  0  0  0  0
  5  6  1  0  0  0  0
  6  7  1  0  0  0  0
  7  8  1  0  0  0  0
  4  8  1  0  0  0  0
  8  9  1  0  0  0  0
  9 10  1  0  0  0  0
 10 11  1  0  0  0  0
  8 11  1  0  0  0  0
  6 12  1  0  0  0  0
 12 13  2  0  0  0  0
 13 14  1  0  0  0  0
 14 15  2  0  0  0  0
 15 16  1  0  0  0  0
 16 17  2  0  0  0  0
 16 18  1  0  0  0  0
 18 19  2  0  0  0  0
 19 20  1  0  0  0  0
 20 21  1  0  0  0  0
 15 21  1  0  0  0  0
 21 22  2  0  0  0  0
 12 22  1  0  0  0  0
 20 23  1  0  0  0  0
 23 24  1  0  0  0  0
 24 25  1  0  0  0  0
 23 25  1  0  0  0  0
 18 26  1  0  0  0  0
 26 27  2  0  0  0  0
 26 28  1  0  0  0  0
 13 29  1  0  0  0  0
M  END
> <DATABASE_ID>
DB12479

> <DATABASE_NAME>
drugbank

> <SMILES>
CON=C1CN(CC11CNC1)C1=C(F)C=C2C(=O)C(=CN(C3CC3)C2=N1)C(O)=O

> <INCHI_IDENTIFIER>
InChI=1S/C19H20FN5O4/c1-29-23-14-6-24(9-19(14)7-21-8-19)17-13(20)4-11-15(26)12(18(27)28)5-25(10-2-3-10)16(11)22-17/h4-5,10,21H,2-3,6-9H2,1H3,(H,27,28)

> <INCHI_KEY>
ZNPOCLHDJCAZAH-UHFFFAOYSA-N

> <FORMULA>
C19H20FN5O4

> <MOLECULAR_WEIGHT>
401.398

> <EXACT_MASS>
401.149932307

> <JCHEM_ACCEPTOR_COUNT>
9

> <JCHEM_ATOM_COUNT>
49

> <JCHEM_AVERAGE_POLARIZABILITY>
40.29407121128787

> <JCHEM_BIOAVAILABILITY>
1

> <JCHEM_DONOR_COUNT>
2

> <JCHEM_FORMAL_CHARGE>
0

> <JCHEM_GHOSE_FILTER>
0

> <JCHEM_IUPAC>
1-cyclopropyl-6-fluoro-7-[8-(methoxyimino)-2,6-diazaspiro[3.4]octan-6-yl]-4-oxo-1,4-dihydro-1,8-naphthyridine-3-carboxylic acid

> <ALOGPS_LOGP>
-0.89

> <JCHEM_LOGP>
-0.8926941848271958

> <ALOGPS_LOGS>
-3.31

> <JCHEM_MDDR_LIKE_RULE>
0

> <JCHEM_NUMBER_OF_RINGS>
5

> <JCHEM_PHYSIOLOGICAL_CHARGE>
0

> <JCHEM_PKA_STRONGEST_ACIDIC>
5.533073784805266

> <JCHEM_PKA_STRONGEST_BASIC>
9.410045034864327

> <JCHEM_POLAR_SURFACE_AREA>
107.36

> <JCHEM_REFRACTIVITY>
102.5298

> <JCHEM_ROTATABLE_BOND_COUNT>
4

> <JCHEM_RULE_OF_FIVE>
1

> <ALOGPS_SOLUBILITY>
1.96e-01 g/l

> <JCHEM_TRADITIONAL_IUPAC>
zabofloxacin

> <JCHEM_VEBER_RULE>
0

> <DRUGBANK_ID>
DB12479

> <DRUG_GROUPS>
investigational

> <GENERIC_NAME>
Zabofloxacin

> <SYNONYMS>
Zabofloxacin

$$$$
