
  Mrv1718001121818492D          

 26 29  0  0  0  0            999 V2000
    1.3711   -1.7267    0.0000 C   0  0  0  0  0  0  0  0  0  0  0  0
   -1.8241   -0.6266    0.0000 C   0  0  0  0  0  0  0  0  0  0  0  0
    2.3234    1.3619    0.0000 C   0  0  0  0  0  0  0  0  0  0  0  0
   -0.0051   -1.7038    0.0000 C   0  0  0  0  0  0  0  0  0  0  0  0
   -0.5560   -1.0981    0.0000 C   0  0  0  0  0  0  0  0  0  0  0  0
    1.6502   -0.4427    0.0000 C   0  0  0  0  0  0  0  0  0  0  0  0
    2.1283    0.2307    0.0000 C   0  0  0  0  0  0  0  0  0  0  0  0
    0.6980   -1.2822    0.0000 C   0  0  2  0  0  0  0  0  0  0  0  0
   -1.2762   -0.0346    0.0000 C   0  0  2  0  0  0  0  0  0  0  0  0
    0.8117   -0.4538    0.0000 C   0  0  1  0  0  0  0  0  0  0  0  0
   -0.4621   -0.2620    0.0000 C   0  0  1  0  0  0  0  0  0  0  0  0
   -1.5583    0.7377    0.0000 C   0  0  0  0  0  0  0  0  0  0  0  0
   -0.0722    0.9205    0.0000 C   0  0  2  0  0  0  0  0  0  0  0  0
    1.6533    0.9130    0.0000 C   0  0  1  0  0  0  0  0  0  0  0  0
    0.2636    0.2261    0.0000 C   0  0  1  0  0  0  0  0  0  0  0  0
   -2.3234    0.9934    0.0000 O   0  0  0  0  0  0  0  0  0  0  0  0
   -0.8688    1.1852    0.0000 O   0  0  0  0  0  0  0  0  0  0  0  0
    0.8397    0.7048    0.0000 O   0  0  0  0  0  0  0  0  0  0  0  0
    1.2069    1.6058    0.0000 O   0  0  0  0  0  0  0  0  0  0  0  0
    0.4968    1.1557    0.0000 O   0  0  0  0  0  0  0  0  0  0  0  0
    1.4328   -0.9494    0.0000 H   0  0  0  0  0  0  0  0  0  0  0  0
   -1.0565   -0.8108    0.0000 H   0  0  0  0  0  0  0  0  0  0  0  0
    1.1551    0.2761    0.0000 H   0  0  0  0  0  0  0  0  0  0  0  0
   -0.5905    0.5340    0.0000 H   0  0  0  0  0  0  0  0  0  0  0  0
   -1.6601    1.5379    0.0000 H   0  0  0  0  0  0  0  0  0  0  0  0
   -0.1007    1.7267    0.0000 H   0  0  0  0  0  0  0  0  0  0  0  0
  5  4  1  0  0  0  0
  7  6  1  0  0  0  0
  8  1  1  6  0  0  0
  8  4  1  0  0  0  0
  9  2  1  1  0  0  0
 10  6  1  0  0  0  0
 10  8  1  0  0  0  0
 11  5  1  0  0  0  0
 11  9  1  0  0  0  0
  9 12  1  0  0  0  0
 14  3  1  1  0  0  0
 14  7  1  0  0  0  0
 15 10  1  0  0  0  0
 15 11  1  0  0  0  0
 15 13  1  0  0  0  0
 16 12  1  0  0  0  0
 17 12  1  0  0  0  0
 13 17  1  0  0  0  0
 13 18  1  0  0  0  0
 14 18  1  0  0  0  0
 14 19  1  0  0  0  0
 15 20  1  6  0  0  0
 20 19  1  0  0  0  0
  8 21  1  1  0  0  0
  9 22  1  6  0  0  0
 10 23  1  6  0  0  0
 11 24  1  6  0  0  0
 25 12  1  0  0  0  0
 13 26  1  1  0  0  0
M  END
> <DATABASE_ID>
DB11638

> <DATABASE_NAME>
drugbank

> <SMILES>
[H][C@@]1(C)CC[C@@]2([H])[C@@]([H])(C)C([H])(O)O[C@]3([H])O[C@@]4(C)CC[C@]1([H])[C@@]23OO4

> <INCHI_IDENTIFIER>
InChI=1S/C15H24O5/c1-8-4-5-11-9(2)12(16)17-13-15(11)10(8)6-7-14(3,18-13)19-20-15/h8-13,16H,4-7H2,1-3H3/t8-,9-,10+,11+,12?,13-,14-,15-/m1/s1

> <INCHI_KEY>
BJDCWCLMFKKGEE-HVDUHBCDSA-N

> <FORMULA>
C15H24O5

> <MOLECULAR_WEIGHT>
284.352

> <EXACT_MASS>
284.162373873

> <JCHEM_ACCEPTOR_COUNT>
5

> <JCHEM_ATOM_COUNT>
44

> <JCHEM_AVERAGE_POLARIZABILITY>
30.198003330499382

> <JCHEM_BIOAVAILABILITY>
1

> <JCHEM_DONOR_COUNT>
1

> <JCHEM_FORMAL_CHARGE>
0

> <JCHEM_GHOSE_FILTER>
1

> <JCHEM_IUPAC>
(1R,4S,5R,8S,9R,12R,13R)-1,5,9-trimethyl-11,14,15,16-tetraoxatetracyclo[10.3.1.0^{4,13}.0^{8,13}]hexadecan-10-ol

> <ALOGPS_LOGP>
2.25

> <JCHEM_LOGP>
2.838265516666666

> <ALOGPS_LOGS>
-1.95

> <JCHEM_MDDR_LIKE_RULE>
0

> <JCHEM_NUMBER_OF_RINGS>
4

> <JCHEM_PHYSIOLOGICAL_CHARGE>
0

> <JCHEM_PKA_STRONGEST_ACIDIC>
12.114969558644466

> <JCHEM_PKA_STRONGEST_BASIC>
-4.060712315048911

> <JCHEM_POLAR_SURFACE_AREA>
57.150000000000006

> <JCHEM_REFRACTIVITY>
69.9093

> <JCHEM_ROTATABLE_BOND_COUNT>
0

> <JCHEM_RULE_OF_FIVE>
1

> <ALOGPS_SOLUBILITY>
3.16e+00 g/l

> <JCHEM_TRADITIONAL_IUPAC>
(1R,4S,5R,8S,9R,12R,13R)-1,5,9-trimethyl-11,14,15,16-tetraoxatetracyclo[10.3.1.0^{4,13}.0^{8,13}]hexadecan-10-ol

> <JCHEM_VEBER_RULE>
0

> <DRUGBANK_ID>
DB11638

> <DRUG_GROUPS>
approved; experimental; investigational

> <GENERIC_NAME>
Artenimol

> <SYNONYMS>
Artenimol; beta-Dihydroartemisinin; Dihydroartemisinin

> <PRODUCTS>
Eurartesim

$$$$
