
  Mrv1909 05201914442D          

 45 50  0  0  0  0            999 V2000
   -6.8159   -2.8414    0.0000 C   0  0  0  0  0  0  0  0  0  0  0  0
   -6.4034   -2.1269    0.0000 O   0  0  0  0  0  0  0  0  0  0  0  0
   -5.5784   -2.1269    0.0000 C   0  0  0  0  0  0  0  0  0  0  0  0
   -5.1659   -1.4124    0.0000 C   0  0  0  0  0  0  0  0  0  0  0  0
   -4.3409   -1.4124    0.0000 N   0  0  0  0  0  0  0  0  0  0  0  0
   -3.9284   -0.6979    0.0000 C   0  0  0  0  0  0  0  0  0  0  0  0
   -3.1034   -0.6979    0.0000 C   0  0  0  0  0  0  0  0  0  0  0  0
   -2.6909    0.0165    0.0000 C   0  0  0  0  0  0  0  0  0  0  0  0
   -1.8659    0.0165    0.0000 C   0  0  0  0  0  0  0  0  0  0  0  0
   -1.4534   -0.6979    0.0000 C   0  0  0  0  0  0  0  0  0  0  0  0
   -1.8659   -1.4124    0.0000 N   0  0  0  0  0  0  0  0  0  0  0  0
   -2.6909   -1.4124    0.0000 C   0  0  0  0  0  0  0  0  0  0  0  0
   -0.6284   -0.6979    0.0000 C   0  0  0  0  0  0  0  0  0  0  0  0
   -0.1435   -1.3654    0.0000 C   0  0  0  0  0  0  0  0  0  0  0  0
    0.6411   -1.1104    0.0000 C   0  0  0  0  0  0  0  0  0  0  0  0
    0.6411   -0.2854    0.0000 C   0  0  0  0  0  0  0  0  0  0  0  0
   -0.1435   -0.0305    0.0000 S   0  0  0  0  0  0  0  0  0  0  0  0
    1.3556    0.1271    0.0000 C   0  0  0  0  0  0  0  0  0  0  0  0
    1.3556    0.9521    0.0000 O   0  0  0  0  0  0  0  0  0  0  0  0
    2.0701    1.3646    0.0000 C   0  0  0  0  0  0  0  0  0  0  0  0
    2.0701    2.1896    0.0000 C   0  0  0  0  0  0  0  0  0  0  0  0
    1.3556    2.6021    0.0000 F   0  0  0  0  0  0  0  0  0  0  0  0
    2.7845    2.6021    0.0000 C   0  0  0  0  0  0  0  0  0  0  0  0
    3.4990    2.1896    0.0000 C   0  0  0  0  0  0  0  0  0  0  0  0
    4.2135    2.6021    0.0000 N   0  0  0  0  0  0  0  0  0  0  0  0
    4.2135    3.4271    0.0000 C   0  0  0  0  0  0  0  0  0  0  0  0
    3.4990    3.8396    0.0000 O   0  0  0  0  0  0  0  0  0  0  0  0
    4.9279    3.8396    0.0000 C   0  0  0  0  0  0  0  0  0  0  0  0
    5.7404    3.9828    0.0000 C   0  0  0  0  0  0  0  0  0  0  0  0
    5.4582    3.2076    0.0000 C   0  0  0  0  0  0  0  0  0  0  0  0
    4.6458    4.6148    0.0000 C   0  0  0  0  0  0  0  0  0  0  0  0
    3.8333    4.7581    0.0000 O   0  0  0  0  0  0  0  0  0  0  0  0
    5.1761    5.2468    0.0000 N   0  0  0  0  0  0  0  0  0  0  0  0
    5.9885    5.1035    0.0000 C   0  0  0  0  0  0  0  0  0  0  0  0
    6.5188    5.7355    0.0000 C   0  0  0  0  0  0  0  0  0  0  0  0
    7.3313    5.5923    0.0000 C   0  0  0  0  0  0  0  0  0  0  0  0
    7.6135    4.8170    0.0000 C   0  0  0  0  0  0  0  0  0  0  0  0
    8.4259    4.6738    0.0000 F   0  0  0  0  0  0  0  0  0  0  0  0
    7.0832    4.1850    0.0000 C   0  0  0  0  0  0  0  0  0  0  0  0
    6.2707    4.3283    0.0000 C   0  0  0  0  0  0  0  0  0  0  0  0
    3.4990    1.3646    0.0000 C   0  0  0  0  0  0  0  0  0  0  0  0
    2.7845    0.9521    0.0000 C   0  0  0  0  0  0  0  0  0  0  0  0
    2.0701   -0.2854    0.0000 C   0  0  0  0  0  0  0  0  0  0  0  0
    2.0701   -1.1104    0.0000 C   0  0  0  0  0  0  0  0  0  0  0  0
    1.3556   -1.5229    0.0000 N   0  0  0  0  0  0  0  0  0  0  0  0
  1  2  1  0  0  0  0
  2  3  1  0  0  0  0
  3  4  1  0  0  0  0
  4  5  1  0  0  0  0
  5  6  1  0  0  0  0
  6  7  1  0  0  0  0
  7  8  2  0  0  0  0
  8  9  1  0  0  0  0
  9 10  2  0  0  0  0
 10 11  1  0  0  0  0
 11 12  2  0  0  0  0
  7 12  1  0  0  0  0
 10 13  1  0  0  0  0
 13 14  2  0  0  0  0
 14 15  1  0  0  0  0
 15 16  2  0  0  0  0
 16 17  1  0  0  0  0
 13 17  1  0  0  0  0
 16 18  1  0  0  0  0
 18 19  1  0  0  0  0
 19 20  1  0  0  0  0
 20 21  2  0  0  0  0
 21 22  1  0  0  0  0
 21 23  1  0  0  0  0
 23 24  2  0  0  0  0
 24 25  1  0  0  0  0
 25 26  1  0  0  0  0
 26 27  2  0  0  0  0
 26 28  1  0  0  0  0
 28 29  1  0  0  0  0
 29 30  1  0  0  0  0
 28 30  1  0  0  0  0
 28 31  1  0  0  0  0
 31 32  2  0  0  0  0
 31 33  1  0  0  0  0
 33 34  1  0  0  0  0
 34 35  2  0  0  0  0
 35 36  1  0  0  0  0
 36 37  2  0  0  0  0
 37 38  1  0  0  0  0
 37 39  1  0  0  0  0
 39 40  2  0  0  0  0
 34 40  1  0  0  0  0
 24 41  1  0  0  0  0
 41 42  2  0  0  0  0
 20 42  1  0  0  0  0
 18 43  2  0  0  0  0
 43 44  1  0  0  0  0
 44 45  2  0  0  0  0
 15 45  1  0  0  0  0
M  END
> <DATABASE_ID>
DB15036

> <DATABASE_NAME>
drugbank

> <SMILES>
COCCNCC1=CC=C(N=C1)C1=CC2=C(S1)C(OC1=C(F)C=C(NC(=O)C3(CC3)C(=O)NC3=CC=C(F)C=C3)C=C1)=CC=N2

> <INCHI_IDENTIFIER>
InChI=1S/C33H29F2N5O4S/c1-43-15-14-36-18-20-2-8-25(38-19-20)29-17-26-30(45-29)28(10-13-37-26)44-27-9-7-23(16-24(27)35)40-32(42)33(11-12-33)31(41)39-22-5-3-21(34)4-6-22/h2-10,13,16-17,19,36H,11-12,14-15,18H2,1H3,(H,39,41)(H,40,42)

> <INCHI_KEY>
WLAVZAAODLTUSW-UHFFFAOYSA-N

> <FORMULA>
C33H29F2N5O4S

> <MOLECULAR_WEIGHT>
629.68

> <EXACT_MASS>
629.190831934

> <JCHEM_ACCEPTOR_COUNT>
6

> <JCHEM_ATOM_COUNT>
74

> <JCHEM_AVERAGE_POLARIZABILITY>
64.71073627596168

> <JCHEM_BIOAVAILABILITY>
0

> <JCHEM_DONOR_COUNT>
3

> <JCHEM_FORMAL_CHARGE>
0

> <JCHEM_GHOSE_FILTER>
0

> <JCHEM_IUPAC>
N'1-(3-fluoro-4-{[2-(5-{[(2-methoxyethyl)amino]methyl}pyridin-2-yl)thieno[3,2-b]pyridin-7-yl]oxy}phenyl)-N1-(4-fluorophenyl)cyclopropane-1,1-dicarboxamide

> <ALOGPS_LOGP>
4.49

> <JCHEM_LOGP>
5.326137624000001

> <ALOGPS_LOGS>
-6.08

> <JCHEM_MDDR_LIKE_RULE>
1

> <JCHEM_NUMBER_OF_RINGS>
6

> <JCHEM_PHYSIOLOGICAL_CHARGE>
1

> <JCHEM_PKA>
14.237127866145705

> <JCHEM_PKA_STRONGEST_ACIDIC>
13.172874866047117

> <JCHEM_PKA_STRONGEST_BASIC>
8.329554927884827

> <JCHEM_POLAR_SURFACE_AREA>
114.46999999999998

> <JCHEM_REFRACTIVITY>
166.98339999999988

> <JCHEM_ROTATABLE_BOND_COUNT>
12

> <JCHEM_RULE_OF_FIVE>
0

> <ALOGPS_SOLUBILITY>
5.27e-04 g/l

> <JCHEM_TRADITIONAL_IUPAC>
(2R)-14-fluoro-2-methyl-6,9,10,19-tetraazapentacyclo[14.2.1.0^{2,6}.0^{8,18}.0^{12,17}]nonadeca-1(18),8,12(17),13,15-pentaen-11-one

> <JCHEM_VEBER_RULE>
0

> <DRUGBANK_ID>
DB15036

> <DRUG_GROUPS>
investigational

> <GENERIC_NAME>
Sitravatinib

> <SYNONYMS>
Sitravatinib

$$$$
