
  Mrv1718006281818122D          

  1  0  0  0  0  0            999 V2000
    0.0000    0.0000    0.0000 Au  0  0  0  0  0  0  0  0  0  0  0  0
M  END
> <DATABASE_ID>
DB14154

> <DATABASE_NAME>
drugbank

> <SMILES>
[Au]

> <INCHI_IDENTIFIER>
InChI=1S/Au

> <INCHI_KEY>
PCHJSUWPFVWCPO-UHFFFAOYSA-N

> <FORMULA>
Au

> <MOLECULAR_WEIGHT>
196.9666

> <EXACT_MASS>
196.966551609

> <JCHEM_ACCEPTOR_COUNT>
0

> <JCHEM_ATOM_COUNT>
1

> <JCHEM_AVERAGE_POLARIZABILITY>
1.7784

> <JCHEM_BIOAVAILABILITY>
1

> <JCHEM_DONOR_COUNT>
0

> <JCHEM_FORMAL_CHARGE>
0

> <JCHEM_GHOSE_FILTER>
0

> <JCHEM_IUPAC>
gold

> <JCHEM_LOGP>
0.029999999999999995

> <JCHEM_MDDR_LIKE_RULE>
0

> <JCHEM_NUMBER_OF_RINGS>
0

> <JCHEM_PHYSIOLOGICAL_CHARGE>
0

> <JCHEM_POLAR_SURFACE_AREA>
0.0

> <JCHEM_REFRACTIVITY>
0.0

> <JCHEM_ROTATABLE_BOND_COUNT>
0

> <JCHEM_RULE_OF_FIVE>
1

> <JCHEM_TRADITIONAL_IUPAC>
gold

> <JCHEM_VEBER_RULE>
1

> <DRUGBANK_ID>
DB14154

> <DRUG_GROUPS>
experimental

> <GENERIC_NAME>
Gold

> <SYNONYMS>
Aurum metallicum; Colloidal gold; Gold flake; Gold leaf; Gold powder; Gold, colloidal; Gold, elemental

> <PRODUCTS>
HydroGold 9; Medi SM 24K Gold Hydrogel Peptide Mask Pack

$$$$
