
  Mrv1718003271816542D          

 21 23  0  0  0  0            999 V2000
    1.7727    0.4257    0.0000 N   0  0  0  0  0  0  0  0  0  0  0  0
    2.4847    0.8424    0.0000 C   0  0  0  0  0  0  0  0  0  0  0  0
    2.4812    1.6649    0.0000 C   0  0  0  0  0  0  0  0  0  0  0  0
    1.7636    2.0744    0.0000 N   0  0  0  0  0  0  0  0  0  0  0  0
    1.0516    1.6577    0.0000 C   0  0  0  0  0  0  0  0  0  0  0  0
    1.0573    0.8316    0.0000 C   0  0  0  0  0  0  0  0  0  0  0  0
    1.7783   -0.4004    0.0000 C   0  0  0  0  0  0  0  0  0  0  0  0
    1.0663   -0.8171    0.0000 C   0  0  0  0  0  0  0  0  0  0  0  0
    1.0718   -1.6432    0.0000 C   0  0  0  0  0  0  0  0  0  0  0  0
    1.7873   -2.0491    0.0000 C   0  0  0  0  0  0  0  0  0  0  0  0
    2.4993   -1.6324    0.0000 C   0  0  0  0  0  0  0  0  0  0  0  0
    2.4958   -0.8099    0.0000 C   0  0  0  0  0  0  0  0  0  0  0  0
    0.3487   -0.4076    0.0000 S   0  0  0  0  0  0  0  0  0  0  0  0
   -0.3632   -0.8243    0.0000 C   0  0  0  0  0  0  0  0  0  0  0  0
   -1.0787   -0.4184    0.0000 C   0  0  0  0  0  0  0  0  0  0  0  0
   -1.7907   -0.8351    0.0000 C   0  0  0  0  0  0  0  0  0  0  0  0
   -1.7873   -1.6577    0.0000 C   0  0  0  0  0  0  0  0  0  0  0  0
   -1.0697   -2.0671    0.0000 C   0  0  0  0  0  0  0  0  0  0  0  0
   -0.3577   -1.6504    0.0000 C   0  0  0  0  0  0  0  0  0  0  0  0
   -2.4993   -2.0744    0.0000 C   0  0  0  0  0  0  0  0  0  0  0  0
   -1.0842    0.4076    0.0000 C   0  0  0  0  0  0  0  0  0  0  0  0
  1  2  1  0  0  0  0
  2  3  1  0  0  0  0
  3  4  1  0  0  0  0
  4  5  1  0  0  0  0
  5  6  1  0  0  0  0
  1  6  1  0  0  0  0
  7  8  1  0  0  0  0
  8  9  2  0  0  0  0
  9 10  1  0  0  0  0
 10 11  2  0  0  0  0
 11 12  1  0  0  0  0
  7 12  2  0  0  0  0
 14 15  1  0  0  0  0
 15 16  2  0  0  0  0
 16 17  1  0  0  0  0
 17 18  2  0  0  0  0
 18 19  1  0  0  0  0
 14 19  2  0  0  0  0
 13 14  1  0  0  0  0
 17 20  1  0  0  0  0
 15 21  1  0  0  0  0
  8 13  1  0  0  0  0
  1  7  1  0  0  0  0
M  END
> <DATABASE_ID>
DB09068

> <DATABASE_NAME>
drugbank

> <SMILES>
CC1=CC=C(SC2=CC=CC=C2N2CCNCC2)C(C)=C1

> <INCHI_IDENTIFIER>
InChI=1S/C18H22N2S/c1-14-7-8-17(15(2)13-14)21-18-6-4-3-5-16(18)20-11-9-19-10-12-20/h3-8,13,19H,9-12H2,1-2H3

> <INCHI_KEY>
YQNWZWMKLDQSAC-UHFFFAOYSA-N

> <FORMULA>
C18H22N2S

> <MOLECULAR_WEIGHT>
298.45

> <EXACT_MASS>
298.15036989

> <JCHEM_ACCEPTOR_COUNT>
2

> <JCHEM_ATOM_COUNT>
43

> <JCHEM_AVERAGE_POLARIZABILITY>
34.91572947486042

> <JCHEM_BIOAVAILABILITY>
1

> <JCHEM_DONOR_COUNT>
1

> <JCHEM_FORMAL_CHARGE>
0

> <JCHEM_GHOSE_FILTER>
1

> <JCHEM_IUPAC>
1-{2-[(2,4-dimethylphenyl)sulfanyl]phenyl}piperazine

> <ALOGPS_LOGP>
4.51

> <JCHEM_LOGP>
4.7609535586666665

> <ALOGPS_LOGS>
-4.92

> <JCHEM_MDDR_LIKE_RULE>
0

> <JCHEM_NUMBER_OF_RINGS>
3

> <JCHEM_PHYSIOLOGICAL_CHARGE>
1

> <JCHEM_PKA_STRONGEST_BASIC>
8.84631496768157

> <JCHEM_POLAR_SURFACE_AREA>
15.27

> <JCHEM_REFRACTIVITY>
94.00850000000001

> <JCHEM_ROTATABLE_BOND_COUNT>
3

> <JCHEM_RULE_OF_FIVE>
1

> <ALOGPS_SOLUBILITY>
3.62e-03 g/l

> <JCHEM_TRADITIONAL_IUPAC>
vortioxetine

> <JCHEM_VEBER_RULE>
1

> <DRUGBANK_ID>
DB09068

> <SECONDARY_ACCESSION_NUMBERS>
DB05700

> <DRUG_GROUPS>
approved; investigational

> <GENERIC_NAME>
Vortioxetine

> <SYNONYMS>
Vortioxetina; VortioxÃ©tine; Vortioxetine; vortioxetinum

> <PRODUCTS>
Brintellix; Trintellix

> <SALTS>
Vortioxetine hydrobromide

$$$$
