
  Mrv1718007121815462D          

  1  0  0  0  0  0            999 V2000
    0.0000    0.0000    0.0000 Zn  0  2  0  0  0  0  0  0  0  0  0  0
M  CHG  1   1   2
M  END
> <DATABASE_ID>
DB14532

> <DATABASE_NAME>
drugbank

> <SMILES>
[Zn++]

> <INCHI_IDENTIFIER>
InChI=1S/Zn/q+2

> <INCHI_KEY>
PTFCDOFLOPIGGS-UHFFFAOYSA-N

> <FORMULA>
Zn

> <MOLECULAR_WEIGHT>
65.409

> <EXACT_MASS>
63.929146578

> <JCHEM_ACCEPTOR_COUNT>
0

> <JCHEM_ATOM_COUNT>
1

> <JCHEM_AVERAGE_POLARIZABILITY>
1.7784

> <JCHEM_BIOAVAILABILITY>
1

> <JCHEM_DONOR_COUNT>
0

> <JCHEM_FORMAL_CHARGE>
2

> <JCHEM_GHOSE_FILTER>
0

> <JCHEM_IUPAC>
zinc(2+) ion

> <JCHEM_LOGP>
0.156

> <JCHEM_MDDR_LIKE_RULE>
0

> <JCHEM_NUMBER_OF_RINGS>
0

> <JCHEM_PHYSIOLOGICAL_CHARGE>
2

> <JCHEM_PKA>
3.55

> <JCHEM_PKA_STRONGEST_ACIDIC>
3.09

> <JCHEM_POLAR_SURFACE_AREA>
0.0

> <JCHEM_REFRACTIVITY>
0.0

> <JCHEM_ROTATABLE_BOND_COUNT>
0

> <JCHEM_RULE_OF_FIVE>
1

> <JCHEM_TRADITIONAL_IUPAC>
zinc(2+) ion

> <JCHEM_VEBER_RULE>
1

> <DRUGBANK_ID>
DB14532

> <DRUG_GROUPS>
experimental

> <GENERIC_NAME>
Zinc cation

> <SYNONYMS>
Zinc ion; Zinc ion(2+); Zinc, ion (Zn2+); Zinc(2+); Zinc(II)

> <PRODUCTS>
Orajel 3X Medicated For Toothache and Gum; Orajel 4X Medicated For Toothache and Gum; Orajel 4X Medicated For Toothache and Gum, Cream; Orajel 4X Medicated PM For Toothache and Gum

$$$$
