
  Mrv1909 03242123052D          

 21 23  0  0  0  0            999 V2000
   -1.4289   -1.6500    0.0000 N   0  0  0  0  0  0  0  0  0  0  0  0
   -1.4289   -2.4750    0.0000 C   0  0  0  0  0  0  0  0  0  0  0  0
   -0.7145   -2.8875    0.0000 N   0  0  0  0  0  0  0  0  0  0  0  0
   -0.7145   -3.7125    0.0000 C   0  0  0  0  0  0  0  0  0  0  0  0
   -1.4289   -4.1250    0.0000 C   0  0  0  0  0  0  0  0  0  0  0  0
   -2.1434   -3.7125    0.0000 C   0  0  0  0  0  0  0  0  0  0  0  0
   -2.1434   -2.8875    0.0000 N   0  0  0  0  0  0  0  0  0  0  0  0
   -2.8579   -4.1250    0.0000 C   0  0  0  0  0  0  0  0  0  0  0  0
   -2.8579   -4.9500    0.0000 N   0  0  0  0  0  0  0  0  0  0  0  0
   -3.5724   -5.3625    0.0000 C   0  0  0  0  0  0  0  0  0  0  0  0
   -4.2868   -4.9500    0.0000 C   0  0  0  0  0  0  0  0  0  0  0  0
   -5.0013   -5.3625    0.0000 O   0  0  0  0  0  0  0  0  0  0  0  0
   -4.2868   -4.1250    0.0000 C   0  0  0  0  0  0  0  0  0  0  0  0
   -3.5724   -3.7125    0.0000 C   0  0  0  0  0  0  0  0  0  0  0  0
   -3.5724   -6.1875    0.0000 C   0  0  0  0  0  0  0  0  0  0  0  0
   -2.8579   -6.6000    0.0000 N   0  0  0  0  0  0  0  0  0  0  0  0
   -2.8579   -7.4250    0.0000 C   0  0  0  0  0  0  0  0  0  0  0  0
   -2.1434   -7.8375    0.0000 N   0  0  0  0  0  0  0  0  0  0  0  0
   -3.5724   -7.8375    0.0000 N   0  0  0  0  0  0  0  0  0  0  0  0
   -4.2868   -7.4250    0.0000 C   0  0  0  0  0  0  0  0  0  0  0  0
   -4.2868   -6.6000    0.0000 C   0  0  0  0  0  0  0  0  0  0  0  0
  1  2  1  0  0  0  0
  2  3  2  0  0  0  0
  3  4  1  0  0  0  0
  4  5  2  0  0  0  0
  5  6  1  0  0  0  0
  6  7  2  0  0  0  0
  2  7  1  0  0  0  0
  6  8  1  0  0  0  0
  8  9  2  0  0  0  0
  9 10  1  0  0  0  0
 10 11  2  0  0  0  0
 11 12  1  0  0  0  0
 11 13  1  0  0  0  0
 13 14  2  0  0  0  0
  8 14  1  0  0  0  0
 10 15  1  0  0  0  0
 15 16  2  0  0  0  0
 16 17  1  0  0  0  0
 17 18  1  0  0  0  0
 17 19  2  0  0  0  0
 19 20  1  0  0  0  0
 20 21  2  0  0  0  0
 15 21  1  0  0  0  0
M  END
> <DATABASE_ID>
DB16652

> <DATABASE_NAME>
drugbank

> <SMILES>
NC1=NC=CC(=N1)C1=NC(=C(O)C=C1)C1=NC(N)=NC=C1

> <INCHI_IDENTIFIER>
InChI=1S/C13H11N7O/c14-12-16-5-3-8(19-12)7-1-2-10(21)11(18-7)9-4-6-17-13(15)20-9/h1-6,21H,(H2,14,16,19)(H2,15,17,20)

> <INCHI_KEY>
VFVAQKKPFOPZEA-UHFFFAOYSA-N

> <FORMULA>
C13H11N7O

> <MOLECULAR_WEIGHT>
281.279

> <EXACT_MASS>
281.102508002

> <JCHEM_ACCEPTOR_COUNT>
8

> <JCHEM_ATOM_COUNT>
32

> <JCHEM_AVERAGE_NEUTRAL_MICROSPECIES_CHARGE>
2.4343608970012602

> <JCHEM_AVERAGE_POLARIZABILITY>
28.158369008527064

> <JCHEM_BIOAVAILABILITY>
1

> <JCHEM_DONOR_COUNT>
3

> <JCHEM_FORMAL_CHARGE>
0

> <JCHEM_GHOSE_FILTER>
1

> <JCHEM_IUPAC>
2,6-bis(2-aminopyrimidin-4-yl)pyridin-3-ol

> <ALOGPS_LOGP>
1.16

> <JCHEM_LOGP>
1.1425595099999997

> <ALOGPS_LOGS>
-2.83

> <JCHEM_MDDR_LIKE_RULE>
0

> <JCHEM_NEUTRAL_CHARGE>
0

> <JCHEM_NUMBER_OF_RINGS>
3

> <JCHEM_PHYSIOLOGICAL_CHARGE>
0

> <JCHEM_PKA>
16.04644844933682

> <JCHEM_PKA_STRONGEST_ACIDIC>
7.693911470858648

> <JCHEM_PKA_STRONGEST_BASIC>
3.672712326564779

> <JCHEM_POLAR_SURFACE_AREA>
136.72

> <JCHEM_REFRACTIVITY>
77.2878

> <JCHEM_ROTATABLE_BOND_COUNT>
2

> <JCHEM_RULE_OF_FIVE>
1

> <ALOGPS_SOLUBILITY>
4.17e-01 g/l

> <JCHEM_TRADITIONAL_IUPAC>
2,6-bis(2-aminopyrimidin-4-yl)pyridin-3-ol

> <JCHEM_VEBER_RULE>
0

> <DRUGBANK_ID>
DB16652

> <DRUG_GROUPS>
investigational

> <GENERIC_NAME>
Avotaciclib

> <SYNONYMS>
2,6-bis(2-aminopyrimidin-4-yl)pyridin-3-ol; Avotaciclib

> <SALTS>
Avotaciclib sulfate; Avotaciclib trihydrochloride

$$$$
