
  Mrv1909 01272020282D          

 49 51  0  0  0  0            999 V2000
   -2.1270   -0.2029    0.0000 C   0  0  2  0  0  0  0  0  0  0  0  0
   -2.1270   -1.0421    0.0000 C   0  0  0  0  0  0  0  0  0  0  0  0
   -2.8368   -1.4628    0.0000 C   0  0  0  0  0  0  0  0  0  0  0  0
   -2.8368   -2.3019    0.0000 C   0  0  0  0  0  0  0  0  0  0  0  0
   -3.5485   -2.7205    0.0000 C   0  0  0  0  0  0  0  0  0  0  0  0
   -4.2561   -2.3019    0.0000 C   0  0  0  0  0  0  0  0  0  0  0  0
   -4.2561   -1.4628    0.0000 C   0  0  0  0  0  0  0  0  0  0  0  0
   -3.5485   -1.0421    0.0000 C   0  0  0  0  0  0  0  0  0  0  0  0
   -1.4173    0.2154    0.0000 C   0  0  0  0  0  0  0  0  0  0  0  0
   -0.7076   -0.2029    0.0000 N   0  0  0  0  0  0  0  0  0  0  0  0
    0.0020    0.2154    0.0000 C   0  0  1  0  0  0  0  0  0  0  0  0
    0.7117   -0.2029    0.0000 C   0  0  0  0  0  0  0  0  0  0  0  0
    1.4214    0.2154    0.0000 N   0  0  0  0  0  0  0  0  0  0  0  0
    2.1311   -0.2029    0.0000 C   0  0  1  0  0  0  0  0  0  0  0  0
    2.8408    0.2154    0.0000 C   0  0  0  0  0  0  0  0  0  0  0  0
    3.5505   -0.2029    0.0000 N   0  0  0  0  0  0  0  0  0  0  0  0
    4.2602    0.2154    0.0000 C   0  0  0  0  0  0  0  0  0  0  0  0
    4.9720   -0.2029    0.0000 C   0  0  0  0  0  0  0  0  0  0  0  0
    4.9720   -1.0421    0.0000 C   0  0  0  0  0  0  0  0  0  0  0  0
    5.6817   -1.4628    0.0000 C   0  0  0  0  0  0  0  0  0  0  0  0
    6.3913   -1.0421    0.0000 N   0  0  0  0  0  0  0  0  0  0  0  0
    6.3913   -0.2029    0.0000 C   0  0  0  0  0  0  0  0  0  0  0  0
    5.6817    0.2154    0.0000 C   0  0  0  0  0  0  0  0  0  0  0  0
    2.8408    1.0546    0.0000 O   0  0  0  0  0  0  0  0  0  0  0  0
    2.1311   -1.7272    0.0000 C   0  0  0  0  0  0  0  0  0  0  0  0
    1.4214   -2.1458    0.0000 C   0  0  0  0  0  0  0  0  0  0  0  0
    0.7178   -1.7126    0.0000 C   0  0  0  0  0  0  0  0  0  0  0  0
    0.0080   -2.1333    0.0000 N   0  0  0  0  0  0  0  0  0  0  0  0
   -0.6933   -1.7002    0.0000 C   0  0  0  0  0  0  0  0  0  0  0  0
   -0.6933   -0.8610    0.0000 N   0  0  0  0  0  0  0  0  0  0  0  0
   -1.4031   -2.1208    0.0000 N   0  0  0  0  0  0  0  0  0  0  0  0
    0.7117   -1.0421    0.0000 O   0  0  0  0  0  0  0  0  0  0  0  0
    0.0020    1.0984    0.0000 C   0  0  0  0  0  0  0  0  0  0  0  0
    0.7117    1.5190    0.0000 C   0  0  0  0  0  0  0  0  0  0  0  0
    1.4214    1.0984    0.0000 C   0  0  0  0  0  0  0  0  0  0  0  0
    2.1311    1.5190    0.0000 C   0  0  0  0  0  0  0  0  0  0  0  0
   -1.4173    1.0546    0.0000 O   0  0  0  0  0  0  0  0  0  0  0  0
   -2.8449    0.2029    0.0000 N   0  0  0  0  0  0  0  0  0  0  0  0
   -2.8449    1.0421    0.0000 C   0  0  0  0  0  0  0  0  0  0  0  0
   -3.5525    1.4628    0.0000 C   0  0  1  0  0  0  0  0  0  0  0  0
   -4.2622    1.0421    0.0000 C   0  0  0  0  0  0  0  0  0  0  0  0
   -4.9719    1.4628    0.0000 C   0  0  0  0  0  0  0  0  0  0  0  0
   -4.9719    2.3019    0.0000 C   0  0  0  0  0  0  0  0  0  0  0  0
   -5.6817    2.7205    0.0000 C   0  0  0  0  0  0  0  0  0  0  0  0
   -6.3913    2.3019    0.0000 C   0  0  0  0  0  0  0  0  0  0  0  0
   -6.3913    1.4628    0.0000 C   0  0  0  0  0  0  0  0  0  0  0  0
   -5.6817    1.0421    0.0000 C   0  0  0  0  0  0  0  0  0  0  0  0
   -3.5525    2.3019    0.0000 N   0  0  0  0  0  0  0  0  0  0  0  0
   -2.1331    1.4628    0.0000 O   0  0  0  0  0  0  0  0  0  0  0  0
  1  2  1  1  0  0  0
  2  3  1  0  0  0  0
  3  4  2  0  0  0  0
  4  5  1  0  0  0  0
  5  6  2  0  0  0  0
  7  6  1  0  0  0  0
  3  8  1  0  0  0  0
  8  7  2  0  0  0  0
  1  9  1  0  0  0  0
  9 10  1  0  0  0  0
 10 11  1  0  0  0  0
 11 12  1  0  0  0  0
 12 13  1  0  0  0  0
 13 14  1  0  0  0  0
 14 15  1  0  0  0  0
 15 16  1  0  0  0  0
 16 17  1  0  0  0  0
 17 18  1  0  0  0  0
 18 19  1  0  0  0  0
 19 20  2  0  0  0  0
 20 21  1  0  0  0  0
 22 21  2  0  0  0  0
 18 23  2  0  0  0  0
 23 22  1  0  0  0  0
 15 24  2  0  0  0  0
 14 25  1  1  0  0  0
 25 26  1  0  0  0  0
 26 27  1  0  0  0  0
 27 28  1  0  0  0  0
 28 29  1  0  0  0  0
 29 30  2  0  0  0  0
 29 31  1  0  0  0  0
 12 32  2  0  0  0  0
 11 33  1  6  0  0  0
 33 34  1  0  0  0  0
 34 35  1  0  0  0  0
 35 36  1  0  0  0  0
  9 37  2  0  0  0  0
  1 38  1  0  0  0  0
 38 39  1  0  0  0  0
 39 40  1  0  0  0  0
 40 41  1  0  0  0  0
 41 42  1  0  0  0  0
 42 43  2  0  0  0  0
 43 44  1  0  0  0  0
 44 45  2  0  0  0  0
 46 45  1  0  0  0  0
 42 47  1  0  0  0  0
 47 46  2  0  0  0  0
 40 48  1  1  0  0  0
 39 49  2  0  0  0  0
M  END
> <DATABASE_ID>
DB05155

> <DATABASE_NAME>
drugbank

> <SMILES>
CCCC[C@@H](NC(=O)[C@@H](CC1=CC=CC=C1)NC(=O)[C@H](N)CC1=CC=CC=C1)C(=O)N[C@H](CCCNC(N)=N)C(=O)NCC1=CC=NC=C1

> <INCHI_IDENTIFIER>
InChI=1S/C36H49N9O4/c1-2-3-15-30(34(48)43-29(16-10-19-41-36(38)39)33(47)42-24-27-17-20-40-21-18-27)44-35(49)31(23-26-13-8-5-9-14-26)45-32(46)28(37)22-25-11-6-4-7-12-25/h4-9,11-14,17-18,20-21,28-31H,2-3,10,15-16,19,22-24,37H2,1H3,(H,42,47)(H,43,48)(H,44,49)(H,45,46)(H4,38,39,41)/t28-,29-,30-,31-/m1/s1

> <INCHI_KEY>
DBOGGOVKHSCMNB-OMRVPHBLSA-N

> <FORMULA>
C36H49N9O4

> <MOLECULAR_WEIGHT>
671.847

> <EXACT_MASS>
671.390751094

> <JCHEM_ACCEPTOR_COUNT>
9

> <JCHEM_ATOM_COUNT>
98

> <JCHEM_AVERAGE_NEUTRAL_MICROSPECIES_CHARGE>
1.846739773646969

> <JCHEM_AVERAGE_POLARIZABILITY>
74.14380158954827

> <JCHEM_BIOAVAILABILITY>
0

> <JCHEM_DONOR_COUNT>
8

> <JCHEM_FORMAL_CHARGE>
0

> <JCHEM_GHOSE_FILTER>
0

> <JCHEM_IUPAC>
(2R)-2-[(2R)-2-[(2R)-2-amino-3-phenylpropanamido]-3-phenylpropanamido]-N-[(1R)-4-carbamimidamido-1-{[(pyridin-4-yl)methyl]carbamoyl}butyl]hexanamide

> <ALOGPS_LOGP>
1.41

> <JCHEM_LOGP>
1.1215495223931056

> <ALOGPS_LOGS>
-5.28

> <JCHEM_MDDR_LIKE_RULE>
1

> <JCHEM_NEUTRAL_CHARGE>
2

> <JCHEM_NUMBER_OF_RINGS>
3

> <JCHEM_PHYSIOLOGICAL_CHARGE>
2

> <JCHEM_PKA>
12.621455688006732

> <JCHEM_PKA_STRONGEST_ACIDIC>
12.17934375253419

> <JCHEM_PKA_STRONGEST_BASIC>
11.687289817475945

> <JCHEM_POLAR_SURFACE_AREA>
217.21

> <JCHEM_REFRACTIVITY>
197.9539

> <JCHEM_ROTATABLE_BOND_COUNT>
20

> <JCHEM_RULE_OF_FIVE>
0

> <ALOGPS_SOLUBILITY>
3.49e-03 g/l

> <JCHEM_TRADITIONAL_IUPAC>
prinomastat

> <JCHEM_VEBER_RULE>
0

> <DRUGBANK_ID>
DB05155

> <DRUG_GROUPS>
investigational

> <GENERIC_NAME>
CR665

$$$$
