
  Mrv1718001191813182D          

 22 25  0  0  0  0            999 V2000
    0.7145    1.2376    0.0000 C   0  0  0  0  0  0  0  0  0  0  0  0
    0.7145    0.4125    0.0000 C   0  0  0  0  0  0  0  0  0  0  0  0
    0.0000    1.6500    0.0000 C   0  0  1  0  0  0  0  0  0  0  0  0
    0.0000    0.0000    0.0000 C   0  0  2  0  0  0  0  0  0  0  0  0
   -0.7144    1.2376    0.0000 C   0  0  0  0  0  0  0  0  0  0  0  0
   -0.7144    0.4125    0.0000 C   0  0  0  0  0  0  0  0  0  0  0  0
    1.4290    1.6499    0.0000 C   0  0  0  0  0  0  0  0  0  0  0  0
    2.1434    1.2375    0.0000 C   0  0  0  0  0  0  0  0  0  0  0  0
    1.4289    0.0000    0.0000 C   0  0  0  0  0  0  0  0  0  0  0  0
    2.1434    0.4125    0.0000 C   0  0  0  0  0  0  0  0  0  0  0  0
   -1.4289    1.6499    0.0000 C   0  0  0  0  0  0  0  0  0  0  0  0
   -2.1434    1.2375    0.0000 C   0  0  0  0  0  0  0  0  0  0  0  0
   -1.4289    0.0000    0.0000 C   0  0  0  0  0  0  0  0  0  0  0  0
   -2.1434    0.4125    0.0000 C   0  0  0  0  0  0  0  0  0  0  0  0
    0.3081    1.1133    0.0000 O   0  0  0  0  0  0  0  0  0  0  0  0
    0.3081    0.5865    0.0000 O   0  0  0  0  0  0  0  0  0  0  0  0
    0.0000   -0.8249    0.0000 C   0  0  0  0  0  0  0  0  0  0  0  0
   -0.7145   -1.2375    0.0000 C   0  0  0  0  0  0  0  0  0  0  0  0
   -0.7145   -2.0625    0.0000 C   0  0  0  0  0  0  0  0  0  0  0  0
   -1.4291   -2.4750    0.0000 O   0  0  0  0  0  0  0  0  0  0  0  0
    0.0000    2.4750    0.0000 C   0  0  0  0  0  0  0  0  0  0  0  0
    0.0000   -2.4750    0.0000 O   0  0  0  0  0  0  0  0  0  0  0  0
  3  1  1  0  0  0  0
  4  2  1  0  0  0  0
  5  3  1  0  0  0  0
  6  4  1  0  0  0  0
  7  1  1  0  0  0  0
  2  1  2  0  0  0  0
  8  7  2  0  0  0  0
  9  2  1  0  0  0  0
 10  8  1  0  0  0  0
 10  9  2  0  0  0  0
 11  5  1  0  0  0  0
  6  5  2  0  0  0  0
 12 11  2  0  0  0  0
 13  6  1  0  0  0  0
 14 12  1  0  0  0  0
 14 13  2  0  0  0  0
  3 15  1  1  0  0  0
  4 16  1  1  0  0  0
 15 16  1  0  0  0  0
  4 17  1  0  0  0  0
 17 18  1  0  0  0  0
 18 19  1  0  0  0  0
 19 20  1  0  0  0  0
  3 21  1  0  0  0  0
 19 22  2  0  0  0  0
M  END
> <DATABASE_ID>
DB08332

> <DATABASE_NAME>
drugbank

> <SMILES>
C[C@@]12OO[C@@](CCC(O)=O)(C3=C1C=CC=C3)C1=C2C=CC=C1

> <INCHI_IDENTIFIER>
InChI=1S/C18H16O4/c1-17-12-6-2-4-8-14(12)18(22-21-17,11-10-16(19)20)15-9-5-3-7-13(15)17/h2-9H,10-11H2,1H3,(H,19,20)/t17-,18+

> <INCHI_KEY>
IOWYALZFEJOVHO-HDICACEKSA-N

> <FORMULA>
C18H16O4

> <MOLECULAR_WEIGHT>
296.3172

> <EXACT_MASS>
296.104859

> <JCHEM_ACCEPTOR_COUNT>
4

> <JCHEM_ATOM_COUNT>
38

> <JCHEM_AVERAGE_POLARIZABILITY>
30.860887474442322

> <JCHEM_BIOAVAILABILITY>
1

> <JCHEM_DONOR_COUNT>
1

> <JCHEM_FORMAL_CHARGE>
0

> <JCHEM_GHOSE_FILTER>
1

> <JCHEM_IUPAC>
3-[(1s,8s)-8-methyl-15,16-dioxatetracyclo[6.6.2.0^{2,7}.0^{9,14}]hexadeca-2,4,6,9(14),10,12-hexaen-1-yl]propanoic acid

> <ALOGPS_LOGP>
3.67

> <JCHEM_LOGP>
3.3102174296666664

> <ALOGPS_LOGS>
-4.31

> <JCHEM_MDDR_LIKE_RULE>
0

> <JCHEM_NUMBER_OF_RINGS>
4

> <JCHEM_PHYSIOLOGICAL_CHARGE>
-1

> <JCHEM_PKA_STRONGEST_ACIDIC>
4.117313863929285

> <JCHEM_PKA_STRONGEST_BASIC>
-4.918837976781124

> <JCHEM_POLAR_SURFACE_AREA>
55.76

> <JCHEM_REFRACTIVITY>
80.2374

> <JCHEM_ROTATABLE_BOND_COUNT>
3

> <JCHEM_RULE_OF_FIVE>
1

> <ALOGPS_SOLUBILITY>
1.44e-02 g/l

> <JCHEM_TRADITIONAL_IUPAC>
3-[(1s,8s)-8-methyl-15,16-dioxatetracyclo[6.6.2.0^{2,7}.0^{9,14}]hexadeca-2,4,6,9(14),10,12-hexaen-1-yl]propanoic acid

> <JCHEM_VEBER_RULE>
0

> <DRUGBANK_ID>
DB08332

> <DRUG_GROUPS>
experimental

> <GENERIC_NAME>
9-(2-carboxyethyl)-10-methylanthracene endoperoxide

> <SYNONYMS>
[2'-CARBOXYLETHYL]-10-METHYL-ANTHRACENE ENDOPEROXIDE

$$$$
