
  Mrv1909 05201914312D          

 43 47  0  0  1  0            999 V2000
    2.3645    1.2375    0.0000 C   0  0  0  0  0  0  0  0  0  0  0  0
    1.9520    1.9520    0.0000 C   0  0  2  0  0  0  0  0  0  0  0  0
    1.1270    1.9520    0.0000 N   0  0  0  0  0  0  0  0  0  0  0  0
    0.7145    1.2375    0.0000 P   0  0  0  0  0  0  0  0  0  0  0  0
    0.0000    1.6500    0.0000 O   0  0  0  0  0  0  0  0  0  0  0  0
    0.3020    0.5230    0.0000 O   0  0  0  0  0  0  0  0  0  0  0  0
   -0.5230    0.5230    0.0000 C   0  0  0  0  0  0  0  0  0  0  0  0
   -0.9355   -0.1914    0.0000 C   0  0  1  0  0  0  0  0  0  0  0  0
   -0.6000   -0.9451    0.0000 O   0  0  0  0  0  0  0  0  0  0  0  0
   -1.2131   -1.4971    0.0000 C   0  0  2  0  0  0  0  0  0  0  0  0
   -1.9275   -1.0846    0.0000 C   0  0  0  0  0  0  0  0  0  0  0  0
   -1.7560   -0.2777    0.0000 C   0  0  2  0  0  0  0  0  0  0  0  0
   -2.3080    0.3354    0.0000 O   0  0  0  0  0  0  0  0  0  0  0  0
   -1.1268   -2.3176    0.0000 N   0  0  0  0  0  0  0  0  0  0  0  0
   -0.3732   -2.6532    0.0000 C   0  0  0  0  0  0  0  0  0  0  0  0
   -0.2869   -3.4737    0.0000 C   0  0  0  0  0  0  0  0  0  0  0  0
    0.4668   -3.8092    0.0000 F   0  0  0  0  0  0  0  0  0  0  0  0
   -0.9544   -3.9586    0.0000 C   0  0  0  0  0  0  0  0  0  0  0  0
   -0.8681   -4.7791    0.0000 O   0  0  0  0  0  0  0  0  0  0  0  0
   -1.7080   -3.6230    0.0000 N   0  0  0  0  0  0  0  0  0  0  0  0
   -1.7943   -2.8026    0.0000 C   0  0  0  0  0  0  0  0  0  0  0  0
   -2.5479   -2.4670    0.0000 O   0  0  0  0  0  0  0  0  0  0  0  0
    1.4289    0.8250    0.0000 O   0  0  0  0  0  0  0  0  0  0  0  0
    1.4289    0.0000    0.0000 C   0  0  0  0  0  0  0  0  0  0  0  0
    2.1434   -0.4125    0.0000 C   0  0  0  0  0  0  0  0  0  0  0  0
    2.8579    0.0000    0.0000 C   0  0  0  0  0  0  0  0  0  0  0  0
    3.5724   -0.4125    0.0000 C   0  0  0  0  0  0  0  0  0  0  0  0
    3.5724   -1.2375    0.0000 C   0  0  0  0  0  0  0  0  0  0  0  0
    2.8579   -1.6500    0.0000 C   0  0  0  0  0  0  0  0  0  0  0  0
    2.1434   -1.2375    0.0000 C   0  0  0  0  0  0  0  0  0  0  0  0
    1.4289   -1.6500    0.0000 C   0  0  0  0  0  0  0  0  0  0  0  0
    0.7145   -1.2375    0.0000 C   0  0  0  0  0  0  0  0  0  0  0  0
    0.7145   -0.4125    0.0000 C   0  0  0  0  0  0  0  0  0  0  0  0
    2.3645    2.6664    0.0000 C   0  0  0  0  0  0  0  0  0  0  0  0
    1.9520    3.3809    0.0000 O   0  0  0  0  0  0  0  0  0  0  0  0
    3.1895    2.6664    0.0000 O   0  0  0  0  0  0  0  0  0  0  0  0
    3.6020    3.3809    0.0000 C   0  0  0  0  0  0  0  0  0  0  0  0
    4.4270    3.3809    0.0000 C   0  0  0  0  0  0  0  0  0  0  0  0
    4.8395    4.0954    0.0000 C   0  0  0  0  0  0  0  0  0  0  0  0
    5.6645    4.0954    0.0000 C   0  0  0  0  0  0  0  0  0  0  0  0
    6.0770    3.3809    0.0000 C   0  0  0  0  0  0  0  0  0  0  0  0
    5.6645    2.6664    0.0000 C   0  0  0  0  0  0  0  0  0  0  0  0
    4.8395    2.6664    0.0000 C   0  0  0  0  0  0  0  0  0  0  0  0
  2  1  1  6  0  0  0
  2  3  1  0  0  0  0
  3  4  1  0  0  0  0
  4  5  2  0  0  0  0
  4  6  1  0  0  0  0
  6  7  1  0  0  0  0
  8  7  1  1  0  0  0
  8  9  1  0  0  0  0
 10  9  1  0  0  0  0
 10 11  1  0  0  0  0
 12 11  1  0  0  0  0
  8 12  1  0  0  0  0
 12 13  1  6  0  0  0
 10 14  1  1  0  0  0
 14 15  1  0  0  0  0
 15 16  2  0  0  0  0
 16 17  1  0  0  0  0
 16 18  1  0  0  0  0
 18 19  2  0  0  0  0
 18 20  1  0  0  0  0
 20 21  1  0  0  0  0
 14 21  1  0  0  0  0
 21 22  2  0  0  0  0
  4 23  1  0  0  0  0
 23 24  1  0  0  0  0
 24 25  2  0  0  0  0
 25 26  1  0  0  0  0
 26 27  2  0  0  0  0
 27 28  1  0  0  0  0
 28 29  2  0  0  0  0
 29 30  1  0  0  0  0
 25 30  1  0  0  0  0
 30 31  2  0  0  0  0
 31 32  1  0  0  0  0
 32 33  2  0  0  0  0
 24 33  1  0  0  0  0
  2 34  1  0  0  0  0
 34 35  2  0  0  0  0
 34 36  1  0  0  0  0
 36 37  1  0  0  0  0
 37 38  1  0  0  0  0
 38 39  2  0  0  0  0
 39 40  1  0  0  0  0
 40 41  2  0  0  0  0
 41 42  1  0  0  0  0
 42 43  2  0  0  0  0
 38 43  1  0  0  0  0
M  END
> <DATABASE_ID>
DB14859

> <DATABASE_NAME>
drugbank

> <SMILES>
C[C@H](NP(=O)(OC[C@H]1O[C@H](C[C@@H]1O)N1C=C(F)C(=O)NC1=O)OC1=C2C=CC=CC2=CC=C1)C(=O)OCC1=CC=CC=C1

> <INCHI_IDENTIFIER>
InChI=1S/C29H29FN3O9P/c1-18(28(36)39-16-19-8-3-2-4-9-19)32-43(38,42-24-13-7-11-20-10-5-6-12-21(20)24)40-17-25-23(34)14-26(41-25)33-15-22(30)27(35)31-29(33)37/h2-13,15,18,23,25-26,34H,14,16-17H2,1H3,(H,32,38)(H,31,35,37)/t18-,23-,25+,26+,43?/m0/s1

> <INCHI_KEY>
BIOWRMNRHMERIO-ZVAHOJSLSA-N

> <FORMULA>
C29H29FN3O9P

> <MOLECULAR_WEIGHT>
613.535

> <EXACT_MASS>
613.162544687

> <JCHEM_ACCEPTOR_COUNT>
6

> <JCHEM_ATOM_COUNT>
72

> <JCHEM_AVERAGE_POLARIZABILITY>
58.72825139778473

> <JCHEM_BIOAVAILABILITY>
0

> <JCHEM_DONOR_COUNT>
3

> <JCHEM_FORMAL_CHARGE>
0

> <JCHEM_GHOSE_FILTER>
0

> <JCHEM_IUPAC>
benzyl (2S)-2-[({[(2R,3S,5R)-5-(5-fluoro-2,4-dioxo-1,2,3,4-tetrahydropyrimidin-1-yl)-3-hydroxyoxolan-2-yl]methoxy}(naphthalen-1-yloxy)phosphoryl)amino]propanoate

> <ALOGPS_LOGP>
2.89

> <JCHEM_LOGP>
3.1525835706666667

> <ALOGPS_LOGS>
-5.74

> <JCHEM_MDDR_LIKE_RULE>
1

> <JCHEM_NUMBER_OF_RINGS>
5

> <JCHEM_PHYSIOLOGICAL_CHARGE>
0

> <JCHEM_PKA>
10.241026885721585

> <JCHEM_PKA_STRONGEST_ACIDIC>
8.075645221377247

> <JCHEM_PKA_STRONGEST_BASIC>
-3.2403230024238527

> <JCHEM_POLAR_SURFACE_AREA>
152.73

> <JCHEM_REFRACTIVITY>
149.23309999999995

> <JCHEM_ROTATABLE_BOND_COUNT>
12

> <JCHEM_RULE_OF_FIVE>
0

> <ALOGPS_SOLUBILITY>
1.13e-03 g/l

> <JCHEM_TRADITIONAL_IUPAC>
(2R)-14-fluoro-2-methyl-6,9,10,19-tetraazapentacyclo[14.2.1.0^{2,6}.0^{8,18}.0^{12,17}]nonadeca-1(18),8,12(17),13,15-pentaen-11-one

> <JCHEM_VEBER_RULE>
0

> <DRUGBANK_ID>
DB14859

> <DRUG_GROUPS>
investigational

> <GENERIC_NAME>
Fosifloxuridine nafalbenamide

> <SYNONYMS>
Fosifloxuridine nafalbenamide

$$$$
