
  Mrv1652310201623372D          

 26 29  0  0  0  0            999 V2000
   -2.2539    2.0329    0.0000 C   0  0  0  0  0  0  0  0  0  0  0  0
   -1.8414    2.7474    0.0000 C   0  0  0  0  0  0  0  0  0  0  0  0
   -1.0164    2.7474    0.0000 C   0  0  0  0  0  0  0  0  0  0  0  0
   -0.6039    2.0329    0.0000 C   0  0  0  0  0  0  0  0  0  0  0  0
   -1.0164    1.3184    0.0000 C   0  0  0  0  0  0  0  0  0  0  0  0
   -1.8414    1.3184    0.0000 C   0  0  0  0  0  0  0  0  0  0  0  0
   -2.2539    0.6039    0.0000 C   0  0  0  0  0  0  0  0  0  0  0  0
   -1.8414   -0.1105    0.0000 C   0  0  0  0  0  0  0  0  0  0  0  0
   -2.2539   -0.8250    0.0000 C   0  0  0  0  0  0  0  0  0  0  0  0
   -1.8414   -1.5395    0.0000 C   0  0  0  0  0  0  0  0  0  0  0  0
   -1.0164   -1.5395    0.0000 C   0  0  0  0  0  0  0  0  0  0  0  0
   -0.6039   -2.2539    0.0000 C   0  0  0  0  0  0  0  0  0  0  0  0
    0.2211   -2.2539    0.0000 C   0  0  0  0  0  0  0  0  0  0  0  0
    0.6336   -1.5395    0.0000 C   0  0  0  0  0  0  0  0  0  0  0  0
    0.2211   -0.8250    0.0000 C   0  0  0  0  0  0  0  0  0  0  0  0
   -0.6039   -0.8250    0.0000 C   0  0  0  0  0  0  0  0  0  0  0  0
   -1.0164   -0.1105    0.0000 N   0  0  0  0  0  0  0  0  0  0  0  0
    0.6336   -0.1105    0.0000 C   0  0  0  0  0  0  0  0  0  0  0  0
    1.4586   -0.1105    0.0000 C   0  0  0  0  0  0  0  0  0  0  0  0
    1.8711   -0.8250    0.0000 C   0  0  0  0  0  0  0  0  0  0  0  0
    1.4586   -1.5395    0.0000 C   0  0  0  0  0  0  0  0  0  0  0  0
   -2.2539   -2.2539    0.0000 C   0  0  0  0  0  0  0  0  0  0  0  0
   -1.8414   -2.9684    0.0000 O   0  0  0  0  0  0  0  0  0  0  0  0
   -3.0789   -2.2539    0.0000 O   0  0  0  0  0  0  0  0  0  0  0  0
   -3.0789   -0.8250    0.0000 O   0  0  0  0  0  0  0  0  0  0  0  0
   -0.6039    3.4618    0.0000 Cl  0  0  0  0  0  0  0  0  0  0  0  0
  1  2  2  0  0  0  0
  2  3  1  0  0  0  0
  3  4  2  0  0  0  0
  4  5  1  0  0  0  0
  5  6  2  0  0  0  0
  1  6  1  0  0  0  0
  6  7  1  0  0  0  0
  7  8  1  0  0  0  0
  8  9  2  0  0  0  0
  9 10  1  0  0  0  0
 10 11  2  0  0  0  0
 11 12  1  0  0  0  0
 12 13  2  0  0  0  0
 13 14  1  0  0  0  0
 14 15  2  0  0  0  0
 15 16  1  0  0  0  0
 11 16  1  0  0  0  0
 16 17  2  0  0  0  0
  8 17  1  0  0  0  0
 15 18  1  0  0  0  0
 18 19  1  0  0  0  0
 19 20  1  0  0  0  0
 20 21  1  0  0  0  0
 14 21  1  0  0  0  0
 10 22  1  0  0  0  0
 22 23  2  0  0  0  0
 22 24  1  0  0  0  0
  9 25  1  0  0  0  0
  3 26  1  0  0  0  0
M  END
> <DATABASE_ID>
DB12211

> <DATABASE_NAME>
drugbank

> <SMILES>
OC(=O)C1=C2C=CC3=C(CCCC3)C2=NC(CC2=CC=C(Cl)C=C2)=C1O

> <INCHI_IDENTIFIER>
InChI=1S/C21H18ClNO3/c22-14-8-5-12(6-9-14)11-17-20(24)18(21(25)26)16-10-7-13-3-1-2-4-15(13)19(16)23-17/h5-10,24H,1-4,11H2,(H,25,26)

> <INCHI_KEY>
DIEPFYNZGUUVHD-UHFFFAOYSA-N

> <FORMULA>
C21H18ClNO3

> <MOLECULAR_WEIGHT>
367.83

> <EXACT_MASS>
367.0975211

> <JCHEM_ACCEPTOR_COUNT>
4

> <JCHEM_ATOM_COUNT>
44

> <JCHEM_AVERAGE_POLARIZABILITY>
38.61720021691321

> <JCHEM_BIOAVAILABILITY>
1

> <JCHEM_DONOR_COUNT>
2

> <JCHEM_FORMAL_CHARGE>
0

> <JCHEM_GHOSE_FILTER>
0

> <JCHEM_IUPAC>
2-[(4-chlorophenyl)methyl]-3-hydroxy-7H,8H,9H,10H-cyclohexa[h]quinoline-4-carboxylic acid

> <ALOGPS_LOGP>
5.06

> <JCHEM_LOGP>
5.8644928585650185

> <ALOGPS_LOGS>
-5.22

> <JCHEM_MDDR_LIKE_RULE>
0

> <JCHEM_NUMBER_OF_RINGS>
4

> <JCHEM_PHYSIOLOGICAL_CHARGE>
-1

> <JCHEM_PKA>
12.875014215122786

> <JCHEM_PKA_STRONGEST_ACIDIC>
3.4571980520105647

> <JCHEM_PKA_STRONGEST_BASIC>
2.0651317433081178

> <JCHEM_POLAR_SURFACE_AREA>
70.42

> <JCHEM_REFRACTIVITY>
100.81679999999999

> <JCHEM_ROTATABLE_BOND_COUNT>
3

> <JCHEM_RULE_OF_FIVE>
0

> <ALOGPS_SOLUBILITY>
2.20e-03 g/l

> <JCHEM_TRADITIONAL_IUPAC>
2-[(4-chlorophenyl)methyl]-3-hydroxy-7H,8H,9H,10H-cyclohexa[h]quinoline-4-carboxylic acid

> <JCHEM_VEBER_RULE>
0

> <DRUGBANK_ID>
DB12211

> <DRUG_GROUPS>
investigational

> <GENERIC_NAME>
PSI-697

$$$$
