
  Mrv1652310201623072D          

  1  0  0  0  0  0            999 V2000
    0.0000    0.0000    0.0000 C   0  0  0  0  0 15  0  0  0  0  0  0
M  END
> <DATABASE_ID>
DB09278

> <DATABASE_NAME>
drugbank

> <SMILES>
[C]

> <INCHI_IDENTIFIER>
InChI=1S/C

> <INCHI_KEY>
OKTJSMMVPCPJKN-UHFFFAOYSA-N

> <FORMULA>
C

> <MOLECULAR_WEIGHT>
12.011

> <EXACT_MASS>
12.0

> <JCHEM_ACCEPTOR_COUNT>
0

> <JCHEM_ATOM_COUNT>
1

> <JCHEM_AVERAGE_POLARIZABILITY>
1.5080239199999999

> <JCHEM_BIOAVAILABILITY>
1

> <JCHEM_DONOR_COUNT>
0

> <JCHEM_FORMAL_CHARGE>
0

> <JCHEM_GHOSE_FILTER>
0

> <JCHEM_IUPAC>
carbon

> <ALOGPS_LOGP>
-1.31

> <JCHEM_LOGP>
0.0

> <ALOGPS_LOGS>
1.08

> <JCHEM_MDDR_LIKE_RULE>
0

> <JCHEM_NUMBER_OF_RINGS>
0

> <JCHEM_PHYSIOLOGICAL_CHARGE>
0

> <JCHEM_POLAR_SURFACE_AREA>
0.0

> <JCHEM_REFRACTIVITY>
13.1149

> <JCHEM_ROTATABLE_BOND_COUNT>
0

> <JCHEM_RULE_OF_FIVE>
1

> <ALOGPS_SOLUBILITY>
0.00e+00 g/l

> <JCHEM_TRADITIONAL_IUPAC>
carbon

> <JCHEM_VEBER_RULE>
1

> <DRUGBANK_ID>
DB09278

> <SECONDARY_ACCESSION_NUMBERS>
DB05269

> <DRUG_GROUPS>
approved

> <GENERIC_NAME>
Activated charcoal

> <SYNONYMS>
Activated carbon; Carbo activates; Carbo activatus; Carbo vegetabilis; Carbon; Carbón activado; Carbon, Activated; Carbon, decolorizing; carbono; Charcoal activated; Charcoal-activated; Charcoal, Activated; Charcoal,activated; Medicinal carbon; Medicinal charcoal

> <PRODUCTS>
Actidose; Actidose Aqua; Activated Charcoal; Activated Charcoal 260mg; Activated Charcoal Cap 280mg; Activated Charcoal Capsules; Activated Charcoal Powder; Activated Charcoal USP; Adrien Gagnon Charbon Activé/activated Charcoal Capsules; Biochala Charbon Activé/activated Charcoal; Carbosylane; Char-flo Aqueous Base - Sus Orl 208mg/ml; Char-flo With Sorbitol - Sus; Charac-25; Charac-50; Charactol-25; Charactol-50; Charbon Actif; Charbon Active 260mg; Charco Caps; Charcoal; Charcoal Activated; Charcodote Susp 200mg/ml; Charcodote Tfs Sus 200mg/ml; Charcodote-aqueous Sus 200mg/ml; Derma Charcoal Mask; EZ Char; Flat-eeze; Humco Charcoal Activated; Insta Char Adult 50gm/250ml; Insta Char Pediatric 15gm/120ml; Insta-char Aqueous; Insta-char Aqueous Cherry; Insta-char Sorbitol; Jamp-activated Charcoal; Jamp-activated Charcoal Plus; Miracle Sos Black; Noricol; Premium Activated Charcoal USP; Trousse Antipoison Pour Enfants Liq; W Lab Sebum Out Peel Off Pack; Wampole Activated Charcoal

$$$$
