
  Mrv1909 11261904442D          

 21 22  0  0  0  0            999 V2000
   -0.9703    0.5203    0.0000 N   0  0  0  0  0  0  0  0  0  0  0  0
   -0.2557    0.9328    0.0000 C   0  0  0  0  0  0  0  0  0  0  0  0
   -1.6848    0.9328    0.0000 C   0  0  0  0  0  0  0  0  0  0  0  0
   -0.2557    1.7578    0.0000 N   0  0  0  0  0  0  0  0  0  0  0  0
   -0.9703    2.1703    0.0000 C   0  0  0  0  0  0  0  0  0  0  0  0
   -1.6848    1.7578    0.0000 C   0  0  0  0  0  0  0  0  0  0  0  0
   -0.9703   -0.3046    0.0000 C   0  0  2  0  0  0  0  0  0  0  0  0
   -1.6377   -0.7895    0.0000 O   0  0  0  0  0  0  0  0  0  0  0  0
   -0.3028   -0.7895    0.0000 C   0  0  1  0  0  0  0  0  0  0  0  0
   -1.3828   -1.5741    0.0000 C   0  0  1  0  0  0  0  0  0  0  0  0
   -0.5578   -1.5741    0.0000 C   0  0  1  0  0  0  0  0  0  0  0  0
    0.4388   -0.4271    0.0000 O   0  0  0  0  0  0  0  0  0  0  0  0
    0.4586    0.5203    0.0000 O   0  0  0  0  0  0  0  0  0  0  0  0
   -0.0728   -2.2416    0.0000 O   0  0  0  0  0  0  0  0  0  0  0  0
   -0.9703    2.9953    0.0000 N   0  0  0  0  0  0  0  0  0  0  0  0
   -1.8677   -2.2416    0.0000 C   0  0  0  0  0  0  0  0  0  0  0  0
   -1.5322   -2.9953    0.0000 O   0  0  0  0  0  0  0  0  0  0  0  0
    1.1533   -0.8396    0.0000 P   0  0  0  0  0  0  0  0  0  0  0  0
    1.8677   -0.4271    0.0000 O   0  0  0  0  0  0  0  0  0  0  0  0
    1.1533   -1.6646    0.0000 O   0  0  0  0  0  0  0  0  0  0  0  0
    1.3667   -0.0427    0.0000 O   0  0  0  0  0  0  0  0  0  0  0  0
  7  1  1  1  0  0  0
  1  2  1  0  0  0  0
  2 13  2  0  0  0  0
  1  3  1  0  0  0  0
  2  4  1  0  0  0  0
  4  5  2  0  0  0  0
  5 15  1  0  0  0  0
  3  6  2  0  0  0  0
  6  5  1  0  0  0  0
  7  8  1  0  0  0  0
  7  9  1  0  0  0  0
  8 10  1  0  0  0  0
  9 11  1  0  0  0  0
  9 12  1  6  0  0  0
 10 16  1  1  0  0  0
 10 11  1  0  0  0  0
 11 14  1  6  0  0  0
 16 17  1  0  0  0  0
 12 18  1  0  0  0  0
 18 19  1  0  0  0  0
 18 20  2  0  0  0  0
 18 21  1  0  0  0  0
M  END
> <DATABASE_ID>
DB03765

> <DATABASE_NAME>
drugbank

> <SMILES>
NC1=NC(=O)N(C=C1)[C@@H]1O[C@H](CO)[C@@H](O)[C@H]1OP(O)(O)=O

> <INCHI_IDENTIFIER>
InChI=1S/C9H14N3O8P/c10-5-1-2-12(9(15)11-5)8-7(20-21(16,17)18)6(14)4(3-13)19-8/h1-2,4,6-8,13-14H,3H2,(H2,10,11,15)(H2,16,17,18)/t4-,6-,7-,8-/m1/s1

> <INCHI_KEY>
YQUAKORMLHPSLZ-XVFCMESISA-N

> <FORMULA>
C9H14N3O8P

> <MOLECULAR_WEIGHT>
323.1965

> <EXACT_MASS>
323.051850951

> <JCHEM_ACCEPTOR_COUNT>
9

> <JCHEM_ATOM_COUNT>
35

> <JCHEM_AVERAGE_POLARIZABILITY>
27.073265527813078

> <JCHEM_BIOAVAILABILITY>
1

> <JCHEM_DONOR_COUNT>
5

> <JCHEM_FORMAL_CHARGE>
0

> <JCHEM_GHOSE_FILTER>
0

> <JCHEM_IUPAC>
{[(2R,3R,4R,5R)-2-(4-amino-2-oxo-1,2-dihydropyrimidin-1-yl)-4-hydroxy-5-(hydroxymethyl)oxolan-3-yl]oxy}phosphonic acid

> <ALOGPS_LOGP>
-1.98

> <JCHEM_LOGP>
-2.8823518510988047

> <ALOGPS_LOGS>
-1.27

> <JCHEM_MDDR_LIKE_RULE>
0

> <JCHEM_NUMBER_OF_RINGS>
2

> <JCHEM_PHYSIOLOGICAL_CHARGE>
-2

> <JCHEM_PKA>
5.770032665943559

> <JCHEM_PKA_STRONGEST_ACIDIC>
0.6500576613724534

> <JCHEM_PKA_STRONGEST_BASIC>
4.184749425242318

> <JCHEM_POLAR_SURFACE_AREA>
175.14

> <JCHEM_REFRACTIVITY>
65.4177

> <JCHEM_ROTATABLE_BOND_COUNT>
4

> <JCHEM_RULE_OF_FIVE>
1

> <ALOGPS_SOLUBILITY>
1.74e+01 g/l

> <JCHEM_TRADITIONAL_IUPAC>
5-[(2R,4S,5R)-4-hydroxy-5-(hydroxymethyl)oxolan-2-yl]-1-methyl-3H-pyrimidine-2,4-dione

> <JCHEM_VEBER_RULE>
0

> <DRUGBANK_ID>
DB03765

> <SECONDARY_ACCESSION_NUMBERS>
EXPT00808

> <DRUG_GROUPS>
experimental

> <GENERIC_NAME>
2'-cytidylic acid

> <SYNONYMS>
2'-CMP; 2'-cytidinephosphoric acid; Cytidine 2'-phosphate; Cytidine-2'-monophosphate; Cytidine, 2'-phosphate

$$$$
