
  Mrv1909 01072020422D          

 26 26  0  0  0  0            999 V2000
    1.7861   -0.9207    0.0000 O   0  0  0  0  0  0  0  0  0  0  0  0
    3.6276   -0.2062    0.0000 O   0  0  0  0  0  0  0  0  0  0  0  0
    0.6591    1.0312    0.0000 O   0  0  0  0  0  0  0  0  0  0  0  0
   -1.4842    1.4437    0.0000 O   0  0  0  0  0  0  0  0  0  0  0  0
   -1.4842   -1.0312    0.0000 O   0  0  0  0  0  0  0  0  0  0  0  0
    2.9132    1.0312    0.0000 O   0  0  0  0  0  0  0  0  0  0  0  0
   -3.6277   -1.4437    0.0000 O   0  0  0  0  0  0  0  0  0  0  0  0
   -2.1987   -1.4437    0.0000 O   0  0  0  0  0  0  0  0  0  0  0  0
   -0.0552   -0.2062    0.0000 N   0  0  0  0  0  0  0  0  0  0  0  0
   -2.1987    0.2062    0.0000 N   0  0  0  0  0  0  0  0  0  0  0  0
    1.3736   -0.2062    0.0000 C   0  0  1  0  0  0  0  0  0  0  0  0
    2.1986   -0.2062    0.0000 C   0  0  1  0  0  0  0  0  0  0  0  0
   -0.7697    0.2062    0.0000 C   0  0  1  0  0  0  0  0  0  0  0  0
   -3.6277    0.2062    0.0000 C   0  0  2  0  0  0  0  0  0  0  0  0
    0.6591    0.2062    0.0000 C   0  0  0  0  0  0  0  0  0  0  0  0
   -2.9132   -0.2062    0.0000 C   0  0  1  0  0  0  0  0  0  0  0  0
   -0.7697    1.0312    0.0000 C   0  0  1  0  0  0  0  0  0  0  0  0
   -1.4842   -0.2062    0.0000 C   0  0  0  0  0  0  0  0  0  0  0  0
   -4.3422   -0.2062    0.0000 C   0  0  0  0  0  0  0  0  0  0  0  0
    2.9132    0.2062    0.0000 C   0  0  0  0  0  0  0  0  0  0  0  0
   -3.6277    1.0312    0.0000 C   0  0  0  0  0  0  0  0  0  0  0  0
   -2.9132   -1.0312    0.0000 C   0  0  0  0  0  0  0  0  0  0  0  0
   -0.0552    1.4437    0.0000 C   0  0  0  0  0  0  0  0  0  0  0  0
   -5.0567    0.2062    0.0000 C   0  0  0  0  0  0  0  0  0  0  0  0
    4.3421    0.2062    0.0000 C   0  0  0  0  0  0  0  0  0  0  0  0
    5.0566   -0.2062    0.0000 C   0  0  0  0  0  0  0  0  0  0  0  0
  1 11  1  0  0  0  0
  1 12  1  0  0  0  0
  2 20  1  0  0  0  0
  2 25  1  0  0  0  0
  3 15  2  0  0  0  0
 17  4  1  6  0  0  0
  5 18  2  0  0  0  0
  6 20  2  0  0  0  0
  7 22  1  0  0  0  0
  8 22  2  0  0  0  0
 13  9  1  6  0  0  0
  9 15  1  0  0  0  0
 16 10  1  6  0  0  0
 10 18  1  0  0  0  0
 11 12  1  0  0  0  0
 11 15  1  6  0  0  0
 12 20  1  1  0  0  0
 13 17  1  0  0  0  0
 13 18  1  0  0  0  0
 14 16  1  0  0  0  0
 14 19  1  0  0  0  0
 14 21  1  6  0  0  0
 16 22  1  0  0  0  0
 17 23  1  0  0  0  0
 19 24  1  0  0  0  0
 25 26  1  0  0  0  0
M  END
> <DATABASE_ID>
DB04579

> <DATABASE_NAME>
drugbank

> <SMILES>
CCOC(=O)[C@H]1O[C@@H]1C(=O)N[C@@H]([C@@H](C)O)C(=O)N[C@@H]([C@@H](C)CC)C(O)=O

> <INCHI_IDENTIFIER>
InChI=1S/C16H26N2O8/c1-5-7(3)9(15(22)23)17-13(20)10(8(4)19)18-14(21)11-12(26-11)16(24)25-6-2/h7-12,19H,5-6H2,1-4H3,(H,17,20)(H,18,21)(H,22,23)/t7-,8+,9-,10-,11-,12-/m0/s1

> <INCHI_KEY>
QMPAEYUADYAXIX-XFVKVHEMSA-N

> <FORMULA>
C16H26N2O8

> <MOLECULAR_WEIGHT>
374.3862

> <EXACT_MASS>
374.168915818

> <JCHEM_ACCEPTOR_COUNT>
7

> <JCHEM_ATOM_COUNT>
52

> <JCHEM_AVERAGE_NEUTRAL_MICROSPECIES_CHARGE>
-0.9994508268024813

> <JCHEM_AVERAGE_POLARIZABILITY>
36.93177495169341

> <JCHEM_BIOAVAILABILITY>
1

> <JCHEM_DONOR_COUNT>
4

> <JCHEM_FORMAL_CHARGE>
0

> <JCHEM_GHOSE_FILTER>
0

> <JCHEM_IUPAC>
(2S,3S)-2-[(2S,3R)-2-{[(2S,3S)-3-(ethoxycarbonyl)oxiran-2-yl]formamido}-3-hydroxybutanamido]-3-methylpentanoic acid

> <ALOGPS_LOGP>
0.31

> <JCHEM_LOGP>
-0.5357033560000004

> <ALOGPS_LOGS>
-1.55

> <JCHEM_MDDR_LIKE_RULE>
0

> <JCHEM_NEUTRAL_CHARGE>
-1

> <JCHEM_NUMBER_OF_RINGS>
1

> <JCHEM_PHYSIOLOGICAL_CHARGE>
-1

> <JCHEM_PKA>
11.777892138240386

> <JCHEM_PKA_STRONGEST_ACIDIC>
3.753630538233385

> <JCHEM_PKA_STRONGEST_BASIC>
-2.9371393244419934

> <JCHEM_POLAR_SURFACE_AREA>
154.56

> <JCHEM_REFRACTIVITY>
86.3749

> <JCHEM_ROTATABLE_BOND_COUNT>
11

> <JCHEM_RULE_OF_FIVE>
1

> <ALOGPS_SOLUBILITY>
1.06e+01 g/l

> <JCHEM_TRADITIONAL_IUPAC>
(2S,3S,4S,5R)-1-({4-chloro-2-[(furan-2-ylmethyl)amino]-5-sulfamoylbenzoyloxy}methyl)-3,4,5,6-tetrahydroxy-1lambda3-oxane-2-carboxylic acid

> <JCHEM_VEBER_RULE>
0

> <DRUGBANK_ID>
DB04579

> <DRUG_GROUPS>
experimental

> <GENERIC_NAME>
N-{[(2S,3S)-3-(Ethoxycarbonyl)-2-oxiranyl]carbonyl}-L-threonyl-L-isoleucine

$$$$
