
  Mrv1572004221605082D          

 15 15  0  0  0  0            999 V2000
    1.4289   -0.0000    0.0000 C   0  0  0  0  0  0  0  0  0  0  0  0
    1.4289    0.8250    0.0000 C   0  0  0  0  0  0  0  0  0  0  0  0
    0.0000   -0.0000    0.0000 C   0  0  0  0  0  0  0  0  0  0  0  0
    0.7145   -0.4125    0.0000 C   0  0  0  0  0  0  0  0  0  0  0  0
    0.7145    1.2375    0.0000 C   0  0  0  0  0  0  0  0  0  0  0  0
    0.0000    0.8250    0.0000 C   0  0  0  0  0  0  0  0  0  0  0  0
    0.7145    2.0625    0.0000 Cl  0  0  0  0  0  0  0  0  0  0  0  0
    0.7145   -2.0625    0.0000 N   0  0  0  0  0  0  0  0  0  0  0  0
   -1.4289    1.6500    0.0000 N   0  0  0  0  0  0  0  0  0  0  0  0
   -0.1105   -1.2375    0.0000 O   0  0  0  0  0  0  0  0  0  0  0  0
    1.5395   -1.2375    0.0000 O   0  0  0  0  0  0  0  0  0  0  0  0
   -0.3020    1.9520    0.0000 O   0  0  0  0  0  0  0  0  0  0  0  0
   -1.1270    0.5230    0.0000 O   0  0  0  0  0  0  0  0  0  0  0  0
    0.7145   -1.2375    0.0000 S   0  0  0  0  0  0  0  0  0  0  0  0
   -0.7145    1.2375    0.0000 S   0  0  0  0  0  0  0  0  0  0  0  0
  2  1  2  0  0  0  0
  4  1  1  0  0  0  0
  4  3  2  0  0  0  0
  5  2  1  0  0  0  0
  6  3  1  0  0  0  0
  6  5  2  0  0  0  0
  7  5  1  0  0  0  0
 14  4  1  0  0  0  0
 14  8  1  0  0  0  0
 14 10  2  0  0  0  0
 14 11  2  0  0  0  0
 15  6  1  0  0  0  0
 15  9  1  0  0  0  0
 15 12  2  0  0  0  0
 15 13  2  0  0  0  0
M  END
> <DATABASE_ID>
DB13663

> <DATABASE_NAME>
drugbank

> <SMILES>
NS(=O)(=O)C1=CC(=C(Cl)C=C1)S(N)(=O)=O

> <INCHI_IDENTIFIER>
InChI=1S/C6H7ClN2O4S2/c7-5-2-1-4(14(8,10)11)3-6(5)15(9,12)13/h1-3H,(H2,8,10,11)(H2,9,12,13)

> <INCHI_KEY>
NENBAISIHCWPKP-UHFFFAOYSA-N

> <FORMULA>
C6H7ClN2O4S2

> <MOLECULAR_WEIGHT>
270.7

> <EXACT_MASS>
269.9535768

> <JCHEM_ACCEPTOR_COUNT>
4

> <JCHEM_ATOM_COUNT>
22

> <JCHEM_AVERAGE_POLARIZABILITY>
22.586059769203306

> <JCHEM_BIOAVAILABILITY>
1

> <JCHEM_DONOR_COUNT>
2

> <JCHEM_FORMAL_CHARGE>
0

> <JCHEM_GHOSE_FILTER>
1

> <JCHEM_IUPAC>
4-chlorobenzene-1,3-disulfonamide

> <ALOGPS_LOGP>
0.05

> <JCHEM_LOGP>
-0.21064796833333335

> <ALOGPS_LOGS>
-2.48

> <JCHEM_MDDR_LIKE_RULE>
0

> <JCHEM_NUMBER_OF_RINGS>
1

> <JCHEM_PHYSIOLOGICAL_CHARGE>
0

> <JCHEM_PKA>
9.540290961203839

> <JCHEM_PKA_STRONGEST_ACIDIC>
8.588179058727189

> <JCHEM_POLAR_SURFACE_AREA>
120.32

> <JCHEM_REFRACTIVITY>
55.17860000000001

> <JCHEM_ROTATABLE_BOND_COUNT>
2

> <JCHEM_RULE_OF_FIVE>
1

> <ALOGPS_SOLUBILITY>
9.05e-01 g/l

> <JCHEM_TRADITIONAL_IUPAC>
salco

> <JCHEM_VEBER_RULE>
0

> <DRUGBANK_ID>
DB13663

> <DRUG_GROUPS>
experimental

> <GENERIC_NAME>
Clofenamide

> <SYNONYMS>
Clofenamide

$$$$
