
  Mrv1909 11242222232D          

 45 50  0  0  0  0            999 V2000
   -3.4060   -3.7923    0.0000 C   0  0  0  0  0  0  0  0  0  0  0  0
   -2.5990   -3.6207    0.0000 N   0  0  0  0  0  0  0  0  0  0  0  0
   -2.3441   -2.8361    0.0000 C   0  0  0  0  0  0  0  0  0  0  0  0
   -1.5371   -2.6646    0.0000 C   0  0  0  0  0  0  0  0  0  0  0  0
   -0.9851   -3.2777    0.0000 N   0  0  0  0  0  0  0  0  0  0  0  0
   -0.1781   -3.1062    0.0000 C   0  0  0  0  0  0  0  0  0  0  0  0
    0.0768   -2.3215    0.0000 C   0  0  0  0  0  0  0  0  0  0  0  0
    0.8838   -2.1500    0.0000 C   0  0  0  0  0  0  0  0  0  0  0  0
    1.1387   -1.3654    0.0000 N   0  0  0  0  0  0  0  0  0  0  0  0
    0.6538   -0.6979    0.0000 C   0  0  0  0  0  0  0  0  0  0  0  0
   -0.1712   -0.6979    0.0000 C   0  0  0  0  0  0  0  0  0  0  0  0
    1.1387   -0.0305    0.0000 C   0  0  0  0  0  0  0  0  0  0  0  0
    0.8838    0.7541    0.0000 C   0  0  0  0  0  0  0  0  0  0  0  0
    1.9233   -0.2854    0.0000 C   0  0  0  0  0  0  0  0  0  0  0  0
    2.6378    0.1271    0.0000 C   0  0  0  0  0  0  0  0  0  0  0  0
    3.3523   -0.2854    0.0000 C   0  0  0  0  0  0  0  0  0  0  0  0
    4.0668    0.1271    0.0000 O   0  0  0  0  0  0  0  0  0  0  0  0
    4.7812   -0.2854    0.0000 C   0  0  0  0  0  0  0  0  0  0  0  0
    5.4957    0.1271    0.0000 C   0  0  0  0  0  0  0  0  0  0  0  0
    6.2102   -0.2854    0.0000 C   0  0  0  0  0  0  0  0  0  0  0  0
    6.2102   -1.1104    0.0000 C   0  0  0  0  0  0  0  0  0  0  0  0
    5.4957   -1.5229    0.0000 C   0  0  0  0  0  0  0  0  0  0  0  0
    4.7812   -1.1104    0.0000 C   0  0  0  0  0  0  0  0  0  0  0  0
    6.9246    0.1271    0.0000 C   0  0  0  0  0  0  0  0  0  0  0  0
    6.9246    0.9521    0.0000 O   0  0  0  0  0  0  0  0  0  0  0  0
    7.6391   -0.2854    0.0000 N   0  0  0  0  0  0  0  0  0  0  0  0
    8.3536    0.1271    0.0000 C   0  0  0  0  0  0  0  0  0  0  0  0
    9.0681   -0.2854    0.0000 C   0  0  0  0  0  0  0  0  0  0  0  0
    9.0681   -1.1104    0.0000 N   0  0  0  0  0  0  0  0  0  0  0  0
    9.7825   -1.5229    0.0000 C   0  0  0  0  0  0  0  0  0  0  0  0
   10.4970   -1.1104    0.0000 C   0  0  0  0  0  0  0  0  0  0  0  0
   11.2115   -1.5229    0.0000 C   0  0  0  0  0  0  0  0  0  0  0  0
   11.9259   -1.1104    0.0000 C   0  0  0  0  0  0  0  0  0  0  0  0
   12.6404   -1.5229    0.0000 C   0  0  0  0  0  0  0  0  0  0  0  0
   12.6404   -2.3479    0.0000 C   0  0  0  0  0  0  0  0  0  0  0  0
   13.3549   -2.7604    0.0000 F   0  0  0  0  0  0  0  0  0  0  0  0
   11.9259   -2.7604    0.0000 C   0  0  0  0  0  0  0  0  0  0  0  0
   11.2115   -2.3479    0.0000 C   0  0  0  0  0  0  0  0  0  0  0  0
    8.3536   -1.5229    0.0000 C   0  0  0  0  0  0  0  0  0  0  0  0
    7.6391   -1.1104    0.0000 C   0  0  0  0  0  0  0  0  0  0  0  0
    3.3523   -1.1104    0.0000 C   0  0  0  0  0  0  0  0  0  0  0  0
    2.6378   -1.5229    0.0000 C   0  0  0  0  0  0  0  0  0  0  0  0
    1.9233   -1.1104    0.0000 C   0  0  0  0  0  0  0  0  0  0  0  0
   -1.2400   -4.0623    0.0000 C   0  0  0  0  0  0  0  0  0  0  0  0
   -2.0470   -4.2338    0.0000 C   0  0  0  0  0  0  0  0  0  0  0  0
  1  2  1  0  0  0  0
  2  3  1  0  0  0  0
  3  4  1  0  0  0  0
  4  5  1  0  0  0  0
  5  6  1  0  0  0  0
  6  7  1  0  0  0  0
  7  8  1  0  0  0  0
  8  9  1  0  0  0  0
  9 10  1  0  0  0  0
 10 11  1  0  0  0  0
 10 12  2  0  0  0  0
 12 13  1  0  0  0  0
 12 14  1  0  0  0  0
 14 15  2  0  0  0  0
 15 16  1  0  0  0  0
 16 17  1  0  0  0  0
 17 18  1  0  0  0  0
 18 19  2  0  0  0  0
 19 20  1  0  0  0  0
 20 21  2  0  0  0  0
 21 22  1  0  0  0  0
 22 23  2  0  0  0  0
 18 23  1  0  0  0  0
 20 24  1  0  0  0  0
 24 25  2  0  0  0  0
 24 26  1  0  0  0  0
 26 27  1  0  0  0  0
 27 28  1  0  0  0  0
 28 29  1  0  0  0  0
 29 30  1  0  0  0  0
 30 31  1  0  0  0  0
 31 32  1  0  0  0  0
 32 33  2  0  0  0  0
 33 34  1  0  0  0  0
 34 35  2  0  0  0  0
 35 36  1  0  0  0  0
 35 37  1  0  0  0  0
 37 38  2  0  0  0  0
 32 38  1  0  0  0  0
 29 39  1  0  0  0  0
 39 40  1  0  0  0  0
 26 40  1  0  0  0  0
 16 41  2  0  0  0  0
 41 42  1  0  0  0  0
 42 43  2  0  0  0  0
  9 43  1  0  0  0  0
 14 43  1  0  0  0  0
  5 44  1  0  0  0  0
 44 45  1  0  0  0  0
  2 45  1  0  0  0  0
M  END
> <DATABASE_ID>
DB17198

> <DATABASE_NAME>
drugbank

> <SMILES>
CN1CCN(CCCN2C(C)=C(C)C3=CC(OC4=CC(=CC=C4)C(=O)N4CCN(CCC5=CC=C(F)C=C5)CC4)=CC=C23)CC1

> <INCHI_IDENTIFIER>
InChI=1S/C37H46FN5O2/c1-28-29(2)43(16-5-15-40-20-18-39(3)19-21-40)36-13-12-34(27-35(28)36)45-33-7-4-6-31(26-33)37(44)42-24-22-41(23-25-42)17-14-30-8-10-32(38)11-9-30/h4,6-13,26-27H,5,14-25H2,1-3H3

> <INCHI_KEY>
FNEHSJQRIWHZKS-UHFFFAOYSA-N

> <FORMULA>
C37H46FN5O2

> <MOLECULAR_WEIGHT>
611.806

> <EXACT_MASS>
611.363553904

> <JCHEM_ACCEPTOR_COUNT>
4

> <JCHEM_ATOM_COUNT>
91

> <JCHEM_AVERAGE_NEUTRAL_MICROSPECIES_CHARGE>
3.0243537275806807

> <JCHEM_AVERAGE_POLARIZABILITY>
70.78767497383794

> <JCHEM_BIOAVAILABILITY>
0

> <JCHEM_DONOR_COUNT>
0

> <JCHEM_FORMAL_CHARGE>
0

> <JCHEM_GHOSE_FILTER>
0

> <JCHEM_IUPAC>
5-(3-{4-[2-(4-fluorophenyl)ethyl]piperazine-1-carbonyl}phenoxy)-2,3-dimethyl-1-[3-(4-methylpiperazin-1-yl)propyl]-1H-indole

> <ALOGPS_LOGP>
5.28

> <JCHEM_LOGP>
5.735625873666668

> <ALOGPS_LOGS>
-5.46

> <JCHEM_MDDR_LIKE_RULE>
1

> <JCHEM_NEUTRAL_CHARGE>
2

> <JCHEM_NUMBER_OF_RINGS>
6

> <JCHEM_PHYSIOLOGICAL_CHARGE>
1

> <JCHEM_PKA_STRONGEST_BASIC>
8.574556742183356

> <JCHEM_POLAR_SURFACE_AREA>
44.190000000000005

> <JCHEM_REFRACTIVITY>
181.91339999999988

> <JCHEM_ROTATABLE_BOND_COUNT>
10

> <JCHEM_RULE_OF_FIVE>
0

> <ALOGPS_SOLUBILITY>
2.12e-03 g/l

> <JCHEM_TRADITIONAL_IUPAC>
5-(3-{4-[2-(4-fluorophenyl)ethyl]piperazine-1-carbonyl}phenoxy)-2,3-dimethyl-1-[3-(4-methylpiperazin-1-yl)propyl]indole

> <JCHEM_VEBER_RULE>
0

> <DRUGBANK_ID>
DB17198

> <DRUG_GROUPS>
investigational

> <GENERIC_NAME>
ATM-3507

> <SYNONYMS>
(3-((2,3-dimethyl-1-(3-(4-methylpiperazin-1-yl)propyl)-1h-indol-5-yl)oxy)phenyl)(4-(4-fluorophenethyl)piperazin-1-yl)methanone; Anisina; Methanone, (3-((2,3-dimethyl-1-(3-(4-methyl-1-piperazinyl)propyl)-1h-indol-5-yl)oxy)phenyl)(4-(2-(4-fluorophenyl)ethyl)-1-piperazinyl)-

$$$$
