
  Mrv1909 01032022022D          

 60 62  0  0  0  0            999 V2000
   -7.0530    2.6515    0.0000 P   0  0  0  0  0  0  0  0  0  0  0  0
   -4.4785    1.6287    0.0000 P   0  0  0  0  0  0  0  0  0  0  0  0
   -3.0571    1.7756    0.0000 P   0  0  0  0  0  0  0  0  0  0  0  0
   -6.5698    0.1729    0.0000 O   0  0  0  0  0  0  0  0  0  0  0  0
   -7.6061    2.0394    0.0000 O   0  0  0  0  0  0  0  0  0  0  0  0
   -8.6638    0.5890    0.0000 O   0  0  0  0  0  0  0  0  0  0  0  0
   -5.1469    1.1449    0.0000 O   0  0  0  0  0  0  0  0  0  0  0  0
   -7.6652    3.2047    0.0000 O   0  0  0  0  0  0  0  0  0  0  0  0
   -6.4999    3.2637    0.0000 O   0  0  0  0  0  0  0  0  0  0  0  0
   -3.8102    2.1124    0.0000 O   0  0  0  0  0  0  0  0  0  0  0  0
   -2.3039    1.4387    0.0000 O   0  0  0  0  0  0  0  0  0  0  0  0
   -6.4408    2.0984    0.0000 O   0  0  0  0  0  0  0  0  0  0  0  0
   -3.9948    0.9603    0.0000 O   0  0  0  0  0  0  0  0  0  0  0  0
   -0.0445    0.4281    0.0000 O   0  0  0  0  0  0  0  0  0  0  0  0
   -4.9623    2.2970    0.0000 O   0  0  0  0  0  0  0  0  0  0  0  0
   -2.7202    2.5288    0.0000 O   0  0  0  0  0  0  0  0  0  0  0  0
   -3.3940    1.0224    0.0000 O   0  0  0  0  0  0  0  0  0  0  0  0
    0.4541    2.5532    0.0000 O   0  0  0  0  0  0  0  0  0  0  0  0
    3.2971    2.8471    0.0000 O   0  0  0  0  0  0  0  0  0  0  0  0
    7.0628    1.1626    0.0000 O   0  0  0  0  0  0  0  0  0  0  0  0
    9.8209    2.2771    0.0000 O   0  0  0  0  0  0  0  0  0  0  0  0
    8.9829    3.4347    0.0000 O   0  0  0  0  0  0  0  0  0  0  0  0
   -7.6112   -0.8649    0.0000 N   0  0  0  0  0  0  0  0  0  0  0  0
   -7.6112   -2.1927    0.0000 N   0  0  0  0  0  0  0  0  0  0  0  0
   -9.1064   -0.7037    0.0000 N   0  0  0  0  0  0  0  0  0  0  0  0
   -9.8209   -1.9413    0.0000 N   0  0  0  0  0  0  0  0  0  0  0  0
   -9.1064   -3.1789    0.0000 N   0  0  0  0  0  0  0  0  0  0  0  0
    1.2921    1.3956    0.0000 N   0  0  0  0  0  0  0  0  0  0  0  0
    4.1350    1.6895    0.0000 N   0  0  0  0  0  0  0  0  0  0  0  0
    6.2248    2.3202    0.0000 N   0  0  0  0  0  0  0  0  0  0  0  0
   -7.3526    1.2543    0.0000 C   0  0  1  0  0  0  0  0  0  0  0  0
   -7.8387    0.5876    0.0000 C   0  0  2  0  0  0  0  0  0  0  0  0
   -6.5683    0.9979    0.0000 C   0  0  1  0  0  0  0  0  0  0  0  0
   -7.3549   -0.0806    0.0000 C   0  0  1  0  0  0  0  0  0  0  0  0
   -5.9000    1.4818    0.0000 C   0  0  0  0  0  0  0  0  0  0  0  0
   -8.3919   -1.1163    0.0000 C   0  0  0  0  0  0  0  0  0  0  0  0
   -7.1297   -1.5288    0.0000 C   0  0  0  0  0  0  0  0  0  0  0  0
   -8.3919   -1.9413    0.0000 C   0  0  0  0  0  0  0  0  0  0  0  0
   -0.8825    1.5856    0.0000 C   0  0  0  0  0  0  0  0  0  0  0  0
   -0.1293    1.2488    0.0000 C   0  0  2  0  0  0  0  0  0  0  0  0
   -1.6356    1.9225    0.0000 C   0  0  0  0  0  0  0  0  0  0  0  0
   -9.1064   -2.3538    0.0000 C   0  0  0  0  0  0  0  0  0  0  0  0
   -1.2193    0.8324    0.0000 C   0  0  0  0  0  0  0  0  0  0  0  0
   -0.5455    2.3388    0.0000 C   0  0  0  0  0  0  0  0  0  0  0  0
   -9.8209   -1.1163    0.0000 C   0  0  0  0  0  0  0  0  0  0  0  0
    0.5389    1.7325    0.0000 C   0  0  0  0  0  0  0  0  0  0  0  0
    1.9604    1.8794    0.0000 C   0  0  0  0  0  0  0  0  0  0  0  0
    2.7135    1.5426    0.0000 C   0  0  0  0  0  0  0  0  0  0  0  0
    3.3819    2.0264    0.0000 C   0  0  0  0  0  0  0  0  0  0  0  0
    4.8033    2.1732    0.0000 C   0  0  0  0  0  0  0  0  0  0  0  0
    5.5565    1.8364    0.0000 C   0  0  0  0  0  0  0  0  0  0  0  0
    6.9780    1.9833    0.0000 C   0  0  0  0  0  0  0  0  0  0  0  0
    7.6463    2.4671    0.0000 C   0  0  0  0  0  0  0  0  0  0  0  0
    8.3994    2.1303    0.0000 C   0  0  0  0  0  0  0  0  0  0  0  0
    9.0678    2.6140    0.0000 C   0  0  0  0  0  0  0  0  0  0  0  0
   -8.6634   -3.4347    0.0000 H   0  0  0  0  0  0  0  0  0  0  0  0
   -9.5494   -3.4347    0.0000 H   0  0  0  0  0  0  0  0  0  0  0  0
    1.3447    0.8868    0.0000 H   0  0  0  0  0  0  0  0  0  0  0  0
    4.1876    1.1806    0.0000 H   0  0  0  0  0  0  0  0  0  0  0  0
    6.1723    2.8290    0.0000 H   0  0  0  0  0  0  0  0  0  0  0  0
  1  5  1  0  0  0  0
  1  8  1  0  0  0  0
  1  9  1  0  0  0  0
  1 12  2  0  0  0  0
  2  7  1  0  0  0  0
  2 10  1  0  0  0  0
  2 13  1  1  0  0  0
  2 15  2  0  0  0  0
  3 10  1  0  0  0  0
  3 11  1  0  0  0  0
  3 16  1  1  0  0  0
  3 17  2  0  0  0  0
  4 33  1  0  0  0  0
  4 34  1  0  0  0  0
 31  5  1  6  0  0  0
 32  6  1  6  0  0  0
  7 35  1  0  0  0  0
 11 41  1  0  0  0  0
 40 14  1  6  0  0  0
 18 46  2  0  0  0  0
 19 49  2  0  0  0  0
 20 52  2  0  0  0  0
 21 55  1  0  0  0  0
 22 55  2  0  0  0  0
 34 23  1  1  0  0  0
 23 36  1  0  0  0  0
 23 37  1  0  0  0  0
 24 37  2  0  0  0  0
 24 38  1  0  0  0  0
 25 36  2  0  0  0  0
 25 45  1  0  0  0  0
 26 42  1  0  0  0  0
 26 45  2  0  0  0  0
 27 42  1  0  0  0  0
 27 56  1  0  0  0  0
 27 57  1  0  0  0  0
 28 46  1  0  0  0  0
 28 47  1  0  0  0  0
 28 58  1  0  0  0  0
 29 49  1  0  0  0  0
 29 50  1  0  0  0  0
 29 59  1  0  0  0  0
 30 51  1  0  0  0  0
 30 52  1  0  0  0  0
 30 60  1  0  0  0  0
 31 32  1  0  0  0  0
 31 33  1  0  0  0  0
 32 34  1  0  0  0  0
 33 35  1  1  0  0  0
 36 38  1  0  0  0  0
 38 42  2  0  0  0  0
 39 40  1  0  0  0  0
 39 41  1  0  0  0  0
 39 43  1  0  0  0  0
 39 44  1  0  0  0  0
 40 46  1  0  0  0  0
 47 48  1  0  0  0  0
 48 49  1  0  0  0  0
 50 51  1  0  0  0  0
 52 53  1  0  0  0  0
 53 54  1  0  0  0  0
 54 55  1  0  0  0  0
M  END
> <DATABASE_ID>
DB03905

> <DATABASE_NAME>
drugbank

> <SMILES>
[H]N([H])C1=C2N=CN([C@@H]3O[C@H](COP(O)(=O)OP(O)(=O)OCC(C)(C)[C@@H](O)C(=O)N([H])CCC(=O)N([H])CCN([H])C(=O)CCC(O)=O)[C@@H](OP(O)(O)=O)[C@H]3O)C2=NC=N1

> <INCHI_IDENTIFIER>
InChI=1S/C25H41N8O19P3/c1-25(2,20(39)23(40)29-6-5-15(35)28-8-7-27-14(34)3-4-16(36)37)10-49-55(46,47)52-54(44,45)48-9-13-19(51-53(41,42)43)18(38)24(50-13)33-12-32-17-21(26)30-11-31-22(17)33/h11-13,18-20,24,38-39H,3-10H2,1-2H3,(H,27,34)(H,28,35)(H,29,40)(H,36,37)(H,44,45)(H,46,47)(H2,26,30,31)(H2,41,42,43)/t13-,18-,19-,20+,24-/m1/s1

> <INCHI_KEY>
WZEXTLJNSXEEHK-ITIYDSSPSA-N

> <FORMULA>
C25H41N8O19P3

> <MOLECULAR_WEIGHT>
850.5565

> <EXACT_MASS>
850.170080706

> <JCHEM_ACCEPTOR_COUNT>
19

> <JCHEM_ATOM_COUNT>
96

> <JCHEM_AVERAGE_NEUTRAL_MICROSPECIES_CHARGE>
-4.953073732455646

> <JCHEM_AVERAGE_POLARIZABILITY>
74.1485725206467

> <JCHEM_BIOAVAILABILITY>
0

> <JCHEM_DONOR_COUNT>
11

> <JCHEM_FORMAL_CHARGE>
0

> <JCHEM_GHOSE_FILTER>
0

> <JCHEM_IUPAC>
3-[(2-{3-[(2R)-3-[({[({[(2R,3S,4R,5R)-5-(6-amino-9H-purin-9-yl)-4-hydroxy-3-(phosphonooxy)oxolan-2-yl]methoxy}(hydroxy)phosphoryl)oxy](hydroxy)phosphoryl}oxy)methyl]-2-hydroxy-3-methylbutanamido]propanamido}ethyl)carbamoyl]propanoic acid

> <JCHEM_LOGP>
-7.4662531819712905

> <JCHEM_MDDR_LIKE_RULE>
1

> <JCHEM_NEUTRAL_CHARGE>
-5

> <JCHEM_NUMBER_OF_RINGS>
3

> <JCHEM_PHYSIOLOGICAL_CHARGE>
-5

> <JCHEM_PKA>
0.919234204676952

> <JCHEM_PKA_STRONGEST_ACIDIC>
0.8255132812061092

> <JCHEM_PKA_STRONGEST_BASIC>
4.942998970790352

> <JCHEM_POLAR_SURFACE_AREA>
412.95999999999987

> <JCHEM_REFRACTIVITY>
178.55220000000006

> <JCHEM_ROTATABLE_BOND_COUNT>
22

> <JCHEM_RULE_OF_FIVE>
0

> <JCHEM_TRADITIONAL_IUPAC>
(2S)-2-({4-[(2E)-N-({2-amino-4-oxo-1H-pyrido[3,2-d]pyrimidin-6-yl}methyl)-3-{5-carbamoyl-3-[(2R,3R,4S,5R)-3,4-dihydroxy-5-[(phosphonooxy)methyl]oxolan-2-yl]imidazol-4-yl}prop-2-enamido]phenyl}formamido)pentanedioic acid

> <JCHEM_VEBER_RULE>
0

> <DRUGBANK_ID>
DB03905

> <SECONDARY_ACCESSION_NUMBERS>
EXPT02869

> <DRUG_GROUPS>
experimental

> <GENERIC_NAME>
Succinamide-CoA

$$$$
