
  Mrv1909 11221903142D          

 41 45  0  0  0  0            999 V2000
   -1.2566    1.6199    0.0000 P   0  0  0  0  0  0  0  0  0  0  0  0
   -1.7886   -1.2288    0.0000 O   0  0  0  0  0  0  0  0  0  0  0  0
   -0.4120    4.2356    0.0000 O   0  0  0  0  0  0  0  0  0  0  0  0
   -1.5102    2.4049    0.0000 O   0  0  0  0  0  0  0  0  0  0  0  0
   -1.0030    0.8348    0.0000 O   0  0  0  0  0  0  0  0  0  0  0  0
    0.1498   -0.3347    0.0000 O   0  0  0  0  0  0  0  0  0  0  0  0
   -1.9651    4.9818    0.0000 O   0  0  0  0  0  0  0  0  0  0  0  0
   -0.4715    1.8735    0.0000 O   0  0  0  0  0  0  0  0  0  0  0  0
   -2.0416    1.3664    0.0000 O   0  0  0  0  0  0  0  0  0  0  0  0
    0.7126    5.2508    0.0000 O   0  0  0  0  0  0  0  0  0  0  0  0
   -1.5611   -2.6812    0.0000 N   0  0  0  0  0  0  0  0  0  0  0  0
    1.0073    3.8526    0.0000 N   0  0  0  0  0  0  0  0  0  0  0  0
   -1.5611   -4.0090    0.0000 N   0  0  0  0  0  0  0  0  0  0  0  0
   -3.0562   -2.5201    0.0000 N   0  0  0  0  0  0  0  0  0  0  0  0
    2.0708    4.8069    0.0000 N   0  0  0  0  0  0  0  0  0  0  0  0
   -3.7706   -3.7576    0.0000 N   0  0  0  0  0  0  0  0  0  0  0  0
   -3.0562   -4.9951    0.0000 N   0  0  0  0  0  0  0  0  0  0  0  0
    3.4290    4.3630    0.0000 N   0  0  0  0  0  0  0  0  0  0  0  0
   -0.9570    3.0171    0.0000 C   0  0  2  0  0  0  0  0  0  0  0  0
   -1.3025   -0.5622    0.0000 C   0  0  1  0  0  0  0  0  0  0  0  0
   -0.5183   -0.8185    0.0000 C   0  0  2  0  0  0  0  0  0  0  0  0
   -1.1272    3.8243    0.0000 C   0  0  1  0  0  0  0  0  0  0  0  0
   -0.1367    2.9294    0.0000 C   0  0  0  0  0  0  0  0  0  0  0  0
   -0.5198   -1.6435    0.0000 C   0  0  0  0  0  0  0  0  0  0  0  0
   -1.3048   -1.8971    0.0000 C   0  0  1  0  0  0  0  0  0  0  0  0
    0.2000    3.6825    0.0000 C   0  0  1  0  0  0  0  0  0  0  0  0
   -1.5560    0.2227    0.0000 C   0  0  0  0  0  0  0  0  0  0  0  0
   -1.8803    4.1612    0.0000 C   0  0  0  0  0  0  0  0  0  0  0  0
   -2.3417   -2.9326    0.0000 C   0  0  0  0  0  0  0  0  0  0  0  0
   -1.0796   -3.3451    0.0000 C   0  0  0  0  0  0  0  0  0  0  0  0
    1.5583    3.2386    0.0000 C   0  0  0  0  0  0  0  0  0  0  0  0
    1.2636    4.6368    0.0000 C   0  0  0  0  0  0  0  0  0  0  0  0
   -2.3417   -3.7576    0.0000 C   0  0  0  0  0  0  0  0  0  0  0  0
    2.3655    3.4087    0.0000 C   0  0  0  0  0  0  0  0  0  0  0  0
   -3.0562   -4.1701    0.0000 C   0  0  0  0  0  0  0  0  0  0  0  0
    2.6218    4.1929    0.0000 C   0  0  0  0  0  0  0  0  0  0  0  0
   -3.7706   -2.9326    0.0000 C   0  0  0  0  0  0  0  0  0  0  0  0
   -2.6132   -5.2508    0.0000 H   0  0  0  0  0  0  0  0  0  0  0  0
   -3.4991   -5.2508    0.0000 H   0  0  0  0  0  0  0  0  0  0  0  0
    3.7706    3.9823    0.0000 H   0  0  0  0  0  0  0  0  0  0  0  0
    3.5879    4.8492    0.0000 H   0  0  0  0  0  0  0  0  0  0  0  0
  1  4  1  0  0  0  0
  1  5  1  0  0  0  0
  1  8  1  0  0  0  0
  1  9  2  0  0  0  0
  2 20  1  0  0  0  0
  2 25  1  0  0  0  0
  3 22  1  0  0  0  0
  3 26  1  0  0  0  0
 19  4  1  6  0  0  0
  5 27  1  0  0  0  0
 21  6  1  1  0  0  0
  7 28  1  0  0  0  0
 10 32  2  0  0  0  0
 25 11  1  6  0  0  0
 11 29  1  0  0  0  0
 11 30  1  0  0  0  0
 26 12  1  1  0  0  0
 12 31  1  0  0  0  0
 12 32  1  0  0  0  0
 13 30  2  0  0  0  0
 13 33  1  0  0  0  0
 14 29  2  0  0  0  0
 14 37  1  0  0  0  0
 15 32  1  0  0  0  0
 15 36  2  0  0  0  0
 16 35  1  0  0  0  0
 16 37  2  0  0  0  0
 17 35  1  0  0  0  0
 17 38  1  0  0  0  0
 17 39  1  0  0  0  0
 18 36  1  0  0  0  0
 18 40  1  0  0  0  0
 18 41  1  0  0  0  0
 19 22  1  0  0  0  0
 19 23  1  0  0  0  0
 20 21  1  0  0  0  0
 20 27  1  6  0  0  0
 21 24  1  0  0  0  0
 22 28  1  1  0  0  0
 23 26  1  0  0  0  0
 24 25  1  0  0  0  0
 29 33  1  0  0  0  0
 31 34  2  0  0  0  0
 33 35  2  0  0  0  0
 34 36  1  0  0  0  0
M  END
> <DATABASE_ID>
DB02573

> <DATABASE_NAME>
drugbank

> <SMILES>
[H]N([H])C1=NC(=O)N(C=C1)[C@H]1C[C@H](OP(O)(=O)OC[C@H]2O[C@H](C[C@@H]2O)N2C=NC3=C(N=CN=C23)N([H])[H])[C@@H](CO)O1

> <INCHI_IDENTIFIER>
InChI=1S/C19H25N8O9P/c20-13-1-2-26(19(30)25-13)15-4-10(11(5-28)34-15)36-37(31,32)33-6-12-9(29)3-14(35-12)27-8-24-16-17(21)22-7-23-18(16)27/h1-2,7-12,14-15,28-29H,3-6H2,(H,31,32)(H2,20,25,30)(H2,21,22,23)/t9-,10-,11+,12+,14+,15+/m0/s1

> <INCHI_KEY>
LYWWDKIADIGKTH-IDMWBNCISA-N

> <FORMULA>
C19H25N8O9P

> <MOLECULAR_WEIGHT>
540.4238

> <EXACT_MASS>
540.14821095

> <JCHEM_ACCEPTOR_COUNT>
13

> <JCHEM_ATOM_COUNT>
62

> <JCHEM_AVERAGE_POLARIZABILITY>
49.01295181765321

> <JCHEM_BIOAVAILABILITY>
0

> <JCHEM_DONOR_COUNT>
5

> <JCHEM_FORMAL_CHARGE>
0

> <JCHEM_GHOSE_FILTER>
0

> <JCHEM_IUPAC>
{[(2R,3S,5R)-5-(4-amino-2-oxo-1,2-dihydropyrimidin-1-yl)-2-(hydroxymethyl)oxolan-3-yl]oxy}({[(2R,3S,5R)-5-(6-amino-9H-purin-9-yl)-3-hydroxyoxolan-2-yl]methoxy})phosphinic acid

> <ALOGPS_LOGP>
-2.26

> <JCHEM_LOGP>
-3.1195033578833224

> <ALOGPS_LOGS>
-2.35

> <JCHEM_MDDR_LIKE_RULE>
1

> <JCHEM_NUMBER_OF_RINGS>
5

> <JCHEM_PHYSIOLOGICAL_CHARGE>
-1

> <JCHEM_PKA>
13.88669678354401

> <JCHEM_PKA_STRONGEST_ACIDIC>
0.8045978109281433

> <JCHEM_PKA_STRONGEST_BASIC>
4.773215374716562

> <JCHEM_POLAR_SURFACE_AREA>
242.99

> <JCHEM_REFRACTIVITY>
121.8129

> <JCHEM_ROTATABLE_BOND_COUNT>
8

> <JCHEM_RULE_OF_FIVE>
0

> <ALOGPS_SOLUBILITY>
2.42e+00 g/l

> <JCHEM_TRADITIONAL_IUPAC>
udp-6-sulfoquinovose

> <JCHEM_VEBER_RULE>
0

> <DRUGBANK_ID>
DB02573

> <SECONDARY_ACCESSION_NUMBERS>
EXPT00997

> <DRUG_GROUPS>
experimental

> <GENERIC_NAME>
2'-deoxycytidine-2'-deoxyadenosine-3',5'-monophosphate

$$$$
