
  Mrv1652305301723422D          

 49 48  0  0  0  0            999 V2000
   16.5316   -8.5035    0.0000 C   0  0  0  0  0  0  0  0  0  0  0  0
   17.2460   -8.9160    0.0000 C   0  0  0  0  0  0  0  0  0  0  0  0
   15.1025   -8.5035    0.0000 P   0  0  0  0  0  0  0  0  0  0  0  0
   12.9592   -8.9160    0.0000 C   0  0  0  0  0  0  0  0  0  0  0  0
   12.2447   -8.5035    0.0000 C   0  0  0  0  0  0  0  0  0  0  0  0
   13.6735   -8.5035    0.0000 C   0  0  0  0  0  0  0  0  0  0  0  0
   10.8157   -8.5035    0.0000 C   0  0  0  0  0  0  0  0  0  0  0  0
   15.8169   -8.9160    0.0000 O   0  0  0  0  0  0  0  0  0  0  0  0
   11.5302   -8.9160    0.0000 O   0  0  0  0  0  0  0  0  0  0  0  0
   14.3881   -8.9160    0.0000 O   0  0  0  0  0  0  0  0  0  0  0  0
   10.1014   -8.9160    0.0000 C   0  0  0  0  0  0  0  0  0  0  0  0
   17.9605   -8.5035    0.0000 C   0  0  0  0  0  0  0  0  0  0  0  0
   12.2448  -10.1533    0.0000 C   0  0  0  0  0  0  0  0  0  0  0  0
   15.1026   -7.6786    0.0000 O   0  0  0  0  0  0  0  0  0  0  0  0
   12.9594   -9.7408    0.0000 O   0  0  0  0  0  0  0  0  0  0  0  0
   15.1025   -9.3285    0.0000 O   0  0  0  0  0  0  0  0  0  0  0  0
    9.3867   -8.5035    0.0000 C   0  0  0  0  0  0  0  0  0  0  0  0
    8.6724   -8.9160    0.0000 C   0  0  0  0  0  0  0  0  0  0  0  0
    7.9578   -8.5035    0.0000 C   0  0  0  0  0  0  0  0  0  0  0  0
    7.2434   -8.9160    0.0000 C   0  0  0  0  0  0  0  0  0  0  0  0
    6.5288   -8.5035    0.0000 C   0  0  0  0  0  0  0  0  0  0  0  0
    5.8144   -8.9160    0.0000 C   0  0  0  0  0  0  0  0  0  0  0  0
    5.0998   -8.5035    0.0000 C   0  0  0  0  0  0  0  0  0  0  0  0
   11.5303   -9.7408    0.0000 C   0  0  0  0  0  0  0  0  0  0  0  0
   10.8158  -10.1533    0.0000 C   0  0  0  0  0  0  0  0  0  0  0  0
   10.1014   -9.7408    0.0000 C   0  0  0  0  0  0  0  0  0  0  0  0
    9.3868  -10.1533    0.0000 C   0  0  0  0  0  0  0  0  0  0  0  0
    8.6724   -9.7408    0.0000 C   0  0  0  0  0  0  0  0  0  0  0  0
    7.9578  -10.1533    0.0000 C   0  0  0  0  0  0  0  0  0  0  0  0
    7.2434   -9.7408    0.0000 C   0  0  0  0  0  0  0  0  0  0  0  0
    6.5290  -10.1533    0.0000 C   0  0  0  0  0  0  0  0  0  0  0  0
   18.6751   -8.9160    0.0000 O   0  0  0  0  0  0  0  0  0  0  0  0
   17.2460   -9.7410    0.0000 O   0  0  0  0  0  0  0  0  0  0  0  0
    5.0998   -7.6786    0.0000 C   0  0  0  0  0  0  0  0  0  0  0  0
    5.8143   -7.2661    0.0000 C   0  0  0  0  0  0  0  0  0  0  0  0
    6.5288   -7.6786    0.0000 C   0  0  0  0  0  0  0  0  0  0  0  0
    7.2433   -7.2661    0.0000 C   0  0  0  0  0  0  0  0  0  0  0  0
    7.9577   -7.6786    0.0000 C   0  0  0  0  0  0  0  0  0  0  0  0
    6.5290  -10.9783    0.0000 C   0  0  0  0  0  0  0  0  0  0  0  0
    7.2435  -11.3907    0.0000 C   0  0  0  0  0  0  0  0  0  0  0  0
    7.9580  -10.9783    0.0000 C   0  0  0  0  0  0  0  0  0  0  0  0
    8.6724  -11.3907    0.0000 C   0  0  0  0  0  0  0  0  0  0  0  0
    9.3868  -10.9783    0.0000 C   0  0  0  0  0  0  0  0  0  0  0  0
   10.8156   -7.6786    0.0000 O   0  0  0  0  0  0  0  0  0  0  0  0
   12.2448  -10.9783    0.0000 O   0  0  0  0  0  0  0  0  0  0  0  0
    8.6721   -7.2661    0.0000 C   0  0  0  0  0  0  0  0  0  0  0  0
    9.3866   -7.6786    0.0000 C   0  0  0  0  0  0  0  0  0  0  0  0
   10.1013  -11.3908    0.0000 C   0  0  0  0  0  0  0  0  0  0  0  0
   10.8158  -10.9784    0.0000 C   0  0  0  0  0  0  0  0  0  0  0  0
  2  1  1  0  0  0  0
 14  3  2  0  0  0  0
  3 16  1  0  0  0  0
  4 15  1  0  0  0  0
  4  5  1  0  0  0  0
  4  6  1  0  0  0  0
  1  8  1  0  0  0  0
  8  3  1  0  0  0  0
  7  9  1  0  0  0  0
  9  5  1  0  0  0  0
 10  6  1  0  0  0  0
  3 10  1  0  0  0  0
 11  7  1  0  0  0  0
 12  2  1  0  0  0  0
 13 15  1  0  0  0  0
 24 13  1  0  0  0  0
 11 17  1  0  0  0  0
 17 18  1  0  0  0  0
 18 19  1  0  0  0  0
 19 20  1  0  0  0  0
 20 21  1  0  0  0  0
 21 22  1  0  0  0  0
 22 23  1  0  0  0  0
 24 25  1  0  0  0  0
 25 26  1  0  0  0  0
 26 27  1  0  0  0  0
 27 28  1  0  0  0  0
 28 29  1  0  0  0  0
 29 30  1  0  0  0  0
 30 31  1  0  0  0  0
 12 32  1  0  0  0  0
  2 33  1  0  0  0  0
 23 34  1  0  0  0  0
 34 35  1  0  0  0  0
 35 36  1  0  0  0  0
 36 37  1  0  0  0  0
 37 38  1  0  0  0  0
 31 39  1  0  0  0  0
 39 40  1  0  0  0  0
 40 41  1  0  0  0  0
 41 42  1  0  0  0  0
 42 43  1  0  0  0  0
  7 44  2  0  0  0  0
 13 45  2  0  0  0  0
 38 46  1  0  0  0  0
 46 47  1  0  0  0  0
 43 48  1  0  0  0  0
 48 49  1  0  0  0  0
M  END
> <DATABASE_ID>
DB02043

> <DATABASE_NAME>
drugbank

> <SMILES>
CCCCCCCCCCCCCCCC(=O)OCC(COP(O)(=O)OCC(O)CO)OC(=O)CCCCCCCCCCCCCCC

> <INCHI_IDENTIFIER>
InChI=1S/C38H75O10P/c1-3-5-7-9-11-13-15-17-19-21-23-25-27-29-37(41)45-33-36(34-47-49(43,44)46-32-35(40)31-39)48-38(42)30-28-26-24-22-20-18-16-14-12-10-8-6-4-2/h35-36,39-40H,3-34H2,1-2H3,(H,43,44)

> <INCHI_KEY>
BIABMEZBCHDPBV-UHFFFAOYSA-N

> <FORMULA>
C38H75O10P

> <MOLECULAR_WEIGHT>
722.982

> <EXACT_MASS>
722.509785613

> <JCHEM_ACCEPTOR_COUNT>
6

> <JCHEM_ATOM_COUNT>
124

> <JCHEM_AVERAGE_POLARIZABILITY>
87.38554033611291

> <JCHEM_BIOAVAILABILITY>
0

> <JCHEM_DONOR_COUNT>
3

> <JCHEM_FORMAL_CHARGE>
0

> <JCHEM_GHOSE_FILTER>
0

> <JCHEM_IUPAC>
[2,3-bis(hexadecanoyloxy)propoxy](2,3-dihydroxypropoxy)phosphinic acid

> <ALOGPS_LOGP>
7.80

> <JCHEM_LOGP>
10.937051519333334

> <ALOGPS_LOGS>
-6.71

> <JCHEM_MDDR_LIKE_RULE>
0

> <JCHEM_NUMBER_OF_RINGS>
0

> <JCHEM_PHYSIOLOGICAL_CHARGE>
-1

> <JCHEM_PKA>
13.641245576372423

> <JCHEM_PKA_STRONGEST_ACIDIC>
1.8907737771908404

> <JCHEM_PKA_STRONGEST_BASIC>
-2.9689647678483633

> <JCHEM_POLAR_SURFACE_AREA>
148.82

> <JCHEM_REFRACTIVITY>
195.30890000000008

> <JCHEM_ROTATABLE_BOND_COUNT>
40

> <JCHEM_RULE_OF_FIVE>
0

> <ALOGPS_SOLUBILITY>
1.41e-04 g/l

> <JCHEM_TRADITIONAL_IUPAC>
C16:0 phosphatidylglycerol

> <JCHEM_VEBER_RULE>
0

> <DRUGBANK_ID>
DB02043

> <SECONDARY_ACCESSION_NUMBERS>
EXPT02025

> <DRUG_GROUPS>
experimental

> <GENERIC_NAME>
1,2-Dipalmitoyl-Phosphatidyl-Glycerole

$$$$
