
  Mrv1902 02111916382D          

 17 18  0  0  0  0            999 V2000
    1.7861   -0.2062    0.0000 C   0  0  0  0  0  0  0  0  0  0  0  0
    1.0716    0.2062    0.0000 C   0  0  0  0  0  0  0  0  0  0  0  0
    1.0716    1.0312    0.0000 C   0  0  0  0  0  0  0  0  0  0  0  0
    1.7861    1.4437    0.0000 N   0  0  0  0  0  0  0  0  0  0  0  0
    2.5006    1.0312    0.0000 C   0  0  0  0  0  0  0  0  0  0  0  0
    2.5006    0.2062    0.0000 C   0  0  0  0  0  0  0  0  0  0  0  0
   -1.0717   -0.2062    0.0000 C   0  0  0  0  0  0  0  0  0  0  0  0
   -0.3572    0.2062    0.0000 C   0  0  0  0  0  0  0  0  0  0  0  0
   -1.7862    0.2062    0.0000 C   0  0  0  0  0  0  0  0  0  0  0  0
   -1.0717   -1.0312    0.0000 C   0  0  0  0  0  0  0  0  0  0  0  0
   -0.3572    1.0312    0.0000 O   0  0  0  0  0  0  0  0  0  0  0  0
   -2.5006   -0.2062    0.0000 C   0  0  0  0  0  0  0  0  0  0  0  0
   -1.7862   -1.4437    0.0000 N   0  0  0  0  0  0  0  0  0  0  0  0
   -2.5006   -1.0312    0.0000 C   0  0  0  0  0  0  0  0  0  0  0  0
    0.3572   -0.2062    0.0000 C   0  0  0  0  0  0  0  0  0  0  0  0
    0.7697   -0.9206    0.0000 C   0  0  0  0  0  0  0  0  0  0  0  0
   -0.0552   -0.9206    0.0000 C   0  0  0  0  0  0  0  0  0  0  0  0
  6  5  2  0  0  0  0
 15  2  1  0  0  0  0
  1  6  1  0  0  0  0
  2  1  2  0  0  0  0
  2  3  1  0  0  0  0
  4  5  1  0  0  0  0
  3  4  2  0  0  0  0
  7  8  1  0  0  0  0
  7  9  1  0  0  0  0
  7 10  2  0  0  0  0
  8 15  1  0  0  0  0
  8 11  2  0  0  0  0
  9 12  2  0  0  0  0
 10 13  1  0  0  0  0
 12 14  1  0  0  0  0
 13 14  2  0  0  0  0
 15 16  1  0  0  0  0
 15 17  1  0  0  0  0
M  END
> <DATABASE_ID>
DB01011

> <DATABASE_NAME>
drugbank

> <SMILES>
CC(C)(C(=O)C1=CN=CC=C1)C1=CC=CN=C1

> <INCHI_IDENTIFIER>
InChI=1S/C14H14N2O/c1-14(2,12-6-4-8-16-10-12)13(17)11-5-3-7-15-9-11/h3-10H,1-2H3

> <INCHI_KEY>
FJLBFSROUSIWMA-UHFFFAOYSA-N

> <FORMULA>
C14H14N2O

> <MOLECULAR_WEIGHT>
226.2738

> <EXACT_MASS>
226.11061308

> <JCHEM_ACCEPTOR_COUNT>
3

> <JCHEM_ATOM_COUNT>
31

> <JCHEM_AVERAGE_POLARIZABILITY>
23.983628742593073

> <JCHEM_BIOAVAILABILITY>
1

> <JCHEM_DONOR_COUNT>
0

> <JCHEM_FORMAL_CHARGE>
0

> <JCHEM_GHOSE_FILTER>
1

> <JCHEM_IUPAC>
2-methyl-1,2-bis(pyridin-3-yl)propan-1-one

> <ALOGPS_LOGP>
2.09

> <JCHEM_LOGP>
2.028888880666667

> <ALOGPS_LOGS>
-2.72

> <JCHEM_MDDR_LIKE_RULE>
0

> <JCHEM_NUMBER_OF_RINGS>
2

> <JCHEM_PHYSIOLOGICAL_CHARGE>
0

> <JCHEM_PKA_STRONGEST_BASIC>
4.865916228599409

> <JCHEM_POLAR_SURFACE_AREA>
42.85

> <JCHEM_REFRACTIVITY>
65.9444

> <JCHEM_ROTATABLE_BOND_COUNT>
3

> <JCHEM_RULE_OF_FIVE>
1

> <ALOGPS_SOLUBILITY>
4.27e-01 g/l

> <JCHEM_TRADITIONAL_IUPAC>
bosutinib monohydrate

> <JCHEM_VEBER_RULE>
0

> <DRUGBANK_ID>
DB01011

> <SECONDARY_ACCESSION_NUMBERS>
APRD01111; EXPT02271

> <DRUG_GROUPS>
approved; investigational

> <GENERIC_NAME>
Metyrapone

> <SYNONYMS>
Metirapona; Metyrapone; MÃ©tyrapone; Metyraponum

> <PRODUCTS>
Metopirone

> <INTERNATIONAL_BRANDS>
Metopiron

$$$$
