
  Mrv1652310201623232D          

 19 20  0  0  0  0            999 V2000
   -0.4125    0.7145    0.0000 C   0  0  0  0  0  0  0  0  0  0  0  0
    0.0000   -0.0000    0.0000 C   0  0  0  0  0  0  0  0  0  0  0  0
   -0.7145   -0.4125    0.0000 C   0  0  0  0  0  0  0  0  0  0  0  0
   -0.7145   -1.2375    0.0000 C   0  0  0  0  0  0  0  0  0  0  0  0
    0.0000   -1.6500    0.0000 C   0  0  0  0  0  0  0  0  0  0  0  0
    0.0000   -2.4750    0.0000 C   0  0  0  0  0  0  0  0  0  0  0  0
   -0.7145   -2.8875    0.0000 C   0  0  0  0  0  0  0  0  0  0  0  0
   -1.4289   -2.4750    0.0000 C   0  0  0  0  0  0  0  0  0  0  0  0
   -1.4289   -1.6500    0.0000 C   0  0  0  0  0  0  0  0  0  0  0  0
   -0.7145   -3.7125    0.0000 Cl  0  0  0  0  0  0  0  0  0  0  0  0
   -1.4289   -0.0000    0.0000 C   0  0  0  0  0  0  0  0  0  0  0  0
   -2.1434   -0.4125    0.0000 C   0  0  0  0  0  0  0  0  0  0  0  0
   -2.8579   -0.0000    0.0000 C   0  0  0  0  0  0  0  0  0  0  0  0
   -2.8579    0.8250    0.0000 C   0  0  0  0  0  0  0  0  0  0  0  0
   -2.1434    1.2375    0.0000 C   0  0  0  0  0  0  0  0  0  0  0  0
   -1.4289    0.8250    0.0000 C   0  0  0  0  0  0  0  0  0  0  0  0
   -0.7145    1.2375    0.0000 Cl  0  0  0  0  0  0  0  0  0  0  0  0
    0.4125   -0.7145    0.0000 Cl  0  0  0  0  0  0  0  0  0  0  0  0
    0.7145    0.4125    0.0000 Cl  0  0  0  0  0  0  0  0  0  0  0  0
  1  2  1  0  0  0  0
  2  3  1  0  0  0  0
  3  4  1  0  0  0  0
  4  5  2  0  0  0  0
  5  6  1  0  0  0  0
  6  7  2  0  0  0  0
  7  8  1  0  0  0  0
  8  9  2  0  0  0  0
  4  9  1  0  0  0  0
  7 10  1  0  0  0  0
  3 11  1  0  0  0  0
 11 12  2  0  0  0  0
 12 13  1  0  0  0  0
 13 14  2  0  0  0  0
 14 15  1  0  0  0  0
 15 16  2  0  0  0  0
 11 16  1  0  0  0  0
 16 17  1  0  0  0  0
  2 18  1  0  0  0  0
  2 19  1  0  0  0  0
M  END
> <DATABASE_ID>
DB12117

> <DATABASE_NAME>
drugbank

> <SMILES>
CC(Cl)(Cl)C(C1=CC=C(Cl)C=C1)C1=CC=CC=C1Cl

> <INCHI_IDENTIFIER>
InChI=1S/C15H12Cl4/c1-15(18,19)14(10-6-8-11(16)9-7-10)12-4-2-3-5-13(12)17/h2-9,14H,1H3

> <INCHI_KEY>
MOTIYCLHZZLHHQ-UHFFFAOYSA-N

> <FORMULA>
C15H12Cl4

> <MOLECULAR_WEIGHT>
334.06

> <EXACT_MASS>
331.9693112

> <JCHEM_ACCEPTOR_COUNT>
0

> <JCHEM_ATOM_COUNT>
31

> <JCHEM_AVERAGE_POLARIZABILITY>
31.662967870694004

> <JCHEM_BIOAVAILABILITY>
1

> <JCHEM_DONOR_COUNT>
0

> <JCHEM_FORMAL_CHARGE>
0

> <JCHEM_GHOSE_FILTER>
0

> <JCHEM_IUPAC>
1-chloro-4-[2,2-dichloro-1-(2-chlorophenyl)propyl]benzene

> <ALOGPS_LOGP>
6.56

> <JCHEM_LOGP>
6.358427516999999

> <ALOGPS_LOGS>
-7.81

> <JCHEM_MDDR_LIKE_RULE>
0

> <JCHEM_NUMBER_OF_RINGS>
2

> <JCHEM_PHYSIOLOGICAL_CHARGE>
0

> <JCHEM_POLAR_SURFACE_AREA>
0.0

> <JCHEM_REFRACTIVITY>
84.9872

> <JCHEM_ROTATABLE_BOND_COUNT>
3

> <JCHEM_RULE_OF_FIVE>
0

> <ALOGPS_SOLUBILITY>
5.18e-06 g/l

> <JCHEM_TRADITIONAL_IUPAC>
1-chloro-4-[2,2-dichloro-1-(2-chlorophenyl)propyl]benzene

> <JCHEM_VEBER_RULE>
1

> <DRUGBANK_ID>
DB12117

> <DRUG_GROUPS>
investigational

> <GENERIC_NAME>
Mitometh

> <SYNONYMS>
DDP

$$$$
