
  Mrv1652306031607132D          

 10  9  0  0  0  0            999 V2000
    2.2539    3.3000    0.0000 C   0  0  0  0  0  0  0  0  0  0  0  0
    0.8250   -0.8250    0.0000 C   0  0  0  0  0  0  0  0  0  0  0  0
    1.6500    0.0000    0.0000 C   0  0  0  0  0  0  0  0  0  0  0  0
    1.5395    1.2375    0.0000 C   0  0  0  0  0  0  0  0  0  0  0  0
    1.5395    2.0625    0.0000 C   0  0  0  0  0  0  0  0  0  0  0  0
    0.8250    0.8250    0.0000 C   0  0  0  0  0  0  0  0  0  0  0  0
    2.2539    2.4750    0.0000 C   0  0  0  0  0  0  0  0  0  0  0  0
    0.8250    0.0000    0.0000 C   0  0  0  0  0  0  0  0  0  0  0  0
    2.9684    2.0625    0.0000 N   0  0  0  0  0  0  0  0  0  0  0  0
    0.0000    0.0000    0.0000 O   0  0  0  0  0  0  0  0  0  0  0  0
  5  4  1  0  0  0  0
  6  4  1  0  0  0  0
  7  1  1  0  0  0  0
  7  5  1  0  0  0  0
  8  2  1  0  0  0  0
  8  3  1  0  0  0  0
  8  6  1  0  0  0  0
  9  7  1  0  0  0  0
 10  8  1  0  0  0  0
M  END
> <DATABASE_ID>
DB13574

> <DATABASE_NAME>
drugbank

> <SMILES>
CC(N)CCCC(C)(C)O

> <INCHI_IDENTIFIER>
InChI=1S/C8H19NO/c1-7(9)5-4-6-8(2,3)10/h7,10H,4-6,9H2,1-3H3

> <INCHI_KEY>
LREQLEBVOXIEOM-UHFFFAOYSA-N

> <FORMULA>
C8H19NO

> <MOLECULAR_WEIGHT>
145.246

> <EXACT_MASS>
145.146664236

> <JCHEM_ACCEPTOR_COUNT>
2

> <JCHEM_ATOM_COUNT>
29

> <JCHEM_AVERAGE_POLARIZABILITY>
18.21820260735776

> <JCHEM_BIOAVAILABILITY>
1

> <JCHEM_DONOR_COUNT>
2

> <JCHEM_FORMAL_CHARGE>
0

> <JCHEM_GHOSE_FILTER>
0

> <JCHEM_IUPAC>
6-amino-2-methylheptan-2-ol

> <ALOGPS_LOGP>
1.31

> <JCHEM_LOGP>
0.8200569153333332

> <ALOGPS_LOGS>
-0.95

> <JCHEM_MDDR_LIKE_RULE>
0

> <JCHEM_NUMBER_OF_RINGS>
0

> <JCHEM_PHYSIOLOGICAL_CHARGE>
1

> <JCHEM_PKA_STRONGEST_ACIDIC>
18.53074041884456

> <JCHEM_PKA_STRONGEST_BASIC>
10.430803367326943

> <JCHEM_POLAR_SURFACE_AREA>
46.25

> <JCHEM_REFRACTIVITY>
43.79789999999999

> <JCHEM_ROTATABLE_BOND_COUNT>
4

> <JCHEM_RULE_OF_FIVE>
1

> <ALOGPS_SOLUBILITY>
1.62e+01 g/l

> <JCHEM_TRADITIONAL_IUPAC>
cardiomax

> <JCHEM_VEBER_RULE>
0

> <DRUGBANK_ID>
DB13574

> <DRUG_GROUPS>
experimental

> <GENERIC_NAME>
Heptaminol

> <SYNONYMS>
Heptaminol

> <SALTS>
Heptaminol hydrochloride

$$$$
