
  Mrv1909 05201914362D          

 49 53  0  0  1  0            999 V2000
   -0.1035    1.7944    0.0000 C   0  0  0  0  0  0  0  0  0  0  0  0
    0.4253    1.1611    0.0000 O   0  0  0  0  0  0  0  0  0  0  0  0
    0.1412    0.3866    0.0000 C   0  0  2  0  0  0  0  0  0  0  0  0
    0.1392   -0.4384    0.0000 C   0  0  0  0  0  0  0  0  0  0  0  0
   -0.5762   -0.8492    0.0000 C   0  0  2  0  0  0  0  0  0  0  0  0
   -0.5782   -1.6742    0.0000 O   0  0  0  0  0  0  0  0  0  0  0  0
   -1.2897   -0.4350    0.0000 C   0  0  1  0  0  0  0  0  0  0  0  0
   -2.0052   -0.8458    0.0000 N   0  0  0  0  0  0  0  0  0  0  0  0
   -2.0071   -1.6708    0.0000 C   0  0  0  0  0  0  0  0  0  0  0  0
   -1.2937   -2.0850    0.0000 C   0  0  0  0  0  0  0  0  0  0  0  0
   -2.7226   -2.0815    0.0000 O   0  0  0  0  0  0  0  0  0  0  0  0
   -1.2877    0.3900    0.0000 C   0  0  1  0  0  0  0  0  0  0  0  0
   -0.5722    0.8008    0.0000 O   0  0  0  0  0  0  0  0  0  0  0  0
   -2.0012    0.8042    0.0000 C   0  0  2  0  0  0  0  0  0  0  0  0
   -1.9992    1.6292    0.0000 O   0  0  0  0  0  0  0  0  0  0  0  0
   -2.7166    0.3934    0.0000 C   0  0  2  0  0  0  0  0  0  0  0  0
   -3.4301    0.8077    0.0000 O   0  0  0  0  0  0  0  0  0  0  0  0
   -2.7186   -0.4315    0.0000 C   0  0  0  0  0  0  0  0  0  0  0  0
   -3.4341   -0.8423    0.0000 O   0  0  0  0  0  0  0  0  0  0  0  0
    0.9533    0.2414    0.0000 C   0  0  0  0  0  0  0  0  0  0  0  0
    1.4852    0.8721    0.0000 O   0  0  0  0  0  0  0  0  0  0  0  0
    1.2336   -0.5346    0.0000 N   0  0  0  0  0  0  0  0  0  0  0  0
    2.0458   -0.6798    0.0000 C   0  0  2  0  0  0  0  0  0  0  0  0
    2.3261   -1.4557    0.0000 C   0  0  0  0  0  0  0  0  0  0  0  0
    3.1382   -1.6009    0.0000 C   0  0  0  0  0  0  0  0  0  0  0  0
    3.6700   -0.9702    0.0000 C   0  0  1  0  0  0  0  0  0  0  0  0
    3.9503   -1.7461    0.0000 C   0  0  0  0  0  0  0  0  0  0  0  0
    3.3897   -0.1943    0.0000 C   0  0  1  0  0  0  0  0  0  0  0  0
    3.9215    0.4364    0.0000 C   0  0  0  0  0  0  0  0  0  0  0  0
    4.7336    0.2912    0.0000 C   0  0  0  0  0  0  0  0  0  0  0  0
    5.0139   -0.4847    0.0000 C   0  0  1  0  0  0  0  0  0  0  0  0
    5.8261   -0.6299    0.0000 C   0  0  2  0  0  0  0  0  0  0  0  0
    6.4774   -0.1236    0.0000 C   0  0  0  0  0  0  0  0  0  0  0  0
    7.1602   -0.5866    0.0000 C   0  0  0  0  0  0  0  0  0  0  0  0
    6.9309   -1.3791    0.0000 C   0  0  2  0  0  0  0  0  0  0  0  0
    7.4373   -2.0304    0.0000 C   0  0  2  0  0  0  0  0  0  0  0  0
    7.1264   -2.7946    0.0000 C   0  0  0  0  0  0  0  0  0  0  0  0
    8.2545   -1.9175    0.0000 C   0  0  0  0  0  0  0  0  0  0  0  0
    8.7609   -2.5689    0.0000 C   0  0  0  0  0  0  0  0  0  0  0  0
    9.5781   -2.4560    0.0000 C   0  0  0  0  0  0  0  0  0  0  0  0
   10.0845   -3.1073    0.0000 C   0  0  0  0  0  0  0  0  0  0  0  0
   10.9017   -2.9945    0.0000 C   0  0  0  0  0  0  0  0  0  0  0  0
    9.7736   -3.8715    0.0000 C   0  0  0  0  0  0  0  0  0  0  0  0
    6.1064   -1.4059    0.0000 C   0  0  2  0  0  0  0  0  0  0  0  0
    6.4662   -2.1482    0.0000 C   0  0  0  0  0  0  0  0  0  0  0  0
    5.5745   -2.0366    0.0000 C   0  0  0  0  0  0  0  0  0  0  0  0
    4.7624   -1.8914    0.0000 C   0  0  0  0  0  0  0  0  0  0  0  0
    4.4821   -1.1154    0.0000 C   0  0  2  0  0  0  0  0  0  0  0  0
    2.5776   -0.0491    0.0000 C   0  0  0  0  0  0  0  0  0  0  0  0
  1  2  1  0  0  0  0
  3  2  1  6  0  0  0
  3  4  1  0  0  0  0
  5  4  1  0  0  0  0
  5  6  1  6  0  0  0
  7  5  1  0  0  0  0
  7  8  1  1  0  0  0
  8  9  1  0  0  0  0
  9 10  1  0  0  0  0
  9 11  2  0  0  0  0
  7 12  1  0  0  0  0
 12 13  1  0  0  0  0
  3 13  1  0  0  0  0
 12 14  1  6  0  0  0
 14 15  1  1  0  0  0
 14 16  1  0  0  0  0
 16 17  1  1  0  0  0
 16 18  1  0  0  0  0
 18 19  1  0  0  0  0
  3 20  1  1  0  0  0
 20 21  2  0  0  0  0
 20 22  1  0  0  0  0
 23 22  1  1  0  0  0
 23 24  1  0  0  0  0
 24 25  1  0  0  0  0
 26 25  1  0  0  0  0
 26 27  1  6  0  0  0
 26 28  1  0  0  0  0
 28 29  1  6  0  0  0
 29 30  1  0  0  0  0
 31 30  1  1  0  0  0
 31 32  1  0  0  0  0
 32 33  1  6  0  0  0
 33 34  1  0  0  0  0
 35 34  1  0  0  0  0
 35 36  1  6  0  0  0
 36 37  1  1  0  0  0
 36 38  1  0  0  0  0
 38 39  1  0  0  0  0
 39 40  1  0  0  0  0
 40 41  1  0  0  0  0
 41 42  1  0  0  0  0
 41 43  1  0  0  0  0
 44 35  1  0  0  0  0
 32 44  1  0  0  0  0
 44 45  1  6  0  0  0
 44 46  1  0  0  0  0
 46 47  1  0  0  0  0
 48 47  1  6  0  0  0
 26 48  1  0  0  0  0
 48 31  1  0  0  0  0
 28 49  1  0  0  0  0
 23 49  1  0  0  0  0
M  END
> <DATABASE_ID>
DB14932

> <DATABASE_NAME>
drugbank

> <SMILES>
CO[C@@]1(C[C@H](O)[C@@H](NC(C)=O)[C@@H](O1)[C@H](O)[C@H](O)CO)C(=O)N[C@@H]1CC[C@@]2(C)[C@@H](CC[C@H]3[C@@H]4CC[C@H]([C@H](C)CCCC(C)C)[C@@]4(C)CC[C@H]23)C1

> <INCHI_IDENTIFIER>
InChI=1S/C39H68N2O8/c1-22(2)9-8-10-23(3)28-13-14-29-27-12-11-25-19-26(15-17-37(25,5)30(27)16-18-38(28,29)6)41-36(47)39(48-7)20-31(44)33(40-24(4)43)35(49-39)34(46)32(45)21-42/h22-23,25-35,42,44-46H,8-21H2,1-7H3,(H,40,43)(H,41,47)/t23-,25+,26-,27+,28-,29+,30+,31+,32-,33-,34-,35-,37+,38-,39-/m1/s1

> <INCHI_KEY>
CHMRTBYTCBDIRG-JQZMMWJVSA-N

> <FORMULA>
C39H68N2O8

> <MOLECULAR_WEIGHT>
692.979

> <EXACT_MASS>
692.497567158

> <JCHEM_ACCEPTOR_COUNT>
8

> <JCHEM_ATOM_COUNT>
117

> <JCHEM_AVERAGE_POLARIZABILITY>
81.47152163928271

> <JCHEM_BIOAVAILABILITY>
0

> <JCHEM_DONOR_COUNT>
6

> <JCHEM_FORMAL_CHARGE>
0

> <JCHEM_GHOSE_FILTER>
0

> <JCHEM_IUPAC>
(2R,4S,5R,6R)-N-[(1R,3aS,3bR,5aS,7R,9aS,9bS,11aR)-9a,11a-dimethyl-1-[(2R)-6-methylheptan-2-yl]-hexadecahydro-1H-cyclopenta[a]phenanthren-7-yl]-5-acetamido-4-hydroxy-2-methoxy-6-[(1R,2R)-1,2,3-trihydroxypropyl]oxane-2-carboxamide

> <ALOGPS_LOGP>
4.33

> <JCHEM_LOGP>
4.532968017333337

> <ALOGPS_LOGS>
-5.66

> <JCHEM_MDDR_LIKE_RULE>
1

> <JCHEM_NUMBER_OF_RINGS>
5

> <JCHEM_PHYSIOLOGICAL_CHARGE>
0

> <JCHEM_PKA>
13.161035648116483

> <JCHEM_PKA_STRONGEST_ACIDIC>
12.63191068006113

> <JCHEM_PKA_STRONGEST_BASIC>
-1.342654404613787

> <JCHEM_POLAR_SURFACE_AREA>
157.58

> <JCHEM_REFRACTIVITY>
186.7567

> <JCHEM_ROTATABLE_BOND_COUNT>
12

> <JCHEM_RULE_OF_FIVE>
0

> <ALOGPS_SOLUBILITY>
1.53e-03 g/l

> <JCHEM_TRADITIONAL_IUPAC>
(2R)-14-fluoro-2-methyl-6,9,10,19-tetraazapentacyclo[14.2.1.0^{2,6}.0^{8,18}.0^{12,17}]nonadeca-1(18),8,12(17),13,15-pentaen-11-one

> <JCHEM_VEBER_RULE>
0

> <DRUGBANK_ID>
DB14932

> <DRUG_GROUPS>
investigational

> <GENERIC_NAME>
Coleneuramide

> <SYNONYMS>
Coleneuramide

$$$$
