
  Mrv1909 08212017152D          

 34 33  0  0  0  0            999 V2000
   -0.7251    0.1989    0.0000 C   0  0  0  0  0  0  0  0  0  0  0  0
   -0.0001    0.5966    0.0000 O   0  0  0  0  0  0  0  0  0  0  0  0
   -1.4269    0.6198    0.0000 C   0  0  0  0  0  0  0  0  0  0  0  0
   -0.7251   -0.6198    0.0000 O   0  0  0  0  0  0  0  0  0  0  0  0
    0.7173    0.1989    0.0000 C   0  0  0  0  0  0  0  0  0  0  0  0
   -2.1441    0.1989    0.0000 C   0  0  0  0  0  0  0  0  0  0  0  0
    1.4269    0.5966    0.0000 C   0  0  0  0  0  0  0  0  0  0  0  0
   -2.8693    0.6198    0.0000 C   0  0  0  0  0  0  0  0  0  0  0  0
    2.1520    0.1989    0.0000 C   0  0  0  0  0  0  0  0  0  0  0  0
   -3.5868    0.1989    0.0000 C   0  0  0  0  0  0  0  0  0  0  0  0
    2.8693    0.5966    0.0000 C   0  0  0  0  0  0  0  0  0  0  0  0
   -4.2963    0.6198    0.0000 C   0  0  0  0  0  0  0  0  0  0  0  0
    3.5711    0.1989    0.0000 C   0  0  0  0  0  0  0  0  0  0  0  0
   -5.0213    0.1989    0.0000 C   0  0  0  0  0  0  0  0  0  0  0  0
    4.2961    0.5966    0.0000 C   0  0  0  0  0  0  0  0  0  0  0  0
   -5.7309    0.6198    0.0000 C   0  0  0  0  0  0  0  0  0  0  0  0
    4.9901    0.1989    0.0000 C   0  0  0  0  0  0  0  0  0  0  0  0
   -6.4404    0.1989    0.0000 C   0  0  0  0  0  0  0  0  0  0  0  0
    5.7232    0.5966    0.0000 C   0  0  0  0  0  0  0  0  0  0  0  0
   -7.1656    0.6198    0.0000 C   0  0  0  0  0  0  0  0  0  0  0  0
    6.4483    0.1989    0.0000 C   0  0  0  0  0  0  0  0  0  0  0  0
   -7.8831    0.1989    0.0000 C   0  0  0  0  0  0  0  0  0  0  0  0
    7.1656    0.5966    0.0000 C   0  0  0  0  0  0  0  0  0  0  0  0
   -8.5926    0.6198    0.0000 C   0  0  0  0  0  0  0  0  0  0  0  0
    7.8675    0.1989    0.0000 C   0  0  0  0  0  0  0  0  0  0  0  0
   -9.3176    0.1989    0.0000 C   0  0  0  0  0  0  0  0  0  0  0  0
    8.5924    0.5966    0.0000 C   0  0  0  0  0  0  0  0  0  0  0  0
  -10.0195    0.6198    0.0000 C   0  0  0  0  0  0  0  0  0  0  0  0
    9.3098    0.1989    0.0000 C   0  0  0  0  0  0  0  0  0  0  0  0
  -10.7603    0.1989    0.0000 C   0  0  0  0  0  0  0  0  0  0  0  0
   10.0195    0.5966    0.0000 C   0  0  0  0  0  0  0  0  0  0  0  0
  -11.4619    0.6198    0.0000 C   0  0  0  0  0  0  0  0  0  0  0  0
   10.7446    0.1989    0.0000 C   0  0  0  0  0  0  0  0  0  0  0  0
   11.4619    0.5966    0.0000 C   0  0  0  0  0  0  0  0  0  0  0  0
  1  2  1  0  0  0  0
  1  3  1  0  0  0  0
  1  4  2  0  0  0  0
  2  5  1  0  0  0  0
  3  6  1  0  0  0  0
  5  7  1  0  0  0  0
  6  8  1  0  0  0  0
  7  9  1  0  0  0  0
  8 10  1  0  0  0  0
  9 11  1  0  0  0  0
 10 12  1  0  0  0  0
 11 13  1  0  0  0  0
 12 14  1  0  0  0  0
 13 15  1  0  0  0  0
 14 16  1  0  0  0  0
 15 17  1  0  0  0  0
 16 18  1  0  0  0  0
 17 19  1  0  0  0  0
 18 20  1  0  0  0  0
 19 21  1  0  0  0  0
 20 22  1  0  0  0  0
 21 23  1  0  0  0  0
 22 24  1  0  0  0  0
 23 25  1  0  0  0  0
 24 26  1  0  0  0  0
 25 27  1  0  0  0  0
 26 28  1  0  0  0  0
 27 29  1  0  0  0  0
 28 30  1  0  0  0  0
 29 31  1  0  0  0  0
 30 32  1  0  0  0  0
 31 33  1  0  0  0  0
 33 34  1  0  0  0  0
M  END
> <DATABASE_ID>
DB15782

> <DATABASE_NAME>
drugbank

> <SMILES>
CCCCCCCCCCCCCCCCOC(=O)CCCCCCCCCCCCCCC

> <INCHI_IDENTIFIER>
InChI=1S/C32H64O2/c1-3-5-7-9-11-13-15-17-19-21-23-25-27-29-31-34-32(33)30-28-26-24-22-20-18-16-14-12-10-8-6-4-2/h3-31H2,1-2H3

> <INCHI_KEY>
PXDJXZJSCPSGGI-UHFFFAOYSA-N

> <FORMULA>
C32H64O2

> <MOLECULAR_WEIGHT>
480.862

> <EXACT_MASS>
480.490631301

> <JCHEM_ACCEPTOR_COUNT>
1

> <JCHEM_ATOM_COUNT>
98

> <JCHEM_AVERAGE_NEUTRAL_MICROSPECIES_CHARGE>
0.0

> <JCHEM_AVERAGE_POLARIZABILITY>
68.60452961980229

> <JCHEM_BIOAVAILABILITY>
0

> <JCHEM_DONOR_COUNT>
0

> <JCHEM_FORMAL_CHARGE>
0

> <JCHEM_GHOSE_FILTER>
0

> <JCHEM_IUPAC>
hexadecyl hexadecanoate

> <ALOGPS_LOGP>
10.78

> <JCHEM_LOGP>
13.061199828333335

> <ALOGPS_LOGS>
-7.64

> <JCHEM_MDDR_LIKE_RULE>
0

> <JCHEM_NEUTRAL_CHARGE>
0

> <JCHEM_NUMBER_OF_RINGS>
0

> <JCHEM_PHYSIOLOGICAL_CHARGE>
0

> <JCHEM_PKA_STRONGEST_BASIC>
-7.0327278744240385

> <JCHEM_POLAR_SURFACE_AREA>
26.3

> <JCHEM_REFRACTIVITY>
150.93830000000003

> <JCHEM_ROTATABLE_BOND_COUNT>
30

> <JCHEM_RULE_OF_FIVE>
0

> <ALOGPS_SOLUBILITY>
1.10e-05 g/l

> <JCHEM_TRADITIONAL_IUPAC>
unii-71TH42O2CQ

> <JCHEM_VEBER_RULE>
0

> <DRUGBANK_ID>
DB15782

> <DRUG_GROUPS>
experimental

> <GENERIC_NAME>
Cetyl palmitate

> <SYNONYMS>
Hexadecanoic acid, hexadecyl ester; Hexadecyl palmitate; n-Hexadecyl hexadecanoate; Palmityl palmitate

$$$$
