
  Mrv1909 05212117442D          

 48 50  0  0  1  0            999 V2000
    7.8807   -2.0433    0.0000 O   0  0  0  0  0  0  0  0  0  0  0  0
    8.6039   -1.6362    0.0000 C   0  0  0  0  0  0  0  0  0  0  0  0
    9.2889   -2.0944    0.0000 C   0  0  0  0  0  0  0  0  0  0  0  0
    8.6039   -0.8467    0.0000 O   0  0  0  0  0  0  0  0  0  0  0  0
    7.8954   -0.4256    0.0000 C   0  0  2  0  0  0  0  0  0  0  0  0
    7.8954    0.4030    0.0000 C   0  0  0  0  0  0  0  0  0  0  0  0
    7.1543    0.8001    0.0000 C   0  0  2  0  0  0  0  0  0  0  0  0
    6.5354    1.4194    0.0000 O   0  0  0  0  0  0  0  0  0  0  0  0
    7.5176    1.4852    0.0000 C   0  0  0  0  0  0  0  0  0  0  0  0
    6.4646    0.3883    0.0000 C   0  0  0  0  0  0  0  0  0  0  0  0
    6.4646   -0.4256    0.0000 C   0  0  0  0  0  0  0  0  0  0  0  0
    6.1867   -1.2511    0.0000 C   0  0  0  0  0  0  0  0  0  0  0  0
    5.6507   -0.6275    0.0000 C   0  0  0  0  0  0  0  0  0  0  0  0
    7.1957   -0.8323    0.0000 C   0  0  0  0  0  0  0  0  0  0  0  0
    5.7462    0.8001    0.0000 C   0  0  1  0  0  0  0  0  0  0  0  0
    5.0344    1.2365    0.0000 C   0  0  0  0  0  0  0  0  0  0  0  0
    4.3154    0.8440    0.0000 C   0  0  0  0  0  0  0  0  0  0  0  0
    4.3154   -0.0183    0.0000 C   0  0  0  0  0  0  0  0  0  0  0  0
    3.5822    1.2584    0.0000 C   0  0  0  0  0  0  0  0  0  0  0  0
    2.8706    0.8440    0.0000 C   0  0  0  0  0  0  0  0  0  0  0  0
    2.1883    1.2800    0.0000 C   0  0  0  0  0  0  0  0  0  0  0  0
    1.4476    0.8587    0.0000 C   0  0  0  0  0  0  0  0  0  0  0  0
    1.4476    0.0548    0.0000 C   0  0  0  0  0  0  0  0  0  0  0  0
    0.7433    1.2800    0.0000 C   0  0  0  0  0  0  0  0  0  0  0  0
    0.0462    0.8733    0.0000 C   0  0  0  0  0  0  0  0  0  0  0  0
   -0.6725    1.2800    0.0000 C   0  0  0  0  0  0  0  0  0  0  0  0
   -1.4034    0.8587    0.0000 C   0  0  0  0  0  0  0  0  0  0  0  0
   -2.1222    1.2800    0.0000 C   0  0  0  0  0  0  0  0  0  0  0  0
   -2.1222    2.0797    0.0000 C   0  0  0  0  0  0  0  0  0  0  0  0
   -2.8118    0.8587    0.0000 C   0  0  0  0  0  0  0  0  0  0  0  0
   -3.5597    1.2800    0.0000 C   0  0  0  0  0  0  0  0  0  0  0  0
   -4.2640    0.8733    0.0000 C   0  0  0  0  0  0  0  0  0  0  0  0
   -5.0047    1.2800    0.0000 C   0  0  0  0  0  0  0  0  0  0  0  0
   -5.0047    2.0944    0.0000 C   0  0  0  0  0  0  0  0  0  0  0  0
   -5.7236    0.8733    0.0000 C   0  0  0  0  0  0  0  0  0  0  0  0
   -5.7236    0.0109    0.0000 O   0  0  0  0  0  0  0  0  0  0  0  0
   -6.4354    1.2800    0.0000 C   0  0  0  0  0  0  0  0  0  0  0  0
   -7.1686    0.8440    0.0000 C   0  0  2  0  0  0  0  0  0  0  0  0
   -7.8728    1.2800    0.0000 C   0  0  0  0  0  0  0  0  0  0  0  0
   -7.3853    2.0651    0.0000 C   0  0  0  0  0  0  0  0  0  0  0  0
   -8.3504    2.0065    0.0000 C   0  0  0  0  0  0  0  0  0  0  0  0
   -8.5845    0.8440    0.0000 C   0  0  0  0  0  0  0  0  0  0  0  0
   -8.5845    0.0256    0.0000 C   0  0  2  0  0  0  0  0  0  0  0  0
   -9.2889   -0.3961    0.0000 O   0  0  0  0  0  0  0  0  0  0  0  0
   -7.8728   -0.3669    0.0000 C   0  0  0  0  0  0  0  0  0  0  0  0
   -7.1686    0.0548    0.0000 C   0  0  1  0  0  0  0  0  0  0  0  0
   -6.4354    0.5177    0.0000 O   0  0  0  0  0  0  0  0  0  0  0  0
   -6.5889   -0.5058    0.0000 C   0  0  0  0  0  0  0  0  0  0  0  0
  2  1  2  0  0  0  0
  2  3  1  0  0  0  0
  4  2  1  0  0  0  0
  5  4  1  1  0  0  0
  6  5  1  0  0  0  0
  7  6  1  0  0  0  0
  7  8  1  0  0  0  0
  7  9  1  1  0  0  0
 10  7  1  0  0  0  0
 10 11  1  0  0  0  0
 11 12  1  0  0  0  0
 11 13  1  0  0  0  0
 11 14  1  0  0  0  0
 14  5  1  0  0  0  0
 15 10  2  0  0  0  0
 16 15  2  0  0  0  0
 16 17  1  1  0  0  0
 17 18  1  0  0  0  0
 19 17  2  0  0  0  0
 20 19  1  0  0  0  0
 21 20  2  0  0  0  0
 22 21  1  0  0  0  0
 22 23  1  0  0  0  0
 24 22  2  0  0  0  0
 25 24  1  0  0  0  0
 26 25  2  0  0  0  0
 27 26  1  0  0  0  0
 28 27  2  0  0  0  0
 28 29  1  0  0  0  0
 30 28  1  0  0  0  0
 31 30  2  0  0  0  0
 32 31  1  0  0  0  0
 33 32  2  0  0  0  0
 33 34  1  0  0  0  0
 35 33  1  0  0  0  0
 35 36  2  0  0  0  0
 37 35  1  0  0  0  0
 38 37  1  1  0  0  0
 38 39  1  0  0  0  0
 39 40  1  0  0  0  0
 39 41  1  0  0  0  0
 39 42  1  0  0  0  0
 42 43  1  0  0  0  0
 43 44  1  1  0  0  0
 45 43  1  0  0  0  0
 46 45  1  0  0  0  0
 46 47  1  0  0  0  0
 38 47  1  0  0  0  0
 46 48  1  1  0  0  0
 38 46  1  0  0  0  0
M  END
> <DATABASE_ID>
DB15462

> <DATABASE_NAME>
drugbank

> <SMILES>
CC(=O)O[C@H]1CC(C)(C)C(=[C@@]=C\C(C)=C\C=C\C(\C)=C\C=C\C=C(/C)\C=C\C=C(/C)C(=O)C[C@@]23O[C@]2(C)C[C@@H](O)CC3(C)C)[C@](C)(O)C1

> <INCHI_IDENTIFIER>
InChI=1S/C42H58O6/c1-29(18-14-19-31(3)22-23-37-38(6,7)26-35(47-33(5)43)27-40(37,10)46)16-12-13-17-30(2)20-15-21-32(4)36(45)28-42-39(8,9)24-34(44)25-41(42,11)48-42/h12-22,34-35,44,46H,24-28H2,1-11H3/b13-12+,18-14+,20-15+,29-16+,30-17+,31-19+,32-21+/t23-,34-,35-,40+,41+,42-/m0/s1

> <INCHI_KEY>
SJWWTRQNNRNTPU-XJUZQKKNSA-N

> <FORMULA>
C42H58O6

> <MOLECULAR_WEIGHT>
658.92

> <EXACT_MASS>
658.423339588

> <JCHEM_ACCEPTOR_COUNT>
5

> <JCHEM_ATOM_COUNT>
106

> <JCHEM_AVERAGE_NEUTRAL_MICROSPECIES_CHARGE>
-9.80887078520397e-08

> <JCHEM_AVERAGE_POLARIZABILITY>
78.19618245282204

> <JCHEM_BIOAVAILABILITY>
0

> <JCHEM_DONOR_COUNT>
2

> <JCHEM_FORMAL_CHARGE>
0

> <JCHEM_GHOSE_FILTER>
0

> <JCHEM_IUPAC>
(1S,3R)-3-hydroxy-4-[(1M,3E,5E,7E,9E,11E,13E,15E)-18-[(1S,4S,6R)-4-hydroxy-2,2,6-trimethyl-7-oxabicyclo[4.1.0]heptan-1-yl]-3,7,12,16-tetramethyl-17-oxooctadeca-1,3,5,7,9,11,13,15-octaen-1-ylidene]-3,5,5-trimethylcyclohexyl acetate

> <ALOGPS_LOGP>
7.54

> <JCHEM_LOGP>
6.827701596666666

> <ALOGPS_LOGS>
-6.06

> <JCHEM_MDDR_LIKE_RULE>
1

> <JCHEM_NEUTRAL_CHARGE>
0

> <JCHEM_NUMBER_OF_RINGS>
3

> <JCHEM_PHYSIOLOGICAL_CHARGE>
0

> <JCHEM_PKA>
15.176456928899176

> <JCHEM_PKA_STRONGEST_ACIDIC>
14.03780574595597

> <JCHEM_PKA_STRONGEST_BASIC>
-2.737175756069491

> <JCHEM_POLAR_SURFACE_AREA>
96.36

> <JCHEM_REFRACTIVITY>
202.75920000000005

> <JCHEM_ROTATABLE_BOND_COUNT>
12

> <JCHEM_RULE_OF_FIVE>
0

> <ALOGPS_SOLUBILITY>
5.75e-04 g/l

> <JCHEM_TRADITIONAL_IUPAC>
zoptarelin doxorubicin

> <JCHEM_VEBER_RULE>
0

> <DRUGBANK_ID>
DB15462

> <DRUG_GROUPS>
investigational

> <GENERIC_NAME>
Fucoxanthin

$$$$
