
  Mrv1909 02092022552D          

 31 35  0  0  0  0            999 V2000
   -1.6346   -0.4274    0.0000 N   0  0  0  0  0  0  0  0  0  0  0  0
   -0.8087   -0.4287    0.0000 C   0  0  0  0  0  0  0  0  0  0  0  0
   -0.3905    0.2875    0.0000 C   0  0  0  0  0  0  0  0  0  0  0  0
    0.3558   -1.1814    0.0000 C   0  0  0  0  0  0  0  0  0  0  0  0
    0.3561   -2.0072    0.0000 N   0  0  0  0  0  0  0  0  0  0  0  0
    1.7815   -2.0066    0.0000 C   0  0  0  0  0  0  0  0  0  0  0  0
    1.7812   -1.1808    0.0000 C   0  0  0  0  0  0  0  0  0  0  0  0
    1.0642   -0.7640    0.0000 C   0  0  0  0  0  0  0  0  0  0  0  0
    2.4953   -2.4174    0.0000 C   0  0  0  0  0  0  0  0  0  0  0  0
    3.2126   -2.0036    0.0000 C   0  0  0  0  0  0  0  0  0  0  0  0
    3.2097   -1.1723    0.0000 C   0  0  0  0  0  0  0  0  0  0  0  0
    2.4935   -0.7627    0.0000 C   0  0  0  0  0  0  0  0  0  0  0  0
   -0.3572   -2.4189    0.0000 C   0  0  0  0  0  0  0  0  0  0  0  0
   -1.0704   -2.0059    0.0000 C   0  0  0  0  0  0  0  0  0  0  0  0
   -1.7836   -2.4189    0.0000 C   0  0  0  0  0  0  0  0  0  0  0  0
   -2.4968   -2.0059    0.0000 N   0  0  0  0  0  0  0  0  0  0  0  0
   -2.4958   -1.1801    0.0000 C   0  0  0  0  0  0  0  0  0  0  0  0
   -3.2126   -2.4180    0.0000 C   0  0  0  0  0  0  0  0  0  0  0  0
    1.0618    0.0618    0.0000 C   0  0  0  0  0  0  0  0  0  0  0  0
    1.7270    0.5494    0.0000 C   0  0  0  0  0  0  0  0  0  0  0  0
    1.4695    1.3341    0.0000 N   0  0  0  0  0  0  0  0  0  0  0  0
    0.6436    1.3317    0.0000 C   0  0  0  0  0  0  0  0  0  0  0  0
    0.3908    0.5455    0.0000 C   0  0  0  0  0  0  0  0  0  0  0  0
    2.5133    0.2970    0.0000 O   0  0  0  0  0  0  0  0  0  0  0  0
    0.1562    1.9982    0.0000 O   0  0  0  0  0  0  0  0  0  0  0  0
   -1.6324    0.9980    0.0000 C   0  0  0  0  0  0  0  0  0  0  0  0
   -0.8087    0.9930    0.0000 C   0  0  0  0  0  0  0  0  0  0  0  0
   -0.3944    1.7027    0.0000 C   0  0  0  0  0  0  0  0  0  0  0  0
   -0.8026    2.4180    0.0000 C   0  0  0  0  0  0  0  0  0  0  0  0
   -1.6295    2.4189    0.0000 C   0  0  0  0  0  0  0  0  0  0  0  0
   -2.0400    1.7085    0.0000 C   0  0  0  0  0  0  0  0  0  0  0  0
  6  7  2  0  0  0  0
 14 15  1  0  0  0  0
  7  8  1  0  0  0  0
 15 16  1  0  0  0  0
  8  4  2  0  0  0  0
 16 17  1  0  0  0  0
  5  6  1  0  0  0  0
 16 18  1  0  0  0  0
  4  5  1  0  0  0  0
  8 19  1  0  0  0  0
 19 20  1  0  0  0  0
  6  9  1  0  0  0  0
  9 10  2  0  0  0  0
  1  2  1  0  0  0  0
 20 21  1  0  0  0  0
 21 22  1  0  0  0  0
 22 23  1  0  0  0  0
 23 19  2  0  0  0  0
 10 11  1  0  0  0  0
 20 24  2  0  0  0  0
  2  3  2  0  0  0  0
 22 25  2  0  0  0  0
 23  3  1  0  0  0  0
 11 12  2  0  0  0  0
 12  7  1  0  0  0  0
 26 27  2  0  0  0  0
  3 27  1  0  0  0  0
 27 28  1  0  0  0  0
  5 13  1  0  0  0  0
 28 29  2  0  0  0  0
 26  1  1  0  0  0  0
 29 30  1  0  0  0  0
 13 14  1  0  0  0  0
 30 31  2  0  0  0  0
 31 26  1  0  0  0  0
M  END
> <DATABASE_ID>
DB03777

> <DATABASE_NAME>
drugbank

> <SMILES>
CN(C)CCCN1C=C(C2=C1C=CC=C2)C1=C(C(=O)NC1=O)C1=CNC2=C1C=CC=C2

> <INCHI_IDENTIFIER>
InChI=1S/C25H24N4O2/c1-28(2)12-7-13-29-15-19(17-9-4-6-11-21(17)29)23-22(24(30)27-25(23)31)18-14-26-20-10-5-3-8-16(18)20/h3-6,8-11,14-15,26H,7,12-13H2,1-2H3,(H,27,30,31)

> <INCHI_KEY>
QMGUOJYZJKLOLH-UHFFFAOYSA-N

> <FORMULA>
C25H24N4O2

> <MOLECULAR_WEIGHT>
412.4837

> <EXACT_MASS>
412.189926032

> <JCHEM_ACCEPTOR_COUNT>
3

> <JCHEM_ATOM_COUNT>
55

> <JCHEM_AVERAGE_NEUTRAL_MICROSPECIES_CHARGE>
0.9939646357571754

> <JCHEM_AVERAGE_POLARIZABILITY>
45.48234354804268

> <JCHEM_BIOAVAILABILITY>
1

> <JCHEM_DONOR_COUNT>
2

> <JCHEM_FORMAL_CHARGE>
0

> <JCHEM_GHOSE_FILTER>
1

> <JCHEM_IUPAC>
3-{1-[3-(dimethylamino)propyl]-1H-indol-3-yl}-4-(1H-indol-3-yl)-2,5-dihydro-1H-pyrrole-2,5-dione

> <ALOGPS_LOGP>
4.39

> <JCHEM_LOGP>
2.5783368139471543

> <ALOGPS_LOGS>
-4.70

> <JCHEM_MDDR_LIKE_RULE>
1

> <JCHEM_NEUTRAL_CHARGE>
1

> <JCHEM_NUMBER_OF_RINGS>
5

> <JCHEM_PHYSIOLOGICAL_CHARGE>
1

> <JCHEM_PKA>
16.044644805275084

> <JCHEM_PKA_STRONGEST_ACIDIC>
9.989128011097762

> <JCHEM_PKA_STRONGEST_BASIC>
9.38570217501257

> <JCHEM_POLAR_SURFACE_AREA>
70.13

> <JCHEM_REFRACTIVITY>
122.2098

> <JCHEM_ROTATABLE_BOND_COUNT>
6

> <JCHEM_RULE_OF_FIVE>
1

> <ALOGPS_SOLUBILITY>
8.24e-03 g/l

> <JCHEM_TRADITIONAL_IUPAC>
azoxystrobin

> <JCHEM_VEBER_RULE>
0

> <DRUGBANK_ID>
DB03777

> <SECONDARY_ACCESSION_NUMBERS>
EXPT00703

> <DRUG_GROUPS>
experimental

> <GENERIC_NAME>
Bisindolylmaleimide I

$$$$
