
  Mrv1909 12221902542D          

 45 49  0  0  0  0            999 V2000
    0.5756    1.2773    0.0000 P   0  0  0  0  0  0  0  0  0  0  0  0
    0.0436   -1.5716    0.0000 O   0  0  0  0  0  0  0  0  0  0  0  0
    1.4203    3.8931    0.0000 O   0  0  0  0  0  0  0  0  0  0  0  0
    0.3220    2.0623    0.0000 O   0  0  0  0  0  0  0  0  0  0  0  0
    0.8292    0.4921    0.0000 O   0  0  0  0  0  0  0  0  0  0  0  0
    1.9822   -0.6775    0.0000 O   0  0  0  0  0  0  0  0  0  0  0  0
    1.9791   -2.4725    0.0000 O   0  0  0  0  0  0  0  0  0  0  0  0
    2.1068    1.8716    0.0000 O   0  0  0  0  0  0  0  0  0  0  0  0
    3.0960    4.2944    0.0000 O   0  0  0  0  0  0  0  0  0  0  0  0
    1.3608    1.5309    0.0000 O   0  0  0  0  0  0  0  0  0  0  0  0
   -0.2093    1.0237    0.0000 O   0  0  0  0  0  0  0  0  0  0  0  0
    0.5354    5.1232    0.0000 O   0  0  0  0  0  0  0  0  0  0  0  0
   -1.2240   -5.3381    0.0000 O   0  0  0  0  0  0  0  0  0  0  0  0
    0.2710   -3.0241    0.0000 N   0  0  0  0  0  0  0  0  0  0  0  0
   -0.0480    3.8187    0.0000 N   0  0  0  0  0  0  0  0  0  0  0  0
   -1.2240   -2.8631    0.0000 N   0  0  0  0  0  0  0  0  0  0  0  0
    0.2710   -4.3520    0.0000 N   0  0  0  0  0  0  0  0  0  0  0  0
   -0.8860    4.9762    0.0000 N   0  0  0  0  0  0  0  0  0  0  0  0
   -1.9384   -4.1007    0.0000 N   0  0  0  0  0  0  0  0  0  0  0  0
   -2.6531   -2.8631    0.0000 N   0  0  0  0  0  0  0  0  0  0  0  0
   -2.3074    4.8293    0.0000 N   0  0  0  0  0  0  0  0  0  0  0  0
    0.8752    2.6746    0.0000 C   0  0  2  0  0  0  0  0  0  0  0  0
    0.5297   -0.9051    0.0000 C   0  0  1  0  0  0  0  0  0  0  0  0
    1.3139   -1.1613    0.0000 C   0  0  2  0  0  0  0  0  0  0  0  0
    1.3125   -1.9863    0.0000 C   0  0  2  0  0  0  0  0  0  0  0  0
    0.5274   -2.2399    0.0000 C   0  0  1  0  0  0  0  0  0  0  0  0
    1.6956    2.5869    0.0000 C   0  0  1  0  0  0  0  0  0  0  0  0
    0.7050    3.4818    0.0000 C   0  0  1  0  0  0  0  0  0  0  0  0
    2.0324    3.3400    0.0000 C   0  0  1  0  0  0  0  0  0  0  0  0
    0.2761   -0.1199    0.0000 C   0  0  0  0  0  0  0  0  0  0  0  0
    2.8397    3.5101    0.0000 C   0  0  0  0  0  0  0  0  0  0  0  0
   -0.5095   -3.2756    0.0000 C   0  0  0  0  0  0  0  0  0  0  0  0
    0.7525   -3.6881    0.0000 C   0  0  0  0  0  0  0  0  0  0  0  0
   -0.7163    3.3349    0.0000 C   0  0  0  0  0  0  0  0  0  0  0  0
   -0.5095   -4.1007    0.0000 C   0  0  0  0  0  0  0  0  0  0  0  0
   -0.1329    4.6394    0.0000 C   0  0  0  0  0  0  0  0  0  0  0  0
   -1.4694    3.6717    0.0000 C   0  0  0  0  0  0  0  0  0  0  0  0
   -1.2240   -4.5132    0.0000 C   0  0  0  0  0  0  0  0  0  0  0  0
   -1.9384   -3.2756    0.0000 C   0  0  0  0  0  0  0  0  0  0  0  0
   -1.5542    4.4925    0.0000 C   0  0  0  0  0  0  0  0  0  0  0  0
   -1.2240   -2.3516    0.0000 H   0  0  0  0  0  0  0  0  0  0  0  0
   -2.6531   -2.3516    0.0000 H   0  0  0  0  0  0  0  0  0  0  0  0
   -3.0960   -3.1188    0.0000 H   0  0  0  0  0  0  0  0  0  0  0  0
   -2.7218    4.5294    0.0000 H   0  0  0  0  0  0  0  0  0  0  0  0
   -2.3600    5.3381    0.0000 H   0  0  0  0  0  0  0  0  0  0  0  0
  1  4  1  0  0  0  0
  1  5  1  0  0  0  0
  1 10  1  1  0  0  0
  1 11  2  0  0  0  0
  2 23  1  0  0  0  0
  2 26  1  0  0  0  0
  3 28  1  0  0  0  0
  3 29  1  0  0  0  0
 22  4  1  1  0  0  0
  5 30  1  0  0  0  0
 24  6  1  1  0  0  0
 25  7  1  1  0  0  0
 27  8  1  1  0  0  0
  9 31  1  0  0  0  0
 12 36  2  0  0  0  0
 13 38  2  0  0  0  0
 26 14  1  6  0  0  0
 14 32  1  0  0  0  0
 14 33  1  0  0  0  0
 28 15  1  6  0  0  0
 15 34  1  0  0  0  0
 15 36  1  0  0  0  0
 16 32  1  0  0  0  0
 16 39  1  0  0  0  0
 16 41  1  0  0  0  0
 17 33  2  0  0  0  0
 17 35  1  0  0  0  0
 18 36  1  0  0  0  0
 18 40  2  0  0  0  0
 19 38  1  0  0  0  0
 19 39  2  0  0  0  0
 20 39  1  0  0  0  0
 20 42  1  0  0  0  0
 20 43  1  0  0  0  0
 21 40  1  0  0  0  0
 21 44  1  0  0  0  0
 21 45  1  0  0  0  0
 22 27  1  0  0  0  0
 22 28  1  0  0  0  0
 23 24  1  0  0  0  0
 23 30  1  6  0  0  0
 24 25  1  0  0  0  0
 25 26  1  0  0  0  0
 27 29  1  0  0  0  0
 29 31  1  6  0  0  0
 32 35  2  0  0  0  0
 34 37  2  0  0  0  0
 35 38  1  0  0  0  0
 37 40  1  0  0  0  0
M  END
> <DATABASE_ID>
DB03638

> <DATABASE_NAME>
drugbank

> <SMILES>
[H]N([H])C1=NC(=O)N(C=C1)[C@@H]1O[C@H](CO)[C@@H](O)[C@H]1OP(O)(=O)OC[C@H]1O[C@H]([C@H](O)[C@@H]1O)N1C=NC2=C1N([H])C(=NC2=O)N([H])[H]

> <INCHI_IDENTIFIER>
InChI=1S/C19H25N8O12P/c20-8-1-2-26(19(33)23-8)17-13(11(30)6(3-28)37-17)39-40(34,35)36-4-7-10(29)12(31)16(38-7)27-5-22-9-14(27)24-18(21)25-15(9)32/h1-2,5-7,10-13,16-17,28-31H,3-4H2,(H,34,35)(H2,20,23,33)(H3,21,24,25,32)/t6-,7-,10-,11-,12-,13-,16-,17-/m1/s1

> <INCHI_KEY>
QZDUXDLOEVJGDG-VMIOUTBZSA-N

> <FORMULA>
C19H25N8O12P

> <MOLECULAR_WEIGHT>
588.422

> <EXACT_MASS>
588.132954816

> <JCHEM_ACCEPTOR_COUNT>
16

> <JCHEM_ATOM_COUNT>
65

> <JCHEM_AVERAGE_NEUTRAL_MICROSPECIES_CHARGE>
-1.0930476030462637

> <JCHEM_AVERAGE_POLARIZABILITY>
51.68046535206128

> <JCHEM_BIOAVAILABILITY>
0

> <JCHEM_DONOR_COUNT>
8

> <JCHEM_FORMAL_CHARGE>
0

> <JCHEM_GHOSE_FILTER>
0

> <JCHEM_IUPAC>
{[(2R,3R,4R,5R)-2-(4-amino-2-oxo-1,2-dihydropyrimidin-1-yl)-4-hydroxy-5-(hydroxymethyl)oxolan-3-yl]oxy}({[(2R,3S,4R,5R)-5-(2-amino-6-oxo-6,9-dihydro-3H-purin-9-yl)-3,4-dihydroxyoxolan-2-yl]methoxy})phosphinic acid

> <ALOGPS_LOGP>
-1.84

> <JCHEM_LOGP>
-4.424749434185595

> <ALOGPS_LOGS>
-2.19

> <JCHEM_MDDR_LIKE_RULE>
1

> <JCHEM_NEUTRAL_CHARGE>
-1

> <JCHEM_NUMBER_OF_RINGS>
5

> <JCHEM_PHYSIOLOGICAL_CHARGE>
-1

> <JCHEM_PKA>
7.993982377562549

> <JCHEM_PKA_STRONGEST_ACIDIC>
1.7227281274314308

> <JCHEM_PKA_STRONGEST_BASIC>
4.149423009126603

> <JCHEM_POLAR_SURFACE_AREA>
299.13

> <JCHEM_REFRACTIVITY>
125.82639999999998

> <JCHEM_ROTATABLE_BOND_COUNT>
8

> <JCHEM_RULE_OF_FIVE>
0

> <ALOGPS_SOLUBILITY>
3.76e+00 g/l

> <JCHEM_TRADITIONAL_IUPAC>
(2R,5S,8S,11S,15S)-8-benzyl-2,7-dimethyl-5-[3-({[(methylcarbamoyl)amino]methanimidoyl}amino)propyl]-3,6,9,13,17-pentaoxo-1,4,7,10,14-pentaazacycloheptadecane-11,15-dicarboxylic acid

> <JCHEM_VEBER_RULE>
0

> <DRUGBANK_ID>
DB03638

> <SECONDARY_ACCESSION_NUMBERS>
EXPT00898

> <DRUG_GROUPS>
experimental

> <GENERIC_NAME>
Cytidyl-2'-5'-phospho-guanosine

$$$$
