
  Mrv1652310211600402D          

 40 44  0  0  1  0            999 V2000
    3.1895    1.8414    0.0000 C   0  0  0  0  0  0  0  0  0  0  0  0
    3.6020    1.1270    0.0000 C   0  0  1  0  0  0  0  0  0  0  0  0
    4.0145    1.8414    0.0000 C   0  0  0  0  0  0  0  0  0  0  0  0
    4.8395    1.8414    0.0000 C   0  0  0  0  0  0  0  0  0  0  0  0
    5.2520    1.1270    0.0000 C   0  0  1  0  0  0  0  0  0  0  0  0
    6.0770    1.1270    0.0000 C   0  0  0  0  0  0  0  0  0  0  0  0
    6.4895    0.4125    0.0000 C   0  0  0  0  0  0  0  0  0  0  0  0
    6.0770   -0.3020    0.0000 C   0  0  0  0  0  0  0  0  0  0  0  0
    5.2520   -0.3020    0.0000 C   0  0  0  0  0  0  0  0  0  0  0  0
    4.8395    0.4125    0.0000 C   0  0  1  0  0  0  0  0  0  0  0  0
    4.0145    0.4125    0.0000 C   0  0  1  0  0  0  0  0  0  0  0  0
    3.6020   -0.3020    0.0000 C   0  0  0  0  0  0  0  0  0  0  0  0
    4.0145   -1.0164    0.0000 O   0  0  0  0  0  0  0  0  0  0  0  0
    2.7770   -0.3020    0.0000 C   0  0  0  0  0  0  0  0  0  0  0  0
    2.3645    0.4125    0.0000 C   0  0  0  0  0  0  0  0  0  0  0  0
    2.7770    1.1270    0.0000 C   0  0  1  0  0  0  0  0  0  0  0  0
    2.3645    1.8414    0.0000 C   0  0  0  0  0  0  0  0  0  0  0  0
    1.5395    1.8414    0.0000 C   0  0  0  0  0  0  0  0  0  0  0  0
    1.1270    1.1270    0.0000 C   0  0  2  0  0  0  0  0  0  0  0  0
    1.5395    0.4125    0.0000 C   0  0  2  0  0  0  0  0  0  0  0  0
    1.1270   -0.3020    0.0000 C   0  0  0  0  0  0  0  0  0  0  0  0
    0.3020   -0.3020    0.0000 C   0  0  0  0  0  0  0  0  0  0  0  0
   -0.1105    0.4125    0.0000 C   0  0  0  0  0  0  0  0  0  0  0  0
   -0.9355    0.4125    0.0000 O   0  0  0  0  0  0  0  0  0  0  0  0
    0.3020    1.1270    0.0000 C   0  0  0  0  0  0  0  0  0  0  0  0
   -0.3977    1.5642    0.0000 C   0  0  0  0  0  0  0  0  0  0  0  0
    0.2732    1.9515    0.0000 C   0  0  0  0  0  0  0  0  0  0  0  0
   -0.1105   -1.0164    0.0000 C   0  0  0  0  0  0  0  0  0  0  0  0
   -0.5230   -1.7309    0.0000 N   0  0  0  0  0  0  0  0  0  0  0  0
    1.9520   -0.3020    0.0000 C   0  0  0  0  0  0  0  0  0  0  0  0
    2.6907    1.9475    0.0000 C   0  0  0  0  0  0  0  0  0  0  0  0
    6.7766   -0.7392    0.0000 C   0  0  0  0  0  0  0  0  0  0  0  0
    6.1058   -1.1265    0.0000 C   0  0  0  0  0  0  0  0  0  0  0  0
    5.6645    1.8414    0.0000 N   0  0  0  0  0  0  0  0  0  0  0  0
    6.4895    1.8414    0.0000 C   0  0  0  0  0  0  0  0  0  0  0  0
    6.9020    1.1270    0.0000 O   0  0  0  0  0  0  0  0  0  0  0  0
    6.9020    2.5559    0.0000 C   0  0  0  0  0  0  0  0  0  0  0  0
    7.3145    3.2704    0.0000 C   0  0  0  0  0  0  0  0  0  0  0  0
    7.6164    2.1434    0.0000 F   0  0  0  0  0  0  0  0  0  0  0  0
    6.1875    2.9684    0.0000 F   0  0  0  0  0  0  0  0  0  0  0  0
  2  1  1  1  0  0  0
  2  3  1  0  0  0  0
  3  4  1  0  0  0  0
  4  5  1  0  0  0  0
  5  6  1  0  0  0  0
  6  7  1  0  0  0  0
  7  8  1  0  0  0  0
  8  9  1  0  0  0  0
 10  9  1  1  0  0  0
  5 10  1  0  0  0  0
 10 11  1  0  0  0  0
  2 11  1  0  0  0  0
 11 12  1  1  0  0  0
 12 13  2  0  0  0  0
 12 14  1  0  0  0  0
 14 15  2  0  0  0  0
 15 16  1  0  0  0  0
  2 16  1  0  0  0  0
 16 17  1  0  0  0  0
 17 18  1  0  0  0  0
 19 18  1  6  0  0  0
 19 20  1  0  0  0  0
 15 20  1  0  0  0  0
 20 21  1  0  0  0  0
 21 22  2  0  0  0  0
 22 23  1  0  0  0  0
 23 24  2  0  0  0  0
 23 25  1  0  0  0  0
 19 25  1  0  0  0  0
 25 26  1  0  0  0  0
 25 27  1  0  0  0  0
 22 28  1  0  0  0  0
 28 29  3  0  0  0  0
 20 30  1  6  0  0  0
 16 31  1  6  0  0  0
  8 32  1  0  0  0  0
  8 33  1  0  0  0  0
  5 34  1  6  0  0  0
 34 35  1  0  0  0  0
 35 36  2  0  0  0  0
 35 37  1  0  0  0  0
 37 38  1  0  0  0  0
 37 39  1  0  0  0  0
 37 40  1  0  0  0  0
M  END
> <DATABASE_ID>
DB12513

> <DATABASE_NAME>
drugbank

> <SMILES>
CC(F)(F)C(=O)N[C@]12CCC(C)(C)C[C@H]1[C@H]1C(=O)C=C3[C@@]4(C)C=C(C#N)C(=O)C(C)(C)[C@@H]4CC[C@@]3(C)[C@]1(C)CC2

> <INCHI_IDENTIFIER>
InChI=1S/C33H44F2N2O3/c1-27(2)11-13-33(37-26(40)32(8,34)35)14-12-31(7)24(20(33)17-27)21(38)15-23-29(5)16-19(18-36)25(39)28(3,4)22(29)9-10-30(23,31)6/h15-16,20,22,24H,9-14,17H2,1-8H3,(H,37,40)/t20-,22-,24-,29-,30+,31+,33-/m0/s1

> <INCHI_KEY>
RJCWBNBKOKFWNY-IDPLTSGASA-N

> <FORMULA>
C33H44F2N2O3

> <MOLECULAR_WEIGHT>
554.723

> <EXACT_MASS>
554.331999611

> <JCHEM_ACCEPTOR_COUNT>
4

> <JCHEM_ATOM_COUNT>
84

> <JCHEM_AVERAGE_POLARIZABILITY>
60.76231660983332

> <JCHEM_BIOAVAILABILITY>
0

> <JCHEM_DONOR_COUNT>
1

> <JCHEM_FORMAL_CHARGE>
0

> <JCHEM_GHOSE_FILTER>
0

> <JCHEM_IUPAC>
N-[(4aS,6aR,6bS,8aR,12aS,14aR,14bS)-11-cyano-2,2,6a,6b,9,9,12a-heptamethyl-10,14-dioxo-1,2,3,4,4a,5,6,6a,6b,7,8,8a,9,10,12a,14,14a,14b-octadecahydropicen-4a-yl]-2,2-difluoropropanamide

> <ALOGPS_LOGP>
5.64

> <JCHEM_LOGP>
6.279140317

> <ALOGPS_LOGS>
-5.67

> <JCHEM_MDDR_LIKE_RULE>
0

> <JCHEM_NUMBER_OF_RINGS>
5

> <JCHEM_PHYSIOLOGICAL_CHARGE>
0

> <JCHEM_PKA_STRONGEST_ACIDIC>
10.106221136001697

> <JCHEM_PKA_STRONGEST_BASIC>
-5.340171431173641

> <JCHEM_POLAR_SURFACE_AREA>
87.03

> <JCHEM_REFRACTIVITY>
151.24949999999998

> <JCHEM_ROTATABLE_BOND_COUNT>
2

> <JCHEM_RULE_OF_FIVE>
0

> <ALOGPS_SOLUBILITY>
1.19e-03 g/l

> <JCHEM_TRADITIONAL_IUPAC>
N-[(4aS,6aR,6bS,8aR,12aS,14aR,14bS)-11-cyano-2,2,6a,6b,9,9,12a-heptamethyl-10,14-dioxo-1,3,4,5,6,7,8,8a,14a,14b-decahydropicen-4a-yl]-2,2-difluoropropanamide

> <JCHEM_VEBER_RULE>
0

> <DRUGBANK_ID>
DB12513

> <DRUG_GROUPS>
investigational

> <GENERIC_NAME>
Omaveloxolone

> <SYNONYMS>
Omaveloxolone

$$$$
