
  Mrv1909 01032022462D          

 45 52  0  0  0  0            999 V2000
   -4.2473   -0.5861    0.0000 C   0  0  0  0  0  0  0  0  0  0  0  0
   -4.2510   -1.3076    0.0000 C   0  0  0  0  0  0  0  0  0  0  0  0
   -4.8793   -1.6641    0.0000 C   0  0  0  0  0  0  0  0  0  0  0  0
   -4.8834   -2.3850    0.0000 N   0  0  0  0  0  0  0  0  0  0  0  0
   -4.2600   -2.7498    0.0000 C   0  0  0  0  0  0  0  0  0  0  0  0
   -3.6311   -2.3884    0.0000 C   0  0  0  0  0  0  0  0  0  0  0  0
   -3.6301   -1.6686    0.0000 N   0  0  0  0  0  0  0  0  0  0  0  0
   -3.6095    0.5928    0.0000 N   0  0  0  0  0  0  0  0  0  0  0  0
   -4.4228    0.7403    0.0000 C   0  0  0  0  0  0  0  0  0  0  0  0
   -4.8150    0.0126    0.0000 C   0  0  0  0  0  0  0  0  0  0  0  0
   -3.5011   -0.2258    0.0000 C   0  0  0  0  0  0  0  0  0  0  0  0
    4.8834    2.3305    0.0000 C   0  0  0  0  0  0  0  0  0  0  0  0
    4.5717    3.0960    0.0000 C   0  0  0  0  0  0  0  0  0  0  0  0
    3.7470    3.0365    0.0000 C   0  0  0  0  0  0  0  0  0  0  0  0
    3.5477    2.2343    0.0000 C   0  0  2  0  0  0  0  0  0  0  0  0
    4.2506    1.7998    0.0000 N   0  0  0  0  0  0  0  0  0  0  0  0
   -2.8934    1.8349    0.0000 C   0  0  0  0  0  0  0  0  0  0  0  0
   -2.8942    1.0067    0.0000 C   0  0  0  0  0  0  0  0  0  0  0  0
   -2.1813    2.2469    0.0000 C   0  0  0  0  0  0  0  0  0  0  0  0
   -1.4637    1.8375    0.0000 C   0  0  0  0  0  0  0  0  0  0  0  0
   -0.0344    1.0057    0.0000 C   0  0  0  0  0  0  0  0  0  0  0  0
   -0.0323    1.8339    0.0000 C   0  0  0  0  0  0  0  0  0  0  0  0
   -0.7492    2.2522    0.0000 C   0  0  0  0  0  0  0  0  0  0  0  0
   -1.4657    1.0091    0.0000 C   0  0  0  0  0  0  0  0  0  0  0  0
   -2.1796    0.5970    0.0000 C   0  0  0  0  0  0  0  0  0  0  0  0
   -2.1795   -0.2228    0.0000 O   0  0  0  0  0  0  0  0  0  0  0  0
   -0.7518    0.6016    0.0000 N   0  0  0  0  0  0  0  0  0  0  0  0
   -0.7534   -0.2243    0.0000 C   0  0  0  0  0  0  0  0  0  0  0  0
   -1.4660   -0.6330    0.0000 C   0  0  0  0  0  0  0  0  0  0  0  0
   -1.4674   -1.4526    0.0000 C   0  0  0  0  0  0  0  0  0  0  0  0
   -0.0457   -0.6325    0.0000 C   0  0  0  0  0  0  0  0  0  0  0  0
   -0.0436   -1.4508    0.0000 C   0  0  0  0  0  0  0  0  0  0  0  0
   -0.7580   -1.8613    0.0000 C   0  0  0  0  0  0  0  0  0  0  0  0
   -0.7588   -2.6834    0.0000 C   0  0  0  0  0  0  0  0  0  0  0  0
   -0.0458   -3.0960    0.0000 C   0  0  0  0  0  0  0  0  0  0  0  0
    0.6693   -2.6805    0.0000 C   0  0  0  0  0  0  0  0  0  0  0  0
    0.6665   -1.8597    0.0000 C   0  0  0  0  0  0  0  0  0  0  0  0
   -3.6091    2.2483    0.0000 F   0  0  0  0  0  0  0  0  0  0  0  0
   -0.7484    3.0787    0.0000 O   0  0  0  0  0  0  0  0  0  0  0  0
    0.6848    2.2447    0.0000 C   0  0  0  0  0  0  0  0  0  0  0  0
    1.3991    1.8290    0.0000 N   0  0  0  0  0  0  0  0  0  0  0  0
    0.6877    3.0713    0.0000 O   0  0  0  0  0  0  0  0  0  0  0  0
    2.1164    2.2398    0.0000 C   0  0  0  0  0  0  0  0  0  0  0  0
    2.8308    1.8241    0.0000 C   0  0  0  0  0  0  0  0  0  0  0  0
    4.2453    0.9734    0.0000 C   0  0  0  0  0  0  0  0  0  0  0  0
  1 11  1  0  0  0  0
 20 23  1  0  0  0  0
 27 21  1  0  0  0  0
 21 22  2  0  0  0  0
 22 23  1  0  0  0  0
 24 25  2  0  0  0  0
 11  8  1  0  0  0  0
 12 13  1  0  0  0  0
  5  6  1  0  0  0  0
  1  2  1  0  0  0  0
 24 27  1  0  0  0  0
 25 26  1  0  0  0  0
 26 29  1  0  0  0  0
 28 27  1  0  0  0  0
  6  7  2  0  0  0  0
  7  2  1  0  0  0  0
 28 29  2  0  0  0  0
  8  9  1  0  0  0  0
 29 30  1  0  0  0  0
 30 33  2  0  0  0  0
 13 14  1  0  0  0  0
 32 31  2  0  0  0  0
 31 28  1  0  0  0  0
 14 15  1  0  0  0  0
 15 16  1  0  0  0  0
 32 33  1  0  0  0  0
 16 12  1  0  0  0  0
 33 34  1  0  0  0  0
  3  4  1  0  0  0  0
 34 35  2  0  0  0  0
 35 36  1  0  0  0  0
 17 18  2  0  0  0  0
 36 37  2  0  0  0  0
 37 32  1  0  0  0  0
 18 25  1  0  0  0  0
 17 38  1  0  0  0  0
  4  5  2  0  0  0  0
 23 39  2  0  0  0  0
 20 19  2  0  0  0  0
 22 40  1  0  0  0  0
 19 17  1  0  0  0  0
 40 41  1  0  0  0  0
 20 24  1  0  0  0  0
 40 42  2  0  0  0  0
  2  3  2  0  0  0  0
 41 43  1  0  0  0  0
  9 10  1  0  0  0  0
 43 44  1  0  0  0  0
 15 44  1  6  0  0  0
 18  8  1  0  0  0  0
 10  1  1  0  0  0  0
 16 45  1  0  0  0  0
M  END
> <DATABASE_ID>
DB06638

> <DATABASE_NAME>
drugbank

> <SMILES>
CN1CCC[C@H]1CCNC(=O)C1=CN2C3=C(OC4=C2C(=CC(F)=C4N2CCC(C2)C2=CN=CC=N2)C1=O)C=C1C=CC=CC1=C3

> <INCHI_IDENTIFIER>
InChI=1S/C35H33FN6O3/c1-40-13-4-7-24(40)8-10-39-35(44)26-20-42-29-15-21-5-2-3-6-22(21)16-30(29)45-34-31(42)25(33(26)43)17-27(36)32(34)41-14-9-23(19-41)28-18-37-11-12-38-28/h2-3,5-6,11-12,15-18,20,23-24H,4,7-10,13-14,19H2,1H3,(H,39,44)/t23?,24-/m0/s1

> <INCHI_KEY>
WOQIDNWTQOYDLF-CGAIIQECSA-N

> <FORMULA>
C35H33FN6O3

> <MOLECULAR_WEIGHT>
604.686

> <EXACT_MASS>
604.25981711

> <JCHEM_ACCEPTOR_COUNT>
7

> <JCHEM_ATOM_COUNT>
78

> <JCHEM_AVERAGE_NEUTRAL_MICROSPECIES_CHARGE>
0.9948362883789413

> <JCHEM_AVERAGE_POLARIZABILITY>
66.20010836956476

> <JCHEM_BIOAVAILABILITY>
1

> <JCHEM_DONOR_COUNT>
1

> <JCHEM_FORMAL_CHARGE>
0

> <JCHEM_GHOSE_FILTER>
0

> <JCHEM_IUPAC>
15-fluoro-N-{2-[(2S)-1-methylpyrrolidin-2-yl]ethyl}-18-oxo-14-[3-(pyrazin-2-yl)pyrrolidin-1-yl]-12-oxa-1-azapentacyclo[11.7.1.0^{2,11}.0^{4,9}.0^{17,21}]henicosa-2(11),3,5,7,9,13(21),14,16,19-nonaene-19-carboxamide

> <JCHEM_LOGP>
3.4832292083333343

> <JCHEM_MDDR_LIKE_RULE>
1

> <JCHEM_NEUTRAL_CHARGE>
1

> <JCHEM_NUMBER_OF_RINGS>
8

> <JCHEM_PHYSIOLOGICAL_CHARGE>
1

> <JCHEM_PKA_STRONGEST_ACIDIC>
14.82357324377756

> <JCHEM_PKA_STRONGEST_BASIC>
9.284112777964204

> <JCHEM_POLAR_SURFACE_AREA>
90.9

> <JCHEM_REFRACTIVITY>
169.69359999999995

> <JCHEM_ROTATABLE_BOND_COUNT>
6

> <JCHEM_RULE_OF_FIVE>
0

> <JCHEM_TRADITIONAL_IUPAC>
(2S)-2-({4-[(2E)-N-({2-amino-4-oxo-1H-pyrido[3,2-d]pyrimidin-6-yl}methyl)-3-{5-carbamoyl-3-[(2R,3R,4S,5R)-3,4-dihydroxy-5-[(phosphonooxy)methyl]oxolan-2-yl]imidazol-4-yl}prop-2-enamido]phenyl}formamido)pentanedioic acid

> <JCHEM_VEBER_RULE>
0

> <DRUGBANK_ID>
DB06638

> <DRUG_GROUPS>
investigational

> <GENERIC_NAME>
Quarfloxin

> <SYNONYMS>
Itarnafloxin; Itarnafloxina; Itarnafloxine; Itarnafloxinum; Quarfloxin

$$$$
