
  Mrv1902 04071905102D          

 61 61  0  0  0  0            999 V2000
    1.7862    0.7396    0.0000 C   0  0  0  0  0  0  0  0  0  0  0  0
    1.0717    1.1521    0.0000 C   0  0  0  0  0  0  0  0  0  0  0  0
    2.5006    1.1521    0.0000 C   0  0  2  0  0  0  0  0  0  0  0  0
    0.3572    0.7396    0.0000 C   0  0  0  0  0  0  0  0  0  0  0  0
    3.2151    0.7396    0.0000 C   0  0  2  0  0  0  0  0  0  0  0  0
   -0.3572    1.1521    0.0000 C   0  0  0  0  0  0  0  0  0  0  0  0
    3.9296    1.1521    0.0000 C   0  0  0  0  0  0  0  0  0  0  0  0
   -1.0716    0.7396    0.0000 C   0  0  0  0  0  0  0  0  0  0  0  0
   -1.7861    1.1521    0.0000 C   0  0  0  0  0  0  0  0  0  0  0  0
   -2.5006    0.7396    0.0000 C   0  0  0  0  0  0  0  0  0  0  0  0
   -3.2150    1.1521    0.0000 C   0  0  0  0  0  0  0  0  0  0  0  0
   -3.9295    0.7396    0.0000 C   0  0  0  0  0  0  0  0  0  0  0  0
   -4.6440    1.1521    0.0000 C   0  0  0  0  0  0  0  0  0  0  0  0
   -5.3585    0.7396    0.0000 C   0  0  0  0  0  0  0  0  0  0  0  0
   -6.0729    1.1521    0.0000 C   0  0  0  0  0  0  0  0  0  0  0  0
   -6.7874    0.7396    0.0000 C   0  0  0  0  0  0  0  0  0  0  0  0
   -7.5019    1.1521    0.0000 C   0  0  0  0  0  0  0  0  0  0  0  0
   -8.2163    0.7396    0.0000 C   0  0  0  0  0  0  0  0  0  0  0  0
    2.5006    1.9772    0.0000 O   0  0  0  0  0  0  0  0  0  0  0  0
    3.2152   -0.0853    0.0000 N   0  0  0  0  0  0  0  0  0  0  0  0
    1.7863   -0.0856    0.0000 C   0  0  0  0  0  0  0  0  0  0  0  0
    2.5008   -0.4980    0.0000 C   0  0  0  0  0  0  0  0  0  0  0  0
    2.5010   -1.3230    0.0000 O   0  0  0  0  0  0  0  0  0  0  0  0
    6.0729    2.3896    0.0000 C   0  0  2  0  0  0  0  0  0  0  0  0
    5.3585    1.9772    0.0000 C   0  0  2  0  0  0  0  0  0  0  0  0
    5.3585    1.1521    0.0000 C   0  0  1  0  0  0  0  0  0  0  0  0
    6.0729    0.7396    0.0000 O   0  0  0  0  0  0  0  0  0  0  0  0
    6.7874    1.1521    0.0000 C   0  0  1  0  0  0  0  0  0  0  0  0
    6.7874    1.9772    0.0000 C   0  0  2  0  0  0  0  0  0  0  0  0
    7.5019    0.7396    0.0000 C   0  0  0  0  0  0  0  0  0  0  0  0
    7.5019    2.3896    0.0000 O   0  0  0  0  0  0  0  0  0  0  0  0
    6.0729    3.2146    0.0000 O   0  0  0  0  0  0  0  0  0  0  0  0
    4.6440    2.3896    0.0000 O   0  0  0  0  0  0  0  0  0  0  0  0
    4.6440    0.7396    0.0000 O   0  0  0  0  0  0  0  0  0  0  0  0
    8.2163    1.1521    0.0000 O   0  0  0  0  0  0  0  0  0  0  0  0
    6.7874    3.6271    0.0000 S   0  0  0  0  0  0  0  0  0  0  0  0
    7.5018    3.2146    0.0000 O   0  0  0  0  0  0  0  0  0  0  0  0
    7.3707    4.2105    0.0000 O   0  0  0  0  0  0  0  0  0  0  0  0
    6.2040    4.2105    0.0000 O   0  0  0  0  0  0  0  0  0  0  0  0
    1.0718   -0.4981    0.0000 C   0  0  0  0  0  0  0  0  0  0  0  0
    0.3574   -0.0856    0.0000 C   0  0  0  0  0  0  0  0  0  0  0  0
   -0.3570   -0.4981    0.0000 C   0  0  0  0  0  0  0  0  0  0  0  0
   -1.0715   -0.0856    0.0000 C   0  0  0  0  0  0  0  0  0  0  0  0
   -1.7860   -0.4981    0.0000 C   0  0  0  0  0  0  0  0  0  0  0  0
   -2.5004   -0.0856    0.0000 C   0  0  0  0  0  0  0  0  0  0  0  0
   -3.2149   -0.4981    0.0000 C   0  0  0  0  0  0  0  0  0  0  0  0
   -3.9294   -0.0856    0.0000 C   0  0  0  0  0  0  0  0  0  0  0  0
   -4.6438   -0.4981    0.0000 C   0  0  0  0  0  0  0  0  0  0  0  0
   -5.3583   -0.0856    0.0000 C   0  0  0  0  0  0  0  0  0  0  0  0
   -6.0728   -0.4981    0.0000 C   0  0  0  0  0  0  0  0  0  0  0  0
   -6.0728   -1.3231    0.0000 C   0  0  0  0  0  0  0  0  0  0  0  0
   -5.3583   -1.7356    0.0000 C   0  0  0  0  0  0  0  0  0  0  0  0
   -5.3583   -2.5606    0.0000 C   0  0  0  0  0  0  0  0  0  0  0  0
   -6.0728   -2.9731    0.0000 C   0  0  0  0  0  0  0  0  0  0  0  0
   -6.0728   -3.7981    0.0000 C   0  0  0  0  0  0  0  0  0  0  0  0
   -5.3583   -4.2106    0.0000 C   0  0  0  0  0  0  0  0  0  0  0  0
   -4.6438   -3.7981    0.0000 C   0  0  0  0  0  0  0  0  0  0  0  0
   -3.9294   -4.2106    0.0000 C   0  0  0  0  0  0  0  0  0  0  0  0
   -3.2149   -3.7981    0.0000 C   0  0  0  0  0  0  0  0  0  0  0  0
   -2.5004   -4.2106    0.0000 C   0  0  0  0  0  0  0  0  0  0  0  0
   -1.7860   -3.7981    0.0000 C   0  0  0  0  0  0  0  0  0  0  0  0
  1  2  2  0  0  0  0
  1  3  1  0  0  0  0
  3 19  1  1  0  0  0
  2  4  1  0  0  0  0
  3  5  1  0  0  0  0
  5 20  1  6  0  0  0
  4  6  1  0  0  0  0
  5  7  1  0  0  0  0
  6  8  1  0  0  0  0
  7 34  1  0  0  0  0
  8  9  1  0  0  0  0
  9 10  1  0  0  0  0
 10 11  1  0  0  0  0
 11 12  1  0  0  0  0
 12 13  1  0  0  0  0
 13 14  1  0  0  0  0
 14 15  1  0  0  0  0
 15 16  1  0  0  0  0
 16 17  1  0  0  0  0
 17 18  1  0  0  0  0
 20 22  1  0  0  0  0
 22 21  1  0  0  0  0
 22 23  2  0  0  0  0
 24 25  1  0  0  0  0
 25 26  1  0  0  0  0
 26 27  1  0  0  0  0
 27 28  1  0  0  0  0
 28 29  1  0  0  0  0
 24 29  1  0  0  0  0
 28 30  1  1  0  0  0
 29 31  1  1  0  0  0
 24 32  1  1  0  0  0
 25 33  1  6  0  0  0
 26 34  1  1  0  0  0
 30 35  1  0  0  0  0
 32 36  1  0  0  0  0
 36 37  1  0  0  0  0
 36 38  2  0  0  0  0
 36 39  2  0  0  0  0
 21 40  1  0  0  0  0
 40 41  1  0  0  0  0
 41 42  1  0  0  0  0
 42 43  1  0  0  0  0
 43 44  1  0  0  0  0
 44 45  1  0  0  0  0
 45 46  1  0  0  0  0
 46 47  1  0  0  0  0
 47 48  1  0  0  0  0
 48 49  1  0  0  0  0
 49 50  1  0  0  0  0
 50 51  1  0  0  0  0
 51 52  1  0  0  0  0
 52 53  2  0  0  0  0
 53 54  1  0  0  0  0
 54 55  1  0  0  0  0
 55 56  1  0  0  0  0
 56 57  1  0  0  0  0
 57 58  1  0  0  0  0
 58 59  1  0  0  0  0
 59 60  1  0  0  0  0
 60 61  1  0  0  0  0
M  END
> <DATABASE_ID>
DB04661

> <DATABASE_NAME>
drugbank

> <SMILES>
CCCCCCCCCCCCC\C=C\[C@@H](O)[C@H](CO[C@@H]1O[C@H](CO)[C@H](O)[C@H](OS(O)(=O)=O)[C@H]1O)NC(=O)CCCCCCCCCCCCC\C=C/CCCCCCCC

> <INCHI_IDENTIFIER>
InChI=1S/C48H91NO11S/c1-3-5-7-9-11-13-15-17-18-19-20-21-22-23-24-26-28-30-32-34-36-38-44(52)49-41(42(51)37-35-33-31-29-27-25-16-14-12-10-8-6-4-2)40-58-48-46(54)47(60-61(55,56)57)45(53)43(39-50)59-48/h17-18,35,37,41-43,45-48,50-51,53-54H,3-16,19-34,36,38-40H2,1-2H3,(H,49,52)(H,55,56,57)/b18-17-,37-35+/t41-,42+,43+,45-,46+,47-,48+/m0/s1

> <INCHI_KEY>
ZZQWQNAZXFNSEP-JCOQVFCVSA-N

> <FORMULA>
C48H91NO11S

> <MOLECULAR_WEIGHT>
890.301

> <EXACT_MASS>
889.631283449

> <JCHEM_ACCEPTOR_COUNT>
10

> <JCHEM_ATOM_COUNT>
152

> <JCHEM_AVERAGE_POLARIZABILITY>
109.48594936475018

> <JCHEM_BIOAVAILABILITY>
0

> <JCHEM_DONOR_COUNT>
6

> <JCHEM_FORMAL_CHARGE>
0

> <JCHEM_GHOSE_FILTER>
0

> <JCHEM_IUPAC>
[(2R,3R,4S,5S,6R)-3,5-dihydroxy-2-{[(2S,3R,4E)-3-hydroxy-2-[(15Z)-tetracos-15-enamido]octadec-4-en-1-yl]oxy}-6-(hydroxymethyl)oxan-4-yl]oxidanesulfonic acid

> <ALOGPS_LOGP>
5.95

> <JCHEM_LOGP>
10.564914917610293

> <ALOGPS_LOGS>
-6.52

> <JCHEM_MDDR_LIKE_RULE>
0

> <JCHEM_NUMBER_OF_RINGS>
1

> <JCHEM_PHYSIOLOGICAL_CHARGE>
-1

> <JCHEM_PKA>
12.18939610615506

> <JCHEM_PKA_STRONGEST_ACIDIC>
-1.9115901925718546

> <JCHEM_PKA_STRONGEST_BASIC>
-0.9850048448833624

> <JCHEM_POLAR_SURFACE_AREA>
192.07999999999998

> <JCHEM_REFRACTIVITY>
246.1054

> <JCHEM_ROTATABLE_BOND_COUNT>
42

> <JCHEM_RULE_OF_FIVE>
0

> <ALOGPS_SOLUBILITY>
2.72e-04 g/l

> <JCHEM_TRADITIONAL_IUPAC>
cis-tetracosenoyl sulfatide

> <JCHEM_VEBER_RULE>
0

> <DRUGBANK_ID>
DB04661

> <DRUG_GROUPS>
experimental

> <GENERIC_NAME>
cis-tetracosenoyl sulfatide

> <SYNONYMS>
1-(3-O-sulfo-beta-D-galactosyl)-N-[(15Z)-tetracos-15-enoyl]sphingosine; C24:1 Sulfatide

$$$$
