
  Mrv1909 05201915172D          

 36 41  0  0  1  0            999 V2000
   -3.7970    6.5895    0.0000 C   0  0  0  0  0  0  0  0  0  0  0  0
   -4.3490    5.9764    0.0000 C   0  0  1  0  0  0  0  0  0  0  0  0
   -4.0941    5.1918    0.0000 C   0  0  0  0  0  0  0  0  0  0  0  0
   -4.6461    4.5787    0.0000 N   0  0  0  0  0  0  0  0  0  0  0  0
   -4.3912    3.7941    0.0000 C   0  0  0  0  0  0  0  0  0  0  0  0
   -3.5842    3.6226    0.0000 C   0  0  0  0  0  0  0  0  0  0  0  0
   -3.0321    4.2357    0.0000 C   0  0  0  0  0  0  0  0  0  0  0  0
   -2.2252    4.0641    0.0000 C   0  0  0  0  0  0  0  0  0  0  0  0
   -1.9702    3.2795    0.0000 C   0  0  0  0  0  0  0  0  0  0  0  0
   -2.5223    2.6664    0.0000 C   0  0  0  0  0  0  0  0  0  0  0  0
   -2.2673    1.8818    0.0000 N   0  0  0  0  0  0  0  0  0  0  0  0
   -1.4604    1.7103    0.0000 C   0  0  0  0  0  0  0  0  0  0  0  0
   -0.9083    2.3234    0.0000 N   0  0  0  0  0  0  0  0  0  0  0  0
   -0.1014    2.1518    0.0000 C   0  0  0  0  0  0  0  0  0  0  0  0
    0.1536    1.3672    0.0000 C   0  0  0  0  0  0  0  0  0  0  0  0
    0.9606    1.1957    0.0000 Cl  0  0  0  0  0  0  0  0  0  0  0  0
   -0.3984    0.7541    0.0000 C   0  0  0  0  0  0  0  0  0  0  0  0
   -1.2054    0.9256    0.0000 N   0  0  0  0  0  0  0  0  0  0  0  0
   -0.1435   -0.0305    0.0000 C   0  0  0  0  0  0  0  0  0  0  0  0
   -0.6284   -0.6979    0.0000 C   0  0  0  0  0  0  0  0  0  0  0  0
   -0.1435   -1.3654    0.0000 N   0  0  0  0  0  0  0  0  0  0  0  0
    0.6411   -1.1104    0.0000 C   0  0  0  0  0  0  0  0  0  0  0  0
    0.6411   -0.2854    0.0000 C   0  0  0  0  0  0  0  0  0  0  0  0
    1.3556    0.1271    0.0000 C   0  0  0  0  0  0  0  0  0  0  0  0
    2.0701   -0.2854    0.0000 C   0  0  0  0  0  0  0  0  0  0  0  0
    2.0701   -1.1104    0.0000 C   0  0  0  0  0  0  0  0  0  0  0  0
    2.7845   -1.5229    0.0000 C   0  0  0  0  0  0  0  0  0  0  0  0
    1.3556   -1.5229    0.0000 C   0  0  0  0  0  0  0  0  0  0  0  0
   -3.3292    2.8379    0.0000 C   0  0  0  0  0  0  0  0  0  0  0  0
   -1.6731    4.6772    0.0000 C   0  0  0  0  0  0  0  0  0  0  0  0
   -1.5016    5.4842    0.0000 C   0  0  0  0  0  0  0  0  0  0  0  0
   -0.8885    4.9322    0.0000 C   0  0  0  0  0  0  0  0  0  0  0  0
   -5.4531    4.7502    0.0000 C   0  0  0  0  0  0  0  0  0  0  0  0
   -5.7080    5.5349    0.0000 C   0  0  1  0  0  0  0  0  0  0  0  0
   -6.5150    5.7064    0.0000 C   0  0  0  0  0  0  0  0  0  0  0  0
   -5.1560    6.1480    0.0000 N   0  0  0  0  0  0  0  0  0  0  0  0
  2  1  1  1  0  0  0
  2  3  1  0  0  0  0
  3  4  1  0  0  0  0
  4  5  1  0  0  0  0
  5  6  1  0  0  0  0
  6  7  2  0  0  0  0
  7  8  1  0  0  0  0
  8  9  2  0  0  0  0
  9 10  1  0  0  0  0
 10 11  1  0  0  0  0
 11 12  1  0  0  0  0
 12 13  2  0  0  0  0
 13 14  1  0  0  0  0
 14 15  2  0  0  0  0
 15 16  1  0  0  0  0
 15 17  1  0  0  0  0
 17 18  2  0  0  0  0
 12 18  1  0  0  0  0
 17 19  1  0  0  0  0
 19 20  2  0  0  0  0
 20 21  1  0  0  0  0
 21 22  1  0  0  0  0
 22 23  2  0  0  0  0
 19 23  1  0  0  0  0
 23 24  1  0  0  0  0
 24 25  2  0  0  0  0
 25 26  1  0  0  0  0
 26 27  1  0  0  0  0
 26 28  2  0  0  0  0
 22 28  1  0  0  0  0
 10 29  2  0  0  0  0
  6 29  1  0  0  0  0
  8 30  1  0  0  0  0
 30 31  1  0  0  0  0
 31 32  1  0  0  0  0
 30 32  1  0  0  0  0
  4 33  1  0  0  0  0
 34 33  1  0  0  0  0
 34 35  1  1  0  0  0
 34 36  1  0  0  0  0
  2 36  1  0  0  0  0
M  END
> <DATABASE_ID>
DB15343

> <DATABASE_NAME>
drugbank

> <SMILES>
C[C@H]1CN(CC2=CC(=CC(NC3=NC=C(Cl)C(=N3)C3=CNC4=C3C=CC(C)=C4)=C2)C2CC2)C[C@@H](C)N1

> <INCHI_IDENTIFIER>
InChI=1S/C29H33ClN6/c1-17-4-7-24-25(12-31-27(24)8-17)28-26(30)13-32-29(35-28)34-23-10-20(9-22(11-23)21-5-6-21)16-36-14-18(2)33-19(3)15-36/h4,7-13,18-19,21,31,33H,5-6,14-16H2,1-3H3,(H,32,34,35)/t18-,19+

> <INCHI_KEY>
FZLSDZZNPXXBBB-KDURUIRLSA-N

> <FORMULA>
C29H33ClN6

> <MOLECULAR_WEIGHT>
501.08

> <EXACT_MASS>
500.2455228

> <JCHEM_ACCEPTOR_COUNT>
5

> <JCHEM_ATOM_COUNT>
69

> <JCHEM_AVERAGE_POLARIZABILITY>
56.90917592179071

> <JCHEM_BIOAVAILABILITY>
0

> <JCHEM_DONOR_COUNT>
3

> <JCHEM_FORMAL_CHARGE>
0

> <JCHEM_GHOSE_FILTER>
0

> <JCHEM_IUPAC>
5-chloro-N-(3-cyclopropyl-5-{[(3R,5S)-3,5-dimethylpiperazin-1-yl]methyl}phenyl)-4-(6-methyl-1H-indol-3-yl)pyrimidin-2-amine

> <ALOGPS_LOGP>
5.51

> <JCHEM_LOGP>
6.437652705666667

> <ALOGPS_LOGS>
-5.43

> <JCHEM_MDDR_LIKE_RULE>
1

> <JCHEM_NUMBER_OF_RINGS>
6

> <JCHEM_PHYSIOLOGICAL_CHARGE>
1

> <JCHEM_PKA>
14.652092097128126

> <JCHEM_PKA_STRONGEST_ACIDIC>
13.217153240132536

> <JCHEM_PKA_STRONGEST_BASIC>
9.42293840556926

> <JCHEM_POLAR_SURFACE_AREA>
68.86999999999999

> <JCHEM_REFRACTIVITY>
147.37550000000002

> <JCHEM_ROTATABLE_BOND_COUNT>
6

> <JCHEM_RULE_OF_FIVE>
0

> <ALOGPS_SOLUBILITY>
1.88e-03 g/l

> <JCHEM_TRADITIONAL_IUPAC>
(2R)-14-fluoro-2-methyl-6,9,10,19-tetraazapentacyclo[14.2.1.0^{2,6}.0^{8,18}.0^{12,17}]nonadeca-1(18),8,12(17),13,15-pentaen-11-one

> <JCHEM_VEBER_RULE>
0

> <DRUGBANK_ID>
DB15343

> <DRUG_GROUPS>
investigational

> <GENERIC_NAME>
Tuspetinib

> <SYNONYMS>
2-Pyrimidinamine, 5-chloro-N-(3-cyclopropyl-5-(((3R,5S)-3,5-dimethyl-1-piperazinyl)methyl)phenyl)-4-(6-methyl-1H-indol-3-yl)-, rel-; 5-Chloro-N-(3-cyclopropyl-5-(((3R,5S)-3,5-dimethylpiperazine-1-yl) methyl) phenyl)-4-(6-methyl-1hindol-3-yl) pyrimidin-2-amine

> <SALTS>
Tuspetinib monohydrate

$$$$
