
  Mrv1652310211601332D          

 40 41  0  0  1  0            999 V2000
    5.7158  -11.5500    0.0000 C   0  0  0  0  0  0  0  0  0  0  0  0
    6.4302  -11.1375    0.0000 S   0  0  0  0  0  0  0  0  0  0  0  0
    7.1447  -11.5500    0.0000 C   0  0  0  0  0  0  0  0  0  0  0  0
    7.8592  -11.1375    0.0000 C   0  0  0  0  0  0  0  0  0  0  0  0
    8.5737  -11.5500    0.0000 C   0  0  1  0  0  0  0  0  0  0  0  0
    8.5737  -12.3750    0.0000 C   0  0  0  0  0  0  0  0  0  0  0  0
    7.8592  -12.7875    0.0000 O   0  0  0  0  0  0  0  0  0  0  0  0
    9.2881  -12.7875    0.0000 O   0  0  0  0  0  0  0  0  0  0  0  0
    9.2881  -11.1375    0.0000 N   0  0  0  0  0  0  0  0  0  0  0  0
   10.0026  -11.5500    0.0000 C   0  0  0  0  0  0  0  0  0  0  0  0
   10.0026  -12.3750    0.0000 O   0  0  0  0  0  0  0  0  0  0  0  0
   10.7171  -11.1375    0.0000 C   0  0  2  0  0  0  0  0  0  0  0  0
   10.7171  -10.3125    0.0000 C   0  0  0  0  0  0  0  0  0  0  0  0
   10.0026   -9.9000    0.0000 C   0  0  0  0  0  0  0  0  0  0  0  0
    9.2881  -10.3125    0.0000 C   0  0  0  0  0  0  0  0  0  0  0  0
    8.5737   -9.9000    0.0000 C   0  0  0  0  0  0  0  0  0  0  0  0
    8.5737   -9.0750    0.0000 C   0  0  0  0  0  0  0  0  0  0  0  0
    9.2881   -8.6625    0.0000 C   0  0  0  0  0  0  0  0  0  0  0  0
   10.0026   -9.0750    0.0000 C   0  0  0  0  0  0  0  0  0  0  0  0
   11.4315  -11.5500    0.0000 N   0  0  0  0  0  0  0  0  0  0  0  0
   12.1460  -11.1375    0.0000 C   0  0  0  0  0  0  0  0  0  0  0  0
   12.1460  -10.3125    0.0000 O   0  0  0  0  0  0  0  0  0  0  0  0
   12.8605  -11.5500    0.0000 C   0  0  0  0  0  0  0  0  0  0  0  0
   13.5749  -11.1375    0.0000 N   0  0  0  0  0  0  0  0  0  0  0  0
   14.2894  -11.5500    0.0000 C   0  0  0  0  0  0  0  0  0  0  0  0
   14.2894  -12.3750    0.0000 O   0  0  0  0  0  0  0  0  0  0  0  0
   15.0039  -11.1375    0.0000 C   0  0  0  0  0  0  0  0  0  0  0  0
   15.7184  -11.5500    0.0000 N   0  0  0  0  0  0  0  0  0  0  0  0
   16.4328  -11.1375    0.0000 C   0  0  0  0  0  0  0  0  0  0  0  0
   16.4328  -10.3125    0.0000 O   0  0  0  0  0  0  0  0  0  0  0  0
   17.1473  -11.5500    0.0000 C   0  0  2  0  0  0  0  0  0  0  0  0
   17.8618  -11.1375    0.0000 C   0  0  0  0  0  0  0  0  0  0  0  0
   18.5762  -11.5500    0.0000 C   0  0  0  0  0  0  0  0  0  0  0  0
   19.2907  -11.1375    0.0000 C   0  0  0  0  0  0  0  0  0  0  0  0
   20.0052  -11.5500    0.0000 C   0  0  0  0  0  0  0  0  0  0  0  0
   20.0052  -12.3750    0.0000 C   0  0  0  0  0  0  0  0  0  0  0  0
   19.2907  -12.7875    0.0000 C   0  0  0  0  0  0  0  0  0  0  0  0
   18.5762  -12.3750    0.0000 C   0  0  0  0  0  0  0  0  0  0  0  0
   20.7197  -12.7875    0.0000 O   0  0  0  0  0  0  0  0  0  0  0  0
   17.1473  -12.3750    0.0000 N   0  0  0  0  0  0  0  0  0  0  0  0
  1  2  1  0  0  0  0
  2  3  1  0  0  0  0
  3  4  1  0  0  0  0
  4  5  1  0  0  0  0
  5  6  1  0  0  0  0
  6  7  2  0  0  0  0
  6  8  1  0  0  0  0
  5  9  1  6  0  0  0
  9 10  1  0  0  0  0
 10 11  2  0  0  0  0
 10 12  1  0  0  0  0
 12 13  1  0  0  0  0
 13 14  1  0  0  0  0
 14 15  2  0  0  0  0
 15 16  1  0  0  0  0
 16 17  2  0  0  0  0
 17 18  1  0  0  0  0
 18 19  2  0  0  0  0
 14 19  1  0  0  0  0
 12 20  1  6  0  0  0
 20 21  1  0  0  0  0
 21 22  2  0  0  0  0
 21 23  1  0  0  0  0
 23 24  1  0  0  0  0
 24 25  1  0  0  0  0
 25 26  2  0  0  0  0
 25 27  1  0  0  0  0
 27 28  1  0  0  0  0
 28 29  1  0  0  0  0
 29 30  2  0  0  0  0
 29 31  1  0  0  0  0
 31 32  1  0  0  0  0
 32 33  1  0  0  0  0
 33 34  2  0  0  0  0
 34 35  1  0  0  0  0
 35 36  2  0  0  0  0
 36 37  1  0  0  0  0
 37 38  2  0  0  0  0
 33 38  1  0  0  0  0
 36 39  1  0  0  0  0
 31 40  1  6  0  0  0
M  END
> <DATABASE_ID>
DB12668

> <DATABASE_NAME>
drugbank

> <SMILES>
CSCC[C@H](NC(=O)[C@H](CC1=CC=CC=C1)NC(=O)CNC(=O)CNC(=O)[C@@H](N)CC1=CC=C(O)C=C1)C(O)=O

> <INCHI_IDENTIFIER>
InChI=1S/C27H35N5O7S/c1-40-12-11-21(27(38)39)32-26(37)22(14-17-5-3-2-4-6-17)31-24(35)16-29-23(34)15-30-25(36)20(28)13-18-7-9-19(33)10-8-18/h2-10,20-22,33H,11-16,28H2,1H3,(H,29,34)(H,30,36)(H,31,35)(H,32,37)(H,38,39)/t20-,21-,22-/m0/s1

> <INCHI_KEY>
YFGBQHOOROIVKG-FKBYEOEOSA-N

> <FORMULA>
C27H35N5O7S

> <MOLECULAR_WEIGHT>
573.67

> <EXACT_MASS>
573.225719661

> <JCHEM_ACCEPTOR_COUNT>
8

> <JCHEM_ATOM_COUNT>
75

> <JCHEM_AVERAGE_POLARIZABILITY>
58.845390379212716

> <JCHEM_BIOAVAILABILITY>
0

> <JCHEM_DONOR_COUNT>
7

> <JCHEM_FORMAL_CHARGE>
0

> <JCHEM_GHOSE_FILTER>
0

> <JCHEM_IUPAC>
(2S)-2-[(2S)-2-(2-{2-[(2S)-2-amino-3-(4-hydroxyphenyl)propanamido]acetamido}acetamido)-3-phenylpropanamido]-4-(methylsulfanyl)butanoic acid

> <ALOGPS_LOGP>
0.28

> <JCHEM_LOGP>
-2.4675270384926917

> <ALOGPS_LOGS>
-4.47

> <JCHEM_MDDR_LIKE_RULE>
0

> <JCHEM_NUMBER_OF_RINGS>
2

> <JCHEM_PHYSIOLOGICAL_CHARGE>
0

> <JCHEM_PKA>
9.509887798812025

> <JCHEM_PKA_STRONGEST_ACIDIC>
3.612877768798162

> <JCHEM_PKA_STRONGEST_BASIC>
7.72729762278589

> <JCHEM_POLAR_SURFACE_AREA>
199.95

> <JCHEM_REFRACTIVITY>
149.00669999999997

> <JCHEM_ROTATABLE_BOND_COUNT>
16

> <JCHEM_RULE_OF_FIVE>
0

> <ALOGPS_SOLUBILITY>
1.96e-02 g/l

> <JCHEM_TRADITIONAL_IUPAC>
Met-enkephalin

> <JCHEM_VEBER_RULE>
0

> <DRUGBANK_ID>
DB12668

> <DRUG_GROUPS>
investigational

> <GENERIC_NAME>
Metenkefalin

> <SYNONYMS>
[met5]-enkephalin; Metenkefalin; Methionine Enkephalin

> <SALTS>
Metenkefalin acetate

$$$$
