
  Mrv1572004031616592D          

  4  0  0  0  0  0            999 V2000
   18.1330  -17.0817    0.0000 Cl  0  5  0  0  0  0  0  0  0  0  0  0
   17.5541  -18.1990    0.0000 Cl  0  5  0  0  0  0  0  0  0  0  0  0
   18.6436  -18.2070    0.0000 Cl  0  5  0  0  0  0  0  0  0  0  0  0
   17.9800  -17.7117    0.0000 Cr  0  1  0  0  0  0  0  0  0  0  0  0
M  CHG  4   1  -1   2  -1   3  -1   4   3
M  END
> <DATABASE_ID>
DB09129

> <DATABASE_NAME>
drugbank

> <SMILES>
[Cl-].[Cl-].[Cl-].[Cr+3]

> <INCHI_IDENTIFIER>
InChI=1S/3ClH.Cr/h3*1H;/q;;;+3/p-3

> <INCHI_KEY>
QSWDMMVNRMROPK-UHFFFAOYSA-K

> <FORMULA>
Cl3Cr

> <MOLECULAR_WEIGHT>
158.35

> <EXACT_MASS>
156.847064

> <JCHEM_ACCEPTOR_COUNT>
0

> <JCHEM_ATOM_COUNT>
4

> <JCHEM_AVERAGE_POLARIZABILITY>
2.3881688999999993

> <JCHEM_BIOAVAILABILITY>
1

> <JCHEM_DONOR_COUNT>
0

> <JCHEM_FORMAL_CHARGE>
0

> <JCHEM_GHOSE_FILTER>
0

> <JCHEM_IUPAC>
chromium(3+) ion trichloride

> <ALOGPS_LOGP>
2.09

> <JCHEM_LOGP>
0.6123387216666667

> <ALOGPS_LOGS>
-1.43

> <JCHEM_MDDR_LIKE_RULE>
0

> <JCHEM_NUMBER_OF_RINGS>
0

> <JCHEM_PHYSIOLOGICAL_CHARGE>
-1

> <JCHEM_PKA_STRONGEST_ACIDIC>
-7.000000000000001

> <JCHEM_POLAR_SURFACE_AREA>
0.0

> <JCHEM_REFRACTIVITY>
5.6156

> <JCHEM_ROTATABLE_BOND_COUNT>
0

> <JCHEM_RULE_OF_FIVE>
1

> <ALOGPS_SOLUBILITY>
5.83e+00 g/l

> <JCHEM_TRADITIONAL_IUPAC>
chromium(3+) ion trichloride

> <JCHEM_VEBER_RULE>
1

> <DRUGBANK_ID>
DB09129

> <DRUG_GROUPS>
approved

> <GENERIC_NAME>
Chromic chloride

> <SYNONYMS>
anhydrous chromium(III) chloride; Chromium chloride; Chromium trichloride; chromium(3+) trichloride; Chromium(III) chloride; Puratronic chromium chloride; Trichlorochromium

> <PRODUCTS>
Actichrom; Addamel N; Addnutriv; Alkadrenergy Tablets; Children's Chewable Tab; Chromatone - Tab 100mcg; Chromemate; Chromic Chloride; Chromium; Chromium Chromic Chloride; Chromium Gtf Tab 500mcg; Corvite Free; Formula Cw; Formula Cw-caplet; Formula L.L.; Fusion Activator Formula Tab; Great Day/am Formula Tab; Gtf Chromium; High Potency Multivitamins & Minerals Caplets; Image Caps; M T E 4 Concentrate Inj; M.T.E.-4; M.T.E.-4 Concentrated; M.T.E.-6 Concentrated; Materna; Materna - Tab; Materna-tab; Megavite Rx; Men's Multi Master Formula; Micro CR; Micro Plus 4 Concentrate; Micro Plus 4 Regular Strength; Micro Plus 5 Concentrate; Micro Plus 6 (concentrate); Micro Plus 6 (pediatric); Micro Plus 6 (regular); Micro+6 Concentrate; Multi-force for Women Tab; Multiminerals; Multiple Trace Metal Additive Solution; Multiple Vitamins and Minerals; Multitrace -4; Multitrace -4 Pediatric; Multitrace-4; Multitrace-4 Neonatal; Multitrace-5; Multivitamins and Minerals Tablets; Nl 99; Nutrilite Double X; One Tablet Daily Mens Formula; One-A-day Advance Men's; Onyx; Organic Minerals Tablet; P.E. 99 - Tab 100mcg; Palm Springs Multvit and Min Tab; Prenatal Supplement - Tab; Prenatal Vitamin and Mineral Supplement -tab; Prenatal Vitamin and Mineral Supplement Tab; Prenatal Vitamins and Minerals Tablets; Prenatal and Post Partum Supplement; Right Choice A.M. Multi Formula - Caplet; Right Choice P.M. Multi Formula - Caplet; S.S. Formula; Spectrum Performa Multivitamins and Minerals Tablets; Tlns Formula; Trace Elements 4; Trace Elements Injection USP; Trace Elements Solution Inj; Trace Elements for Injection - Liq IV; Women's Formula

> <SALTS>
Chromic chloride hexahydrate

$$$$
