
  Mrv1533004261501382D          

 19 20  0  0  0  0            999 V2000
    1.4289   -4.1250    0.0000 C   0  0  0  0  0  0  0  0  0  0  0  0
    2.1434   -3.7125    0.0000 C   0  0  0  0  0  0  0  0  0  0  0  0
    2.8579   -4.1250    0.0000 C   0  0  0  0  0  0  0  0  0  0  0  0
    3.5724   -3.7125    0.0000 C   0  0  0  0  0  0  0  0  0  0  0  0
    4.2868   -4.1250    0.0000 C   0  0  0  0  0  0  0  0  0  0  0  0
    5.0013   -3.7125    0.0000 C   0  0  0  0  0  0  0  0  0  0  0  0
    5.7158   -4.1250    0.0000 N   0  0  0  0  0  0  0  0  0  0  0  0
    6.4302   -3.7125    0.0000 C   0  0  0  0  0  0  0  0  0  0  0  0
    6.4302   -2.8875    0.0000 O   0  0  0  0  0  0  0  0  0  0  0  0
    7.1447   -4.1250    0.0000 N   0  0  0  0  0  0  0  0  0  0  0  0
    7.8592   -3.7125    0.0000 C   0  0  0  0  0  0  0  0  0  0  0  0
    7.1447   -4.9500    0.0000 C   0  0  0  0  0  0  0  0  0  0  0  0
    7.7578   -5.5020    0.0000 N   0  0  0  0  0  0  0  0  0  0  0  0
    7.4222   -6.2557    0.0000 C   0  0  0  0  0  0  0  0  0  0  0  0
    6.6018   -6.1695    0.0000 N   0  0  0  0  0  0  0  0  0  0  0  0
    6.0497   -6.7826    0.0000 C   0  0  0  0  0  0  0  0  0  0  0  0
    6.4302   -5.3625    0.0000 C   0  0  0  0  0  0  0  0  0  0  0  0
    5.7158   -4.9500    0.0000 C   0  0  0  0  0  0  0  0  0  0  0  0
    5.0013   -5.3625    0.0000 O   0  0  0  0  0  0  0  0  0  0  0  0
  1  2  1  0  0  0  0
  2  3  1  0  0  0  0
  3  4  1  0  0  0  0
  4  5  1  0  0  0  0
  5  6  1  0  0  0  0
  6  7  1  0  0  0  0
  7  8  1  0  0  0  0
  8  9  2  0  0  0  0
  8 10  1  0  0  0  0
 10 11  1  0  0  0  0
 10 12  1  0  0  0  0
 12 13  1  0  0  0  0
 13 14  2  0  0  0  0
 14 15  1  0  0  0  0
 15 16  1  0  0  0  0
 15 17  1  0  0  0  0
 12 17  2  0  0  0  0
 17 18  1  0  0  0  0
  7 18  1  0  0  0  0
 18 19  2  0  0  0  0
M  END
> <DATABASE_ID>
DB13634

> <DATABASE_NAME>
drugbank

> <SMILES>
CCCCCCN1C(=O)N(C)C2=C(N(C)C=N2)C1=O

> <INCHI_IDENTIFIER>
InChI=1S/C13H20N4O2/c1-4-5-6-7-8-17-12(18)10-11(14-9-15(10)2)16(3)13(17)19/h9H,4-8H2,1-3H3

> <INCHI_KEY>
MRWQRJMESRRJJB-UHFFFAOYSA-N

> <FORMULA>
C13H20N4O2

> <MOLECULAR_WEIGHT>
264.329

> <EXACT_MASS>
264.1586259

> <JCHEM_ACCEPTOR_COUNT>
3

> <JCHEM_ATOM_COUNT>
39

> <JCHEM_AVERAGE_POLARIZABILITY>
29.260078018297083

> <JCHEM_BIOAVAILABILITY>
1

> <JCHEM_DONOR_COUNT>
0

> <JCHEM_FORMAL_CHARGE>
0

> <JCHEM_GHOSE_FILTER>
1

> <JCHEM_IUPAC>
1-hexyl-3,7-dimethyl-2,3,6,7-tetrahydro-1H-purine-2,6-dione

> <ALOGPS_LOGP>
1.80

> <JCHEM_LOGP>
1.6673907529999994

> <ALOGPS_LOGS>
-1.91

> <JCHEM_MDDR_LIKE_RULE>
0

> <JCHEM_NUMBER_OF_RINGS>
2

> <JCHEM_PHYSIOLOGICAL_CHARGE>
0

> <JCHEM_PKA_STRONGEST_BASIC>
-0.9270916443158027

> <JCHEM_POLAR_SURFACE_AREA>
58.440000000000005

> <JCHEM_REFRACTIVITY>
72.90679999999999

> <JCHEM_ROTATABLE_BOND_COUNT>
5

> <JCHEM_RULE_OF_FIVE>
1

> <ALOGPS_SOLUBILITY>
3.23e+00 g/l

> <JCHEM_TRADITIONAL_IUPAC>
pentifylline

> <JCHEM_VEBER_RULE>
0

> <DRUGBANK_ID>
DB13634

> <DRUG_GROUPS>
experimental

> <GENERIC_NAME>
Pentifylline

> <SYNONYMS>
Pentifylline

$$$$
