
  Mrv1909 09132216452D          

  7  5  0  0  0  0            999 V2000
    0.4125    2.1434    0.0000 Na  0  3  0  0  0  0  0  0  0  0  0  0
    0.8250    1.4289    0.0000 O   0  5  0  0  0  0  0  0  0  0  0  0
    1.2375    0.7145    0.0000 C   0  0  0  0  0  0  0  0  0  0  0  0
    2.0625    0.7145    0.0000 O   0  0  0  0  0  0  0  0  0  0  0  0
    0.8250    0.0000    0.0000 C   0  0  0  0  0  0  0  0  0  0  0  0
    1.2375   -0.7145    0.0000 Cl  0  0  0  0  0  0  0  0  0  0  0  0
    0.0000    0.0000    0.0000 Cl  0  0  0  0  0  0  0  0  0  0  0  0
  2  3  1  0  0  0  0
  3  4  2  0  0  0  0
  3  5  1  0  0  0  0
  5  6  1  0  0  0  0
  5  7  1  0  0  0  0
M  CHG  2   1   1   2  -1
M  END
> <DATABASE_ID>
DB16929

> <DATABASE_NAME>
drugbank

> <SMILES>
[Na+].[O-]C(=O)C(Cl)Cl

> <INCHI_IDENTIFIER>
InChI=1S/C2H2Cl2O2.Na/c3-1(4)2(5)6;/h1H,(H,5,6);/q;+1/p-1

> <INCHI_KEY>
LUPNKHXLFSSUGS-UHFFFAOYSA-M

> <FORMULA>
C2HCl2NaO2

> <MOLECULAR_WEIGHT>
150.92

> <EXACT_MASS>
149.925129

> <JCHEM_ACCEPTOR_COUNT>
2

> <JCHEM_ATOM_COUNT>
8

> <JCHEM_AVERAGE_NEUTRAL_MICROSPECIES_CHARGE>
-0.9999801863013905

> <JCHEM_AVERAGE_POLARIZABILITY>
8.91786856873781

> <JCHEM_BIOAVAILABILITY>
1

> <JCHEM_DONOR_COUNT>
0

> <JCHEM_FORMAL_CHARGE>
0

> <JCHEM_GHOSE_FILTER>
0

> <JCHEM_IUPAC>
sodium 2,2-dichloroacetate

> <ALOGPS_LOGP>
1.00

> <JCHEM_LOGP>
1.0581826133333334

> <ALOGPS_LOGS>
-0.69

> <JCHEM_MDDR_LIKE_RULE>
0

> <JCHEM_NEUTRAL_CHARGE>
-1

> <JCHEM_NUMBER_OF_RINGS>
0

> <JCHEM_PHYSIOLOGICAL_CHARGE>
-1

> <JCHEM_PKA_STRONGEST_ACIDIC>
2.2969741576208516

> <JCHEM_POLAR_SURFACE_AREA>
40.129999999999995

> <JCHEM_REFRACTIVITY>
33.4566

> <JCHEM_ROTATABLE_BOND_COUNT>
1

> <JCHEM_RULE_OF_FIVE>
1

> <ALOGPS_SOLUBILITY>
3.11e+01 g/l

> <JCHEM_TRADITIONAL_IUPAC>
6-cyclopropaneamido-N-[hydroxy(2H2)methyl]-4-{[2-methoxy-3-(1-methyl-1,2,4-triazol-3-yl)phenyl]amino}pyridazine-3-carboxamide

> <JCHEM_VEBER_RULE>
0

> <DRUGBANK_ID>
DB16929

> <DRUG_GROUPS>
investigational

> <GENERIC_NAME>
Sodium dichloroacetate

> <SYNONYMS>
Ceresine; Cmi x-11s; Dca sodium; Dichloroacetate sodium

$$$$
