
  Mrv1909 01142115062D          

 20 21  0  0  1  0            999 V2000
    1.4289   -4.1250    0.0000 C   0  0  0  0  0  0  0  0  0  0  0  0
    2.1434   -3.7125    0.0000 C   0  0  2  0  0  0  0  0  0  0  0  0
    2.8579   -4.1250    0.0000 C   0  0  0  0  0  0  0  0  0  0  0  0
    3.5724   -3.7125    0.0000 C   0  0  0  0  0  0  0  0  0  0  0  0
    4.2868   -4.1250    0.0000 C   0  0  0  0  0  0  0  0  0  0  0  0
    5.0013   -3.7125    0.0000 C   0  0  0  0  0  0  0  0  0  0  0  0
    5.7158   -4.1250    0.0000 N   0  0  0  0  0  0  0  0  0  0  0  0
    6.4302   -3.7125    0.0000 C   0  0  0  0  0  0  0  0  0  0  0  0
    6.4302   -2.8875    0.0000 O   0  0  0  0  0  0  0  0  0  0  0  0
    7.1447   -4.1250    0.0000 C   0  0  0  0  0  0  0  0  0  0  0  0
    7.1447   -4.9500    0.0000 C   0  0  0  0  0  0  0  0  0  0  0  0
    7.9293   -5.2049    0.0000 N   0  0  0  0  0  0  0  0  0  0  0  0
    8.4143   -4.5375    0.0000 C   0  0  0  0  0  0  0  0  0  0  0  0
    7.9293   -3.8701    0.0000 N   0  0  0  0  0  0  0  0  0  0  0  0
    8.1843   -3.0854    0.0000 C   0  0  0  0  0  0  0  0  0  0  0  0
    6.4302   -5.3625    0.0000 N   0  0  0  0  0  0  0  0  0  0  0  0
    5.7158   -4.9500    0.0000 C   0  0  0  0  0  0  0  0  0  0  0  0
    5.0013   -5.3625    0.0000 O   0  0  0  0  0  0  0  0  0  0  0  0
    6.4302   -6.1875    0.0000 C   0  0  0  0  0  0  0  0  0  0  0  0
    2.1434   -2.8875    0.0000 O   0  0  0  0  0  0  0  0  0  0  0  0
  1  2  1  0  0  0  0
  2  3  1  0  0  0  0
  3  4  1  0  0  0  0
  4  5  1  0  0  0  0
  5  6  1  0  0  0  0
  6  7  1  0  0  0  0
  7  8  1  0  0  0  0
  8  9  2  0  0  0  0
  8 10  1  0  0  0  0
 10 11  2  0  0  0  0
 11 12  1  0  0  0  0
 12 13  2  0  0  0  0
 13 14  1  0  0  0  0
 10 14  1  0  0  0  0
 14 15  1  0  0  0  0
 11 16  1  0  0  0  0
 16 17  1  0  0  0  0
  7 17  1  0  0  0  0
 17 18  2  0  0  0  0
 16 19  1  0  0  0  0
  2 20  1  1  0  0  0
M  END
> <DATABASE_ID>
DB12406

> <DATABASE_NAME>
drugbank

> <SMILES>
C[C@@H](O)CCCCN1C(=O)N(C)C2=C(N(C)C=N2)C1=O

> <INCHI_IDENTIFIER>
InChI=1S/C13H20N4O3/c1-9(18)6-4-5-7-17-12(19)10-11(14-8-15(10)2)16(3)13(17)20/h8-9,18H,4-7H2,1-3H3/t9-/m1/s1

> <INCHI_KEY>
NSMXQKNUPPXBRG-SECBINFHSA-N

> <FORMULA>
C13H20N4O3

> <MOLECULAR_WEIGHT>
280.328

> <EXACT_MASS>
280.15354052

> <JCHEM_ACCEPTOR_COUNT>
4

> <JCHEM_ATOM_COUNT>
40

> <JCHEM_AVERAGE_NEUTRAL_MICROSPECIES_CHARGE>
1.1003743856612403e-08

> <JCHEM_AVERAGE_POLARIZABILITY>
30.031636398750393

> <JCHEM_BIOAVAILABILITY>
1

> <JCHEM_DONOR_COUNT>
1

> <JCHEM_FORMAL_CHARGE>
0

> <JCHEM_GHOSE_FILTER>
1

> <JCHEM_IUPAC>
1-[(5R)-5-hydroxyhexyl]-3,7-dimethyl-2,3,6,7-tetrahydro-1H-purine-2,6-dione

> <JCHEM_LOGP>
0.2027184959999991

> <JCHEM_MDDR_LIKE_RULE>
0

> <JCHEM_NEUTRAL_CHARGE>
0

> <JCHEM_NUMBER_OF_RINGS>
2

> <JCHEM_PHYSIOLOGICAL_CHARGE>
0

> <JCHEM_PKA_STRONGEST_ACIDIC>
17.68303306498672

> <JCHEM_PKA_STRONGEST_BASIC>
-1.0333431381470095

> <JCHEM_POLAR_SURFACE_AREA>
78.67

> <JCHEM_REFRACTIVITY>
74.65329999999999

> <JCHEM_ROTATABLE_BOND_COUNT>
5

> <JCHEM_RULE_OF_FIVE>
1

> <JCHEM_TRADITIONAL_IUPAC>
disodium dexamethasone phosphate(2-)

> <JCHEM_VEBER_RULE>
0

> <DRUGBANK_ID>
DB12406

> <DRUG_GROUPS>
investigational

> <GENERIC_NAME>
Lisofylline

> <SYNONYMS>
Lisofylline

$$$$
