      
  Mrv1533005211517292D          

 18 18  0  0  0  0            999 V2000
   -1.4289   -0.8250    0.0000 C   0  0  0  0  0  0  0  0  0  0  0  0
    0.7144   -1.2375    0.0000 C   0  0  0  0  0  0  0  0  0  0  0  0
    1.4289   -0.8250    0.0000 C   0  0  0  0  0  0  0  0  0  0  0  0
    0.0000   -0.8250    0.0000 C   0  0  0  0  0  0  0  0  0  0  0  0
   -1.4289    0.0000    0.0000 C   0  0  0  0  0  0  0  0  0  0  0  0
    1.4289    0.0000    0.0000 C   0  0  0  0  0  0  0  0  0  0  0  0
    0.0000    0.0000    0.0000 C   0  0  1  0  0  0  0  0  0  0  0  0
    0.7144    0.4125    0.0000 C   0  0  1  0  0  0  0  0  0  0  0  0
   -2.1434    0.4125    0.0000 C   0  0  0  0  0  0  0  0  0  0  0  0
    2.1434    0.4125    0.0000 C   0  0  0  0  0  0  0  0  0  0  0  0
    0.7144    1.2375    0.0000 O   0  0  0  0  0  0  0  0  0  0  0  0
   -2.8578    0.0000    0.0000 O   0  0  0  0  0  0  0  0  0  0  0  0
   -2.1434    1.2375    0.0000 O   0  5  0  0  0  0  0  0  0  0  0  0
    2.1434    1.2375    0.0000 O   0  5  0  0  0  0  0  0  0  0  0  0
    2.8578    0.0000    0.0000 O   0  0  0  0  0  0  0  0  0  0  0  0
   -0.7144    0.4125    0.0000 O   0  0  0  0  0  0  0  0  0  0  0  0
    0.0000    0.8250    0.0000 H   0  0  0  0  0  0  0  0  0  0  0  0
    1.4289    0.8250    0.0000 H   0  0  0  0  0  0  0  0  0  0  0  0
  3  2  1  0  0  0  0
  4  2  2  0  0  0  0
  5  1  2  0  0  0  0
  6  3  2  0  0  0  0
  7  4  1  0  0  0  0
  8  6  1  0  0  0  0
  8  7  1  0  0  0  0
  9  5  1  0  0  0  0
 10  6  1  0  0  0  0
  8 11  1  1  0  0  0
 12  9  2  0  0  0  0
 13  9  1  0  0  0  0
 14 10  1  0  0  0  0
 15 10  2  0  0  0  0
 16  5  1  0  0  0  0
  7 16  1  6  0  0  0
  7 17  1  1  0  0  0
  8 18  1  6  0  0  0
M  CHG  2  13  -1  14  -1
M  END
> <DATABASE_ID>
DB02793

> <DATABASE_NAME>
drugbank

> <SMILES>
[H][C@]1(O)C(=CC=C[C@]1([H])OC(=C)C([O-])=O)C([O-])=O

> <INCHI_IDENTIFIER>
InChI=1S/C10H10O6/c1-5(9(12)13)16-7-4-2-3-6(8(7)11)10(14)15/h2-4,7-8,11H,1H2,(H,12,13)(H,14,15)/p-2/t7-,8-/m0/s1

> <INCHI_KEY>
NTGWPRCCOQCMGE-YUMQZZPRSA-L

> <FORMULA>
C10H8O6

> <MOLECULAR_WEIGHT>
224.169

> <EXACT_MASS>
224.033185137

> <JCHEM_ACCEPTOR_COUNT>
6

> <JCHEM_ATOM_COUNT>
24

> <JCHEM_AVERAGE_POLARIZABILITY>
19.45753326302887

> <JCHEM_BIOAVAILABILITY>
1

> <JCHEM_DONOR_COUNT>
1

> <JCHEM_FORMAL_CHARGE>
-2

> <JCHEM_GHOSE_FILTER>
1

> <JCHEM_IUPAC>
(5S,6S)-5-[(1-carboxylatoeth-1-en-1-yl)oxy]-6-hydroxycyclohexa-1,3-diene-1-carboxylate

> <ALOGPS_LOGP>
0.64

> <JCHEM_LOGP>
-0.12549059733333331

> <ALOGPS_LOGS>
-1.27

> <JCHEM_MDDR_LIKE_RULE>
0

> <JCHEM_NUMBER_OF_RINGS>
1

> <JCHEM_PHYSIOLOGICAL_CHARGE>
-2

> <JCHEM_PKA>
4.193366544817536

> <JCHEM_PKA_STRONGEST_ACIDIC>
3.389432923694941

> <JCHEM_PKA_STRONGEST_BASIC>
-3.571763680746476

> <JCHEM_POLAR_SURFACE_AREA>
109.72000000000001

> <JCHEM_REFRACTIVITY>
75.9843

> <JCHEM_ROTATABLE_BOND_COUNT>
4

> <JCHEM_RULE_OF_FIVE>
1

> <ALOGPS_SOLUBILITY>
1.39e+01 g/l

> <JCHEM_TRADITIONAL_IUPAC>
isochorismate

> <JCHEM_VEBER_RULE>
0

> <DRUGBANK_ID>
DB02793

> <SECONDARY_ACCESSION_NUMBERS>
EXPT01933

> <DRUG_GROUPS>
experimental

> <GENERIC_NAME>
Isochorismic Acid

$$$$
