
  Mrv1909 08161920472D          

  9  9  0  0  0  0            999 V2000
    0.7145   -0.4125    0.0000 C   0  0  0  0  0  0  0  0  0  0  0  0
    0.0000    0.0000    0.0000 C   0  0  0  0  0  0  0  0  0  0  0  0
    0.0000    0.8250    0.0000 C   0  0  0  0  0  0  0  0  0  0  0  0
    0.7145    1.2375    0.0000 C   0  0  0  0  0  0  0  0  0  0  0  0
    1.4289    0.8250    0.0000 C   0  0  0  0  0  0  0  0  0  0  0  0
    1.4289    0.0000    0.0000 C   0  0  0  0  0  0  0  0  0  0  0  0
    0.7145    2.0625    0.0000 C   0  0  0  0  0  0  0  0  0  0  0  0
    0.0000    2.4750    0.0000 O   0  0  0  0  0  0  0  0  0  0  0  0
    1.4289    2.4750    0.0000 O   0  0  0  0  0  0  0  0  0  0  0  0
  1  2  2  0  0  0  0
  2  3  1  0  0  0  0
  3  4  2  0  0  0  0
  4  5  1  0  0  0  0
  5  6  2  0  0  0  0
  1  6  1  0  0  0  0
  4  7  1  0  0  0  0
  7  8  2  0  0  0  0
  7  9  1  0  0  0  0
M  END
> <DATABASE_ID>
DB03793

> <DATABASE_NAME>
drugbank

> <SMILES>
OC(=O)C1=CC=CC=C1

> <INCHI_IDENTIFIER>
InChI=1S/C7H6O2/c8-7(9)6-4-2-1-3-5-6/h1-5H,(H,8,9)

> <INCHI_KEY>
WPYMKLBDIGXBTP-UHFFFAOYSA-N

> <FORMULA>
C7H6O2

> <MOLECULAR_WEIGHT>
122.123

> <EXACT_MASS>
122.036779433

> <JCHEM_ACCEPTOR_COUNT>
2

> <JCHEM_ATOM_COUNT>
15

> <JCHEM_AVERAGE_POLARIZABILITY>
11.97308273996681

> <JCHEM_BIOAVAILABILITY>
1

> <JCHEM_DONOR_COUNT>
1

> <JCHEM_FORMAL_CHARGE>
0

> <JCHEM_GHOSE_FILTER>
0

> <JCHEM_IUPAC>
benzoic acid

> <ALOGPS_LOGP>
1.72

> <JCHEM_LOGP>
1.630828724

> <ALOGPS_LOGS>
-1.24

> <JCHEM_MDDR_LIKE_RULE>
0

> <JCHEM_NUMBER_OF_RINGS>
1

> <JCHEM_PHYSIOLOGICAL_CHARGE>
-1

> <JCHEM_PKA_STRONGEST_ACIDIC>
4.07523327743486

> <JCHEM_POLAR_SURFACE_AREA>
37.3

> <JCHEM_REFRACTIVITY>
33.3142

> <JCHEM_ROTATABLE_BOND_COUNT>
1

> <JCHEM_RULE_OF_FIVE>
1

> <ALOGPS_SOLUBILITY>
7.08e+00 g/l

> <JCHEM_TRADITIONAL_IUPAC>
benzoic acid

> <JCHEM_VEBER_RULE>
1

> <DRUGBANK_ID>
DB03793

> <SECONDARY_ACCESSION_NUMBERS>
EXPT00675

> <DRUG_GROUPS>
approved; investigational

> <GENERIC_NAME>
Benzoic acid

> <SYNONYMS>
Benzoic acid

> <PRODUCTS>
Ammonul; Camphorated Opium Tincture; Eyelids Wipes; Glycothymoline; HydroGold 9; Hyophen; Larynsol Loz; Methylphen; Mrx Liq; Oriox Cool Breath Oral Rinse Mild; Plax Anti-plaque Dental Rinse; Prosed/DS; S Panax All In One Mist; S Panax Mist; S Panax Mist for Refill; SODIUM PHENYLACETATE and SODIUM BENZOATE; Seo Jeong Ho Hwang Chill Deodorant; Seo Jeong Ho Hwang Chill Mist; Sodium Phenylacetate and Sodium Benzoate; Sodium Phenylacetate and sodium benzoate; Urised; Urophen Mb

> <SALTS>
Sodium benzoate

$$$$
