
  Mrv1652310201623572D          

 40 44  0  0  1  0            999 V2000
    2.0630   -1.4167    0.0000 C   0  0  0  0  0  0  0  0  0  0  0  0
    2.8390   -1.6970    0.0000 C   0  0  2  0  0  0  0  0  0  0  0  0
    3.5218   -1.2340    0.0000 C   0  0  0  0  0  0  0  0  0  0  0  0
    4.1731   -1.7404    0.0000 C   0  0  1  0  0  0  0  0  0  0  0  0
    4.9853   -1.5952    0.0000 C   0  0  2  0  0  0  0  0  0  0  0  0
    5.2655   -0.8192    0.0000 C   0  0  0  0  0  0  0  0  0  0  0  0
    6.0777   -0.6740    0.0000 C   0  0  1  0  0  0  0  0  0  0  0  0
    6.6095   -1.3047    0.0000 C   0  0  0  0  0  0  0  0  0  0  0  0
    7.4216   -1.1595    0.0000 C   0  0  0  0  0  0  0  0  0  0  0  0
    7.9534   -1.7902    0.0000 C   0  0  0  0  0  0  0  0  0  0  0  0
    8.7655   -1.6450    0.0000 O   0  0  0  0  0  0  0  0  0  0  0  0
    7.6731   -2.5662    0.0000 C   0  0  0  0  0  0  0  0  0  0  0  0
    6.8610   -2.7114    0.0000 C   0  0  0  0  0  0  0  0  0  0  0  0
    6.3292   -2.0807    0.0000 C   0  0  2  0  0  0  0  0  0  0  0  0
    5.5171   -2.2259    0.0000 C   0  0  1  0  0  0  0  0  0  0  0  0
    5.2368   -3.0018    0.0000 C   0  0  2  0  0  0  0  0  0  0  0  0
    4.4247   -3.1470    0.0000 C   0  0  0  0  0  0  0  0  0  0  0  0
    3.8928   -2.5163    0.0000 C   0  0  2  0  0  0  0  0  0  0  0  0
    3.0683   -2.4895    0.0000 C   0  0  1  0  0  0  0  0  0  0  0  0
    2.3074   -2.8084    0.0000 C   0  0  0  0  0  0  0  0  0  0  0  0
    1.6508   -2.3089    0.0000 O   0  0  0  0  0  0  0  0  0  0  0  0
    2.2031   -3.6268    0.0000 O   0  0  0  0  0  0  0  0  0  0  0  0
    1.4422   -3.9456    0.0000 C   0  0  0  0  0  0  0  0  0  0  0  0
    1.3379   -4.7640    0.0000 C   0  0  0  0  0  0  0  0  0  0  0  0
    1.2336   -5.5824    0.0000 N   0  0  0  0  0  0  0  0  0  0  0  0
    2.9469   -3.3055    0.0000 O   0  0  0  0  0  0  0  0  0  0  0  0
    3.5929   -3.8187    0.0000 C   0  0  0  0  0  0  0  0  0  0  0  0
    4.3603   -3.5158    0.0000 O   0  0  0  0  0  0  0  0  0  0  0  0
    3.4715   -4.6347    0.0000 C   0  0  0  0  0  0  0  0  0  0  0  0
    3.7743   -5.4021    0.0000 C   0  0  0  0  0  0  0  0  0  0  0  0
    2.9583   -5.2807    0.0000 C   0  0  0  0  0  0  0  0  0  0  0  0
    2.5034   -5.9689    0.0000 C   0  0  0  0  0  0  0  0  0  0  0  0
    2.1560   -5.0886    0.0000 C   0  0  0  0  0  0  0  0  0  0  0  0
    4.5978   -5.4519    0.0000 C   0  0  0  0  0  0  0  0  0  0  0  0
    4.0092   -6.1929    0.0000 C   0  0  0  0  0  0  0  0  0  0  0  0
    3.5330   -3.2587    0.0000 C   0  0  0  0  0  0  0  0  0  0  0  0
    5.7686   -3.6325    0.0000 O   0  0  0  0  0  0  0  0  0  0  0  0
    6.0489   -2.8566    0.0000 F   0  0  0  0  0  0  0  0  0  0  0  0
    6.5585   -2.8731    0.0000 C   0  0  0  0  0  0  0  0  0  0  0  0
    6.3580    0.1019    0.0000 F   0  0  0  0  0  0  0  0  0  0  0  0
  2  1  1  6  0  0  0
  2  3  1  0  0  0  0
  4  3  1  1  0  0  0
  4  5  1  0  0  0  0
  5  6  1  6  0  0  0
  6  7  1  0  0  0  0
  7  8  1  0  0  0  0
  8  9  2  0  0  0  0
  9 10  1  0  0  0  0
 10 11  2  0  0  0  0
 10 12  1  0  0  0  0
 12 13  2  0  0  0  0
 13 14  1  0  0  0  0
  8 14  1  0  0  0  0
 14 15  1  0  0  0  0
  5 15  1  0  0  0  0
 15 16  1  0  0  0  0
 16 17  1  0  0  0  0
 17 18  1  0  0  0  0
  4 18  1  0  0  0  0
 18 19  1  0  0  0  0
  2 19  1  0  0  0  0
 19 20  1  1  0  0  0
 20 21  2  0  0  0  0
 20 22  1  0  0  0  0
 22 23  1  0  0  0  0
 23 24  1  0  0  0  0
 24 25  3  0  0  0  0
 19 26  1  6  0  0  0
 26 27  1  0  0  0  0
 27 28  2  0  0  0  0
 27 29  1  0  0  0  0
 29 30  1  0  0  0  0
 30 31  1  0  0  0  0
 29 31  1  0  0  0  0
 31 32  1  0  0  0  0
 31 33  1  0  0  0  0
 30 34  1  0  0  0  0
 30 35  1  0  0  0  0
 18 36  1  1  0  0  0
 16 37  1  1  0  0  0
 15 38  1  6  0  0  0
 14 39  1  1  0  0  0
  7 40  1  6  0  0  0
M  END
> <DATABASE_ID>
DB12322

> <DATABASE_NAME>
drugbank

> <SMILES>
C[C@@H]1C[C@H]2[C@@H]3C[C@H](F)C4=CC(=O)C=C[C@]4(C)[C@@]3(F)[C@@H](O)C[C@]2(C)[C@@]1(OC(=O)C1C(C)(C)C1(C)C)C(=O)OCC#N

> <INCHI_IDENTIFIER>
InChI=1S/C31H39F2NO6/c1-16-12-18-19-14-21(32)20-13-17(35)8-9-28(20,6)30(19,33)22(36)15-29(18,7)31(16,25(38)39-11-10-34)40-24(37)23-26(2,3)27(23,4)5/h8-9,13,16,18-19,21-23,36H,11-12,14-15H2,1-7H3/t16-,18+,19+,21+,22+,28+,29+,30+,31+/m1/s1

> <INCHI_KEY>
WUBKGTSFJSEIEM-NSHBDUGJSA-N

> <FORMULA>
C31H39F2NO6

> <MOLECULAR_WEIGHT>
559.651

> <EXACT_MASS>
559.274544306

> <JCHEM_ACCEPTOR_COUNT>
5

> <JCHEM_ATOM_COUNT>
79

> <JCHEM_AVERAGE_POLARIZABILITY>
57.69324448501453

> <JCHEM_BIOAVAILABILITY>
1

> <JCHEM_DONOR_COUNT>
1

> <JCHEM_FORMAL_CHARGE>
0

> <JCHEM_GHOSE_FILTER>
0

> <JCHEM_IUPAC>
cyanomethyl (1R,2S,8S,10S,11S,13R,14R,15S,17S)-1,8-difluoro-17-hydroxy-2,13,15-trimethyl-5-oxo-14-(2,2,3,3-tetramethylcyclopropanecarbonyloxy)tetracyclo[8.7.0.0^{2,7}.0^{11,15}]heptadeca-3,6-diene-14-carboxylate

> <ALOGPS_LOGP>
4.65

> <JCHEM_LOGP>
3.906353206666667

> <ALOGPS_LOGS>
-4.82

> <JCHEM_MDDR_LIKE_RULE>
1

> <JCHEM_NUMBER_OF_RINGS>
5

> <JCHEM_PHYSIOLOGICAL_CHARGE>
0

> <JCHEM_PKA>
14.483946872056656

> <JCHEM_PKA_STRONGEST_ACIDIC>
13.557125876171838

> <JCHEM_PKA_STRONGEST_BASIC>
-3.3935846054327676

> <JCHEM_POLAR_SURFACE_AREA>
113.69000000000001

> <JCHEM_REFRACTIVITY>
141.4941

> <JCHEM_ROTATABLE_BOND_COUNT>
6

> <JCHEM_RULE_OF_FIVE>
0

> <ALOGPS_SOLUBILITY>
8.40e-03 g/l

> <JCHEM_TRADITIONAL_IUPAC>
cyanomethyl (1R,2S,8S,10S,11S,13R,14R,15S,17S)-1,8-difluoro-17-hydroxy-2,13,15-trimethyl-5-oxo-14-(2,2,3,3-tetramethylcyclopropanecarbonyloxy)tetracyclo[8.7.0.0^{2,7}.0^{11,15}]heptadeca-3,6-diene-14-carboxylate

> <JCHEM_VEBER_RULE>
0

> <DRUGBANK_ID>
DB12322

> <DRUG_GROUPS>
investigational

> <GENERIC_NAME>
GW-870086

$$$$
