
  Mrv1909 12281918122D          

 31 36  0  0  0  0            999 V2000
    0.6348   -0.8250    0.0000 C   0  0  0  0  0  0  0  0  0  0  0  0
   -0.0796   -0.4125    0.0000 C   0  0  0  0  0  0  0  0  0  0  0  0
    0.6348   -1.6500    0.0000 N   0  0  0  0  0  0  0  0  0  0  0  0
   -0.7942   -0.8250    0.0000 N   0  0  0  0  0  0  0  0  0  0  0  0
   -0.7942   -1.6500    0.0000 C   0  0  0  0  0  0  0  0  0  0  0  0
   -0.0796   -2.0625    0.0000 C   0  0  0  0  0  0  0  0  0  0  0  0
    1.4194   -0.5701    0.0000 N   0  0  0  0  0  0  0  0  0  0  0  0
    1.9043   -1.2374    0.0000 C   0  0  0  0  0  0  0  0  0  0  0  0
    1.4194   -1.9049    0.0000 C   0  0  0  0  0  0  0  0  0  0  0  0
   -0.0796    0.4125    0.0000 N   0  0  0  0  0  0  0  0  0  0  0  0
    0.6348    0.8250    0.0000 C   0  0  0  0  0  0  0  0  0  0  0  0
    0.6348    1.6500    0.0000 C   0  0  0  0  0  0  0  0  0  0  0  0
    1.3492    2.0625    0.0000 C   0  0  0  0  0  0  0  0  0  0  0  0
    2.0637    1.6500    0.0000 C   0  0  0  0  0  0  0  0  0  0  0  0
    2.0637    0.8250    0.0000 C   0  0  0  0  0  0  0  0  0  0  0  0
    1.3492    0.4125    0.0000 C   0  0  0  0  0  0  0  0  0  0  0  0
    2.7782    2.0625    0.0000 N   0  0  0  0  0  0  0  0  0  0  0  0
    2.7782    2.8875    0.0000 C   0  0  0  0  0  0  0  0  0  0  0  0
    3.4927    3.3000    0.0000 C   0  0  0  0  0  0  0  0  0  0  0  0
    4.2070    2.8875    0.0000 O   0  0  0  0  0  0  0  0  0  0  0  0
    4.2070    2.0625    0.0000 C   0  0  0  0  0  0  0  0  0  0  0  0
    3.4927    1.6500    0.0000 C   0  0  0  0  0  0  0  0  0  0  0  0
   -3.7222   -1.8076    0.0000 N   0  0  0  0  0  0  0  0  0  0  0  0
   -4.2070   -2.4749    0.0000 N   0  0  0  0  0  0  0  0  0  0  0  0
   -3.7222   -3.1424    0.0000 C   0  0  0  0  0  0  0  0  0  0  0  0
   -2.9376   -2.8875    0.0000 C   0  0  0  0  0  0  0  0  0  0  0  0
   -2.2231   -3.3000    0.0000 C   0  0  0  0  0  0  0  0  0  0  0  0
   -1.5086   -2.8875    0.0000 C   0  0  0  0  0  0  0  0  0  0  0  0
   -1.5086   -2.0625    0.0000 C   0  0  0  0  0  0  0  0  0  0  0  0
   -2.2231   -1.6500    0.0000 C   0  0  0  0  0  0  0  0  0  0  0  0
   -2.9376   -2.0625    0.0000 C   0  0  0  0  0  0  0  0  0  0  0  0
  1  2  1  0  0  0  0
  1  3  1  0  0  0  0
  2  4  2  0  0  0  0
  4  5  1  0  0  0  0
  5  6  2  0  0  0  0
  3  6  1  0  0  0  0
  7  8  1  0  0  0  0
  8  9  2  0  0  0  0
  9  3  1  0  0  0  0
  7  1  2  0  0  0  0
  2 10  1  0  0  0  0
 11 12  1  0  0  0  0
 12 13  2  0  0  0  0
 13 14  1  0  0  0  0
 14 15  2  0  0  0  0
 15 16  1  0  0  0  0
 11 16  2  0  0  0  0
 17 18  1  0  0  0  0
 18 19  1  0  0  0  0
 19 20  1  0  0  0  0
 20 21  1  0  0  0  0
 21 22  1  0  0  0  0
 17 22  1  0  0  0  0
 14 17  1  0  0  0  0
 10 11  1  0  0  0  0
 23 24  1  0  0  0  0
 24 25  2  0  0  0  0
 25 26  1  0  0  0  0
 26 27  1  0  0  0  0
 27 28  2  0  0  0  0
 28 29  1  0  0  0  0
 29 30  2  0  0  0  0
 30 31  1  0  0  0  0
 23 31  1  0  0  0  0
 26 31  2  0  0  0  0
  5 29  1  0  0  0  0
M  END
> <DATABASE_ID>
DB12121

> <DATABASE_NAME>
drugbank

> <SMILES>
C1CN(CCO1)C1=CC=C(NC2=NC(=CN3C=CN=C23)C2=CC3=C(C=NN3)C=C2)C=C1

> <INCHI_IDENTIFIER>
InChI=1S/C23H21N7O/c1-2-17-14-25-28-20(17)13-16(1)21-15-30-8-7-24-23(30)22(27-21)26-18-3-5-19(6-4-18)29-9-11-31-12-10-29/h1-8,13-15H,9-12H2,(H,25,28)(H,26,27)

> <INCHI_KEY>
XSMSNFMDVXXHGJ-UHFFFAOYSA-N

> <FORMULA>
C23H21N7O

> <MOLECULAR_WEIGHT>
411.4591

> <EXACT_MASS>
411.180758329

> <JCHEM_ACCEPTOR_COUNT>
6

> <JCHEM_ATOM_COUNT>
52

> <JCHEM_AVERAGE_NEUTRAL_MICROSPECIES_CHARGE>
0.000530886403037977

> <JCHEM_AVERAGE_POLARIZABILITY>
44.43934461725962

> <JCHEM_BIOAVAILABILITY>
1

> <JCHEM_DONOR_COUNT>
2

> <JCHEM_FORMAL_CHARGE>
0

> <JCHEM_GHOSE_FILTER>
1

> <JCHEM_IUPAC>
6-(1H-indazol-6-yl)-N-[4-(morpholin-4-yl)phenyl]imidazo[1,2-a]pyrazin-8-amine

> <JCHEM_LOGP>
2.821941269666667

> <JCHEM_MDDR_LIKE_RULE>
0

> <JCHEM_NEUTRAL_CHARGE>
0

> <JCHEM_NUMBER_OF_RINGS>
6

> <JCHEM_PHYSIOLOGICAL_CHARGE>
0

> <JCHEM_PKA>
15.562711426713852

> <JCHEM_PKA_STRONGEST_ACIDIC>
11.735138016287095

> <JCHEM_PKA_STRONGEST_BASIC>
3.741495673363918

> <JCHEM_POLAR_SURFACE_AREA>
83.36999999999999

> <JCHEM_REFRACTIVITY>
120.86159999999998

> <JCHEM_ROTATABLE_BOND_COUNT>
4

> <JCHEM_RULE_OF_FIVE>
1

> <JCHEM_TRADITIONAL_IUPAC>
(2R)-2-{[(2S)-1-[(2S)-2-[(2S,3S)-2-[(2S)-2-[(2S)-2-[(2S)-5-carbamimidamido-2-[2-(methylamino)acetamido]pentanamido]-3-methylbutanamido]-3-(4-hydroxyphenyl)propanamido]-3-methylpentanamido]-3-(3H-imidazol-4-yl)propanoyl]pyrrolidin-2-yl]formamido}propanoic acid

> <JCHEM_VEBER_RULE>
0

> <DRUGBANK_ID>
DB12121

> <DRUG_GROUPS>
investigational

> <GENERIC_NAME>
Entospletinib

> <SYNONYMS>
Entospletinib

$$$$
