
  Mrv1652305011717592D          

 43 51  0  0  0  0            999 V2000
   -0.4124    2.5573    0.0000 C   0  0  0  0  0  0  0  0  0  0  0  0
    0.4125    2.5573    0.0000 C   0  0  0  0  0  0  0  0  0  0  0  0
    0.4125    1.1283    0.0000 C   0  0  0  0  0  0  0  0  0  0  0  0
    0.8250    1.8427    0.0000 C   0  0  0  0  0  0  0  0  0  0  0  0
   -0.4124    1.1283    0.0000 C   0  0  0  0  0  0  0  0  0  0  0  0
   -0.8249    1.8427    0.0000 C   0  0  0  0  0  0  0  0  0  0  0  0
    1.7182    0.8507    0.0000 C   0  0  0  0  0  0  0  0  0  0  0  0
    1.6319    1.6712    0.0000 C   0  0  0  0  0  0  0  0  0  0  0  0
    3.0530    1.8207    0.0000 C   0  0  0  0  0  0  0  0  0  0  0  0
    2.2994    2.1562    0.0000 C   0  0  0  0  0  0  0  0  0  0  0  0
    2.4718    0.5153    0.0000 C   0  0  0  0  0  0  0  0  0  0  0  0
    3.1393    1.0002    0.0000 C   0  0  0  0  0  0  0  0  0  0  0  0
   -1.7181    0.8507    0.0000 C   0  0  0  0  0  0  0  0  0  0  0  0
   -1.6319    1.6712    0.0000 C   0  0  0  0  0  0  0  0  0  0  0  0
   -2.2994    2.1562    0.0000 C   0  0  0  0  0  0  0  0  0  0  0  0
   -3.0530    1.8207    0.0000 C   0  0  0  0  0  0  0  0  0  0  0  0
   -3.1393    1.0002    0.0000 C   0  0  0  0  0  0  0  0  0  0  0  0
   -2.4719    0.5153    0.0000 C   0  0  0  0  0  0  0  0  0  0  0  0
   -0.9644    0.5153    0.0000 N   0  0  0  0  0  0  0  0  0  0  0  0
    0.9644    0.5153    0.0000 N   0  0  0  0  0  0  0  0  0  0  0  0
    0.0237   -0.1141    0.0000 O   0  0  0  0  0  0  0  0  0  0  0  0
    0.0237   -1.7642    0.0000 C   0  0  1  0  0  0  0  0  0  0  0  0
    0.7381   -1.3517    0.0000 C   0  0  0  0  0  0  0  0  0  0  0  0
    0.7381   -0.5267    0.0000 C   0  0  2  0  0  0  0  0  0  0  0  0
    0.0237   -2.5892    0.0000 N   0  0  0  0  0  0  0  0  0  0  0  0
   -0.6906   -3.0017    0.0000 C   0  0  0  0  0  0  0  0  0  0  0  0
    0.0000    3.8268    0.0000 N   0  0  0  0  0  0  0  0  0  0  0  0
   -0.6674    3.3419    0.0000 C   0  0  0  0  0  0  0  0  0  0  0  0
    0.6674    3.3419    0.0000 C   0  0  0  0  0  0  0  0  0  0  0  0
    1.4643    3.5554    0.0000 O   0  0  0  0  0  0  0  0  0  0  0  0
   -0.6906   -0.5267    0.0000 C   0  0  2  0  0  0  0  0  0  0  0  0
   -1.5156   -0.5267    0.0000 C   0  0  0  0  0  0  0  0  0  0  0  0
   -0.6906   -1.3517    0.0000 C   0  0  2  0  0  0  0  0  0  0  0  0
   -1.4051   -1.7642    0.0000 O   0  0  0  0  0  0  0  0  0  0  0  0
   -2.1195   -1.3517    0.0000 C   0  0  0  0  0  0  0  0  0  0  0  0
    0.7382   -3.0017    0.0000 C   0  0  0  0  0  0  0  0  0  0  0  0
    0.7382   -3.8268    0.0000 O   0  0  0  0  0  0  0  0  0  0  0  0
    1.4527   -2.5892    0.0000 C   0  0  0  0  0  0  0  0  0  0  0  0
    2.8817   -1.7642    0.0000 C   0  0  0  0  0  0  0  0  0  0  0  0
    2.8817   -2.5892    0.0000 C   0  0  0  0  0  0  0  0  0  0  0  0
    2.1671   -1.3517    0.0000 C   0  0  0  0  0  0  0  0  0  0  0  0
    2.1671   -3.0017    0.0000 C   0  0  0  0  0  0  0  0  0  0  0  0
    1.4527   -1.7642    0.0000 C   0  0  0  0  0  0  0  0  0  0  0  0
  2  4  1  0  0  0  0
  1  6  1  0  0  0  0
  5  3  1  0  0  0  0
 28  1  1  0  0  0  0
  1  2  2  0  0  0  0
  2 29  1  0  0  0  0
 27 28  1  0  0  0  0
 27 29  1  0  0  0  0
  3 20  1  0  0  0  0
  4  3  2  0  0  0  0
  4  8  1  0  0  0  0
 20  7  1  0  0  0  0
 19  5  1  0  0  0  0
  6  5  2  0  0  0  0
  6 14  1  0  0  0  0
 13 19  1  0  0  0  0
  7 11  1  0  0  0  0
  8  7  2  0  0  0  0
 10  8  1  0  0  0  0
  9 10  2  0  0  0  0
  9 12  1  0  0  0  0
 11 12  2  0  0  0  0
 18 13  1  0  0  0  0
 13 14  2  0  0  0  0
 15 14  1  0  0  0  0
 15 16  2  0  0  0  0
 16 17  1  0  0  0  0
 17 18  2  0  0  0  0
 21 31  1  0  0  0  0
 21 24  1  0  0  0  0
 31 33  1  0  0  0  0
 33 22  1  0  0  0  0
 22 23  1  0  0  0  0
 23 24  1  0  0  0  0
 31 19  1  1  0  0  0
 24 20  1  1  0  0  0
 22 25  1  1  0  0  0
 25 26  1  0  0  0  0
 29 30  2  0  0  0  0
 31 32  1  6  0  0  0
 33 34  1  1  0  0  0
 34 35  1  0  0  0  0
 25 36  1  0  0  0  0
 36 37  2  0  0  0  0
 36 38  1  0  0  0  0
 40 39  1  0  0  0  0
 41 39  2  0  0  0  0
 42 40  2  0  0  0  0
 43 41  1  0  0  0  0
 38 42  1  0  0  0  0
 38 43  2  0  0  0  0
M  END
> <DATABASE_ID>
DB06595

> <DATABASE_NAME>
drugbank

> <SMILES>
CO[C@@H]1[C@@H](C[C@H]2O[C@]1(C)N1C3=C(C=CC=C3)C3=C1C1=C(C4=C(C=CC=C4)N21)C1=C3CNC1=O)N(C)C(=O)C1=CC=CC=C1

> <INCHI_IDENTIFIER>
InChI=1S/C35H30N4O4/c1-35-32(42-3)25(37(2)34(41)19-11-5-4-6-12-19)17-26(43-35)38-23-15-9-7-13-20(23)28-29-22(18-36-33(29)40)27-21-14-8-10-16-24(21)39(35)31(27)30(28)38/h4-16,25-26,32H,17-18H2,1-3H3,(H,36,40)/t25-,26-,32-,35+/m1/s1

> <INCHI_KEY>
BMGQWWVMWDBQGC-IIFHNQTCSA-N

> <FORMULA>
C35H30N4O4

> <MOLECULAR_WEIGHT>
570.649

> <EXACT_MASS>
570.226705462

> <JCHEM_ACCEPTOR_COUNT>
4

> <JCHEM_ATOM_COUNT>
73

> <JCHEM_AVERAGE_POLARIZABILITY>
60.581904630271765

> <JCHEM_BIOAVAILABILITY>
0

> <JCHEM_DONOR_COUNT>
1

> <JCHEM_FORMAL_CHARGE>
0

> <JCHEM_GHOSE_FILTER>
0

> <JCHEM_IUPAC>
N-[(2S,3R,4R,6R)-3-methoxy-2-methyl-16-oxo-29-oxa-1,7,17-triazaoctacyclo[12.12.2.1^{2,6}.0^{7,28}.0^{8,13}.0^{15,19}.0^{20,27}.0^{21,26}]nonacosa-8(13),9,11,14(28),15(19),20(27),21(26),22,24-nonaen-4-yl]-N-methylbenzamide

> <ALOGPS_LOGP>
4.52

> <JCHEM_LOGP>
5.433789877666666

> <ALOGPS_LOGS>
-4.56

> <JCHEM_MDDR_LIKE_RULE>
0

> <JCHEM_NUMBER_OF_RINGS>
9

> <JCHEM_PHYSIOLOGICAL_CHARGE>
0

> <JCHEM_PKA>
15.065738937255482

> <JCHEM_PKA_STRONGEST_ACIDIC>
13.447765289163765

> <JCHEM_PKA_STRONGEST_BASIC>
-0.8340940415404176

> <JCHEM_POLAR_SURFACE_AREA>
77.72999999999999

> <JCHEM_REFRACTIVITY>
162.60849999999996

> <JCHEM_ROTATABLE_BOND_COUNT>
3

> <JCHEM_RULE_OF_FIVE>
0

> <ALOGPS_SOLUBILITY>
1.57e-02 g/l

> <JCHEM_TRADITIONAL_IUPAC>
N-[(2S,3R,4R,6R)-3-methoxy-2-methyl-16-oxo-29-oxa-1,7,17-triazaoctacyclo[12.12.2.1^{2,6}.0^{7,28}.0^{8,13}.0^{15,19}.0^{20,27}.0^{21,26}]nonacosa-8(13),9,11,14(28),15(19),20(27),21(26),22,24-nonaen-4-yl]-N-methylbenzamide

> <JCHEM_VEBER_RULE>
0

> <DRUGBANK_ID>
DB06595

> <DRUG_GROUPS>
approved; investigational

> <GENERIC_NAME>
Midostaurin

> <SYNONYMS>
4'-N-benzoylstaurosporine; Midostaurin

> <PRODUCTS>
Rydapt

$$$$
