
  Mrv1902 02011922222D          

 23 25  0  0  0  0            999 V2000
   -2.1449   -0.0035    0.0000 C   0  0  0  0  0  0  0  0  0  0  0  0
   -1.4299   -0.4091    0.0000 C   0  0  0  0  0  0  0  0  0  0  0  0
   -2.8564   -0.4160    0.0000 C   0  0  0  0  0  0  0  0  0  0  0  0
   -2.1449    0.8250    0.0000 C   0  0  0  0  0  0  0  0  0  0  0  0
   -1.4264   -1.2410    0.0000 C   0  0  0  0  0  0  0  0  0  0  0  0
   -0.7150    0.0034    0.0000 C   0  0  0  0  0  0  0  0  0  0  0  0
   -2.8530   -1.2444    0.0000 C   0  0  0  0  0  0  0  0  0  0  0  0
   -3.5715   -0.0035    0.0000 C   0  0  0  0  0  0  0  0  0  0  0  0
   -2.8564    1.2409    0.0000 C   0  0  0  0  0  0  0  0  0  0  0  0
   -2.1415   -1.6535    0.0000 O   0  0  0  0  0  0  0  0  0  0  0  0
   -0.7115   -1.6500    0.0000 C   0  0  0  0  0  0  0  0  0  0  0  0
    0.0034   -0.4091    0.0000 C   0  0  0  0  0  0  0  0  0  0  0  0
   -0.7150    0.8284    0.0000 O   0  0  0  0  0  0  0  0  0  0  0  0
   -2.8599   -2.0659    0.0000 C   0  0  0  0  0  0  0  0  0  0  0  0
   -3.5715   -0.8250    0.0000 C   0  0  0  0  0  0  0  0  0  0  0  0
   -3.5715    0.8250    0.0000 C   0  0  0  0  0  0  0  0  0  0  0  0
   -2.8530    2.0659    0.0000 C   0  0  0  0  0  0  0  0  0  0  0  0
    0.0034   -1.2341    0.0000 C   0  0  0  0  0  0  0  0  0  0  0  0
    0.7185   -1.6431    0.0000 C   0  0  0  0  0  0  0  0  0  0  0  0
    1.4334   -1.2272    0.0000 C   0  0  0  0  0  0  0  0  0  0  0  0
    2.1450   -1.6397    0.0000 C   0  0  0  0  0  0  0  0  0  0  0  0
    2.8565   -1.2237    0.0000 C   0  0  0  0  0  0  0  0  0  0  0  0
    3.5715   -1.6328    0.0000 C   0  0  0  0  0  0  0  0  0  0  0  0
  1  2  1  0  0  0  0
  1  3  2  0  0  0  0
  1  4  1  0  0  0  0
  2  5  2  0  0  0  0
  2  6  1  0  0  0  0
  3  7  1  0  0  0  0
  3  8  1  0  0  0  0
  4  9  2  0  0  0  0
  5 10  1  0  0  0  0
  5 11  1  0  0  0  0
  6 12  2  0  0  0  0
  6 13  1  0  0  0  0
  7 14  1  0  0  0  0
  7 15  1  0  0  0  0
  8 16  2  0  0  0  0
  9 17  1  0  0  0  0
 11 18  2  0  0  0  0
 18 19  1  0  0  0  0
 19 20  1  0  0  0  0
 20 21  1  0  0  0  0
 21 22  1  0  0  0  0
 22 23  1  0  0  0  0
  7 10  1  0  0  0  0
  9 16  1  0  0  0  0
 12 18  1  0  0  0  0
M  END
> <DATABASE_ID>
DB14737

> <DATABASE_NAME>
drugbank

> <SMILES>
CCCCCC1=CC2=C(C(O)=C1)C1=C(C=CC(C)=C1)C(C)(C)O2

> <INCHI_IDENTIFIER>
InChI=1S/C21H26O2/c1-5-6-7-8-15-12-18(22)20-16-11-14(2)9-10-17(16)21(3,4)23-19(20)13-15/h9-13,22H,5-8H2,1-4H3

> <INCHI_KEY>
VBGLYOIFKLUMQG-UHFFFAOYSA-N

> <FORMULA>
C21H26O2

> <MOLECULAR_WEIGHT>
310.437

> <EXACT_MASS>
310.193280077

> <JCHEM_ACCEPTOR_COUNT>
2

> <JCHEM_ATOM_COUNT>
49

> <JCHEM_AVERAGE_POLARIZABILITY>
37.75883681910807

> <JCHEM_BIOAVAILABILITY>
1

> <JCHEM_DONOR_COUNT>
1

> <JCHEM_FORMAL_CHARGE>
0

> <JCHEM_GHOSE_FILTER>
0

> <JCHEM_IUPAC>
6,6,9-trimethyl-3-pentyl-6H-benzo[c]chromen-1-ol

> <ALOGPS_LOGP>
6.58

> <JCHEM_LOGP>
6.412731023666666

> <ALOGPS_LOGS>
-5.96

> <JCHEM_MDDR_LIKE_RULE>
0

> <JCHEM_NUMBER_OF_RINGS>
3

> <JCHEM_PHYSIOLOGICAL_CHARGE>
0

> <JCHEM_PKA_STRONGEST_ACIDIC>
9.318134306693421

> <JCHEM_PKA_STRONGEST_BASIC>
-4.922121880517445

> <JCHEM_POLAR_SURFACE_AREA>
29.46

> <JCHEM_REFRACTIVITY>
95.7363

> <JCHEM_ROTATABLE_BOND_COUNT>
4

> <JCHEM_RULE_OF_FIVE>
0

> <ALOGPS_SOLUBILITY>
3.39e-04 g/l

> <JCHEM_TRADITIONAL_IUPAC>
cannabigerol

> <JCHEM_VEBER_RULE>
1

> <DRUGBANK_ID>
DB14737

> <DRUG_GROUPS>
experimental; investigational

> <GENERIC_NAME>
Cannabinol

> <SYNONYMS>
6,6,9-Trimethyl-3-pentyl-6H-dibenzo(b,d)pyran-1-ol; Cannabinol; Cannabinolo; Cannabinolum; CBN

$$$$
