
  Mrv1909 07092018292D          

 41 45  0  0  0  0            999 V2000
    0.7735   -2.8261    0.0000 N   0  0  0  0  0  0  0  0  0  0  0  0
    1.3255   -2.2129    0.0000 C   0  0  0  0  0  0  0  0  0  0  0  0
    1.0706   -1.4283    0.0000 C   0  0  0  0  0  0  0  0  0  0  0  0
    0.2637   -1.2567    0.0000 N   0  0  0  0  0  0  0  0  0  0  0  0
   -0.2883   -1.8699    0.0000 C   0  0  0  0  0  0  0  0  0  0  0  0
   -0.0334   -2.6544    0.0000 C   0  0  0  0  0  0  0  0  0  0  0  0
    0.0088   -0.4721    0.0000 C   0  0  0  0  0  0  0  0  0  0  0  0
   -0.7980   -0.3004    0.0000 C   0  0  0  0  0  0  0  0  0  0  0  0
   -1.3502   -0.9135    0.0000 O   0  0  0  0  0  0  0  0  0  0  0  0
    0.5609    0.1409    0.0000 O   0  0  0  0  0  0  0  0  0  0  0  0
   -2.5520    1.9765    0.0000 C   0  0  0  0  0  0  0  0  0  0  0  0
   -1.8375    1.5640    0.0000 C   0  0  0  0  0  0  0  0  0  0  0  0
   -1.8375    0.7390    0.0000 C   0  0  0  0  0  0  0  0  0  0  0  0
   -2.5520    0.3265    0.0000 C   0  0  0  0  0  0  0  0  0  0  0  0
   -3.2665    0.7390    0.0000 C   0  0  0  0  0  0  0  0  0  0  0  0
   -3.2665    1.5640    0.0000 N   0  0  0  0  0  0  0  0  0  0  0  0
   -1.0529    1.8190    0.0000 N   0  0  0  0  0  0  0  0  0  0  0  0
   -1.0529    0.4841    0.0000 C   0  0  0  0  0  0  0  0  0  0  0  0
   -0.5680    1.1515    0.0000 C   0  0  0  0  0  0  0  0  0  0  0  0
   -0.7980    2.6036    0.0000 C   0  0  0  0  0  0  0  0  0  0  0  0
    0.0089    2.7752    0.0000 O   0  0  0  0  0  0  0  0  0  0  0  0
    0.2638    3.5598    0.0000 P   0  0  0  0  0  0  0  0  0  0  0  0
   -0.5207    3.8147    0.0000 O   0  0  0  0  0  0  0  0  0  0  0  0
    0.5188    4.3444    0.0000 O   0  0  0  0  0  0  0  0  0  0  0  0
    1.0486    3.3048    0.0000 O   0  0  0  0  0  0  0  0  0  0  0  0
   -2.5520    2.8015    0.0000 N   0  0  0  0  0  0  0  0  0  0  0  0
   -3.2195    3.2865    0.0000 N   0  0  0  0  0  0  0  0  0  0  0  0
   -2.9644    4.0711    0.0000 C   0  0  0  0  0  0  0  0  0  0  0  0
   -2.1395    4.0711    0.0000 N   0  0  0  0  0  0  0  0  0  0  0  0
   -1.8846    3.2865    0.0000 C   0  0  0  0  0  0  0  0  0  0  0  0
   -3.4494    4.7384    0.0000 C   0  0  0  0  0  0  0  0  0  0  0  0
   -2.5520   -0.4984    0.0000 O   0  0  0  0  0  0  0  0  0  0  0  0
   -3.2665   -0.9109    0.0000 C   0  0  0  0  0  0  0  0  0  0  0  0
    1.0284   -3.6107    0.0000 C   0  0  0  0  0  0  0  0  0  0  0  0
    1.8354   -3.7823    0.0000 C   0  0  0  0  0  0  0  0  0  0  0  0
    2.0903   -4.5669    0.0000 C   0  0  0  0  0  0  0  0  0  0  0  0
    2.8971   -4.7384    0.0000 C   0  0  0  0  0  0  0  0  0  0  0  0
    3.4494   -4.1255    0.0000 C   0  0  0  0  0  0  0  0  0  0  0  0
    3.1944   -3.3408    0.0000 C   0  0  0  0  0  0  0  0  0  0  0  0
    2.3874   -3.1692    0.0000 C   0  0  0  0  0  0  0  0  0  0  0  0
    0.4764   -4.2237    0.0000 O   0  0  0  0  0  0  0  0  0  0  0  0
  1  2  1  0  0  0  0
  2  3  1  0  0  0  0
  3  4  1  0  0  0  0
  4  5  1  0  0  0  0
  5  6  1  0  0  0  0
  1  6  1  0  0  0  0
  7  8  1  0  0  0  0
  8  9  2  0  0  0  0
  7 10  2  0  0  0  0
 11 12  1  0  0  0  0
 12 13  2  0  0  0  0
 13 14  1  0  0  0  0
 14 15  2  0  0  0  0
 15 16  1  0  0  0  0
 11 16  2  0  0  0  0
 18 19  2  0  0  0  0
 17 19  1  0  0  0  0
 12 17  1  0  0  0  0
 13 18  1  0  0  0  0
 22 23  1  0  0  0  0
 22 24  2  0  0  0  0
 22 25  1  0  0  0  0
 21 22  1  0  0  0  0
 20 21  1  0  0  0  0
 17 20  1  0  0  0  0
 26 27  1  0  0  0  0
 27 28  2  0  0  0  0
 28 29  1  0  0  0  0
 29 30  2  0  0  0  0
 26 30  1  0  0  0  0
 28 31  1  0  0  0  0
 11 26  1  0  0  0  0
 32 33  1  0  0  0  0
 14 32  1  0  0  0  0
  8 18  1  0  0  0  0
  4  7  1  0  0  0  0
 34 35  1  0  0  0  0
 35 36  1  0  0  0  0
 36 37  2  0  0  0  0
 37 38  1  0  0  0  0
 38 39  2  0  0  0  0
 39 40  1  0  0  0  0
 35 40  2  0  0  0  0
 34 41  2  0  0  0  0
  1 34  1  0  0  0  0
M  END
> <DATABASE_ID>
DB11796

> <DATABASE_NAME>
drugbank

> <SMILES>
COC1=CN=C(N2C=NC(C)=N2)C2=C1C(=CN2COP(O)(O)=O)C(=O)C(=O)N1CCN(CC1)C(=O)C1=CC=CC=C1

> <INCHI_IDENTIFIER>
InChI=1S/C25H26N7O8P/c1-16-27-14-32(28-16)23-21-20(19(39-2)12-26-23)18(13-31(21)15-40-41(36,37)38)22(33)25(35)30-10-8-29(9-11-30)24(34)17-6-4-3-5-7-17/h3-7,12-14H,8-11,15H2,1-2H3,(H2,36,37,38)

> <INCHI_KEY>
SWMDAPWAQQTBOG-UHFFFAOYSA-N

> <FORMULA>
C25H26N7O8P

> <MOLECULAR_WEIGHT>
583.498

> <EXACT_MASS>
583.158047823

> <JCHEM_ACCEPTOR_COUNT>
10

> <JCHEM_ATOM_COUNT>
67

> <JCHEM_AVERAGE_NEUTRAL_MICROSPECIES_CHARGE>
-1.8752875324282887

> <JCHEM_AVERAGE_POLARIZABILITY>
55.13247354638969

> <JCHEM_BIOAVAILABILITY>
1

> <JCHEM_DONOR_COUNT>
2

> <JCHEM_FORMAL_CHARGE>
0

> <JCHEM_GHOSE_FILTER>
0

> <JCHEM_IUPAC>
({3-[2-(4-benzoylpiperazin-1-yl)-2-oxoacetyl]-4-methoxy-7-(3-methyl-1H-1,2,4-triazol-1-yl)-1H-pyrrolo[2,3-c]pyridin-1-yl}methoxy)phosphonic acid

> <ALOGPS_LOGP>
0.64

> <JCHEM_LOGP>
-0.12604459585711464

> <ALOGPS_LOGS>
-3.13

> <JCHEM_MDDR_LIKE_RULE>
1

> <JCHEM_NEUTRAL_CHARGE>
-2

> <JCHEM_NUMBER_OF_RINGS>
5

> <JCHEM_PHYSIOLOGICAL_CHARGE>
-2

> <JCHEM_PKA>
6.454776090866793

> <JCHEM_PKA_STRONGEST_ACIDIC>
1.7505469206666673

> <JCHEM_PKA_STRONGEST_BASIC>
0.9714787080221842

> <JCHEM_POLAR_SURFACE_AREA>
182.20999999999995

> <JCHEM_REFRACTIVITY>
145.60099999999997

> <JCHEM_ROTATABLE_BOND_COUNT>
8

> <JCHEM_RULE_OF_FIVE>
0

> <ALOGPS_SOLUBILITY>
4.31e-01 g/l

> <JCHEM_TRADITIONAL_IUPAC>
(4R)-1-[(2R,4R,5R)-3,3-difluoro-4-hydroxy-5-(hydroxymethyl)oxolan-2-yl]-4-hydroxy-1,3-diazinan-2-one

> <JCHEM_VEBER_RULE>
0

> <DRUGBANK_ID>
DB11796

> <DRUG_GROUPS>
approved; investigational

> <GENERIC_NAME>
Fostemsavir

> <SYNONYMS>
Fostemsavir

> <PRODUCTS>
Rukobia

> <SALTS>
Fostemsavir tromethamine

$$$$
