
  Mrv1652312041601292D          

 79 78  0  0  0  0            999 V2000
   -4.0651    5.9330    0.0000 N   0  0  0  0  0  0  0  0  0  0  0  0
   -3.2805    6.1879    0.0000 C   0  0  0  0  0  0  0  0  0  0  0  0
   -3.2805    7.0129    0.0000 C   0  0  0  0  0  0  0  0  0  0  0  0
   -4.0651    7.2679    0.0000 N   0  0  0  0  0  0  0  0  0  0  0  0
   -4.5500    6.6004    0.0000 C   0  0  0  0  0  0  0  0  0  0  0  0
   -2.5660    7.4254    0.0000 C   0  0  0  0  0  0  0  0  0  0  0  0
   -1.8516    7.0129    0.0000 N   0  0  0  0  0  0  0  0  0  0  0  0
   -1.8516    6.1879    0.0000 C   0  0  0  0  0  0  0  0  0  0  0  0
   -2.5660    5.7754    0.0000 N   0  0  0  0  0  0  0  0  0  0  0  0
   -2.5660    8.2504    0.0000 O   0  0  0  0  0  0  0  0  0  0  0  0
   -4.3201    5.1484    0.0000 C   0  0  2  0  0  0  0  0  0  0  0  0
   -3.8351    4.4809    0.0000 O   0  0  0  0  0  0  0  0  0  0  0  0
   -4.3201    3.8135    0.0000 C   0  0  2  0  0  0  0  0  0  0  0  0
   -4.0651    3.0289    0.0000 C   0  0  0  0  0  0  0  0  0  0  0  0
   -3.2581    2.8573    0.0000 O   0  0  0  0  0  0  0  0  0  0  0  0
   -5.1047    4.0684    0.0000 C   0  0  2  0  0  0  0  0  0  0  0  0
   -5.1047    4.8934    0.0000 C   0  0  1  0  0  0  0  0  0  0  0  0
   -5.7721    5.3784    0.0000 O   0  0  0  0  0  0  0  0  0  0  0  0
   -5.7721    3.5835    0.0000 O   0  0  0  0  0  0  0  0  0  0  0  0
    0.7485    6.1560    0.0000 C   0  0  0  0  0  0  0  0  0  0  0  0
    1.4630    5.7435    0.0000 C   0  0  0  0  0  0  0  0  0  0  0  0
    1.4630    4.9185    0.0000 C   0  0  0  0  0  0  0  0  0  0  0  0
    0.7485    4.5060    0.0000 C   0  0  0  0  0  0  0  0  0  0  0  0
    0.7485    3.6810    0.0000 C   0  0  0  0  0  0  0  0  0  0  0  0
    0.0341    3.2685    0.0000 O   0  0  0  0  0  0  0  0  0  0  0  0
    1.4630    3.2685    0.0000 O   0  0  0  0  0  0  0  0  0  0  0  0
    0.0341    4.9185    0.0000 C   0  0  0  0  0  0  0  0  0  0  0  0
    0.0341    5.7435    0.0000 C   0  0  0  0  0  0  0  0  0  0  0  0
    0.7485    6.9810    0.0000 N   0  0  0  0  0  0  0  0  0  0  0  0
    1.4630    7.3935    0.0000 C   0  0  0  0  0  0  0  0  0  0  0  0
    1.4630    8.2185    0.0000 C   0  0  0  0  0  0  0  0  0  0  0  0
    2.1775    6.9810    0.0000 O   0  0  0  0  0  0  0  0  0  0  0  0
    5.7721    5.5214    0.0000 C   0  0  0  0  0  0  0  0  0  0  0  0
    5.3596    6.2359    0.0000 N   0  0  0  0  0  0  0  0  0  0  0  0
    5.7721    6.9504    0.0000 C   0  0  0  0  0  0  0  0  0  0  0  0
    4.5346    6.2359    0.0000 C   0  0  0  0  0  0  0  0  0  0  0  0
    5.3596    4.8070    0.0000 C   0  0  1  0  0  0  0  0  0  0  0  0
    5.7721    4.0925    0.0000 C   0  0  0  0  0  0  0  0  0  0  0  0
    4.5346    4.8070    0.0000 O   0  0  0  0  0  0  0  0  0  0  0  0
   -4.0195   -0.8551    0.0000 C   0  0  0  0  0  0  0  0  0  0  0  0
   -3.3051   -1.2676    0.0000 C   0  0  0  0  0  0  0  0  0  0  0  0
   -3.3051   -2.0926    0.0000 C   0  0  0  0  0  0  0  0  0  0  0  0
   -4.0195   -2.5051    0.0000 C   0  0  0  0  0  0  0  0  0  0  0  0
   -4.0195   -3.3301    0.0000 C   0  0  0  0  0  0  0  0  0  0  0  0
   -4.7340   -3.7426    0.0000 O   0  0  0  0  0  0  0  0  0  0  0  0
   -3.3051   -3.7426    0.0000 O   0  0  0  0  0  0  0  0  0  0  0  0
   -4.7340   -2.0926    0.0000 C   0  0  0  0  0  0  0  0  0  0  0  0
   -4.7340   -1.2676    0.0000 C   0  0  0  0  0  0  0  0  0  0  0  0
   -4.0195   -0.0301    0.0000 N   0  0  0  0  0  0  0  0  0  0  0  0
   -3.3051    0.3823    0.0000 C   0  0  0  0  0  0  0  0  0  0  0  0
   -3.3051    1.2073    0.0000 C   0  0  0  0  0  0  0  0  0  0  0  0
   -2.5906   -0.0301    0.0000 O   0  0  0  0  0  0  0  0  0  0  0  0
    0.0095   -0.8551    0.0000 C   0  0  0  0  0  0  0  0  0  0  0  0
    0.7239   -1.2676    0.0000 C   0  0  0  0  0  0  0  0  0  0  0  0
    0.7239   -2.0926    0.0000 C   0  0  0  0  0  0  0  0  0  0  0  0
    0.0095   -2.5051    0.0000 C   0  0  0  0  0  0  0  0  0  0  0  0
    0.0095   -3.3301    0.0000 C   0  0  0  0  0  0  0  0  0  0  0  0
   -0.7049   -3.7426    0.0000 O   0  0  0  0  0  0  0  0  0  0  0  0
    0.7239   -3.7426    0.0000 O   0  0  0  0  0  0  0  0  0  0  0  0
   -0.7049   -2.0926    0.0000 C   0  0  0  0  0  0  0  0  0  0  0  0
   -0.7049   -1.2676    0.0000 C   0  0  0  0  0  0  0  0  0  0  0  0
    0.0095   -0.0301    0.0000 N   0  0  0  0  0  0  0  0  0  0  0  0
    0.7239    0.3823    0.0000 C   0  0  0  0  0  0  0  0  0  0  0  0
    0.7239    1.2073    0.0000 C   0  0  0  0  0  0  0  0  0  0  0  0
    1.4384   -0.0301    0.0000 O   0  0  0  0  0  0  0  0  0  0  0  0
    5.0331   -1.4897    0.0000 C   0  0  0  0  0  0  0  0  0  0  0  0
    4.6206   -0.7752    0.0000 C   0  0  1  0  0  0  0  0  0  0  0  0
    5.0331   -0.0607    0.0000 C   0  0  0  0  0  0  0  0  0  0  0  0
    3.7956   -0.7752    0.0000 O   0  0  0  0  0  0  0  0  0  0  0  0
    4.6206   -2.2041    0.0000 N   0  0  0  0  0  0  0  0  0  0  0  0
    5.0331   -2.9186    0.0000 C   0  0  0  0  0  0  0  0  0  0  0  0
    3.7956   -2.2041    0.0000 C   0  0  0  0  0  0  0  0  0  0  0  0
   -3.3283   -6.8215    0.0000 C   0  0  0  0  0  0  0  0  0  0  0  0
   -3.7408   -6.1070    0.0000 C   0  0  1  0  0  0  0  0  0  0  0  0
   -3.3283   -5.3926    0.0000 C   0  0  0  0  0  0  0  0  0  0  0  0
   -4.5658   -6.1070    0.0000 O   0  0  0  0  0  0  0  0  0  0  0  0
   -3.7408   -7.5360    0.0000 N   0  0  0  0  0  0  0  0  0  0  0  0
   -3.3283   -8.2504    0.0000 C   0  0  0  0  0  0  0  0  0  0  0  0
   -4.5658   -7.5360    0.0000 C   0  0  0  0  0  0  0  0  0  0  0  0
  1  2  1  0  0  0  0
  2  3  2  0  0  0  0
  3  4  1  0  0  0  0
  4  5  2  0  0  0  0
  1  5  1  0  0  0  0
  3  6  1  0  0  0  0
  6  7  1  0  0  0  0
  7  8  1  0  0  0  0
  8  9  2  0  0  0  0
  2  9  1  0  0  0  0
  6 10  2  0  0  0  0
 11  1  1  6  0  0  0
 11 12  1  0  0  0  0
 12 13  1  0  0  0  0
 13 14  1  6  0  0  0
 14 15  1  0  0  0  0
 13 16  1  0  0  0  0
 16 17  1  0  0  0  0
 11 17  1  0  0  0  0
 17 18  1  1  0  0  0
 16 19  1  1  0  0  0
 20 21  2  0  0  0  0
 21 22  1  0  0  0  0
 22 23  2  0  0  0  0
 23 24  1  0  0  0  0
 24 25  1  0  0  0  0
 24 26  2  0  0  0  0
 23 27  1  0  0  0  0
 27 28  2  0  0  0  0
 20 28  1  0  0  0  0
 20 29  1  0  0  0  0
 29 30  1  0  0  0  0
 30 31  1  0  0  0  0
 30 32  2  0  0  0  0
 33 34  1  0  0  0  0
 34 35  1  0  0  0  0
 34 36  1  0  0  0  0
 33 37  1  0  0  0  0
 37 38  1  0  0  0  0
 37 39  1  1  0  0  0
 40 41  2  0  0  0  0
 41 42  1  0  0  0  0
 42 43  2  0  0  0  0
 43 44  1  0  0  0  0
 44 45  1  0  0  0  0
 44 46  2  0  0  0  0
 43 47  1  0  0  0  0
 47 48  2  0  0  0  0
 40 48  1  0  0  0  0
 40 49  1  0  0  0  0
 49 50  1  0  0  0  0
 50 51  1  0  0  0  0
 50 52  2  0  0  0  0
 53 54  2  0  0  0  0
 54 55  1  0  0  0  0
 55 56  2  0  0  0  0
 56 57  1  0  0  0  0
 57 58  1  0  0  0  0
 57 59  2  0  0  0  0
 56 60  1  0  0  0  0
 60 61  2  0  0  0  0
 53 61  1  0  0  0  0
 53 62  1  0  0  0  0
 62 63  1  0  0  0  0
 63 64  1  0  0  0  0
 63 65  2  0  0  0  0
 66 67  1  0  0  0  0
 67 68  1  0  0  0  0
 67 69  1  6  0  0  0
 66 70  1  0  0  0  0
 70 71  1  0  0  0  0
 70 72  1  0  0  0  0
 73 74  1  0  0  0  0
 74 75  1  0  0  0  0
 74 76  1  6  0  0  0
 73 77  1  0  0  0  0
 77 78  1  0  0  0  0
 77 79  1  0  0  0  0
M  END
> <DATABASE_ID>
DB13156

> <DATABASE_NAME>
drugbank

> <SMILES>
C[C@@H](O)CN(C)C.C[C@@H](O)CN(C)C.C[C@@H](O)CN(C)C.CC(=O)NC1=CC=C(C=C1)C(O)=O.CC(=O)NC1=CC=C(C=C1)C(O)=O.CC(=O)NC1=CC=C(C=C1)C(O)=O.OC[C@H]1O[C@H]([C@H](O)[C@@H]1O)N1C=NC2=C1N=CNC2=O

> <INCHI_IDENTIFIER>
InChI=1S/C10H12N4O5.3C9H9NO3.3C5H13NO/c15-1-4-6(16)7(17)10(19-4)14-3-13-5-8(14)11-2-12-9(5)18;3*1-6(11)10-8-4-2-7(3-5-8)9(12)13;3*1-5(7)4-6(2)3/h2-4,6-7,10,15-17H,1H2,(H,11,12,18);3*2-5H,1H3,(H,10,11)(H,12,13);3*5,7H,4H2,1-3H3/t4-,6-,7-,10-;;;;3*5-/m1...111/s1

> <INCHI_KEY>
YLDCUKJMEKGGFI-KSIULYHRSA-N

> <FORMULA>
C52H78N10O17

> <MOLECULAR_WEIGHT>
1115.249

> <EXACT_MASS>
1114.554641092

> <JCHEM_ACCEPTOR_COUNT>
7

> <JCHEM_ATOM_COUNT>
157

> <JCHEM_AVERAGE_POLARIZABILITY>
24.600757732013097

> <JCHEM_BIOAVAILABILITY>
0

> <JCHEM_DONOR_COUNT>
4

> <JCHEM_FORMAL_CHARGE>
0

> <JCHEM_GHOSE_FILTER>
0

> <JCHEM_IUPAC>
tris((2R)-1-(dimethylamino)propan-2-ol); tris(4-acetamidobenzoic acid); 9-[(2R,3R,4S,5R)-3,4-dihydroxy-5-(hydroxymethyl)oxolan-2-yl]-6,9-dihydro-1H-purin-6-one

> <ALOGPS_LOGP>
-1.87

> <JCHEM_LOGP>
-2.478538037

> <ALOGPS_LOGS>
-1.29

> <JCHEM_MDDR_LIKE_RULE>
1

> <JCHEM_NUMBER_OF_RINGS>
6

> <JCHEM_PHYSIOLOGICAL_CHARGE>
0

> <JCHEM_PKA>
12.454979356749803

> <JCHEM_PKA_STRONGEST_ACIDIC>
8.933800328202848

> <JCHEM_PKA_STRONGEST_BASIC>
0.5841825278192563

> <JCHEM_POLAR_SURFACE_AREA>
129.20000000000002

> <JCHEM_REFRACTIVITY>
61.33180000000001

> <JCHEM_ROTATABLE_BOND_COUNT>
14

> <JCHEM_RULE_OF_FIVE>
0

> <ALOGPS_SOLUBILITY>
1.38e+01 g/l

> <JCHEM_TRADITIONAL_IUPAC>
tris((2R)-1-(dimethylamino)propan-2-ol); tris(4-acetamidobenzoic acid); 9-[(2R,3R,4S,5R)-3,4-dihydroxy-5-(hydroxymethyl)oxolan-2-yl]-1H-purin-6-one

> <JCHEM_VEBER_RULE>
0

> <DRUGBANK_ID>
DB13156

> <DRUG_GROUPS>
approved

> <GENERIC_NAME>
Inosine pranobex

> <SYNONYMS>
IAD; Inosine acedobene dimepranol; Inosine pranobex; Inosine-2-hydroxypropyldimethylammonium 4-acetamidobenzoate (1:3); Inosiplex; Isoprinosine; Methisoprinol

> <PRODUCTS>
Imunovir; Isoprinosine; Isoprinosine Tab 500mg

$$$$
