
  Mrv1652310201623552D          

 26 26  0  0  1  0            999 V2000
    3.5724   -1.2375    0.0000 C   0  0  0  0  0  0  0  0  0  0  0  0
    3.5724   -2.0625    0.0000 C   0  0  0  0  0  0  0  0  0  0  0  0
    4.2868   -2.4750    0.0000 C   0  0  2  0  0  0  0  0  0  0  0  0
    5.0013   -2.0625    0.0000 C   0  0  0  0  0  0  0  0  0  0  0  0
    5.7158   -2.4750    0.0000 O   0  0  0  0  0  0  0  0  0  0  0  0
    5.0013   -1.2375    0.0000 O   0  0  0  0  0  0  0  0  0  0  0  0
    5.7158   -0.8250    0.0000 C   0  0  0  0  0  0  0  0  0  0  0  0
    5.7158    0.0000    0.0000 C   0  0  0  0  0  0  0  0  0  0  0  0
    6.4302    0.4125    0.0000 C   0  0  0  0  0  0  0  0  0  0  0  0
    7.1447    0.0000    0.0000 C   0  0  0  0  0  0  0  0  0  0  0  0
    7.1447   -0.8250    0.0000 C   0  0  0  0  0  0  0  0  0  0  0  0
    6.4302   -1.2375    0.0000 C   0  0  0  0  0  0  0  0  0  0  0  0
    6.4302   -2.0625    0.0000 O   0  0  0  0  0  0  0  0  0  0  0  0
    7.1447   -2.4750    0.0000 C   0  0  0  0  0  0  0  0  0  0  0  0
    7.8592    0.4125    0.0000 C   0  0  0  0  0  0  0  0  0  0  0  0
    5.0013    0.4125    0.0000 O   0  0  0  0  0  0  0  0  0  0  0  0
    4.2868    0.0000    0.0000 C   0  0  0  0  0  0  0  0  0  0  0  0
    4.2868   -3.3000    0.0000 N   0  0  0  0  0  0  0  0  0  0  0  0
    3.5724   -3.7125    0.0000 C   0  0  0  0  0  0  0  0  0  0  0  0
    3.5724   -4.5375    0.0000 C   0  0  0  0  0  0  0  0  0  0  0  0
    2.8579   -4.9500    0.0000 O   0  0  0  0  0  0  0  0  0  0  0  0
    2.8579   -5.7750    0.0000 C   0  0  0  0  0  0  0  0  0  0  0  0
    5.0013   -3.7125    0.0000 C   0  0  0  0  0  0  0  0  0  0  0  0
    5.0013   -4.5375    0.0000 C   0  0  0  0  0  0  0  0  0  0  0  0
    5.7158   -4.9500    0.0000 O   0  0  0  0  0  0  0  0  0  0  0  0
    5.7158   -5.7750    0.0000 C   0  0  0  0  0  0  0  0  0  0  0  0
  1  2  1  0  0  0  0
  2  3  1  0  0  0  0
  3  4  1  0  0  0  0
  4  5  2  0  0  0  0
  4  6  1  0  0  0  0
  6  7  1  0  0  0  0
  7  8  2  0  0  0  0
  8  9  1  0  0  0  0
  9 10  2  0  0  0  0
 10 11  1  0  0  0  0
 11 12  2  0  0  0  0
  7 12  1  0  0  0  0
 12 13  1  0  0  0  0
 13 14  1  0  0  0  0
 10 15  1  0  0  0  0
  8 16  1  0  0  0  0
 16 17  1  0  0  0  0
  3 18  1  6  0  0  0
 18 19  1  0  0  0  0
 19 20  1  0  0  0  0
 20 21  1  0  0  0  0
 21 22  1  0  0  0  0
 18 23  1  0  0  0  0
 23 24  1  0  0  0  0
 24 25  1  0  0  0  0
 25 26  1  0  0  0  0
M  END
> <DATABASE_ID>
DB12312

> <DATABASE_NAME>
drugbank

> <SMILES>
CC[C@@H](N(CCOC)CCOC)C(=O)OC1=C(OC)C=C(C)C=C1OC

> <INCHI_IDENTIFIER>
InChI=1S/C19H31NO6/c1-7-15(20(8-10-22-3)9-11-23-4)19(21)26-18-16(24-5)12-14(2)13-17(18)25-6/h12-13,15H,7-11H2,1-6H3/t15-/m1/s1

> <INCHI_KEY>
GKRFHHRXDUACIN-OAHLLOKOSA-N

> <FORMULA>
C19H31NO6

> <MOLECULAR_WEIGHT>
369.458

> <EXACT_MASS>
369.215137722

> <JCHEM_ACCEPTOR_COUNT>
6

> <JCHEM_ATOM_COUNT>
57

> <JCHEM_AVERAGE_POLARIZABILITY>
40.45112689840327

> <JCHEM_BIOAVAILABILITY>
1

> <JCHEM_DONOR_COUNT>
0

> <JCHEM_FORMAL_CHARGE>
0

> <JCHEM_GHOSE_FILTER>
1

> <JCHEM_IUPAC>
2,6-dimethoxy-4-methylphenyl (2R)-2-[bis(2-methoxyethyl)amino]butanoate

> <ALOGPS_LOGP>
2.03

> <JCHEM_LOGP>
2.667419757333332

> <ALOGPS_LOGS>
-3.55

> <JCHEM_MDDR_LIKE_RULE>
0

> <JCHEM_NUMBER_OF_RINGS>
1

> <JCHEM_PHYSIOLOGICAL_CHARGE>
0

> <JCHEM_PKA_STRONGEST_BASIC>
6.2728684917715265

> <JCHEM_POLAR_SURFACE_AREA>
66.46000000000001

> <JCHEM_REFRACTIVITY>
99.6919

> <JCHEM_ROTATABLE_BOND_COUNT>
13

> <JCHEM_RULE_OF_FIVE>
1

> <ALOGPS_SOLUBILITY>
1.04e-01 g/l

> <JCHEM_TRADITIONAL_IUPAC>
2,6-dimethoxy-4-methylphenyl (2R)-2-[bis(2-methoxyethyl)amino]butanoate

> <JCHEM_VEBER_RULE>
0

> <DRUGBANK_ID>
DB12312

> <DRUG_GROUPS>
investigational

> <GENERIC_NAME>
ORG-25435

$$$$
