
  Mrv1652306131722002D          

 46 52  0  0  1  0            999 V2000
    4.5291   -5.3786    0.0000 C   0  0  0  0  0  0  0  0  0  0  0  0
    4.5291   -4.5536    0.0000 C   0  0  0  0  0  0  0  0  0  0  0  0
    3.8146   -4.1411    0.0000 N   0  0  0  0  0  0  0  0  0  0  0  0
    3.1001   -4.5536    0.0000 C   0  0  0  0  0  0  0  0  0  0  0  0
    2.3856   -4.1411    0.0000 C   0  0  0  0  0  0  0  0  0  0  0  0
    3.8146   -3.3161    0.0000 C   0  0  0  0  0  0  0  0  0  0  0  0
    3.1001   -2.9036    0.0000 C   0  0  0  0  0  0  0  0  0  0  0  0
    3.1001   -2.0786    0.0000 N   0  0  0  0  0  0  0  0  0  0  0  0
    3.7676   -1.5937    0.0000 C   0  0  0  0  0  0  0  0  0  0  0  0
    4.5522   -1.8486    0.0000 O   0  0  0  0  0  0  0  0  0  0  0  0
    3.5126   -0.8091    0.0000 C   0  0  0  0  0  0  0  0  0  0  0  0
    3.9251   -0.0946    0.0000 C   0  0  0  0  0  0  0  0  0  0  0  0
    4.7321    0.0769    0.0000 C   0  0  0  0  0  0  0  0  0  0  0  0
    5.3995   -0.4080    0.0000 C   0  0  0  0  0  0  0  0  0  0  0  0
    6.1532   -0.0724    0.0000 C   0  0  0  0  0  0  0  0  0  0  0  0
    6.2394    0.7481    0.0000 C   0  0  0  0  0  0  0  0  0  0  0  0
    5.5720    1.2330    0.0000 C   0  0  0  0  0  0  0  0  0  0  0  0
    4.8183    0.8974    0.0000 C   0  0  0  0  0  0  0  0  0  0  0  0
    4.0647    1.2330    0.0000 N   0  0  0  0  0  0  0  0  0  0  0  0
    3.5126    0.6199    0.0000 C   0  0  0  0  0  0  0  0  0  0  0  0
    2.6876    0.6199    0.0000 C   0  0  0  0  0  0  0  0  0  0  0  0
    2.2751   -0.0946    0.0000 C   0  0  0  0  0  0  0  0  0  0  0  0
    2.6876   -0.8091    0.0000 C   0  0  0  0  0  0  0  0  0  0  0  0
    2.4327   -1.5937    0.0000 C   0  0  0  0  0  0  0  0  0  0  0  0
    1.6481   -1.8486    0.0000 O   0  0  0  0  0  0  0  0  0  0  0  0
    1.4681    0.0769    0.0000 C   0  0  0  0  0  0  0  0  0  0  0  0
    0.8007   -0.4080    0.0000 C   0  0  0  0  0  0  0  0  0  0  0  0
    0.0470   -0.0724    0.0000 C   0  0  0  0  0  0  0  0  0  0  0  0
   -0.0392    0.7481    0.0000 C   0  0  0  0  0  0  0  0  0  0  0  0
    0.6282    1.2330    0.0000 C   0  0  0  0  0  0  0  0  0  0  0  0
    1.3819    0.8974    0.0000 C   0  0  0  0  0  0  0  0  0  0  0  0
    2.1356    1.2330    0.0000 N   0  0  0  0  0  0  0  0  0  0  0  0
    2.3071    2.0400    0.0000 C   0  0  1  0  0  0  0  0  0  0  0  0
    1.6940    2.5920    0.0000 C   0  0  1  0  0  0  0  0  0  0  0  0
    1.8655    3.3990    0.0000 C   0  0  2  0  0  0  0  0  0  0  0  0
    2.6502    3.6539    0.0000 C   0  0  1  0  0  0  0  0  0  0  0  0
    3.2633    3.1019    0.0000 C   0  0  2  0  0  0  0  0  0  0  0  0
    3.0917    2.2949    0.0000 O   0  0  0  0  0  0  0  0  0  0  0  0
    4.0479    3.3568    0.0000 C   0  0  0  0  0  0  0  0  0  0  0  0
    4.6610    2.8048    0.0000 O   0  0  0  0  0  0  0  0  0  0  0  0
    2.8217    4.4609    0.0000 O   0  0  0  0  0  0  0  0  0  0  0  0
    2.2086    5.0129    0.0000 C   0  0  0  0  0  0  0  0  0  0  0  0
    1.2525    3.9510    0.0000 O   0  0  0  0  0  0  0  0  0  0  0  0
    0.9094    2.3370    0.0000 O   0  0  0  0  0  0  0  0  0  0  0  0
    0.5420    2.0535    0.0000 Cl  0  0  0  0  0  0  0  0  0  0  0  0
    5.6582    2.0535    0.0000 Cl  0  0  0  0  0  0  0  0  0  0  0  0
  1  2  1  0  0  0  0
  2  3  1  0  0  0  0
  3  4  1  0  0  0  0
  4  5  1  0  0  0  0
  3  6  1  0  0  0  0
  6  7  1  0  0  0  0
  7  8  1  0  0  0  0
  8  9  1  0  0  0  0
  9 10  2  0  0  0  0
  9 11  1  0  0  0  0
 11 12  1  0  0  0  0
 12 13  1  0  0  0  0
 13 14  1  0  0  0  0
 14 15  2  0  0  0  0
 15 16  1  0  0  0  0
 16 17  2  0  0  0  0
 17 18  1  0  0  0  0
 13 18  2  0  0  0  0
 18 19  1  0  0  0  0
 19 20  1  0  0  0  0
 12 20  2  0  0  0  0
 20 21  1  0  0  0  0
 21 22  2  0  0  0  0
 22 23  1  0  0  0  0
 11 23  2  0  0  0  0
 23 24  1  0  0  0  0
  8 24  1  0  0  0  0
 24 25  2  0  0  0  0
 22 26  1  0  0  0  0
 26 27  2  0  0  0  0
 27 28  1  0  0  0  0
 28 29  2  0  0  0  0
 29 30  1  0  0  0  0
 30 31  2  0  0  0  0
 26 31  1  0  0  0  0
 31 32  1  0  0  0  0
 21 32  1  0  0  0  0
 33 32  1  1  0  0  0
 33 34  1  0  0  0  0
 34 35  1  0  0  0  0
 35 36  1  0  0  0  0
 36 37  1  0  0  0  0
 37 38  1  0  0  0  0
 33 38  1  0  0  0  0
 37 39  1  1  0  0  0
 39 40  1  0  0  0  0
 36 41  1  6  0  0  0
 41 42  1  0  0  0  0
 35 43  1  1  0  0  0
 34 44  1  6  0  0  0
 30 45  1  0  0  0  0
 17 46  1  0  0  0  0
M  END
> <DATABASE_ID>
DB06362

> <DATABASE_NAME>
drugbank

> <SMILES>
CCN(CC)CCN1C(=O)C2=C(C1=O)C1=C(N([C@@H]3O[C@H](CO)[C@@H](OC)[C@H](O)[C@H]3O)C3=C(Cl)C=CC=C13)C1=C2C2=C(N1)C(Cl)=CC=C2

> <INCHI_IDENTIFIER>
InChI=1S/C33H34Cl2N4O7/c1-4-37(5-2)12-13-38-31(43)22-20-15-8-6-10-17(34)24(15)36-25(20)27-21(23(22)32(38)44)16-9-7-11-18(35)26(16)39(27)33-29(42)28(41)30(45-3)19(14-40)46-33/h6-11,19,28-30,33,36,40-42H,4-5,12-14H2,1-3H3/t19-,28-,29-,30-,33-/m1/s1

> <INCHI_KEY>
JSKFWUPVIZYJMR-UDOAKELVSA-N

> <FORMULA>
C33H34Cl2N4O7

> <MOLECULAR_WEIGHT>
669.56

> <EXACT_MASS>
668.1804549

> <JCHEM_ACCEPTOR_COUNT>
8

> <JCHEM_ATOM_COUNT>
80

> <JCHEM_AVERAGE_POLARIZABILITY>
69.42587278220864

> <JCHEM_BIOAVAILABILITY>
1

> <JCHEM_DONOR_COUNT>
4

> <JCHEM_FORMAL_CHARGE>
0

> <JCHEM_GHOSE_FILTER>
0

> <JCHEM_IUPAC>
5,21-dichloro-13-[2-(diethylamino)ethyl]-3-[(2R,3R,4R,5S,6R)-3,4-dihydroxy-6-(hydroxymethyl)-5-methoxyoxan-2-yl]-3,13,23-triazahexacyclo[14.7.0.0^{2,10}.0^{4,9}.0^{11,15}.0^{17,22}]tricosa-1(16),2(10),4,6,8,11(15),17(22),18,20-nonaene-12,14-dione

> <ALOGPS_LOGP>
4.14

> <JCHEM_LOGP>
3.545569055

> <ALOGPS_LOGS>
-4.71

> <JCHEM_MDDR_LIKE_RULE>
1

> <JCHEM_NUMBER_OF_RINGS>
7

> <JCHEM_PHYSIOLOGICAL_CHARGE>
1

> <JCHEM_PKA>
12.575554330090334

> <JCHEM_PKA_STRONGEST_ACIDIC>
11.858901879474164

> <JCHEM_PKA_STRONGEST_BASIC>
9.065725300069987

> <JCHEM_POLAR_SURFACE_AREA>
140.49

> <JCHEM_REFRACTIVITY>
173.4758

> <JCHEM_ROTATABLE_BOND_COUNT>
8

> <JCHEM_RULE_OF_FIVE>
0

> <ALOGPS_SOLUBILITY>
1.32e-02 g/l

> <JCHEM_TRADITIONAL_IUPAC>
5,21-dichloro-13-[2-(diethylamino)ethyl]-3-[(2R,3R,4R,5S,6R)-3,4-dihydroxy-6-(hydroxymethyl)-5-methoxyoxan-2-yl]-3,13,23-triazahexacyclo[14.7.0.0^{2,10}.0^{4,9}.0^{11,15}.0^{17,22}]tricosa-1(16),2(10),4,6,8,11(15),17(22),18,20-nonaene-12,14-dione

> <JCHEM_VEBER_RULE>
0

> <DRUGBANK_ID>
DB06362

> <DRUG_GROUPS>
investigational

> <GENERIC_NAME>
Becatecarin

> <SYNONYMS>
Becatecarin

$$$$
