
  Mrv1572004221603202D          

 74 81  0  0  1  0            999 V2000
    3.4312    5.5976    0.0000 C   0  0  0  0  0  0  0  0  0  0  0  0
    6.1191    4.6266    0.0000 C   0  0  0  0  0  0  0  0  0  0  0  0
    5.0555    5.8881    0.0000 C   0  0  0  0  0  0  0  0  0  0  0  0
    3.9055    0.6018    0.0000 C   0  0  0  0  0  0  0  0  0  0  0  0
    1.3895    0.1997    0.0000 C   0  0  0  0  0  0  0  0  0  0  0  0
    2.0873    6.0831    0.0000 C   0  0  0  0  0  0  0  0  0  0  0  0
    3.9343    2.7844    0.0000 C   0  0  0  0  0  0  0  0  0  0  0  0
    3.1221    2.6391    0.0000 C   0  0  0  0  0  0  0  0  0  0  0  0
    5.5297    0.8922    0.0000 C   0  0  0  0  0  0  0  0  0  0  0  0
    0.6955    1.7614    0.0000 C   0  0  0  0  0  0  0  0  0  0  0  0
    4.7176    0.7470    0.0000 C   0  0  0  0  0  0  0  0  0  0  0  0
    1.3784    2.2244    0.0000 C   0  0  0  0  0  0  0  0  0  0  0  0
    0.6478   -0.4749    0.0000 C   0  0  0  0  0  0  0  0  0  0  0  0
    5.2782    2.2989    0.0000 C   0  0  0  0  0  0  0  0  0  0  0  0
    3.0934    0.4566    0.0000 C   0  0  0  0  0  0  0  0  0  0  0  0
    4.2721    7.9254    0.0000 C   0  0  0  0  0  0  0  0  0  0  0  0
    7.7146    2.7345    0.0000 C   0  0  0  0  0  0  0  0  0  0  0  0
    7.4918    6.3237    0.0000 C   0  0  0  0  0  0  0  0  0  0  0  0
   -0.4061    0.3444    0.0000 C   0  0  0  0  0  0  0  0  0  0  0  0
    3.7115    6.3735    0.0000 C   0  0  2  0  0  0  0  0  0  0  0  0
    6.6509    3.9959    0.0000 C   0  0  2  0  0  0  0  0  0  0  0  0
    5.8676    6.0333    0.0000 C   0  0  2  0  0  0  0  0  0  0  0  0
    0.4185    0.3176    0.0000 C   0  0  0  0  0  0  0  0  0  0  0  0
    4.4661    2.1537    0.0000 C   0  0  2  0  0  0  0  0  0  0  0  0
    5.8100    1.6682    0.0000 C   0  0  1  0  0  0  0  0  0  0  0  0
    0.9249    0.9689    0.0000 C   0  0  2  0  0  0  0  0  0  0  0  0
    2.8418    1.8632    0.0000 C   0  0  2  0  0  0  0  0  0  0  0  0
    3.3737    1.2325    0.0000 C   0  0  1  0  0  0  0  0  0  0  0  0
    3.4600    7.7802    0.0000 C   0  0  1  0  0  0  0  0  0  0  0  0
    7.9949    3.5104    0.0000 C   0  0  1  0  0  0  0  0  0  0  0  0
    6.9600    6.9544    0.0000 C   0  0  1  0  0  0  0  0  0  0  0  0
    2.2812    0.3114    0.0000 C   0  0  2  0  0  0  0  0  0  0  0  0
   -0.0350   -0.9379    0.0000 C   0  0  0  0  0  0  0  0  0  0  0  0
    6.9024    2.5893    0.0000 C   0  0  1  0  0  0  0  0  0  0  0  0
    4.8039    7.2947    0.0000 C   0  0  1  0  0  0  0  0  0  0  0  0
    7.2115    5.5478    0.0000 C   0  0  1  0  0  0  0  0  0  0  0  0
    3.1797    7.0043    0.0000 C   0  0  2  0  0  0  0  0  0  0  0  0
    7.4630    4.1411    0.0000 C   0  0  2  0  0  0  0  0  0  0  0  0
    6.1479    6.8092    0.0000 C   0  0  2  0  0  0  0  0  0  0  0  0
    4.1858    1.3777    0.0000 C   0  0  2  0  0  0  0  0  0  0  0  0
    1.7494    0.9421    0.0000 C   0  0  2  0  0  0  0  0  0  0  0  0
    2.0297    1.7180    0.0000 C   0  0  2  0  0  0  0  0  0  0  0  0
    2.9282    8.4109    0.0000 O   0  0  0  0  0  0  0  0  0  0  0  0
    8.8070    3.6557    0.0000 O   0  0  0  0  0  0  0  0  0  0  0  0
    7.2403    7.7303    0.0000 O   0  0  0  0  0  0  0  0  0  0  0  0
    2.0009   -0.4646    0.0000 O   0  0  0  0  0  0  0  0  0  0  0  0
   -0.0618   -1.7625    0.0000 O   0  0  0  0  0  0  0  0  0  0  0  0
    2.2274    2.5190    0.0000 O   0  0  0  0  0  0  0  0  0  0  0  0
    2.3676    6.8590    0.0000 O   0  0  0  0  0  0  0  0  0  0  0  0
   -0.6864   -0.4316    0.0000 O   0  0  0  0  0  0  0  0  0  0  0  0
    4.5236    6.5188    0.0000 O   0  0  0  0  0  0  0  0  0  0  0  0
    6.3706    3.2200    0.0000 O   0  0  0  0  0  0  0  0  0  0  0  0
    6.3994    5.4026    0.0000 O   0  0  0  0  0  0  0  0  0  0  0  0
    6.6221    1.8134    0.0000 O   0  0  0  0  0  0  0  0  0  0  0  0
    5.6161    7.4399    0.0000 O   0  0  0  0  0  0  0  0  0  0  0  0
    7.7433    4.9171    0.0000 O   0  0  0  0  0  0  0  0  0  0  0  0
    2.8994    6.2283    0.0000 H   0  0  0  0  0  0  0  0  0  0  0  0
    6.9312    4.7719    0.0000 H   0  0  0  0  0  0  0  0  0  0  0  0
    5.3358    6.6640    0.0000 H   0  0  0  0  0  0  0  0  0  0  0  0
    4.9979    1.5229    0.0000 H   0  0  0  0  0  0  0  0  0  0  0  0
    6.0903    2.4441    0.0000 H   0  0  0  0  0  0  0  0  0  0  0  0
    0.1146    1.1244    0.0000 H   0  0  0  0  0  0  0  0  0  0  0  0
    3.6540    2.0084    0.0000 H   0  0  0  0  0  0  0  0  0  0  0  0
    2.5615    1.0873    0.0000 H   0  0  0  0  0  0  0  0  0  0  0  0
    2.6479    7.6350    0.0000 H   0  0  0  0  0  0  0  0  0  0  0  0
    8.2752    4.2864    0.0000 H   0  0  0  0  0  0  0  0  0  0  0  0
    6.4282    7.5851    0.0000 H   0  0  0  0  0  0  0  0  0  0  0  0
    2.8131   -0.3193    0.0000 H   0  0  0  0  0  0  0  0  0  0  0  0
    7.1827    3.3652    0.0000 H   0  0  0  0  0  0  0  0  0  0  0  0
    3.9918    7.1495    0.0000 H   0  0  0  0  0  0  0  0  0  0  0  0
    6.6797    6.1785    0.0000 H   0  0  0  0  0  0  0  0  0  0  0  0
    2.4038    7.2846    0.0000 H   0  0  0  0  0  0  0  0  0  0  0  0
    8.0937    4.6730    0.0000 H   0  0  0  0  0  0  0  0  0  0  0  0
    6.0027    7.6213    0.0000 H   0  0  0  0  0  0  0  0  0  0  0  0
  8  7  1  0  0  0  0
 11  9  1  0  0  0  0
 12 10  1  0  0  0  0
 20  1  1  6  0  0  0
 21  2  1  6  0  0  0
 22  3  1  6  0  0  0
 23 13  2  0  0  0  0
 23 19  1  0  0  0  0
 24  7  1  0  0  0  0
 24 14  1  0  0  0  0
 25  9  1  0  0  0  0
 25 14  1  0  0  0  0
 26 10  1  0  0  0  0
 26 23  1  1  0  0  0
 27  8  1  0  0  0  0
 28 15  1  0  0  0  0
 28 27  1  0  0  0  0
 29 16  1  0  0  0  0
 30 17  1  0  0  0  0
 31 18  1  0  0  0  0
 32 15  1  0  0  0  0
 33 13  1  0  0  0  0
 34 17  1  0  0  0  0
 35 16  1  0  0  0  0
 36 18  1  0  0  0  0
 37 20  1  0  0  0  0
 37 29  1  0  0  0  0
 38 21  1  0  0  0  0
 38 30  1  0  0  0  0
 39 22  1  0  0  0  0
 39 31  1  0  0  0  0
 40  4  1  1  0  0  0
 40 11  1  0  0  0  0
 40 24  1  0  0  0  0
 40 28  1  0  0  0  0
 41  5  1  1  0  0  0
 41 26  1  0  0  0  0
 41 32  1  0  0  0  0
 42 12  1  0  0  0  0
 42 27  1  0  0  0  0
 42 41  1  0  0  0  0
 29 43  1  1  0  0  0
 30 44  1  1  0  0  0
 31 45  1  1  0  0  0
 32 46  1  1  0  0  0
 47 33  2  0  0  0  0
 42 48  1  1  0  0  0
 49  6  1  0  0  0  0
 37 49  1  1  0  0  0
 50 19  1  0  0  0  0
 50 33  1  0  0  0  0
 51 20  1  0  0  0  0
 51 35  1  0  0  0  0
 52 21  1  0  0  0  0
 52 34  1  0  0  0  0
 53 22  1  0  0  0  0
 53 36  1  0  0  0  0
 25 54  1  1  0  0  0
 34 54  1  1  0  0  0
 35 55  1  1  0  0  0
 39 55  1  1  0  0  0
 36 56  1  1  0  0  0
 38 56  1  1  0  0  0
 20 57  1  1  0  0  0
 21 58  1  1  0  0  0
 22 59  1  1  0  0  0
 24 60  1  1  0  0  0
 25 61  1  6  0  0  0
 26 62  1  6  0  0  0
 27 63  1  1  0  0  0
 28 64  1  6  0  0  0
 29 65  1  6  0  0  0
 30 66  1  6  0  0  0
 31 67  1  6  0  0  0
 32 68  1  6  0  0  0
 34 69  1  1  0  0  0
 35 70  1  1  0  0  0
 36 71  1  1  0  0  0
 37 72  1  6  0  0  0
 38 73  1  6  0  0  0
 39 74  1  6  0  0  0
M  END
> <DATABASE_ID>
DB13401

> <DATABASE_NAME>
drugbank

> <SMILES>
[H][C@@]1(CC[C@]2(O)[C@]3([H])CC[C@]4([H])C[C@]([H])(CC[C@]4(C)[C@@]3([H])C[C@@]([H])(O)[C@]12C)O[C@@]1([H])C[C@]([H])(O)[C@]([H])(O[C@@]2([H])C[C@]([H])(O)[C@]([H])(O[C@@]3([H])C[C@]([H])(O)[C@]([H])(OC)[C@@]([H])(C)O3)[C@@]([H])(C)O2)[C@@]([H])(C)O1)C1=CC(=O)OC1

> <INCHI_IDENTIFIER>
InChI=1S/C42H66O14/c1-20-37(49-6)29(43)16-35(51-20)55-39-22(3)53-36(18-31(39)45)56-38-21(2)52-34(17-30(38)44)54-25-9-11-40(4)24(14-25)7-8-27-28(40)15-32(46)41(5)26(10-12-42(27,41)48)23-13-33(47)50-19-23/h13,20-22,24-32,34-39,43-46,48H,7-12,14-19H2,1-6H3/t20-,21-,22-,24-,25+,26-,27-,28+,29+,30+,31+,32-,34+,35+,36+,37-,38-,39-,40+,41+,42+/m1/s1

> <INCHI_KEY>
IYJMSDVSVHDVGT-PEQKVOOWSA-N

> <FORMULA>
C42H66O14

> <MOLECULAR_WEIGHT>
794.976

> <EXACT_MASS>
794.445256805

> <JCHEM_ACCEPTOR_COUNT>
13

> <JCHEM_ATOM_COUNT>
122

> <JCHEM_AVERAGE_POLARIZABILITY>
86.59377087146314

> <JCHEM_BIOAVAILABILITY>
0

> <JCHEM_DONOR_COUNT>
5

> <JCHEM_FORMAL_CHARGE>
0

> <JCHEM_GHOSE_FILTER>
0

> <JCHEM_IUPAC>
4-[(1S,2S,5S,7R,10R,11S,14R,15S,16R)-11,16-dihydroxy-5-{[(2R,4S,5S,6R)-4-hydroxy-5-{[(2S,4S,5S,6R)-4-hydroxy-5-{[(2S,4S,5S,6R)-4-hydroxy-5-methoxy-6-methyloxan-2-yl]oxy}-6-methyloxan-2-yl]oxy}-6-methyloxan-2-yl]oxy}-2,15-dimethyltetracyclo[8.7.0.0²,⁷.0¹¹,¹⁵]heptadecan-14-yl]-2,5-dihydrofuran-2-one

> <ALOGPS_LOGP>
1.78

> <JCHEM_LOGP>
3.00980717566667

> <ALOGPS_LOGS>
-4.12

> <JCHEM_MDDR_LIKE_RULE>
1

> <JCHEM_NUMBER_OF_RINGS>
8

> <JCHEM_PHYSIOLOGICAL_CHARGE>
0

> <JCHEM_PKA>
13.352739911522743

> <JCHEM_PKA_STRONGEST_ACIDIC>
7.15111619030842

> <JCHEM_PKA_STRONGEST_BASIC>
-2.976075008150179

> <JCHEM_POLAR_SURFACE_AREA>
192.05999999999995

> <JCHEM_REFRACTIVITY>
197.98400000000004

> <JCHEM_ROTATABLE_BOND_COUNT>
8

> <JCHEM_RULE_OF_FIVE>
0

> <ALOGPS_SOLUBILITY>
6.08e-02 g/l

> <JCHEM_TRADITIONAL_IUPAC>
metildigoxin

> <JCHEM_VEBER_RULE>
0

> <DRUGBANK_ID>
DB13401

> <DRUG_GROUPS>
experimental

> <GENERIC_NAME>
Metildigoxin

> <SYNONYMS>
Metildigoxin; Metildigoxina

$$$$
