
  Mrv1909 12152020032D          

 44 49  0  0  1  0            999 V2000
   -1.4289   -1.6500    0.0000 C   0  0  0  0  0  0  0  0  0  0  0  0
   -0.7145   -1.2375    0.0000 C   0  0  1  0  0  0  0  0  0  0  0  0
   -0.7145   -0.4125    0.0000 N   0  0  0  0  0  0  0  0  0  0  0  0
   -1.4289   -0.0000    0.0000 C   0  0  0  0  0  0  0  0  0  0  0  0
   -2.1434   -0.4125    0.0000 O   0  0  0  0  0  0  0  0  0  0  0  0
   -1.4289    0.8250    0.0000 C   0  0  0  0  0  0  0  0  0  0  0  0
   -0.6039    0.8250    0.0000 C   0  0  0  0  0  0  0  0  0  0  0  0
   -2.2539    0.8250    0.0000 F   0  0  0  0  0  0  0  0  0  0  0  0
   -1.4289    1.6500    0.0000 F   0  0  0  0  0  0  0  0  0  0  0  0
    0.0000   -1.6500    0.0000 C   0  0  1  0  0  0  0  0  0  0  0  0
    0.0000   -2.4750    0.0000 O   0  0  0  0  0  0  0  0  0  0  0  0
   -0.7145   -2.8875    0.0000 C   0  0  0  0  0  0  0  0  0  0  0  0
   -0.7145   -3.7125    0.0000 C   0  0  0  0  0  0  0  0  0  0  0  0
   -1.4289   -4.1250    0.0000 C   0  0  0  0  0  0  0  0  0  0  0  0
   -2.1434   -3.7125    0.0000 C   0  0  0  0  0  0  0  0  0  0  0  0
   -2.9280   -3.9674    0.0000 N   0  0  0  0  0  0  0  0  0  0  0  0
   -3.4130   -3.3000    0.0000 N   0  0  0  0  0  0  0  0  0  0  0  0
   -2.9280   -2.6326    0.0000 C   0  0  0  0  0  0  0  0  0  0  0  0
   -2.1434   -2.8875    0.0000 C   0  0  0  0  0  0  0  0  0  0  0  0
   -1.4289   -2.4750    0.0000 C   0  0  0  0  0  0  0  0  0  0  0  0
   -3.1830   -4.7521    0.0000 C   0  0  0  0  0  0  0  0  0  0  0  0
   -3.9899   -4.9236    0.0000 C   0  0  0  0  0  0  0  0  0  0  0  0
   -4.2449   -5.7082    0.0000 C   0  0  0  0  0  0  0  0  0  0  0  0
   -3.6929   -6.3213    0.0000 C   0  0  0  0  0  0  0  0  0  0  0  0
   -2.8859   -6.1498    0.0000 C   0  0  0  0  0  0  0  0  0  0  0  0
   -2.6309   -5.3652    0.0000 C   0  0  0  0  0  0  0  0  0  0  0  0
   -5.0519   -5.8797    0.0000 C   0  0  0  0  0  0  0  0  0  0  0  0
   -5.3068   -6.6644    0.0000 O   0  0  0  0  0  0  0  0  0  0  0  0
   -5.6039   -5.2666    0.0000 N   0  0  0  0  0  0  0  0  0  0  0  0
   -6.4109   -5.4382    0.0000 C   0  0  2  0  0  0  0  0  0  0  0  0
   -6.7464   -6.1918    0.0000 C   0  0  0  0  0  0  0  0  0  0  0  0
   -7.5669   -6.1056    0.0000 C   0  0  0  0  0  0  0  0  0  0  0  0
   -7.7384   -5.2986    0.0000 O   0  0  0  0  0  0  0  0  0  0  0  0
   -7.0240   -4.8861    0.0000 C   0  0  0  0  0  0  0  0  0  0  0  0
    0.7145   -1.2375    0.0000 C   0  0  0  0  0  0  0  0  0  0  0  0
    0.7145   -0.4125    0.0000 C   0  0  0  0  0  0  0  0  0  0  0  0
    1.4289    0.0000    0.0000 C   0  0  0  0  0  0  0  0  0  0  0  0
    2.1434   -0.4125    0.0000 C   0  0  0  0  0  0  0  0  0  0  0  0
    2.8579    0.0000    0.0000 O   0  0  0  0  0  0  0  0  0  0  0  0
    3.5724   -0.4125    0.0000 C   0  0  0  0  0  0  0  0  0  0  0  0
    3.5724   -1.2375    0.0000 C   0  0  0  0  0  0  0  0  0  0  0  0
    2.8579   -1.6500    0.0000 O   0  0  0  0  0  0  0  0  0  0  0  0
    2.1434   -1.2375    0.0000 C   0  0  0  0  0  0  0  0  0  0  0  0
    1.4289   -1.6500    0.0000 C   0  0  0  0  0  0  0  0  0  0  0  0
  2  1  1  1  0  0  0
  2  3  1  0  0  0  0
  3  4  1  0  0  0  0
  4  5  2  0  0  0  0
  4  6  1  0  0  0  0
  6  7  1  0  0  0  0
  6  8  1  0  0  0  0
  6  9  1  0  0  0  0
  2 10  1  0  0  0  0
 10 11  1  6  0  0  0
 11 12  1  0  0  0  0
 12 13  2  0  0  0  0
 13 14  1  0  0  0  0
 14 15  2  0  0  0  0
 15 16  1  0  0  0  0
 16 17  1  0  0  0  0
 17 18  2  0  0  0  0
 18 19  1  0  0  0  0
 15 19  1  0  0  0  0
 19 20  2  0  0  0  0
 12 20  1  0  0  0  0
 16 21  1  0  0  0  0
 21 22  2  0  0  0  0
 22 23  1  0  0  0  0
 23 24  2  0  0  0  0
 24 25  1  0  0  0  0
 25 26  2  0  0  0  0
 21 26  1  0  0  0  0
 23 27  1  0  0  0  0
 27 28  2  0  0  0  0
 27 29  1  0  0  0  0
 30 29  1  6  0  0  0
 30 31  1  0  0  0  0
 31 32  1  0  0  0  0
 32 33  1  0  0  0  0
 33 34  1  0  0  0  0
 30 34  1  0  0  0  0
 10 35  1  0  0  0  0
 35 36  2  0  0  0  0
 36 37  1  0  0  0  0
 37 38  2  0  0  0  0
 38 39  1  0  0  0  0
 39 40  1  0  0  0  0
 40 41  1  0  0  0  0
 41 42  1  0  0  0  0
 42 43  1  0  0  0  0
 38 43  1  0  0  0  0
 43 44  2  0  0  0  0
 35 44  1  0  0  0  0
M  END
> <DATABASE_ID>
DB16347

> <DATABASE_NAME>
drugbank

> <SMILES>
C[C@@H](NC(=O)C(C)(F)F)[C@@H](OC1=CC=C2N(N=CC2=C1)C1=CC(=CC=C1)C(=O)N[C@@H]1CCOC1)C1=CC=C2OCCOC2=C1

> <INCHI_IDENTIFIER>
InChI=1S/C32H32F2N4O6/c1-19(36-31(40)32(2,33)34)29(20-6-9-27-28(16-20)43-13-12-42-27)44-25-7-8-26-22(15-25)17-35-38(26)24-5-3-4-21(14-24)30(39)37-23-10-11-41-18-23/h3-9,14-17,19,23,29H,10-13,18H2,1-2H3,(H,36,40)(H,37,39)/t19-,23-,29-/m1/s1

> <INCHI_KEY>
ZZWJKLGCDHYVMB-XGBAOLAVSA-N

> <FORMULA>
C32H32F2N4O6

> <MOLECULAR_WEIGHT>
606.627

> <EXACT_MASS>
606.228991092

> <JCHEM_ACCEPTOR_COUNT>
7

> <JCHEM_ATOM_COUNT>
76

> <JCHEM_AVERAGE_NEUTRAL_MICROSPECIES_CHARGE>
-0.005134175098292538

> <JCHEM_AVERAGE_POLARIZABILITY>
61.43269370625087

> <JCHEM_BIOAVAILABILITY>
1

> <JCHEM_DONOR_COUNT>
2

> <JCHEM_FORMAL_CHARGE>
0

> <JCHEM_GHOSE_FILTER>
0

> <JCHEM_IUPAC>
3-{5-[(1S,2R)-2-(2,2-difluoropropanamido)-1-(2,3-dihydro-1,4-benzodioxin-6-yl)propoxy]-1H-indazol-1-yl}-N-[(3R)-oxolan-3-yl]benzamide

> <ALOGPS_LOGP>
4.14

> <JCHEM_LOGP>
3.5232550573333334

> <ALOGPS_LOGS>
-5.21

> <JCHEM_MDDR_LIKE_RULE>
1

> <JCHEM_NEUTRAL_CHARGE>
0

> <JCHEM_NUMBER_OF_RINGS>
6

> <JCHEM_PHYSIOLOGICAL_CHARGE>
0

> <JCHEM_PKA>
15.16662919569396

> <JCHEM_PKA_STRONGEST_ACIDIC>
9.287230332502872

> <JCHEM_PKA_STRONGEST_BASIC>
0.8774051573367168

> <JCHEM_POLAR_SURFACE_AREA>
112.94000000000001

> <JCHEM_REFRACTIVITY>
156.99069999999995

> <JCHEM_ROTATABLE_BOND_COUNT>
9

> <JCHEM_RULE_OF_FIVE>
0

> <ALOGPS_SOLUBILITY>
3.77e-03 g/l

> <JCHEM_TRADITIONAL_IUPAC>
8-[(3R)-3-[1-({1-[(E)-{[(7S,9E,11S,12S,13S,14S,15R,16R,17S,18S,19E)-13-(acetyloxy)-2,15,17,27,29-pentahydroxy-11-methoxy-3,7,12,14,16,18,22-heptamethyl-6,23-dioxo-8,30-dioxa-24-azatetracyclo[23.3.1.1^{4,7}.0^{5,28}]triaconta-1(28),2,4,9,19,21,25(29),26-octaen-26-yl]methylidene}amino]piperidin-4-yl}(methyl)amino)cyclopropyl]pyrrolidin-1-yl]-1-cyclopropyl-7-fluoro-9-methyl-4-oxoquinolizine-3-carboxylic acid

> <JCHEM_VEBER_RULE>
0

> <DRUGBANK_ID>
DB16347

> <DRUG_GROUPS>
investigational

> <GENERIC_NAME>
Velsecorat

> <SYNONYMS>
Velsecorat

$$$$
