
  Mrv1909 07102021182D          

  1  0  0  0  0  0            999 V2000
    0.0000    0.0000    0.0000 Al  0  0  0  0  0  0  0  0  0  0  0  0
M  END
> <DATABASE_ID>
DB01370

> <DATABASE_NAME>
drugbank

> <SMILES>
[Al]

> <INCHI_IDENTIFIER>
InChI=1S/Al

> <INCHI_KEY>
XAGFODPZIPBFFR-UHFFFAOYSA-N

> <FORMULA>
Al

> <MOLECULAR_WEIGHT>
26.9815

> <EXACT_MASS>
26.981538441

> <JCHEM_ACCEPTOR_COUNT>
0

> <JCHEM_ATOM_COUNT>
1

> <JCHEM_AVERAGE_NEUTRAL_MICROSPECIES_CHARGE>
0.0

> <JCHEM_AVERAGE_POLARIZABILITY>
1.7784

> <JCHEM_BIOAVAILABILITY>
1

> <JCHEM_DONOR_COUNT>
0

> <JCHEM_FORMAL_CHARGE>
0

> <JCHEM_GHOSE_FILTER>
0

> <JCHEM_IUPAC>
aluminium

> <JCHEM_LOGP>
1.4499999999999997

> <JCHEM_MDDR_LIKE_RULE>
0

> <JCHEM_NEUTRAL_CHARGE>
0

> <JCHEM_NUMBER_OF_RINGS>
0

> <JCHEM_PHYSIOLOGICAL_CHARGE>
0

> <JCHEM_POLAR_SURFACE_AREA>
0.0

> <JCHEM_REFRACTIVITY>
0.0

> <JCHEM_ROTATABLE_BOND_COUNT>
0

> <JCHEM_RULE_OF_FIVE>
1

> <JCHEM_TRADITIONAL_IUPAC>
ethane

> <JCHEM_VEBER_RULE>
1

> <DRUGBANK_ID>
DB01370

> <SECONDARY_ACCESSION_NUMBERS>
DB11314

> <DRUG_GROUPS>
approved; investigational

> <GENERIC_NAME>
Aluminium

> <SYNONYMS>
Al; Aluminio; Aluminium; Aluminium atom; Aluminium metallicum; Aluminum; Aluminum metal; Aluminum powder; Metallic aluminum

$$$$
