
  Mrv1909 09152214352D          

 29 33  0  0  1  0            999 V2000
    0.4776   -1.0747    0.0000 C   0  0  0  0  0  0  0  0  0  0  0  0
   -0.2368   -1.4872    0.0000 N   0  0  0  0  0  0  0  0  0  0  0  0
   -0.9513   -1.0747    0.0000 C   0  0  1  0  0  0  0  0  0  0  0  0
   -1.6658   -1.4872    0.0000 C   0  0  0  0  0  0  0  0  0  0  0  0
   -2.3803   -1.0747    0.0000 C   0  0  0  0  0  0  0  0  0  0  0  0
   -2.3803   -0.2497    0.0000 C   0  0  2  0  0  0  0  0  0  0  0  0
   -3.1339   -0.5853    0.0000 C   0  0  0  0  0  0  0  0  0  0  0  0
   -3.6860    0.0278    0.0000 C   0  0  0  0  0  0  0  0  0  0  0  0
   -3.2735    0.7423    0.0000 C   0  0  0  0  0  0  0  0  0  0  0  0
   -2.4665    0.5707    0.0000 O   0  0  0  0  0  0  0  0  0  0  0  0
   -1.6658    0.1628    0.0000 C   0  0  0  0  0  0  0  0  0  0  0  0
   -0.9513   -0.2497    0.0000 C   0  0  2  0  0  0  0  0  0  0  0  0
   -0.2368    0.1628    0.0000 N   0  0  0  0  0  0  0  0  0  0  0  0
   -0.1506    0.9832    0.0000 C   0  0  0  0  0  0  0  0  0  0  0  0
    0.6564    1.1548    0.0000 C   0  0  0  0  0  0  0  0  0  0  0  0
    1.0689    0.4403    0.0000 C   0  0  0  0  0  0  0  0  0  0  0  0
    0.5168   -0.1728    0.0000 C   0  0  0  0  0  0  0  0  0  0  0  0
   -0.2368   -2.3122    0.0000 C   0  0  0  0  0  0  0  0  0  0  0  0
   -0.9513   -2.7247    0.0000 O   0  0  0  0  0  0  0  0  0  0  0  0
    0.4776   -2.7247    0.0000 C   0  0  0  0  0  0  0  0  0  0  0  0
    0.4776   -3.5497    0.0000 C   0  0  0  0  0  0  0  0  0  0  0  0
    1.1921   -3.9622    0.0000 C   0  0  0  0  0  0  0  0  0  0  0  0
    1.1921   -4.7872    0.0000 C   0  0  0  0  0  0  0  0  0  0  0  0
    0.4776   -5.1997    0.0000 C   0  0  0  0  0  0  0  0  0  0  0  0
   -0.2368   -4.7872    0.0000 C   0  0  0  0  0  0  0  0  0  0  0  0
   -0.2368   -3.9622    0.0000 C   0  0  0  0  0  0  0  0  0  0  0  0
   -1.0215   -3.7073    0.0000 C   0  0  0  0  0  0  0  0  0  0  0  0
   -1.5064   -4.3747    0.0000 C   0  0  0  0  0  0  0  0  0  0  0  0
   -1.0215   -5.0422    0.0000 O   0  0  0  0  0  0  0  0  0  0  0  0
  1  2  1  0  0  0  0
  3  2  1  1  0  0  0
  3  4  1  0  0  0  0
  4  5  1  0  0  0  0
  6  5  1  0  0  0  0
  6  7  1  0  0  0  0
  7  8  1  0  0  0  0
  8  9  1  0  0  0  0
  9 10  1  0  0  0  0
  6 10  1  6  0  0  0
  6 11  1  0  0  0  0
 12 11  1  0  0  0  0
  3 12  1  0  0  0  0
 12 13  1  6  0  0  0
 13 14  1  0  0  0  0
 14 15  1  0  0  0  0
 15 16  1  0  0  0  0
 16 17  1  0  0  0  0
 13 17  1  0  0  0  0
  2 18  1  0  0  0  0
 18 19  2  0  0  0  0
 18 20  1  0  0  0  0
 20 21  1  0  0  0  0
 21 22  2  0  0  0  0
 22 23  1  0  0  0  0
 23 24  2  0  0  0  0
 24 25  1  0  0  0  0
 25 26  2  0  0  0  0
 21 26  1  0  0  0  0
 26 27  1  0  0  0  0
 27 28  2  0  0  0  0
 28 29  1  0  0  0  0
 25 29  1  0  0  0  0
M  END
> <DATABASE_ID>
DB16967

> <DATABASE_NAME>
drugbank

> <SMILES>
CN([C@H]1CC[C@@]2(CCCO2)C[C@@H]1N1CCCC1)C(=O)CC1=CC=CC2=C1C=CO2

> <INCHI_IDENTIFIER>
InChI=1S/C24H32N2O3/c1-25(23(27)16-18-6-4-7-22-19(18)9-15-28-22)20-8-11-24(10-5-14-29-24)17-21(20)26-12-2-3-13-26/h4,6-7,9,15,20-21H,2-3,5,8,10-14,16-17H2,1H3/t20-,21-,24-/m0/s1

> <INCHI_KEY>
JMBYBVLCYODBJQ-HFMPRLQTSA-N

> <FORMULA>
C24H32N2O3

> <MOLECULAR_WEIGHT>
396.531

> <EXACT_MASS>
396.241292898

> <JCHEM_ACCEPTOR_COUNT>
3

> <JCHEM_ATOM_COUNT>
61

> <JCHEM_AVERAGE_NEUTRAL_MICROSPECIES_CHARGE>
0.9981841738462386

> <JCHEM_AVERAGE_POLARIZABILITY>
43.264327904887764

> <JCHEM_BIOAVAILABILITY>
1

> <JCHEM_DONOR_COUNT>
0

> <JCHEM_FORMAL_CHARGE>
0

> <JCHEM_GHOSE_FILTER>
1

> <JCHEM_IUPAC>
2-(1-benzofuran-4-yl)-N-methyl-N-[(5R,7S,8S)-7-(pyrrolidin-1-yl)-1-oxaspiro[4.5]decan-8-yl]acetamide

> <ALOGPS_LOGP>
3.43

> <JCHEM_LOGP>
2.762618100333333

> <ALOGPS_LOGS>
-4.13

> <JCHEM_MDDR_LIKE_RULE>
0

> <JCHEM_NEUTRAL_CHARGE>
1

> <JCHEM_NUMBER_OF_RINGS>
5

> <JCHEM_PHYSIOLOGICAL_CHARGE>
1

> <JCHEM_PKA_STRONGEST_BASIC>
9.740135423228754

> <JCHEM_POLAR_SURFACE_AREA>
45.92

> <JCHEM_REFRACTIVITY>
113.27350000000001

> <JCHEM_ROTATABLE_BOND_COUNT>
4

> <JCHEM_RULE_OF_FIVE>
1

> <ALOGPS_SOLUBILITY>
2.91e-02 g/l

> <JCHEM_TRADITIONAL_IUPAC>
6-cyclopropaneamido-N-[hydroxy(2H2)methyl]-4-{[2-methoxy-3-(1-methyl-1,2,4-triazol-3-yl)phenyl]amino}pyridazine-3-carboxamide

> <JCHEM_VEBER_RULE>
0

> <DRUGBANK_ID>
DB16967

> <DRUG_GROUPS>
investigational

> <GENERIC_NAME>
Enadoline

> <SALTS>
Enadoline hydrochloride

$$$$
