
  Mrv1652310201623082D          

 41 46  0  0  0  0            999 V2000
   -1.7078    6.4180    0.0000 C   0  0  0  0  0  0  0  0  0  0  0  0
   -1.4528    5.6334    0.0000 N   0  0  0  0  0  0  0  0  0  0  0  0
   -0.6459    5.4618    0.0000 C   0  0  0  0  0  0  0  0  0  0  0  0
   -0.3909    4.6772    0.0000 C   0  0  0  0  0  0  0  0  0  0  0  0
   -0.9429    4.0641    0.0000 N   0  0  0  0  0  0  0  0  0  0  0  0
   -1.7499    4.2357    0.0000 C   0  0  0  0  0  0  0  0  0  0  0  0
   -2.0049    5.0203    0.0000 C   0  0  0  0  0  0  0  0  0  0  0  0
   -0.6880    3.2795    0.0000 C   0  0  0  0  0  0  0  0  0  0  0  0
    0.1190    3.1080    0.0000 C   0  0  0  0  0  0  0  0  0  0  0  0
    0.3739    2.3234    0.0000 C   0  0  0  0  0  0  0  0  0  0  0  0
   -0.1781    1.7103    0.0000 C   0  0  0  0  0  0  0  0  0  0  0  0
   -0.9851    1.8818    0.0000 C   0  0  0  0  0  0  0  0  0  0  0  0
   -1.2400    2.6664    0.0000 C   0  0  0  0  0  0  0  0  0  0  0  0
   -1.5371    1.2687    0.0000 N   0  0  0  0  0  0  0  0  0  0  0  0
   -2.3441    1.4402    0.0000 C   0  0  0  0  0  0  0  0  0  0  0  0
   -2.8961    0.8271    0.0000 C   0  0  0  0  0  0  0  0  0  0  0  0
   -3.7031    0.9987    0.0000 C   0  0  0  0  0  0  0  0  0  0  0  0
   -3.9580    1.7833    0.0000 O   0  0  0  0  0  0  0  0  0  0  0  0
   -3.4060    2.3964    0.0000 C   0  0  0  0  0  0  0  0  0  0  0  0
   -2.5990    2.2248    0.0000 C   0  0  0  0  0  0  0  0  0  0  0  0
    0.0768    0.9256    0.0000 C   0  0  0  0  0  0  0  0  0  0  0  0
   -0.4752    0.3126    0.0000 O   0  0  0  0  0  0  0  0  0  0  0  0
    0.8838    0.7541    0.0000 N   0  0  0  0  0  0  0  0  0  0  0  0
    1.1387   -0.0305    0.0000 C   0  0  0  0  0  0  0  0  0  0  0  0
    1.9233   -0.2854    0.0000 C   0  0  0  0  0  0  0  0  0  0  0  0
    2.6378    0.1271    0.0000 C   0  0  0  0  0  0  0  0  0  0  0  0
    3.3523   -0.2854    0.0000 C   0  0  0  0  0  0  0  0  0  0  0  0
    3.3523   -1.1104    0.0000 C   0  0  0  0  0  0  0  0  0  0  0  0
    2.6378   -1.5229    0.0000 C   0  0  0  0  0  0  0  0  0  0  0  0
    1.9233   -1.1104    0.0000 C   0  0  0  0  0  0  0  0  0  0  0  0
    1.1387   -1.3654    0.0000 N   0  0  0  0  0  0  0  0  0  0  0  0
    0.6538   -0.6979    0.0000 N   0  0  0  0  0  0  0  0  0  0  0  0
    4.0668    0.1271    0.0000 C   0  0  0  0  0  0  0  0  0  0  0  0
    4.7812   -0.2854    0.0000 C   0  0  0  0  0  0  0  0  0  0  0  0
    5.4957    0.1271    0.0000 C   0  0  0  0  0  0  0  0  0  0  0  0
    6.2102   -0.2854    0.0000 C   0  0  0  0  0  0  0  0  0  0  0  0
    6.2102   -1.1104    0.0000 C   0  0  0  0  0  0  0  0  0  0  0  0
    5.4957   -1.5229    0.0000 C   0  0  0  0  0  0  0  0  0  0  0  0
    4.7812   -1.1104    0.0000 C   0  0  0  0  0  0  0  0  0  0  0  0
    5.4957   -2.3479    0.0000 F   0  0  0  0  0  0  0  0  0  0  0  0
    6.9246    0.1271    0.0000 F   0  0  0  0  0  0  0  0  0  0  0  0
  1  2  1  0  0  0  0
  2  3  1  0  0  0  0
  3  4  1  0  0  0  0
  4  5  1  0  0  0  0
  5  6  1  0  0  0  0
  6  7  1  0  0  0  0
  2  7  1  0  0  0  0
  5  8  1  0  0  0  0
  8  9  2  0  0  0  0
  9 10  1  0  0  0  0
 10 11  2  0  0  0  0
 11 12  1  0  0  0  0
 12 13  2  0  0  0  0
  8 13  1  0  0  0  0
 12 14  1  0  0  0  0
 14 15  1  0  0  0  0
 15 16  1  0  0  0  0
 16 17  1  0  0  0  0
 17 18  1  0  0  0  0
 18 19  1  0  0  0  0
 19 20  1  0  0  0  0
 15 20  1  0  0  0  0
 11 21  1  0  0  0  0
 21 22  2  0  0  0  0
 21 23  1  0  0  0  0
 23 24  1  0  0  0  0
 24 25  1  0  0  0  0
 25 26  2  0  0  0  0
 26 27  1  0  0  0  0
 27 28  2  0  0  0  0
 28 29  1  0  0  0  0
 29 30  2  0  0  0  0
 25 30  1  0  0  0  0
 30 31  1  0  0  0  0
 31 32  1  0  0  0  0
 24 32  2  0  0  0  0
 27 33  1  0  0  0  0
 33 34  1  0  0  0  0
 34 35  2  0  0  0  0
 35 36  1  0  0  0  0
 36 37  2  0  0  0  0
 37 38  1  0  0  0  0
 38 39  2  0  0  0  0
 34 39  1  0  0  0  0
 38 40  1  0  0  0  0
 36 41  1  0  0  0  0
M  END
> <DATABASE_ID>
DB11986

> <DATABASE_NAME>
drugbank

> <SMILES>
CN1CCN(CC1)C1=CC=C(C(=O)NC2=NNC3=CC=C(CC4=CC(F)=CC(F)=C4)C=C23)C(NC2CCOCC2)=C1

> <INCHI_IDENTIFIER>
InChI=1S/C31H34F2N6O2/c1-38-8-10-39(11-9-38)25-3-4-26(29(19-25)34-24-6-12-41-13-7-24)31(40)35-30-27-17-20(2-5-28(27)36-37-30)14-21-15-22(32)18-23(33)16-21/h2-5,15-19,24,34H,6-14H2,1H3,(H2,35,36,37,40)

> <INCHI_KEY>
HAYYBYPASCDWEQ-UHFFFAOYSA-N

> <FORMULA>
C31H34F2N6O2

> <MOLECULAR_WEIGHT>
560.65

> <EXACT_MASS>
560.271130685

> <JCHEM_ACCEPTOR_COUNT>
6

> <JCHEM_ATOM_COUNT>
75

> <JCHEM_AVERAGE_POLARIZABILITY>
60.40702185778537

> <JCHEM_BIOAVAILABILITY>
0

> <JCHEM_DONOR_COUNT>
3

> <JCHEM_FORMAL_CHARGE>
0

> <JCHEM_GHOSE_FILTER>
0

> <JCHEM_IUPAC>
N-{5-[(3,5-difluorophenyl)methyl]-1H-indazol-3-yl}-4-(4-methylpiperazin-1-yl)-2-[(oxan-4-yl)amino]benzamide

> <ALOGPS_LOGP>
5.03

> <JCHEM_LOGP>
5.3989755850000005

> <ALOGPS_LOGS>
-4.80

> <JCHEM_MDDR_LIKE_RULE>
1

> <JCHEM_NUMBER_OF_RINGS>
6

> <JCHEM_PHYSIOLOGICAL_CHARGE>
1

> <JCHEM_PKA>
14.586340077139017

> <JCHEM_PKA_STRONGEST_ACIDIC>
12.38818156157522

> <JCHEM_PKA_STRONGEST_BASIC>
7.783154497407746

> <JCHEM_POLAR_SURFACE_AREA>
85.52

> <JCHEM_REFRACTIVITY>
161.23809999999995

> <JCHEM_ROTATABLE_BOND_COUNT>
7

> <JCHEM_RULE_OF_FIVE>
0

> <ALOGPS_SOLUBILITY>
8.90e-03 g/l

> <JCHEM_TRADITIONAL_IUPAC>
N-{5-[(3,5-difluorophenyl)methyl]-1H-indazol-3-yl}-4-(4-methylpiperazin-1-yl)-2-(oxan-4-ylamino)benzamide

> <JCHEM_VEBER_RULE>
0

> <DRUGBANK_ID>
DB11986

> <DRUG_GROUPS>
approved; investigational

> <GENERIC_NAME>
Entrectinib

> <SYNONYMS>
Entrectinib; N-[5-[(3,5-difluorophenyl)methyl]-1H-indazol-3-yl]-4-(4-methylpiperazin-1-yl)-2-(oxan-4-ylamino)benzamide

> <PRODUCTS>
Rozlytrek

$$$$
