
  Mrv1652306131722012D          

 16 16  0  0  1  0            999 V2000
    1.4289   -4.1250    0.0000 C   0  0  0  0  0  0  0  0  0  0  0  0
    2.1434   -3.7125    0.0000 C   0  0  0  0  0  0  0  0  0  0  0  0
    2.8579   -4.1250    0.0000 O   0  0  0  0  0  0  0  0  0  0  0  0
    3.5724   -3.7125    0.0000 C   0  0  0  0  0  0  0  0  0  0  0  0
    3.5724   -2.8875    0.0000 O   0  0  0  0  0  0  0  0  0  0  0  0
    4.2868   -4.1250    0.0000 C   0  0  2  0  0  0  0  0  0  0  0  0
    5.0013   -3.7125    0.0000 C   0  0  0  0  0  0  0  0  0  0  0  0
    5.7158   -4.1250    0.0000 C   0  0  0  0  0  0  0  0  0  0  0  0
    6.4302   -3.7125    0.0000 C   0  0  0  0  0  0  0  0  0  0  0  0
    7.1447   -4.1250    0.0000 C   0  0  0  0  0  0  0  0  0  0  0  0
    7.1447   -4.9500    0.0000 C   0  0  0  0  0  0  0  0  0  0  0  0
    6.4302   -5.3625    0.0000 C   0  0  0  0  0  0  0  0  0  0  0  0
    5.7158   -4.9500    0.0000 C   0  0  0  0  0  0  0  0  0  0  0  0
    6.4302   -6.1875    0.0000 O   0  0  0  0  0  0  0  0  0  0  0  0
    7.8592   -5.3625    0.0000 O   0  0  0  0  0  0  0  0  0  0  0  0
    4.2868   -4.9500    0.0000 N   0  0  0  0  0  0  0  0  0  0  0  0
  1  2  1  0  0  0  0
  2  3  1  0  0  0  0
  3  4  1  0  0  0  0
  4  5  2  0  0  0  0
  4  6  1  0  0  0  0
  6  7  1  0  0  0  0
  7  8  1  0  0  0  0
  8  9  2  0  0  0  0
  9 10  1  0  0  0  0
 10 11  2  0  0  0  0
 11 12  1  0  0  0  0
 12 13  2  0  0  0  0
  8 13  1  0  0  0  0
 12 14  1  0  0  0  0
 11 15  1  0  0  0  0
  6 16  1  6  0  0  0
M  END
> <DATABASE_ID>
DB06535

> <DATABASE_NAME>
drugbank

> <SMILES>
CCOC(=O)[C@@H](N)CC1=CC=C(O)C(O)=C1

> <INCHI_IDENTIFIER>
InChI=1S/C11H15NO4/c1-2-16-11(15)8(12)5-7-3-4-9(13)10(14)6-7/h3-4,6,8,13-14H,2,5,12H2,1H3/t8-/m0/s1

> <INCHI_KEY>
NULMGOSOSZBEQL-QMMMGPOBSA-N

> <FORMULA>
C11H15NO4

> <MOLECULAR_WEIGHT>
225.244

> <EXACT_MASS>
225.100107967

> <JCHEM_ACCEPTOR_COUNT>
4

> <JCHEM_ATOM_COUNT>
31

> <JCHEM_AVERAGE_POLARIZABILITY>
23.268661369811873

> <JCHEM_BIOAVAILABILITY>
1

> <JCHEM_DONOR_COUNT>
3

> <JCHEM_FORMAL_CHARGE>
0

> <JCHEM_GHOSE_FILTER>
1

> <JCHEM_IUPAC>
ethyl (2S)-2-amino-3-(3,4-dihydroxyphenyl)propanoate

> <ALOGPS_LOGP>
0.22

> <JCHEM_LOGP>
0.9731864203333334

> <ALOGPS_LOGS>
-2.10

> <JCHEM_MDDR_LIKE_RULE>
0

> <JCHEM_NUMBER_OF_RINGS>
1

> <JCHEM_PHYSIOLOGICAL_CHARGE>
1

> <JCHEM_PKA>
12.73515743076273

> <JCHEM_PKA_STRONGEST_ACIDIC>
9.28738351773303

> <JCHEM_PKA_STRONGEST_BASIC>
6.970802841134807

> <JCHEM_POLAR_SURFACE_AREA>
92.78

> <JCHEM_REFRACTIVITY>
58.59580000000001

> <JCHEM_ROTATABLE_BOND_COUNT>
5

> <JCHEM_RULE_OF_FIVE>
1

> <ALOGPS_SOLUBILITY>
1.78e+00 g/l

> <JCHEM_TRADITIONAL_IUPAC>
etilevodopa

> <JCHEM_VEBER_RULE>
0

> <DRUGBANK_ID>
DB06535

> <DRUG_GROUPS>
investigational

> <GENERIC_NAME>
Etilevodopa

> <SYNONYMS>
Etilevodopa

$$$$
