
  Mrv1572004221605242D          

 13 13  0  0  0  0            999 V2000
   -0.7145    1.2375    0.0000 C   0  0  0  0  0  0  0  0  0  0  0  0
    0.7145    3.7125    0.0000 C   0  0  0  0  0  0  0  0  0  0  0  0
   -0.7145    2.0625    0.0000 C   0  0  0  0  0  0  0  0  0  0  0  0
   -0.0000    3.3000    0.0000 C   0  0  0  0  0  0  0  0  0  0  0  0
    1.4289   -0.0000    0.0000 C   0  0  0  0  0  0  0  0  0  0  0  0
    1.4289    0.8250    0.0000 C   0  0  0  0  0  0  0  0  0  0  0  0
    0.7145   -0.4125    0.0000 C   0  0  0  0  0  0  0  0  0  0  0  0
    0.0000    0.8250    0.0000 C   0  0  0  0  0  0  0  0  0  0  0  0
    0.7145    1.2375    0.0000 C   0  0  0  0  0  0  0  0  0  0  0  0
    0.7145    2.0625    0.0000 C   0  0  0  0  0  0  0  0  0  0  0  0
    0.0000   -0.0000    0.0000 N   0  0  0  0  0  0  0  0  0  0  0  0
   -0.0000    2.4750    0.0000 N   0  0  0  0  0  0  0  0  0  0  0  0
    1.4289    2.4750    0.0000 O   0  0  0  0  0  0  0  0  0  0  0  0
  3  1  1  0  0  0  0
  4  2  1  0  0  0  0
  6  5  2  0  0  0  0
  7  5  1  0  0  0  0
  9  6  1  0  0  0  0
  9  8  2  0  0  0  0
 10  9  1  0  0  0  0
 11  7  2  0  0  0  0
 11  8  1  0  0  0  0
 12  3  1  0  0  0  0
 12  4  1  0  0  0  0
 12 10  1  0  0  0  0
 13 10  2  0  0  0  0
M  END
> <DATABASE_ID>
DB13655

> <DATABASE_NAME>
drugbank

> <SMILES>
CCN(CC)C(=O)C1=CN=CC=C1

> <INCHI_IDENTIFIER>
InChI=1S/C10H14N2O/c1-3-12(4-2)10(13)9-6-5-7-11-8-9/h5-8H,3-4H2,1-2H3

> <INCHI_KEY>
NCYVXEGFNDZQCU-UHFFFAOYSA-N

> <FORMULA>
C10H14N2O

> <MOLECULAR_WEIGHT>
178.235

> <EXACT_MASS>
178.110613079

> <JCHEM_ACCEPTOR_COUNT>
2

> <JCHEM_ATOM_COUNT>
27

> <JCHEM_AVERAGE_POLARIZABILITY>
19.55933995621749

> <JCHEM_BIOAVAILABILITY>
1

> <JCHEM_DONOR_COUNT>
0

> <JCHEM_FORMAL_CHARGE>
0

> <JCHEM_GHOSE_FILTER>
1

> <JCHEM_IUPAC>
N,N-diethylpyridine-3-carboxamide

> <ALOGPS_LOGP>
0.83

> <JCHEM_LOGP>
0.7671817240000001

> <ALOGPS_LOGS>
-0.21

> <JCHEM_MDDR_LIKE_RULE>
0

> <JCHEM_NUMBER_OF_RINGS>
1

> <JCHEM_PHYSIOLOGICAL_CHARGE>
0

> <JCHEM_PKA_STRONGEST_BASIC>
3.6071617199843287

> <JCHEM_POLAR_SURFACE_AREA>
33.2

> <JCHEM_REFRACTIVITY>
52.270100000000006

> <JCHEM_ROTATABLE_BOND_COUNT>
3

> <JCHEM_RULE_OF_FIVE>
1

> <ALOGPS_SOLUBILITY>
1.09e+02 g/l

> <JCHEM_TRADITIONAL_IUPAC>
corvin

> <JCHEM_VEBER_RULE>
1

> <DRUGBANK_ID>
DB13655

> <DRUG_GROUPS>
experimental

> <GENERIC_NAME>
Nikethamide

> <SYNONYMS>
Nikethamide

$$$$
