
  Mrv1909 07252217032D          

 37 40  0  0  0  0            999 V2000
    1.4842   -1.5947    0.0000 O   0  0  0  0  0  0  0  0  0  0  0  0
    2.1987   -2.0072    0.0000 C   0  0  0  0  0  0  0  0  0  0  0  0
    2.9131   -1.5947    0.0000 C   0  0  0  0  0  0  0  0  0  0  0  0
    3.6275   -2.0072    0.0000 N   0  0  0  0  0  0  0  0  0  0  0  0
    4.3421   -1.5947    0.0000 C   0  0  0  0  0  0  0  0  0  0  0  0
    5.0565   -2.0072    0.0000 C   0  0  0  0  0  0  0  0  0  0  0  0
    5.7710   -1.5947    0.0000 C   0  0  0  0  0  0  0  0  0  0  0  0
    4.3421   -0.7696    0.0000 O   0  0  0  0  0  0  0  0  0  0  0  0
    3.6275   -2.8322    0.0000 C   0  0  0  0  0  0  0  0  0  0  0  0
    1.4842   -0.7696    0.0000 C   0  0  0  0  0  0  0  0  0  0  0  0
    0.7697   -0.3572    0.0000 C   0  0  0  0  0  0  0  0  0  0  0  0
    0.7697    0.4677    0.0000 N   0  0  0  0  0  0  0  0  0  0  0  0
    1.4842    0.8802    0.0000 C   0  0  0  0  0  0  0  0  0  0  0  0
    2.1987    0.4677    0.0000 N   0  0  0  0  0  0  0  0  0  0  0  0
    2.1987   -0.3572    0.0000 C   0  0  0  0  0  0  0  0  0  0  0  0
    2.9131   -0.7696    0.0000 N   0  0  0  0  0  0  0  0  0  0  0  0
    0.0553   -0.7696    0.0000 C   0  0  0  0  0  0  0  0  0  0  0  0
   -0.6591   -0.3572    0.0000 C   0  0  0  0  0  0  0  0  0  0  0  0
   -0.6591    0.4677    0.0000 C   0  0  0  0  0  0  0  0  0  0  0  0
   -1.3736   -0.7696    0.0000 C   0  0  0  0  0  0  0  0  0  0  0  0
   -2.0881   -0.3572    0.0000 N   0  0  0  0  0  0  0  0  0  0  0  0
   -2.0881    0.4677    0.0000 C   0  0  0  0  0  0  0  0  0  0  0  0
   -1.3736    0.8802    0.0000 O   0  0  0  0  0  0  0  0  0  0  0  0
   -2.8026    0.8802    0.0000 C   0  0  0  0  0  0  0  0  0  0  0  0
   -2.8026    1.7052    0.0000 C   0  0  0  0  0  0  0  0  0  0  0  0
   -2.0882    2.1177    0.0000 F   0  0  0  0  0  0  0  0  0  0  0  0
   -3.5171    2.1176    0.0000 C   0  0  0  0  0  0  0  0  0  0  0  0
   -4.2314    1.7052    0.0000 C   0  0  0  0  0  0  0  0  0  0  0  0
   -4.2314    0.8802    0.0000 C   0  0  0  0  0  0  0  0  0  0  0  0
   -3.5171    0.4677    0.0000 C   0  0  0  0  0  0  0  0  0  0  0  0
   -4.9460    2.1176    0.0000 C   0  0  0  0  0  0  0  0  0  0  0  0
   -5.7710    2.1176    0.0000 C   0  0  0  0  0  0  0  0  0  0  0  0
   -5.3585    2.8321    0.0000 C   0  0  0  0  0  0  0  0  0  0  0  0
   -1.3736   -1.5947    0.0000 C   0  0  0  0  0  0  0  0  0  0  0  0
   -0.6591   -2.0072    0.0000 C   0  0  0  0  0  0  0  0  0  0  0  0
    0.0553   -1.5947    0.0000 C   0  0  0  0  0  0  0  0  0  0  0  0
   -0.6591   -2.8322    0.0000 F   0  0  0  0  0  0  0  0  0  0  0  0
  1  2  1  0  0  0  0
  2  3  1  0  0  0  0
  3  4  1  0  0  0  0
  4  5  1  0  0  0  0
  5  6  1  0  0  0  0
  6  7  2  0  0  0  0
  5  8  2  0  0  0  0
  4  9  1  0  0  0  0
  1 10  1  0  0  0  0
 10 11  1  0  0  0  0
 11 12  2  0  0  0  0
 12 13  1  0  0  0  0
 14 13  2  0  0  0  0
 15 14  1  0  0  0  0
 10 15  2  0  0  0  0
 15 16  1  0  0  0  0
 11 17  1  0  0  0  0
 17 18  2  0  0  0  0
 18 19  1  0  0  0  0
 18 20  1  0  0  0  0
 20 21  1  0  0  0  0
 21 22  1  0  0  0  0
 22 23  2  0  0  0  0
 22 24  1  0  0  0  0
 24 25  2  0  0  0  0
 25 26  1  0  0  0  0
 25 27  1  0  0  0  0
 27 28  2  0  0  0  0
 29 28  1  0  0  0  0
 30 29  2  0  0  0  0
 24 30  1  0  0  0  0
 28 31  1  0  0  0  0
 31 32  1  0  0  0  0
 32 33  1  0  0  0  0
 31 33  1  0  0  0  0
 20 34  2  0  0  0  0
 35 34  1  0  0  0  0
 36 35  2  0  0  0  0
 17 36  1  0  0  0  0
 35 37  1  0  0  0  0
M  END
> <DATABASE_ID>
DB16852

> <DATABASE_NAME>
drugbank

> <SMILES>
CN(CCOC1=C(N)N=CN=C1C1=C(C)C(NC(=O)C2=C(F)C=C(C=C2)C2CC2)=CC(F)=C1)C(=O)C=C

> <INCHI_IDENTIFIER>
InChI=1S/C27H27F2N5O3/c1-4-23(35)34(3)9-10-37-25-24(31-14-32-26(25)30)20-12-18(28)13-22(15(20)2)33-27(36)19-8-7-17(11-21(19)29)16-5-6-16/h4,7-8,11-14,16H,1,5-6,9-10H2,2-3H3,(H,33,36)(H2,30,31,32)

> <INCHI_KEY>
CUABMPOJOBCXJI-UHFFFAOYSA-N

> <FORMULA>
C27H27F2N5O3

> <MOLECULAR_WEIGHT>
507.542

> <EXACT_MASS>
507.208196075

> <JCHEM_ACCEPTOR_COUNT>
6

> <JCHEM_ATOM_COUNT>
64

> <JCHEM_AVERAGE_NEUTRAL_MICROSPECIES_CHARGE>
1.3330386784481871

> <JCHEM_AVERAGE_POLARIZABILITY>
50.366567884731616

> <JCHEM_BIOAVAILABILITY>
1

> <JCHEM_DONOR_COUNT>
2

> <JCHEM_FORMAL_CHARGE>
0

> <JCHEM_GHOSE_FILTER>
0

> <JCHEM_IUPAC>
N-(3-{6-amino-5-[2-(N-methylprop-2-enamido)ethoxy]pyrimidin-4-yl}-5-fluoro-2-methylphenyl)-4-cyclopropyl-2-fluorobenzamide

> <ALOGPS_LOGP>
3.67

> <JCHEM_LOGP>
4.364496636666669

> <ALOGPS_LOGS>
-5.01

> <JCHEM_MDDR_LIKE_RULE>
1

> <JCHEM_NEUTRAL_CHARGE>
0

> <JCHEM_NUMBER_OF_RINGS>
4

> <JCHEM_PHYSIOLOGICAL_CHARGE>
0

> <JCHEM_PKA>
18.902702209506295

> <JCHEM_PKA_STRONGEST_ACIDIC>
14.174747759319315

> <JCHEM_PKA_STRONGEST_BASIC>
4.683141344578006

> <JCHEM_POLAR_SURFACE_AREA>
110.44

> <JCHEM_REFRACTIVITY>
139.29769999999994

> <JCHEM_ROTATABLE_BOND_COUNT>
9

> <JCHEM_RULE_OF_FIVE>
0

> <ALOGPS_SOLUBILITY>
5.00e-03 g/l

> <JCHEM_TRADITIONAL_IUPAC>
N-{2-methyl-5-[(methylamino)methyl]phenyl}-4-[(4-phenylquinazolin-2-yl)amino]benzamide

> <JCHEM_VEBER_RULE>
0

> <DRUGBANK_ID>
DB16852

> <DRUG_GROUPS>
investigational

> <GENERIC_NAME>
Remibrutinib

> <SYNONYMS>
Remibrutinib

$$$$
