
  Mrv1533004251517532D          

 10 10  0  0  0  0            999 V2000
    0.7145    2.0625    0.0000 C   0  0  0  0  0  0  0  0  0  0  0  0
    0.7145    1.2375    0.0000 C   0  0  0  0  0  0  0  0  0  0  0  0
    1.4289    0.8250    0.0000 C   0  0  0  0  0  0  0  0  0  0  0  0
    1.4289   -0.0000    0.0000 C   0  0  0  0  0  0  0  0  0  0  0  0
    0.7145   -0.4125    0.0000 C   0  0  0  0  0  0  0  0  0  0  0  0
    0.0000    0.0000    0.0000 C   0  0  0  0  0  0  0  0  0  0  0  0
    0.0000    0.8250    0.0000 C   0  0  0  0  0  0  0  0  0  0  0  0
   -0.7145    1.2375    0.0000 Cl  0  0  0  0  0  0  0  0  0  0  0  0
   -0.7145   -0.4125    0.0000 C   0  0  0  0  0  0  0  0  0  0  0  0
    2.1434   -0.4125    0.0000 O   0  0  0  0  0  0  0  0  0  0  0  0
  1  2  1  0  0  0  0
  2  3  2  0  0  0  0
  3  4  1  0  0  0  0
  4  5  2  0  0  0  0
  5  6  1  0  0  0  0
  6  7  2  0  0  0  0
  2  7  1  0  0  0  0
  7  8  1  0  0  0  0
  6  9  1  0  0  0  0
  4 10  1  0  0  0  0
M  END
> <DATABASE_ID>
DB11121

> <DATABASE_NAME>
drugbank

> <SMILES>
CC1=CC(O)=CC(C)=C1Cl

> <INCHI_IDENTIFIER>
InChI=1S/C8H9ClO/c1-5-3-7(10)4-6(2)8(5)9/h3-4,10H,1-2H3

> <INCHI_KEY>
OSDLLIBGSJNGJE-UHFFFAOYSA-N

> <FORMULA>
C8H9ClO

> <MOLECULAR_WEIGHT>
156.61

> <EXACT_MASS>
156.0341926

> <JCHEM_ACCEPTOR_COUNT>
1

> <JCHEM_ATOM_COUNT>
19

> <JCHEM_AVERAGE_POLARIZABILITY>
16.03972108163767

> <JCHEM_BIOAVAILABILITY>
1

> <JCHEM_DONOR_COUNT>
1

> <JCHEM_FORMAL_CHARGE>
0

> <JCHEM_GHOSE_FILTER>
0

> <JCHEM_IUPAC>
4-chloro-3,5-dimethylphenol

> <ALOGPS_LOGP>
3.14

> <JCHEM_LOGP>
3.3005679493333333

> <ALOGPS_LOGS>
-2.26

> <JCHEM_MDDR_LIKE_RULE>
0

> <JCHEM_NUMBER_OF_RINGS>
1

> <JCHEM_PHYSIOLOGICAL_CHARGE>
0

> <JCHEM_PKA_STRONGEST_ACIDIC>
9.205083870845058

> <JCHEM_PKA_STRONGEST_BASIC>
-6.261483911966361

> <JCHEM_POLAR_SURFACE_AREA>
20.23

> <JCHEM_REFRACTIVITY>
42.9261

> <JCHEM_ROTATABLE_BOND_COUNT>
0

> <JCHEM_RULE_OF_FIVE>
1

> <ALOGPS_SOLUBILITY>
8.55e-01 g/l

> <JCHEM_TRADITIONAL_IUPAC>
dettol

> <JCHEM_VEBER_RULE>
1

> <DRUGBANK_ID>
DB11121

> <DRUG_GROUPS>
approved

> <GENERIC_NAME>
Chloroxylenol

> <SYNONYMS>
2-chloro-5-hydroxy-1,3-dimethylbenzene; 2-chloro-5-hydroxy-m-xylene; 2-Chloro-m-xylenol; 3,5-dimethyl-4-chlorophenol; 4-chloro-1-hydroxy-3,5-dimethylbenzene; 4-chloro-3,5-dimethylphenol; 4-chloro-m-xylenol; chloro-xylenol; Chloroxylenol; cloroxilenol; p-chloro-3,5-xylenol; p-chloro-m-xylenol; parachlorometaxylenol; PCMX

> <PRODUCTS>
1012 Antimicrobial; 4246 First Aid Kit; 4334 First Aid Kit; 4357 First Aid Kit; 4358 First Aid Kit; 4367 First Aid Kit; 4379 First Aid Kit; 986 Antiseptic Hand Soap-lot 0.5%; ACQUAINT Antibacterial Foam Handwash; ADVANTAGE CHEMICAL Premium Antibacterial Foaming Hand So ap; AFFEX Antimicrobial Foaming Hand So ap; AFFEX Foaming Antimicrobial Hand So ap; ALPET E2 Sanitizing Foam; ANTIBACTERIAL Hand Sanitizer; ARRAY Anitbacterial Foam Handwash; Absorbine Jr Extra Strength Liniment; Absorbine Jr Liniment; Absorbine Power Gel; Acne Aid Gel; Acropole Bleu; Acute Kare Hand Sp.; Acute-Kare Healthcare Personnel Handwash; Aero CleansE2 Antibacterial; Aero Florafree Antibacterial; Afia Foaming Anti-Bacterial Hand Cleaner; Air raid card Antibacterial Hand Sanitizer; Ak-1 1%; All Fresh By Alsco Anti-microbial Foaming Hand Soap; All Fresh By Alsco Antimicrobial Lotion Hand Soap; AloeGuard; Aloeguard Antimicrobial; Alpet E2 Sanitizing Foam; Alpha BAC Stop E-2; Altra Antimicrobial Foaming Hand Wash with 0.3% PCMX; AmeriDerm Antibacterial Wash; AmeriWash Antibacterial; Ameriwash; Anti-Bacterial Hand; Antibacterial; Antibacterial Bar Blue Cross; Antibacterial Foam; Antibacterial Foam Hand Wash; Antibacterial Foamy Mango High Foaming Antiseptic Hand and Body Wash; Antibacterial Gel Hand Soap; Antibacterial Green hand sanitizer; Antibacterial Hand; Antibacterial Hand Green Apple Scented; Antibacterial Hand Milk and Honey Scented; Antibacterial Hand Problend; Antibacterial Hand Refill; Antibacterial Hand Rose Scented; Antibacterial Hand Sanitizer; Antibacterial Hand Shea Butter Scented; Antibacterial Hand Soap; Antibacterial HandSoap with Moisturizer; Antibacterial Handsoap; Antibacterial Liquid Hand; Antibacterial Lotion Soap; Antibacterial Skin Cleanser; Antibacterial Skin Cleanser - Lot 1%; Antibacterial Skin Cleanser 82; Antibacterial Skin Rain Forest Extract From Entiere; Antibacterial Soap; Antibacterial White Pearl; Antimicrobial; Antimicrobial 0.6% P.C.M.X. / Antimicrobien 0.6% P.C.M.X.; Antimicrobial 652; Antimicrobial Antiseptic Hand Wash; Antimicrobial Antiseptic Lotion Hand Soap; Antimicrobial Cleanser; Antimicrobial Foam; Antimicrobial Foam So ap; Antimicrobial Foam So ap with PCMX; Antimicrobial Hand; Antimicrobial Hand Cleanser (value Line); Antimicrobial Hand So ap; Antimicrobial Hand Wash; Antimicrobial Lotion Cream Soap; Antimicrobial Lotion Soap 0.6%; Antimicrobialsoap; Antiseptic; Antiseptic Hand; Antiseptic Hand Cleaner; Antiseptic Lotion Cleanser 0.6%; Antiseptic Ltion Cleanser; Antiseptic Ointment 1.5mg/gm; Applaud Ab Antiseptic Lotionized Hand Soap; April Bath and Shower Cucumber Melon Scented Hand Sanitizer Anti-Bacterial; April Bath and Shower Sweet Blossom Scented Hand Sanitizer Anti-Bacterial; April Bath and Shower Warm Vanilla Scented Hand Sanitizer Anti-Bacterial; AprilGuard; Array Antibacterial Handwash; Array Antiseptic Handwash; Asepso Gentle Antibacterial; Asepso Sport Antibacterial; Asept-all Antimicrobial Hand Soap Liq 1%; BD E-Z Scrub; BOARDWALK Antibacterial Foam Handwash; BOARDWALK Antibacterial Ltion So ap; BRIGHT SOLUTIONS Antimicrobial Foam So ap; BRIGHT SOLUTIONS Foaming Antimicrobial So ap; BRIGHTON PROFESSIONAL Antibacterial Foaming Hand So ap; BRIGHTON PROFESSIONAL Antibacterial Hand So ap; BRIGHTON PROFESSIONAL Premium Antibacterial Foam So ap; Ban-Aid; Barri-care Moisture Barrier; Bay West E2 Antibacterial Skin Cleanser; Bd E-Z Scrub; Bd E-Z Scrub 408; Berkley Jensen Dishwashing and Antibacterial Hand Green Apple Scent; Bex Foam; BioMiracle staysafe ANTIBACTERIAL HANDSoap; Blistex Foille Medicated First Aid; Bm-1000 - Lot 0.25%; Bm-1200 -crm 0.25%; Bob Barker Antibacterial unwrapped body; Bob Barker Antibacterial wrapped body; Bortek Antibacterial Hand Wash; Bright Solutions; Bright Solutions Antibacterial; Bright Solutions FDF; Bright Solutions antiseptic; Brookstone Aloe Hypoallergenic Antibacterial Hand; Brookstone Clear Fresh Hypoallergenic Antibacterial Hand; Brookstone Coconut Hypoallergenic Antibacterial Hand; Brookstone Lemon Zest Hypoallergenic Antibacterial Hand; CLASSIC TOUCH Foaming Antimicrobial Ltion So ap; CLASSIC TOUCH Foaming Antimicrobial So ap; CLEAR AND CLEAN Neutral pH Antiseptic Hand Wash; CLEAR S plus L; COASTWIDE PROFESSIONAL Antibacterial Hand Sp; COMPANIONS Luxury Foam Hand So ap, Antimicrobial; CarrollCLEAN; Champion Ultra Clean; Champion Ultra Clean Fragrance and Dye Free; CharmTex Anti Bacterial; Check This Out Dishsoap Orange Scent; Chem Clean Antibacterial Hand; Chemseptic; Chemstar; Chemstation E2; Chloroxylenol; Chloroxylenol 0.3%; Choice Liquid Antibacterial; Clario Antibacterial; Clean Choice Antibacterial; Clean Force; Clean Xpress Antiseptic Hand Cleaner; CleanGenic Antibacterial Foam Hand; Cleanse; Cleanslate Antibacterial Foam; Clear Bac; Clear Choice Out of Sight; Clear-Tone Antibacterial Hand; Clorox Antibacterial; Clorox Antibacterial Hand - Cherry and Magnolia Blossom; Clorox Antibacterial Hand - Citrus Blossom; Clorox Antibacterial Hand - Coconut Water; Clorox Antibacterial Hand - Wild Lavender and Vanilla; Clorox Antimicrobial; Clorox Citrus and Sage Dish; Clorox Fraganzia Antibacterial Hand; Clorox HealthCare AloeGuard Antimicrobial; Clorox Lemon Dish; Clorox Oxi Dish Oxi Magic; Clothing and Household Disinfectant; Coconut Ginger Antibacterial Hand; Colourless Antiseptic; Compliance; Compliance Dishwashing Liquid; Compliance Dishwashing Liquid and Antibacterial Hand; Conquest; Conquest II; Contact; Contend Anti-bacterial Gel Skin Cleanser; Control; Coramatic Ultima E-2 Food Processing Handwash; Cortaine -B Aqueous; Cortane-B; Cosmos Hv; Count Down; Crystal Clean Antibacterial HandSoap; Cs Antimicrobial Foam Soap; D-COL Personal Hygiene Convenience kit; DAYCON Antibacterial Foaming Hand So ap; DC berry scented hand sanitizer 01; DON Antibacterial Blue Floral Foam Handwash; DON Luxury Foam Antibacterial Handwash; DON Sensi-Derm Plus Antibacterial Ltn So ap; Dawn Ultra Antibacterial Hand Apple Blossom Scent; Dawn Ultra Antibacterial Hand Orange Scent; Deb PureBac Foam Wash; Delicare Antibacterial Hand; Denorex Extra Strength Medicated Shampoo; Denorex Extra Strength Medicated Shampoo With Conditioners; Denorex Medicated Shampoo - Regular; Denorex Medicated Shampoo Spring Fresh; Denorex Medicated Shampoo With Conditioners; Derma 1 Healthcare Hand Wash; Derma CIDOL 2000; DermaCen Antimicrobial-P Hand; DermaFoam E; Dermacare V Antiseptic Lotion Soap; Dermakleen; Dermapro Antimicrob Lot Sop 0.6%; Dermex I Antiseptic Lotion Soap; Dettol; Dettol 10%; Dettol First Aid Antiseptic; Dettol Liq 10%; DigiClean; DigiClean E; Digiclean E Foam Hand Soap; DishWorks Dish Detergent Liquid; Dishwashing; Dishwashing Liquid and Antibacterial Hand Orange Scent Ultra concentrated; Disinfectant Fabric Wash; Disinfectant Hand Wash; Disinfectant Wet Tissues; Drummond American Trade Wind Antimicrobial; Dynarex Green; E 2 Sanitizing Hand Soap Liq 3%; E-Z Scrub Antimicrobial Foam Solution Containing 3% Pcmx; E-Z Scrub Surgical Scrub Containing Ultradex; EXCELON Antimicrobial Foam; EXTENDED CARE Foaming Antimicrobial Handwash; Echo FRESH HWL Antiseptic Hand wash; EcoCare 270; EcoCare 275; Ecolab; Ecolab Clean Force; Ecolab Inc.; Ecolab Keystone; Emerald Green Neutral pH Anti-Bacterial Hand; Ensuite; Entiere Antibacterial Skin; Epi Vera E; Epi Wash; EpiCare; Epicare Antimicrobial Lotion Soap; Epicare Antimicrobial Lotion Soap 8%; Epicare Antiseptic Lotion Soap - 0.6%; Essential Everyday Dishwashing Liquid Orange; Eversoft Foaming Hand Anti-bacterial; FIKES Foaming Anti-Microbial Food Service Hand Wash; FOMA Antimicrobial Foam; FOMA Antimicrobial Ltn Sp; First Street Dishwasing Concentrate and Antimicrobial Hand; Fivestar; Florens Antiseptic Handsoap; Fm-24 Foaming; Foam Care Medicated Hand Wash - Liq; Foam Care Pcmx Surgical Hand Scrub; FoamFresh Antibacterial Hand Wash; FoamFresh Dye Free Antibacterial Hand Wash; FoamFresh E-2 Sanitizer Cleanser with PCMX; FoamFresh Healthcare Hand Wash; Foaming Aloeguard Antimicrobial; Foaming Antibacterial Green; Foaming Hand; Foaming Hand Wash; Foamy Mango Antiseptic Hand and Body Wash; FoamyIQ Healthcare Personnel Handwash; Food Processing; Food Service; Fortress; FresHands Instant Foaming Antiseptic Hand and Body Wash; Fresh Basics Antibacterial Hand Sanitizing; Fresh Foam Disinfectant; Fresh Start; Frozen blueberry scented hand sanitizer 01; Frozen bubble gum scented hand sanitizer 01; Frozen raspberry scented hand sanitizer 01; GENUINE JOE Cleaning Supplies Antibacterial Foam So ap Refill; GOJO Antibacterial Luxury Foam Handwash Chloroxylenol Liquid; GOJO Antimicrobial Foam Handwash with PCMX; GOJO Antimicrobial Ltn Sp; GOJO E2 Foam Handwash with PCMX; GOJO E2 Foam Sanitizing S oap Chloroxylenol Liquid; GOJO Gold and Klean Antimicrobial Ltn Sp; GOJO Luxury Foam Antibacterial Handwash; GOJO PCMX E-2 Sanitizing Ltn Sp; GOJO Pink Antimicrobial Ltn Sp; GOJO Premium Foam Antibacterial Handwash; GOJO Premium Foam Antibacterial Handwash Chloroxylenol Liquid; GOJO RICH PINK Antibacterial Ltn Sp; GOJO RICH PINK Ltion Sp; GOJO Ultra Mild Antimicrobial Ltn Sp with Chloroxylenol; GRAND TOUCH Antimicrobial Ltion So ap; Gard 0.5%; Garde Antiseptic Skin Cleaner; Generations Antimicrobial; Genlabs Strike Bac Antibacterial Handsoap; Genuine Joe Antibac; Genuine Joe Antibacterial; Georgia Pacific Antiseptic Soap; Germ A Stat; Germicidal Hand Soap Liq 0.6%; Global Care 15oz Gold Antibacterial Hand; Global Care 15oz Original Antibacterial Hand; Global Care 7.5oz Antibacterial Hand Cucumber Melon; Global Care 7.5oz Antibacterial Hand Sweetpea Orchid; Global Care 7.5oz Original Antibacterial Hand; Global Clean Antimicrobial Lotion Soap; Global Home Care 19oz Antibacterial Dish Detergent; Global Home Care 19oz Lemon Antibacterial Dish Detergent; Global Household Antibacterial Green Apple Fresh Scent; Global Household Antibacterial Hand Orange; Global Household Antibacterial Lemon Fresh Scent; Global Household Antibacterial Orange Fresh Scent; Global Household Antibacterial Wild Berry Fresh Scent; Gojo Antibacterial Luxury Foam Handwash; Gojo Antimicrobial Lotion Soap; Gojo Antimicrobial Lotion Soap With Chloroxylenol; Gojo E2 Foam Sanitizing Soap; Gojo Ultra Mild Antimicrobial Lotion Soap; Gold Antibacterial Hand; Gold Antiseptic; Gold and Sudsy; Golden Medicated; Good Care Sterile Scrub Brush with PCMX; Grabpak Antibacterial Hand; Grasp; Great II Lotionized Antiseptic; Great Value Green Apple Scent; Great Value Orange Scent; Great Value ULTRA DISH Liquid Antibacterial HANDSOAP crisp apple; Green Antibacterial Dish and HandSoap; Greenex Antibacterial; Guard Antibacterial Soap; HACCP Flat Top E-2; HI-VALU Antimicrobial Foaming Hand So ap; HILLYARD AMB So ap; HILLYARD Clean Assist Antibacterial So ap; HILLYARD D.G.A. Plus Antimicrobial So ap; HILLYARD D.G.A. Plus Foam Antimicrobial Hand So ap; HILLYARD NT Peach Antimicrobial Foam Cleanser; HUSKY 505 Antiseptic Cleanser; HUSKY 510 Anti-Microbial Food Service Hand Cleaner; Hand Antibacterial; Hand Essentials Antibacterial; Hand Guard High Foaming Antiseptic Hand and Body Wash; Hand-Giene 367; Handi-Kleen Antibacterial Foaming Hand; Handi-Kleen Antibacterial Foaming Hand Wash; Handsoap; Handtastic Foamy Mango Antiseptic Hand and Body Wash; Harmony High Foaming Antiseptic Hand and Body Wash; Health Care Antiseptic Lotion Soap; Health Care E-2 Antis Lot Soap; Health Smart Antibacterial Hand Cucumber Melon; Health Smart Antibacterial Hand Lavender Chamomile; Health Smart Antibacterial Hand Original; Health Smart Antibacterial Hand Spring Rain H S; Health Smart Antibacterial Hand Sweet Pea Orchid; Healthcare Antiseptic Towelette; Healthy Hands Aloe Antiseptic Hand and Body Wash; Healthy Hands Pink Antibacterial Hand Cleaner; Heavy Duty Hand Cleaner; Hi-Tech; Hidocomo Antiseptic Disinfectant; High Five Antiseptic Hand and Body Wash; High Foaming Antiseptic Hand and Body Wash; HighMark Professional Pink Antimicrobial Ltn Sp; Highmark Professional Antibacterial Foam Handwash; Highmark Professional Gold and Clean Antimicrobial Ltn Sp; Highmark Professional Luxury Foam Antibacterial Handwash; Highmark Professional Premium Foam Antibacterial Handwash; Hillyard Citrus Fresh Antimicrobial Foaming; Hillyard E2 Food Industry Foaming; Hobby Wash; Hydro Ear; Hygenik; Hygenipak Green Anti-microbial Skin Cleanser; Hygenix Antimicrobial; INCHCO Brand SANI-DERM Antiseptic Hand Wash; INODERM Style; INODERM Style Antibacterial; INOFOAM Antibacterial Foaming Hand; INOFOAM Antibacterial Foaming Hand Wash; Iba-cide Liquid; Ids Amber Antimicrobial Lotion Soap; Ids Antimicrobial Lotion Soap; Individual AntibacterialLotion Skin Cleanser; Inhibit Gel; Inhibit II High Foaming Antiseptic Hand Cleaner; Instant Hand Sanitizer; Iris Antimicrobial Hand; Irish Spring Antibacterial Bar; Jade Antibacterial Hand; KELSAN Antimicrobial Ltion Skin Cleanser; KLEENEX E2 Foam Skin Cleanser; KLEENEX Luxury E-2 Skin Cleanser; Kay McD; Kimcare Antibacterial - E-2 Rated Skin Cleanser; Kindest Kare Hand Antimicrobial Handwash; Klassic Antiseptic Lotion Soap 0.5%; Klean-Hands; Kleenex Antiseptic Skin Cleanser; Kleenfoam; Klenlii Hand Antibacterial; Knuckle Under Medicated; Kroger ANTIBACTERIAL Orange Scent HAND; Kroger Antibacterial Green Apple Hand; Kss Clean Hands Antiseptic Cleaner; Kung Fu Panda Hand Sanitizer; LOL cherry scented hand sanitizer 01; LOL strawberry scented hand sanitizer 01; LOL watermelon scented hand sanitizer 01; LX0380 Lynx glacier fresh Antiseptic Hand and Body Wash 6380; Lagarde; Lemon Drop Gentle Antiseptic; Lemon Yellow Pearlized Liq; Lfg; Life Quality Liquid; Lite nFoamy Healthcare Personnel Handwash; Lucky Antibacterial Hand; Luxury Foam Antibacterial; Lynx Antibacterial; Lynx Foamy PCMX Antiseptic Hand and Body Wash 6876; Lynx LX0864 peachy-foam antiseptic handsoap; MB apple scented hand sanitizer 01; MG DermaWash; MICRELL Antibacterial Foam Handwash; MICRELL Antibacterial Ltion S oap with Chloroxylenol; MICRELL Antibacterial Ltn Sp; Mango Select High Foaming Antiseptic Hand and Body Wash 6876; Marquis; Maxim; Maxim Assure; Maxim FDF; Mayfair Antibacterial; McD; McD Foaming Antibacterial Hand; Mckesson Hand Cleanse and Soothe with Aloe; Medi-Clean Antiseptic Hand Cleaner; Medi-Hands; Medi-Pak Performance Antimicrobial with Aloe; Medi-Scrub; Medi-scrub Liq 0.6%; Medi-wipes; Medicascrub High Foaming Antiseptic Hand Cleaner; Medicated Lotion Soap 0.5%; Members Mark; Meringue Foaming Dye Free Antibacterial; Micrell Antibacterial Lotion Soap With Chloroxylenol; Micro; Micro-Aseptic; Microsept Antimicrobial; Microstat Med Personnel Hand Liq 1%; Mline; Mosaic Lavender Hand; Mosaic Lemon Hand; Multi-action Denorex 2-IN-1 Dandruff Shampoo + Conditioner; Multi-action Denorex Dandruff Shampoo; MyOxin; NICHOLS Luxury Antimicrobial Foam So ap; Namico Antiseptic Hand Cleaner 557; Natural Concepts Antibacterial Soap; Neptune 362 Antibacterial; Neptune 367 Foaming Antibacterial; Neptune E2 ANTISEPTIC HAND; Nickelodeon Slime Bubble Gum Scented Hand Sanitizer 01; Nickelodeon Slime Red Raspberry Scented Hand Sanitizer 01; Nickelodeon Slime Watermelon Scented Hand Sanitizer 01; No-wash Antibacterial Wash Hand; North Woods Supreme Antiseptic Hand Cleanser; Nova Scrub Lot 0.25%; Novo ProSeries Antibacterial Foaming; OK Foam Anti-Bacterial; OPI Antiseptic Foaming Hand Cleaner; Oasis Antiseptic Skin Cleaner Liq 0.5%; Ops Ranch Hand Antibacterial Foaming; Orange Antibacterial Dish and HandSoap; Osceola Supply Inc 6176; Oti Rx; Oticin; Oticin HC Ear Drops; Oto End 10; P.A.W.S. - Liq 0.5%; PCMX Surgical Scrub; PCMX with Emollient; PRIME SOURCE Antibacterial Hand So ap; PRIME SOURCE Antibacterial Ltion So ap; PRIME SOURCE Antimicrobial Foam So ap; PRIME SOURCE Antimicrobial Foaming Hand So ap; PRIME SOURCE Antimicrobial Foaming Hand So ap w/Chloroxylenol; PRIME SOURCE Antimicrobial Hand So ap; PRIME SOURCE E2 Foam So ap; PRIMORY Antimicrobial Foam; PRO-LINK Foaming Antimicrobial So ap; PRO-LINK Free Hands Antibacterial Foam So ap; PRO-LINK OPTIMUM Foaming Antimicrobial So ap; PRO-LINK OPTIMUM Foaming Medicated Handwash; PRO-LINK Prestige Antibacterial Gold Hand So ap; PROBLEND Antibacterial Liquid Cleanser; PROVON Antimicrobial Ltn Sp with 0.3% PCMX; PROVON Foaming Antimicrobial Handwash with Moisturizers; PROVON Foaming Antimicrobial Handwash with PCMX; PURELL Food Processing HEALTHY SP 0.5pct PCMX Antimicrobial E2 Foam Handwash; PURELL HEALTHY SP 0.5pct PCMX Antimicrobial Foam; PURELL HEALTHY SP PCMX E2 Antimicrobial Foam; PURELL Healthcare HEALTHY SP 0.5pct PCMX Antimicrobial Foam; PURELL Healthy Sp Antibacterial Ltn Sp with PCMX; Palm; Panrosa Antibacterial Bar; Panrosa Antibacterial Hand Green Apple; Panrosa Antibacterial Hand Green Milk and Honey; Panrosa Antibacterial Hand Rose; Pc511 Antimicrobial; Pc529 Ultrex; Pc537 E-2 Brute; Pc557 Palpon; Pearl Anti-microbial Hand 1027ab; Pearlescent; Perigiene; Personal CARE ANTIBACTERIAL HAND; Personal CARE antibacterial deodorant; Personal Care Antibacterial Hand Coconut Ginger; Personal Care Antibacterial Hand Waterfall; Pharma-clenz Liq 1.5%; Phenrex; Phenrex Mvd; Pic N Shovel Antiseptic Hand and Body Wash 6875; Pink Antibacterial; Pink Pearlized Liq; Pink Pearlized Plus; Pioneer Eclipse Touche Foaming Antibacterial Green; Power Play; PowerClean Technologies CleanCare; PowerHouse ULTRA DISH Antibacterial; Pramoxine-HC; Premium Antibacterial Skin Cleanser; Premium Foam Antibacterial; Prescott 50 - 0.25% Liq; Prestige; Prevent; Prime Source Antimicrobial Foaming Hand Soap With Chloroxylenol; Primesource; Primory Antimicrobial Lotion Soap; Primory Clean Skin Antibacterial Ltn Sp; Princess - 0.25% Liq; Pro Care Spectracare Liq 1%; Pro Hands Antiseptic Hand; Pro-Care; ProPower Originals Antimicrobial Foaming So ap; Professional Choice Gold Hand Cleaner; Protect Antiseptic Skin Cleanser 0.5%; Protex Complete Antibacterial Bar; Provon Antimicrobial Lotion Soap 0.6%; Provon Antimicrobial Lotion Soap With 0.3% Chloroxylenol; Provon Medicated Lotion Soap 0.3%; Provon Medicated Lotion Soap With Chloroxylenol; Ps-1000; Publix Green Apple Scent; Publix Ultra Dish Detergent Orange; PurKlenz; PurSan; PurTect; Pure Kleen; PureBac Foam Wash; PureForce; PureLogic Eucalyptus Antibacterial Hand; PureLogic French Lavender Antibacterial Hand; PureLogic Lemon Mint Antibacterial Hand; PureLogic Pink Grapefruit Antibacterial Hand; Purel Antibacterial Lotion Soap 0.3%; Puresan Antibacterial Foaming Hand Wash; Puresan Antibacterial Liquid; Purgo Ultra PC; Puro Antibacterial Wash Foam; Puro Azul Awapuhi; Puro Azul Awapuhi AntiBac; QSC ASSIST Antimicrobial Hand Cleanser; QSC Antimicrobial Wash CM; QSC Foam Fresh Antimicrobial Hand; QSC TF Ambre Antibacterial Wash; Qfs Antibac Hand Soap; Qsr; Quick Clean; RENOWN Antibacterial Foam; RENOWN Antibacterial Foam Cleanser; RENOWN Antibacterial Foam So ap; RENOWN Antimicrobial So ap; Radiance; Radiance Antibacterial Citrus Scent Hand; Radiance Antibacterial Green Apple Scent Hand; Recovery Antiseptic Skin Prep; Reeva Green Apple Antibacterial Hand; Refco Prep Liq Soap 0.7%; Refresh ClearBac Fm; Refresh PureBac Foam; Regimen Antimicrobial; Reliable E2 Luxury Foam Handwash; Reliable Gold Antimicrobial Ltion So ap; Reliable Luxury Foam Antimicrobial Handwash Fresh Fruit Scent; Renown; Rich Pink Antibacterial; Rinse-Free Antibacterial Hand Sanitizer Gel; Rinse-Free Hand Sanitizer; RoyaLab Germ Away; RoyaLab Germ Away Antibacterial; Royal Antibacterial Foam Hand Wash; Rushing FAHS; SAC-VAL Premium Clear Antiseptic Hand Wash; SCOTT Antiseptic Foam Skin Cleanser; SIGNATRY Antimicrobial Foam; SIGNATRY Ultra Antimicrobial Ltn Sp; SMJ Antibacterial Hand; SOMERSET Anti-Bac Hand So ap; Safeguard Antibacterial Hand; Sani Foam Mango Antiseptic Hand and Body Wash; Sani Mango Antiseptic Hand and Body Wash; Sani-dex Antimicrobial Hand Wipes; SaniSuds Antibacterial Foam; Sanitaxe Antibacterial Amber Hand; Sanitex MVP Foam Anti-Bacterial; Sanitex MVP Liquid Anti-Bacterial; Saniwash Antimicrobial; Saniwash Antimicrobial Foaming Hand; Satin Foam High Foaming Antiseptic Hand Wash; Sbs 40 Medicated Skin Cream; Sbs 40 Medicated Skin Lotion; Sbs 41 Medicated Skin Lotion; Scott Antibacterial Skin Cleanser; Scott Antiseptic Skin Cleanser; Scott Brand Antiseptic Skin Cleanser; Scott Sani-fresh Antisep Cleanser 1.75%; Scott Sani-fresh Nro Antis Cleanser 1.75%; Scrub Care; Scrub Care Surgical Scrub Brush-sponge/nail Cleaner With Pcmx and Emolient Cleansing Solution; Scrub-In Surgical Scrub Brush/Sponge; Scrubcare Antimicrobial Skin Lotion; Secure; Septiline II Antimicrobial Lotion Soap; Septisurge; Servo-Stat P; Servo-Stat P Antiseptic Hand Wash; Servo-Stat P Foam Antiseptic Hand Wash; Shopkins HAND SANITIZER; Sierra Soft Antibacterial Wash; Signatry Antimicrobial Lotion Soap; Signatry Ultra Antimicrobial Lotion Soap; Signature Home AB Orange; Simple Hygiene Antibacterial Foam Hand; Simple Hygiene Antibacterial Hand; Skin Cleanser; Skintegrity Foaming; Skyline Antibacterial Hand Cleanser; Sloan Jansan Healthminder Sjs-1001-2; Sloan Jansan Healthminder Sjs-1051-2; Sloan Jansan Healthminder Sjs-1101-2; Sloan Jansan Healthminder Sjs-1651-2; Smart Defender; Smart Foaming Antibacterial; Smart Way Orange Scent Dish; Smile Suds Aer 0.10%; SoapPro S702A; Soft Care Antibacterial-Antiseptic Hand; Soft Care Antiseptic Hand Cleaner - Liq; Soft Care Antiseptic Skin Cleanser; Soft Care Defend; Soft Care Defend Antibacterial Handwash; Soft Care Defend Foam; Soft Care Defend Foam Antibacterial Handwash; Soft Care Food Industry Sanitizing Hand Soap; Soft Saddle; Soft Touch; Soft Touch Lotion Hand Cleanser; Soft and Silky Antiseptic; SoftCIDE-ES; Softcide; Softcide Handwash; Soften Sure Foam Antimicrobial; SoftenSure Foam Antimicrobial; Solutions Gold; Soothing Foot Spray - Liquid; Southern Soft Luxury Foam Antibacterial Hand Wash; Spartan Antiseptic Hand Cleaner; Spartan E2 Hand Wash and Sanitizer; Spartan Lite N Foamy E2 Hand Wash and Sanitizer; Star Brand Antimicrobial Lotion Soap 0.6%; Star Fresh Anti Bac Lot Hand Sop; Starshine C Antimicrobial; Suds High Foaming Antiseptic Hand and Body Wash; Suite Scrub 1000 Liq 3%; Suite Scrub Foam Liq 3%; Summit 362 Antibacterial; Summit 367 Foaming Antibacterial; SunDrops 67; Sunshine's Antibacterial Soap; Super Gel; Super Lotion Sop 0.25%; Super-crem; Supplyways Antimicrobial Foaming Hand Soa p; Supreme; Surgent Antiseptic; Surgical Scrub and Handwash; Swiss Blue Antibacterial Hand Soap; Symmetry Antimicrobial Foaming Hand Wash; Sysco; Sysco Reliance; T-Chem E2 Rated; T-chem Anti-microbial Hand; TOUGH GUY 821 Antimicrobial Liquid Ltion So ap; TOUGH GUY Antibacterial Foam Hand So ap; TOUGH GUY Antimicrobial Foam So ap; TOUGH GUY Antimicrobial Ltion So ap; Tattoo Goo; TenderLaven Hand; Thomas and Friends Hand Sanitizer; Tork Advanced Antimicrobial; Tork Foam Antibacterial; Tork Foam Soap Antibacterial; Tork Liquid Antibacterial; Tork Liquid Soap Antibacterial; Total Performance Antibacterial Foam Hand; Total Skin Care Antimicrobial Skin Cleanser; Triclosan Free Antibacterial 7.5 oz (Fresh Citrus) Antibacterial; Triclosan Free Antibacterial 7.5 oz (Ocean) Antibacterial; Triclosan Free Antibacterial 7.5 oz (Strawberry Pomegranate) Antibacterial; Triclosan Free Antibacterial 7.5 oz original Antibacterial; Triclosan Free Antibacterial Antibacterial; Trioxin; Triple S Gentle Antibacterial Cleanser; Triton AB-741; Trolls bubble gum scented hand sanitizer 01; Trolls grape scented hand sanitizer 01; Trolls red raspberry scented hand sanitizer 01; Trolls strawberry scented hand sanitizer 01; Truly 362; Truly 367; UNISOURCE Foaming Antimicrobial So ap; UNISOURCE Peach Antimicrobial Foam; UNISOURCE Septophene Antibacterial Ltion Cleanser; Ultima DET Antiseptic; Ultimate; Ultimate Solutions Antiseptic Gold; Ultra; Ultra Dish; Ultra Dish Washing Detergent; Ultra So-Soft Dish Detergent; Ultradex Liq 3%; Unica Super-derm - Lot 0.5%; Unica Super-orange; University Medical Pharmaceuticals ANTIBACTERIAL HAND WASH; University Medical Pharmaceuticals Antibacterial Hand Wash; Up (and) Up Green Apple Scent; Uphold Plus; Uscalrite Tec E-1 - Liq Top 0.5%; Vehicle Boat Bag Medical; Victoria Bay; Victoria Bay Anti-Bacterial Hand; Victoria Bay Soft Touch Antibacterial; VioNex; VioNex Towelette; VioNexus; Vionex Antimicrobial Liquid Soap; Vionex Antimicrobial Skinwipe Towelette; Vionex No Rinse Gel Antiseptic Handwash; Vionexus Antimicrobial Foaming Soap; Virobex-P; Virobex-P Foam; Vision Antibacterial Hand Soap; Vita Plus Saniwipes; Vitavie; WAXIECARE Pink Antibacterial Ltion So ap; Waxie Antibacterial Hand; Waxie Clear Tone; Waxie Clear Tone Antibacterial; Waxie antibacterial; Wegmans Ultra Dishwashing Liquid Orange; Wegmans Ultra Dishwashing Liquid Orange Scent; WhiskCare 362; WhiskCare 362 Free; WhiskCare 365; WhiskCare 367; Winning Hands Antibacterial; Winning Hands Premium Antibacterial; Winning Hands Premium Antibacterial Hand Cleaner; Wyandotte Sanifect Foam-E II; XL 10 Antiseptic Hand Soap; XL 40 Anti Bac Lot Hand Sop; Zep Applaud AB; Zep Applaud Hand Cleaner; Zep E-2 Foaming Sanitizing Hand Cleaner; Zep E-2 Hand Sanitizing Cleaner; Zep Foaming E-2 Sanitizing Hand Soap; Zep Round One Ab; Zep Round One Hand Cleaner; Zepaseptic; Zero Tolerance Antibacterial Hand Soap; Zetar Shampoo; adriana Gold; check this out orange scent Dishwashing Liquid; enMotion Antimicrobial Healthcare Personnel Handwash Fragrance Free; health care personnel handwash Aloe Vera; health care personnel handwash Berry; health care personnel handwash Fresh Melon; health care personnel handwash Lavender; health care personnel handwash Peach; health care personnel handwash Strawberry; symmetry Antimicrobial Foaming Hand Wash

$$$$
