
  Mrv1909 02102017112D          

 15 15  0  0  0  0            999 V2000
   -0.7145   -0.6187    0.0000 C   0  0  0  0  0  0  0  0  0  0  0  0
   -0.7145    0.2062    0.0000 C   0  0  0  0  0  0  0  0  0  0  0  0
    0.0000   -1.0313    0.0000 C   0  0  0  0  0  0  0  0  0  0  0  0
    0.7145   -0.6187    0.0000 C   0  0  0  0  0  0  0  0  0  0  0  0
    0.7145    0.2062    0.0000 C   0  0  0  0  0  0  0  0  0  0  0  0
    0.0000    0.6187    0.0000 C   0  0  0  0  0  0  0  0  0  0  0  0
    1.4290   -1.0313    0.0000 C   0  0  0  0  0  0  0  0  0  0  0  0
    2.1436   -0.6187    0.0000 O   0  0  0  0  0  0  0  0  0  0  0  0
    1.4290   -1.8563    0.0000 O   0  0  0  0  0  0  0  0  0  0  0  0
    0.0000    1.4438    0.0000 C   0  0  0  0  0  0  0  0  0  0  0  0
    0.7145    1.8563    0.0000 O   0  0  0  0  0  0  0  0  0  0  0  0
   -0.7145    1.8563    0.0000 O   0  0  0  0  0  0  0  0  0  0  0  0
   -1.4290   -1.0313    0.0000 C   0  0  0  0  0  0  0  0  0  0  0  0
   -2.1436   -0.6187    0.0000 O   0  0  0  0  0  0  0  0  0  0  0  0
   -1.4290   -1.8563    0.0000 O   0  0  0  0  0  0  0  0  0  0  0  0
  2  1  1  0  0  0  0
  3  1  2  0  0  0  0
  4  3  1  0  0  0  0
  5  4  2  0  0  0  0
  6  2  2  0  0  0  0
  6  5  1  0  0  0  0
  7  4  1  0  0  0  0
  8  7  2  0  0  0  0
  9  7  1  0  0  0  0
 10  6  1  0  0  0  0
 11 10  1  0  0  0  0
 12 10  2  0  0  0  0
 13  1  1  0  0  0  0
 14 13  1  0  0  0  0
 15 13  2  0  0  0  0
M  END
> <DATABASE_ID>
DB08632

> <DATABASE_NAME>
drugbank

> <SMILES>
OC(=O)C1=CC(=CC(=C1)C(O)=O)C(O)=O

> <INCHI_IDENTIFIER>
InChI=1S/C9H6O6/c10-7(11)4-1-5(8(12)13)3-6(2-4)9(14)15/h1-3H,(H,10,11)(H,12,13)(H,14,15)

> <INCHI_KEY>
QMKYBPDZANOJGF-UHFFFAOYSA-N

> <FORMULA>
C9H6O6

> <MOLECULAR_WEIGHT>
210.1403

> <EXACT_MASS>
210.016437924

> <JCHEM_ACCEPTOR_COUNT>
6

> <JCHEM_ATOM_COUNT>
21

> <JCHEM_AVERAGE_NEUTRAL_MICROSPECIES_CHARGE>
-2.9979772086783845

> <JCHEM_AVERAGE_POLARIZABILITY>
18.34376415296325

> <JCHEM_BIOAVAILABILITY>
1

> <JCHEM_DONOR_COUNT>
3

> <JCHEM_FORMAL_CHARGE>
0

> <JCHEM_GHOSE_FILTER>
1

> <JCHEM_IUPAC>
benzene-1,3,5-tricarboxylic acid

> <ALOGPS_LOGP>
0.87

> <JCHEM_LOGP>
0.9459945399999998

> <ALOGPS_LOGS>
-2.40

> <JCHEM_MDDR_LIKE_RULE>
0

> <JCHEM_NEUTRAL_CHARGE>
-3

> <JCHEM_NUMBER_OF_RINGS>
1

> <JCHEM_PHYSIOLOGICAL_CHARGE>
-3

> <JCHEM_PKA>
3.8489739181782303

> <JCHEM_PKA_STRONGEST_ACIDIC>
3.1433829794274626

> <JCHEM_POLAR_SURFACE_AREA>
111.89999999999999

> <JCHEM_REFRACTIVITY>
47.826600000000006

> <JCHEM_ROTATABLE_BOND_COUNT>
3

> <JCHEM_RULE_OF_FIVE>
1

> <ALOGPS_SOLUBILITY>
8.37e-01 g/l

> <JCHEM_TRADITIONAL_IUPAC>
9-hydroxyminocycline

> <JCHEM_VEBER_RULE>
0

> <DRUGBANK_ID>
DB08632

> <DRUG_GROUPS>
experimental

> <GENERIC_NAME>
Trimesic acid

> <SYNONYMS>
1,3,5-Tricarboxybenzene; 5-carboxyisophthalic acid; Benzene-1,3,5-tricarboxylic acid; Trimesinic acid; Trimesitinic acid

$$$$
