
  Mrv1572010231512212D          

 36 38  0  0  0  0            999 V2000
   -1.5065    1.8642    0.0000 C   0  0  0  0  0  0  0  0  0  0  0  0
   -1.5065    1.0392    0.0000 C   0  0  0  0  0  0  0  0  0  0  0  0
   -0.7903    0.6268    0.0000 C   0  0  0  0  0  0  0  0  0  0  0  0
   -0.0784    1.0392    0.0000 C   0  0  0  0  0  0  0  0  0  0  0  0
   -0.0784    1.8642    0.0000 C   0  0  0  0  0  0  0  0  0  0  0  0
   -0.7903    2.2767    0.0000 N   0  0  0  0  0  0  0  0  0  0  0  0
   -0.7893   -0.1981    0.0000 C   0  0  0  0  0  0  0  0  0  0  0  0
   -1.4996   -0.6086    0.0000 C   0  0  0  0  0  0  0  0  0  0  0  0
   -1.4985   -1.4335    0.0000 C   0  0  0  0  0  0  0  0  0  0  0  0
   -0.7836   -1.8451    0.0000 C   0  0  0  0  0  0  0  0  0  0  0  0
   -0.0696   -1.4317    0.0000 C   0  0  0  0  0  0  0  0  0  0  0  0
   -0.0706   -0.6068    0.0000 C   0  0  0  0  0  0  0  0  0  0  0  0
    0.6453   -1.8433    0.0000 N   0  3  0  0  0  0  0  0  0  0  0  0
    0.6364    0.6274    0.0000 C   0  0  0  0  0  0  0  0  0  0  0  0
    0.6370   -0.1975    0.0000 O   0  0  0  0  0  0  0  0  0  0  0  0
    1.3503    1.0404    0.0000 O   0  0  0  0  0  0  0  0  0  0  0  0
    2.0651    0.6284    0.0000 C   0  0  0  0  0  0  0  0  0  0  0  0
    2.7793    1.0415    0.0000 C   0  0  0  0  0  0  0  0  0  0  0  0
    3.6015    1.0435    0.0000 C   0  0  0  0  0  0  0  0  0  0  0  0
    0.6364    2.2762    0.0000 C   0  0  0  0  0  0  0  0  0  0  0  0
   -2.2207    2.2771    0.0000 C   0  0  0  0  0  0  0  0  0  0  0  0
   -2.2207    0.6265    0.0000 C   0  0  0  0  0  0  0  0  0  0  0  0
   -2.9354    1.0386    0.0000 O   0  0  0  0  0  0  0  0  0  0  0  0
   -2.2203   -0.1984    0.0000 O   0  0  0  0  0  0  0  0  0  0  0  0
   -3.6496    0.6257    0.0000 C   0  0  0  0  0  0  0  0  0  0  0  0
   -4.3643    1.0379    0.0000 C   0  0  0  0  0  0  0  0  0  0  0  0
   -5.0784    0.6250    0.0000 O   0  0  0  0  0  0  0  0  0  0  0  0
    1.5242   -1.2649    0.0000 O   0  0  0  0  0  0  0  0  0  0  0  0
    0.6463   -2.6683    0.0000 O   0  5  0  0  0  0  0  0  0  0  0  0
    4.3140    1.4602    0.0000 C   0  0  0  0  0  0  0  0  0  0  0  0
    4.3509    2.2854    0.0000 C   0  0  0  0  0  0  0  0  0  0  0  0
   -5.7931    1.0370    0.0000 C   0  0  0  0  0  0  0  0  0  0  0  0
    5.0142    1.0130    0.0000 C   0  0  0  0  0  0  0  0  0  0  0  0
    5.7931    1.3958    0.0000 C   0  0  0  0  0  0  0  0  0  0  0  0
    5.7885    2.2210    0.0000 C   0  0  0  0  0  0  0  0  0  0  0  0
    5.0882    2.6683    0.0000 C   0  0  0  0  0  0  0  0  0  0  0  0
  3  4  1  0  0  0  0
 17 18  1  0  0  0  0
  4  5  2  0  0  0  0
 18 19  2  0  0  0  0
  5  6  1  0  0  0  0
  5 20  1  0  0  0  0
  7  8  2  0  0  0  0
  1 21  1  0  0  0  0
  8  9  1  0  0  0  0
  2 22  1  0  0  0  0
  9 10  2  0  0  0  0
 22 23  1  0  0  0  0
 10 11  1  0  0  0  0
 22 24  2  0  0  0  0
 11 12  2  0  0  0  0
 23 25  1  0  0  0  0
 12  7  1  0  0  0  0
 25 26  1  0  0  0  0
  6  1  1  0  0  0  0
 26 27  1  0  0  0  0
 11 13  1  0  0  0  0
 13 28  2  0  0  0  0
 13 29  1  0  0  0  0
  4 14  1  0  0  0  0
 19 30  1  0  0  0  0
  3  7  1  0  0  0  0
 14 15  2  0  0  0  0
  1  2  2  0  0  0  0
 14 16  1  0  0  0  0
  2  3  1  0  0  0  0
 31 30  1  0  0  0  0
 16 17  1  0  0  0  0
 27 32  1  0  0  0  0
 30 33  2  0  0  0  0
 33 34  1  0  0  0  0
 34 35  2  0  0  0  0
 35 36  1  0  0  0  0
 31 36  2  0  0  0  0
M  CHG  2  13   1  29  -1
M  END
> <DATABASE_ID>
DB09232

> <DATABASE_NAME>
drugbank

> <SMILES>
COCCOC(=O)C1=C(C)NC(C)=C(C1C1=CC=CC(=C1)[N+]([O-])=O)C(=O)OC\C=C\C1=CC=CC=C1

> <INCHI_IDENTIFIER>
InChI=1S/C27H28N2O7/c1-18-23(26(30)35-14-8-11-20-9-5-4-6-10-20)25(21-12-7-13-22(17-21)29(32)33)24(19(2)28-18)27(31)36-16-15-34-3/h4-13,17,25,28H,14-16H2,1-3H3/b11-8+

> <INCHI_KEY>
KJEBULYHNRNJTE-DHZHZOJOSA-N

> <FORMULA>
C27H28N2O7

> <MOLECULAR_WEIGHT>
492.528

> <EXACT_MASS>
492.18965125

> <JCHEM_ACCEPTOR_COUNT>
6

> <JCHEM_ATOM_COUNT>
64

> <JCHEM_AVERAGE_POLARIZABILITY>
51.96826644208423

> <JCHEM_BIOAVAILABILITY>
1

> <JCHEM_DONOR_COUNT>
1

> <JCHEM_FORMAL_CHARGE>
0

> <JCHEM_GHOSE_FILTER>
0

> <JCHEM_IUPAC>
3-(2-methoxyethyl) 5-(2E)-3-phenylprop-2-en-1-yl 2,6-dimethyl-4-(3-nitrophenyl)-1,4-dihydropyridine-3,5-dicarboxylate

> <ALOGPS_LOGP>
4.39

> <JCHEM_LOGP>
4.102907564000001

> <ALOGPS_LOGS>
-5.94

> <JCHEM_MDDR_LIKE_RULE>
1

> <JCHEM_NUMBER_OF_RINGS>
3

> <JCHEM_PHYSIOLOGICAL_CHARGE>
0

> <JCHEM_PKA_STRONGEST_ACIDIC>
19.463590575068523

> <JCHEM_PKA_STRONGEST_BASIC>
-4.115727177814965

> <JCHEM_POLAR_SURFACE_AREA>
117.00000000000003

> <JCHEM_REFRACTIVITY>
137.13519999999997

> <JCHEM_ROTATABLE_BOND_COUNT>
12

> <JCHEM_RULE_OF_FIVE>
1

> <ALOGPS_SOLUBILITY>
5.66e-04 g/l

> <JCHEM_TRADITIONAL_IUPAC>
atelec

> <JCHEM_VEBER_RULE>
0

> <DRUGBANK_ID>
DB09232

> <DRUG_GROUPS>
investigational

> <GENERIC_NAME>
Cilnidipine

> <SYNONYMS>
Cilnidipine

> <INTERNATIONAL_BRANDS>
Atelec

$$$$
