
  Mrv1909 11222217572D          

117123  0  0  1  0            999 V2000
    2.9913    4.9407    0.0000 H   0  0  0  0  0  0  0  0  0  0  0  0
    3.0926    5.7594    0.0000 C   0  0  1  0  0  0  0  0  0  0  0  0
    3.1940    6.5782    0.0000 C   0  0  0  0  0  0  0  0  0  0  0  0
    3.9537    6.8998    0.0000 C   0  0  0  0  0  0  0  0  0  0  0  0
    4.0551    7.7185    0.0000 C   0  0  0  0  0  0  0  0  0  0  0  0
    4.8149    8.0401    0.0000 C   0  0  0  0  0  0  0  0  0  0  0  0
    5.4732    7.5430    0.0000 C   0  0  0  0  0  0  0  0  0  0  0  0
    6.2330    7.8645    0.0000 N   0  0  0  0  0  0  0  0  0  0  0  0
    6.3343    8.6833    0.0000 C   0  0  0  0  0  0  0  0  0  0  0  0
    5.6760    9.1805    0.0000 N   0  0  0  0  0  0  0  0  0  0  0  0
    7.0941    9.0049    0.0000 O   0  0  0  0  0  0  0  0  0  0  0  0
    5.3719    6.7242    0.0000 C   0  0  0  0  0  0  0  0  0  0  0  0
    4.6121    6.4026    0.0000 C   0  0  0  0  0  0  0  0  0  0  0  0
    3.8524    6.0810    0.0000 N   0  0  0  0  0  0  0  0  0  0  0  0
    4.5108    5.5839    0.0000 C   0  0  0  0  0  0  0  0  0  0  0  0
    5.2705    5.9055    0.0000 O   0  0  0  0  0  0  0  0  0  0  0  0
    4.4094    4.7651    0.0000 C   0  0  2  0  0  0  0  0  0  0  0  0
    5.0678    4.2680    0.0000 C   0  0  0  0  0  0  0  0  0  0  0  0
    5.8275    4.5896    0.0000 C   0  0  0  0  0  0  0  0  0  0  0  0
    5.9289    5.4083    0.0000 C   0  0  0  0  0  0  0  0  0  0  0  0
    6.6886    5.7299    0.0000 C   0  0  0  0  0  0  0  0  0  0  0  0
    7.3470    5.2327    0.0000 C   0  0  0  0  0  0  0  0  0  0  0  0
    8.1067    5.5543    0.0000 N   0  0  0  0  0  0  0  0  0  0  0  0
    8.7651    5.0572    0.0000 C   0  0  0  0  0  0  0  0  0  0  0  0
    8.6637    4.2384    0.0000 O   0  0  0  0  0  0  0  0  0  0  0  0
    9.5248    5.3787    0.0000 C   0  0  2  0  0  0  0  0  0  0  0  0
   10.1832    4.8816    0.0000 C   0  0  0  0  0  0  0  0  0  0  0  0
   10.9430    5.2032    0.0000 C   0  0  0  0  0  0  0  0  0  0  0  0
   11.6013    4.7060    0.0000 O   0  0  0  0  0  0  0  0  0  0  0  0
   11.0443    6.0219    0.0000 N   0  0  0  0  0  0  0  0  0  0  0  0
   10.3859    6.5191    0.0000 C   0  0  0  0  0  0  0  0  0  0  0  0
   10.4873    7.3378    0.0000 O   0  0  0  0  0  0  0  0  0  0  0  0
    9.6262    6.1975    0.0000 N   0  0  0  0  0  0  0  0  0  0  0  0
    7.2456    4.4140    0.0000 C   0  0  0  0  0  0  0  0  0  0  0  0
    6.4859    4.0924    0.0000 C   0  0  0  0  0  0  0  0  0  0  0  0
    3.6496    4.4435    0.0000 N   0  0  0  0  0  0  0  0  0  0  0  0
    3.5483    3.6248    0.0000 C   0  0  0  0  0  0  0  0  0  0  0  0
    4.2067    3.1276    0.0000 O   0  0  0  0  0  0  0  0  0  0  0  0
    2.7885    3.3032    0.0000 C   0  0  1  0  0  0  0  0  0  0  0  0
    2.6872    2.4845    0.0000 C   0  0  0  0  0  0  0  0  0  0  0  0
    1.9274    2.1629    0.0000 S   0  0  0  0  0  0  0  0  0  0  0  0
    1.8261    1.3441    0.0000 S   0  0  0  0  0  0  0  0  0  0  0  0
    1.0663    1.0225    0.0000 C   0  0  0  0  0  0  0  0  0  0  0  0
    0.4080    1.5197    0.0000 C   0  0  2  0  0  0  0  0  0  0  0  0
    0.5093    2.3384    0.0000 N   0  0  0  0  0  0  0  0  0  0  0  0
   -0.1491    2.8356    0.0000 C   0  0  0  0  0  0  0  0  0  0  0  0
   -0.9088    2.5140    0.0000 O   0  0  0  0  0  0  0  0  0  0  0  0
   -0.0477    3.6543    0.0000 C   0  0  1  0  0  0  0  0  0  0  0  0
    0.0537    4.4731    0.0000 H   0  0  0  0  0  0  0  0  0  0  0  0
    0.7121    3.9759    0.0000 N   0  0  0  0  0  0  0  0  0  0  0  0
    0.8134    4.7947    0.0000 C   0  0  0  0  0  0  0  0  0  0  0  0
    0.1550    5.2918    0.0000 O   0  0  0  0  0  0  0  0  0  0  0  0
    1.5732    5.1163    0.0000 C   0  0  2  0  0  0  0  0  0  0  0  0
    0.9148    5.6134    0.0000 C   0  0  0  0  0  0  0  0  0  0  0  0
    1.0162    6.4322    0.0000 C   0  0  0  0  0  0  0  0  0  0  0  0
    1.7759    6.7538    0.0000 C   0  0  0  0  0  0  0  0  0  0  0  0
    1.8773    7.5725    0.0000 C   0  0  0  0  0  0  0  0  0  0  0  0
    1.2189    8.0697    0.0000 N   0  0  0  0  0  0  0  0  0  0  0  0
    1.6745    5.9350    0.0000 N   0  0  0  0  0  0  0  0  0  0  0  0
    2.4343    6.2566    0.0000 C   0  0  0  0  0  0  0  0  0  0  0  0
    2.5356    7.0754    0.0000 O   0  0  0  0  0  0  0  0  0  0  0  0
   -0.7061    4.1515    0.0000 C   0  0  1  0  0  0  0  0  0  0  0  0
   -1.4658    3.8299    0.0000 C   0  0  0  0  0  0  0  0  0  0  0  0
   -0.6047    4.9703    0.0000 O   0  0  0  0  0  0  0  0  0  0  0  0
   -0.3518    1.1981    0.0000 C   0  0  0  0  0  0  0  0  0  0  0  0
   -1.0102    1.6953    0.0000 O   0  0  0  0  0  0  0  0  0  0  0  0
   -0.4532    0.3793    0.0000 N   0  0  0  0  0  0  0  0  0  0  0  0
   -1.2129    0.0578    0.0000 C   0  0  2  0  0  0  0  0  0  0  0  0
   -1.8713    0.5549    0.0000 C   0  0  0  0  0  0  0  0  0  0  0  0
   -2.6310    0.2333    0.0000 C   0  0  0  0  0  0  0  0  0  0  0  0
   -2.7324   -0.5854    0.0000 C   0  0  0  0  0  0  0  0  0  0  0  0
   -3.4921   -0.9070    0.0000 C   0  0  0  0  0  0  0  0  0  0  0  0
   -4.1505   -0.4098    0.0000 C   0  0  0  0  0  0  0  0  0  0  0  0
   -4.9102   -0.7314    0.0000 O   0  0  0  0  0  0  0  0  0  0  0  0
   -4.0491    0.4089    0.0000 C   0  0  0  0  0  0  0  0  0  0  0  0
   -3.2894    0.7305    0.0000 C   0  0  0  0  0  0  0  0  0  0  0  0
   -1.3143   -0.7610    0.0000 C   0  0  0  0  0  0  0  0  0  0  0  0
   -0.6559   -1.2581    0.0000 N   0  0  0  0  0  0  0  0  0  0  0  0
   -2.0740   -1.0826    0.0000 O   0  0  0  0  0  0  0  0  0  0  0  0
    3.4469    2.8060    0.0000 N   0  0  0  0  0  0  0  0  0  0  0  0
    4.1943    2.4566    0.0000 C   0  0  0  0  0  0  0  0  0  0  0  0
    4.8705    2.9291    0.0000 O   0  0  0  0  0  0  0  0  0  0  0  0
    4.2653    1.6347    0.0000 C   0  0  2  0  0  0  0  0  0  0  0  0
    4.2501    0.8098    0.0000 C   0  0  0  0  0  0  0  0  0  0  0  0
    3.5282    0.4106    0.0000 C   0  0  0  0  0  0  0  0  0  0  0  0
    3.5129   -0.4143    0.0000 C   0  0  0  0  0  0  0  0  0  0  0  0
    2.7910   -0.8135    0.0000 C   0  0  0  0  0  0  0  0  0  0  0  0
    2.0842   -0.3879    0.0000 C   0  0  0  0  0  0  0  0  0  0  0  0
    1.3623   -0.7871    0.0000 Cl  0  0  0  0  0  0  0  0  0  0  0  0
    2.0995    0.4370    0.0000 C   0  0  0  0  0  0  0  0  0  0  0  0
    2.8214    0.8362    0.0000 C   0  0  0  0  0  0  0  0  0  0  0  0
    4.9873    2.0339    0.0000 N   0  0  0  0  0  0  0  0  0  0  0  0
    5.6940    1.6083    0.0000 C   0  0  0  0  0  0  0  0  0  0  0  0
    5.6788    0.7835    0.0000 O   0  0  0  0  0  0  0  0  0  0  0  0
    6.4160    2.0076    0.0000 C   0  0  0  0  0  0  0  0  0  0  0  0
    7.1227    1.5819    0.0000 C   0  0  0  0  0  0  0  0  0  0  0  0
    7.8447    1.9812    0.0000 C   0  0  0  0  0  0  0  0  0  0  0  0
    8.5514    1.5556    0.0000 N   0  0  0  0  0  0  0  0  0  0  0  0
    9.1931    2.0741    0.0000 C   0  0  0  0  0  0  0  0  0  0  0  0
   10.0180    2.0589    0.0000 C   0  0  0  0  0  0  0  0  0  0  0  0
   10.6401    1.5170    0.0000 N   0  0  0  0  0  0  0  0  0  0  0  0
   11.3620    1.9162    0.0000 C   0  0  0  0  0  0  0  0  0  0  0  0
   12.0688    1.4906    0.0000 C   0  0  0  0  0  0  0  0  0  0  0  0
   12.7907    1.8899    0.0000 O   0  0  0  0  0  0  0  0  0  0  0  0
   12.0535    0.6658    0.0000 O   0  0  0  0  0  0  0  0  0  0  0  0
   10.7683    0.7020    0.0000 C   0  0  0  0  0  0  0  0  0  0  0  0
   10.3427   -0.0047    0.0000 C   0  0  0  0  0  0  0  0  0  0  0  0
    9.5624   -0.2725    0.0000 N   0  0  0  0  0  0  0  0  0  0  0  0
    9.5471   -1.0974    0.0000 C   0  0  0  0  0  0  0  0  0  0  0  0
   10.2539   -1.5230    0.0000 C   0  0  0  0  0  0  0  0  0  0  0  0
   10.9758   -1.1238    0.0000 O   0  0  0  0  0  0  0  0  0  0  0  0
   10.2386   -2.3479    0.0000 O   0  0  0  0  0  0  0  0  0  0  0  0
    8.7924    0.0239    0.0000 C   0  0  0  0  0  0  0  0  0  0  0  0
    8.3932    0.7459    0.0000 C   0  0  0  0  0  0  0  0  0  0  0  0
    7.8599    2.8060    0.0000 C   0  0  0  0  0  0  0  0  0  0  0  0
    8.5819    3.2053    0.0000 O   0  0  0  0  0  0  0  0  0  0  0  0
    7.1532    3.2317    0.0000 O   0  0  0  0  0  0  0  0  0  0  0  0
  2  1  1  6  0  0  0
  2  3  1  0  0  0  0
  3  4  1  0  0  0  0
  4  5  2  0  0  0  0
  5  6  1  0  0  0  0
  6  7  2  0  0  0  0
  7  8  1  0  0  0  0
  8  9  1  0  0  0  0
  9 10  1  0  0  0  0
  9 11  2  0  0  0  0
  7 12  1  0  0  0  0
 12 13  2  0  0  0  0
  4 13  1  0  0  0  0
  2 14  1  1  0  0  0
 14 15  1  0  0  0  0
 15 16  2  0  0  0  0
 17 15  1  0  0  0  0
 17 18  1  6  0  0  0
 18 19  1  0  0  0  0
 19 20  2  0  0  0  0
 20 21  1  0  0  0  0
 21 22  2  0  0  0  0
 22 23  1  0  0  0  0
 23 24  1  0  0  0  0
 24 25  2  0  0  0  0
 26 24  1  1  0  0  0
 26 27  1  0  0  0  0
 27 28  1  0  0  0  0
 28 29  2  0  0  0  0
 28 30  1  0  0  0  0
 30 31  1  0  0  0  0
 31 32  2  0  0  0  0
 31 33  1  0  0  0  0
 26 33  1  0  0  0  0
 22 34  1  0  0  0  0
 34 35  2  0  0  0  0
 19 35  1  0  0  0  0
 17 36  1  0  0  0  0
 36 37  1  0  0  0  0
 37 38  2  0  0  0  0
 39 37  1  6  0  0  0
 39 40  1  0  0  0  0
 40 41  1  0  0  0  0
 41 42  1  0  0  0  0
 42 43  1  0  0  0  0
 44 43  1  0  0  0  0
 44 45  1  0  0  0  0
 45 46  1  0  0  0  0
 46 47  2  0  0  0  0
 48 46  1  0  0  0  0
 48 49  1  1  0  0  0
 48 50  1  0  0  0  0
 50 51  1  0  0  0  0
 51 52  2  0  0  0  0
 53 51  1  0  0  0  0
 53 54  1  1  0  0  0
 54 55  1  0  0  0  0
 55 56  1  0  0  0  0
 56 57  1  0  0  0  0
 57 58  1  0  0  0  0
 53 59  1  6  0  0  0
 59 60  1  0  0  0  0
  2 60  1  0  0  0  0
 60 61  2  0  0  0  0
 48 62  1  0  0  0  0
 62 63  1  0  0  0  0
 62 64  1  1  0  0  0
 44 65  1  1  0  0  0
 65 66  2  0  0  0  0
 65 67  1  0  0  0  0
 68 67  1  1  0  0  0
 68 69  1  0  0  0  0
 69 70  1  0  0  0  0
 70 71  2  0  0  0  0
 71 72  1  0  0  0  0
 72 73  2  0  0  0  0
 73 74  1  0  0  0  0
 73 75  1  0  0  0  0
 75 76  2  0  0  0  0
 70 76  1  0  0  0  0
 68 77  1  0  0  0  0
 77 78  1  0  0  0  0
 77 79  2  0  0  0  0
 39 80  1  1  0  0  0
 80 81  1  0  0  0  0
 81 82  2  0  0  0  0
 83 81  1  0  0  0  0
 83 84  1  0  0  0  0
 84 85  1  0  0  0  0
 85 86  2  0  0  0  0
 86 87  1  0  0  0  0
 87 88  2  0  0  0  0
 88 89  1  0  0  0  0
 88 90  1  0  0  0  0
 90 91  2  0  0  0  0
 85 91  1  0  0  0  0
 83 92  1  1  0  0  0
 92 93  1  0  0  0  0
 93 94  2  0  0  0  0
 93 95  1  0  0  0  0
 95 96  1  0  0  0  0
 96 97  1  0  0  0  0
 97 98  1  0  0  0  0
 98 99  1  0  0  0  0
 99100  1  0  0  0  0
100101  1  0  0  0  0
101102  1  0  0  0  0
102103  1  0  0  0  0
103104  1  0  0  0  0
103105  2  0  0  0  0
101106  1  0  0  0  0
106107  1  0  0  0  0
107108  1  0  0  0  0
108109  1  0  0  0  0
109110  1  0  0  0  0
110111  1  0  0  0  0
110112  2  0  0  0  0
108113  1  0  0  0  0
113114  1  0  0  0  0
 98114  1  0  0  0  0
 97115  1  0  0  0  0
115116  1  0  0  0  0
115117  2  0  0  0  0
M  END
> <DATABASE_ID>
DB17158

> <DATABASE_NAME>
drugbank

> <SMILES>
[H][C@]1(CC2=CC=C(NC(N)=O)C=C2)NC(=O)[C@H](CC2=CC=C(NC(=O)[C@@H]3CC(=O)NC(=O)N3)C=C2)NC(=O)[C@@H](CSSC[C@H](NC(=O)[C@@]([H])(NC(=O)[C@H](CCCCN)NC1=O)[C@@H](C)O)C(=O)N[C@H](CC1=CC=C(O)C=C1)C(N)=O)NC(=O)[C@H](CC1=CC=C(Cl)C=C1)NC(=O)CCC(N1CCN(CC(O)=O)CCN(CC(O)=O)CC1)C(O)=O

> <INCHI_IDENTIFIER>
InChI=1S/C73H95ClN18O21S2/c1-39(93)61-70(109)86-55(68(107)82-49(62(76)101)30-43-11-19-47(94)20-12-43)38-115-114-37-54(85-65(104)50(31-40-5-13-44(74)14-6-40)80-57(95)22-21-56(71(110)111)92-28-26-90(35-59(97)98)24-25-91(27-29-92)36-60(99)100)69(108)84-52(33-41-7-15-45(16-8-41)78-64(103)53-34-58(96)88-73(113)87-53)67(106)83-51(32-42-9-17-46(18-10-42)79-72(77)112)66(105)81-48(63(102)89-61)4-2-3-23-75/h5-20,39,48-56,61,93-94H,2-4,21-38,75H2,1H3,(H2,76,101)(H,78,103)(H,80,95)(H,81,105)(H,82,107)(H,83,106)(H,84,108)(H,85,104)(H,86,109)(H,89,102)(H,97,98)(H,99,100)(H,110,111)(H3,77,79,112)(H2,87,88,96,113)/t39-,48?,49-,50+,51-,52+,53+,54?,55+,56?,61+/m1/s1

> <INCHI_KEY>
MDDXVKPIPNUPBG-LJLVINLTSA-N

> <FORMULA>
C73H95ClN18O21S2

> <MOLECULAR_WEIGHT>
1660.24

> <EXACT_MASS>
1658.6049122

> <JCHEM_ACCEPTOR_COUNT>
25

> <JCHEM_ATOM_COUNT>
210

> <JCHEM_AVERAGE_NEUTRAL_MICROSPECIES_CHARGE>
3.9892816228751977

> <JCHEM_AVERAGE_POLARIZABILITY>
162.8205201405459

> <JCHEM_BIOAVAILABILITY>
0

> <JCHEM_DONOR_COUNT>
20

> <JCHEM_FORMAL_CHARGE>
0

> <JCHEM_GHOSE_FILTER>
0

> <JCHEM_IUPAC>
4-{[(1S)-1-{[(4R,7S,10S,13R,16S,19S)-10-(4-aminobutyl)-4-{[(1R)-1-carbamoyl-2-(4-hydroxyphenyl)ethyl]carbamoyl}-13-{[4-(carbamoylamino)phenyl]methyl}-16-({4-[(4S)-2,6-dioxo-1,3-diazinane-4-amido]phenyl}methyl)-7-[(1R)-1-hydroxyethyl]-6,9,12,15,18-pentaoxo-1,2-dithia-5,8,11,14,17-pentaazacycloicosan-19-yl]carbamoyl}-2-(4-chlorophenyl)ethyl]carbamoyl}-2-[4,7-bis(carboxymethyl)-1,4,7-triazonan-1-yl]butanoic acid

> <ALOGPS_LOGP>
-1.29

> <JCHEM_LOGP>
-8.7516950637965

> <ALOGPS_LOGS>
-4.82

> <JCHEM_MDDR_LIKE_RULE>
1

> <JCHEM_NEUTRAL_CHARGE>
-1

> <JCHEM_NUMBER_OF_RINGS>
7

> <JCHEM_PHYSIOLOGICAL_CHARGE>
-1

> <JCHEM_PKA>
1.4305389956189623

> <JCHEM_PKA_STRONGEST_ACIDIC>
-3.149265936536954

> <JCHEM_PKA_STRONGEST_BASIC>
10.284833601996963

> <JCHEM_POLAR_SURFACE_AREA>
606.4100000000001

> <JCHEM_REFRACTIVITY>
417.5448000000004

> <JCHEM_ROTATABLE_BOND_COUNT>
31

> <JCHEM_RULE_OF_FIVE>
0

> <ALOGPS_SOLUBILITY>
2.49e-02 g/l

> <JCHEM_TRADITIONAL_IUPAC>
4-{[(1S)-1-{[(4R,7S,10S,13R,16S,19S)-10-(4-aminobutyl)-4-{[(1R)-1-carbamoyl-2-(4-hydroxyphenyl)ethyl]carbamoyl}-13-{[4-(carbamoylamino)phenyl]methyl}-16-({4-[(4S)-2,6-dioxo-1,3-diazinane-4-amido]phenyl}methyl)-7-[(1R)-1-hydroxyethyl]-6,9,12,15,18-pentaoxo-1,2-dithia-5,8,11,14,17-pentaazacycloicosan-19-yl]carbamoyl}-2-(4-chlorophenyl)ethyl]carbamoyl}-2-[4,7-bis(carboxymethyl)-1,4,7-triazonan-1-yl]butanoic acid

> <JCHEM_VEBER_RULE>
0

> <DRUGBANK_ID>
DB17158

> <DRUG_GROUPS>
investigational

> <GENERIC_NAME>
Satoreotide trizoxetan

$$$$
