
  Mrv1652306131722032D          

  1  0  0  0  0  0            999 V2000
    0.0000    0.0000    0.0000 Kr  0  0  0  0  0  0  0  0  0  0  0  0
M  ISO  1   1  81
M  END
> <DATABASE_ID>
DB09443

> <DATABASE_NAME>
drugbank

> <SMILES>
[81Kr]

> <INCHI_IDENTIFIER>
InChI=1S/Kr/i1-3

> <INCHI_KEY>
DNNSSWSSYDEUBZ-OIOBTWANSA-N

> <FORMULA>
Kr

> <MOLECULAR_WEIGHT>
80.9166

> <EXACT_MASS>
80.916592419

> <JCHEM_ACCEPTOR_COUNT>
0

> <JCHEM_ATOM_COUNT>
1

> <JCHEM_AVERAGE_POLARIZABILITY>
1.7784

> <JCHEM_BIOAVAILABILITY>
1

> <JCHEM_DONOR_COUNT>
0

> <JCHEM_FORMAL_CHARGE>
0

> <JCHEM_GHOSE_FILTER>
0

> <JCHEM_IUPAC>
(81Kr)krypton

> <JCHEM_LOGP>
0.0

> <JCHEM_MDDR_LIKE_RULE>
0

> <JCHEM_NUMBER_OF_RINGS>
0

> <JCHEM_PHYSIOLOGICAL_CHARGE>
0

> <JCHEM_POLAR_SURFACE_AREA>
0.0

> <JCHEM_REFRACTIVITY>
0.0

> <JCHEM_ROTATABLE_BOND_COUNT>
0

> <JCHEM_RULE_OF_FIVE>
1

> <JCHEM_TRADITIONAL_IUPAC>
(81Kr)krypton

> <JCHEM_VEBER_RULE>
1

> <DRUGBANK_ID>
DB09443

> <DRUG_GROUPS>
approved

> <GENERIC_NAME>
Krypton Kr 81m

> <SYNONYMS>
Krypton (81M Kr); Krypton (81mKr); Krypton (81mKr) gas; Krypton Kr 81m; Krypton, isotope of mass 81; Krypton, Kr-81m

$$$$
