
  Mrv1652310201623212D          

 33 37  0  0  1  0            999 V2000
    2.0701    1.1104    0.0000 C   0  0  0  0  0  0  0  0  0  0  0  0
    1.3556    0.6979    0.0000 C   0  0  0  0  0  0  0  0  0  0  0  0
    0.6411    1.1104    0.0000 C   0  0  0  0  0  0  0  0  0  0  0  0
    0.6411    1.9354    0.0000 C   0  0  0  0  0  0  0  0  0  0  0  0
    1.3556    2.3479    0.0000 C   0  0  0  0  0  0  0  0  0  0  0  0
    2.0701    1.9354    0.0000 C   0  0  0  0  0  0  0  0  0  0  0  0
    1.3556    3.1729    0.0000 O   0  0  0  0  0  0  0  0  0  0  0  0
    2.0701    3.5854    0.0000 C   0  0  0  0  0  0  0  0  0  0  0  0
    2.0701    4.4104    0.0000 C   0  0  0  0  0  0  0  0  0  0  0  0
    1.3556    4.8229    0.0000 C   0  0  0  0  0  0  0  0  0  0  0  0
    1.3556    5.6479    0.0000 C   0  0  0  0  0  0  0  0  0  0  0  0
    2.0701    6.0604    0.0000 C   0  0  0  0  0  0  0  0  0  0  0  0
    2.7845    5.6479    0.0000 C   0  0  0  0  0  0  0  0  0  0  0  0
    2.7845    4.8229    0.0000 C   0  0  0  0  0  0  0  0  0  0  0  0
    2.0701    6.8854    0.0000 C   0  0  0  0  0  0  0  0  0  0  0  0
    2.7845    7.2979    0.0000 N   0  0  0  0  0  0  0  0  0  0  0  0
    2.7845    8.1229    0.0000 C   0  0  0  0  0  0  0  0  0  0  0  0
    3.4990    8.5354    0.0000 C   0  0  0  0  0  0  0  0  0  0  0  0
    4.2135    8.1229    0.0000 O   0  0  0  0  0  0  0  0  0  0  0  0
    4.2135    7.2979    0.0000 C   0  0  0  0  0  0  0  0  0  0  0  0
    3.4990    6.8854    0.0000 C   0  0  0  0  0  0  0  0  0  0  0  0
   -0.1435    2.1904    0.0000 C   0  0  0  0  0  0  0  0  0  0  0  0
   -0.6284    1.5229    0.0000 N   0  0  0  0  0  0  0  0  0  0  0  0
   -0.1435    0.8555    0.0000 C   0  0  0  0  0  0  0  0  0  0  0  0
   -0.3984    0.0709    0.0000 O   0  0  0  0  0  0  0  0  0  0  0  0
   -1.4534    1.5229    0.0000 C   0  0  1  0  0  0  0  0  0  0  0  0
   -1.8659    0.8085    0.0000 C   0  0  0  0  0  0  0  0  0  0  0  0
   -2.6909    0.8085    0.0000 C   0  0  0  0  0  0  0  0  0  0  0  0
   -3.1034    1.5229    0.0000 C   0  0  0  0  0  0  0  0  0  0  0  0
   -3.9284    1.5229    0.0000 O   0  0  0  0  0  0  0  0  0  0  0  0
   -2.6909    2.2374    0.0000 N   0  0  0  0  0  0  0  0  0  0  0  0
   -1.8659    2.2374    0.0000 C   0  0  0  0  0  0  0  0  0  0  0  0
   -1.4534    2.9519    0.0000 O   0  0  0  0  0  0  0  0  0  0  0  0
  1  2  2  0  0  0  0
  2  3  1  0  0  0  0
  3  4  2  0  0  0  0
  4  5  1  0  0  0  0
  5  6  2  0  0  0  0
  1  6  1  0  0  0  0
  5  7  1  0  0  0  0
  7  8  1  0  0  0  0
  8  9  1  0  0  0  0
  9 10  2  0  0  0  0
 10 11  1  0  0  0  0
 11 12  2  0  0  0  0
 12 13  1  0  0  0  0
 13 14  2  0  0  0  0
  9 14  1  0  0  0  0
 12 15  1  0  0  0  0
 15 16  1  0  0  0  0
 16 17  1  0  0  0  0
 17 18  1  0  0  0  0
 18 19  1  0  0  0  0
 19 20  1  0  0  0  0
 20 21  1  0  0  0  0
 16 21  1  0  0  0  0
  4 22  1  0  0  0  0
 22 23  1  0  0  0  0
 23 24  1  0  0  0  0
  3 24  1  0  0  0  0
 24 25  2  0  0  0  0
 26 23  1  1  0  0  0
 26 27  1  0  0  0  0
 27 28  1  0  0  0  0
 28 29  1  0  0  0  0
 29 30  2  0  0  0  0
 29 31  1  0  0  0  0
 31 32  1  0  0  0  0
 26 32  1  0  0  0  0
 32 33  2  0  0  0  0
M  END
> <DATABASE_ID>
DB12101

> <DATABASE_NAME>
drugbank

> <SMILES>
O=C1N(CC2=C1C=CC=C2OCC1=CC=C(CN2CCOCC2)C=C1)[C@H]1CCC(=O)NC1=O

> <INCHI_IDENTIFIER>
InChI=1S/C25H27N3O5/c29-23-9-8-21(24(30)26-23)28-15-20-19(25(28)31)2-1-3-22(20)33-16-18-6-4-17(5-7-18)14-27-10-12-32-13-11-27/h1-7,21H,8-16H2,(H,26,29,30)/t21-/m0/s1

> <INCHI_KEY>
IXZOHGPZAQLIBH-NRFANRHFSA-N

> <FORMULA>
C25H27N3O5

> <MOLECULAR_WEIGHT>
449.507

> <EXACT_MASS>
449.195070981

> <JCHEM_ACCEPTOR_COUNT>
6

> <JCHEM_ATOM_COUNT>
60

> <JCHEM_AVERAGE_POLARIZABILITY>
47.732207885080115

> <JCHEM_BIOAVAILABILITY>
1

> <JCHEM_DONOR_COUNT>
1

> <JCHEM_FORMAL_CHARGE>
0

> <JCHEM_GHOSE_FILTER>
1

> <JCHEM_IUPAC>
(3S)-3-[4-({4-[(morpholin-4-yl)methyl]phenyl}methoxy)-1-oxo-2,3-dihydro-1H-isoindol-2-yl]piperidine-2,6-dione

> <ALOGPS_LOGP>
2.07

> <JCHEM_LOGP>
1.410771962000001

> <ALOGPS_LOGS>
-3.81

> <JCHEM_MDDR_LIKE_RULE>
1

> <JCHEM_NUMBER_OF_RINGS>
5

> <JCHEM_PHYSIOLOGICAL_CHARGE>
1

> <JCHEM_PKA>
14.032631270299536

> <JCHEM_PKA_STRONGEST_ACIDIC>
11.611529344334407

> <JCHEM_PKA_STRONGEST_BASIC>
6.910951871253253

> <JCHEM_POLAR_SURFACE_AREA>
88.18

> <JCHEM_REFRACTIVITY>
122.29069999999996

> <JCHEM_ROTATABLE_BOND_COUNT>
6

> <JCHEM_RULE_OF_FIVE>
1

> <ALOGPS_SOLUBILITY>
7.02e-02 g/l

> <JCHEM_TRADITIONAL_IUPAC>
(3S)-3-(4-{[4-(morpholin-4-ylmethyl)phenyl]methoxy}-1-oxo-3H-isoindol-2-yl)piperidine-2,6-dione

> <JCHEM_VEBER_RULE>
0

> <DRUGBANK_ID>
DB12101

> <DRUG_GROUPS>
investigational

> <GENERIC_NAME>
Iberdomide

> <SYNONYMS>
(S)-3-(4-((4-(Morpholinomethyl)benzyl)oxy)-1-oxoisoindolin-2-yl)piperidine-2,6-dione; 2,6-Piperidinedione, 3-(1,3-dihydro-4-((4-(4-morpholinylmethyl)phenyl)methoxy)-1-oxo-2H-isoindol-2-yl)-, (3S)-

$$$$
