
  Mrv1909 05201914262D          

 18 18  0  0  0  0            999 V2000
   -2.8299   -3.6748    0.0000 C   0  0  0  0  0  0  0  0  0  0  0  0
   -2.1154   -3.2623    0.0000 O   0  0  0  0  0  0  0  0  0  0  0  0
   -1.4009   -3.6748    0.0000 C   0  0  0  0  0  0  0  0  0  0  0  0
   -1.4009   -4.4998    0.0000 O   0  0  0  0  0  0  0  0  0  0  0  0
   -0.6865   -3.2623    0.0000 C   0  0  0  0  0  0  0  0  0  0  0  0
    0.0280   -3.6748    0.0000 C   0  0  0  0  0  0  0  0  0  0  0  0
    0.7425   -3.2623    0.0000 C   0  0  0  0  0  0  0  0  0  0  0  0
    1.4569   -3.6748    0.0000 O   0  0  0  0  0  0  0  0  0  0  0  0
    0.7425   -2.4373    0.0000 O   0  0  0  0  0  0  0  0  0  0  0  0
    1.4569   -2.0248    0.0000 C   0  0  0  0  0  0  0  0  0  0  0  0
    2.1714   -2.4373    0.0000 C   0  0  0  0  0  0  0  0  0  0  0  0
    2.8859   -2.0248    0.0000 N   0  0  0  0  0  0  0  0  0  0  0  0
    2.9721   -1.2043    0.0000 C   0  0  0  0  0  0  0  0  0  0  0  0
    2.3590   -0.6523    0.0000 O   0  0  0  0  0  0  0  0  0  0  0  0
    3.7791   -1.0328    0.0000 C   0  0  0  0  0  0  0  0  0  0  0  0
    4.1916   -1.7472    0.0000 C   0  0  0  0  0  0  0  0  0  0  0  0
    3.6396   -2.3603    0.0000 C   0  0  0  0  0  0  0  0  0  0  0  0
    3.8111   -3.1673    0.0000 O   0  0  0  0  0  0  0  0  0  0  0  0
  1  2  1  0  0  0  0
  2  3  1  0  0  0  0
  3  4  2  0  0  0  0
  3  5  1  0  0  0  0
  5  6  2  0  0  0  0
  6  7  1  0  0  0  0
  7  8  2  0  0  0  0
  7  9  1  0  0  0  0
  9 10  1  0  0  0  0
 10 11  1  0  0  0  0
 11 12  1  0  0  0  0
 12 13  1  0  0  0  0
 13 14  2  0  0  0  0
 13 15  1  0  0  0  0
 15 16  1  0  0  0  0
 16 17  1  0  0  0  0
 12 17  1  0  0  0  0
 17 18  2  0  0  0  0
M  END
> <DATABASE_ID>
DB14783

> <DATABASE_NAME>
drugbank

> <SMILES>
COC(=O)\C=C\C(=O)OCCN1C(=O)CCC1=O

> <INCHI_IDENTIFIER>
InChI=1S/C11H13NO6/c1-17-10(15)4-5-11(16)18-7-6-12-8(13)2-3-9(12)14/h4-5H,2-3,6-7H2,1H3/b5-4+

> <INCHI_KEY>
YIMYDTCOUQIDMT-SNAWJCMRSA-N

> <FORMULA>
C11H13NO6

> <MOLECULAR_WEIGHT>
255.226

> <EXACT_MASS>
255.074287143

> <JCHEM_ACCEPTOR_COUNT>
4

> <JCHEM_ATOM_COUNT>
31

> <JCHEM_AVERAGE_POLARIZABILITY>
23.88912185205783

> <JCHEM_BIOAVAILABILITY>
1

> <JCHEM_DONOR_COUNT>
0

> <JCHEM_FORMAL_CHARGE>
0

> <JCHEM_GHOSE_FILTER>
1

> <JCHEM_IUPAC>
1-[2-(2,5-dioxopyrrolidin-1-yl)ethyl] 4-methyl (2E)-but-2-enedioate

> <ALOGPS_LOGP>
-0.08

> <JCHEM_LOGP>
-0.22377999133333323

> <ALOGPS_LOGS>
-1.67

> <JCHEM_MDDR_LIKE_RULE>
0

> <JCHEM_NUMBER_OF_RINGS>
1

> <JCHEM_PHYSIOLOGICAL_CHARGE>
0

> <JCHEM_PKA_STRONGEST_BASIC>
-6.345160908087217

> <JCHEM_POLAR_SURFACE_AREA>
89.98000000000002

> <JCHEM_REFRACTIVITY>
59.354300000000016

> <JCHEM_ROTATABLE_BOND_COUNT>
7

> <JCHEM_RULE_OF_FIVE>
1

> <ALOGPS_SOLUBILITY>
5.50e+00 g/l

> <JCHEM_TRADITIONAL_IUPAC>
(2R)-14-fluoro-2-methyl-6,9,10,19-tetraazapentacyclo[14.2.1.0^{2,6}.0^{8,18}.0^{12,17}]nonadeca-1(18),8,12(17),13,15-pentaen-11-one

> <JCHEM_VEBER_RULE>
0

> <DRUGBANK_ID>
DB14783

> <DRUG_GROUPS>
approved; investigational

> <GENERIC_NAME>
Diroximel fumarate

> <SYNONYMS>
Diroximel fumarate

> <PRODUCTS>
Vumerity

$$$$
