
  Mrv1652305301723412D          

 12 11  0  0  0  0            999 V2000
    0.7145    0.8250    0.0000 C   0  0  0  0  0  0  0  0  0  0  0  0
    0.0000    0.4125    0.0000 C   0  0  0  0  0  0  0  0  0  0  0  0
   -0.7145    0.8250    0.0000 C   0  0  0  0  0  0  0  0  0  0  0  0
   -1.4289    0.4125    0.0000 C   0  0  0  0  0  0  0  0  0  0  0  0
   -1.4289   -0.4125    0.0000 O   0  0  0  0  0  0  0  0  0  0  0  0
    0.0000   -0.4125    0.0000 O   0  0  0  0  0  0  0  0  0  0  0  0
    1.4289    0.4125    0.0000 O   0  0  0  0  0  0  0  0  0  0  0  0
    0.7145    1.6500    0.0000 O   0  0  0  0  0  0  0  0  0  0  0  0
   -2.1434    0.8250    0.0000 O   0  0  0  0  0  0  0  0  0  0  0  0
   -1.4289    2.0625    0.0000 C   0  0  0  0  0  0  0  0  0  0  0  0
   -0.7145    1.6500    0.0000 C   0  0  0  0  0  0  0  0  0  0  0  0
    0.0000    2.0625    0.0000 C   0  0  0  0  0  0  0  0  0  0  0  0
  8  1  2  0  0  0  0
  2  1  1  0  0  0  0
  3  2  1  0  0  0  0
  3 11  1  0  0  0  0
  4  3  1  0  0  0  0
  9  4  1  0  0  0  0
  5  4  2  0  0  0  0
  2  6  1  0  0  0  0
  7  1  1  0  0  0  0
 11 10  1  0  0  0  0
 12 11  1  0  0  0  0
M  END
> <DATABASE_ID>
DB04279

> <DATABASE_NAME>
drugbank

> <SMILES>
CC(C)C(C(O)C(O)=O)C(O)=O

> <INCHI_IDENTIFIER>
InChI=1S/C7H12O5/c1-3(2)4(6(9)10)5(8)7(11)12/h3-5,8H,1-2H3,(H,9,10)(H,11,12)

> <INCHI_KEY>
RNQHMTFBUSSBJQ-UHFFFAOYSA-N

> <FORMULA>
C7H12O5

> <MOLECULAR_WEIGHT>
176.168

> <EXACT_MASS>
176.068473486

> <JCHEM_ACCEPTOR_COUNT>
5

> <JCHEM_ATOM_COUNT>
24

> <JCHEM_AVERAGE_POLARIZABILITY>
16.40114279829364

> <JCHEM_BIOAVAILABILITY>
1

> <JCHEM_DONOR_COUNT>
3

> <JCHEM_FORMAL_CHARGE>
0

> <JCHEM_GHOSE_FILTER>
0

> <JCHEM_IUPAC>
2-hydroxy-3-(propan-2-yl)butanedioic acid

> <ALOGPS_LOGP>
0.28

> <JCHEM_LOGP>
0.1609326116666665

> <ALOGPS_LOGS>
-0.33

> <JCHEM_MDDR_LIKE_RULE>
0

> <JCHEM_NUMBER_OF_RINGS>
0

> <JCHEM_PHYSIOLOGICAL_CHARGE>
-2

> <JCHEM_PKA>
5.519667331107795

> <JCHEM_PKA_STRONGEST_ACIDIC>
3.6770578154838147

> <JCHEM_PKA_STRONGEST_BASIC>
-4.015599488752675

> <JCHEM_POLAR_SURFACE_AREA>
94.83

> <JCHEM_REFRACTIVITY>
38.5993

> <JCHEM_ROTATABLE_BOND_COUNT>
4

> <JCHEM_RULE_OF_FIVE>
1

> <ALOGPS_SOLUBILITY>
8.33e+01 g/l

> <JCHEM_TRADITIONAL_IUPAC>
3-isopropylmalic acid

> <JCHEM_VEBER_RULE>
0

> <DRUGBANK_ID>
DB04279

> <SECONDARY_ACCESSION_NUMBERS>
EXPT01919

> <DRUG_GROUPS>
experimental

> <GENERIC_NAME>
3-Isopropylmalic Acid

$$$$
