
  Mrv1909 02282018152D          

  8  7  0  0  0  0            999 V2000
    1.0717    0.2062    0.0000 C   0  0  0  0  0  0  0  0  0  0  0  0
    0.3572   -0.2062    0.0000 C   0  0  0  0  0  0  0  0  0  0  0  0
   -0.3572    0.2062    0.0000 C   0  0  0  0  0  0  0  0  0  0  0  0
   -1.0717   -0.2062    0.0000 C   0  0  0  0  0  0  0  0  0  0  0  0
   -1.0717   -1.0313    0.0000 C   0  0  0  0  0  0  0  0  0  0  0  0
   -1.7862    0.2062    0.0000 C   0  0  0  0  0  0  0  0  0  0  0  0
    1.0717    1.0312    0.0000 O   0  0  0  0  0  0  0  0  0  0  0  0
    1.7862   -0.2062    0.0000 O   0  0  0  0  0  0  0  0  0  0  0  0
  1  2  1  0  0  0  0
  2  3  1  0  0  0  0
  3  4  1  0  0  0  0
  4  5  1  0  0  0  0
  4  6  1  0  0  0  0
  1  7  2  0  0  0  0
  1  8  1  0  0  0  0
M  END
> <DATABASE_ID>
DB03993

> <DATABASE_NAME>
drugbank

> <SMILES>
CC(C)CCC(O)=O

> <INCHI_IDENTIFIER>
InChI=1S/C6H12O2/c1-5(2)3-4-6(7)8/h5H,3-4H2,1-2H3,(H,7,8)

> <INCHI_KEY>
FGKJLKRYENPLQH-UHFFFAOYSA-N

> <FORMULA>
C6H12O2

> <MOLECULAR_WEIGHT>
116.1583

> <EXACT_MASS>
116.083729628

> <JCHEM_ACCEPTOR_COUNT>
2

> <JCHEM_ATOM_COUNT>
20

> <JCHEM_AVERAGE_NEUTRAL_MICROSPECIES_CHARGE>
-0.9878445734169554

> <JCHEM_AVERAGE_POLARIZABILITY>
13.062697113252494

> <JCHEM_BIOAVAILABILITY>
1

> <JCHEM_DONOR_COUNT>
1

> <JCHEM_FORMAL_CHARGE>
0

> <JCHEM_GHOSE_FILTER>
0

> <JCHEM_IUPAC>
4-methylpentanoic acid

> <ALOGPS_LOGP>
1.72

> <JCHEM_LOGP>
1.6533465589999996

> <ALOGPS_LOGS>
-0.96

> <JCHEM_MDDR_LIKE_RULE>
0

> <JCHEM_NEUTRAL_CHARGE>
-1

> <JCHEM_NUMBER_OF_RINGS>
0

> <JCHEM_PHYSIOLOGICAL_CHARGE>
-1

> <JCHEM_PKA_STRONGEST_ACIDIC>
5.090081586138642

> <JCHEM_POLAR_SURFACE_AREA>
37.3

> <JCHEM_REFRACTIVITY>
31.0212

> <JCHEM_ROTATABLE_BOND_COUNT>
3

> <JCHEM_RULE_OF_FIVE>
1

> <ALOGPS_SOLUBILITY>
1.29e+01 g/l

> <JCHEM_TRADITIONAL_IUPAC>
4'-phosphopantetheine

> <JCHEM_VEBER_RULE>
1

> <DRUGBANK_ID>
DB03993

> <SECONDARY_ACCESSION_NUMBERS>
EXPT00220

> <DRUG_GROUPS>
experimental

> <GENERIC_NAME>
Isocaproic acid

> <SYNONYMS>
4-Methylvaleric acid; Isobutylacetic acid

$$$$
