
  Mrv1909 09152121282D          

 89 90  0  0  1  0            999 V2000
    3.6212   -0.3450    0.0000 C   0  0  0  0  0  0  0  0  0  0  0  0
    4.3360   -0.7555    0.0000 C   0  0  0  0  0  0  0  0  0  0  0  0
    5.0586   -0.3502    0.0000 C   0  0  0  0  0  0  0  0  0  0  0  0
    7.2206   -0.7610    0.0000 C   0  0  0  0  0  0  0  0  0  0  0  0
    6.5010   -0.3506    0.0000 C   0  0  0  0  0  0  0  0  0  0  0  0
    5.7784   -0.7607    0.0000 C   0  0  0  0  0  0  0  0  0  0  0  0
    7.9383   -0.3558    0.0000 C   0  0  0  0  0  0  0  0  0  0  0  0
   -6.2011    3.4847    0.0000 C   0  0  1  0  0  0  0  0  0  0  0  0
   -5.3607    3.4878    0.0000 C   0  0  1  0  0  0  0  0  0  0  0  0
   -5.4523   -1.6104    0.0000 C   0  0  2  0  0  0  0  0  0  0  0  0
   -5.4469   -3.0180    0.0000 C   0  0  1  0  0  0  0  0  0  0  0  0
   -6.2064    4.8923    0.0000 P   0  0  0  0  0  0  0  0  0  0  0  0
   -5.0319   -2.3202    0.0000 C   0  0  2  0  0  0  0  0  0  0  0  0
   -5.4466   -4.4355    0.0000 P   0  0  0  0  0  0  0  0  0  0  0  0
   -4.9451    2.7780    0.0000 C   0  0  2  0  0  0  0  0  0  0  0  0
   -6.6215    4.1893    0.0000 O   0  0  0  0  0  0  0  0  0  0  0  0
   -6.6212    2.7768    0.0000 O   0  0  0  0  0  0  0  0  0  0  0  0
   -6.2929   -1.6135    0.0000 C   0  0  1  0  0  0  0  0  0  0  0  0
   -6.6880   -2.3212    0.0000 O   0  0  0  0  0  0  0  0  0  0  0  0
   -5.3552    2.0703    0.0000 C   0  0  1  0  0  0  0  0  0  0  0  0
   -6.2874   -3.0211    0.0000 C   0  0  2  0  0  0  0  0  0  0  0  0
   -6.1958    2.0723    0.0000 C   0  0  1  0  0  0  0  0  0  0  0  0
   -4.9505    4.1906    0.0000 N   0  0  0  0  0  0  0  0  0  0  0  0
   -5.0265   -3.7277    0.0000 O   0  0  0  0  0  0  0  0  0  0  0  0
   -5.0321   -0.9027    0.0000 N   0  0  0  0  0  0  0  0  0  0  0  0
   -4.3765    4.9983    0.0000 C   0  0  0  0  0  0  0  0  0  0  0  0
   -3.6540    4.6033    0.0000 C   0  0  0  0  0  0  0  0  0  0  0  0
   -6.6882   -0.9087    0.0000 O   0  0  0  0  0  0  0  0  0  0  0  0
   -4.4175   -0.3632    0.0000 C   0  0  0  0  0  0  0  0  0  0  0  0
   -6.2045    5.7177    0.0000 O   0  0  0  0  0  0  0  0  0  0  0  0
   -6.9242    5.3023    0.0000 O   0  0  0  0  0  0  0  0  0  0  0  0
   -5.0212   -5.1351    0.0000 O   0  0  0  0  0  0  0  0  0  0  0  0
   -5.8616   -5.1382    0.0000 O   0  0  0  0  0  0  0  0  0  0  0  0
   -5.4837    4.4870    0.0000 O   0  0  0  0  0  0  0  0  0  0  0  0
   -6.2672   -4.4385    0.0000 O   0  0  0  0  0  0  0  0  0  0  0  0
   -6.6955    1.3790    0.0000 C   0  0  0  0  0  0  0  0  0  0  0  0
   -2.9392    5.0037    0.0000 C   0  0  0  0  0  0  0  0  0  0  0  0
   -4.4199    0.2932    0.0000 O   0  0  0  0  0  0  0  0  0  0  0  0
   -4.1914   -2.3171    0.0000 O   0  0  0  0  0  0  0  0  0  0  0  0
   -2.9372    5.8243    0.0000 O   0  0  0  0  0  0  0  0  0  0  0  0
    2.7840   -0.3465    0.0000 C   0  0  0  0  0  0  0  0  0  0  0  0
   -4.1244    2.7810    0.0000 O   0  0  0  0  0  0  0  0  0  0  0  0
   -4.9446    1.3656    0.0000 O   0  0  0  0  0  0  0  0  0  0  0  0
   -6.6826   -3.7287    0.0000 C   0  0  0  0  0  0  0  0  0  0  0  0
   -3.7758   -3.0167    0.0000 C   0  0  0  0  0  0  0  0  0  0  0  0
   -2.9550   -3.0137    0.0000 C   0  0  0  0  0  0  0  0  0  0  0  0
   -7.5281   -3.7268    0.0000 O   0  0  0  0  0  0  0  0  0  0  0  0
   -2.9497   -4.4312    0.0000 O   0  0  0  0  0  0  0  0  0  0  0  0
   -3.6997   -0.7684    0.0000 C   0  0  0  0  0  0  0  0  0  0  0  0
   -2.5297   -3.7235    0.0000 C   0  0  2  0  0  0  0  0  0  0  0  0
    2.0695   -0.7570    0.0000 C   0  0  0  0  0  0  0  0  0  0  0  0
   -2.2166    4.6035    0.0000 C   0  0  0  0  0  0  0  0  0  0  0  0
   -3.3170    2.3415    0.0000 C   0  0  0  0  0  0  0  0  0  0  0  0
   -2.5294   -5.1308    0.0000 C   0  0  0  0  0  0  0  0  0  0  0  0
   -7.9383   -4.4446    0.0000 C   0  0  0  0  0  0  0  0  0  0  0  0
   -1.6942   -3.7204    0.0000 C   0  0  0  0  0  0  0  0  0  0  0  0
   -2.9800   -0.3579    0.0000 C   0  0  0  0  0  0  0  0  0  0  0  0
    1.3467   -0.3468    0.0000 C   0  0  0  0  0  0  0  0  0  0  0  0
   -1.4968    5.0039    0.0000 C   0  0  0  0  0  0  0  0  0  0  0  0
   -2.5974    2.7519    0.0000 C   0  0  0  0  0  0  0  0  0  0  0  0
    2.4473    2.3528    0.0000 C   0  0  0  0  0  0  0  0  0  0  0  0
    4.2574    5.0155    0.0000 C   0  0  0  0  0  0  0  0  0  0  0  0
    1.2233   -5.8331    0.0000 C   0  0  0  0  0  0  0  0  0  0  0  0
    3.5427    4.6198    0.0000 C   0  0  0  0  0  0  0  0  0  0  0  0
    0.8027   -5.1235    0.0000 C   0  0  0  0  0  0  0  0  0  0  0  0
   -1.2737   -4.4250    0.0000 C   0  0  0  0  0  0  0  0  0  0  0  0
    1.7196    2.7580    0.0000 C   0  0  0  0  0  0  0  0  0  0  0  0
   -0.4373    2.3472    0.0000 C   0  0  0  0  0  0  0  0  0  0  0  0
    0.2822    2.7576    0.0000 C   0  0  0  0  0  0  0  0  0  0  0  0
    1.0049    2.3475    0.0000 C   0  0  0  0  0  0  0  0  0  0  0  0
   -1.5328   -0.3575    0.0000 C   0  0  0  0  0  0  0  0  0  0  0  0
   -0.8150   -0.7628    0.0000 C   0  0  0  0  0  0  0  0  0  0  0  0
   -0.0954   -0.3522    0.0000 C   0  0  0  0  0  0  0  0  0  0  0  0
   -0.7742    4.6089    0.0000 C   0  0  0  0  0  0  0  0  0  0  0  0
   -0.0545    5.0094    0.0000 C   0  0  0  0  0  0  0  0  0  0  0  0
    0.6582    4.6141    0.0000 C   0  0  0  0  0  0  0  0  0  0  0  0
    1.3829    5.0099    0.0000 C   0  0  0  0  0  0  0  0  0  0  0  0
    2.1055    4.6145    0.0000 C   0  0  0  0  0  0  0  0  0  0  0  0
    2.8251    5.0151    0.0000 C   0  0  0  0  0  0  0  0  0  0  0  0
    0.6221   -0.7625    0.0000 C   0  0  0  0  0  0  0  0  0  0  0  0
   -0.0326   -5.1216    0.0000 C   0  0  0  0  0  0  0  0  0  0  0  0
   -0.4530   -4.4219    0.0000 C   0  0  0  0  0  0  0  0  0  0  0  0
   -2.2525   -0.7681    0.0000 C   0  0  0  0  0  0  0  0  0  0  0  0
   -1.8797    2.3419    0.0000 C   0  0  0  0  0  0  0  0  0  0  0  0
   -1.1600    2.7523    0.0000 C   0  0  0  0  0  0  0  0  0  0  0  0
    4.9852    4.6201    0.0000 C   0  0  0  0  0  0  0  0  0  0  0  0
    3.1619    2.7633    0.0000 C   0  0  0  0  0  0  0  0  0  0  0  0
    2.0439   -5.8353    0.0000 C   0  0  0  0  0  0  0  0  0  0  0  0
   -4.3837    5.8353    0.0000 O   0  0  0  0  0  0  0  0  0  0  0  0
 21 19  1  0  0  0  0
 22 17  1  0  0  0  0
  9 23  1  6  0  0  0
 11 24  1  6  0  0  0
 10 25  1  6  0  0  0
 26 23  1  0  0  0  0
 27 26  1  0  0  0  0
 28 36  1  0  0  0  0
 29 25  1  0  0  0  0
 30 12  1  0  0  0  0
 31 12  1  0  0  0  0
 32 14  1  0  0  0  0
 33 14  1  0  0  0  0
 34 12  2  0  0  0  0
 35 14  2  0  0  0  0
 22 36  1  1  0  0  0
 37 27  1  0  0  0  0
 38 29  2  0  0  0  0
 13 39  1  1  0  0  0
 40 37  2  0  0  0  0
 41 51  1  0  0  0  0
 15 42  1  1  0  0  0
 20 43  1  6  0  0  0
 21 44  1  1  0  0  0
 45 39  1  0  0  0  0
 46 45  1  0  0  0  0
 47 44  1  0  0  0  0
 50 48  1  1  0  0  0
 49 29  1  0  0  0  0
 50 46  1  0  0  0  0
 51 58  1  0  0  0  0
 52 37  1  0  0  0  0
 53 42  1  0  0  0  0
 54 48  1  0  0  0  0
 55 47  1  0  0  0  0
 56 50  1  0  0  0  0
 57 49  1  0  0  0  0
 58 80  1  0  0  0  0
 59 52  1  0  0  0  0
 60 53  1  0  0  0  0
 61 67  1  0  0  0  0
 62 64  1  0  0  0  0
 63 65  1  0  0  0  0
 64 79  1  0  0  0  0
 65 81  1  0  0  0  0
 66 56  1  0  0  0  0
 67 70  1  0  0  0  0
 68 85  1  0  0  0  0
 69 68  1  0  0  0  0
 70 69  1  0  0  0  0
 71 83  1  0  0  0  0
 72 71  1  0  0  0  0
 73 72  1  0  0  0  0
 74 59  1  0  0  0  0
 75 74  1  0  0  0  0
 76 75  1  0  0  0  0
 77 76  1  0  0  0  0
 78 77  1  0  0  0  0
 79 78  1  0  0  0  0
 80 73  1  0  0  0  0
 81 82  1  0  0  0  0
 82 66  1  0  0  0  0
 83 57  1  0  0  0  0
 84 60  1  0  0  0  0
 85 84  1  0  0  0  0
 86 62  1  0  0  0  0
 87 61  1  0  0  0  0
 88 63  1  0  0  0  0
 15 20  1  0  0  0  0
 13 11  1  0  0  0  0
 26 89  2  0  0  0  0
 41  1  2  0  0  0  0
  2  1  1  0  0  0  0
  3  2  1  0  0  0  0
  4  5  1  0  0  0  0
  5  6  1  0  0  0  0
  6  3  1  0  0  0  0
  7  4  1  0  0  0  0
  9  8  1  0  0  0  0
 18 10  1  0  0  0  0
 11 21  1  0  0  0  0
 12 16  1  0  0  0  0
 10 13  1  0  0  0  0
 14 24  1  0  0  0  0
 15  9  1  0  0  0  0
  8 16  1  6  0  0  0
 17  8  1  0  0  0  0
 18 28  1  1  0  0  0
 19 18  1  0  0  0  0
 20 22  1  0  0  0  0
M  END
> <DATABASE_ID>
DB04933

> <DATABASE_NAME>
drugbank

> <SMILES>
CCCCCCCCCCCC(=O)CC(=O)N[C@H]1[C@@H](OP(O)(O)=O)O[C@H](CO[C@@H]2O[C@H](COC)[C@@H](OP(O)(O)=O)[C@H](OCC[C@@H](CCCCCCC)OC)[C@H]2NC(=O)CCCCCCCCC\C=C/CCCCCC)[C@@H](O)[C@@H]1OCCCCCCCCCC

> <INCHI_IDENTIFIER>
InChI=1S/C66H126N2O19P2/c1-7-11-15-19-22-25-26-27-28-29-30-32-34-38-42-46-57(70)67-60-64(82-49-47-54(80-6)45-41-36-18-14-10-4)62(86-88(73,74)75)56(51-79-5)85-65(60)83-52-55-61(72)63(81-48-43-39-35-24-21-17-13-9-3)59(66(84-55)87-89(76,77)78)68-58(71)50-53(69)44-40-37-33-31-23-20-16-12-8-2/h25-26,54-56,59-66,72H,7-24,27-52H2,1-6H3,(H,67,70)(H,68,71)(H2,73,74,75)(H2,76,77,78)/b26-25-/t54-,55-,56-,59-,60-,61-,62-,63-,64-,65-,66-/m1/s1

> <INCHI_KEY>
BPSMYQFMCXXNPC-MFCPCZTFSA-N

> <FORMULA>
C66H126N2O19P2

> <MOLECULAR_WEIGHT>
1313.6562

> <EXACT_MASS>
1312.843002884

> <JCHEM_ACCEPTOR_COUNT>
17

> <JCHEM_ATOM_COUNT>
215

> <JCHEM_AVERAGE_NEUTRAL_MICROSPECIES_CHARGE>
-0.20680399939598595

> <JCHEM_AVERAGE_POLARIZABILITY>
152.31987242655381

> <JCHEM_BIOAVAILABILITY>
0

> <JCHEM_DONOR_COUNT>
7

> <JCHEM_FORMAL_CHARGE>
0

> <JCHEM_GHOSE_FILTER>
0

> <JCHEM_IUPAC>
{[(2R,3R,4R,5S,6R)-4-(decyloxy)-5-hydroxy-6-({[(2R,3R,4R,5S,6R)-4-{[(3R)-3-methoxydecyl]oxy}-6-(methoxymethyl)-3-[(11Z)-octadec-11-enamido]-5-(phosphonooxy)oxan-2-yl]oxy}methyl)-3-(3-oxotetradecanamido)oxan-2-yl]oxy}phosphonic acid

> <ALOGPS_LOGP>
6.98

> <JCHEM_LOGP>
15.499690143333332

> <ALOGPS_LOGS>
-5.46

> <JCHEM_MDDR_LIKE_RULE>
0

> <JCHEM_NEUTRAL_CHARGE>
-4

> <JCHEM_NUMBER_OF_RINGS>
2

> <JCHEM_PHYSIOLOGICAL_CHARGE>
-4

> <JCHEM_PKA>
1.2940574425800613

> <JCHEM_PKA_STRONGEST_ACIDIC>
0.5545018652713257

> <JCHEM_PKA_STRONGEST_BASIC>
-3.638577341952652

> <JCHEM_POLAR_SURFACE_AREA>
293.63

> <JCHEM_REFRACTIVITY>
346.5645999999999

> <JCHEM_ROTATABLE_BOND_COUNT>
59

> <JCHEM_RULE_OF_FIVE>
0

> <ALOGPS_SOLUBILITY>
4.58e-03 g/l

> <JCHEM_TRADITIONAL_IUPAC>
eritoran

> <JCHEM_VEBER_RULE>
0

> <DRUGBANK_ID>
DB04933

> <DRUG_GROUPS>
investigational

> <GENERIC_NAME>
Eritoran

> <SYNONYMS>
Eritorán; Éritoran; Eritoran; Eritoranum

> <SALTS>
Eritoran tetrasodium

$$$$
