
  Mrv1652306231722462D          

 16 17  0  0  0  0            999 V2000
    1.4289   -1.6500    0.0000 C   0  0  0  0  0  0  0  0  0  0  0  0
    1.4289   -2.4750    0.0000 N   0  0  0  0  0  0  0  0  0  0  0  0
    2.1434   -2.8875    0.0000 C   0  0  0  0  0  0  0  0  0  0  0  0
    2.1434   -3.7125    0.0000 C   0  0  0  0  0  0  0  0  0  0  0  0
    1.4289   -4.1250    0.0000 C   0  0  0  0  0  0  0  0  0  0  0  0
    0.7145   -3.7125    0.0000 N   0  0  0  0  0  0  0  0  0  0  0  0
    0.7145   -2.8875    0.0000 C   0  0  0  0  0  0  0  0  0  0  0  0
    0.0000   -2.4750    0.0000 C   0  0  0  0  0  0  0  0  0  0  0  0
   -0.7145   -2.8875    0.0000 C   0  0  0  0  0  0  0  0  0  0  0  0
   -1.4289   -2.4750    0.0000 C   0  0  0  0  0  0  0  0  0  0  0  0
   -2.1434   -2.8875    0.0000 C   0  0  0  0  0  0  0  0  0  0  0  0
   -2.8579   -2.4750    0.0000 C   0  0  0  0  0  0  0  0  0  0  0  0
   -2.8579   -1.6500    0.0000 C   0  0  0  0  0  0  0  0  0  0  0  0
   -2.1434   -1.2375    0.0000 C   0  0  0  0  0  0  0  0  0  0  0  0
   -1.4289   -1.6500    0.0000 C   0  0  0  0  0  0  0  0  0  0  0  0
   -2.1434   -0.4125    0.0000 O   0  0  0  0  0  0  0  0  0  0  0  0
  1  2  1  0  0  0  0
  2  3  1  0  0  0  0
  3  4  1  0  0  0  0
  4  5  1  0  0  0  0
  5  6  1  0  0  0  0
  6  7  2  0  0  0  0
  2  7  1  0  0  0  0
  7  8  1  0  0  0  0
  8  9  2  0  0  0  0
  9 10  1  0  0  0  0
 10 11  2  0  0  0  0
 11 12  1  0  0  0  0
 12 13  2  0  0  0  0
 13 14  1  0  0  0  0
 14 15  2  0  0  0  0
 10 15  1  0  0  0  0
 14 16  1  0  0  0  0
M  END
> <DATABASE_ID>
DB13670

> <DATABASE_NAME>
drugbank

> <SMILES>
CN1CCCN=C1\C=C\C1=CC=CC(O)=C1

> <INCHI_IDENTIFIER>
InChI=1S/C13H16N2O/c1-15-9-3-8-14-13(15)7-6-11-4-2-5-12(16)10-11/h2,4-7,10,16H,3,8-9H2,1H3/b7-6+

> <INCHI_KEY>
VRYKTHBAWRESFI-VOTSOKGWSA-N

> <FORMULA>
C13H16N2O

> <MOLECULAR_WEIGHT>
216.284

> <EXACT_MASS>
216.126263143

> <JCHEM_ACCEPTOR_COUNT>
3

> <JCHEM_ATOM_COUNT>
32

> <JCHEM_AVERAGE_POLARIZABILITY>
24.625600522849908

> <JCHEM_BIOAVAILABILITY>
1

> <JCHEM_DONOR_COUNT>
1

> <JCHEM_FORMAL_CHARGE>
0

> <JCHEM_GHOSE_FILTER>
1

> <JCHEM_IUPAC>
3-[(E)-2-(1-methyl-1,4,5,6-tetrahydropyrimidin-2-yl)ethenyl]phenol

> <ALOGPS_LOGP>
2.26

> <JCHEM_LOGP>
1.2831325710532773

> <ALOGPS_LOGS>
-2.52

> <JCHEM_MDDR_LIKE_RULE>
0

> <JCHEM_NUMBER_OF_RINGS>
2

> <JCHEM_PHYSIOLOGICAL_CHARGE>
1

> <JCHEM_PKA_STRONGEST_ACIDIC>
9.386136286618697

> <JCHEM_PKA_STRONGEST_BASIC>
10.897063307672628

> <JCHEM_POLAR_SURFACE_AREA>
35.83

> <JCHEM_REFRACTIVITY>
66.9046

> <JCHEM_ROTATABLE_BOND_COUNT>
2

> <JCHEM_RULE_OF_FIVE>
1

> <ALOGPS_SOLUBILITY>
6.59e-01 g/l

> <JCHEM_TRADITIONAL_IUPAC>
3-[(E)-2-(1-methyl-5,6-dihydro-4H-pyrimidin-2-yl)ethenyl]phenol

> <JCHEM_VEBER_RULE>
1

> <DRUGBANK_ID>
DB13670

> <DRUG_GROUPS>
experimental

> <GENERIC_NAME>
Oxantel

> <SYNONYMS>
Oxantel

> <SALTS>
Oxantel pamoate

$$$$
