
  Mrv1909 05201914312D          

 37 43  0  0  1  0            999 V2000
   -9.6652    0.3171    0.0000 C   0  0  0  0  0  0  0  0  0  0  0  0
   -8.8402    0.3171    0.0000 C   0  0  0  0  0  0  0  0  0  0  0  0
   -8.3552    0.9845    0.0000 C   0  0  0  0  0  0  0  0  0  0  0  0
   -7.5706    0.7296    0.0000 N   0  0  0  0  0  0  0  0  0  0  0  0
   -6.7860    0.9845    0.0000 C   0  0  0  0  0  0  0  0  0  0  0  0
   -6.3011    0.3171    0.0000 C   0  0  0  0  0  0  0  0  0  0  0  0
   -5.4761    0.3171    0.0000 C   0  0  0  0  0  0  0  0  0  0  0  0
   -5.0636    1.0316    0.0000 C   0  0  0  0  0  0  0  0  0  0  0  0
   -5.4761    1.7460    0.0000 O   0  0  0  0  0  0  0  0  0  0  0  0
   -4.2386    1.0316    0.0000 N   0  0  0  0  0  0  0  0  0  0  0  0
   -3.8261    1.7460    0.0000 C   0  0  0  0  0  0  0  0  0  0  0  0
   -3.0011    1.7460    0.0000 C   0  0  0  0  0  0  0  0  0  0  0  0
   -2.5886    1.0316    0.0000 C   0  0  0  0  0  0  0  0  0  0  0  0
   -2.0052    1.6149    0.0000 C   0  0  0  0  0  0  0  0  0  0  0  0
   -1.4218    1.0316    0.0000 N   0  0  0  0  0  0  0  0  0  0  0  0
   -2.0052    0.4482    0.0000 C   0  0  0  0  0  0  0  0  0  0  0  0
   -0.5968    1.0316    0.0000 C   0  0  2  0  0  0  0  0  0  0  0  0
   -0.1119    0.3641    0.0000 C   0  0  0  0  0  0  0  0  0  0  0  0
    0.6727    0.6191    0.0000 C   0  0  0  0  0  0  0  0  0  0  0  0
    0.6727    1.4441    0.0000 C   0  0  0  0  0  0  0  0  0  0  0  0
   -0.1119    1.6990    0.0000 C   0  0  0  0  0  0  0  0  0  0  0  0
   -0.2834    2.5060    0.0000 C   0  0  0  0  0  0  0  0  0  0  0  0
    0.3296    3.0580    0.0000 C   0  0  0  0  0  0  0  0  0  0  0  0
    1.1143    2.8031    0.0000 C   0  0  0  0  0  0  0  0  0  0  0  0
    1.2858    1.9961    0.0000 C   0  0  0  0  0  0  0  0  0  0  0  0
    1.7274    3.3551    0.0000 C   0  0  0  0  0  0  0  0  0  0  0  0
    1.5558    4.1621    0.0000 C   0  0  0  0  0  0  0  0  0  0  0  0
    2.1689    4.7141    0.0000 C   0  0  0  0  0  0  0  0  0  0  0  0
    1.9974    5.5211    0.0000 C   0  0  0  0  0  0  0  0  0  0  0  0
    2.9536    4.4592    0.0000 N   0  0  0  0  0  0  0  0  0  0  0  0
    3.1251    3.6522    0.0000 C   0  0  0  0  0  0  0  0  0  0  0  0
    2.5120    3.1002    0.0000 N   0  0  0  0  0  0  0  0  0  0  0  0
   -3.0011    0.3171    0.0000 C   0  0  0  0  0  0  0  0  0  0  0  0
   -3.8261    0.3171    0.0000 C   0  0  0  0  0  0  0  0  0  0  0  0
   -6.7860   -0.3504    0.0000 N   0  0  0  0  0  0  0  0  0  0  0  0
   -7.5706   -0.0954    0.0000 C   0  0  0  0  0  0  0  0  0  0  0  0
   -8.3552   -0.3504    0.0000 S   0  0  0  0  0  0  0  0  0  0  0  0
  1  2  1  0  0  0  0
  2  3  2  0  0  0  0
  3  4  1  0  0  0  0
  4  5  1  0  0  0  0
  5  6  2  0  0  0  0
  6  7  1  0  0  0  0
  7  8  1  0  0  0  0
  8  9  2  0  0  0  0
  8 10  1  0  0  0  0
 10 11  1  0  0  0  0
 11 12  1  0  0  0  0
 12 13  1  0  0  0  0
 13 14  1  0  0  0  0
 14 15  1  0  0  0  0
 15 16  1  0  0  0  0
 13 16  1  0  0  0  0
 17 15  1  1  0  0  0
 17 18  1  0  0  0  0
 18 19  1  0  0  0  0
 19 20  1  0  0  0  0
 20 21  2  0  0  0  0
 17 21  1  0  0  0  0
 21 22  1  0  0  0  0
 22 23  2  0  0  0  0
 23 24  1  0  0  0  0
 24 25  2  0  0  0  0
 20 25  1  0  0  0  0
 24 26  1  0  0  0  0
 26 27  2  0  0  0  0
 27 28  1  0  0  0  0
 28 29  1  0  0  0  0
 28 30  2  0  0  0  0
 30 31  1  0  0  0  0
 31 32  2  0  0  0  0
 26 32  1  0  0  0  0
 13 33  1  0  0  0  0
 33 34  1  0  0  0  0
 10 34  1  0  0  0  0
  6 35  1  0  0  0  0
 35 36  2  0  0  0  0
  4 36  1  0  0  0  0
 36 37  1  0  0  0  0
  2 37  1  0  0  0  0
M  END
> <DATABASE_ID>
DB14870

> <DATABASE_NAME>
drugbank

> <SMILES>
CC1=CN2C=C(CC(=O)N3CCC4(CN(C4)[C@@H]4CCC5=C4C=CC(=C5)C4=CC(C)=NC=N4)CC3)N=C2S1

> <INCHI_IDENTIFIER>
InChI=1S/C29H32N6OS/c1-19-11-25(31-18-30-19)22-3-5-24-21(12-22)4-6-26(24)35-16-29(17-35)7-9-33(10-8-29)27(36)13-23-15-34-14-20(2)37-28(34)32-23/h3,5,11-12,14-15,18,26H,4,6-10,13,16-17H2,1-2H3/t26-/m1/s1

> <INCHI_KEY>
ZIUDADZJCKGWKR-AREMUKBSSA-N

> <FORMULA>
C29H32N6OS

> <MOLECULAR_WEIGHT>
512.68

> <EXACT_MASS>
512.235830848

> <JCHEM_ACCEPTOR_COUNT>
5

> <JCHEM_ATOM_COUNT>
69

> <JCHEM_AVERAGE_POLARIZABILITY>
58.838402848392555

> <JCHEM_BIOAVAILABILITY>
1

> <JCHEM_DONOR_COUNT>
0

> <JCHEM_FORMAL_CHARGE>
0

> <JCHEM_GHOSE_FILTER>
0

> <JCHEM_IUPAC>
2-{2-methylimidazo[2,1-b][1,3]thiazol-6-yl}-1-{2-[(1R)-5-(6-methylpyrimidin-4-yl)-2,3-dihydro-1H-inden-1-yl]-2,7-diazaspiro[3.5]nonan-7-yl}ethan-1-one

> <ALOGPS_LOGP>
3.69

> <JCHEM_LOGP>
3.7159661773333346

> <ALOGPS_LOGS>
-4.67

> <JCHEM_MDDR_LIKE_RULE>
0

> <JCHEM_NUMBER_OF_RINGS>
7

> <JCHEM_PHYSIOLOGICAL_CHARGE>
1

> <JCHEM_PKA_STRONGEST_BASIC>
8.671411244357824

> <JCHEM_POLAR_SURFACE_AREA>
66.63

> <JCHEM_REFRACTIVITY>
157.5139

> <JCHEM_ROTATABLE_BOND_COUNT>
4

> <JCHEM_RULE_OF_FIVE>
0

> <ALOGPS_SOLUBILITY>
1.10e-02 g/l

> <JCHEM_TRADITIONAL_IUPAC>
(2R)-14-fluoro-2-methyl-6,9,10,19-tetraazapentacyclo[14.2.1.0^{2,6}.0^{8,18}.0^{12,17}]nonadeca-1(18),8,12(17),13,15-pentaen-11-one

> <JCHEM_VEBER_RULE>
0

> <DRUGBANK_ID>
DB14870

> <DRUG_GROUPS>
investigational

> <GENERIC_NAME>
PF-5190457

$$$$
