
  Mrv1652310201623532D          

 26 30  0  0  1  0            999 V2000
    1.9854    1.9809    0.0000 C   0  0  0  0  0  0  0  0  0  0  0  0
    2.2057    1.1858    0.0000 C   0  0  1  0  0  0  0  0  0  0  0  0
    3.0044    0.9791    0.0000 C   0  0  0  0  0  0  0  0  0  0  0  0
    3.2246    0.1841    0.0000 C   0  0  0  0  0  0  0  0  0  0  0  0
    3.9629   -0.1842    0.0000 C   0  0  0  0  0  0  0  0  0  0  0  0
    4.7305    0.1180    0.0000 C   0  0  0  0  0  0  0  0  0  0  0  0
    5.3761   -0.3958    0.0000 C   0  0  0  0  0  0  0  0  0  0  0  0
    5.2540   -1.2117    0.0000 C   0  0  0  0  0  0  0  0  0  0  0  0
    4.4863   -1.5139    0.0000 C   0  0  0  0  0  0  0  0  0  0  0  0
    3.8408   -1.0001    0.0000 C   0  0  0  0  0  0  0  0  0  0  0  0
    3.0270   -1.1361    0.0000 N   0  0  0  0  0  0  0  0  0  0  0  0
    2.6463   -0.4042    0.0000 C   0  0  0  0  0  0  0  0  0  0  0  0
    1.8476   -0.1975    0.0000 C   0  0  2  0  0  0  0  0  0  0  0  0
    1.6273    0.5975    0.0000 N   0  0  0  0  0  0  0  0  0  0  0  0
    1.9836   -1.0112    0.0000 C   0  0  0  0  0  0  0  0  0  0  0  0
    2.6793   -1.4546    0.0000 C   0  0  0  0  0  0  0  0  0  0  0  0
    2.6431   -2.2789    0.0000 C   0  0  0  0  0  0  0  0  0  0  0  0
    1.9112   -2.6596    0.0000 C   0  0  0  0  0  0  0  0  0  0  0  0
    1.2155   -2.2162    0.0000 C   0  0  0  0  0  0  0  0  0  0  0  0
    1.2517   -1.3920    0.0000 C   0  0  0  0  0  0  0  0  0  0  0  0
    0.6634   -0.8136    0.0000 N   0  0  0  0  0  0  0  0  0  0  0  0
    1.0317   -0.0754    0.0000 C   0  0  0  0  0  0  0  0  0  0  0  0
    0.6509    0.6565    0.0000 O   0  0  0  0  0  0  0  0  0  0  0  0
    3.3388   -2.7223    0.0000 Cl  0  0  0  0  0  0  0  0  0  0  0  0
    5.8995   -1.7254    0.0000 Cl  0  0  0  0  0  0  0  0  0  0  0  0
    6.1437   -0.0936    0.0000 F   0  0  0  0  0  0  0  0  0  0  0  0
  2  1  1  1  0  0  0
  2  3  1  0  0  0  0
  3  4  1  0  0  0  0
  4  5  1  0  0  0  0
  5  6  2  0  0  0  0
  6  7  1  0  0  0  0
  7  8  2  0  0  0  0
  8  9  1  0  0  0  0
  9 10  2  0  0  0  0
  5 10  1  0  0  0  0
 10 11  1  0  0  0  0
 11 12  1  0  0  0  0
  4 12  2  0  0  0  0
 13 12  1  6  0  0  0
 13 14  1  0  0  0  0
  2 14  1  0  0  0  0
 13 15  1  0  0  0  0
 15 16  2  0  0  0  0
 16 17  1  0  0  0  0
 17 18  2  0  0  0  0
 18 19  1  0  0  0  0
 19 20  2  0  0  0  0
 15 20  1  0  0  0  0
 20 21  1  0  0  0  0
 21 22  1  0  0  0  0
 13 22  1  0  0  0  0
 22 23  2  0  0  0  0
 17 24  1  0  0  0  0
  8 25  1  0  0  0  0
  7 26  1  0  0  0  0
M  END
> <DATABASE_ID>
DB12306

> <DATABASE_NAME>
drugbank

> <SMILES>
C[C@H]1CC2=C(NC3=CC(Cl)=C(F)C=C23)[C@@]2(N1)C(=O)NC1=CC=C(Cl)C=C21

> <INCHI_IDENTIFIER>
InChI=1S/C19H14Cl2FN3O/c1-8-4-11-10-6-14(22)13(21)7-16(10)23-17(11)19(25-8)12-5-9(20)2-3-15(12)24-18(19)26/h2-3,5-8,23,25H,4H2,1H3,(H,24,26)/t8-,19+/m0/s1

> <INCHI_KEY>
CKLPLPZSUQEDRT-WPCRTTGESA-N

> <FORMULA>
C19H14Cl2FN3O

> <MOLECULAR_WEIGHT>
390.24

> <EXACT_MASS>
389.0497956

> <JCHEM_ACCEPTOR_COUNT>
2

> <JCHEM_ATOM_COUNT>
40

> <JCHEM_AVERAGE_POLARIZABILITY>
37.978300588390596

> <JCHEM_BIOAVAILABILITY>
1

> <JCHEM_DONOR_COUNT>
3

> <JCHEM_FORMAL_CHARGE>
0

> <JCHEM_GHOSE_FILTER>
1

> <JCHEM_IUPAC>
(3R,3'S)-5,7'-dichloro-6'-fluoro-3'-methyl-1,2,2',3',4',9'-hexahydrospiro[indole-3,1'-pyrido[3,4-b]indole]-2-one

> <ALOGPS_LOGP>
4.03

> <JCHEM_LOGP>
4.170319703333332

> <ALOGPS_LOGS>
-4.91

> <JCHEM_MDDR_LIKE_RULE>
0

> <JCHEM_NUMBER_OF_RINGS>
5

> <JCHEM_PHYSIOLOGICAL_CHARGE>
0

> <JCHEM_PKA>
15.97021730054573

> <JCHEM_PKA_STRONGEST_ACIDIC>
12.262142327816095

> <JCHEM_PKA_STRONGEST_BASIC>
6.581935504990427

> <JCHEM_POLAR_SURFACE_AREA>
56.92

> <JCHEM_REFRACTIVITY>
100.65189999999996

> <JCHEM_ROTATABLE_BOND_COUNT>
0

> <JCHEM_RULE_OF_FIVE>
1

> <ALOGPS_SOLUBILITY>
4.83e-03 g/l

> <JCHEM_TRADITIONAL_IUPAC>
(3R,3'S)-5,7'-dichloro-6'-fluoro-3'-methyl-2',3',4',9'-tetrahydro-1H-spiro[indole-3,1'-pyrido[3,4-b]indole]-2-one

> <JCHEM_VEBER_RULE>
0

> <DRUGBANK_ID>
DB12306

> <DRUG_GROUPS>
investigational

> <GENERIC_NAME>
Cipargamin

> <SYNONYMS>
Cipargamin

$$$$
