
  Mrv1718006261809262D          

 18 18  0  0  0  0            999 V2000
   -2.8578   -0.2062    0.0000 C   0  0  0  0  0  0  0  0  0  0  0  0
   -2.1434   -1.4437    0.0000 C   0  0  0  0  0  0  0  0  0  0  0  0
    2.8578   -1.0312    0.0000 C   0  0  0  0  0  0  0  0  0  0  0  0
   -2.1434    0.2062    0.0000 C   0  0  0  0  0  0  0  0  0  0  0  0
   -1.4289   -1.0312    0.0000 C   0  0  0  0  0  0  0  0  0  0  0  0
    2.1434    1.0312    0.0000 C   0  0  0  0  0  0  0  0  0  0  0  0
    1.4289    1.4437    0.0000 C   0  0  0  0  0  0  0  0  0  0  0  0
    2.1434    0.2062    0.0000 C   0  0  0  0  0  0  0  0  0  0  0  0
    0.7144    1.0312    0.0000 C   0  0  0  0  0  0  0  0  0  0  0  0
   -1.4289   -0.2062    0.0000 C   0  0  0  0  0  0  0  0  0  0  0  0
    1.4289   -0.2062    0.0000 C   0  0  0  0  0  0  0  0  0  0  0  0
    0.7144    0.2062    0.0000 C   0  0  0  0  0  0  0  0  0  0  0  0
   -0.7144    0.2062    0.0000 C   0  0  0  0  0  0  0  0  0  0  0  0
    1.4289   -1.0312    0.0000 C   0  0  0  0  0  0  0  0  0  0  0  0
   -0.7144    1.0312    0.0000 O   0  0  0  0  0  0  0  0  0  0  0  0
    0.7144   -1.4437    0.0000 O   0  0  0  0  0  0  0  0  0  0  0  0
    2.1434   -1.4437    0.0000 O   0  0  0  0  0  0  0  0  0  0  0  0
    0.0000   -0.2062    0.0000 O   0  0  0  0  0  0  0  0  0  0  0  0
  4  1  1  0  0  0  0
  5  2  1  0  0  0  0
  7  6  2  0  0  0  0
  8  6  1  0  0  0  0
  9  7  1  0  0  0  0
 10  4  1  0  0  0  0
 10  5  1  0  0  0  0
 11  8  2  0  0  0  0
 12  9  2  0  0  0  0
 12 11  1  0  0  0  0
 13 10  1  0  0  0  0
 14 11  1  0  0  0  0
 15 13  2  0  0  0  0
 16 14  2  0  0  0  0
 17  3  1  0  0  0  0
 17 14  1  0  0  0  0
 18 12  1  0  0  0  0
 18 13  1  0  0  0  0
M  END
> <DATABASE_ID>
DB14130

> <DATABASE_NAME>
drugbank

> <SMILES>
CCC(CC)C(=O)OC1=CC=CC=C1C(=O)OC

> <INCHI_IDENTIFIER>
InChI=1S/C14H18O4/c1-4-10(5-2)13(15)18-12-9-7-6-8-11(12)14(16)17-3/h6-10H,4-5H2,1-3H3

> <INCHI_KEY>
QXNXIPALJCPMNY-UHFFFAOYSA-N

> <FORMULA>
C14H18O4

> <MOLECULAR_WEIGHT>
250.294

> <EXACT_MASS>
250.12050906

> <JCHEM_ACCEPTOR_COUNT>
2

> <JCHEM_ATOM_COUNT>
36

> <JCHEM_AVERAGE_POLARIZABILITY>
26.830196822911876

> <JCHEM_BIOAVAILABILITY>
1

> <JCHEM_DONOR_COUNT>
0

> <JCHEM_FORMAL_CHARGE>
0

> <JCHEM_GHOSE_FILTER>
1

> <JCHEM_IUPAC>
methyl 2-[(2-ethylbutanoyl)oxy]benzoate

> <ALOGPS_LOGP>
3.43

> <JCHEM_LOGP>
3.7166432096666666

> <ALOGPS_LOGS>
-3.66

> <JCHEM_MDDR_LIKE_RULE>
0

> <JCHEM_NUMBER_OF_RINGS>
1

> <JCHEM_PHYSIOLOGICAL_CHARGE>
0

> <JCHEM_PKA_STRONGEST_BASIC>
-6.7873870028681145

> <JCHEM_POLAR_SURFACE_AREA>
52.60000000000001

> <JCHEM_REFRACTIVITY>
67.61910000000002

> <JCHEM_ROTATABLE_BOND_COUNT>
7

> <JCHEM_RULE_OF_FIVE>
1

> <ALOGPS_SOLUBILITY>
5.47e-02 g/l

> <JCHEM_TRADITIONAL_IUPAC>
methyl 2-[(2-ethylbutanoyl)oxy]benzoate

> <JCHEM_VEBER_RULE>
0

> <DRUGBANK_ID>
DB14130

> <DRUG_GROUPS>
experimental

> <GENERIC_NAME>
Methyl salicylate 2-ethylbutyrate

> <SYNONYMS>
Methyl diethylacetylsalicylate; Salicylic acid, methyl ester, 2-ethylbutyrate

> <PRODUCTS>
Thera Derm; Thera Derm Roll On; TheraDerm

$$$$
