
  Mrv1909 11242015542D          

  5  4  0  0  0  0            999 V2000
   -0.0015    0.2002    0.0000 O   0  0  0  0  0  0  0  0  0  0  0  0
   -0.7118   -0.2115    0.0000 Bi  0  0  0  0  0  0  0  0  0  0  0  0
    0.7007   -0.2010    0.0000 Bi  0  0  0  0  0  0  0  0  0  0  0  0
   -1.4287    0.2115    0.0000 O   0  0  0  0  0  0  0  0  0  0  0  0
    1.4287    0.1954    0.0000 O   0  0  0  0  0  0  0  0  0  0  0  0
  1  2  1  0  0  0  0
  1  3  1  0  0  0  0
  2  4  2  0  0  0  0
  3  5  2  0  0  0  0
M  END
> <DATABASE_ID>
DB15929

> <DATABASE_NAME>
drugbank

> <SMILES>
O=[Bi]O[Bi]=O

> <INCHI_IDENTIFIER>
InChI=1S/2Bi.3O

> <INCHI_KEY>
WMWLMWRWZQELOS-UHFFFAOYSA-N

> <FORMULA>
Bi2O3

> <MOLECULAR_WEIGHT>
465.958

> <EXACT_MASS>
465.94554

> <JCHEM_ACCEPTOR_COUNT>
2

> <JCHEM_ATOM_COUNT>
5

> <JCHEM_AVERAGE_NEUTRAL_MICROSPECIES_CHARGE>
1.0761298929071922e-10

> <JCHEM_AVERAGE_POLARIZABILITY>
7.362081476307759

> <JCHEM_BIOAVAILABILITY>
1

> <JCHEM_DONOR_COUNT>
0

> <JCHEM_FORMAL_CHARGE>
0

> <JCHEM_GHOSE_FILTER>
0

> <JCHEM_IUPAC>
[(oxobismuthanyl)oxy]bismuthanone

> <JCHEM_LOGP>
-0.1316

> <JCHEM_MDDR_LIKE_RULE>
0

> <JCHEM_NEUTRAL_CHARGE>
0

> <JCHEM_NUMBER_OF_RINGS>
0

> <JCHEM_PHYSIOLOGICAL_CHARGE>
0

> <JCHEM_PKA_STRONGEST_BASIC>
-2.9690778890174876

> <JCHEM_POLAR_SURFACE_AREA>
43.370000000000005

> <JCHEM_REFRACTIVITY>
4.236

> <JCHEM_ROTATABLE_BOND_COUNT>
2

> <JCHEM_RULE_OF_FIVE>
1

> <JCHEM_TRADITIONAL_IUPAC>
bismuth(III) oxide

> <JCHEM_VEBER_RULE>
0

> <DRUGBANK_ID>
DB15929

> <DRUG_GROUPS>
experimental

> <GENERIC_NAME>
Bismuth oxide

> <SYNONYMS>
Bismuth trioxide; Bismuth yellow; Bismuthous oxide; Bismuthum oxydatum; Dibismuth trioxide

$$$$
