
  Mrv1909 01212104502D          

 23 22  0  0  0  0            999 V2000
    1.7719    0.4370    0.0000 C   0  0  0  0  0  0  0  0  0  0  0  0
    1.0644    0.0125    0.0000 C   0  0  0  0  0  0  0  0  0  0  0  0
    0.3570    0.4370    0.0000 C   0  0  0  0  0  0  0  0  0  0  0  0
   -0.3504    0.0125    0.0000 C   0  0  0  0  0  0  0  0  0  0  0  0
   -1.0576    0.4370    0.0000 C   0  0  0  0  0  0  0  0  0  0  0  0
   -1.7650    0.0125    0.0000 C   0  0  0  0  0  0  0  0  0  0  0  0
   -2.4725    0.4370    0.0000 C   0  0  0  0  0  0  0  0  0  0  0  0
    1.7719    1.2388    0.0000 O   0  0  0  0  0  0  0  0  0  0  0  0
    2.4794    0.0125    0.0000 N   0  0  0  0  0  0  0  0  0  0  0  0
   -3.1939    0.0365    0.0000 C   0  0  0  0  0  0  0  0  0  0  0  0
   -3.2078   -0.7883    0.0000 C   0  0  0  0  0  0  0  0  0  0  0  0
    0.3434   -1.2388    0.0000 C   0  0  0  0  0  0  0  0  0  0  0  0
   -0.3639   -0.8142    0.0000 C   0  0  0  0  0  0  0  0  0  0  0  0
   -1.0715   -1.2387    0.0000 C   0  0  0  0  0  0  0  0  0  0  0  0
   -1.7788   -0.8142    0.0000 C   0  0  0  0  0  0  0  0  0  0  0  0
   -2.5081   -1.2253    0.0000 C   0  0  0  0  0  0  0  0  0  0  0  0
   -4.6227    0.0365    0.0000 C   0  0  0  0  0  0  0  0  0  0  0  0
   -4.6227   -0.7884    0.0000 C   0  0  0  0  0  0  0  0  0  0  0  0
   -3.9083    0.4490    0.0000 C   0  0  0  0  0  0  0  0  0  0  0  0
   -3.9083   -1.2008    0.0000 C   0  0  0  0  0  0  0  0  0  0  0  0
    3.1937    0.4249    0.0000 C   0  0  0  0  0  0  0  0  0  0  0  0
    3.9082    0.0125    0.0000 C   0  0  0  0  0  0  0  0  0  0  0  0
    4.6227    0.4249    0.0000 O   0  0  0  0  0  0  0  0  0  0  0  0
  2  1  1  0  0  0  0
  9  1  1  0  0  0  0
  8  1  2  0  0  0  0
  3  2  1  0  0  0  0
  3  4  1  0  0  0  0
  5  4  1  0  0  0  0
  5  6  1  0  0  0  0
  7  6  1  0  0  0  0
  7 10  1  0  0  0  0
 12 13  1  0  0  0  0
 13 14  1  0  0  0  0
 14 15  1  0  0  0  0
 15 16  1  0  0  0  0
 16 11  1  0  0  0  0
 18 17  1  0  0  0  0
 19 17  2  0  0  0  0
 20 18  1  0  0  0  0
 10 19  1  0  0  0  0
 11 20  1  0  0  0  0
  9 21  1  0  0  0  0
 21 22  1  0  0  0  0
 22 23  1  0  0  0  0
M  END
> <DATABASE_ID>
DB16495

> <DATABASE_NAME>
drugbank

> <SMILES>
CCCCCCCC\C=C/CCCCCCCC(=O)NCCO

> <INCHI_IDENTIFIER>
InChI=1S/C20H39NO2/c1-2-3-4-5-6-7-8-9-10-11-12-13-14-15-16-17-20(23)21-18-19-22/h9-10,22H,2-8,11-19H2,1H3,(H,21,23)/b10-9-

> <INCHI_KEY>
BOWVQLFMWHZBEF-KTKRTIGZSA-N

> <FORMULA>
C20H39NO2

> <MOLECULAR_WEIGHT>
325.537

> <EXACT_MASS>
325.2980795

> <JCHEM_ACCEPTOR_COUNT>
2

> <JCHEM_ATOM_COUNT>
62

> <JCHEM_AVERAGE_NEUTRAL_MICROSPECIES_CHARGE>
1.3864595153092872e-09

> <JCHEM_AVERAGE_POLARIZABILITY>
42.639442886873816

> <JCHEM_BIOAVAILABILITY>
0

> <JCHEM_DONOR_COUNT>
2

> <JCHEM_FORMAL_CHARGE>
0

> <JCHEM_GHOSE_FILTER>
1

> <JCHEM_IUPAC>
(9Z)-N-(2-hydroxyethyl)octadec-9-enamide

> <JCHEM_LOGP>
5.510429891

> <JCHEM_MDDR_LIKE_RULE>
0

> <JCHEM_NEUTRAL_CHARGE>
0

> <JCHEM_NUMBER_OF_RINGS>
0

> <JCHEM_PHYSIOLOGICAL_CHARGE>
0

> <JCHEM_PKA>
16.47384261938588

> <JCHEM_PKA_STRONGEST_ACIDIC>
15.469626555316175

> <JCHEM_PKA_STRONGEST_BASIC>
-1.3086129187290516

> <JCHEM_POLAR_SURFACE_AREA>
49.33

> <JCHEM_REFRACTIVITY>
100.41339999999998

> <JCHEM_ROTATABLE_BOND_COUNT>
17

> <JCHEM_RULE_OF_FIVE>
0

> <JCHEM_TRADITIONAL_IUPAC>
N-demethyldiltiazem

> <JCHEM_VEBER_RULE>
0

> <DRUGBANK_ID>
DB16495

> <DRUG_GROUPS>
investigational

> <GENERIC_NAME>
Oleic monoethanolamide

> <SYNONYMS>
N-(2-Hydroxyethyl)oleamide; N-OEA; N-oleoyl ethanolamine; N-oleoylethanolamine; OEA; Oleamide MEA; Oleoyl Ethanolamide; Oleoyl monoethanolamide; Oleoylethanolamide; Oleylethanolamide

$$$$
