
  Mrv1652306231722392D          

 22 22  0  0  0  0            999 V2000
    5.0013   -7.8375    0.0000 C   0  0  0  0  0  0  0  0  0  0  0  0
    5.7158   -8.2500    0.0000 C   0  0  0  0  0  0  0  0  0  0  0  0
    6.4302   -7.8375    0.0000 C   0  0  0  0  0  0  0  0  0  0  0  0
    7.1447   -8.2500    0.0000 C   0  0  0  0  0  0  0  0  0  0  0  0
    7.8592   -7.8375    0.0000 C   0  0  0  0  0  0  0  0  0  0  0  0
    8.5737   -8.2500    0.0000 C   0  0  0  0  0  0  0  0  0  0  0  0
    9.2881   -7.8375    0.0000 C   0  0  0  0  0  0  0  0  0  0  0  0
   10.0026   -8.2500    0.0000 C   0  0  0  0  0  0  0  0  0  0  0  0
   10.7171   -7.8375    0.0000 C   0  0  0  0  0  0  0  0  0  0  0  0
   11.4315   -8.2500    0.0000 C   0  0  0  0  0  0  0  0  0  0  0  0
   12.1460   -7.8375    0.0000 C   0  0  0  0  0  0  0  0  0  0  0  0
   12.8605   -8.2500    0.0000 C   0  0  0  0  0  0  0  0  0  0  0  0
   13.5749   -7.8375    0.0000 N   0  3  0  0  0  0  0  0  0  0  0  0
   13.9874   -8.5520    0.0000 C   0  0  0  0  0  0  0  0  0  0  0  0
   13.1624   -7.1230    0.0000 C   0  0  0  0  0  0  0  0  0  0  0  0
   14.2894   -7.4250    0.0000 C   0  0  0  0  0  0  0  0  0  0  0  0
   15.0039   -7.8375    0.0000 C   0  0  0  0  0  0  0  0  0  0  0  0
   15.7184   -7.4250    0.0000 C   0  0  0  0  0  0  0  0  0  0  0  0
   16.4328   -7.8375    0.0000 C   0  0  0  0  0  0  0  0  0  0  0  0
   16.4328   -8.6625    0.0000 C   0  0  0  0  0  0  0  0  0  0  0  0
   15.7184   -9.0750    0.0000 C   0  0  0  0  0  0  0  0  0  0  0  0
   15.0039   -8.6625    0.0000 C   0  0  0  0  0  0  0  0  0  0  0  0
  1  2  1  0  0  0  0
  2  3  1  0  0  0  0
  3  4  1  0  0  0  0
  4  5  1  0  0  0  0
  5  6  1  0  0  0  0
  6  7  1  0  0  0  0
  7  8  1  0  0  0  0
  8  9  1  0  0  0  0
  9 10  1  0  0  0  0
 10 11  1  0  0  0  0
 11 12  1  0  0  0  0
 12 13  1  0  0  0  0
 13 14  1  0  0  0  0
 13 15  1  0  0  0  0
 13 16  1  0  0  0  0
 16 17  1  0  0  0  0
 17 18  2  0  0  0  0
 18 19  1  0  0  0  0
 19 20  2  0  0  0  0
 20 21  1  0  0  0  0
 21 22  2  0  0  0  0
 17 22  1  0  0  0  0
M  CHG  1  13   1
M  END
> <DATABASE_ID>
DB13282

> <DATABASE_NAME>
drugbank

> <SMILES>
CCCCCCCCCCCC[N+](C)(C)CC1=CC=CC=C1

> <INCHI_IDENTIFIER>
InChI=1S/C21H38N/c1-4-5-6-7-8-9-10-11-12-16-19-22(2,3)20-21-17-14-13-15-18-21/h13-15,17-18H,4-12,16,19-20H2,1-3H3/q+1

> <INCHI_KEY>
CYDRXTMLKJDRQH-UHFFFAOYSA-N

> <FORMULA>
C21H38N

> <MOLECULAR_WEIGHT>
304.541

> <EXACT_MASS>
304.299876648

> <JCHEM_ACCEPTOR_COUNT>
0

> <JCHEM_ATOM_COUNT>
60

> <JCHEM_AVERAGE_POLARIZABILITY>
41.07434966306463

> <JCHEM_BIOAVAILABILITY>
1

> <JCHEM_DONOR_COUNT>
0

> <JCHEM_FORMAL_CHARGE>
1

> <JCHEM_GHOSE_FILTER>
1

> <JCHEM_IUPAC>
benzyl(dodecyl)dimethylazanium

> <ALOGPS_LOGP>
2.79

> <JCHEM_LOGP>
2.6327543011949213

> <ALOGPS_LOGS>
-7.85

> <JCHEM_MDDR_LIKE_RULE>
0

> <JCHEM_NUMBER_OF_RINGS>
1

> <JCHEM_PHYSIOLOGICAL_CHARGE>
1

> <JCHEM_PKA_STRONGEST_ACIDIC>
18.10976193549863

> <JCHEM_POLAR_SURFACE_AREA>
0.0

> <JCHEM_REFRACTIVITY>
111.1959

> <JCHEM_ROTATABLE_BOND_COUNT>
13

> <JCHEM_RULE_OF_FIVE>
1

> <ALOGPS_SOLUBILITY>
4.79e-06 g/l

> <JCHEM_TRADITIONAL_IUPAC>
benzyl(dodecyl)dimethylazanium

> <JCHEM_VEBER_RULE>
0

> <DRUGBANK_ID>
DB13282

> <DRUG_GROUPS>
experimental

> <GENERIC_NAME>
Benzododecinium

> <PRODUCTS>
Youjie Weishi Antibacterial Hand Wash; Youjie Weishi Cloth Cleaning Disinfectant; Youjie Weishi Disinfectant; Youjie Weishi Kitchen Cleaning Disinfectant; Youjie Weishi Rinse-free Hand Disinfectant

> <SALTS>
Benzododecinium bromide; Benzododecinium chloride

$$$$
