
  Mrv1652306231722432D          

 13 13  0  0  0  0            999 V2000
   -0.0640    3.2767    0.0000 C   0  0  0  0  0  0  0  0  0  0  0  0
    0.4663    2.6447    0.0000 C   0  0  0  0  0  0  0  0  0  0  0  0
    0.1842    1.8695    0.0000 C   0  0  0  0  0  0  0  0  0  0  0  0
   -0.6283    1.7262    0.0000 C   0  0  0  0  0  0  0  0  0  0  0  0
   -0.9105    0.9510    0.0000 O   0  0  0  0  0  0  0  0  0  0  0  0
   -1.1586    2.3582    0.0000 O   0  0  0  0  0  0  0  0  0  0  0  0
    0.7145    1.2375    0.0000 C   0  0  0  0  0  0  0  0  0  0  0  0
    1.4289    0.8250    0.0000 C   0  0  0  0  0  0  0  0  0  0  0  0
    1.4289   -0.0000    0.0000 C   0  0  0  0  0  0  0  0  0  0  0  0
    0.7145   -0.4125    0.0000 C   0  0  0  0  0  0  0  0  0  0  0  0
    0.0000    0.0000    0.0000 C   0  0  0  0  0  0  0  0  0  0  0  0
    0.0000    0.8250    0.0000 C   0  0  0  0  0  0  0  0  0  0  0  0
    1.2448    1.8695    0.0000 O   0  0  0  0  0  0  0  0  0  0  0  0
  1  2  1  0  0  0  0
  2  3  1  0  0  0  0
  3  4  1  0  0  0  0
  4  5  2  0  0  0  0
  4  6  1  0  0  0  0
  3  7  1  0  0  0  0
  7  8  1  0  0  0  0
  8  9  1  0  0  0  0
  9 10  1  0  0  0  0
 10 11  1  0  0  0  0
 11 12  1  0  0  0  0
  7 12  1  0  0  0  0
  7 13  1  0  0  0  0
M  END
> <DATABASE_ID>
DB13493

> <DATABASE_NAME>
drugbank

> <SMILES>
CCC(C(O)=O)C1(O)CCCCC1

> <INCHI_IDENTIFIER>
InChI=1S/C10H18O3/c1-2-8(9(11)12)10(13)6-4-3-5-7-10/h8,13H,2-7H2,1H3,(H,11,12)

> <INCHI_KEY>
NIVFTEMPSCMWDE-UHFFFAOYSA-N

> <FORMULA>
C10H18O3

> <MOLECULAR_WEIGHT>
186.251

> <EXACT_MASS>
186.12559444

> <JCHEM_ACCEPTOR_COUNT>
3

> <JCHEM_ATOM_COUNT>
31

> <JCHEM_AVERAGE_POLARIZABILITY>
20.243577909761356

> <JCHEM_BIOAVAILABILITY>
1

> <JCHEM_DONOR_COUNT>
2

> <JCHEM_FORMAL_CHARGE>
0

> <JCHEM_GHOSE_FILTER>
1

> <JCHEM_IUPAC>
2-(1-hydroxycyclohexyl)butanoic acid

> <ALOGPS_LOGP>
1.70

> <JCHEM_LOGP>
1.9070131646666661

> <ALOGPS_LOGS>
-1.20

> <JCHEM_MDDR_LIKE_RULE>
0

> <JCHEM_NUMBER_OF_RINGS>
1

> <JCHEM_PHYSIOLOGICAL_CHARGE>
-1

> <JCHEM_PKA>
14.564368267076794

> <JCHEM_PKA_STRONGEST_ACIDIC>
4.711749616890387

> <JCHEM_PKA_STRONGEST_BASIC>
-3.1095143600153703

> <JCHEM_POLAR_SURFACE_AREA>
57.53

> <JCHEM_REFRACTIVITY>
49.1246

> <JCHEM_ROTATABLE_BOND_COUNT>
3

> <JCHEM_RULE_OF_FIVE>
1

> <ALOGPS_SOLUBILITY>
1.18e+01 g/l

> <JCHEM_TRADITIONAL_IUPAC>
cyclobutyrol

> <JCHEM_VEBER_RULE>
0

> <DRUGBANK_ID>
DB13493

> <DRUG_GROUPS>
experimental

> <GENERIC_NAME>
Cyclobutyrol

> <SYNONYMS>
ciclobutirol; Cyclobutyrol

$$$$
