
  Mrv1909 09012117372D          

133145  0  0  0  0            999 V2000
    3.0230   -5.2193    0.0000 C   0  0  2  0  0  0  0  0  0  0  0  0
    2.2859   -5.6605    0.0000 C   0  0  1  0  0  0  0  0  0  0  0  0
    2.2859   -6.4846    0.0000 C   0  0  2  0  0  0  0  0  0  0  0  0
    3.0084   -4.3708    0.0000 C   0  0  0  0  0  0  0  0  0  0  0  0
    3.7017   -5.6169    0.0000 C   0  0  0  0  0  0  0  0  0  0  0  0
    4.4677   -1.9078    0.0000 C   0  0  2  0  0  0  0  0  0  0  0  0
    3.7017   -6.4846    0.0000 C   0  0  0  0  0  0  0  0  0  0  0  0
    1.4908   -6.7708    0.0000 O   0  0  0  0  0  0  0  0  0  0  0  0
    1.4908   -5.4278    0.0000 C   0  0  0  0  0  0  0  0  0  0  0  0
   -3.0132   -1.8206    0.0000 C   0  0  2  0  0  0  0  0  0  0  0  0
    3.0230   -6.8823    0.0000 C   0  0  1  0  0  0  0  0  0  0  0  0
    5.2193   -2.3442    0.0000 O   0  0  0  0  0  0  0  0  0  0  0  0
   -4.5454   -2.2424    0.0000 C   0  0  2  0  0  0  0  0  0  0  0  0
   -1.3600   -1.8206    0.0000 C   0  0  2  0  0  0  0  0  0  0  0  0
    3.7017   -3.9927    0.0000 O   0  0  0  0  0  0  0  0  0  0  0  0
   -1.7721   -1.1079    0.0000 O   0  0  0  0  0  0  0  0  0  0  0  0
   -4.9526   -1.5297    0.0000 O   0  0  0  0  0  0  0  0  0  0  0  0
   -1.7721   -2.5333    0.0000 C   0  0  0  0  0  0  0  0  0  0  0  0
   -4.9526   -2.9551    0.0000 C   0  0  0  0  0  0  0  0  0  0  0  0
   -2.5963   -2.5333    0.0000 C   0  0  2  0  0  0  0  0  0  0  0  0
   -6.1938   -2.2424    0.0000 C   0  0  2  0  0  0  0  0  0  0  0  0
    0.1138   -1.8545    0.0000 C   0  0  1  0  0  0  0  0  0  0  0  0
   -2.5963   -1.1079    0.0000 C   0  0  1  0  0  0  0  0  0  0  0  0
    4.4677   -2.7466    0.0000 C   0  0  0  0  0  0  0  0  0  0  0  0
    3.7258   -1.4956    0.0000 O   0  0  0  0  0  0  0  0  0  0  0  0
   -5.7767   -2.9551    0.0000 C   0  0  1  0  0  0  0  0  0  0  0  0
    5.8544   -1.9273    0.0000 C   0  0  1  0  0  0  0  0  0  0  0  0
    3.7017   -3.1537    0.0000 C   0  0  2  0  0  0  0  0  0  0  0  0
   -5.7767   -1.5297    0.0000 C   0  0  2  0  0  0  0  0  0  0  0  0
    0.8557   -1.4472    0.0000 C   0  0  0  0  0  0  0  0  0  0  0  0
   -3.8326   -1.8255    0.0000 O   0  0  0  0  0  0  0  0  0  0  0  0
   -0.6522   -1.4036    0.0000 O   0  0  0  0  0  0  0  0  0  0  0  0
    1.5731   -1.8545    0.0000 C   0  0  0  0  0  0  0  0  0  0  0  0
    1.0157   -6.0436    0.0000 C   0  0  0  0  0  0  0  0  0  0  0  0
    1.4908   -4.5890    0.0000 C   0  0  0  0  0  0  0  0  0  0  0  0
    2.2859   -3.9490    0.0000 O   0  0  0  0  0  0  0  0  0  0  0  0
    0.9381   -4.1817    0.0000 C   0  0  0  0  0  0  0  0  0  0  0  0
    3.0230   -2.7369    0.0000 C   0  0  0  0  0  0  0  0  0  0  0  0
    3.0230   -1.8691    0.0000 C   0  0  1  0  0  0  0  0  0  0  0  0
    0.1138   -2.7466    0.0000 C   0  0  2  0  0  0  0  0  0  0  0  0
    5.8544   -1.1466    0.0000 C   0  0  2  0  0  0  0  0  0  0  0  0
    0.9381   -3.2847    0.0000 C   0  0  0  0  0  0  0  0  0  0  0  0
    2.3005   -4.8217    0.0000 O   0  0  0  0  0  0  0  0  0  0  0  0
    4.4775   -1.1466    0.0000 C   0  0  0  0  0  0  0  0  0  0  0  0
    5.2193   -0.7297    0.0000 C   0  0  0  0  0  0  0  0  0  0  0  0
    2.3005   -1.4472    0.0000 C   0  0  0  0  0  0  0  0  0  0  0  0
    6.5089   -2.3055    0.0000 C   0  0  0  0  0  0  0  0  0  0  0  0
    3.0374   -7.7064    0.0000 O   0  0  0  0  0  0  0  0  0  0  0  0
   -7.0181   -2.2424    0.0000 O   0  0  0  0  0  0  0  0  0  0  0  0
   -3.0085   -3.2460    0.0000 O   0  0  0  0  0  0  0  0  0  0  0  0
   -6.1889   -3.6677    0.0000 O   0  0  0  0  0  0  0  0  0  0  0  0
    4.3999   -6.9164    0.0000 C   0  0  0  0  0  0  0  0  0  0  0  0
    0.8557   -0.6278    0.0000 C   0  0  0  0  0  0  0  0  0  0  0  0
   -3.0085   -0.3951    0.0000 C   0  0  0  0  0  0  0  0  0  0  0  0
   -6.1889   -0.8120    0.0000 C   0  0  0  0  0  0  0  0  0  0  0  0
   -0.6037   -3.1537    0.0000 C   0  0  0  0  0  0  0  0  0  0  0  0
    6.5526   -0.7152    0.0000 C   0  0  0  0  0  0  0  0  0  0  0  0
    6.5089   -3.0618    0.0000 C   0  0  0  0  0  0  0  0  0  0  0  0
    7.1635   -1.9273    0.0000 C   0  0  0  0  0  0  0  0  0  0  0  0
   -2.5914   -3.9587    0.0000 C   0  0  0  0  0  0  0  0  0  0  0  0
   -5.7767   -4.3805    0.0000 C   0  0  0  0  0  0  0  0  0  0  0  0
    3.0463   -0.7057    0.0000 H   0  0  0  0  0  0  0  0  0  0  0  0
    4.6991   -3.7531    0.0000 H   0  0  0  0  0  0  0  0  0  0  0  0
    5.8875   -3.0904    0.0000 H   0  0  0  0  0  0  0  0  0  0  0  0
    2.1991   -7.6451    0.0000 H   0  0  0  0  0  0  0  0  0  0  0  0
    4.0275   -4.6320    0.0000 H   0  0  0  0  0  0  0  0  0  0  0  0
    2.8775    2.8824    0.0000 C   0  0  2  0  0  0  0  0  0  0  0  0
    2.1404    2.4411    0.0000 C   0  0  1  0  0  0  0  0  0  0  0  0
    2.1404    1.6169    0.0000 C   0  0  2  0  0  0  0  0  0  0  0  0
    2.8629    3.7306    0.0000 C   0  0  0  0  0  0  0  0  0  0  0  0
    3.5562    2.4847    0.0000 C   0  0  0  0  0  0  0  0  0  0  0  0
    4.3222    6.1937    0.0000 C   0  0  2  0  0  0  0  0  0  0  0  0
    3.5562    1.6169    0.0000 C   0  0  0  0  0  0  0  0  0  0  0  0
    1.3454    1.3307    0.0000 O   0  0  0  0  0  0  0  0  0  0  0  0
    1.3454    2.6738    0.0000 C   0  0  0  0  0  0  0  0  0  0  0  0
   -3.1587    6.2810    0.0000 C   0  0  2  0  0  0  0  0  0  0  0  0
    2.8775    1.2193    0.0000 C   0  0  1  0  0  0  0  0  0  0  0  0
    5.0737    5.7574    0.0000 O   0  0  0  0  0  0  0  0  0  0  0  0
   -4.6908    5.8592    0.0000 C   0  0  2  0  0  0  0  0  0  0  0  0
   -1.5053    6.2810    0.0000 C   0  0  2  0  0  0  0  0  0  0  0  0
    3.5562    4.1088    0.0000 O   0  0  0  0  0  0  0  0  0  0  0  0
   -1.9175    6.9937    0.0000 O   0  0  0  0  0  0  0  0  0  0  0  0
   -5.0981    6.5719    0.0000 O   0  0  0  0  0  0  0  0  0  0  0  0
   -1.9175    5.5684    0.0000 C   0  0  0  0  0  0  0  0  0  0  0  0
   -5.0981    5.1465    0.0000 C   0  0  0  0  0  0  0  0  0  0  0  0
   -2.7417    5.5684    0.0000 C   0  0  2  0  0  0  0  0  0  0  0  0
   -6.3393    5.8592    0.0000 C   0  0  2  0  0  0  0  0  0  0  0  0
   -0.0314    6.2470    0.0000 C   0  0  1  0  0  0  0  0  0  0  0  0
   -2.7417    6.9937    0.0000 C   0  0  1  0  0  0  0  0  0  0  0  0
    4.3222    5.3550    0.0000 C   0  0  0  0  0  0  0  0  0  0  0  0
    3.5805    6.6059    0.0000 O   0  0  0  0  0  0  0  0  0  0  0  0
   -5.9223    5.1465    0.0000 C   0  0  1  0  0  0  0  0  0  0  0  0
    5.7089    6.1743    0.0000 C   0  0  1  0  0  0  0  0  0  0  0  0
    3.5562    4.9477    0.0000 C   0  0  2  0  0  0  0  0  0  0  0  0
   -5.9223    6.5719    0.0000 C   0  0  2  0  0  0  0  0  0  0  0  0
    0.7103    6.6543    0.0000 C   0  0  0  0  0  0  0  0  0  0  0  0
   -3.9782    6.2761    0.0000 O   0  0  0  0  0  0  0  0  0  0  0  0
   -0.7975    6.6979    0.0000 O   0  0  0  0  0  0  0  0  0  0  0  0
    1.4278    6.2470    0.0000 C   0  0  0  0  0  0  0  0  0  0  0  0
    0.8702    2.0581    0.0000 C   0  0  0  0  0  0  0  0  0  0  0  0
    1.3454    3.5126    0.0000 C   0  0  0  0  0  0  0  0  0  0  0  0
    2.1404    4.1526    0.0000 O   0  0  0  0  0  0  0  0  0  0  0  0
    0.7927    3.9198    0.0000 C   0  0  0  0  0  0  0  0  0  0  0  0
    2.8775    5.3646    0.0000 C   0  0  0  0  0  0  0  0  0  0  0  0
    2.8775    6.2324    0.0000 C   0  0  1  0  0  0  0  0  0  0  0  0
   -0.0314    5.3550    0.0000 C   0  0  2  0  0  0  0  0  0  0  0  0
    5.7089    6.9550    0.0000 C   0  0  2  0  0  0  0  0  0  0  0  0
    0.7927    4.8168    0.0000 C   0  0  0  0  0  0  0  0  0  0  0  0
    2.1549    3.2798    0.0000 O   0  0  0  0  0  0  0  0  0  0  0  0
    4.3320    6.9550    0.0000 C   0  0  0  0  0  0  0  0  0  0  0  0
    5.0737    7.3719    0.0000 C   0  0  0  0  0  0  0  0  0  0  0  0
    2.1549    6.6543    0.0000 C   0  0  0  0  0  0  0  0  0  0  0  0
    6.3634    5.7962    0.0000 C   0  0  2  0  0  0  0  0  0  0  0  0
    2.8921    0.3951    0.0000 O   0  0  0  0  0  0  0  0  0  0  0  0
   -7.1635    5.8592    0.0000 O   0  0  0  0  0  0  0  0  0  0  0  0
   -3.1538    4.8556    0.0000 O   0  0  0  0  0  0  0  0  0  0  0  0
   -6.3345    4.4337    0.0000 O   0  0  0  0  0  0  0  0  0  0  0  0
    4.2543    1.1853    0.0000 C   0  0  0  0  0  0  0  0  0  0  0  0
    0.7103    7.4737    0.0000 C   0  0  0  0  0  0  0  0  0  0  0  0
   -3.1538    7.7064    0.0000 C   0  0  0  0  0  0  0  0  0  0  0  0
   -6.3345    7.2895    0.0000 C   0  0  0  0  0  0  0  0  0  0  0  0
   -0.7490    4.9477    0.0000 C   0  0  0  0  0  0  0  0  0  0  0  0
    6.4070    7.3864    0.0000 C   0  0  0  0  0  0  0  0  0  0  0  0
    6.3634    5.0398    0.0000 C   0  0  0  0  0  0  0  0  0  0  0  0
    7.0180    6.1743    0.0000 C   0  0  0  0  0  0  0  0  0  0  0  0
   -2.7368    4.1428    0.0000 C   0  0  0  0  0  0  0  0  0  0  0  0
   -5.9223    3.7211    0.0000 C   0  0  0  0  0  0  0  0  0  0  0  0
    7.0180    4.6616    0.0000 C   0  0  0  0  0  0  0  0  0  0  0  0
    2.9008    7.3959    0.0000 H   0  0  0  0  0  0  0  0  0  0  0  0
    4.5537    4.3483    0.0000 H   0  0  0  0  0  0  0  0  0  0  0  0
    5.7421    5.0112    0.0000 H   0  0  0  0  0  0  0  0  0  0  0  0
    2.0536    0.4565    0.0000 H   0  0  0  0  0  0  0  0  0  0  0  0
    3.8820    3.4696    0.0000 H   0  0  0  0  0  0  0  0  0  0  0  0
  2  1  1  0  0  0  0
  3  2  1  0  0  0  0
  1  4  1  0  0  0  0
  5  1  1  0  0  0  0
  6 24  1  1  0  0  0
  7  5  2  0  0  0  0
  8  3  1  0  0  0  0
  9  2  1  0  0  0  0
 10 23  1  0  0  0  0
 11  7  1  0  0  0  0
  6 12  1  0  0  0  0
 13 31  1  1  0  0  0
 14 32  1  1  0  0  0
 15  4  1  0  0  0  0
 16 14  1  0  0  0  0
 17 13  1  0  0  0  0
 18 14  1  0  0  0  0
 19 13  1  0  0  0  0
 20 18  1  0  0  0  0
 21 29  1  0  0  0  0
 22 40  1  0  0  0  0
 23 16  1  0  0  0  0
 24 28  1  0  0  0  0
 25 39  1  0  0  0  0
 26 19  1  0  0  0  0
 27 12  1  0  0  0  0
 28 15  1  0  0  0  0
 29 17  1  0  0  0  0
 30 33  2  0  0  0  0
 10 31  1  1  0  0  0
 22 32  1  6  0  0  0
 33 46  1  0  0  0  0
 34  9  1  0  0  0  0
 35  9  2  0  0  0  0
 36  4  2  0  0  0  0
 37 35  1  0  0  0  0
 38 28  1  0  0  0  0
 39 38  1  0  0  0  0
 40 42  1  0  0  0  0
 41 45  1  0  0  0  0
 42 37  2  0  0  0  0
  2 43  1  6  0  0  0
 44  6  1  0  0  0  0
 45 44  1  0  0  0  0
 39 46  1  0  0  0  0
 47 27  1  0  0  0  0
 11 48  1  1  0  0  0
 21 49  1  1  0  0  0
 20 50  1  6  0  0  0
 26 51  1  6  0  0  0
 52  7  1  0  0  0  0
 53 30  1  0  0  0  0
 23 54  1  6  0  0  0
 29 55  1  6  0  0  0
 40 56  1  6  0  0  0
 41 57  1  6  0  0  0
 47 58  1  0  0  0  0
 59 47  1  0  0  0  0
 60 50  1  0  0  0  0
 61 51  1  0  0  0  0
 11  3  1  0  0  0  0
 34  8  1  0  0  0  0
 25  6  1  0  0  0  0
 30 22  1  0  0  0  0
 41 27  1  0  0  0  0
 10 20  1  0  0  0  0
 21 26  1  0  0  0  0
 39 62  1  6  0  0  0
 28 63  1  6  0  0  0
 27 64  1  6  0  0  0
  3 65  1  6  0  0  0
  1 66  1  1  0  0  0
 68 67  1  0  0  0  0
 69 68  1  0  0  0  0
 67 70  1  0  0  0  0
 71 67  1  0  0  0  0
 72 90  1  1  0  0  0
 73 71  2  0  0  0  0
 74 69  1  0  0  0  0
 75 68  1  0  0  0  0
 76 89  1  0  0  0  0
 77 73  1  0  0  0  0
 72 78  1  0  0  0  0
 79 97  1  1  0  0  0
 80 98  1  1  0  0  0
 81 70  1  0  0  0  0
 82 80  1  0  0  0  0
 83 79  1  0  0  0  0
 84 80  1  0  0  0  0
 85 79  1  0  0  0  0
 86 84  1  0  0  0  0
 87 95  1  0  0  0  0
 88106  1  0  0  0  0
 89 82  1  0  0  0  0
 90 94  1  0  0  0  0
 91 72  1  0  0  0  0
 92 85  1  0  0  0  0
 93 78  1  0  0  0  0
 94 81  1  0  0  0  0
 95 83  1  0  0  0  0
 96 99  2  0  0  0  0
 76 97  1  1  0  0  0
 88 98  1  6  0  0  0
 99112  1  0  0  0  0
100 75  1  0  0  0  0
101 75  2  0  0  0  0
102 70  2  0  0  0  0
103101  1  0  0  0  0
104 94  1  0  0  0  0
105104  1  0  0  0  0
106108  1  0  0  0  0
107 93  1  0  0  0  0
108103  2  0  0  0  0
 68109  1  6  0  0  0
 72110  1  0  0  0  0
111110  1  0  0  0  0
105112  1  0  0  0  0
113 93  1  0  0  0  0
 77114  1  1  0  0  0
 87115  1  1  0  0  0
 86116  1  6  0  0  0
 92117  1  6  0  0  0
118 73  1  0  0  0  0
119 96  1  0  0  0  0
 89120  1  6  0  0  0
 95121  1  6  0  0  0
106122  1  6  0  0  0
107123  1  6  0  0  0
113124  1  0  0  0  0
113125  1  1  0  0  0
126116  1  0  0  0  0
127117  1  0  0  0  0
128124  1  0  0  0  0
 77 69  1  0  0  0  0
100 74  1  0  0  0  0
105 91  1  0  0  0  0
111107  1  0  0  0  0
 96 88  1  0  0  0  0
 76 86  1  0  0  0  0
 87 92  1  0  0  0  0
105129  1  6  0  0  0
 94130  1  6  0  0  0
 93131  1  6  0  0  0
 69132  1  6  0  0  0
 67133  1  1  0  0  0
M  END
> <DATABASE_ID>
DB00602

> <DATABASE_NAME>
drugbank

> <SMILES>
[H][C@@]12OC\C3=C/C=C/[C@H](C)[C@H](O[C@H]4C[C@H](OC)[C@@H](O[C@H]5C[C@H](OC)[C@@H](O)[C@H](C)O5)[C@H](C)O4)\C(C)=C\C[C@]4([H])C[C@@]([H])(C[C@]5(CC[C@H](C)[C@]([H])(O5)C(C)C)O4)OC(=O)[C@]([H])(C=C(C)[C@H]1O)[C@@]23O.[H][C@@]12OC\C3=C/C=C/[C@H](C)[C@H](O[C@H]4C[C@H](OC)[C@@H](O[C@H]5C[C@H](OC)[C@@H](O)[C@H](C)O5)[C@H](C)O4)\C(C)=C\C[C@]4([H])C[C@@]([H])(C[C@]5(CC[C@H](C)[C@]([H])(O5)[C@@H](C)CC)O4)OC(=O)[C@]([H])(C=C(C)[C@H]1O)[C@@]23O

> <INCHI_IDENTIFIER>
InChI=1S/C48H74O14.C47H72O14/c1-11-25(2)43-28(5)17-18-47(62-43)23-34-20-33(61-47)16-15-27(4)42(26(3)13-12-14-32-24-55-45-40(49)29(6)19-35(46(51)58-34)48(32,45)52)59-39-22-37(54-10)44(31(8)57-39)60-38-21-36(53-9)41(50)30(7)56-38;1-24(2)41-27(5)16-17-46(61-41)22-33-19-32(60-46)15-14-26(4)42(25(3)12-11-13-31-23-54-44-39(48)28(6)18-34(45(50)57-33)47(31,44)51)58-38-21-36(53-10)43(30(8)56-38)59-37-20-35(52-9)40(49)29(7)55-37/h12-15,19,25-26,28,30-31,33-45,49-50,52H,11,16-18,20-24H2,1-10H3;11-14,18,24-25,27,29-30,32-44,48-49,51H,15-17,19-23H2,1-10H3/b13-12+,27-15+,32-14+;12-11+,26-14+,31-13+/t25-,26-,28-,30-,31-,33+,34-,35-,36-,37-,38-,39-,40+,41-,42-,43+,44-,45+,47+,48+;25-,27-,29-,30-,32+,33-,34-,35-,36-,37-,38-,39+,40-,41+,42-,43-,44+,46+,47+/m00/s1

> <INCHI_KEY>
SPBDXSGPUHCETR-JFUDTMANSA-N

> <FORMULA>
C95H146O28

> <MOLECULAR_WEIGHT>
1736.185

> <EXACT_MASS>
1735.000064061

> <JCHEM_ACCEPTOR_COUNT>
13

> <JCHEM_ATOM_COUNT>
269

> <JCHEM_AVERAGE_NEUTRAL_MICROSPECIES_CHARGE>
0.0011991398329453259

> <JCHEM_AVERAGE_POLARIZABILITY>
95.54750615795139

> <JCHEM_BIOAVAILABILITY>
0

> <JCHEM_DONOR_COUNT>
3

> <JCHEM_FORMAL_CHARGE>
0

> <JCHEM_GHOSE_FILTER>
0

> <JCHEM_IUPAC>
(1'R,2R,4'S,5S,6R,8'R,10'E,12'S,13'S,14'E,16'E,20'R,21'R,24'S)-21',24'-dihydroxy-12'-{[(2R,4S,5S,6S)-5-{[(2S,4S,5S,6S)-5-hydroxy-4-methoxy-6-methyloxan-2-yl]oxy}-4-methoxy-6-methyloxan-2-yl]oxy}-5,11',13',22'-tetramethyl-6-(propan-2-yl)-3',7',19'-trioxaspiro[oxane-2,6'-tetracyclo[15.6.1.1^{4,8}.0^{20,24}]pentacosane]-10',14',16',22'-tetraen-2'-one; (1'R,2R,4'S,5S,6R,8'R,10'E,12'S,13'S,14'E,16'E,20'R,21'R,24'S)-6-[(2S)-butan-2-yl]-21',24'-dihydroxy-12'-{[(2R,4S,5S,6S)-5-{[(2S,4S,5S,6S)-5-hydroxy-4-methoxy-6-methyloxan-2-yl]oxy}-4-methoxy-6-methyloxan-2-yl]oxy}-5,11',13',22'-tetramethyl-3',7',19'-trioxaspiro[oxane-2,6'-tetracyclo[15.6.1.1^{4,8}.0^{20,24}]pentacosane]-10',14',16',22'-tetraen-2'-one

> <ALOGPS_LOGP>
4.37

> <JCHEM_LOGP>
5.825745655666666

> <ALOGPS_LOGS>
-5.15

> <JCHEM_MDDR_LIKE_RULE>
1

> <JCHEM_NEUTRAL_CHARGE>
0

> <JCHEM_NUMBER_OF_RINGS>
14

> <JCHEM_PHYSIOLOGICAL_CHARGE>
0

> <JCHEM_PKA>
13.169097736330777

> <JCHEM_PKA_STRONGEST_ACIDIC>
12.467904937195897

> <JCHEM_PKA_STRONGEST_BASIC>
-3.449075134179085

> <JCHEM_POLAR_SURFACE_AREA>
170.06

> <JCHEM_REFRACTIVITY>
230.32760000000013

> <JCHEM_ROTATABLE_BOND_COUNT>
15

> <JCHEM_RULE_OF_FIVE>
0

> <ALOGPS_SOLUBILITY>
6.14e-03 g/l

> <JCHEM_TRADITIONAL_IUPAC>
(1'R,2R,4'S,5S,6R,8'R,10'E,12'S,13'S,14'E,16'E,20'R,21'R,24'S)-21',24'-dihydroxy-12'-{[(2R,4S,5S,6S)-5-{[(2S,4S,5S,6S)-5-hydroxy-4-methoxy-6-methyloxan-2-yl]oxy}-4-methoxy-6-methyloxan-2-yl]oxy}-6-isopropyl-5,11',13',22'-tetramethyl-3',7',19'-trioxaspiro[oxane-2,6'-tetracyclo[15.6.1.1^{4,8}.0^{20,24}]pentacosane]-10',14',16',22'-tetraen-2'-one; (1'R,2R,4'S,5S,6R,8'R,10'E,12'S,13'S,14'E,16'E,20'R,21'R,24'S)-6-[(2S)-butan-2-yl]-21',24'-dihydroxy-12'-{[(2R,4S,5S,6S)-5-{[(2S,4S,5S,6S)-5-hydroxy-4-methoxy-6-methyloxan-2-yl]oxy}-4-methoxy-6-methyloxan-2-yl]oxy}-5,11',13',22'-tetramethyl-3',7',19'-trioxaspiro[oxane-2,6'-tetracyclo[15.6.1.1^{4,8}.0^{20,24}]pentacosane]-10',14',16',22'-tetraen-2'-one

> <JCHEM_VEBER_RULE>
0

> <DRUGBANK_ID>
DB00602

> <SECONDARY_ACCESSION_NUMBERS>
APRD01058

> <DRUG_GROUPS>
approved; investigational; vet_approved

> <GENERIC_NAME>
Ivermectin

> <SYNONYMS>
Ivermectin; Ivermectina; Ivermectine; Ivermectinum

> <PRODUCTS>
171083 Ivermectin 1% / Metronidazole 1% / Niacinamide 4%; Brimonidine Tartrate 0.25% / Ivermectin 1% / Metronidazole 1% / Niacinamide 4%; Ivermectin; Ivermectin 1% / Metronidazole 1%; Ivermectin 1% / Metronidazole 1% / Niacinamide 4%; Rosiver; Sklice; Soolantra; Stromectol

> <INTERNATIONAL_BRANDS>
Ascapil; Detebencil; Ermetin; Gotax; Imectin; Ivectin; Ivera; Ivergot; Ivermec; Ivexterm; Ivori; Kaonol; Kilox; Maikeding; Quanox; Revectina; Scabo; Scavista; Securo; Vermectin

$$$$
