
  Mrv1909 12091921182D          

 24 25  0  0  0  0            999 V2000
   -2.5007    1.4932    0.0000 O   0  3  0  0  0  0  0  0  0  0  0  0
    0.3571   -0.1567    0.0000 O   0  0  0  0  0  0  0  0  0  0  0  0
   -0.3572    1.0807    0.0000 O   0  5  0  0  0  0  0  0  0  0  0  0
   -1.0717   -0.1567    0.0000 N   0  0  0  0  0  0  0  0  0  0  0  0
   -1.0717    2.3183    0.0000 N   0  3  0  0  0  0  0  0  0  0  0  0
   -1.0717    3.1433    0.0000 N   0  0  0  0  0  0  0  0  0  0  0  0
   -1.7862    0.2557    0.0000 C   0  0  2  0  0  0  0  0  0  0  0  0
   -2.5007   -0.1567    0.0000 C   0  0  0  0  0  0  0  0  0  0  0  0
   -2.5007   -0.9817    0.0000 C   0  0  0  0  0  0  0  0  0  0  0  0
   -1.7862    1.0807    0.0000 C   0  0  0  0  0  0  0  0  0  0  0  0
   -3.2152   -1.3942    0.0000 C   0  0  0  0  0  0  0  0  0  0  0  0
   -1.7862   -1.3942    0.0000 C   0  0  0  0  0  0  0  0  0  0  0  0
   -1.0717    1.4932    0.0000 C   0  0  0  0  0  0  0  0  0  0  0  0
   -3.2152   -2.2192    0.0000 C   0  0  0  0  0  0  0  0  0  0  0  0
   -1.7862   -2.2192    0.0000 C   0  0  0  0  0  0  0  0  0  0  0  0
   -2.5007   -2.6318    0.0000 C   0  0  0  0  0  0  0  0  0  0  0  0
   -0.3572    0.2557    0.0000 C   0  0  0  0  0  0  0  0  0  0  0  0
    1.0717    0.2557    0.0000 C   0  0  0  0  0  0  0  0  0  0  0  0
    1.7862   -0.1567    0.0000 C   0  0  0  0  0  0  0  0  0  0  0  0
    2.5006    0.2557    0.0000 C   0  0  0  0  0  0  0  0  0  0  0  0
    1.7862   -0.9817    0.0000 C   0  0  0  0  0  0  0  0  0  0  0  0
    3.2151   -0.1567    0.0000 C   0  0  0  0  0  0  0  0  0  0  0  0
    2.5006   -1.3942    0.0000 C   0  0  0  0  0  0  0  0  0  0  0  0
    3.2151   -0.9817    0.0000 C   0  0  0  0  0  0  0  0  0  0  0  0
  1 10  2  0  0  0  0
  2 17  1  0  0  0  0
  2 18  1  0  0  0  0
  3 17  1  0  0  0  0
  7  4  1  6  0  0  0
  4 17  2  0  0  0  0
  5  6  3  0  0  0  0
  5 13  1  0  0  0  0
  7  8  1  0  0  0  0
  7 10  1  0  0  0  0
  8  9  1  0  0  0  0
  9 11  2  0  0  0  0
  9 12  1  0  0  0  0
 10 13  1  0  0  0  0
 11 14  1  0  0  0  0
 12 15  2  0  0  0  0
 14 16  2  0  0  0  0
 15 16  1  0  0  0  0
 18 19  1  0  0  0  0
 19 20  2  0  0  0  0
 19 21  1  0  0  0  0
 20 22  1  0  0  0  0
 21 23  2  0  0  0  0
 22 24  2  0  0  0  0
 23 24  1  0  0  0  0
M  CHG  3   1   1   3  -1   5   1
M  END
> <DATABASE_ID>
DB02766

> <DATABASE_NAME>
drugbank

> <SMILES>
[O-]\C(OCC1=CC=CC=C1)=N/[C@H](CC1=CC=CC=C1)C(=[OH+])C[N+]#N

> <INCHI_IDENTIFIER>
InChI=1S/C18H17N3O3/c19-20-12-17(22)16(11-14-7-3-1-4-8-14)21-18(23)24-13-15-9-5-2-6-10-15/h1-10,16H,11-13H2/p+1/t16-/m1/s1

> <INCHI_KEY>
VLIGBVLLNSWVMI-MRXNPFEDSA-O

> <FORMULA>
C18H18N3O3

> <MOLECULAR_WEIGHT>
324.3538

> <EXACT_MASS>
324.134816457

> <JCHEM_ACCEPTOR_COUNT>
4

> <JCHEM_ATOM_COUNT>
42

> <JCHEM_AVERAGE_POLARIZABILITY>
33.78238931977651

> <JCHEM_BIOAVAILABILITY>
1

> <JCHEM_DONOR_COUNT>
1

> <JCHEM_FORMAL_CHARGE>
1

> <JCHEM_GHOSE_FILTER>
0

> <JCHEM_IUPAC>
(3R)-3-[(E)-[(benzyloxy)(oxido)methylidene]amino]-2-oxidaniumylidene-4-phenylbutane-1-diazonium

> <ALOGPS_LOGP>
4.40

> <JCHEM_LOGP>
4.380072962333333

> <ALOGPS_LOGS>
-4.78

> <JCHEM_MDDR_LIKE_RULE>
0

> <JCHEM_NUMBER_OF_RINGS>
2

> <JCHEM_PHYSIOLOGICAL_CHARGE>
1

> <JCHEM_PKA>
7.742907919039231

> <JCHEM_PKA_STRONGEST_ACIDIC>
2.03774215735253

> <JCHEM_PKA_STRONGEST_BASIC>
-0.15770677335543978

> <JCHEM_POLAR_SURFACE_AREA>
106.94

> <JCHEM_REFRACTIVITY>
133.52769999999998

> <JCHEM_ROTATABLE_BOND_COUNT>
8

> <JCHEM_RULE_OF_FIVE>
1

> <ALOGPS_SOLUBILITY>
6.80e-03 g/l

> <JCHEM_TRADITIONAL_IUPAC>
[(1R,2S,6S,9R,11S)-11-(hydroxymethyl)-4,4,11-trimethyl-3,5,7,10,12-pentaoxatricyclo[7.3.0.0^{2,6}]dodecan-6-yl]methyl sulfamate

> <JCHEM_VEBER_RULE>
0

> <DRUGBANK_ID>
DB02766

> <SECONDARY_ACCESSION_NUMBERS>
EXPT03288

> <DRUG_GROUPS>
experimental

> <GENERIC_NAME>
N-[(2R)-4-diazonio-3-oxoniumylidene-1-phenylbutan-2-yl]-1-phenylmethoxymethanimidate

$$$$
