
  Mrv1572001261617422D          

 15 16  0  0  0  0            999 V2000
    2.1434    4.5375    0.0000 C   0  0  0  0  0  0  0  0  0  0  0  0
    0.7145    2.0625    0.0000 C   0  0  0  0  0  0  0  0  0  0  0  0
    2.8579    2.4750    0.0000 C   0  0  0  0  0  0  0  0  0  0  0  0
    0.7145    6.1875    0.0000 C   0  0  0  0  0  0  0  0  0  0  0  0
    2.8579    3.3000    0.0000 C   0  0  0  0  0  0  0  0  0  0  0  0
    2.1434    2.0625    0.0000 C   0  0  0  0  0  0  0  0  0  0  0  0
   -0.0000    5.7750    0.0000 C   0  0  0  0  0  0  0  0  0  0  0  0
    1.4289    5.7750    0.0000 C   0  0  0  0  0  0  0  0  0  0  0  0
    2.1434    3.7125    0.0000 C   0  0  0  0  0  0  0  0  0  0  0  0
    1.4289    2.4750    0.0000 C   0  0  0  0  0  0  0  0  0  0  0  0
    1.4289    3.3000    0.0000 C   0  0  0  0  0  0  0  0  0  0  0  0
    0.7145    4.5375    0.0000 C   0  0  0  0  0  0  0  0  0  0  0  0
   -0.0000    4.9500    0.0000 N   0  0  0  0  0  0  0  0  0  0  0  0
    0.7145    3.7125    0.0000 N   0  0  0  0  0  0  0  0  0  0  0  0
    1.4289    4.9500    0.0000 S   0  0  0  0  0  0  0  0  0  0  0  0
  5  3  2  0  0  0  0
  6  3  1  0  0  0  0
  7  4  1  0  0  0  0
  8  4  1  0  0  0  0
  9  1  1  0  0  0  0
  9  5  1  0  0  0  0
 10  2  1  0  0  0  0
 10  6  2  0  0  0  0
 11  9  2  0  0  0  0
 11 10  1  0  0  0  0
 13  7  1  0  0  0  0
 13 12  2  0  0  0  0
 14 11  1  0  0  0  0
 14 12  1  0  0  0  0
 15  8  1  0  0  0  0
 15 12  1  0  0  0  0
M  END
> <DATABASE_ID>
DB11477

> <DATABASE_NAME>
drugbank

> <SMILES>
CC1=CC=CC(C)=C1NC1=NCCCS1

> <INCHI_IDENTIFIER>
InChI=1S/C12H16N2S/c1-9-5-3-6-10(2)11(9)14-12-13-7-4-8-15-12/h3,5-6H,4,7-8H2,1-2H3,(H,13,14)

> <INCHI_KEY>
BPICBUSOMSTKRF-UHFFFAOYSA-N

> <FORMULA>
C12H16N2S

> <MOLECULAR_WEIGHT>
220.33

> <EXACT_MASS>
220.103419697

> <JCHEM_ACCEPTOR_COUNT>
2

> <JCHEM_ATOM_COUNT>
31

> <JCHEM_AVERAGE_POLARIZABILITY>
24.76316855203423

> <JCHEM_BIOAVAILABILITY>
1

> <JCHEM_DONOR_COUNT>
1

> <JCHEM_FORMAL_CHARGE>
0

> <JCHEM_GHOSE_FILTER>
1

> <JCHEM_IUPAC>
N-(2,6-dimethylphenyl)-5,6-dihydro-4H-1,3-thiazin-2-amine

> <ALOGPS_LOGP>
3.23

> <JCHEM_LOGP>
3.6327140153333324

> <ALOGPS_LOGS>
-2.93

> <JCHEM_MDDR_LIKE_RULE>
0

> <JCHEM_NUMBER_OF_RINGS>
2

> <JCHEM_PHYSIOLOGICAL_CHARGE>
1

> <JCHEM_PKA_STRONGEST_BASIC>
6.941358075703275

> <JCHEM_POLAR_SURFACE_AREA>
24.39

> <JCHEM_REFRACTIVITY>
68.8221

> <JCHEM_ROTATABLE_BOND_COUNT>
1

> <JCHEM_RULE_OF_FIVE>
1

> <ALOGPS_SOLUBILITY>
2.61e-01 g/l

> <JCHEM_TRADITIONAL_IUPAC>
xylazine

> <JCHEM_VEBER_RULE>
1

> <DRUGBANK_ID>
DB11477

> <DRUG_GROUPS>
vet_approved

> <GENERIC_NAME>
Xylazine

> <SYNONYMS>
Xilazina; Xylazine; Xylazinum

> <INTERNATIONAL_BRANDS>
Anased; Chanazine; Rompun; Sedazine

> <SALTS>
Xylazine hydrochloride

$$$$
