
  Mrv1572004191602112D          

 12 11  0  0  0  0            999 V2000
    0.6336   -0.7145    0.0000 C   0  0  0  0  0  0  0  0  0  0  0  0
    7.0638   -0.3020    0.0000 C   0  0  0  0  0  0  0  0  0  0  0  0
    1.3480   -0.3020    0.0000 C   0  0  0  0  0  0  0  0  0  0  0  0
    6.3493   -0.7145    0.0000 C   0  0  0  0  0  0  0  0  0  0  0  0
    2.7770   -0.3020    0.0000 C   0  0  0  0  0  0  0  0  0  0  0  0
    4.9204   -0.7145    0.0000 C   0  0  0  0  0  0  0  0  0  0  0  0
    2.0625   -0.7145    0.0000 O   0  0  0  0  0  0  0  0  0  0  0  0
    5.6349   -0.3020    0.0000 O   0  0  0  0  0  0  0  0  0  0  0  0
    2.7770    0.5230    0.0000 S   0  0  0  0  0  0  0  0  0  0  0  0
    4.9204   -1.5395    0.0000 S   0  0  0  0  0  0  0  0  0  0  0  0
    3.4914   -0.7145    0.0000 S   0  0  0  0  0  0  0  0  0  0  0  0
    4.2059   -0.3020    0.0000 S   0  0  0  0  0  0  0  0  0  0  0  0
  3  1  1  0  0  0  0
  4  2  1  0  0  0  0
  7  3  1  0  0  0  0
  7  5  1  0  0  0  0
  8  4  1  0  0  0  0
  8  6  1  0  0  0  0
  9  5  2  0  0  0  0
 10  6  2  0  0  0  0
 11  5  1  0  0  0  0
 12  6  1  0  0  0  0
 12 11  1  0  0  0  0
M  END
> <DATABASE_ID>
DB13712

> <DATABASE_NAME>
drugbank

> <SMILES>
CCOC(=S)SSC(=S)OCC

> <INCHI_IDENTIFIER>
InChI=1S/C6H10O2S4/c1-3-7-5(9)11-12-6(10)8-4-2/h3-4H2,1-2H3

> <INCHI_KEY>
FVIGODVHAVLZOO-UHFFFAOYSA-N

> <FORMULA>
C6H10O2S4

> <MOLECULAR_WEIGHT>
242.38

> <EXACT_MASS>
241.956364258

> <JCHEM_ACCEPTOR_COUNT>
2

> <JCHEM_ATOM_COUNT>
22

> <JCHEM_AVERAGE_POLARIZABILITY>
23.193099435032963

> <JCHEM_BIOAVAILABILITY>
1

> <JCHEM_DONOR_COUNT>
0

> <JCHEM_FORMAL_CHARGE>
0

> <JCHEM_GHOSE_FILTER>
1

> <JCHEM_IUPAC>
ethoxy[(ethoxymethanethioyl)disulfanyl]methanethione

> <ALOGPS_LOGP>
3.04

> <JCHEM_LOGP>
4.457112089333332

> <ALOGPS_LOGS>
-4.35

> <JCHEM_MDDR_LIKE_RULE>
0

> <JCHEM_NUMBER_OF_RINGS>
0

> <JCHEM_PHYSIOLOGICAL_CHARGE>
0

> <JCHEM_PKA_STRONGEST_BASIC>
-4.803226692248801

> <JCHEM_POLAR_SURFACE_AREA>
18.46

> <JCHEM_REFRACTIVITY>
65.045

> <JCHEM_ROTATABLE_BOND_COUNT>
7

> <JCHEM_RULE_OF_FIVE>
1

> <ALOGPS_SOLUBILITY>
1.08e-02 g/l

> <JCHEM_TRADITIONAL_IUPAC>
aulin

> <JCHEM_VEBER_RULE>
1

> <DRUGBANK_ID>
DB13712

> <DRUG_GROUPS>
experimental

> <GENERIC_NAME>
Dixanthogen

> <SYNONYMS>
Dixanthogen

$$$$
