
  Mrv1652310201623452D          

 27 30  0  0  1  0            999 V2000
   -7.2149   -0.1576    0.0000 C   0  0  0  0  0  0  0  0  0  0  0  0
   -7.6998   -0.8250    0.0000 C   0  0  0  0  0  0  0  0  0  0  0  0
   -7.2149   -1.4924    0.0000 S   0  0  0  0  0  0  0  0  0  0  0  0
   -6.4302   -1.2375    0.0000 C   0  0  0  0  0  0  0  0  0  0  0  0
   -6.4302   -0.4125    0.0000 C   0  0  0  0  0  0  0  0  0  0  0  0
   -5.7158   -0.0000    0.0000 N   0  0  0  0  0  0  0  0  0  0  0  0
   -5.0013   -0.4125    0.0000 C   0  0  0  0  0  0  0  0  0  0  0  0
   -5.0013   -1.2375    0.0000 C   0  0  0  0  0  0  0  0  0  0  0  0
   -5.7158   -1.6500    0.0000 C   0  0  0  0  0  0  0  0  0  0  0  0
   -5.7158   -2.4750    0.0000 O   0  0  0  0  0  0  0  0  0  0  0  0
   -4.2868   -0.0000    0.0000 N   0  0  0  0  0  0  0  0  0  0  0  0
   -3.5724   -0.4125    0.0000 C   0  0  0  0  0  0  0  0  0  0  0  0
   -2.8579   -0.0000    0.0000 C   0  0  0  0  0  0  0  0  0  0  0  0
   -2.1434   -0.4125    0.0000 C   0  0  0  0  0  0  0  0  0  0  0  0
   -1.4289   -0.0000    0.0000 N   0  0  0  0  0  0  0  0  0  0  0  0
   -0.7145   -0.4125    0.0000 C   0  0  2  0  0  0  0  0  0  0  0  0
   -0.7145   -1.2375    0.0000 C   0  0  0  0  0  0  0  0  0  0  0  0
    0.0000   -1.6500    0.0000 C   0  0  0  0  0  0  0  0  0  0  0  0
    0.7145   -1.2375    0.0000 O   0  0  0  0  0  0  0  0  0  0  0  0
    0.7145   -0.4125    0.0000 C   0  0  0  0  0  0  0  0  0  0  0  0
    0.0000   -0.0000    0.0000 C   0  0  0  0  0  0  0  0  0  0  0  0
    0.0000    0.8250    0.0000 C   0  0  0  0  0  0  0  0  0  0  0  0
    0.7145    1.2375    0.0000 C   0  0  0  0  0  0  0  0  0  0  0  0
    1.4289    0.8250    0.0000 C   0  0  0  0  0  0  0  0  0  0  0  0
    1.4289   -0.0000    0.0000 C   0  0  0  0  0  0  0  0  0  0  0  0
    2.1434   -0.4125    0.0000 Br  0  0  0  0  0  0  0  0  0  0  0  0
    0.7145    2.0625    0.0000 Br  0  0  0  0  0  0  0  0  0  0  0  0
  1  2  2  0  0  0  0
  2  3  1  0  0  0  0
  3  4  1  0  0  0  0
  4  5  2  0  0  0  0
  1  5  1  0  0  0  0
  5  6  1  0  0  0  0
  6  7  1  0  0  0  0
  7  8  2  0  0  0  0
  8  9  1  0  0  0  0
  4  9  1  0  0  0  0
  9 10  2  0  0  0  0
  7 11  1  0  0  0  0
 11 12  1  0  0  0  0
 12 13  1  0  0  0  0
 13 14  1  0  0  0  0
 14 15  1  0  0  0  0
 16 15  1  1  0  0  0
 16 17  1  0  0  0  0
 17 18  1  0  0  0  0
 18 19  1  0  0  0  0
 19 20  1  0  0  0  0
 20 21  2  0  0  0  0
 16 21  1  0  0  0  0
 21 22  1  0  0  0  0
 22 23  2  0  0  0  0
 23 24  1  0  0  0  0
 24 25  2  0  0  0  0
 20 25  1  0  0  0  0
 25 26  1  0  0  0  0
 23 27  1  0  0  0  0
M  END
> <DATABASE_ID>
DB12262

> <DATABASE_NAME>
drugbank

> <SMILES>
BrC1=CC2=C(OCC[C@H]2NCCCNC2=CC(=O)C3=C(N2)C=CS3)C(Br)=C1

> <INCHI_IDENTIFIER>
InChI=1S/C19H19Br2N3O2S/c20-11-8-12-14(2-6-26-18(12)13(21)9-11)22-4-1-5-23-17-10-16(25)19-15(24-17)3-7-27-19/h3,7-10,14,22H,1-2,4-6H2,(H2,23,24,25)/t14-/m1/s1

> <INCHI_KEY>
NNTYBKTXMKBRFA-CQSZACIVSA-N

> <FORMULA>
C19H19Br2N3O2S

> <MOLECULAR_WEIGHT>
513.25

> <EXACT_MASS>
510.956474

> <JCHEM_ACCEPTOR_COUNT>
5

> <JCHEM_ATOM_COUNT>
46

> <JCHEM_AVERAGE_POLARIZABILITY>
45.713571276844306

> <JCHEM_BIOAVAILABILITY>
1

> <JCHEM_DONOR_COUNT>
3

> <JCHEM_FORMAL_CHARGE>
0

> <JCHEM_GHOSE_FILTER>
0

> <JCHEM_IUPAC>
5-[(3-{[(4R)-6,8-dibromo-3,4-dihydro-2H-1-benzopyran-4-yl]amino}propyl)amino]-4H,7H-thieno[3,2-b]pyridin-7-one

> <ALOGPS_LOGP>
3.84

> <JCHEM_LOGP>
4.420181413544938

> <ALOGPS_LOGS>
-5.52

> <JCHEM_MDDR_LIKE_RULE>
1

> <JCHEM_NUMBER_OF_RINGS>
4

> <JCHEM_PHYSIOLOGICAL_CHARGE>
1

> <JCHEM_PKA>
19.491249487466668

> <JCHEM_PKA_STRONGEST_ACIDIC>
10.304887067762895

> <JCHEM_PKA_STRONGEST_BASIC>
8.417729659627692

> <JCHEM_POLAR_SURFACE_AREA>
62.39

> <JCHEM_REFRACTIVITY>
126.097

> <JCHEM_ROTATABLE_BOND_COUNT>
6

> <JCHEM_RULE_OF_FIVE>
0

> <ALOGPS_SOLUBILITY>
1.54e-03 g/l

> <JCHEM_TRADITIONAL_IUPAC>
5-[(3-{[(4R)-6,8-dibromo-3,4-dihydro-2H-1-benzopyran-4-yl]amino}propyl)amino]-4H-thieno[3,2-b]pyridin-7-one

> <JCHEM_VEBER_RULE>
0

> <DRUGBANK_ID>
DB12262

> <DRUG_GROUPS>
investigational

> <GENERIC_NAME>
CRS-3123

$$$$
