
  Mrv1909 03242121522D          

140147  0  0  1  0            999 V2000
   -0.8424    2.5798    0.0000 C   0  0  1  0  0  0  0  0  0  0  0  0
   -3.9341    3.3937    0.0000 N   0  0  0  0  0  0  0  0  0  0  0  0
   -3.4386    4.1616    0.0000 C   0  0  2  0  0  0  0  0  0  0  0  0
   -3.5952    5.3623    0.0000 C   0  0  2  0  0  0  0  0  0  0  0  0
   -4.3097    5.7749    0.0000 C   0  0  0  0  0  0  0  0  0  0  0  0
   -2.8807    5.7749    0.0000 S   0  0  0  0  0  0  0  0  0  0  0  0
   -1.2529    3.6050    0.0000 N   0  0  0  0  0  0  0  0  0  0  0  0
   -5.0241    2.8873    0.0000 C   0  0  0  0  0  0  0  0  0  0  0  0
   -5.0241    2.0623    0.0000 C   0  0  1  0  0  0  0  0  0  0  0  0
   -5.7385    1.6498    0.0000 N   0  0  0  0  0  0  0  0  0  0  0  0
   -5.7385    0.8248    0.0000 C   0  0  0  0  0  0  0  0  0  0  0  0
   -6.4531    0.4124    0.0000 C   0  0  0  0  0  0  0  0  0  0  0  0
   -6.4531   -0.4125    0.0000 N   0  0  0  0  0  0  0  0  0  0  0  0
   -5.7385   -0.8250    0.0000 C   0  0  0  0  0  0  0  0  0  0  0  0
   -5.7385   -1.6500    0.0000 C   0  0  1  0  0  0  0  0  0  0  0  0
   -5.0241   -2.0624    0.0000 N   0  0  0  0  0  0  0  0  0  0  0  0
   -5.0241   -2.8875    0.0000 C   0  0  0  0  0  0  0  0  0  0  0  0
   -4.3097   -3.3000    0.0000 C   0  0  1  0  0  0  0  0  0  0  0  0
   -4.3097   -4.1248    0.0000 N   0  0  0  0  0  0  0  0  0  0  0  0
   -3.5952   -4.5374    0.0000 C   0  0  0  0  0  0  0  0  0  0  0  0
   -3.5952   -5.3625    0.0000 C   0  0  1  0  0  0  0  0  0  0  0  0
   -2.8807   -5.7750    0.0000 N   0  0  0  0  0  0  0  0  0  0  0  0
   -2.1663   -5.3625    0.0000 C   0  0  0  0  0  0  0  0  0  0  0  0
   -1.4517   -5.7750    0.0000 C   0  0  1  0  0  0  0  0  0  0  0  0
   -0.7374   -5.3625    0.0000 N   0  0  0  0  0  0  0  0  0  0  0  0
   -0.0230   -5.7750    0.0000 C   0  0  0  0  0  0  0  0  0  0  0  0
    0.6916   -5.3625    0.0000 C   0  0  1  0  0  0  0  0  0  0  0  0
    0.6916   -4.5374    0.0000 C   0  0  2  0  0  0  0  0  0  0  0  0
    1.4059   -4.1248    0.0000 C   0  0  0  0  0  0  0  0  0  0  0  0
   -0.0230   -4.1248    0.0000 S   0  0  0  0  0  0  0  0  0  0  0  0
    1.4059   -5.7750    0.0000 N   0  0  0  0  0  0  0  0  0  0  0  0
    2.1205   -5.3625    0.0000 C   0  0  0  0  0  0  0  0  0  0  0  0
    2.8348   -5.7750    0.0000 C   0  0  1  0  0  0  0  0  0  0  0  0
    3.5493   -5.3625    0.0000 N   0  0  0  0  0  0  0  0  0  0  0  0
    4.2639   -5.7750    0.0000 C   0  0  0  0  0  0  0  0  0  0  0  0
    4.9783   -5.3625    0.0000 C   0  0  1  0  0  0  0  0  0  0  0  0
    4.9783   -4.5374    0.0000 N   0  0  0  0  0  0  0  0  0  0  0  0
    5.7628   -4.2825    0.0000 C   0  0  0  0  0  0  0  0  0  0  0  0
    6.2477   -4.9499    0.0000 C   0  0  0  0  0  0  0  0  0  0  0  0
    5.7628   -5.6173    0.0000 C   0  0  0  0  0  0  0  0  0  0  0  0
    4.2639   -4.1248    0.0000 C   0  0  0  0  0  0  0  0  0  0  0  0
    4.2639   -3.3000    0.0000 C   0  0  0  0  0  0  0  0  0  0  0  0
    4.9783   -2.8875    0.0000 N   0  0  0  0  0  0  0  0  0  0  0  0
    4.9783   -2.0624    0.0000 C   0  0  0  0  0  0  0  0  0  0  0  0
    5.6927   -1.6500    0.0000 C   0  0  1  0  0  0  0  0  0  0  0  0
    5.6927   -0.8250    0.0000 N   0  0  0  0  0  0  0  0  0  0  0  0
    6.4072   -0.4125    0.0000 C   0  0  0  0  0  0  0  0  0  0  0  0
    6.4072    0.4124    0.0000 C   0  0  1  0  0  0  0  0  0  0  0  0
    5.6927    0.8248    0.0000 N   0  0  0  0  0  0  0  0  0  0  0  0
    5.6927    1.6498    0.0000 C   0  0  0  0  0  0  0  0  0  0  0  0
    4.9783    2.0623    0.0000 C   0  0  1  0  0  0  0  0  0  0  0  0
    4.9783    2.8873    0.0000 N   0  0  0  0  0  0  0  0  0  0  0  0
    4.2639    3.2998    0.0000 C   0  0  0  0  0  0  0  0  0  0  0  0
    4.2639    4.1248    0.0000 C   0  0  2  0  0  0  0  0  0  0  0  0
    3.5493    4.5373    0.0000 N   0  0  0  0  0  0  0  0  0  0  0  0
    3.5493    5.3623    0.0000 C   0  0  0  0  0  0  0  0  0  0  0  0
    2.8348    5.7749    0.0000 C   0  0  1  0  0  0  0  0  0  0  0  0
    2.1205    5.3623    0.0000 N   0  0  0  0  0  0  0  0  0  0  0  0
    1.4059    5.7749    0.0000 C   0  0  0  0  0  0  0  0  0  0  0  0
    0.6916    5.3623    0.0000 C   0  0  1  0  0  0  0  0  0  0  0  0
   -0.0230    5.7749    0.0000 N   0  0  0  0  0  0  0  0  0  0  0  0
   -0.7374    5.3623    0.0000 C   0  0  0  0  0  0  0  0  0  0  0  0
   -1.4517    5.7749    0.0000 C   0  0  1  0  0  0  0  0  0  0  0  0
   -1.4517    6.5997    0.0000 N   0  0  0  0  0  0  0  0  0  0  0  0
   -2.1663    5.3623    0.0000 C   0  0  0  0  0  0  0  0  0  0  0  0
   -0.7374    4.5373    0.0000 O   0  0  0  0  0  0  0  0  0  0  0  0
    0.6916    4.5373    0.0000 C   0  0  0  0  0  0  0  0  0  0  0  0
    1.4059    4.1248    0.0000 C   0  0  0  0  0  0  0  0  0  0  0  0
    1.4059    3.2998    0.0000 C   0  0  0  0  0  0  0  0  0  0  0  0
    2.1205    2.8873    0.0000 C   0  0  0  0  0  0  0  0  0  0  0  0
    2.8348    3.2998    0.0000 N   0  0  0  0  0  0  0  0  0  0  0  0
    1.4059    6.5997    0.0000 O   0  0  0  0  0  0  0  0  0  0  0  0
    2.8348    6.5997    0.0000 C   0  0  0  0  0  0  0  0  0  0  0  0
    3.5493    7.0124    0.0000 C   0  0  0  0  0  0  0  0  0  0  0  0
    3.5493    7.8372    0.0000 C   0  0  0  0  0  0  0  0  0  0  0  0
    2.8348    8.2498    0.0000 O   0  0  0  0  0  0  0  0  0  0  0  0
    4.2639    8.2498    0.0000 N   0  0  0  0  0  0  0  0  0  0  0  0
    4.2639    5.7749    0.0000 O   0  0  0  0  0  0  0  0  0  0  0  0
    4.9783    4.5373    0.0000 C   0  0  0  0  0  0  0  0  0  0  0  0
    3.4885    3.0176    0.0000 O   0  0  0  0  0  0  0  0  0  0  0  0
    3.3833    1.9190    0.0000 C   0  0  0  0  0  0  0  0  0  0  0  0
    6.4072    2.0623    0.0000 O   0  0  0  0  0  0  0  0  0  0  0  0
    4.9490    0.1931    0.0000 C   0  0  0  0  0  0  0  0  0  0  0  0
    7.1217   -0.8250    0.0000 O   0  0  0  0  0  0  0  0  0  0  0  0
    6.5051   -1.7933    0.0000 C   0  0  0  0  0  0  0  0  0  0  0  0
    6.7873   -2.5685    0.0000 C   0  0  0  0  0  0  0  0  0  0  0  0
    6.2569   -3.2005    0.0000 C   0  0  0  0  0  0  0  0  0  0  0  0
    6.5390   -3.9757    0.0000 C   0  0  0  0  0  0  0  0  0  0  0  0
    7.3518   -4.1190    0.0000 C   0  0  0  0  0  0  0  0  0  0  0  0
    7.8820   -3.4870    0.0000 C   0  0  0  0  0  0  0  0  0  0  0  0
    7.5999   -2.7117    0.0000 C   0  0  0  0  0  0  0  0  0  0  0  0
    4.2639   -1.6500    0.0000 O   0  0  0  0  0  0  0  0  0  0  0  0
    3.5493   -4.5374    0.0000 O   0  0  0  0  0  0  0  0  0  0  0  0
    4.2639   -6.5999    0.0000 O   0  0  0  0  0  0  0  0  0  0  0  0
    2.8348   -6.5999    0.0000 C   0  0  0  0  0  0  0  0  0  0  0  0
    2.1205   -7.0124    0.0000 C   0  0  0  0  0  0  0  0  0  0  0  0
    1.4059   -6.5999    0.0000 C   0  0  0  0  0  0  0  0  0  0  0  0
    0.6916   -7.0124    0.0000 C   0  0  0  0  0  0  0  0  0  0  0  0
    0.6916   -7.8374    0.0000 C   0  0  0  0  0  0  0  0  0  0  0  0
    1.4059   -8.2499    0.0000 C   0  0  0  0  0  0  0  0  0  0  0  0
    2.1205   -7.8374    0.0000 C   0  0  0  0  0  0  0  0  0  0  0  0
    2.1205   -4.5374    0.0000 O   0  0  0  0  0  0  0  0  0  0  0  0
   -0.0230   -6.5999    0.0000 O   0  0  0  0  0  0  0  0  0  0  0  0
   -1.4517   -6.5999    0.0000 C   0  0  0  0  0  0  0  0  0  0  0  0
   -2.1663   -7.0124    0.0000 C   0  0  0  0  0  0  0  0  0  0  0  0
   -2.1663   -7.8374    0.0000 C   0  0  0  0  0  0  0  0  0  0  0  0
   -2.8807   -8.2499    0.0000 C   0  0  0  0  0  0  0  0  0  0  0  0
   -3.5952   -7.8374    0.0000 C   0  0  0  0  0  0  0  0  0  0  0  0
   -3.5952   -7.0124    0.0000 C   0  0  0  0  0  0  0  0  0  0  0  0
   -2.8807   -6.5999    0.0000 C   0  0  0  0  0  0  0  0  0  0  0  0
   -2.1663   -4.5374    0.0000 O   0  0  0  0  0  0  0  0  0  0  0  0
   -4.3097   -5.7750    0.0000 C   0  0  0  0  0  0  0  0  0  0  0  0
   -4.3097   -6.5999    0.0000 C   0  0  0  0  0  0  0  0  0  0  0  0
   -5.0241   -5.3625    0.0000 C   0  0  0  0  0  0  0  0  0  0  0  0
   -2.8807   -4.1248    0.0000 O   0  0  0  0  0  0  0  0  0  0  0  0
   -3.5639   -2.4493    0.0000 C   0  0  0  0  0  0  0  0  0  0  0  0
    3.7865   -1.7663    0.0000 S   0  0  0  0  0  0  0  0  0  0  0  0
   -5.7385   -3.3000    0.0000 O   0  0  0  0  0  0  0  0  0  0  0  0
   -6.4531   -2.0624    0.0000 C   0  0  2  0  0  0  0  0  0  0  0  0
   -7.1675   -1.6500    0.0000 C   0  0  0  0  0  0  0  0  0  0  0  0
   -7.1675   -0.8250    0.0000 O   0  0  0  0  0  0  0  0  0  0  0  0
   -7.8820   -2.0624    0.0000 O   0  0  0  0  0  0  0  0  0  0  0  0
   -6.4531   -2.8875    0.0000 O   0  0  0  0  0  0  0  0  0  0  0  0
   -5.0241   -0.4125    0.0000 O   0  0  0  0  0  0  0  0  0  0  0  0
   -5.0241    0.4124    0.0000 O   0  0  0  0  0  0  0  0  0  0  0  0
   -4.3548    0.5748    0.0000 C   0  0  0  0  0  0  0  0  0  0  0  0
   -3.1229    0.2090    0.0000 C   0  0  0  0  0  0  0  0  0  0  0  0
   -2.7189    0.9283    0.0000 O   0  0  0  0  0  0  0  0  0  0  0  0
   -2.7021   -0.5004    0.0000 N   0  0  0  0  0  0  0  0  0  0  0  0
   -5.7385    3.2998    0.0000 O   0  0  0  0  0  0  0  0  0  0  0  0
    0.2397    2.2564    0.0000 C   0  0  0  0  0  0  0  0  0  0  0  0
    0.5270    1.2720    0.0000 C   0  0  0  0  0  0  0  0  0  0  0  0
    1.7983    1.7647    0.0000 C   0  0  0  0  0  0  0  0  0  0  0  0
    2.5141    0.7618    0.0000 C   0  0  0  0  0  0  0  0  0  0  0  0
    3.9835    1.0824    0.0000 N   0  0  0  0  0  0  0  0  0  0  0  0
   -1.2680    1.4103    0.0000 O   0  0  0  0  0  0  0  0  0  0  0  0
   -2.3466    2.0293    0.0000 O   0  0  0  0  0  0  0  0  0  0  0  0
   -1.5639    1.9680    0.0000 C   0  0  0  0  0  0  0  0  0  0  0  0
   -2.6683    2.9560    0.0000 O   0  0  0  0  0  0  0  0  0  0  0  0
   -2.3273    3.6050    0.0000 C   0  0  0  0  0  0  0  0  0  0  0  0
  1138  1  1  0  0  0
  3  4  1  0  0  0  0
  4  5  1  6  0  0  0
  4  6  1  0  0  0  0
  2  8  1  0  0  0  0
  8  9  1  0  0  0  0
 10  9  1  0  0  0  0
 10 11  1  0  0  0  0
 11 12  1  0  0  0  0
 13 12  1  0  0  0  0
 13 14  1  0  0  0  0
 14 15  1  0  0  0  0
 15 16  1  1  0  0  0
 16 17  1  0  0  0  0
 17 18  1  0  0  0  0
 19 18  1  0  0  0  0
 19 20  1  0  0  0  0
 20 21  1  0  0  0  0
 22 21  1  0  0  0  0
 22 23  1  0  0  0  0
 23 24  1  0  0  0  0
 25 24  1  0  0  0  0
 25 26  1  0  0  0  0
 26 27  1  0  0  0  0
 27 28  1  0  0  0  0
 28 29  1  0  0  0  0
 28 30  1  1  0  0  0
 27 31  1  1  0  0  0
 31 32  1  0  0  0  0
 32 33  1  0  0  0  0
 34 33  1  0  0  0  0
 34 35  1  0  0  0  0
 36 35  1  0  0  0  0
 37 36  1  0  0  0  0
 37 38  1  0  0  0  0
 39 38  1  0  0  0  0
 40 39  1  0  0  0  0
 36 40  1  1  0  0  0
 37 41  1  0  0  0  0
 41 42  1  0  0  0  0
 43 42  1  0  0  0  0
 43 44  1  0  0  0  0
 44 45  1  0  0  0  0
 45 46  1  0  0  0  0
 46 47  1  0  0  0  0
 47 48  1  0  0  0  0
 48 49  1  0  0  0  0
 49 50  1  0  0  0  0
 50 51  1  0  0  0  0
 51 52  1  0  0  0  0
 52 53  1  0  0  0  0
 53 54  1  0  0  0  0
 54 55  1  0  0  0  0
 55 56  1  0  0  0  0
 56 57  1  0  0  0  0
 57 58  1  0  0  0  0
 58 59  1  0  0  0  0
 59 60  1  0  0  0  0
 60 61  1  0  0  0  0
 61 62  1  0  0  0  0
 62 63  1  0  0  0  0
 63 64  1  6  0  0  0
 63 65  1  0  0  0  0
 62 66  2  0  0  0  0
 60 67  1  6  0  0  0
 67 68  1  0  0  0  0
 68 69  1  0  0  0  0
 69 70  1  0  0  0  0
 70 71  1  0  0  0  0
 59 72  2  0  0  0  0
 57 73  1  1  0  0  0
 73 74  1  0  0  0  0
 74 75  1  0  0  0  0
 75 76  2  0  0  0  0
 75 77  1  0  0  0  0
 56 78  2  0  0  0  0
 54 79  1  6  0  0  0
 53 80  2  0  0  0  0
 51 81  1  6  0  0  0
 50 82  2  0  0  0  0
 48 83  1  1  0  0  0
 47 84  2  0  0  0  0
 45 85  1  1  0  0  0
 85 86  1  0  0  0  0
 86 87  1  0  0  0  0
 87 88  2  0  0  0  0
 88 89  1  0  0  0  0
 89 90  2  0  0  0  0
 90 91  1  0  0  0  0
 86 91  2  0  0  0  0
 44 92  2  0  0  0  0
 41 93  2  0  0  0  0
 35 94  2  0  0  0  0
 33 95  1  1  0  0  0
 95 96  1  0  0  0  0
 96 97  1  0  0  0  0
 97 98  2  0  0  0  0
 98 99  1  0  0  0  0
 99100  2  0  0  0  0
100101  1  0  0  0  0
 96101  2  0  0  0  0
 32102  2  0  0  0  0
 26103  2  0  0  0  0
 24104  1  1  0  0  0
104105  1  0  0  0  0
105106  1  0  0  0  0
106107  2  0  0  0  0
107108  1  0  0  0  0
108109  2  0  0  0  0
109110  1  0  0  0  0
105110  2  0  0  0  0
 23111  2  0  0  0  0
 21112  1  1  0  0  0
112113  1  0  0  0  0
112114  1  0  0  0  0
 20115  2  0  0  0  0
 18116  1  6  0  0  0
116117  1  0  0  0  0
 17118  2  0  0  0  0
 15119  1  0  0  0  0
119120  1  0  0  0  0
120121  2  0  0  0  0
120122  1  0  0  0  0
119123  1  1  0  0  0
 14124  2  0  0  0  0
 11125  2  0  0  0  0
  9126  1  6  0  0  0
126127  1  0  0  0  0
127128  2  0  0  0  0
127129  1  0  0  0  0
  8130  2  0  0  0  0
  1131  1  0  0  0  0
131132  1  0  0  0  0
132133  1  0  0  0  0
133134  1  0  0  0  0
134135  1  0  0  0  0
138136  2  0  0  0  0
138137  1  0  0  0  0
 83135  1  0  0  0  0
 65  6  1  0  0  0  0
 79117  1  0  0  0  0
 81 30  1  0  0  0  0
  2  3  1  0  0  0  0
  1  7  1  0  0  0  0
  3140  1  6  0  0  0
140139  2  0  0  0  0
140  7  1  0  0  0  0
M  END
> <DATABASE_ID>
DB05029

> <DATABASE_NAME>
drugbank

> <SMILES>
CC(C)[C@@H]1NC(=O)[C@H](CC2=CC=CC=C2)NC(=O)[C@@H]2NC(=O)[C@H](CC3=CC=CC=C3)NC(=O)[C@@H]3CCCN3C(=O)CNC(=O)[C@H](CC3=CC=CC=C3)NC(=O)[C@@H]3CNCCCC[C@H](NC(=O)[C@@H]4NC(=O)[C@H](CC(N)=O)NC(=O)CNC(=O)[C@@H](NC(=O)[C@H](CSC[C@@H](NC(=O)[C@H](CCC(N)=O)NC(=O)[C@H](CCCCN)NC(=O)[C@@H](N)CS[C@H]4C)C(=O)N[C@@H](CS[C@H]2C)C(=O)N3)NC1=O)[C@@H](O)C(O)=O)C(O)=O

> <INCHI_IDENTIFIER>
InChI=1S/C89H125N23O25S3/c1-44(2)67-85(131)107-60-42-138-41-59-80(126)106-61-43-140-46(4)69(87(133)103-56(76(122)108-67)35-49-23-12-7-13-24-49)109-77(123)55(34-48-21-10-6-11-22-48)102-83(129)62-27-18-32-112(62)66(116)39-96-73(119)54(33-47-19-8-5-9-20-47)101-79(125)58(104-81(61)127)37-94-31-17-15-26-53(88(134)135)100-86(132)68(110-78(124)57(36-64(93)114)97-65(115)38-95-84(130)70(111-82(60)128)71(117)89(136)137)45(3)139-40-50(91)72(118)98-51(25-14-16-30-90)74(120)99-52(75(121)105-59)28-29-63(92)113/h5-13,19-24,44-46,50-62,67-71,94,117H,14-18,25-43,90-91H2,1-4H3,(H2,92,113)(H2,93,114)(H,95,130)(H,96,119)(H,97,115)(H,98,118)(H,99,120)(H,100,132)(H,101,125)(H,102,129)(H,103,133)(H,104,127)(H,105,121)(H,106,126)(H,107,131)(H,108,122)(H,109,123)(H,110,124)(H,111,128)(H,134,135)(H,136,137)/t45-,46-,50-,51-,52-,53-,54-,55-,56-,57-,58-,59+,60-,61-,62-,67-,68+,69+,70-,71+/m0/s1

> <INCHI_KEY>
SFWLDKQAUHFCBS-AOEYGKNYSA-N

> <FORMULA>
C89H125N23O25S3

> <MOLECULAR_WEIGHT>
2013.3

> <EXACT_MASS>
2011.837910139

> <JCHEM_ACCEPTOR_COUNT>
28

> <JCHEM_ATOM_COUNT>
265

> <JCHEM_AVERAGE_NEUTRAL_MICROSPECIES_CHARGE>
0.8362441428908576

> <JCHEM_AVERAGE_POLARIZABILITY>
200.68364965627

> <JCHEM_BIOAVAILABILITY>
0

> <JCHEM_DONOR_COUNT>
25

> <JCHEM_FORMAL_CHARGE>
0

> <JCHEM_GHOSE_FILTER>
0

> <JCHEM_IUPAC>
(1S,4S,13S,16S,19S,22S,25S,28R,31S,37S,40S,41S,44R,47S,50S,53S,56R,65S,70S)-44-amino-47-(4-aminobutyl)-4,16,22-tribenzyl-50-(2-carbamoylethyl)-37-(carbamoylmethyl)-31-[(R)-carboxy(hydroxy)methyl]-41,70-dimethyl-2,5,8,14,17,20,23,26,29,32,35,38,45,48,51,54,57,67-octadecaoxo-25-(propan-2-yl)-42,69,72-trithia-3,6,9,15,18,21,24,27,30,33,36,39,46,49,52,55,58,60,66-nonadecaazapentacyclo[38.18.9.3^{19,56}.3^{28,53}.0^{9,13}]triheptacontane-65-carboxylic acid

> <ALOGPS_LOGP>
-2.72

> <JCHEM_LOGP>
-14.775551089879865

> <ALOGPS_LOGS>
-3.96

> <JCHEM_MDDR_LIKE_RULE>
1

> <JCHEM_NEUTRAL_CHARGE>
1

> <JCHEM_NUMBER_OF_RINGS>
8

> <JCHEM_PHYSIOLOGICAL_CHARGE>
1

> <JCHEM_PKA>
3.5948739055493193

> <JCHEM_PKA_STRONGEST_ACIDIC>
2.8463891269802337

> <JCHEM_PKA_STRONGEST_BASIC>
10.21804393161135

> <JCHEM_POLAR_SURFACE_AREA>
760.0900000000004

> <JCHEM_REFRACTIVITY>
500.3003000000006

> <JCHEM_ROTATABLE_BOND_COUNT>
19

> <JCHEM_RULE_OF_FIVE>
0

> <ALOGPS_SOLUBILITY>
2.22e-01 g/l

> <JCHEM_TRADITIONAL_IUPAC>
nipecotic acid

> <JCHEM_VEBER_RULE>
0

> <DRUGBANK_ID>
DB05029

> <DRUG_GROUPS>
investigational

> <GENERIC_NAME>
Lancovutide

> <SYNONYMS>
Duramycin; Lancovutide; Leucopeptin

$$$$
