
  Mrv1652310211602262D          

  1  0  0  0  0  0            999 V2000
    0.0000    0.0000    0.0000 Ra  0  0  0  0  0  0  0  0  0  0  0  0
M  ISO  1   1 223
M  END
> <DATABASE_ID>
DB12813

> <DATABASE_NAME>
drugbank

> <SMILES>
[223Ra]

> <INCHI_IDENTIFIER>
InChI=1S/Ra/i1-3

> <INCHI_KEY>
HCWPIIXVSYCSAN-OIOBTWANSA-N

> <FORMULA>
Ra

> <MOLECULAR_WEIGHT>
223.0185

> <EXACT_MASS>
223.01849714

> <JCHEM_ACCEPTOR_COUNT>
0

> <JCHEM_ATOM_COUNT>
1

> <JCHEM_AVERAGE_POLARIZABILITY>
1.7784

> <JCHEM_BIOAVAILABILITY>
1

> <JCHEM_DONOR_COUNT>
0

> <JCHEM_FORMAL_CHARGE>
0

> <JCHEM_GHOSE_FILTER>
0

> <JCHEM_IUPAC>
(223Ra)radium

> <JCHEM_LOGP>
0.0

> <JCHEM_MDDR_LIKE_RULE>
0

> <JCHEM_NUMBER_OF_RINGS>
0

> <JCHEM_PHYSIOLOGICAL_CHARGE>
0

> <JCHEM_POLAR_SURFACE_AREA>
0.0

> <JCHEM_REFRACTIVITY>
0.0

> <JCHEM_ROTATABLE_BOND_COUNT>
0

> <JCHEM_RULE_OF_FIVE>
1

> <JCHEM_TRADITIONAL_IUPAC>
(223Ra)radium

> <JCHEM_VEBER_RULE>
1

> <DRUGBANK_ID>
DB12813

> <DRUG_GROUPS>
investigational

> <GENERIC_NAME>
Radium Ra-223

> <SYNONYMS>
Radium-223

$$$$
