
  Mrv1652306231722412D          

 15 14  0  0  0  0            999 V2000
   -0.6039    0.0000    0.0000 C   0  0  0  0  0  0  0  0  0  0  0  0
    0.1105    0.4125    0.0000 C   0  0  0  0  0  0  0  0  0  0  0  0
    0.8250    0.0000    0.0000 C   0  0  0  0  0  0  0  0  0  0  0  0
    1.5395    0.4125    0.0000 C   0  0  0  0  0  0  0  0  0  0  0  0
    2.2539    0.8250    0.0000 C   0  0  0  0  0  0  0  0  0  0  0  0
    1.9520   -0.3020    0.0000 C   0  0  0  0  0  0  0  0  0  0  0  0
    2.7770   -0.3020    0.0000 O   0  0  0  0  0  0  0  0  0  0  0  0
    3.1895   -1.0164    0.0000 N   0  3  0  0  0  0  0  0  0  0  0  0
    4.0145   -1.0164    0.0000 O   0  0  0  0  0  0  0  0  0  0  0  0
    2.7770   -1.7309    0.0000 O   0  5  0  0  0  0  0  0  0  0  0  0
    1.1270    1.1270    0.0000 C   0  0  0  0  0  0  0  0  0  0  0  0
    0.3020    1.1270    0.0000 O   0  0  0  0  0  0  0  0  0  0  0  0
   -0.1105    1.8414    0.0000 N   0  3  0  0  0  0  0  0  0  0  0  0
   -0.9355    1.8414    0.0000 O   0  0  0  0  0  0  0  0  0  0  0  0
    0.3020    2.5559    0.0000 O   0  5  0  0  0  0  0  0  0  0  0  0
  1  2  1  0  0  0  0
  2  3  1  0  0  0  0
  3  4  1  0  0  0  0
  4  5  1  0  0  0  0
  4  6  1  0  0  0  0
  6  7  1  0  0  0  0
  7  8  1  0  0  0  0
  8  9  2  0  0  0  0
  8 10  1  0  0  0  0
  4 11  1  0  0  0  0
 11 12  1  0  0  0  0
 12 13  1  0  0  0  0
 13 14  2  0  0  0  0
 13 15  1  0  0  0  0
M  CHG  4   8   1  10  -1  13   1  15  -1
M  END
> <DATABASE_ID>
DB13408

> <DATABASE_NAME>
drugbank

> <SMILES>
CCCC(C)(CO[N+]([O-])=O)CO[N+]([O-])=O

> <INCHI_IDENTIFIER>
InChI=1S/C7H14N2O6/c1-3-4-7(2,5-14-8(10)11)6-15-9(12)13/h3-6H2,1-2H3

> <INCHI_KEY>
BLJBDLGFKNXUCB-UHFFFAOYSA-N

> <FORMULA>
C7H14N2O6

> <MOLECULAR_WEIGHT>
222.197

> <EXACT_MASS>
222.085186179

> <JCHEM_ACCEPTOR_COUNT>
6

> <JCHEM_ATOM_COUNT>
29

> <JCHEM_AVERAGE_POLARIZABILITY>
20.340982820354714

> <JCHEM_BIOAVAILABILITY>
1

> <JCHEM_DONOR_COUNT>
0

> <JCHEM_FORMAL_CHARGE>
0

> <JCHEM_GHOSE_FILTER>
1

> <JCHEM_IUPAC>
2-methyl-1-(nitrooxy)-2-[(nitrooxy)methyl]pentane

> <ALOGPS_LOGP>
2.30

> <JCHEM_LOGP>
2.109122413333332

> <ALOGPS_LOGS>
-3.16

> <JCHEM_MDDR_LIKE_RULE>
0

> <JCHEM_NUMBER_OF_RINGS>
0

> <JCHEM_PHYSIOLOGICAL_CHARGE>
0

> <JCHEM_PKA_STRONGEST_BASIC>
-5.768390616492348

> <JCHEM_POLAR_SURFACE_AREA>
104.74000000000001

> <JCHEM_REFRACTIVITY>
48.75990000000001

> <JCHEM_ROTATABLE_BOND_COUNT>
8

> <JCHEM_RULE_OF_FIVE>
1

> <ALOGPS_SOLUBILITY>
1.53e-01 g/l

> <JCHEM_TRADITIONAL_IUPAC>
2-methyl-1-(nitrooxy)-2-[(nitrooxy)methyl]pentane

> <JCHEM_VEBER_RULE>
0

> <DRUGBANK_ID>
DB13408

> <DRUG_GROUPS>
experimental

> <GENERIC_NAME>
Methylpropylpropanediol dinitrate

> <SYNONYMS>
2-methyl-2-propylpropane-1,3-diyl dinitrate

$$$$
