
  Mrv1652310211604302D          

 34 38  0  0  1  0            999 V2000
    4.9352    0.2211    0.0000 C   0  0  0  0  0  0  0  0  0  0  0  0
    4.1102    0.2211    0.0000 C   0  0  0  0  0  0  0  0  0  0  0  0
    3.6977   -0.4934    0.0000 O   0  0  0  0  0  0  0  0  0  0  0  0
    3.6977    0.9355    0.0000 N   0  0  0  0  0  0  0  0  0  0  0  0
    2.8727    0.9355    0.0000 C   0  0  0  0  0  0  0  0  0  0  0  0
    2.4602    1.6500    0.0000 C   0  0  0  0  0  0  0  0  0  0  0  0
    2.8727    2.3645    0.0000 O   0  0  0  0  0  0  0  0  0  0  0  0
    1.6352    1.6500    0.0000 N   0  0  0  0  0  0  0  0  0  0  0  0
    1.4289    0.8250    0.0000 C   0  0  1  0  0  0  0  0  0  0  0  0
    2.1434    1.2375    0.0000 C   0  0  0  0  0  0  0  0  0  0  0  0
    2.1434    2.0625    0.0000 C   0  0  0  0  0  0  0  0  0  0  0  0
    1.4289    2.4750    0.0000 C   0  0  2  0  0  0  0  0  0  0  0  0
    0.7145    2.0625    0.0000 C   0  0  0  0  0  0  0  0  0  0  0  0
    0.7145    1.2375    0.0000 C   0  0  0  0  0  0  0  0  0  0  0  0
   -0.0000    0.8250    0.0000 C   0  0  0  0  0  0  0  0  0  0  0  0
   -0.7145    1.2375    0.0000 C   0  0  0  0  0  0  0  0  0  0  0  0
   -0.7145    2.0625    0.0000 C   0  0  0  0  0  0  0  0  0  0  0  0
   -0.0000    2.4750    0.0000 C   0  0  0  0  0  0  0  0  0  0  0  0
   -1.4289    2.4750    0.0000 N   0  0  0  0  0  0  0  0  0  0  0  0
   -2.1434    2.0625    0.0000 C   0  0  0  0  0  0  0  0  0  0  0  0
   -2.1434    1.2375    0.0000 N   0  0  0  0  0  0  0  0  0  0  0  0
   -2.8579    0.8250    0.0000 C   0  0  0  0  0  0  0  0  0  0  0  0
   -3.5724    1.2375    0.0000 C   0  0  0  0  0  0  0  0  0  0  0  0
   -3.5724    2.0625    0.0000 C   0  0  0  0  0  0  0  0  0  0  0  0
   -2.8579    2.4750    0.0000 N   0  0  0  0  0  0  0  0  0  0  0  0
   -4.2868    2.4750    0.0000 N   0  0  0  0  0  0  0  0  0  0  0  0
   -4.2868    3.3000    0.0000 C   0  0  0  0  0  0  0  0  0  0  0  0
   -4.8702    3.8834    0.0000 C   0  0  0  0  0  0  0  0  0  0  0  0
   -4.2868    4.4667    0.0000 C   0  0  0  0  0  0  0  0  0  0  0  0
   -3.7035    3.8834    0.0000 C   0  0  0  0  0  0  0  0  0  0  0  0
   -4.2868    0.8250    0.0000 C   0  0  0  0  0  0  0  0  0  0  0  0
   -5.0013    0.4125    0.0000 F   0  0  0  0  0  0  0  0  0  0  0  0
   -4.6993    1.5395    0.0000 F   0  0  0  0  0  0  0  0  0  0  0  0
   -3.8743    0.1105    0.0000 F   0  0  0  0  0  0  0  0  0  0  0  0
  1  2  1  0  0  0  0
  2  3  2  0  0  0  0
  2  4  1  0  0  0  0
  4  5  1  0  0  0  0
  5  6  1  0  0  0  0
  6  7  2  0  0  0  0
  6  8  1  0  0  0  0
  9  8  1  6  0  0  0
  9 10  1  0  0  0  0
 10 11  1  0  0  0  0
 11 12  1  0  0  0  0
 12  8  1  6  0  0  0
 12 13  1  0  0  0  0
 13 14  2  0  0  0  0
  9 14  1  0  0  0  0
 14 15  1  0  0  0  0
 15 16  2  0  0  0  0
 16 17  1  0  0  0  0
 17 18  2  0  0  0  0
 13 18  1  0  0  0  0
 17 19  1  0  0  0  0
 19 20  1  0  0  0  0
 20 21  2  0  0  0  0
 21 22  1  0  0  0  0
 22 23  2  0  0  0  0
 23 24  1  0  0  0  0
 24 25  2  0  0  0  0
 20 25  1  0  0  0  0
 24 26  1  0  0  0  0
 26 27  1  0  0  0  0
 27 28  1  0  0  0  0
 28 29  1  0  0  0  0
 29 30  1  0  0  0  0
 27 30  1  0  0  0  0
 23 31  1  0  0  0  0
 31 32  1  0  0  0  0
 31 33  1  0  0  0  0
 31 34  1  0  0  0  0
M  END
> <DATABASE_ID>
DB13059

> <DATABASE_NAME>
drugbank

> <SMILES>
CC(=O)NCC(=O)N1[C@H]2CC[C@@H]1C1=C2C=CC(NC2=NC=C(C(NC3CCC3)=N2)C(F)(F)F)=C1

> <INCHI_IDENTIFIER>
InChI=1S/C23H25F3N6O2/c1-12(33)27-11-20(34)32-18-7-8-19(32)16-9-14(5-6-15(16)18)30-22-28-10-17(23(24,25)26)21(31-22)29-13-3-2-4-13/h5-6,9-10,13,18-19H,2-4,7-8,11H2,1H3,(H,27,33)(H2,28,29,30,31)/t18-,19+/m0/s1

> <INCHI_KEY>
RYYNGWLOYLRZLK-RBUKOAKNSA-N

> <FORMULA>
C23H25F3N6O2

> <MOLECULAR_WEIGHT>
474.488

> <EXACT_MASS>
474.199108558

> <JCHEM_ACCEPTOR_COUNT>
6

> <JCHEM_ATOM_COUNT>
59

> <JCHEM_AVERAGE_POLARIZABILITY>
47.42151004260529

> <JCHEM_BIOAVAILABILITY>
1

> <JCHEM_DONOR_COUNT>
3

> <JCHEM_FORMAL_CHARGE>
0

> <JCHEM_GHOSE_FILTER>
1

> <JCHEM_IUPAC>
N-{2-[(1R,8S)-4-{[4-(cyclobutylamino)-5-(trifluoromethyl)pyrimidin-2-yl]amino}-11-azatricyclo[6.2.1.0^{2,7}]undeca-2(7),3,5-trien-11-yl]-2-oxoethyl}acetamide

> <ALOGPS_LOGP>
3.48

> <JCHEM_LOGP>
2.363231367000001

> <ALOGPS_LOGS>
-4.10

> <JCHEM_MDDR_LIKE_RULE>
1

> <JCHEM_NUMBER_OF_RINGS>
5

> <JCHEM_PHYSIOLOGICAL_CHARGE>
0

> <JCHEM_PKA>
13.3600849966097

> <JCHEM_PKA_STRONGEST_ACIDIC>
12.57094270971588

> <JCHEM_PKA_STRONGEST_BASIC>
4.240181761037201

> <JCHEM_POLAR_SURFACE_AREA>
99.25000000000001

> <JCHEM_REFRACTIVITY>
120.50110000000001

> <JCHEM_ROTATABLE_BOND_COUNT>
7

> <JCHEM_RULE_OF_FIVE>
1

> <ALOGPS_SOLUBILITY>
3.77e-02 g/l

> <JCHEM_TRADITIONAL_IUPAC>
N-{2-[(1R,8S)-4-{[4-(cyclobutylamino)-5-(trifluoromethyl)pyrimidin-2-yl]amino}-11-azatricyclo[6.2.1.0^{2,7}]undeca-2(7),3,5-trien-11-yl]-2-oxoethyl}acetamide

> <JCHEM_VEBER_RULE>
0

> <DRUGBANK_ID>
DB13059

> <DRUG_GROUPS>
investigational

> <GENERIC_NAME>
PF-03814735

$$$$
