
  Mrv1533004171504052D          

 19 22  0  0  0  0            999 V2000
    0.8838   -2.1500    0.0000 C   0  0  0  0  0  0  0  0  0  0  0  0
    0.0768   -2.3215    0.0000 C   0  0  0  0  0  0  0  0  0  0  0  0
   -0.2587   -3.0752    0.0000 C   0  0  0  0  0  0  0  0  0  0  0  0
   -1.0792   -2.9890    0.0000 N   0  0  0  0  0  0  0  0  0  0  0  0
   -1.2508   -2.1820    0.0000 C   0  0  0  0  0  0  0  0  0  0  0  0
   -1.9652   -1.7695    0.0000 C   0  0  0  0  0  0  0  0  0  0  0  0
   -1.9652   -0.9445    0.0000 C   0  0  0  0  0  0  0  0  0  0  0  0
   -1.2508   -0.5320    0.0000 C   0  0  0  0  0  0  0  0  0  0  0  0
   -0.5363   -0.9445    0.0000 C   0  0  0  0  0  0  0  0  0  0  0  0
   -0.5363   -1.7695    0.0000 C   0  0  0  0  0  0  0  0  0  0  0  0
    1.1387   -1.3654    0.0000 C   0  0  0  0  0  0  0  0  0  0  0  0
    0.6538   -0.6979    0.0000 C   0  0  0  0  0  0  0  0  0  0  0  0
    1.1387   -0.0305    0.0000 N   0  0  0  0  0  0  0  0  0  0  0  0
    1.9233   -0.2854    0.0000 C   0  0  0  0  0  0  0  0  0  0  0  0
    2.6378    0.1271    0.0000 C   0  0  0  0  0  0  0  0  0  0  0  0
    3.3523   -0.2854    0.0000 C   0  0  0  0  0  0  0  0  0  0  0  0
    3.3523   -1.1104    0.0000 C   0  0  0  0  0  0  0  0  0  0  0  0
    2.6378   -1.5229    0.0000 C   0  0  0  0  0  0  0  0  0  0  0  0
    1.9233   -1.1104    0.0000 C   0  0  0  0  0  0  0  0  0  0  0  0
  1  2  1  0  0  0  0
  2  3  2  0  0  0  0
  3  4  1  0  0  0  0
  4  5  1  0  0  0  0
  5  6  2  0  0  0  0
  6  7  1  0  0  0  0
  7  8  2  0  0  0  0
  8  9  1  0  0  0  0
  9 10  2  0  0  0  0
  2 10  1  0  0  0  0
  5 10  1  0  0  0  0
  1 11  1  0  0  0  0
 11 12  2  0  0  0  0
 12 13  1  0  0  0  0
 13 14  1  0  0  0  0
 14 15  2  0  0  0  0
 15 16  1  0  0  0  0
 16 17  2  0  0  0  0
 17 18  1  0  0  0  0
 18 19  2  0  0  0  0
 11 19  1  0  0  0  0
 14 19  1  0  0  0  0
M  END
> <DATABASE_ID>
DB11875

> <DATABASE_NAME>
drugbank

> <SMILES>
C(C1=CNC2=CC=CC=C12)C1=CNC2=CC=CC=C12

> <INCHI_IDENTIFIER>
InChI=1S/C17H14N2/c1-3-7-16-14(5-1)12(10-18-16)9-13-11-19-17-8-4-2-6-15(13)17/h1-8,10-11,18-19H,9H2

> <INCHI_KEY>
VFTRKSBEFQDZKX-UHFFFAOYSA-N

> <FORMULA>
C17H14N2

> <MOLECULAR_WEIGHT>
246.313

> <EXACT_MASS>
246.115698459

> <JCHEM_ACCEPTOR_COUNT>
0

> <JCHEM_ATOM_COUNT>
33

> <JCHEM_AVERAGE_POLARIZABILITY>
27.57837791167674

> <JCHEM_BIOAVAILABILITY>
1

> <JCHEM_DONOR_COUNT>
2

> <JCHEM_FORMAL_CHARGE>
0

> <JCHEM_GHOSE_FILTER>
1

> <JCHEM_IUPAC>
3-[(1H-indol-3-yl)methyl]-1H-indole

> <ALOGPS_LOGP>
4.40

> <JCHEM_LOGP>
4.262563828999999

> <ALOGPS_LOGS>
-5.18

> <JCHEM_MDDR_LIKE_RULE>
0

> <JCHEM_NUMBER_OF_RINGS>
4

> <JCHEM_PHYSIOLOGICAL_CHARGE>
0

> <JCHEM_PKA>
17.180528868983043

> <JCHEM_PKA_STRONGEST_ACIDIC>
16.516569971636592

> <JCHEM_POLAR_SURFACE_AREA>
31.58

> <JCHEM_REFRACTIVITY>
77.96820000000001

> <JCHEM_ROTATABLE_BOND_COUNT>
2

> <JCHEM_RULE_OF_FIVE>
1

> <ALOGPS_SOLUBILITY>
1.63e-03 g/l

> <JCHEM_TRADITIONAL_IUPAC>
3,3'-diindolylmethane

> <JCHEM_VEBER_RULE>
1

> <DRUGBANK_ID>
DB11875

> <DRUG_GROUPS>
investigational

> <GENERIC_NAME>
3,3'-diindolylmethane

> <SYNONYMS>
Diindolylmethane

$$$$
