
  Mrv1909 11151915442D          

 47 49  0  0  0  0            999 V2000
    4.4872   -1.4697    0.0000 O   0  0  0  0  0  0  0  0  0  0  0  0
    3.8135   -1.8843    0.0000 P   0  0  0  0  0  0  0  0  0  0  0  0
    4.2323   -2.6029    0.0000 O   0  0  0  0  0  0  0  0  0  0  0  0
    3.0742   -2.3215    0.0000 O   0  0  0  0  0  0  0  0  0  0  0  0
    3.3369   -1.1626    0.0000 O   0  0  0  0  0  0  0  0  0  0  0  0
    0.8538    0.2091    0.0000 O   0  0  0  0  0  0  0  0  0  0  0  0
    0.1532    0.6470    0.0000 P   0  0  0  0  0  0  0  0  0  0  0  0
   -0.5681    0.2091    0.0000 O   0  0  0  0  0  0  0  0  0  0  0  0
   -0.4746    1.1824    0.0000 O   0  0  0  0  0  0  0  0  0  0  0  0
    0.4301    1.3985    0.0000 O   0  0  0  0  0  0  0  0  0  0  0  0
    4.7722   -0.5778    0.0000 C   0  0  2  0  0  0  0  0  0  0  0  0
    5.2951   -1.1835    0.0000 O   0  0  0  0  0  0  0  0  0  0  0  0
    3.9339   -0.5778    0.0000 C   0  0  1  0  0  0  0  0  0  0  0  0
    5.0116    0.2091    0.0000 C   0  0  1  0  0  0  0  0  0  0  0  0
    4.3489    0.6976    0.0000 O   0  0  0  0  0  0  0  0  0  0  0  0
    3.6862    0.2091    0.0000 C   0  0  2  0  0  0  0  0  0  0  0  0
    2.9598    0.6470    0.0000 C   0  0  0  0  0  0  0  0  0  0  0  0
    2.2550    0.2091    0.0000 O   0  0  0  0  0  0  0  0  0  0  0  0
    1.5586    0.6470    0.0000 P   0  0  0  0  0  0  0  0  0  0  0  0
    7.7609    0.2085    0.0000 N   0  0  0  0  0  0  0  0  0  0  0  0
    7.7616    1.8044    0.0000 C   0  0  0  0  0  0  0  0  0  0  0  0
    8.4313    1.3882    0.0000 N   0  0  0  0  0  0  0  0  0  0  0  0
    8.4334    0.6022    0.0000 C   0  0  0  0  0  0  0  0  0  0  0  0
    7.0553    1.3890    0.0000 C   0  0  0  0  0  0  0  0  0  0  0  0
    7.0592    0.6012    0.0000 C   0  0  0  0  0  0  0  0  0  0  0  0
    5.7119    0.6015    0.0000 N   0  0  0  0  0  0  0  0  0  0  0  0
    5.7120    1.3852    0.0000 C   0  0  0  0  0  0  0  0  0  0  0  0
    6.3984    1.7936    0.0000 N   0  0  0  0  0  0  0  0  0  0  0  0
    7.7640    2.6029    0.0000 N   0  0  0  0  0  0  0  0  0  0  0  0
    1.1374    1.3310    0.0000 O   0  0  0  0  0  0  0  0  0  0  0  0
    2.1466    1.2142    0.0000 O   0  0  0  0  0  0  0  0  0  0  0  0
   -1.2520    0.6470    0.0000 C   0  0  0  0  0  0  0  0  0  0  0  0
   -1.9735    0.2091    0.0000 C   0  0  0  0  0  0  0  0  0  0  0  0
   -2.3947   -0.5122    0.0000 C   0  0  0  0  0  0  0  0  0  0  0  0
   -1.5983   -0.5122    0.0000 C   0  0  0  0  0  0  0  0  0  0  0  0
   -2.7117    0.6470    0.0000 C   0  0  2  0  0  0  0  0  0  0  0  0
   -3.4331    0.2091    0.0000 C   0  0  0  0  0  0  0  0  0  0  0  0
   -4.1170    0.6470    0.0000 N   0  0  0  0  0  0  0  0  0  0  0  0
   -4.8426    0.2091    0.0000 C   0  0  0  0  0  0  0  0  0  0  0  0
   -5.5642    0.6470    0.0000 C   0  0  0  0  0  0  0  0  0  0  0  0
   -6.3023    0.2259    0.0000 C   0  0  0  0  0  0  0  0  0  0  0  0
   -7.0029    0.6470    0.0000 N   0  0  0  0  0  0  0  0  0  0  0  0
   -7.7345    0.2846    0.0000 C   0  0  0  0  0  0  0  0  0  0  0  0
   -8.4334    0.6988    0.0000 C   0  0  0  0  0  0  0  0  0  0  0  0
   -6.2689   -0.5914    0.0000 O   0  0  0  0  0  0  0  0  0  0  0  0
   -2.7117    1.4686    0.0000 O   0  0  0  0  0  0  0  0  0  0  0  0
   -3.4164   -0.5914    0.0000 O   0  0  0  0  0  0  0  0  0  0  0  0
 22 23  1  0  0  0  0
 24 25  2  0  0  0  0
  6  7  1  0  0  0  0
  2  4  2  0  0  0  0
  7  8  1  0  0  0  0
 11 14  1  0  0  0  0
 26 27  1  0  0  0  0
 27 28  2  0  0  0  0
 28 24  1  0  0  0  0
 25 26  1  0  0  0  0
 14 26  1  1  0  0  0
 14 15  1  0  0  0  0
 21 29  1  0  0  0  0
 15 16  1  0  0  0  0
 19 30  2  0  0  0  0
 16 13  1  0  0  0  0
 19 31  1  0  0  0  0
  7  9  2  0  0  0  0
  8 32  1  0  0  0  0
 16 17  1  1  0  0  0
 32 33  1  0  0  0  0
  2  5  1  0  0  0  0
 33 34  1  0  0  0  0
 17 18  1  0  0  0  0
 33 35  1  0  0  0  0
 13  5  1  6  0  0  0
 33 36  1  0  0  0  0
  7 10  1  0  0  0  0
 36 37  1  0  0  0  0
 18 19  1  0  0  0  0
 37 38  1  0  0  0  0
 19  6  1  0  0  0  0
 38 39  1  0  0  0  0
 20 25  1  0  0  0  0
 39 40  1  0  0  0  0
  2  3  1  0  0  0  0
 40 41  1  0  0  0  0
  1  2  1  0  0  0  0
 41 42  1  0  0  0  0
 11 12  1  6  0  0  0
 42 43  1  0  0  0  0
 13 11  1  0  0  0  0
 43 44  1  0  0  0  0
 20 23  2  0  0  0  0
 41 45  2  0  0  0  0
 24 21  1  0  0  0  0
 36 46  1  6  0  0  0
 21 22  2  0  0  0  0
 37 47  2  0  0  0  0
M  END
> <DATABASE_ID>
DB01829

> <DATABASE_NAME>
drugbank

> <SMILES>
CCNC(=O)CCNC(=O)[C@H](O)C(C)(C)COP(O)(=O)OP(O)(=O)OC[C@H]1O[C@H]([C@H](O)[C@@H]1OP(O)(O)=O)N1C=NC2=C1N=CN=C2N

> <INCHI_IDENTIFIER>
InChI=1S/C21H36N7O16P3/c1-4-23-12(29)5-6-24-19(32)16(31)21(2,3)8-41-47(38,39)44-46(36,37)40-7-11-15(43-45(33,34)35)14(30)20(42-11)28-10-27-13-17(22)25-9-26-18(13)28/h9-11,14-16,20,30-31H,4-8H2,1-3H3,(H,23,29)(H,24,32)(H,36,37)(H,38,39)(H2,22,25,26)(H2,33,34,35)/t11-,14-,15-,16+,20-/m1/s1

> <INCHI_KEY>
ILWZMFJBPIYQKW-IBOSZNHHSA-N

> <FORMULA>
C21H36N7O16P3

> <MOLECULAR_WEIGHT>
735.4691

> <EXACT_MASS>
735.143137675

> <JCHEM_ACCEPTOR_COUNT>
16

> <JCHEM_ATOM_COUNT>
83

> <JCHEM_AVERAGE_POLARIZABILITY>
64.45238056001654

> <JCHEM_BIOAVAILABILITY>
0

> <JCHEM_DONOR_COUNT>
9

> <JCHEM_FORMAL_CHARGE>
0

> <JCHEM_GHOSE_FILTER>
0

> <JCHEM_IUPAC>
{[(2R,3S,4R,5R)-5-(6-amino-9H-purin-9-yl)-2-({[({[(3R)-3-{[2-(ethylcarbamoyl)ethyl]carbamoyl}-3-hydroxy-2,2-dimethylpropoxy](hydroxy)phosphoryl}oxy)(hydroxy)phosphoryl]oxy}methyl)-4-hydroxyoxolan-3-yl]oxy}phosphonic acid

> <JCHEM_LOGP>
-5.954896993098402

> <JCHEM_MDDR_LIKE_RULE>
1

> <JCHEM_NUMBER_OF_RINGS>
3

> <JCHEM_PHYSIOLOGICAL_CHARGE>
-4

> <JCHEM_PKA>
0.9219272969883872

> <JCHEM_PKA_STRONGEST_ACIDIC>
0.8257565645629537

> <JCHEM_PKA_STRONGEST_BASIC>
4.887053440723844

> <JCHEM_POLAR_SURFACE_AREA>
346.55999999999995

> <JCHEM_REFRACTIVITY>
155.01390000000004

> <JCHEM_ROTATABLE_BOND_COUNT>
17

> <JCHEM_RULE_OF_FIVE>
0

> <JCHEM_TRADITIONAL_IUPAC>
(L)-canavanine

> <JCHEM_VEBER_RULE>
0

> <DRUGBANK_ID>
DB01829

> <SECONDARY_ACCESSION_NUMBERS>
EXPT01129

> <DRUG_GROUPS>
experimental

> <GENERIC_NAME>
Desulfo-coenzyme A

> <SYNONYMS>
Coenzyme A, desulfo; Desulfo-coa

$$$$
