
  Mrv1909 05212117432D          

  1  0  0  0  0  0            999 V2000
    0.0000    0.0000    0.0000 Cu  0  0  0  0  0 15  0  0  0  0  0  0
M  ISO  1   1  64
M  END
> <DATABASE_ID>
DB13980

> <DATABASE_NAME>
drugbank

> <SMILES>
[64Cu]

> <INCHI_IDENTIFIER>
InChI=1S/Cu/i1+0

> <INCHI_KEY>
RYGMFSIKBFXOCR-IGMARMGPSA-N

> <FORMULA>
Cu

> <MOLECULAR_WEIGHT>
63.9298

> <EXACT_MASS>
63.929767865

> <JCHEM_ACCEPTOR_COUNT>
0

> <JCHEM_ATOM_COUNT>
1

> <JCHEM_AVERAGE_NEUTRAL_MICROSPECIES_CHARGE>
0.0

> <JCHEM_AVERAGE_POLARIZABILITY>
1.7784

> <JCHEM_BIOAVAILABILITY>
1

> <JCHEM_DONOR_COUNT>
0

> <JCHEM_FORMAL_CHARGE>
0

> <JCHEM_GHOSE_FILTER>
0

> <JCHEM_IUPAC>
(64Cu)copper

> <ALOGPS_LOGP>
-1.31

> <JCHEM_LOGP>
0.156

> <ALOGPS_LOGS>
1.08

> <JCHEM_MDDR_LIKE_RULE>
0

> <JCHEM_NEUTRAL_CHARGE>
0

> <JCHEM_NUMBER_OF_RINGS>
0

> <JCHEM_PHYSIOLOGICAL_CHARGE>
0

> <JCHEM_POLAR_SURFACE_AREA>
0.0

> <JCHEM_REFRACTIVITY>
0.0

> <JCHEM_ROTATABLE_BOND_COUNT>
0

> <JCHEM_RULE_OF_FIVE>
1

> <ALOGPS_SOLUBILITY>
0.00e+00 g/l

> <JCHEM_TRADITIONAL_IUPAC>
zoptarelin doxorubicin

> <JCHEM_VEBER_RULE>
1

> <DRUGBANK_ID>
DB13980

> <DRUG_GROUPS>
approved

> <GENERIC_NAME>
Copper Cu-64

> <SYNONYMS>
Copper, Cu-64

> <PRODUCTS>
Cuprymina; Dermamed Nutrition for troubled skin

> <SALTS>
Cupric chloride anhydrous Cu-64

$$$$
