
  Mrv1652309121709242D          

  9  8  0  0  0  0            999 V2000
    1.9520    1.9520    0.0000 C   0  0  0  0  0  0  0  0  0  0  0  0
    1.9520    1.1270    0.0000 N   0  0  0  0  0  0  0  0  0  0  0  0
    1.2375    0.7145    0.0000 C   0  0  0  0  0  0  0  0  0  0  0  0
    0.5230    1.1270    0.0000 C   0  0  0  0  0  0  0  0  0  0  0  0
   -0.1914    0.7145    0.0000 O   0  0  0  0  0  0  0  0  0  0  0  0
    0.5230    1.9520    0.0000 O   0  0  0  0  0  0  0  0  0  0  0  0
    2.6664    0.7145    0.0000 C   0  0  0  0  0  0  0  0  0  0  0  0
    3.3809    1.1270    0.0000 N   0  0  0  0  0  0  0  0  0  0  0  0
    2.6664   -0.1105    0.0000 N   0  0  0  0  0  0  0  0  0  0  0  0
  1  2  1  0  0  0  0
  2  3  1  0  0  0  0
  3  4  1  0  0  0  0
  4  5  2  0  0  0  0
  4  6  1  0  0  0  0
  2  7  1  0  0  0  0
  7  8  2  0  0  0  0
  7  9  1  0  0  0  0
M  END
> <DATABASE_ID>
DB00148

> <DATABASE_NAME>
drugbank

> <SMILES>
CN(CC(O)=O)C(N)=N

> <INCHI_IDENTIFIER>
InChI=1S/C4H9N3O2/c1-7(4(5)6)2-3(8)9/h2H2,1H3,(H3,5,6)(H,8,9)

> <INCHI_KEY>
CVSVTCORWBXHQV-UHFFFAOYSA-N

> <FORMULA>
C4H9N3O2

> <MOLECULAR_WEIGHT>
131.1332

> <EXACT_MASS>
131.069476547

> <JCHEM_ACCEPTOR_COUNT>
5

> <JCHEM_ATOM_COUNT>
18

> <JCHEM_AVERAGE_POLARIZABILITY>
12.170880209535248

> <JCHEM_BIOAVAILABILITY>
1

> <JCHEM_DONOR_COUNT>
3

> <JCHEM_FORMAL_CHARGE>
0

> <JCHEM_GHOSE_FILTER>
0

> <JCHEM_IUPAC>
2-(N-methylcarbamimidamido)acetic acid

> <ALOGPS_LOGP>
-1.59

> <JCHEM_LOGP>
-2.8642238844128185

> <ALOGPS_LOGS>
-1.50

> <JCHEM_MDDR_LIKE_RULE>
0

> <JCHEM_NUMBER_OF_RINGS>
0

> <JCHEM_PHYSIOLOGICAL_CHARGE>
0

> <JCHEM_PKA_STRONGEST_ACIDIC>
3.501029063602651

> <JCHEM_PKA_STRONGEST_BASIC>
12.429771248504041

> <JCHEM_POLAR_SURFACE_AREA>
90.41

> <JCHEM_REFRACTIVITY>
42.0127

> <JCHEM_ROTATABLE_BOND_COUNT>
2

> <JCHEM_RULE_OF_FIVE>
1

> <ALOGPS_SOLUBILITY>
4.11e+00 g/l

> <JCHEM_TRADITIONAL_IUPAC>
creatine

> <JCHEM_VEBER_RULE>
0

> <DRUGBANK_ID>
DB00148

> <SECONDARY_ACCESSION_NUMBERS>
NUTR00022

> <DRUG_GROUPS>
approved; investigational; nutraceutical

> <GENERIC_NAME>
Creatine

> <SYNONYMS>
((amino(Imino)methyl)(methyl)amino)acetic acid; (alpha-Methylguanido)acetic acid; (N-methylcarbamimidamido)acetic acid; (Î±-methylguanido)acetic acid; alpha-Methylguanidino acetic acid; Creatin; Creatine; Kreatin; Methylglycocyamine; N-(aminoiminomethyl)-N-methylglycine; N-amidinosarcosine; N-carbamimidoyl-N-methylglycine; N-methyl-N-guanylglycine

> <PRODUCTS>
Ginsamin Energy

$$$$
