
  Mrv1652310211600402D          

 30 33  0  0  1  0            999 V2000
    4.7079    1.2375    0.0000 C   0  0  0  0  0  0  0  0  0  0  0  0
    4.7079    2.0625    0.0000 C   0  0  0  0  0  0  0  0  0  0  0  0
    3.9934    2.4750    0.0000 C   0  0  1  0  0  0  0  0  0  0  0  0
    3.9934    3.3000    0.0000 C   0  0  0  0  0  0  0  0  0  0  0  0
    3.3260    3.7849    0.0000 N   0  0  0  0  0  0  0  0  0  0  0  0
    3.5809    4.5695    0.0000 C   0  0  0  0  0  0  0  0  0  0  0  0
    4.4059    4.5695    0.0000 N   0  0  0  0  0  0  0  0  0  0  0  0
    4.6608    3.7849    0.0000 O   0  0  0  0  0  0  0  0  0  0  0  0
    3.0960    5.2370    0.0000 C   0  0  0  0  0  0  0  0  0  0  0  0
    3.2789    2.0625    0.0000 N   0  0  0  0  0  0  0  0  0  0  0  0
    3.2789    1.2375    0.0000 C   0  0  0  0  0  0  0  0  0  0  0  0
    3.9934    0.8250    0.0000 C   0  0  0  0  0  0  0  0  0  0  0  0
    3.9934    0.0000    0.0000 C   0  0  0  0  0  0  0  0  0  0  0  0
    3.2789   -0.4125    0.0000 N   0  0  0  0  0  0  0  0  0  0  0  0
    2.5645    0.0000    0.0000 C   0  0  0  0  0  0  0  0  0  0  0  0
    2.5645    0.8250    0.0000 N   0  0  0  0  0  0  0  0  0  0  0  0
    1.7798    1.0799    0.0000 N   0  0  0  0  0  0  0  0  0  0  0  0
    1.2949    0.4125    0.0000 C   0  0  0  0  0  0  0  0  0  0  0  0
    1.7798   -0.2549    0.0000 C   0  0  0  0  0  0  0  0  0  0  0  0
    1.5249   -1.0396    0.0000 C   0  0  0  0  0  0  0  0  0  0  0  0
    2.0769   -1.6527    0.0000 C   0  0  0  0  0  0  0  0  0  0  0  0
    1.8220   -2.4373    0.0000 C   0  0  0  0  0  0  0  0  0  0  0  0
    1.0150   -2.6088    0.0000 C   0  0  0  0  0  0  0  0  0  0  0  0
    0.4630   -1.9957    0.0000 C   0  0  0  0  0  0  0  0  0  0  0  0
    0.7179   -1.2111    0.0000 C   0  0  0  0  0  0  0  0  0  0  0  0
    0.1659   -0.5980    0.0000 C   0  0  0  0  0  0  0  0  0  0  0  0
    0.7601   -3.3934    0.0000 O   0  0  0  0  0  0  0  0  0  0  0  0
    1.3121   -4.0065    0.0000 C   0  0  0  0  0  0  0  0  0  0  0  0
    0.4699    0.4125    0.0000 C   0  0  0  0  0  0  0  0  0  0  0  0
    4.7079   -0.4125    0.0000 C   0  0  0  0  0  0  0  0  0  0  0  0
  1  2  1  0  0  0  0
  2  3  1  0  0  0  0
  3  4  1  0  0  0  0
  4  5  2  0  0  0  0
  5  6  1  0  0  0  0
  6  7  2  0  0  0  0
  7  8  1  0  0  0  0
  4  8  1  0  0  0  0
  6  9  1  0  0  0  0
  3 10  1  6  0  0  0
 10 11  1  0  0  0  0
 11 12  2  0  0  0  0
 12 13  1  0  0  0  0
 13 14  2  0  0  0  0
 14 15  1  0  0  0  0
 15 16  1  0  0  0  0
 11 16  1  0  0  0  0
 16 17  1  0  0  0  0
 17 18  2  0  0  0  0
 18 19  1  0  0  0  0
 15 19  2  0  0  0  0
 19 20  1  0  0  0  0
 20 21  2  0  0  0  0
 21 22  1  0  0  0  0
 22 23  2  0  0  0  0
 23 24  1  0  0  0  0
 24 25  2  0  0  0  0
 20 25  1  0  0  0  0
 25 26  1  0  0  0  0
 23 27  1  0  0  0  0
 27 28  1  0  0  0  0
 18 29  1  0  0  0  0
 13 30  1  0  0  0  0
M  END
> <DATABASE_ID>
DB12512

> <DATABASE_NAME>
drugbank

> <SMILES>
CC[C@H](NC1=CC(C)=NC2=C(C(C)=NN12)C1=CC=C(OC)C=C1C)C1=NC(C)=NO1

> <INCHI_IDENTIFIER>
InChI=1S/C22H26N6O2/c1-7-18(22-24-15(5)27-30-22)25-19-11-13(3)23-21-20(14(4)26-28(19)21)17-9-8-16(29-6)10-12(17)2/h8-11,18,25H,7H2,1-6H3/t18-/m0/s1

> <INCHI_KEY>
VKHVAUKFLBBZFJ-SFHVURJKSA-N

> <FORMULA>
C22H26N6O2

> <MOLECULAR_WEIGHT>
406.49

> <EXACT_MASS>
406.211724101

> <JCHEM_ACCEPTOR_COUNT>
6

> <JCHEM_ATOM_COUNT>
56

> <JCHEM_AVERAGE_POLARIZABILITY>
45.29409005345188

> <JCHEM_BIOAVAILABILITY>
1

> <JCHEM_DONOR_COUNT>
1

> <JCHEM_FORMAL_CHARGE>
0

> <JCHEM_GHOSE_FILTER>
1

> <JCHEM_IUPAC>
3-(4-methoxy-2-methylphenyl)-2,5-dimethyl-N-[(1S)-1-(3-methyl-1,2,4-oxadiazol-5-yl)propyl]pyrazolo[1,5-a]pyrimidin-7-amine

> <ALOGPS_LOGP>
5.05

> <JCHEM_LOGP>
3.8808266096666664

> <ALOGPS_LOGS>
-3.82

> <JCHEM_MDDR_LIKE_RULE>
0

> <JCHEM_NUMBER_OF_RINGS>
4

> <JCHEM_PHYSIOLOGICAL_CHARGE>
0

> <JCHEM_PKA_STRONGEST_BASIC>
2.837798825836967

> <JCHEM_POLAR_SURFACE_AREA>
90.37

> <JCHEM_REFRACTIVITY>
127.2423

> <JCHEM_ROTATABLE_BOND_COUNT>
5

> <JCHEM_RULE_OF_FIVE>
1

> <ALOGPS_SOLUBILITY>
6.14e-02 g/l

> <JCHEM_TRADITIONAL_IUPAC>
3-(4-methoxy-2-methylphenyl)-2,5-dimethyl-N-[(1S)-1-(3-methyl-1,2,4-oxadiazol-5-yl)propyl]pyrazolo[1,5-a]pyrimidin-7-amine

> <JCHEM_VEBER_RULE>
0

> <DRUGBANK_ID>
DB12512

> <DRUG_GROUPS>
investigational

> <GENERIC_NAME>
Verucerfont

> <SYNONYMS>
Verucerfont

$$$$
