
  Mrv1909 12031923232D          

 27 29  0  0  0  0            999 V2000
   -0.9071   -0.4910    0.0000 C   0  0  0  0  0  0  0  0  0  0  0  0
   -0.1927   -0.9036    0.0000 O   0  0  0  0  0  0  0  0  0  0  0  0
   -1.6216   -0.9036    0.0000 C   0  0  0  0  0  0  0  0  0  0  0  0
   -1.6216   -1.7286    0.0000 N   0  0  0  0  0  0  0  0  0  0  0  0
   -2.3361   -2.1410    0.0000 C   0  0  0  0  0  0  0  0  0  0  0  0
   -0.9071   -2.1410    0.0000 C   0  0  0  0  0  0  0  0  0  0  0  0
    0.0196    1.4961    0.0000 C   0  0  0  0  0  0  0  0  0  0  0  0
   -0.1638    0.6918    0.0000 C   0  0  0  0  0  0  0  0  0  0  0  0
    0.4408    0.1306    0.0000 C   0  0  0  0  0  0  0  0  0  0  0  0
    1.2292    0.3738    0.0000 C   0  0  0  0  0  0  0  0  0  0  0  0
    1.4127    1.1781    0.0000 C   0  0  0  0  0  0  0  0  0  0  0  0
    0.8080    1.7393    0.0000 C   0  0  0  0  0  0  0  0  0  0  0  0
   -3.2271    1.1781    0.0000 C   0  0  0  0  0  0  0  0  0  0  0  0
   -3.0436    0.3738    0.0000 C   0  0  0  0  0  0  0  0  0  0  0  0
   -2.2552    0.1306    0.0000 C   0  0  0  0  0  0  0  0  0  0  0  0
   -1.6458    0.7119    0.0000 C   0  0  0  0  0  0  0  0  0  0  0  0
   -1.8294    1.5163    0.0000 C   0  0  0  0  0  0  0  0  0  0  0  0
   -2.6224    1.7393    0.0000 C   0  0  0  0  0  0  0  0  0  0  0  0
   -1.3196    2.1410    0.0000 C   0  0  0  0  0  0  0  0  0  0  0  0
   -0.9071    0.3339    0.0000 N   0  0  0  0  0  0  0  0  0  0  0  0
   -0.4946    2.1410    0.0000 C   0  0  0  0  0  0  0  0  0  0  0  0
    1.8339   -0.1872    0.0000 N   0  0  0  0  0  0  0  0  0  0  0  0
    1.6504   -0.9916    0.0000 C   0  0  0  0  0  0  0  0  0  0  0  0
    0.8620   -1.2348    0.0000 O   0  0  0  0  0  0  0  0  0  0  0  0
    2.2551   -1.5528    0.0000 O   0  0  0  0  0  0  0  0  0  0  0  0
    3.0435   -1.3096    0.0000 C   0  0  0  0  0  0  0  0  0  0  0  0
    3.2271   -0.5053    0.0000 C   0  0  0  0  0  0  0  0  0  0  0  0
  4  5  1  0  0  0  0
  1  3  1  0  0  0  0
  4  6  1  0  0  0  0
  3  4  1  0  0  0  0
  1  2  2  0  0  0  0
  7  8  2  0  0  0  0
 16 20  1  0  0  0  0
 20  8  1  0  0  0  0
  9 10  2  0  0  0  0
  7 21  1  0  0  0  0
 19 21  1  0  0  0  0
 13 14  2  0  0  0  0
 14 15  1  0  0  0  0
 10 11  1  0  0  0  0
 15 16  2  0  0  0  0
  8  9  1  0  0  0  0
 16 17  1  0  0  0  0
 10 22  1  0  0  0  0
 11 12  2  0  0  0  0
 22 23  1  0  0  0  0
 17 18  2  0  0  0  0
 23 24  2  0  0  0  0
 18 13  1  0  0  0  0
 23 25  1  0  0  0  0
 12  7  1  0  0  0  0
 25 26  1  0  0  0  0
 17 19  1  0  0  0  0
 26 27  1  0  0  0  0
 20  1  1  0  0  0  0
M  END
> <DATABASE_ID>
DB13635

> <DATABASE_NAME>
drugbank

> <SMILES>
CCOC(=O)NC1=CC2=C(CCC3=CC=CC=C3N2C(=O)CN(C)C)C=C1

> <INCHI_IDENTIFIER>
InChI=1S/C21H25N3O3/c1-4-27-21(26)22-17-12-11-16-10-9-15-7-5-6-8-18(15)24(19(16)13-17)20(25)14-23(2)3/h5-8,11-13H,4,9-10,14H2,1-3H3,(H,22,26)

> <INCHI_KEY>
KJAMZCVTJDTESW-UHFFFAOYSA-N

> <FORMULA>
C21H25N3O3

> <MOLECULAR_WEIGHT>
367.449

> <EXACT_MASS>
367.189591677

> <JCHEM_ACCEPTOR_COUNT>
4

> <JCHEM_ATOM_COUNT>
52

> <JCHEM_AVERAGE_POLARIZABILITY>
40.25641848554304

> <JCHEM_BIOAVAILABILITY>
1

> <JCHEM_DONOR_COUNT>
1

> <JCHEM_FORMAL_CHARGE>
0

> <JCHEM_GHOSE_FILTER>
1

> <JCHEM_IUPAC>
ethyl N-{2-[2-(dimethylamino)acetyl]-2-azatricyclo[9.4.0.0^{3,8}]pentadeca-1(15),3(8),4,6,11,13-hexaen-5-yl}carbamate

> <ALOGPS_LOGP>
2.76

> <JCHEM_LOGP>
3.4014055230000007

> <ALOGPS_LOGS>
-3.87

> <JCHEM_MDDR_LIKE_RULE>
0

> <JCHEM_NUMBER_OF_RINGS>
3

> <JCHEM_PHYSIOLOGICAL_CHARGE>
1

> <JCHEM_PKA>
16.26044529425288

> <JCHEM_PKA_STRONGEST_ACIDIC>
13.053763625605432

> <JCHEM_PKA_STRONGEST_BASIC>
7.113477990739608

> <JCHEM_POLAR_SURFACE_AREA>
61.88000000000001

> <JCHEM_REFRACTIVITY>
106.75890000000001

> <JCHEM_ROTATABLE_BOND_COUNT>
5

> <JCHEM_RULE_OF_FIVE>
1

> <ALOGPS_SOLUBILITY>
5.01e-02 g/l

> <JCHEM_TRADITIONAL_IUPAC>
(2S)-2-amino-4-[(2-ethanimidamidoethyl)sulfanyl]butanoic acid

> <JCHEM_VEBER_RULE>
0

> <DRUGBANK_ID>
DB13635

> <DRUG_GROUPS>
experimental

> <GENERIC_NAME>
Tiracizine

> <SYNONYMS>
Tiracizina; Tiracizine; Tiracizinum

$$$$
