
  Mrv1572004221605002D          

 11 12  0  0  0  0            999 V2000
    3.9934    0.8250    0.0000 C   0  0  0  0  0  0  0  0  0  0  0  0
    3.2789    1.2375    0.0000 C   0  0  0  0  0  0  0  0  0  0  0  0
    3.2789   -0.4125    0.0000 C   0  0  0  0  0  0  0  0  0  0  0  0
    3.9934    0.0000    0.0000 C   0  0  0  0  0  0  0  0  0  0  0  0
    2.5645    0.0000    0.0000 C   0  0  0  0  0  0  0  0  0  0  0  0
    2.5645    0.8250    0.0000 C   0  0  0  0  0  0  0  0  0  0  0  0
    1.2949    0.4125    0.0000 C   0  0  0  0  0  0  0  0  0  0  0  0
    4.7079   -0.4125    0.0000 O   0  0  0  0  0  0  0  0  0  0  0  0
    0.4699    0.4125    0.0000 O   0  0  0  0  0  0  0  0  0  0  0  0
    1.7798   -0.2549    0.0000 O   0  0  0  0  0  0  0  0  0  0  0  0
    1.7798    1.0799    0.0000 S   0  0  0  0  0  0  0  0  0  0  0  0
  2  1  2  0  0  0  0
  4  1  1  0  0  0  0
  4  3  2  0  0  0  0
  5  3  1  0  0  0  0
  6  2  1  0  0  0  0
  6  5  2  0  0  0  0
  8  4  1  0  0  0  0
  9  7  2  0  0  0  0
 10  5  1  0  0  0  0
 10  7  1  0  0  0  0
 11  6  1  0  0  0  0
 11  7  1  0  0  0  0
M  END
> <DATABASE_ID>
DB13343

> <DATABASE_NAME>
drugbank

> <SMILES>
OC1=CC2=C(SC(=O)O2)C=C1

> <INCHI_IDENTIFIER>
InChI=1S/C7H4O3S/c8-4-1-2-6-5(3-4)10-7(9)11-6/h1-3,8H

> <INCHI_KEY>
SLYPOVJCSQHITR-UHFFFAOYSA-N

> <FORMULA>
C7H4O3S

> <MOLECULAR_WEIGHT>
168.17

> <EXACT_MASS>
167.988115163

> <JCHEM_ACCEPTOR_COUNT>
3

> <JCHEM_ATOM_COUNT>
15

> <JCHEM_AVERAGE_POLARIZABILITY>
15.040453343645986

> <JCHEM_BIOAVAILABILITY>
1

> <JCHEM_DONOR_COUNT>
1

> <JCHEM_FORMAL_CHARGE>
0

> <JCHEM_GHOSE_FILTER>
0

> <JCHEM_IUPAC>
6-hydroxy-2H-1,3-benzoxathiol-2-one

> <ALOGPS_LOGP>
1.97

> <JCHEM_LOGP>
2.0554997483333333

> <ALOGPS_LOGS>
-1.66

> <JCHEM_MDDR_LIKE_RULE>
0

> <JCHEM_NUMBER_OF_RINGS>
2

> <JCHEM_PHYSIOLOGICAL_CHARGE>
0

> <JCHEM_PKA_STRONGEST_ACIDIC>
7.349653395618861

> <JCHEM_PKA_STRONGEST_BASIC>
-5.802385701010563

> <JCHEM_POLAR_SURFACE_AREA>
46.53

> <JCHEM_REFRACTIVITY>
40.9578

> <JCHEM_ROTATABLE_BOND_COUNT>
0

> <JCHEM_RULE_OF_FIVE>
1

> <ALOGPS_SOLUBILITY>
3.71e+00 g/l

> <JCHEM_TRADITIONAL_IUPAC>
tioxolone

> <JCHEM_VEBER_RULE>
0

> <DRUGBANK_ID>
DB13343

> <DRUG_GROUPS>
experimental

> <GENERIC_NAME>
Tioxolone

> <SYNONYMS>
tioxolona; Tioxolone

$$$$
