
  Mrv1652310201623212D          

 12 11  0  0  1  0            999 V2000
    2.9980    2.5559    0.0000 C   0  0  0  0  0  0  0  0  0  0  0  0
    3.7125    2.1434    0.0000 C   0  0  0  0  0  0  0  0  0  0  0  0
    4.4270    2.5559    0.0000 C   0  0  0  0  0  0  0  0  0  0  0  0
    5.1414    2.1434    0.0000 C   0  0  1  0  0  0  0  0  0  0  0  0
    5.1414    1.3184    0.0000 C   0  0  0  0  0  0  0  0  0  0  0  0
    5.8559    2.5559    0.0000 C   0  0  0  0  0  0  0  0  0  0  0  0
    6.5704    2.1434    0.0000 C   0  0  1  0  0  0  0  0  0  0  0  0
    7.2849    2.5559    0.0000 C   0  0  0  0  0  0  0  0  0  0  0  0
    7.9993    2.1434    0.0000 C   0  0  0  0  0  0  0  0  0  0  0  0
    8.7138    2.5559    0.0000 O   0  0  0  0  0  0  0  0  0  0  0  0
    7.9993    1.3184    0.0000 O   0  0  0  0  0  0  0  0  0  0  0  0
    6.5704    1.3184    0.0000 N   0  0  0  0  0  0  0  0  0  0  0  0
  1  2  1  0  0  0  0
  2  3  1  0  0  0  0
  3  4  1  0  0  0  0
  4  5  1  6  0  0  0
  4  6  1  0  0  0  0
  6  7  1  0  0  0  0
  7  8  1  0  0  0  0
  8  9  1  0  0  0  0
  9 10  2  0  0  0  0
  9 11  1  0  0  0  0
  7 12  1  1  0  0  0
M  END
> <DATABASE_ID>
DB12105

> <DATABASE_NAME>
drugbank

> <SMILES>
CCC[C@@H](C)C[C@H](N)CC(O)=O

> <INCHI_IDENTIFIER>
InChI=1S/C9H19NO2/c1-3-4-7(2)5-8(10)6-9(11)12/h7-8H,3-6,10H2,1-2H3,(H,11,12)/t7-,8+/m1/s1

> <INCHI_KEY>
JXEHXYFSIOYTAH-SFYZADRCSA-N

> <FORMULA>
C9H19NO2

> <MOLECULAR_WEIGHT>
173.256

> <EXACT_MASS>
173.141578856

> <JCHEM_ACCEPTOR_COUNT>
3

> <JCHEM_ATOM_COUNT>
31

> <JCHEM_AVERAGE_POLARIZABILITY>
20.094274030723298

> <JCHEM_BIOAVAILABILITY>
1

> <JCHEM_DONOR_COUNT>
2

> <JCHEM_FORMAL_CHARGE>
0

> <JCHEM_GHOSE_FILTER>
0

> <JCHEM_IUPAC>
(3S,5R)-3-amino-5-methyloctanoic acid

> <ALOGPS_LOGP>
-0.48

> <JCHEM_LOGP>
-0.6143677881674209

> <ALOGPS_LOGS>
-1.76

> <JCHEM_MDDR_LIKE_RULE>
0

> <JCHEM_NUMBER_OF_RINGS>
0

> <JCHEM_PHYSIOLOGICAL_CHARGE>
0

> <JCHEM_PKA_STRONGEST_ACIDIC>
4.532651150816136

> <JCHEM_PKA_STRONGEST_BASIC>
10.540956180325091

> <JCHEM_POLAR_SURFACE_AREA>
63.31999999999999

> <JCHEM_REFRACTIVITY>
47.99720000000001

> <JCHEM_ROTATABLE_BOND_COUNT>
6

> <JCHEM_RULE_OF_FIVE>
1

> <ALOGPS_SOLUBILITY>
3.01e+00 g/l

> <JCHEM_TRADITIONAL_IUPAC>
(3S,5R)-3-amino-5-methyloctanoic acid

> <JCHEM_VEBER_RULE>
0

> <DRUGBANK_ID>
DB12105

> <DRUG_GROUPS>
investigational

> <GENERIC_NAME>
Imagabalin

> <SYNONYMS>
Imagabalin

> <SALTS>
Imagabalin Hydrochloride

$$$$
