
  Mrv1718001051815272D          

 22 22  0  0  0  0            999 V2000
    1.4289    6.6000    0.0000 C   0  0  0  0  0  0  0  0  0  0  0  0
    1.4289    5.7750    0.0000 C   0  0  0  0  0  0  0  0  0  0  0  0
    1.4289    4.9500    0.0000 C   0  0  0  0  0  0  0  0  0  0  0  0
    0.7145    4.5375    0.0000 C   0  0  0  0  0  0  0  0  0  0  0  0
    0.7145    3.7125    0.0000 C   0  0  0  0  0  0  0  0  0  0  0  0
    0.0000    3.3000    0.0000 C   0  0  0  0  0  0  0  0  0  0  0  0
   -0.7145    3.7125    0.0000 C   0  0  0  0  0  0  0  0  0  0  0  0
   -1.4289    4.1250    0.0000 N   0  0  0  0  0  0  0  0  0  0  0  0
    0.0000    2.4750    0.0000 C   0  0  0  0  0  0  0  0  0  0  0  0
   -0.7145    2.0625    0.0000 O   0  0  0  0  0  0  0  0  0  0  0  0
    0.7145    2.0625    0.0000 N   0  0  0  0  0  0  0  0  0  0  0  0
    0.7145    1.2375    0.0000 C   0  0  0  0  0  0  0  0  0  0  0  0
    1.4289    0.8250    0.0000 C   0  0  0  0  0  0  0  0  0  0  0  0
    1.4289   -0.0000    0.0000 C   0  0  0  0  0  0  0  0  0  0  0  0
    0.7145   -0.4125    0.0000 C   0  0  0  0  0  0  0  0  0  0  0  0
    0.0000    0.0000    0.0000 C   0  0  0  0  0  0  0  0  0  0  0  0
    0.0000    0.8250    0.0000 C   0  0  0  0  0  0  0  0  0  0  0  0
    0.7145   -1.2375    0.0000 C   0  0  0  0  0  0  0  0  0  0  0  0
    0.7145   -2.0625    0.0000 F   0  0  0  0  0  0  0  0  0  0  0  0
   -0.1105   -1.2375    0.0000 F   0  0  0  0  0  0  0  0  0  0  0  0
    1.5395   -1.2375    0.0000 F   0  0  0  0  0  0  0  0  0  0  0  0
    1.4289    3.3000    0.0000 O   0  0  0  0  0  0  0  0  0  0  0  0
  1  2  3  0  0  0  0
  2  3  1  0  0  0  0
  3  4  1  0  0  0  0
  4  5  1  0  0  0  0
  5  6  2  0  0  0  0
  6  7  1  0  0  0  0
  7  8  3  0  0  0  0
  6  9  1  0  0  0  0
  9 10  2  0  0  0  0
  9 11  1  0  0  0  0
 11 12  1  0  0  0  0
 12 13  2  0  0  0  0
 13 14  1  0  0  0  0
 14 15  2  0  0  0  0
 15 16  1  0  0  0  0
 16 17  2  0  0  0  0
 12 17  1  0  0  0  0
 15 18  1  0  0  0  0
 18 19  1  0  0  0  0
 18 20  1  0  0  0  0
 18 21  1  0  0  0  0
  5 22  1  0  0  0  0
M  END
> <DATABASE_ID>
DB06481

> <DATABASE_NAME>
drugbank

> <SMILES>
O\C(CCC#C)=C(\C#N)C(=O)NC1=CC=C(C=C1)C(F)(F)F

> <INCHI_IDENTIFIER>
InChI=1S/C15H11F3N2O2/c1-2-3-4-13(21)12(9-19)14(22)20-11-7-5-10(6-8-11)15(16,17)18/h1,5-8,21H,3-4H2,(H,20,22)/b13-12-

> <INCHI_KEY>
IRELROQHIPLASX-SEYXRHQNSA-N

> <FORMULA>
C15H11F3N2O2

> <MOLECULAR_WEIGHT>
308.26

> <EXACT_MASS>
308.077262091

> <JCHEM_ACCEPTOR_COUNT>
3

> <JCHEM_ATOM_COUNT>
33

> <JCHEM_AVERAGE_POLARIZABILITY>
27.877691849464217

> <JCHEM_BIOAVAILABILITY>
1

> <JCHEM_DONOR_COUNT>
2

> <JCHEM_FORMAL_CHARGE>
0

> <JCHEM_GHOSE_FILTER>
1

> <JCHEM_IUPAC>
(2Z)-2-cyano-3-hydroxy-N-[4-(trifluoromethyl)phenyl]hept-2-en-6-ynamide

> <ALOGPS_LOGP>
2.54

> <JCHEM_LOGP>
2.743388160666666

> <ALOGPS_LOGS>
-4.41

> <JCHEM_MDDR_LIKE_RULE>
0

> <JCHEM_NUMBER_OF_RINGS>
1

> <JCHEM_PHYSIOLOGICAL_CHARGE>
-1

> <JCHEM_PKA>
13.073247213981126

> <JCHEM_PKA_STRONGEST_ACIDIC>
5.218272728187149

> <JCHEM_PKA_STRONGEST_BASIC>
-2.924054995909913

> <JCHEM_POLAR_SURFACE_AREA>
73.12

> <JCHEM_REFRACTIVITY>
76.58040000000003

> <JCHEM_ROTATABLE_BOND_COUNT>
5

> <JCHEM_RULE_OF_FIVE>
1

> <ALOGPS_SOLUBILITY>
1.20e-02 g/l

> <JCHEM_TRADITIONAL_IUPAC>
(2Z)-2-cyano-3-hydroxy-N-[4-(trifluoromethyl)phenyl]hept-2-en-6-ynamide

> <JCHEM_VEBER_RULE>
0

> <DRUGBANK_ID>
DB06481

> <DRUG_GROUPS>
investigational

> <GENERIC_NAME>
Manitimus

> <SYNONYMS>
Manitimus

$$$$
