
  Mrv1909 05201915272D          

 37 42  0  0  1  0            999 V2000
    5.6566    3.3362    0.0000 O   0  0  0  0  0  0  0  0  0  0  0  0
    6.3711    2.9237    0.0000 C   0  0  0  0  0  0  0  0  0  0  0  0
    7.0856    3.3362    0.0000 O   0  0  0  0  0  0  0  0  0  0  0  0
    6.3711    2.0987    0.0000 C   0  0  0  0  0  0  0  0  0  0  0  0
    7.0856    1.6862    0.0000 C   0  0  0  0  0  0  0  0  0  0  0  0
    7.0856    0.8612    0.0000 C   0  0  0  0  0  0  0  0  0  0  0  0
    6.3711    0.4487    0.0000 C   0  0  0  0  0  0  0  0  0  0  0  0
    5.6566    0.8612    0.0000 C   0  0  0  0  0  0  0  0  0  0  0  0
    5.6566    1.6862    0.0000 C   0  0  0  0  0  0  0  0  0  0  0  0
    6.3711   -0.3763    0.0000 C   0  0  1  0  0  0  0  0  0  0  0  0
    6.7836   -1.0907    0.0000 C   0  0  0  0  0  0  0  0  0  0  0  0
    5.9586   -1.0907    0.0000 C   0  0  2  0  0  0  0  0  0  0  0  0
    5.2441   -1.5032    0.0000 C   0  0  0  0  0  0  0  0  0  0  0  0
    5.2441   -2.3282    0.0000 C   0  0  0  0  0  0  0  0  0  0  0  0
    5.9586   -2.7407    0.0000 Cl  0  0  0  0  0  0  0  0  0  0  0  0
    4.5297   -2.7407    0.0000 C   0  0  0  0  0  0  0  0  0  0  0  0
    3.8152   -2.3282    0.0000 C   0  0  0  0  0  0  0  0  0  0  0  0
    3.1007   -2.7407    0.0000 O   0  0  0  0  0  0  0  0  0  0  0  0
    2.3863   -2.3282    0.0000 C   0  0  0  0  0  0  0  0  0  0  0  0
    1.6718   -2.7407    0.0000 C   0  0  0  0  0  0  0  0  0  0  0  0
    1.5856   -3.5612    0.0000 C   0  0  0  0  0  0  0  0  0  0  0  0
    0.7786   -3.7327    0.0000 O   0  0  0  0  0  0  0  0  0  0  0  0
    0.3661   -3.0183    0.0000 N   0  0  0  0  0  0  0  0  0  0  0  0
    0.9181   -2.4052    0.0000 C   0  0  0  0  0  0  0  0  0  0  0  0
    0.7466   -1.5982    0.0000 C   0  0  0  0  0  0  0  0  0  0  0  0
   -0.0380   -1.3433    0.0000 C   0  0  0  0  0  0  0  0  0  0  0  0
   -0.6511   -1.8953    0.0000 Cl  0  0  0  0  0  0  0  0  0  0  0  0
   -0.2096   -0.5363    0.0000 C   0  0  0  0  0  0  0  0  0  0  0  0
    0.4035    0.0157    0.0000 C   0  0  0  0  0  0  0  0  0  0  0  0
    1.1882   -0.2392    0.0000 C   0  0  0  0  0  0  0  0  0  0  0  0
    1.3597   -1.0462    0.0000 C   0  0  0  0  0  0  0  0  0  0  0  0
    2.1443   -1.3011    0.0000 Cl  0  0  0  0  0  0  0  0  0  0  0  0
    2.1986   -4.1132    0.0000 C   0  0  0  0  0  0  0  0  0  0  0  0
    3.0056   -4.2848    0.0000 C   0  0  0  0  0  0  0  0  0  0  0  0
    2.4536   -4.8979    0.0000 C   0  0  0  0  0  0  0  0  0  0  0  0
    3.8152   -1.5032    0.0000 C   0  0  0  0  0  0  0  0  0  0  0  0
    4.5297   -1.0907    0.0000 C   0  0  0  0  0  0  0  0  0  0  0  0
  1  2  1  0  0  0  0
  2  3  2  0  0  0  0
  2  4  1  0  0  0  0
  4  5  2  0  0  0  0
  5  6  1  0  0  0  0
  6  7  2  0  0  0  0
  7  8  1  0  0  0  0
  8  9  2  0  0  0  0
  4  9  1  0  0  0  0
 10  7  1  1  0  0  0
 10 11  1  0  0  0  0
 12 11  1  0  0  0  0
 10 12  1  0  0  0  0
 12 13  1  6  0  0  0
 13 14  2  0  0  0  0
 14 15  1  0  0  0  0
 14 16  1  0  0  0  0
 16 17  2  0  0  0  0
 17 18  1  0  0  0  0
 18 19  1  0  0  0  0
 19 20  1  0  0  0  0
 20 21  2  0  0  0  0
 21 22  1  0  0  0  0
 22 23  1  0  0  0  0
 23 24  2  0  0  0  0
 20 24  1  0  0  0  0
 24 25  1  0  0  0  0
 25 26  2  0  0  0  0
 26 27  1  0  0  0  0
 26 28  1  0  0  0  0
 28 29  2  0  0  0  0
 29 30  1  0  0  0  0
 30 31  2  0  0  0  0
 25 31  1  0  0  0  0
 31 32  1  0  0  0  0
 21 33  1  0  0  0  0
 33 34  1  0  0  0  0
 34 35  1  0  0  0  0
 33 35  1  0  0  0  0
 17 36  1  0  0  0  0
 36 37  2  0  0  0  0
 13 37  1  0  0  0  0
M  END
> <DATABASE_ID>
DB15416

> <DATABASE_NAME>
drugbank

> <SMILES>
OC(=O)C1=CC=C(C=C1)[C@H]1C[C@@H]1C1=C(Cl)C=C(OCC2=C(ON=C2C2=C(Cl)C=CC=C2Cl)C2CC2)C=C1

> <INCHI_IDENTIFIER>
InChI=1S/C29H22Cl3NO4/c30-23-2-1-3-24(31)26(23)27-22(28(37-33-27)16-6-7-16)14-36-18-10-11-19(25(32)12-18)21-13-20(21)15-4-8-17(9-5-15)29(34)35/h1-5,8-12,16,20-21H,6-7,13-14H2,(H,34,35)/t20-,21-/m1/s1

> <INCHI_KEY>
XBUXXJUEBFDQHD-NHCUHLMSSA-N

> <FORMULA>
C29H22Cl3NO4

> <MOLECULAR_WEIGHT>
554.85

> <EXACT_MASS>
553.0614413

> <JCHEM_ACCEPTOR_COUNT>
4

> <JCHEM_ATOM_COUNT>
59

> <JCHEM_AVERAGE_POLARIZABILITY>
55.84744945539931

> <JCHEM_BIOAVAILABILITY>
0

> <JCHEM_DONOR_COUNT>
1

> <JCHEM_FORMAL_CHARGE>
0

> <JCHEM_GHOSE_FILTER>
0

> <JCHEM_IUPAC>
4-[(1S,2S)-2-(2-chloro-4-{[5-cyclopropyl-3-(2,6-dichlorophenyl)-1,2-oxazol-4-yl]methoxy}phenyl)cyclopropyl]benzoic acid

> <ALOGPS_LOGP>
7.32

> <JCHEM_LOGP>
8.232822650666668

> <ALOGPS_LOGS>
-5.35

> <JCHEM_MDDR_LIKE_RULE>
1

> <JCHEM_NUMBER_OF_RINGS>
6

> <JCHEM_PHYSIOLOGICAL_CHARGE>
-1

> <JCHEM_PKA_STRONGEST_ACIDIC>
4.20870426682532

> <JCHEM_PKA_STRONGEST_BASIC>
-0.36406783521702174

> <JCHEM_POLAR_SURFACE_AREA>
72.56

> <JCHEM_REFRACTIVITY>
144.38589999999996

> <JCHEM_ROTATABLE_BOND_COUNT>
7

> <JCHEM_RULE_OF_FIVE>
0

> <ALOGPS_SOLUBILITY>
2.51e-03 g/l

> <JCHEM_TRADITIONAL_IUPAC>
(2R)-14-fluoro-2-methyl-6,9,10,19-tetraazapentacyclo[14.2.1.0^{2,6}.0^{8,18}.0^{12,17}]nonadeca-1(18),8,12(17),13,15-pentaen-11-one

> <JCHEM_VEBER_RULE>
0

> <DRUGBANK_ID>
DB15416

> <DRUG_GROUPS>
investigational

> <GENERIC_NAME>
PX-102

$$$$
