
  Mrv1572004081602302D          

 23 24  0  0  0  0            999 V2000
   -0.7141   -1.6592    0.0000 C   0  0  0  0  0  0  0  0  0  0  0  0
    0.0022   -1.2459    0.0000 C   0  0  0  0  0  0  0  0  0  0  0  0
   -0.0006   -0.4155    0.0000 C   0  0  0  0  0  0  0  0  0  0  0  0
   -0.7159   -0.0063    0.0000 C   0  0  0  0  0  0  0  0  0  0  0  0
   -1.4289   -1.2464    0.0000 C   0  0  0  0  0  0  0  0  0  0  0  0
   -1.4246   -0.4191    0.0000 C   0  0  0  0  0  0  0  0  0  0  0  0
   -2.8584   -1.2392    0.0000 C   0  0  0  0  0  0  0  0  0  0  0  0
   -2.8543   -0.4118    0.0000 C   0  0  1  0  0  0  0  0  0  0  0  0
   -2.1308   -0.0061    0.0000 C   0  0  1  0  0  0  0  0  0  0  0  0
   -2.1204    0.8187    0.0000 C   0  0  0  0  0  0  0  0  0  0  0  0
   -2.8318    1.2440    0.0000 C   0  0  0  0  0  0  0  0  0  0  0  0
   -3.5555    0.8383    0.0000 C   0  0  0  0  0  0  0  0  0  0  0  0
   -3.5675    0.0072    0.0000 C   0  0  0  0  0  0  0  0  0  0  0  0
   -2.8205    2.0689    0.0000 C   0  0  0  0  0  0  0  0  0  0  0  0
   -0.7191    0.8186    0.0000 O   0  0  0  0  0  0  0  0  0  0  0  0
    0.7173   -1.6573    0.0000 C   0  0  0  0  0  0  0  0  0  0  0  0
    1.4310   -1.2436    0.0000 C   0  0  0  0  0  0  0  0  0  0  0  0
    2.1461   -1.6550    0.0000 C   0  0  0  0  0  0  0  0  0  0  0  0
    2.8598   -1.2414    0.0000 C   0  0  0  0  0  0  0  0  0  0  0  0
    3.5749   -1.6528    0.0000 C   0  0  0  0  0  0  0  0  0  0  0  0
   -2.1461   -1.6553    0.0000 C   0  0  0  0  0  0  0  0  0  0  0  0
   -3.5749   -1.6481    0.0000 C   0  0  0  0  0  0  0  0  0  0  0  0
   -1.4346   -2.0689    0.0000 O   0  0  0  0  0  0  0  0  0  0  0  0
  8 13  1  0  0  0  0
  9 10  1  0  0  0  0
 10 11  2  0  0  0  0
 11 12  1  0  0  0  0
 12 13  1  0  0  0  0
  2  3  1  0  0  0  0
 11 14  1  0  0  0  0
  9  6  1  1  0  0  0
  4 15  1  0  0  0  0
  8  7  1  6  0  0  0
  2 16  1  0  0  0  0
  8  9  1  0  0  0  0
 16 17  1  0  0  0  0
 17 18  1  0  0  0  0
  3  4  2  0  0  0  0
 18 19  1  0  0  0  0
  4  6  1  0  0  0  0
 19 20  1  0  0  0  0
  5  6  2  0  0  0  0
  7 21  2  0  0  0  0
  1  2  2  0  0  0  0
  7 22  1  0  0  0  0
  5  1  1  0  0  0  0
  5 23  1  0  0  0  0
M  END
> <DATABASE_ID>
DB09061

> <DATABASE_NAME>
drugbank

> <SMILES>
CCCCCC1=CC(O)=C([C@@H]2C=C(C)CC[C@H]2C(C)=C)C(O)=C1

> <INCHI_IDENTIFIER>
InChI=1S/C21H30O2/c1-5-6-7-8-16-12-19(22)21(20(23)13-16)18-11-15(4)9-10-17(18)14(2)3/h11-13,17-18,22-23H,2,5-10H2,1,3-4H3/t17-,18+/m0/s1

> <INCHI_KEY>
QHMBSVQNZZTUGM-ZWKOTPCHSA-N

> <FORMULA>
C21H30O2

> <MOLECULAR_WEIGHT>
314.469

> <EXACT_MASS>
314.224580206

> <JCHEM_ACCEPTOR_COUNT>
2

> <JCHEM_ATOM_COUNT>
53

> <JCHEM_AVERAGE_POLARIZABILITY>
38.34811041303557

> <JCHEM_BIOAVAILABILITY>
1

> <JCHEM_DONOR_COUNT>
2

> <JCHEM_FORMAL_CHARGE>
0

> <JCHEM_GHOSE_FILTER>
0

> <JCHEM_IUPAC>
2-[(1R,6R)-3-methyl-6-(prop-1-en-2-yl)cyclohex-2-en-1-yl]-5-pentylbenzene-1,3-diol

> <ALOGPS_LOGP>
6.10

> <JCHEM_LOGP>
6.325201126666667

> <ALOGPS_LOGS>
-4.40

> <JCHEM_MDDR_LIKE_RULE>
0

> <JCHEM_NUMBER_OF_RINGS>
2

> <JCHEM_PHYSIOLOGICAL_CHARGE>
0

> <JCHEM_PKA>
10.58381154908063

> <JCHEM_PKA_STRONGEST_ACIDIC>
9.12873016538115

> <JCHEM_PKA_STRONGEST_BASIC>
-5.723975042887205

> <JCHEM_POLAR_SURFACE_AREA>
40.46

> <JCHEM_REFRACTIVITY>
98.53089999999999

> <JCHEM_ROTATABLE_BOND_COUNT>
6

> <JCHEM_RULE_OF_FIVE>
0

> <ALOGPS_SOLUBILITY>
1.26e-02 g/l

> <JCHEM_TRADITIONAL_IUPAC>
cannabidiol

> <JCHEM_VEBER_RULE>
0

> <DRUGBANK_ID>
DB09061

> <DRUG_GROUPS>
approved; investigational

> <GENERIC_NAME>
Cannabidiol

> <SYNONYMS>
(−)-trans-2-p-mentha-1,8-dien-3-yl-5-pentylresorcinol; (−)-trans-cannabidiol; (1'R,2'R)-5'-methyl-4-pentyl-2'-(prop-1-en-2-yl)-1',2',3',4'-tetrahydrobiphenyl-2,6-diol; Cannabidiol; CBD; Δ1(2)-trans-cannabidiol

> <PRODUCTS>
Cybid 10; Cybid 15; Cybid 2.5; Cybid 5.0; Cybid 7.5; Dynabac 5.0; Epidiolex; Epidyolex; Kaydia Patch; NanoCDB; Sativex; leafPro CBDmed Oil FS QP 20%; leafPro CBDmed Oil FS QP 3%; leafPro CBDmed Oil FS QP 5%; leafPro CBDmed Oil T-FS QD 20%; leafPro CBDmed Oil T-FS QD 3%; leafPro CBDmed Oil T-FS QD 5%; leafPro CBDmed Softgels FS QP 20; leafPro CBDmed Softgels T-FS QD 20

$$$$
