
  Mrv1652310201622442D          

 17 18  0  0  1  0            999 V2000
    0.5429   -1.2195    0.0000 B   0  0  0  0  0  0  0  0  0  0  0  0
    0.7145   -0.4125    0.0000 C   0  0  0  0  0  0  0  0  0  0  0  0
    0.0000    0.0000    0.0000 C   0  0  0  0  0  0  0  0  0  0  0  0
    0.0000    0.8250    0.0000 C   0  0  0  0  0  0  0  0  0  0  0  0
    0.7145    1.2375    0.0000 C   0  0  0  0  0  0  0  0  0  0  0  0
    1.4289    0.8250    0.0000 C   0  0  0  0  0  0  0  0  0  0  0  0
    1.4289    0.0000    0.0000 C   0  0  0  0  0  0  0  0  0  0  0  0
    2.1434   -0.4125    0.0000 O   0  0  0  0  0  0  0  0  0  0  0  0
    2.8579    0.0000    0.0000 C   0  0  0  0  0  0  0  0  0  0  0  0
    3.5724   -0.4125    0.0000 C   0  0  0  0  0  0  0  0  0  0  0  0
    4.2868    0.0000    0.0000 C   0  0  0  0  0  0  0  0  0  0  0  0
    5.0013   -0.4125    0.0000 O   0  0  0  0  0  0  0  0  0  0  0  0
   -0.6131   -0.5520    0.0000 C   0  0  2  0  0  0  0  0  0  0  0  0
   -0.2775   -1.3057    0.0000 O   0  0  0  0  0  0  0  0  0  0  0  0
   -1.4201   -0.3805    0.0000 C   0  0  0  0  0  0  0  0  0  0  0  0
   -1.9721   -0.9936    0.0000 N   0  0  0  0  0  0  0  0  0  0  0  0
    1.0950   -1.8326    0.0000 O   0  0  0  0  0  0  0  0  0  0  0  0
  1  2  1  0  0  0  0
  2  3  2  0  0  0  0
  3  4  1  0  0  0  0
  4  5  2  0  0  0  0
  5  6  1  0  0  0  0
  6  7  2  0  0  0  0
  2  7  1  0  0  0  0
  7  8  1  0  0  0  0
  8  9  1  0  0  0  0
  9 10  1  0  0  0  0
 10 11  1  0  0  0  0
 11 12  1  0  0  0  0
  3 13  1  0  0  0  0
 13 14  1  0  0  0  0
  1 14  1  0  0  0  0
 13 15  1  6  0  0  0
 15 16  1  0  0  0  0
  1 17  1  0  0  0  0
M  END
> <DATABASE_ID>
DB11744

> <DATABASE_NAME>
drugbank

> <SMILES>
NC[C@H]1OB(O)C2=C1C=CC=C2OCCCO

> <INCHI_IDENTIFIER>
InChI=1S/C11H16BNO4/c13-7-10-8-3-1-4-9(16-6-2-5-14)11(8)12(15)17-10/h1,3-4,10,14-15H,2,5-7,13H2/t10-/m1/s1

> <INCHI_KEY>
FXQIIDINBDJDKL-SNVBAGLBSA-N

> <FORMULA>
C11H16BNO4

> <MOLECULAR_WEIGHT>
237.06

> <EXACT_MASS>
237.117238

> <JCHEM_ACCEPTOR_COUNT>
5

> <JCHEM_ATOM_COUNT>
33

> <JCHEM_AVERAGE_POLARIZABILITY>
25.48367295027313

> <JCHEM_BIOAVAILABILITY>
1

> <JCHEM_DONOR_COUNT>
3

> <JCHEM_FORMAL_CHARGE>
0

> <JCHEM_GHOSE_FILTER>
0

> <JCHEM_IUPAC>
(3S)-3-(aminomethyl)-7-(3-hydroxypropoxy)-1,3-dihydro-2,1-benzoxaborol-1-ol

> <ALOGPS_LOGP>
0.08

> <JCHEM_LOGP>
-0.4276586906331242

> <ALOGPS_LOGS>
-2.36

> <JCHEM_MDDR_LIKE_RULE>
0

> <JCHEM_NUMBER_OF_RINGS>
2

> <JCHEM_PHYSIOLOGICAL_CHARGE>
1

> <JCHEM_PKA>
15.26206257745783

> <JCHEM_PKA_STRONGEST_ACIDIC>
7.923891323805244

> <JCHEM_PKA_STRONGEST_BASIC>
9.282252837735726

> <JCHEM_POLAR_SURFACE_AREA>
84.94

> <JCHEM_REFRACTIVITY>
58.8813

> <JCHEM_ROTATABLE_BOND_COUNT>
5

> <JCHEM_RULE_OF_FIVE>
1

> <ALOGPS_SOLUBILITY>
1.04e+00 g/l

> <JCHEM_TRADITIONAL_IUPAC>
(3S)-3-(aminomethyl)-7-(3-hydroxypropoxy)-3H-2,1-benzoxaborol-1-ol

> <JCHEM_VEBER_RULE>
0

> <DRUGBANK_ID>
DB11744

> <DRUG_GROUPS>
investigational

> <GENERIC_NAME>
Epetraborole

> <SYNONYMS>
Epetraborole

> <SALTS>
Epetraborole Hydrochloride

$$$$
