
  Mrv1902 03081922032D          

 44 47  0  0  0  0            999 V2000
    0.0180    2.1759    0.0000 O   0  0  0  0  0  0  0  0  0  0  0  0
   -0.6962    0.9383    0.0000 O   0  0  0  0  0  0  0  0  0  0  0  0
   -1.4108    0.5258    0.0000 O   0  0  0  0  0  0  0  0  0  0  0  0
   -3.5542    0.9383    0.0000 O   0  0  0  0  0  0  0  0  0  0  0  0
   -4.2686   -1.9490    0.0000 O   0  0  0  0  0  0  0  0  0  0  0  0
   -1.4108   -1.9490    0.0000 O   0  0  0  0  0  0  0  0  0  0  0  0
   -2.8397   -2.7740    0.0000 O   0  0  0  0  0  0  0  0  0  0  0  0
   -2.1252    1.7634    0.0000 N   0  0  0  0  0  0  0  0  0  0  0  0
    3.5904   -0.7115    0.0000 N   0  0  0  0  0  0  0  0  0  0  0  0
    5.0194    1.7634    0.0000 N   0  0  0  0  0  0  0  0  0  0  0  0
   -1.4108    2.1759    0.0000 C   0  0  1  0  0  0  0  0  0  0  0  0
   -1.4108    3.0008    0.0000 C   0  0  0  0  0  0  0  0  0  0  0  0
   -2.1252    3.4133    0.0000 C   0  0  0  0  0  0  0  0  0  0  0  0
   -2.8397    3.0008    0.0000 C   0  0  0  0  0  0  0  0  0  0  0  0
   -2.8397    2.1759    0.0000 C   0  0  0  0  0  0  0  0  0  0  0  0
   -0.6962    1.7634    0.0000 C   0  0  0  0  0  0  0  0  0  0  0  0
    0.7325    1.7634    0.0000 C   0  0  0  0  0  0  0  0  0  0  0  0
   -2.1252    0.9383    0.0000 C   0  0  0  0  0  0  0  0  0  0  0  0
    0.7325    0.9383    0.0000 C   0  0  0  0  0  0  0  0  0  0  0  0
    1.4469    2.1759    0.0000 C   0  0  0  0  0  0  0  0  0  0  0  0
    1.4469    0.5258    0.0000 C   0  0  0  0  0  0  0  0  0  0  0  0
    2.1614    1.7634    0.0000 C   0  0  0  0  0  0  0  0  0  0  0  0
   -2.8397    0.5258    0.0000 C   0  0  0  0  0  0  0  0  0  0  0  0
    1.4469   -0.2991    0.0000 C   0  0  0  0  0  0  0  0  0  0  0  0
    2.8759    2.1759    0.0000 C   0  0  0  0  0  0  0  0  0  0  0  0
   -2.8397   -0.2991    0.0000 C   0  0  0  0  0  0  0  0  0  0  0  0
    2.1614   -0.7115    0.0000 C   0  0  0  0  0  0  0  0  0  0  0  0
    3.5904    1.7634    0.0000 C   0  0  0  0  0  0  0  0  0  0  0  0
   -2.1252   -0.7115    0.0000 C   0  0  0  0  0  0  0  0  0  0  0  0
   -3.5542   -0.7115    0.0000 C   0  0  0  0  0  0  0  0  0  0  0  0
    2.1614   -1.5365    0.0000 C   0  0  0  0  0  0  0  0  0  0  0  0
    3.5904    0.9383    0.0000 C   0  0  0  0  0  0  0  0  0  0  0  0
    2.8759   -0.2991    0.0000 C   0  0  0  0  0  0  0  0  0  0  0  0
    4.3048    2.1759    0.0000 C   0  0  0  0  0  0  0  0  0  0  0  0
   -3.5542   -1.5365    0.0000 C   0  0  0  0  0  0  0  0  0  0  0  0
   -2.1252   -1.5365    0.0000 C   0  0  0  0  0  0  0  0  0  0  0  0
   -2.8397   -1.9490    0.0000 C   0  0  0  0  0  0  0  0  0  0  0  0
    2.8759   -1.9490    0.0000 C   0  0  0  0  0  0  0  0  0  0  0  0
    4.3048    0.5258    0.0000 C   0  0  0  0  0  0  0  0  0  0  0  0
    3.5904   -1.5365    0.0000 C   0  0  0  0  0  0  0  0  0  0  0  0
    5.0194    0.9383    0.0000 C   0  0  0  0  0  0  0  0  0  0  0  0
   -4.9831   -1.5365    0.0000 C   0  0  0  0  0  0  0  0  0  0  0  0
   -0.6962   -1.5365    0.0000 C   0  0  0  0  0  0  0  0  0  0  0  0
   -3.5542   -3.1865    0.0000 C   0  0  0  0  0  0  0  0  0  0  0  0
  1 16  1  0  0  0  0
  1 17  1  0  0  0  0
  2 16  2  0  0  0  0
  3 18  2  0  0  0  0
  4 23  2  0  0  0  0
  5 35  1  0  0  0  0
  5 42  1  0  0  0  0
  6 36  1  0  0  0  0
  6 43  1  0  0  0  0
  7 37  1  0  0  0  0
  7 44  1  0  0  0  0
  8 11  1  0  0  0  0
  8 15  1  0  0  0  0
  8 18  1  0  0  0  0
  9 33  1  0  0  0  0
  9 40  2  0  0  0  0
 10 34  1  0  0  0  0
 10 41  2  0  0  0  0
 11 12  1  0  0  0  0
 11 16  1  1  0  0  0
 12 13  1  0  0  0  0
 13 14  1  0  0  0  0
 14 15  1  0  0  0  0
 17 19  1  0  0  0  0
 17 20  1  0  0  0  0
 18 23  1  0  0  0  0
 19 21  1  0  0  0  0
 20 22  1  0  0  0  0
 21 24  1  0  0  0  0
 22 25  1  0  0  0  0
 23 26  1  0  0  0  0
 24 27  1  0  0  0  0
 25 28  1  0  0  0  0
 26 29  2  0  0  0  0
 26 30  1  0  0  0  0
 27 31  1  0  0  0  0
 27 33  2  0  0  0  0
 28 32  1  0  0  0  0
 28 34  2  0  0  0  0
 29 36  1  0  0  0  0
 30 35  2  0  0  0  0
 31 38  2  0  0  0  0
 32 39  2  0  0  0  0
 35 37  1  0  0  0  0
 36 37  2  0  0  0  0
 38 40  1  0  0  0  0
 39 41  1  0  0  0  0
M  END
> <DATABASE_ID>
DB04851

> <DATABASE_NAME>
drugbank

> <SMILES>
COC1=CC(=CC(OC)=C1OC)C(=O)C(=O)N1CCCC[C@H]1C(=O)OC(CCCC1=CN=CC=C1)CCCC1=CN=CC=C1

> <INCHI_IDENTIFIER>
InChI=1S/C34H41N3O7/c1-41-29-20-26(21-30(42-2)32(29)43-3)31(38)33(39)37-19-5-4-16-28(37)34(40)44-27(14-6-10-24-12-8-17-35-22-24)15-7-11-25-13-9-18-36-23-25/h8-9,12-13,17-18,20-23,27-28H,4-7,10-11,14-16,19H2,1-3H3/t28-/m0/s1

> <INCHI_KEY>
CGVWPQOFHSAKRR-NDEPHWFRSA-N

> <FORMULA>
C34H41N3O7

> <MOLECULAR_WEIGHT>
603.716

> <EXACT_MASS>
603.294450672

> <JCHEM_ACCEPTOR_COUNT>
8

> <JCHEM_ATOM_COUNT>
85

> <JCHEM_AVERAGE_POLARIZABILITY>
64.13354385731826

> <JCHEM_BIOAVAILABILITY>
0

> <JCHEM_DONOR_COUNT>
0

> <JCHEM_FORMAL_CHARGE>
0

> <JCHEM_GHOSE_FILTER>
0

> <JCHEM_IUPAC>
1,7-bis(pyridin-3-yl)heptan-4-yl (2S)-1-[2-oxo-2-(3,4,5-trimethoxyphenyl)acetyl]piperidine-2-carboxylate

> <ALOGPS_LOGP>
4.54

> <JCHEM_LOGP>
4.773048504666667

> <ALOGPS_LOGS>
-5.67

> <JCHEM_MDDR_LIKE_RULE>
1

> <JCHEM_NUMBER_OF_RINGS>
4

> <JCHEM_PHYSIOLOGICAL_CHARGE>
0

> <JCHEM_PKA_STRONGEST_BASIC>
5.860795882783084

> <JCHEM_POLAR_SURFACE_AREA>
117.15

> <JCHEM_REFRACTIVITY>
164.49749999999995

> <JCHEM_ROTATABLE_BOND_COUNT>
16

> <JCHEM_RULE_OF_FIVE>
0

> <ALOGPS_SOLUBILITY>
1.29e-03 g/l

> <JCHEM_TRADITIONAL_IUPAC>
paramethasone

> <JCHEM_VEBER_RULE>
0

> <DRUGBANK_ID>
DB04851

> <DRUG_GROUPS>
investigational

> <GENERIC_NAME>
Biricodar

> <SYNONYMS>
Biricodar

> <INTERNATIONAL_BRANDS>
Incel

> <SALTS>
Biricodar dicitrate

$$$$
