
  Mrv1718007121817012D          

 32 35  0  0  0  0            999 V2000
   -0.3922   -1.9837    0.0000 C   0  0  0  0  0  0  0  0  0  0  0  0
   -1.1068   -2.3961    0.0000 C   0  0  0  0  0  0  0  0  0  0  0  0
   -1.8212   -1.9837    0.0000 C   0  0  0  0  0  0  0  0  0  0  0  0
   -2.5357   -2.3961    0.0000 C   0  0  0  0  0  0  0  0  0  0  0  0
   -3.2502   -1.1587    0.0000 C   0  0  0  0  0  0  0  0  0  0  0  0
   -2.5357   -0.7462    0.0000 C   0  0  0  0  0  0  0  0  0  0  0  0
   -0.3922    0.4912    0.0000 C   0  0  0  0  0  0  0  0  0  0  0  0
    1.5916   -0.3337    0.0000 C   0  0  0  0  0  0  0  0  0  0  0  0
    1.1068   -1.0011    0.0000 C   0  0  0  0  0  0  0  0  0  0  0  0
   -1.1068   -0.7462    0.0000 C   0  0  2  0  0  0  0  0  0  0  0  0
   -1.1068   -1.5712    0.0000 H   0  0  0  0  0  0  0  0  0  0  0  0
    0.3221   -0.7462    0.0000 C   0  0  1  0  0  0  0  0  0  0  0  0
    0.3221   -1.5712    0.0000 H   0  0  0  0  0  0  0  0  0  0  0  0
   -0.3922   -1.1587    0.0000 C   0  0  2  0  0  0  0  0  0  0  0  0
   -0.3922   -0.3337    0.0000 H   0  0  0  0  0  0  0  0  0  0  0  0
    0.3221    0.0787    0.0000 C   0  0  1  0  0  0  0  0  0  0  0  0
    1.1068    0.3337    0.0000 C   0  0  1  0  0  0  0  0  0  0  0  0
   -3.2502   -1.9837    0.0000 C   0  0  0  0  0  0  0  0  0  0  0  0
   -3.9647   -2.3962    0.0000 O   0  0  0  0  0  0  0  0  0  0  0  0
   -1.1068    0.0787    0.0000 C   0  0  1  0  0  0  0  0  0  0  0  0
   -1.8213    0.4912    0.0000 O   0  0  0  0  0  0  0  0  0  0  0  0
    1.1068    1.1587    0.0000 C   0  0  0  0  0  0  0  0  0  0  0  0
    0.3923    1.5712    0.0000 O   0  0  0  0  0  0  0  0  0  0  0  0
    1.8213    1.5712    0.0000 C   0  0  0  0  0  0  0  0  0  0  0  0
    2.5358    1.1587    0.0000 O   0  0  0  0  0  0  0  0  0  0  0  0
    1.8213    0.7462    0.0000 O   0  0  0  0  0  0  0  0  0  0  0  0
    0.3221    0.9037    0.0000 C   0  0  0  0  0  0  0  0  0  0  0  0
   -1.8212   -1.1587    0.0000 C   0  0  2  0  0  0  0  0  0  0  0  0
   -1.8212   -0.3337    0.0000 C   0  0  0  0  0  0  0  0  0  0  0  0
    3.2503    1.5712    0.0000 C   0  0  0  0  0  0  0  0  0  0  0  0
    3.2503    2.3962    0.0000 O   0  0  0  0  0  0  0  0  0  0  0  0
    3.9648    1.1587    0.0000 C   0  0  0  0  0  0  0  0  0  0  0  0
 14  1  1  0  0  0  0
 14 10  1  0  0  0  0
 14 12  1  0  0  0  0
  1  2  1  0  0  0  0
  2  3  1  0  0  0  0
  3  4  2  0  0  0  0
  3 28  1  0  0  0  0
  4 18  1  0  0  0  0
 18  5  1  0  0  0  0
  5  6  1  0  0  0  0
  6 28  1  0  0  0  0
 28 10  1  0  0  0  0
 10 20  1  0  0  0  0
 20  7  1  0  0  0  0
  7 16  1  0  0  0  0
 16 17  1  0  0  0  0
 16 12  1  0  0  0  0
 17  8  1  0  0  0  0
  8  9  1  0  0  0  0
  9 12  1  0  0  0  0
 10 11  1  6  0  0  0
 12 13  1  6  0  0  0
 14 15  1  1  0  0  0
 17 26  1  6  0  0  0
 17 22  1  0  0  0  0
 22 24  1  0  0  0  0
 18 19  2  0  0  0  0
 20 21  1  1  0  0  0
 22 23  2  0  0  0  0
 24 25  1  0  0  0  0
 16 27  1  1  0  0  0
 28 29  1  1  0  0  0
 25 30  1  0  0  0  0
 30 31  2  0  0  0  0
 30 32  1  0  0  0  0
M  END
> <DATABASE_ID>
DB14539

> <DATABASE_NAME>
drugbank

> <SMILES>
[H][C@@]12CC[C@](O)(C(=O)COC(C)=O)[C@@]1(C)C[C@H](O)[C@@]1([H])[C@@]2([H])CCC2=CC(=O)CC[C@]12C

> <INCHI_IDENTIFIER>
InChI=1S/C23H32O6/c1-13(24)29-12-19(27)23(28)9-7-17-16-5-4-14-10-15(25)6-8-21(14,2)20(16)18(26)11-22(17,23)3/h10,16-18,20,26,28H,4-9,11-12H2,1-3H3/t16-,17-,18-,20+,21-,22-,23-/m0/s1

> <INCHI_KEY>
ALEXXDVDDISNDU-JZYPGELDSA-N

> <FORMULA>
C23H32O6

> <MOLECULAR_WEIGHT>
404.4966

> <EXACT_MASS>
404.219888756

> <JCHEM_ACCEPTOR_COUNT>
5

> <JCHEM_ATOM_COUNT>
61

> <JCHEM_AVERAGE_POLARIZABILITY>
43.817501612025815

> <JCHEM_BIOAVAILABILITY>
1

> <JCHEM_DONOR_COUNT>
2

> <JCHEM_FORMAL_CHARGE>
0

> <JCHEM_GHOSE_FILTER>
1

> <JCHEM_IUPAC>
2-[(1R,3aS,3bS,9aR,9bS,10S,11aS)-1,10-dihydroxy-9a,11a-dimethyl-7-oxo-1H,2H,3H,3aH,3bH,4H,5H,7H,8H,9H,9aH,9bH,10H,11H,11aH-cyclopenta[a]phenanthren-1-yl]-2-oxoethyl acetate

> <ALOGPS_LOGP>
2.31

> <JCHEM_LOGP>
1.7162918449999998

> <ALOGPS_LOGS>
-3.84

> <JCHEM_MDDR_LIKE_RULE>
0

> <JCHEM_NUMBER_OF_RINGS>
4

> <JCHEM_PHYSIOLOGICAL_CHARGE>
0

> <JCHEM_PKA>
14.879770437963007

> <JCHEM_PKA_STRONGEST_ACIDIC>
12.612717367412674

> <JCHEM_PKA_STRONGEST_BASIC>
-2.8468642338994714

> <JCHEM_POLAR_SURFACE_AREA>
100.9

> <JCHEM_REFRACTIVITY>
106.55149999999998

> <JCHEM_ROTATABLE_BOND_COUNT>
4

> <JCHEM_RULE_OF_FIVE>
1

> <ALOGPS_SOLUBILITY>
5.82e-02 g/l

> <JCHEM_TRADITIONAL_IUPAC>
Î²-hc

> <JCHEM_VEBER_RULE>
0

> <DRUGBANK_ID>
DB14539

> <SECONDARY_ACCESSION_NUMBERS>
DBSALT000369

> <DRUG_GROUPS>
approved; vet_approved

> <GENERIC_NAME>
Hydrocortisone acetate

> <SYNONYMS>
21-O-acetylcortisol; Cortisol 21-acetate; Hydrocortisone 21-acetate; Hydrocortisone acetate

> <PRODUCTS>
4129 First Aid Kit; 4149 First Aid Kit; 4157 First Aid Kit; 4219 First Aid Kit; 4223 First Aid Kit; 4246 First Aid Kit; 4248 First Aid Kit; 4252 First Aid Kit; 4274 First Aid Kit; 4275 First Aid Kit; 4286 First Aid Kit; 4293 First Aid Kit; 4298 First Aid Kit; 4318 First Aid Kit; 4319 First Aid Kit; 4348 First Aid Kit; 4349 First Aid Kit; 4352 First Aid Kit; 4357 First Aid Kit; 4360 First Aid Kit; 4362 First Aid Kit; 4365 First Aid Kit; 4371 First Aid Kit; 4374 First Aid Kit; 4381 First Aid Kit; 4382 First Aid Kit; 4383 First Aid Kit; 4384 First Aid Kit; 4391 First Aid Kit; 4393 First Aid Kit; Acella Hydrocortisone Acetate - Pramoxine Singles; Actinac Pwr; Actinac Pws; Advanced Anti-itch Therapy; Aftate Hydrocortisone Cream; Ala Scalp; Alcortin A; Alocane; Alocort 1% - Crm; Alumier MD Intensive Recovery; Alumier MD Post Procedure Kit with Hydrocortisone; Alumier MD Post Procedure Prescription; American Safety and First Aid; Ana-Lex; AnaMantle HC; Analpram Advanced; Analpram E; Analpram E Cream 2.5% Kit hydrocortisone acetate 2.5% pramoxine hydrochloride 1%; Analpram HC; Ancalima Hydrocortisone Cream; Anodan-HC 10mg Suppositories; Anodan-HC Ointment; Anti-Itch Vulva Cream 1 Hydrocortisone Acetate; Anti-itch cream; Anucort-HC; Anugesic-HC Ointment; Anugesic-HC Suppositories; Anusol HC; Anusol-HC Ointment; Anusol-HC Suppositories; Anuzinc HC; Anuzinc HC Plus; Astonea; BIO-CORNEUM HC Advanced Scar Supervision Anti-Itch; Biocorneum Advanced Scar Treatment Anti-itch; CAREALL Hydrocortisone Maximum Strength; Carmol HC; Coly-Mycin S; CortAlo; Cortacet Crm 0.5%; Cortaid Maximum Strength; Cortamed Ont 25 mg/g; CortiSil MDX; Corticreme 0.1%; Corticreme 0.5%; Corticreme 1%; Cortifoam; Cortiment-10 Sup 10mg; Cortiment-40 Sup 40mg; Cortisporin; Cortisporin TC; Cortisporin-TC; Curetech; Dermasorb HC Complete Kit; Diphen; Egozinc-HC; Epifoam; Fucidin H; GRx HiCort; Gadaderm Hydrocortisone; Genuine Hydrocortisone; Glint; Green Guard Hydrocortisone 1%; HC Pram; Hair Sanity Hair Sanity Part I; HairSanity Step 1; Hemmorex-HC; Hydro-Iodoquinol; Hydrocortisone; Hydrocortisone 1 Anti Itch; Hydrocortisone 1%; Hydrocortisone Acetate; Hydrocortisone Acetate 2.5% Pramoxine HCl 1%; Hydrocortisone Acetate Antipruritic (Anti-Itch); Hydrocortisone Acetate Pramoxine HCl; Hydrocortisone Acetate Pramoxine Hcl; Hydrocortisone Acetate Pramoxine Hydrochloride; Hydrocortisone Acetate and Pramoxine Hydrochloride; Hydrocortisone Acetate, Iodoquinol; Hydrocortisone Maximum Strength; Immediate Comfort; Immediate Comfort Bioelements; Iodoquinol 1% - Hydrocortisone Acetate 2% - Aloe Polysaccharides 1%; Iodoquinol Hydrocortisone Acetate Aloe Polysaccharides; Iodoquinol, Hydrocortisone Acetate, Aloe Polysaccharides; Irritated Skin Treatment; Jamp Hydrocortisone Cream USP 0.5%; Jampzinc-HC; KAISER PERMANENTE Hydrocortisone; KELO-COTE HC Anti-Itch Scar Treatment; Lanacort Crm 0.5%; Lidocaine HCl - Hydrocortisone Acetate; Lidocaine HCl - Hydrocortisone Acetate with Aloe; Lidocaine HCl Hydrocortisone Acetate; Lidocaine HCl and Hydrocortisone Acetate; Lidocaine Hydrochloride - Hydrocortisone Acetate; Lidocaine Hydrochloride Hydrocortisone Acetate; Lidocaine Hydrochloride and Hydrocortisone Acetate; Lidocaine Hydrochloride, Hydrocortisone Acetate; Lidocort; Lincoln; MedPride; Medi-First 1% Hydrocortisone; Medi-First Hydrocortisone 1%; MiCort HC; MiCort-HC; MyOxin; Neo Polycin HC; Neo-cortef 0.5% Ointment; Neo-cortef 1% Ointment; Neo-cortef Eye Ear Drops Sterile Suspension; Neo-polycin HC; Neomed Pharmaceutical; Neomycin and Polymyxin B Sulfates and Bacitracin Zinc with Hydrocortisone Acetate; No-SCAR Oint.; Novacort; NuCort; Nucort Dermatoses Soothing; Ophthocort Ont; Otizol HC Liq; Pentamycetin/hc; Poli-A; Poly-Prep; Pramcort; Pramosone; Pramosone Cream; Pramosone E; Pramosone E Cream 2.5% hydrocortisone acetate 2.5% pramoxine hydrochloride 1%; Pramox HC Cream; Pramox HC Lotion; Procort; Procto-Kit; Proctocort; Proctodan-HC Ointment; Proctodan-HC Suppositories; Proctofoam HC; Proctosone Ont; Proctosone Sup; Procure; Radiaura Skin Recovery; Ratio-hemcort-HC; RectaGel HC; Rectacort - HC; Rectocort Ont; Rectocort Sup; Rectogel HC; Riva-sol HC Ointment; Rivasol-HC Suppositories; Roosin; Sandoz Anuzinc HC; Sandoz Anuzinc HC Plus; Smart Sense Anti Itch Maximum Strength; Sopamycetin/hc Ointment; Sopamycetin/hc Ont; Sopamycetin/hc Susp; Super Cortisone; Terra-Cortril; Teva-proctosone; Topiderm HC 2%; Trioxin; U-Cort; Uremol HC; Vagisil Anti-Itch Creme Maximum Strength Sensitive Skin Formula; Vagisil Satin; Vanicream HC Anti-Itch; Vytone; Xpect Hydrocortisone; ZCort Ultra; Zee Hydrocream; ZyPram; bioCorneum HC Advanced Scar Supervision Anti-Itch; hydrocortisone acetate pramoxine HCl; proctofoam HC

> <INTERNATIONAL_BRANDS>
Micort-HC

$$$$
