
  Mrv1909 09032015482D          

 29 30  0  0  0  0            999 V2000
   -4.5810    0.0824    0.0000 C   0  0  0  0  0  0  0  0  0  0  0  0
   -3.1544    0.0829    0.0000 C   0  0  0  0  0  0  0  0  0  0  0  0
   -3.8665    0.4948    0.0000 C   0  0  0  0  0  0  0  0  0  0  0  0
   -3.1544   -0.7421    0.0000 C   0  0  0  0  0  0  0  0  0  0  0  0
   -4.5810   -0.7459    0.0000 C   0  0  0  0  0  0  0  0  0  0  0  0
   -3.8647   -1.1540    0.0000 C   0  0  0  0  0  0  0  0  0  0  0  0
   -2.4399    0.4953    0.0000 C   0  0  0  0  0  0  0  0  0  0  0  0
   -1.7254    0.0829    0.0000 O   0  0  0  0  0  0  0  0  0  0  0  0
   -1.0109    0.4953    0.0000 C   0  0  0  0  0  0  0  0  0  0  0  0
   -0.2964    0.0829    0.0000 N   0  0  0  0  0  0  0  0  0  0  0  0
    0.4178    0.4953    0.0000 C   0  0  2  0  0  0  0  0  0  0  0  0
    1.1323    0.0829    0.0000 C   0  0  0  0  0  0  0  0  0  0  0  0
    1.8468    0.4953    0.0000 N   0  0  0  0  0  0  0  0  0  0  0  0
    2.5614    0.0829    0.0000 C   0  0  2  0  0  0  0  0  0  0  0  0
    3.2758    0.4953    0.0000 C   0  0  0  0  0  0  0  0  0  0  0  0
    3.9903    0.0829    0.0000 O   0  0  0  0  0  0  0  0  0  0  0  0
   -1.0109    1.3203    0.0000 O   0  0  0  0  0  0  0  0  0  0  0  0
    0.4178    1.3203    0.0000 C   0  0  0  0  0  0  0  0  0  0  0  0
    1.1323    1.7330    0.0000 C   0  0  0  0  0  0  0  0  0  0  0  0
    1.1323    2.5580    0.0000 C   0  0  0  0  0  0  0  0  0  0  0  0
    1.8468    1.3203    0.0000 C   0  0  0  0  0  0  0  0  0  0  0  0
    1.1323   -0.7419    0.0000 O   0  0  0  0  0  0  0  0  0  0  0  0
    2.5614   -0.7419    0.0000 C   0  0  0  0  0  0  0  0  0  0  0  0
    3.2758   -1.1545    0.0000 C   0  0  0  0  0  0  0  0  0  0  0  0
    4.0292   -0.8190    0.0000 C   0  0  0  0  0  0  0  0  0  0  0  0
    4.5810   -1.4320    0.0000 C   0  0  0  0  0  0  0  0  0  0  0  0
    4.1687   -2.1459    0.0000 N   0  0  0  0  0  0  0  0  0  0  0  0
    3.3621   -1.9745    0.0000 C   0  0  0  0  0  0  0  0  0  0  0  0
    2.7786   -2.5580    0.0000 O   0  0  0  0  0  0  0  0  0  0  0  0
  6  4  1  0  0  0  0
  5  6  2  0  0  0  0
  2  3  1  0  0  0  0
  1  5  1  0  0  0  0
  4  2  2  0  0  0  0
  3  1  2  0  0  0  0
  2  7  1  0  0  0  0
  7  8  1  0  0  0  0
  8  9  1  0  0  0  0
  9 10  1  0  0  0  0
 10 11  1  0  0  0  0
 11 12  1  0  0  0  0
 12 13  1  0  0  0  0
 13 14  1  0  0  0  0
 14 15  1  0  0  0  0
 15 16  2  0  0  0  0
  9 17  2  0  0  0  0
 11 18  1  1  0  0  0
 18 19  1  0  0  0  0
 19 20  1  0  0  0  0
 19 21  1  0  0  0  0
 12 22  2  0  0  0  0
 14 23  1  6  0  0  0
 23 24  1  0  0  0  0
 27 28  1  0  0  0  0
 26 27  1  0  0  0  0
 25 26  1  0  0  0  0
 24 25  1  0  0  0  0
 28 24  1  0  0  0  0
 28 29  2  0  0  0  0
M  END
> <DATABASE_ID>
DB15797

> <DATABASE_NAME>
drugbank

> <SMILES>
CC(C)C[C@H](NC(=O)OCC1=CC=CC=C1)C(=O)N[C@@H](CC1CCNC1=O)C=O

> <INCHI_IDENTIFIER>
InChI=1S/C21H29N3O5/c1-14(2)10-18(24-21(28)29-13-15-6-4-3-5-7-15)20(27)23-17(12-25)11-16-8-9-22-19(16)26/h3-7,12,14,16-18H,8-11,13H2,1-2H3,(H,22,26)(H,23,27)(H,24,28)/t16?,17-,18-/m0/s1

> <INCHI_KEY>
QYENXTYKACLCGO-FQECFTEESA-N

> <FORMULA>
C21H29N3O5

> <MOLECULAR_WEIGHT>
403.479

> <EXACT_MASS>
403.210721046

> <JCHEM_ACCEPTOR_COUNT>
4

> <JCHEM_ATOM_COUNT>
58

> <JCHEM_AVERAGE_NEUTRAL_MICROSPECIES_CHARGE>
-2.5239036065975693e-06

> <JCHEM_AVERAGE_POLARIZABILITY>
42.966310354759095

> <JCHEM_BIOAVAILABILITY>
1

> <JCHEM_DONOR_COUNT>
3

> <JCHEM_FORMAL_CHARGE>
0

> <JCHEM_GHOSE_FILTER>
1

> <JCHEM_IUPAC>
benzyl N-[(1S)-3-methyl-1-{[(2S)-1-oxo-3-(2-oxopyrrolidin-3-yl)propan-2-yl]carbamoyl}butyl]carbamate

> <ALOGPS_LOGP>
1.04

> <JCHEM_LOGP>
1.2759105906666668

> <ALOGPS_LOGS>
-4.02

> <JCHEM_MDDR_LIKE_RULE>
0

> <JCHEM_NEUTRAL_CHARGE>
0

> <JCHEM_NUMBER_OF_RINGS>
2

> <JCHEM_PHYSIOLOGICAL_CHARGE>
0

> <JCHEM_PKA>
13.546652346623283

> <JCHEM_PKA_STRONGEST_ACIDIC>
12.67796362958744

> <JCHEM_PKA_STRONGEST_BASIC>
-1.5665827341170364

> <JCHEM_POLAR_SURFACE_AREA>
113.6

> <JCHEM_REFRACTIVITY>
106.57509999999996

> <JCHEM_ROTATABLE_BOND_COUNT>
11

> <JCHEM_RULE_OF_FIVE>
1

> <ALOGPS_SOLUBILITY>
3.86e-02 g/l

> <JCHEM_TRADITIONAL_IUPAC>
unii-71TH42O2CQ

> <JCHEM_VEBER_RULE>
0

> <DRUGBANK_ID>
DB15797

> <DRUG_GROUPS>
experimental

> <GENERIC_NAME>
GC-373

$$$$
