
  Mrv1909 01032320012D          

  1  0  0  0  0  0            999 V2000
    0.0000    0.0000    0.0000 Xe  0  0  0  0  0  0  0  0  0  0  0  0
M  ISO  1   1 129
M  END
> <DATABASE_ID>
DB17386

> <DATABASE_NAME>
drugbank

> <SMILES>
[129Xe]

> <INCHI_IDENTIFIER>
InChI=1S/Xe/i1-2

> <INCHI_KEY>
FHNFHKCVQCLJFQ-YPZZEJLDSA-N

> <FORMULA>
Xe

> <MOLECULAR_WEIGHT>
128.9048

> <EXACT_MASS>
128.90478086

> <DRUGBANK_ID>
DB17386

> <DRUG_GROUPS>
approved

> <GENERIC_NAME>
Xenon Xe-129

> <SYNONYMS>
Xenon xe-129m; Xenon-129m; Xenon, isotope of mass 129; Xenon, isotope of mass 129m(8.88 d); Xenon, xe-129m

$$$$
