
  Mrv1572004191602432D          

 40 48  0  0  0  0            999 V2000
   -2.4835   -3.0816    0.0000 C   0  0  0  0  0  0  0  0  0  0  0  0
   -3.0719   -2.5033    0.0000 C   0  0  0  0  0  0  0  0  0  0  0  0
    2.5237   -3.0379    0.0000 C   0  0  0  0  0  0  0  0  0  0  0  0
    3.1019   -2.4494    0.0000 C   0  0  0  0  0  0  0  0  0  0  0  0
   -3.0585    2.4185    0.0000 C   0  0  0  0  0  0  0  0  0  0  0  0
   -2.4802    3.0069    0.0000 C   0  0  0  0  0  0  0  0  0  0  0  0
    3.0313    2.5302    0.0000 C   0  0  0  0  0  0  0  0  0  0  0  0
    2.4428    3.1084    0.0000 C   0  0  0  0  0  0  0  0  0  0  0  0
   -1.6885   -2.8611    0.0000 C   0  0  0  0  0  0  0  0  0  0  0  0
   -2.8653   -1.7046    0.0000 C   0  0  0  0  0  0  0  0  0  0  0  0
    1.7249   -2.8314    0.0000 C   0  0  0  0  0  0  0  0  0  0  0  0
    2.8813   -1.6544    0.0000 C   0  0  0  0  0  0  0  0  0  0  0  0
   -2.8380    1.6235    0.0000 C   0  0  0  0  0  0  0  0  0  0  0  0
   -1.6815    2.8003    0.0000 C   0  0  0  0  0  0  0  0  0  0  0  0
    2.8247    1.7315    0.0000 C   0  0  0  0  0  0  0  0  0  0  0  0
    1.6478    2.8880    0.0000 C   0  0  0  0  0  0  0  0  0  0  0  0
   -1.4819   -2.0624    0.0000 C   0  0  0  0  0  0  0  0  0  0  0  0
   -2.0703   -1.4841    0.0000 C   0  0  0  0  0  0  0  0  0  0  0  0
    1.5044   -2.0364    0.0000 C   0  0  0  0  0  0  0  0  0  0  0  0
    2.0826   -1.4479    0.0000 C   0  0  0  0  0  0  0  0  0  0  0  0
   -2.0393    1.4169    0.0000 C   0  0  0  0  0  0  0  0  0  0  0  0
   -1.4610    2.0053    0.0000 C   0  0  0  0  0  0  0  0  0  0  0  0
    2.0297    1.5110    0.0000 C   0  0  0  0  0  0  0  0  0  0  0  0
    1.4413    2.0893    0.0000 C   0  0  0  0  0  0  0  0  0  0  0  0
   -0.7243   -1.6459    0.0000 C   0  0  0  0  0  0  0  0  0  0  0  0
   -1.6690   -0.7465    0.0000 C   0  0  0  0  0  0  0  0  0  0  0  0
    0.7106   -1.6627    0.0000 C   0  0  0  0  0  0  0  0  0  0  0  0
   -1.6818    0.7174    0.0000 C   0  0  0  0  0  0  0  0  0  0  0  0
    1.6683   -0.6881    0.0000 C   0  0  0  0  0  0  0  0  0  0  0  0
   -0.7239    1.6627    0.0000 C   0  0  0  0  0  0  0  0  0  0  0  0
    1.6265    0.7462    0.0000 C   0  0  0  0  0  0  0  0  0  0  0  0
    0.7107    1.6752    0.0000 C   0  0  0  0  0  0  0  0  0  0  0  0
   -0.8480   -0.8857    0.0000 N   0  0  0  0  0  0  0  0  0  0  0  0
    0.8501   -0.8709    0.0000 N   0  0  0  0  0  0  0  0  0  0  0  0
   -0.8926    0.8706    0.0000 N   0  0  0  0  0  0  0  0  0  0  0  0
    0.8643    0.8567    0.0000 N   0  0  0  0  0  0  0  0  0  0  0  0
    0.0112   -2.0494    0.0000 N   0  0  0  0  0  0  0  0  0  0  0  0
   -2.0558   -0.0472    0.0000 N   0  0  0  0  0  0  0  0  0  0  0  0
    2.0427    0.0179    0.0000 N   0  0  0  0  0  0  0  0  0  0  0  0
    0.0047    2.0496    0.0000 N   0  0  0  0  0  0  0  0  0  0  0  0
  2  1  2  0  0  0  0
  4  3  2  0  0  0  0
  6  5  2  0  0  0  0
  8  7  1  0  0  0  0
  9  1  1  0  0  0  0
 10  2  1  0  0  0  0
 11  3  1  0  0  0  0
 12  4  1  0  0  0  0
 13  5  1  0  0  0  0
 14  6  1  0  0  0  0
 15  7  2  0  0  0  0
 16  8  2  0  0  0  0
 17  9  2  0  0  0  0
 18 10  2  0  0  0  0
 18 17  1  0  0  0  0
 19 11  2  0  0  0  0
 20 12  2  0  0  0  0
 20 19  1  0  0  0  0
 21 13  2  0  0  0  0
 22 14  2  0  0  0  0
 22 21  1  0  0  0  0
 23 15  1  0  0  0  0
 24 16  1  0  0  0  0
 24 23  1  0  0  0  0
 25 17  1  0  0  0  0
 26 18  1  0  0  0  0
 27 19  1  0  0  0  0
 28 21  1  0  0  0  0
 29 20  1  0  0  0  0
 30 22  1  0  0  0  0
 31 23  2  0  0  0  0
 32 24  2  0  0  0  0
 33 25  2  0  0  0  0
 33 26  1  0  0  0  0
 34 27  2  0  0  0  0
 34 29  1  0  0  0  0
 35 28  2  0  0  0  0
 35 30  1  0  0  0  0
 36 31  1  0  0  0  0
 36 32  1  0  0  0  0
 37 25  1  0  0  0  0
 37 27  1  0  0  0  0
 38 26  2  0  0  0  0
 38 28  1  0  0  0  0
 39 29  2  0  0  0  0
 39 31  1  0  0  0  0
 40 30  2  0  0  0  0
 40 32  1  0  0  0  0
M  END
> <DATABASE_ID>
DB12983

> <DATABASE_NAME>
drugbank

> <SMILES>
N1C2=C3C=CC=CC3=C1\N=C1/N=C(/N=C3\N=C(NC4=N\C(=N/2)C2=CC=CC=C42)C2=CC=CC=C32)C2=CC=CC=C12

> <INCHI_IDENTIFIER>
InChI=1S/C32H18N8/c1-2-10-18-17(9-1)25-33-26(18)38-28-21-13-5-6-14-22(21)30(35-28)40-32-24-16-8-7-15-23(24)31(36-32)39-29-20-12-4-3-11-19(20)27(34-29)37-25/h1-16H,(H2,33,34,35,36,37,38,39,40)

> <INCHI_KEY>
IEQIEDJGQAUEQZ-UHFFFAOYSA-N

> <FORMULA>
C32H18N8

> <MOLECULAR_WEIGHT>
514.552

> <EXACT_MASS>
514.165442612

> <JCHEM_ACCEPTOR_COUNT>
6

> <JCHEM_ATOM_COUNT>
58

> <JCHEM_AVERAGE_POLARIZABILITY>
57.90102503193994

> <JCHEM_BIOAVAILABILITY>
0

> <JCHEM_DONOR_COUNT>
2

> <JCHEM_FORMAL_CHARGE>
0

> <JCHEM_GHOSE_FILTER>
0

> <JCHEM_IUPAC>
2,11,20,29,37,38,39,40-octaazanonacyclo[28.6.1.1³,¹⁰.1¹²,¹⁹.1²¹,²⁸.0⁴,⁹.0¹³,¹⁸.0²²,²⁷.0³¹,³⁶]tetraconta-1,3,5,7,9,11,13,15,17,19(39),20,22,24,26,28(38),30(37),31,33,35-nonadecaene

> <ALOGPS_LOGP>
4.79

> <JCHEM_LOGP>
6.4891629779999995

> <ALOGPS_LOGS>
-4.69

> <JCHEM_MDDR_LIKE_RULE>
0

> <JCHEM_NUMBER_OF_RINGS>
9

> <JCHEM_PHYSIOLOGICAL_CHARGE>
-1

> <JCHEM_PKA>
13.924703281959545

> <JCHEM_PKA_STRONGEST_ACIDIC>
5.516296525037

> <JCHEM_PKA_STRONGEST_BASIC>
2.5165173401713123

> <JCHEM_POLAR_SURFACE_AREA>
108.92

> <JCHEM_REFRACTIVITY>
155.73139999999998

> <JCHEM_ROTATABLE_BOND_COUNT>
0

> <JCHEM_RULE_OF_FIVE>
0

> <ALOGPS_SOLUBILITY>
1.05e-02 g/l

> <JCHEM_TRADITIONAL_IUPAC>
29H, 31H-phthalocyanine

> <JCHEM_VEBER_RULE>
0

> <DRUGBANK_ID>
DB12983

> <DRUG_GROUPS>
investigational

> <GENERIC_NAME>
Phthalocyanine

> <SYNONYMS>
ftalocianina; Pigment blue 16

$$$$
