
  Mrv1909 12152018142D          

 76 77  0  0  1  0            999 V2000
  -14.8592  -10.3902    0.0000 C   0  0  0  0  0  0  0  0  0  0  0  0
  -14.0342  -10.3902    0.0000 C   0  0  0  0  0  0  0  0  0  0  0  0
  -13.6217   -9.6758    0.0000 C   0  0  2  0  0  0  0  0  0  0  0  0
  -14.0342   -8.9613    0.0000 C   0  0  0  0  0  0  0  0  0  0  0  0
  -12.7967   -9.6758    0.0000 C   0  0  2  0  0  0  0  0  0  0  0  0
  -12.3842   -8.9613    0.0000 N   0  0  0  0  0  0  0  0  0  0  0  0
  -11.5592   -8.9613    0.0000 C   0  0  0  0  0  0  0  0  0  0  0  0
  -11.1467   -9.6758    0.0000 O   0  0  0  0  0  0  0  0  0  0  0  0
  -11.1467   -8.2468    0.0000 C   0  0  2  0  0  0  0  0  0  0  0  0
  -11.5592   -7.5324    0.0000 C   0  0  0  0  0  0  0  0  0  0  0  0
  -11.1467   -6.8179    0.0000 C   0  0  0  0  0  0  0  0  0  0  0  0
  -11.5592   -6.1034    0.0000 C   0  0  0  0  0  0  0  0  0  0  0  0
  -11.1467   -5.3890    0.0000 N   0  0  0  0  0  0  0  0  0  0  0  0
  -11.5592   -4.6745    0.0000 C   0  0  0  0  0  0  0  0  0  0  0  0
  -12.3842   -4.6745    0.0000 N   0  0  0  0  0  0  0  0  0  0  0  0
  -11.1467   -3.9600    0.0000 N   0  0  0  0  0  0  0  0  0  0  0  0
  -10.3217   -8.2468    0.0000 N   0  0  0  0  0  0  0  0  0  0  0  0
   -9.9092   -7.5324    0.0000 C   0  0  0  0  0  0  0  0  0  0  0  0
  -10.3217   -6.8179    0.0000 O   0  0  0  0  0  0  0  0  0  0  0  0
   -9.0842   -7.5324    0.0000 C   0  0  2  0  0  0  0  0  0  0  0  0
   -8.6717   -8.2468    0.0000 C   0  0  0  0  0  0  0  0  0  0  0  0
   -9.0842   -8.9613    0.0000 C   0  0  0  0  0  0  0  0  0  0  0  0
   -8.6717   -9.6758    0.0000 N   0  0  0  0  0  0  0  0  0  0  0  0
   -9.9092   -8.9613    0.0000 O   0  0  0  0  0  0  0  0  0  0  0  0
   -8.6717   -6.8179    0.0000 N   0  0  0  0  0  0  0  0  0  0  0  0
   -7.8467   -6.8179    0.0000 C   0  0  0  0  0  0  0  0  0  0  0  0
   -7.4342   -7.5324    0.0000 O   0  0  0  0  0  0  0  0  0  0  0  0
   -7.4342   -6.1034    0.0000 C   0  0  0  0  0  0  0  0  0  0  0  0
   -6.6092   -6.1034    0.0000 N   0  0  0  0  0  0  0  0  0  0  0  0
   -6.1967   -5.3890    0.0000 C   0  0  0  0  0  0  0  0  0  0  0  0
   -6.6092   -4.6745    0.0000 O   0  0  0  0  0  0  0  0  0  0  0  0
   -5.3717   -5.3890    0.0000 C   0  0  2  0  0  0  0  0  0  0  0  0
   -4.9592   -6.1034    0.0000 C   0  0  0  0  0  0  0  0  0  0  0  0
   -5.3717   -6.8179    0.0000 C   0  0  0  0  0  0  0  0  0  0  0  0
   -4.9592   -7.5324    0.0000 O   0  0  0  0  0  0  0  0  0  0  0  0
   -6.1967   -6.8179    0.0000 O   0  0  0  0  0  0  0  0  0  0  0  0
   -4.9592   -4.6745    0.0000 N   0  0  0  0  0  0  0  0  0  0  0  0
   -4.1342   -4.6745    0.0000 C   0  0  0  0  0  0  0  0  0  0  0  0
   -3.7217   -5.3890    0.0000 O   0  0  0  0  0  0  0  0  0  0  0  0
   -3.7217   -3.9600    0.0000 C   0  0  2  0  0  0  0  0  0  0  0  0
   -4.0572   -3.2063    0.0000 C   0  0  0  0  0  0  0  0  0  0  0  0
   -3.4441   -2.6543    0.0000 C   0  0  0  0  0  0  0  0  0  0  0  0
   -2.7296   -3.0668    0.0000 C   0  0  0  0  0  0  0  0  0  0  0  0
   -2.9012   -3.8738    0.0000 N   0  0  0  0  0  0  0  0  0  0  0  0
   -2.3491   -4.4869    0.0000 C   0  0  0  0  0  0  0  0  0  0  0  0
   -2.6041   -5.2715    0.0000 O   0  0  0  0  0  0  0  0  0  0  0  0
   -1.5422   -4.3153    0.0000 C   0  0  1  0  0  0  0  0  0  0  0  0
   -0.9901   -4.9284    0.0000 N   0  0  0  0  0  0  0  0  0  0  0  0
   -0.1832   -4.7569    0.0000 C   0  0  0  0  0  0  0  0  0  0  0  0
    0.0718   -3.9723    0.0000 O   0  0  0  0  0  0  0  0  0  0  0  0
    0.3689   -5.3700    0.0000 C   0  0  2  0  0  0  0  0  0  0  0  0
    1.1758   -5.1985    0.0000 C   0  0  0  0  0  0  0  0  0  0  0  0
    1.4308   -4.4139    0.0000 C   0  0  0  0  0  0  0  0  0  0  0  0
    0.8787   -3.8008    0.0000 C   0  0  0  0  0  0  0  0  0  0  0  0
    1.1337   -3.0161    0.0000 C   0  0  0  0  0  0  0  0  0  0  0  0
    1.9407   -2.8446    0.0000 C   0  0  0  0  0  0  0  0  0  0  0  0
    2.4927   -3.4577    0.0000 C   0  0  0  0  0  0  0  0  0  0  0  0
    2.2378   -4.2423    0.0000 C   0  0  0  0  0  0  0  0  0  0  0  0
    0.1139   -6.1546    0.0000 N   0  0  0  0  0  0  0  0  0  0  0  0
   -0.6930   -6.3262    0.0000 C   0  0  0  0  0  0  0  0  0  0  0  0
   -1.2451   -5.7131    0.0000 O   0  0  0  0  0  0  0  0  0  0  0  0
   -0.9480   -7.1108    0.0000 C   0  0  1  0  0  0  0  0  0  0  0  0
   -0.3959   -7.7239    0.0000 N   0  0  0  0  0  0  0  0  0  0  0  0
   -1.7550   -7.2823    0.0000 C   0  0  0  0  0  0  0  0  0  0  0  0
   -2.0099   -8.0669    0.0000 C   0  0  0  0  0  0  0  0  0  0  0  0
   -2.8169   -8.2384    0.0000 C   0  0  0  0  0  0  0  0  0  0  0  0
   -3.0718   -9.0231    0.0000 N   0  0  0  0  0  0  0  0  0  0  0  0
   -3.8788   -9.1946    0.0000 C   0  0  0  0  0  0  0  0  0  0  0  0
   -4.4308   -8.5815    0.0000 N   0  0  0  0  0  0  0  0  0  0  0  0
   -4.1337   -9.9792    0.0000 N   0  0  0  0  0  0  0  0  0  0  0  0
   -1.2872   -3.5307    0.0000 C   0  0  0  0  0  0  0  0  0  0  0  0
   -1.8393   -2.9176    0.0000 C   0  0  0  0  0  0  0  0  0  0  0  0
   -0.4803   -3.3592    0.0000 C   0  0  0  0  0  0  0  0  0  0  0  0
  -12.3842  -10.3902    0.0000 C   0  0  0  0  0  0  0  0  0  0  0  0
  -11.5592  -10.3902    0.0000 O   0  0  0  0  0  0  0  0  0  0  0  0
  -12.7967  -11.1047    0.0000 O   0  0  0  0  0  0  0  0  0  0  0  0
  1  2  1  0  0  0  0
  3  2  1  0  0  0  0
  3  4  1  6  0  0  0
  3  5  1  0  0  0  0
  5  6  1  6  0  0  0
  6  7  1  0  0  0  0
  7  8  2  0  0  0  0
  9  7  1  0  0  0  0
  9 10  1  0  0  0  0
 10 11  1  0  0  0  0
 11 12  1  0  0  0  0
 12 13  1  0  0  0  0
 13 14  1  0  0  0  0
 14 15  1  0  0  0  0
 14 16  2  0  0  0  0
  9 17  1  6  0  0  0
 17 18  1  0  0  0  0
 18 19  2  0  0  0  0
 20 18  1  0  0  0  0
 20 21  1  0  0  0  0
 21 22  1  0  0  0  0
 22 23  1  0  0  0  0
 22 24  2  0  0  0  0
 20 25  1  1  0  0  0
 25 26  1  0  0  0  0
 26 27  2  0  0  0  0
 26 28  1  0  0  0  0
 28 29  1  0  0  0  0
 29 30  1  0  0  0  0
 30 31  2  0  0  0  0
 32 30  1  0  0  0  0
 32 33  1  0  0  0  0
 33 34  1  0  0  0  0
 34 35  1  0  0  0  0
 34 36  2  0  0  0  0
 32 37  1  1  0  0  0
 37 38  1  0  0  0  0
 38 39  2  0  0  0  0
 40 38  1  6  0  0  0
 40 41  1  0  0  0  0
 41 42  1  0  0  0  0
 42 43  1  0  0  0  0
 43 44  1  0  0  0  0
 40 44  1  0  0  0  0
 44 45  1  0  0  0  0
 45 46  2  0  0  0  0
 47 45  1  0  0  0  0
 47 48  1  6  0  0  0
 48 49  1  0  0  0  0
 49 50  2  0  0  0  0
 51 49  1  0  0  0  0
 51 52  1  0  0  0  0
 52 53  1  0  0  0  0
 53 54  2  0  0  0  0
 54 55  1  0  0  0  0
 55 56  2  0  0  0  0
 56 57  1  0  0  0  0
 57 58  2  0  0  0  0
 53 58  1  0  0  0  0
 51 59  1  6  0  0  0
 59 60  1  0  0  0  0
 60 61  2  0  0  0  0
 62 60  1  0  0  0  0
 62 63  1  1  0  0  0
 62 64  1  0  0  0  0
 64 65  1  0  0  0  0
 65 66  1  0  0  0  0
 66 67  1  0  0  0  0
 67 68  1  0  0  0  0
 68 69  1  0  0  0  0
 68 70  2  0  0  0  0
 47 71  1  0  0  0  0
 71 72  1  0  0  0  0
 71 73  1  0  0  0  0
  5 74  1  0  0  0  0
 74 75  1  0  0  0  0
 74 76  2  0  0  0  0
M  END
> <DATABASE_ID>
DB16152

> <DATABASE_NAME>
drugbank

> <SMILES>
CC[C@H](C)[C@H](NC(=O)[C@H](CCCNC(N)=N)NC(=O)[C@H](CC(N)=O)NC(=O)CNC(=O)[C@H](CC(O)=O)NC(=O)[C@@H]1CCCN1C(=O)[C@@H](NC(=O)[C@H](CC1=CC=CC=C1)NC(=O)[C@@H](N)CCCNC(N)=N)C(C)C)C(O)=O

> <INCHI_IDENTIFIER>
InChI=1S/C47H76N16O13/c1-5-25(4)37(45(75)76)62-40(70)28(15-10-18-55-47(52)53)58-41(71)30(21-33(49)64)57-34(65)23-56-39(69)31(22-35(66)67)60-43(73)32-16-11-19-63(32)44(74)36(24(2)3)61-42(72)29(20-26-12-7-6-8-13-26)59-38(68)27(48)14-9-17-54-46(50)51/h6-8,12-13,24-25,27-32,36-37H,5,9-11,14-23,48H2,1-4H3,(H2,49,64)(H,56,69)(H,57,65)(H,58,71)(H,59,68)(H,60,73)(H,61,72)(H,62,70)(H,66,67)(H,75,76)(H4,50,51,54)(H4,52,53,55)/t25-,27-,28-,29-,30-,31-,32-,36-,37-/m0/s1

> <INCHI_KEY>
ZAJHBCDPAUKEPU-GIKXZWSFSA-N

> <FORMULA>
C47H76N16O13

> <MOLECULAR_WEIGHT>
1073.224

> <EXACT_MASS>
1072.577776571

> <JCHEM_ACCEPTOR_COUNT>
20

> <JCHEM_ATOM_COUNT>
152

> <JCHEM_AVERAGE_NEUTRAL_MICROSPECIES_CHARGE>
0.8744317606192928

> <JCHEM_AVERAGE_POLARIZABILITY>
108.81027042425217

> <JCHEM_BIOAVAILABILITY>
0

> <JCHEM_DONOR_COUNT>
17

> <JCHEM_FORMAL_CHARGE>
0

> <JCHEM_GHOSE_FILTER>
0

> <JCHEM_IUPAC>
(2S,3S)-2-[(2S)-2-[(2S)-2-{2-[(2S)-2-{[(2S)-1-[(2S)-2-[(2S)-2-[(2S)-2-amino-5-carbamimidamidopentanamido]-3-phenylpropanamido]-3-methylbutanoyl]pyrrolidin-2-yl]formamido}-3-carboxypropanamido]acetamido}-3-carbamoylpropanamido]-5-carbamimidamidopentanamido]-3-methylpentanoic acid

> <ALOGPS_LOGP>
-1.86

> <JCHEM_LOGP>
-8.507306458135448

> <ALOGPS_LOGS>
-4.59

> <JCHEM_MDDR_LIKE_RULE>
0

> <JCHEM_NEUTRAL_CHARGE>
1

> <JCHEM_NUMBER_OF_RINGS>
2

> <JCHEM_PHYSIOLOGICAL_CHARGE>
1

> <JCHEM_PKA>
3.8594069882375917

> <JCHEM_PKA_STRONGEST_ACIDIC>
3.254900420252064

> <JCHEM_PKA_STRONGEST_BASIC>
12.465490395324268

> <JCHEM_POLAR_SURFACE_AREA>
491.51999999999987

> <JCHEM_REFRACTIVITY>
290.02750000000003

> <JCHEM_ROTATABLE_BOND_COUNT>
33

> <JCHEM_RULE_OF_FIVE>
0

> <ALOGPS_SOLUBILITY>
2.77e-02 g/l

> <JCHEM_TRADITIONAL_IUPAC>
5-({4-[2-(3-methoxyphenyl)-2-oxoethoxy]phenyl}methyl)-1,3-thiazolidine-2,4-dione

> <JCHEM_VEBER_RULE>
0

> <DRUGBANK_ID>
DB16152

> <DRUG_GROUPS>
investigational

> <GENERIC_NAME>
VEGFR2-169

> <SYNONYMS>
Elpamotide; Vegfr2-169 peptide vaccine

$$$$
