
  Mrv1652310211603392D          

 17 17  0  0  1  0            999 V2000
   -1.4289    3.3000    0.0000 C   0  0  0  0  0  0  0  0  0  0  0  0
   -0.7145    3.7125    0.0000 C   0  0  0  0  0  0  0  0  0  0  0  0
    0.0000    3.3000    0.0000 C   0  0  2  0  0  0  0  0  0  0  0  0
    0.0000    2.4750    0.0000 C   0  0  1  0  0  0  0  0  0  0  0  0
   -0.7145    2.0625    0.0000 C   0  0  2  0  0  0  0  0  0  0  0  0
   -1.4289    2.4750    0.0000 C   0  0  0  0  0  0  0  0  0  0  0  0
   -0.7145    1.2375    0.0000 O   0  0  0  0  0  0  0  0  0  0  0  0
    0.7145    2.0625    0.0000 N   0  0  0  0  0  0  0  0  0  0  0  0
    1.4289    2.4750    0.0000 C   0  0  0  0  0  0  0  0  0  0  0  0
    1.4289    3.3000    0.0000 O   0  0  0  0  0  0  0  0  0  0  0  0
    2.1434    2.0625    0.0000 N   0  0  0  0  0  0  0  0  0  0  0  0
    2.8579    2.4750    0.0000 C   0  0  0  0  0  0  0  0  0  0  0  0
    3.5724    2.0625    0.0000 C   0  0  0  0  0  0  0  0  0  0  0  0
    4.2868    2.4750    0.0000 Cl  0  0  0  0  0  0  0  0  0  0  0  0
    2.1434    1.2375    0.0000 N   0  0  0  0  0  0  0  0  0  0  0  0
    2.8579    0.8250    0.0000 O   0  0  0  0  0  0  0  0  0  0  0  0
    0.7145    3.7125    0.0000 O   0  0  0  0  0  0  0  0  0  0  0  0
  1  2  1  0  0  0  0
  2  3  1  0  0  0  0
  3  4  1  0  0  0  0
  4  5  1  0  0  0  0
  5  6  1  0  0  0  0
  1  6  1  0  0  0  0
  5  7  1  1  0  0  0
  4  8  1  6  0  0  0
  8  9  1  0  0  0  0
  9 10  2  0  0  0  0
  9 11  1  0  0  0  0
 11 12  1  0  0  0  0
 12 13  1  0  0  0  0
 13 14  1  0  0  0  0
 11 15  1  0  0  0  0
 15 16  2  0  0  0  0
  3 17  1  1  0  0  0
M  END
> <DATABASE_ID>
DB12968

> <DATABASE_NAME>
drugbank

> <SMILES>
O[C@H]1CCC[C@@H](O)[C@@H]1NC(=O)N(CCCl)N=O

> <INCHI_IDENTIFIER>
InChI=1S/C9H16ClN3O4/c10-4-5-13(12-17)9(16)11-8-6(14)2-1-3-7(8)15/h6-8,14-15H,1-5H2,(H,11,16)/t6-,7+,8+

> <INCHI_KEY>
BQIFCAGMUAMYDV-JIGDXULJSA-N

> <FORMULA>
C9H16ClN3O4

> <MOLECULAR_WEIGHT>
265.69

> <EXACT_MASS>
265.0829337

> <JCHEM_ACCEPTOR_COUNT>
4

> <JCHEM_ATOM_COUNT>
33

> <JCHEM_AVERAGE_POLARIZABILITY>
25.038526558274384

> <JCHEM_BIOAVAILABILITY>
1

> <JCHEM_DONOR_COUNT>
3

> <JCHEM_FORMAL_CHARGE>
0

> <JCHEM_GHOSE_FILTER>
1

> <JCHEM_IUPAC>
3-(2-chloroethyl)-3-nitroso-1-[(1r,2R,6S)-2,6-dihydroxycyclohexyl]urea

> <ALOGPS_LOGP>
0.12

> <JCHEM_LOGP>
0.0076297559999996545

> <ALOGPS_LOGS>
-1.81

> <JCHEM_MDDR_LIKE_RULE>
0

> <JCHEM_NUMBER_OF_RINGS>
1

> <JCHEM_PHYSIOLOGICAL_CHARGE>
0

> <JCHEM_PKA>
14.138536582450765

> <JCHEM_PKA_STRONGEST_ACIDIC>
12.371322092920082

> <JCHEM_PKA_STRONGEST_BASIC>
-3.0163846372342586

> <JCHEM_POLAR_SURFACE_AREA>
102.23

> <JCHEM_REFRACTIVITY>
61.3736

> <JCHEM_ROTATABLE_BOND_COUNT>
4

> <JCHEM_RULE_OF_FIVE>
1

> <ALOGPS_SOLUBILITY>
4.15e+00 g/l

> <JCHEM_TRADITIONAL_IUPAC>
3-(2-chloroethyl)-3-nitroso-1-[(1r,2R,6S)-2,6-dihydroxycyclohexyl]urea

> <JCHEM_VEBER_RULE>
0

> <DRUGBANK_ID>
DB12968

> <DRUG_GROUPS>
investigational

> <GENERIC_NAME>
DONU

$$$$
