
  Mrv1909 03042003492D          

 58 60  0  0  0  0            999 V2000
    3.4505   -1.4790    0.0000 C   0  0  2  0  0  0  0  0  0  0  0  0
    0.5407    0.2081    0.0000 C   0  0  2  0  0  0  0  0  0  0  0  0
   -1.4102    0.2081    0.0000 C   0  0  0  0  0  0  0  0  0  0  0  0
   -4.3647    0.0854    0.0000 C   0  0  1  0  0  0  0  0  0  0  0  0
   -0.4291   -0.3604    0.0000 C   0  0  2  0  0  0  0  0  0  0  0  0
    4.0823   -1.8470    0.0000 C   0  0  1  0  0  0  0  0  0  0  0  0
    1.5144   -1.4865    0.0000 C   0  0  1  0  0  0  0  0  0  0  0  0
   -4.8515   -0.9364    0.0000 C   0  0  1  0  0  0  0  0  0  0  0  0
    1.5144   -0.3604    0.0000 C   0  0  1  0  0  0  0  0  0  0  0  0
   -3.2498   -2.1888    0.0000 N   0  0  0  0  0  0  0  0  0  0  0  0
   -2.3839   -0.3604    0.0000 O   0  0  0  0  0  0  0  0  0  0  0  0
    2.4806   -2.0439    0.0000 O   0  0  0  0  0  0  0  0  0  0  0  0
    2.4472    1.3193    0.0000 C   0  0  2  0  0  0  0  0  0  0  0  0
    4.7178   -1.4790    0.0000 C   0  0  2  0  0  0  0  0  0  0  0  0
    0.5407   -2.0439    0.0000 C   0  0  1  0  0  0  0  0  0  0  0  0
    1.1762    1.3193    0.0000 C   0  0  1  0  0  0  0  0  0  0  0  0
   -4.3535   -1.9473    0.0000 C   0  0  2  0  0  0  0  0  0  0  0  0
    1.8117    0.9439    0.0000 C   0  0  0  0  0  0  0  0  0  0  0  0
    3.4505   -0.7432    0.0000 O   0  0  0  0  0  0  0  0  0  0  0  0
    1.1762    2.0439    0.0000 O   0  0  0  0  0  0  0  0  0  0  0  0
   -3.2685    0.3418    0.0000 C   0  0  2  0  0  0  0  0  0  0  0  0
    2.4472    2.0439    0.0000 C   0  0  2  0  0  0  0  0  0  0  0  0
    0.5407    0.9439    0.0000 O   0  0  0  0  0  0  0  0  0  0  0  0
    1.8117    2.4156    0.0000 C   0  0  2  0  0  0  0  0  0  0  0  0
    4.7178   -0.7432    0.0000 C   0  0  0  0  0  0  0  0  0  0  0  0
   -2.3728   -1.4865    0.0000 C   0  0  0  0  0  0  0  0  0  0  0  0
    5.3532   -1.8470    0.0000 N   0  0  0  0  0  0  0  0  0  0  0  0
   -0.4291   -1.4865    0.0000 C   0  0  0  0  0  0  0  0  0  0  0  0
   -1.4140    1.3415    0.0000 O   0  0  0  0  0  0  0  0  0  0  0  0
    4.0823   -0.3753    0.0000 C   0  0  1  0  0  0  0  0  0  0  0  0
   -1.4102   -2.0439    0.0000 C   0  0  1  0  0  0  0  0  0  0  0  0
   -5.4907    0.0854    0.0000 O   0  0  0  0  0  0  0  0  0  0  0  0
    4.0749   -2.5828    0.0000 O   0  0  0  0  0  0  0  0  0  0  0  0
   -5.9850   -0.9328    0.0000 O   0  0  0  0  0  0  0  0  0  0  0  0
    1.5107   -2.6050    0.0000 O   0  0  0  0  0  0  0  0  0  0  0  0
    2.4434    0.5834    0.0000 O   0  0  0  0  0  0  0  0  0  0  0  0
   -4.9296    1.0628    0.0000 C   0  0  0  0  0  0  0  0  0  0  0  0
   -0.4291   -0.9551    0.0000 C   0  0  0  0  0  0  0  0  0  0  0  0
    2.1908   -0.0409    0.0000 C   0  0  0  0  0  0  0  0  0  0  0  0
    3.0827    0.9439    0.0000 C   0  0  0  0  0  0  0  0  0  0  0  0
   -0.4329   -2.6013    0.0000 C   0  0  0  0  0  0  0  0  0  0  0  0
   -5.1562   -2.7389    0.0000 C   0  0  0  0  0  0  0  0  0  0  0  0
   -2.9822    1.4307    0.0000 C   0  0  0  0  0  0  0  0  0  0  0  0
    1.8080    3.1514    0.0000 C   0  0  0  0  0  0  0  0  0  0  0  0
    5.3459   -2.5828    0.0000 C   0  0  0  0  0  0  0  0  0  0  0  0
    5.9850   -1.4790    0.0000 C   0  0  0  0  0  0  0  0  0  0  0  0
    4.0749    0.3604    0.0000 C   0  0  0  0  0  0  0  0  0  0  0  0
   -1.4140   -3.1514    0.0000 C   0  0  0  0  0  0  0  0  0  0  0  0
    3.1607    0.0482    0.0000 C   0  0  0  0  0  0  0  0  0  0  0  0
   -3.7775    2.2260    0.0000 C   0  0  0  0  0  0  0  0  0  0  0  0
    2.8113   -1.1112    0.0000 H   0  0  0  0  0  0  0  0  0  0  0  0
    1.1725    0.5834    0.0000 H   0  0  0  0  0  0  0  0  0  0  0  0
    2.8039    2.6831    0.0000 O   0  0  0  0  0  0  0  0  0  0  0  0
    3.2721    2.0476    0.0000 C   0  0  0  0  0  0  0  0  0  0  0  0
    3.6363    2.6831    0.0000 N   0  0  0  0  0  0  0  0  0  0  0  0
    4.3686    2.6831    0.0000 C   0  0  0  0  0  0  0  0  0  0  0  0
    4.7327    2.0476    0.0000 C   0  0  0  0  0  0  0  0  0  0  0  0
    5.4648    2.0476    0.0000 C   0  0  0  0  0  0  0  0  0  0  0  0
  7 12  1  1  0  0  0
  8 17  1  0  0  0  0
  9  7  1  0  0  0  0
 10 26  1  0  0  0  0
 11  3  1  0  0  0  0
 12  1  1  0  0  0  0
 13 18  1  0  0  0  0
 14  6  1  0  0  0  0
 15  7  1  0  0  0  0
 16 23  1  0  0  0  0
 17 10  1  0  0  0  0
 18 16  1  0  0  0  0
 19  1  1  0  0  0  0
 20 16  1  0  0  0  0
 21 11  1  0  0  0  0
 22 24  1  0  0  0  0
  2 23  1  1  0  0  0
 24 20  1  0  0  0  0
 25 14  1  0  0  0  0
 26 31  1  0  0  0  0
 14 27  1  6  0  0  0
 28 15  1  0  0  0  0
 29  3  2  0  0  0  0
 30 19  1  0  0  0  0
 31 28  1  0  0  0  0
  4 32  1  6  0  0  0
  6 33  1  1  0  0  0
  8 34  1  1  0  0  0
 15 35  1  6  0  0  0
 13 36  1  6  0  0  0
  4 37  1  1  0  0  0
  5 38  1  1  0  0  0
  9 39  1  6  0  0  0
 13 40  1  1  0  0  0
 15 41  1  1  0  0  0
 17 42  1  6  0  0  0
 21 43  1  1  0  0  0
 24 44  1  1  0  0  0
 45 27  1  0  0  0  0
 46 27  1  0  0  0  0
 30 47  1  6  0  0  0
 31 48  1  1  0  0  0
 49 36  1  0  0  0  0
 50 43  1  0  0  0  0
  1 51  1  1  0  0  0
 16 52  1  1  0  0  0
 30 25  1  0  0  0  0
 22 13  1  0  0  0  0
  8  4  1  0  0  0  0
 22 53  1  6  0  0  0
  2  9  1  0  0  0  0
 22 54  1  1  0  0  0
  3  5  1  0  0  0  0
 54 55  1  0  0  0  0
  4 21  1  0  0  0  0
 55 56  1  0  0  0  0
  5  2  1  0  0  0  0
 56 57  1  0  0  0  0
  6  1  1  0  0  0  0
 57 58  1  0  0  0  0
M  END
> <DATABASE_ID>
DB11474

> <DATABASE_NAME>
drugbank

> <SMILES>
[H][C@@]1(C[C@@](C)(OC)[C@](O)(CNCCC)[C@H](C)O1)O[C@H]1[C@H](C)[C@@H](O[C@]2([H])O[C@H](C)C[C@@H]([C@H]2O)N(C)C)[C@](C)(O)C[C@@H](C)CN[C@H](C)[C@@H](O)[C@](C)(O)[C@@H](CC)OC(=O)[C@@H]1C

> <INCHI_IDENTIFIER>
InChI=1S/C41H79N3O12/c1-15-17-42-22-41(50)28(8)53-31(20-39(41,10)51-14)55-33-25(5)35(56-37-32(45)29(44(12)13)18-24(4)52-37)38(9,48)19-23(3)21-43-27(7)34(46)40(11,49)30(16-2)54-36(47)26(33)6/h23-35,37,42-43,45-46,48-50H,15-22H2,1-14H3/t23-,24-,25+,26-,27-,28+,29+,30-,31+,32-,33+,34-,35-,37+,38-,39-,40-,41+/m1/s1

> <INCHI_KEY>
GUARTUJKFNAVIK-QPTWMBCESA-N

> <FORMULA>
C41H79N3O12

> <MOLECULAR_WEIGHT>
806.092

> <EXACT_MASS>
805.566374996

> <JCHEM_ACCEPTOR_COUNT>
14

> <JCHEM_ATOM_COUNT>
135

> <JCHEM_AVERAGE_NEUTRAL_MICROSPECIES_CHARGE>
2.9959082761788536

> <JCHEM_AVERAGE_POLARIZABILITY>
90.91590561120478

> <JCHEM_BIOAVAILABILITY>
0

> <JCHEM_DONOR_COUNT>
7

> <JCHEM_FORMAL_CHARGE>
0

> <JCHEM_GHOSE_FILTER>
0

> <JCHEM_IUPAC>
(2R,3S,4R,5R,8R,10R,11R,12S,13S,14R)-11-{[(2S,3R,4S,6R)-4-(dimethylamino)-3-hydroxy-6-methyloxan-2-yl]oxy}-2-ethyl-3,4,10-trihydroxy-13-{[(2R,4R,5S,6S)-5-hydroxy-4-methoxy-4,6-dimethyl-5-[(propylamino)methyl]oxan-2-yl]oxy}-3,5,8,10,12,14-hexamethyl-1-oxa-6-azacyclopentadecan-15-one

> <ALOGPS_LOGP>
2.78

> <JCHEM_LOGP>
2.50042931033333

> <ALOGPS_LOGS>
-3.64

> <JCHEM_MDDR_LIKE_RULE>
1

> <JCHEM_NEUTRAL_CHARGE>
3

> <JCHEM_NUMBER_OF_RINGS>
3

> <JCHEM_PHYSIOLOGICAL_CHARGE>
3

> <JCHEM_PKA>
12.71910060295625

> <JCHEM_PKA_STRONGEST_ACIDIC>
12.204278544884497

> <JCHEM_PKA_STRONGEST_BASIC>
10.21097691123184

> <JCHEM_POLAR_SURFACE_AREA>
200.89999999999998

> <JCHEM_REFRACTIVITY>
210.70010000000005

> <JCHEM_ROTATABLE_BOND_COUNT>
11

> <JCHEM_RULE_OF_FIVE>
0

> <ALOGPS_SOLUBILITY>
1.84e-01 g/l

> <JCHEM_TRADITIONAL_IUPAC>
4,4'-dihydroxy-10,10'-dioxo-5,5'-bis({[3,4,5-trihydroxy-6-(hydroxymethyl)oxan-2-yl]oxy})-9H,9'H-[9,9'-bianthracene]-2,2'-dicarboxylic acid

> <JCHEM_VEBER_RULE>
0

> <DRUGBANK_ID>
DB11474

> <DRUG_GROUPS>
vet_approved

> <GENERIC_NAME>
Tulathromycin A

> <SYNONYMS>
Tulathromycin; Tulathromycin A

> <INTERNATIONAL_BRANDS>
Draxxin

$$$$
