
  Mrv1909 05201914562D          

 28 31  0  0  0  0            999 V2000
    0.0407   -0.1459    0.0000 F   0  0  0  0  0  0  0  0  0  0  0  0
    0.6538   -0.6979    0.0000 C   0  0  0  0  0  0  0  0  0  0  0  0
    0.0407   -1.2500    0.0000 F   0  0  0  0  0  0  0  0  0  0  0  0
    1.1387   -0.0305    0.0000 O   0  0  0  0  0  0  0  0  0  0  0  0
    1.9233   -0.2854    0.0000 C   0  0  0  0  0  0  0  0  0  0  0  0
    2.6378    0.1271    0.0000 C   0  0  0  0  0  0  0  0  0  0  0  0
    3.3523   -0.2854    0.0000 C   0  0  0  0  0  0  0  0  0  0  0  0
    3.3523   -1.1104    0.0000 C   0  0  0  0  0  0  0  0  0  0  0  0
    4.0668   -1.5229    0.0000 C   0  0  0  0  0  0  0  0  0  0  0  0
    4.0668   -2.3479    0.0000 N   0  0  0  0  0  0  0  0  0  0  0  0
    4.7812   -2.7604    0.0000 C   0  0  0  0  0  0  0  0  0  0  0  0
    4.7812   -3.5854    0.0000 C   0  0  0  0  0  0  0  0  0  0  0  0
    4.0668   -3.9979    0.0000 N   0  0  0  0  0  0  0  0  0  0  0  0
    3.3523   -3.5854    0.0000 C   0  0  0  0  0  0  0  0  0  0  0  0
    3.3523   -2.7604    0.0000 C   0  0  0  0  0  0  0  0  0  0  0  0
    4.0668   -4.8229    0.0000 C   0  0  0  0  0  0  0  0  0  0  0  0
    3.3523   -5.2354    0.0000 O   0  0  0  0  0  0  0  0  0  0  0  0
    4.7812   -5.2354    0.0000 N   0  0  0  0  0  0  0  0  0  0  0  0
    4.7812   -6.0604    0.0000 C   0  0  0  0  0  0  0  0  0  0  0  0
    5.4957   -6.4729    0.0000 C   0  0  0  0  0  0  0  0  0  0  0  0
    6.2102   -6.0604    0.0000 Cl  0  0  0  0  0  0  0  0  0  0  0  0
    5.4957   -7.2979    0.0000 C   0  0  0  0  0  0  0  0  0  0  0  0
    4.7812   -7.7104    0.0000 C   0  0  0  0  0  0  0  0  0  0  0  0
    4.0668   -7.2979    0.0000 N   0  0  0  0  0  0  0  0  0  0  0  0
    4.0668   -6.4729    0.0000 C   0  0  0  0  0  0  0  0  0  0  0  0
    2.6378   -1.5229    0.0000 C   0  0  0  0  0  0  0  0  0  0  0  0
    1.9233   -1.1104    0.0000 C   0  0  0  0  0  0  0  0  0  0  0  0
    1.1387   -1.3654    0.0000 O   0  0  0  0  0  0  0  0  0  0  0  0
  1  2  1  0  0  0  0
  2  3  1  0  0  0  0
  2  4  1  0  0  0  0
  4  5  1  0  0  0  0
  5  6  2  0  0  0  0
  6  7  1  0  0  0  0
  7  8  2  0  0  0  0
  8  9  1  0  0  0  0
  9 10  1  0  0  0  0
 10 11  1  0  0  0  0
 11 12  1  0  0  0  0
 12 13  1  0  0  0  0
 13 14  1  0  0  0  0
 14 15  1  0  0  0  0
 10 15  1  0  0  0  0
 13 16  1  0  0  0  0
 16 17  2  0  0  0  0
 16 18  1  0  0  0  0
 18 19  1  0  0  0  0
 19 20  2  0  0  0  0
 20 21  1  0  0  0  0
 20 22  1  0  0  0  0
 22 23  2  0  0  0  0
 23 24  1  0  0  0  0
 24 25  2  0  0  0  0
 19 25  1  0  0  0  0
  8 26  1  0  0  0  0
 26 27  2  0  0  0  0
  5 27  1  0  0  0  0
 27 28  1  0  0  0  0
  2 28  1  0  0  0  0
M  END
> <DATABASE_ID>
DB15173

> <DATABASE_NAME>
drugbank

> <SMILES>
FC1(F)OC2=CC=C(CN3CCN(CC3)C(=O)NC3=C(Cl)C=CN=C3)C=C2O1

> <INCHI_IDENTIFIER>
InChI=1S/C18H17ClF2N4O3/c19-13-3-4-22-10-14(13)23-17(26)25-7-5-24(6-8-25)11-12-1-2-15-16(9-12)28-18(20,21)27-15/h1-4,9-10H,5-8,11H2,(H,23,26)

> <INCHI_KEY>
YWGYNGCRVZLMCS-UHFFFAOYSA-N

> <FORMULA>
C18H17ClF2N4O3

> <MOLECULAR_WEIGHT>
410.81

> <EXACT_MASS>
410.0957244

> <JCHEM_ACCEPTOR_COUNT>
5

> <JCHEM_ATOM_COUNT>
45

> <JCHEM_AVERAGE_POLARIZABILITY>
38.60997812486839

> <JCHEM_BIOAVAILABILITY>
1

> <JCHEM_DONOR_COUNT>
1

> <JCHEM_FORMAL_CHARGE>
0

> <JCHEM_GHOSE_FILTER>
1

> <JCHEM_IUPAC>
N-(4-chloropyridin-3-yl)-4-[(2,2-difluoro-2H-1,3-benzodioxol-5-yl)methyl]piperazine-1-carboxamide

> <ALOGPS_LOGP>
2.75

> <JCHEM_LOGP>
3.298705604333334

> <ALOGPS_LOGS>
-3.47

> <JCHEM_MDDR_LIKE_RULE>
0

> <JCHEM_NUMBER_OF_RINGS>
4

> <JCHEM_PHYSIOLOGICAL_CHARGE>
0

> <JCHEM_PKA_STRONGEST_ACIDIC>
11.97616767884207

> <JCHEM_PKA_STRONGEST_BASIC>
6.0073510343630385

> <JCHEM_POLAR_SURFACE_AREA>
66.93

> <JCHEM_REFRACTIVITY>
96.5385

> <JCHEM_ROTATABLE_BOND_COUNT>
3

> <JCHEM_RULE_OF_FIVE>
1

> <ALOGPS_SOLUBILITY>
1.41e-01 g/l

> <JCHEM_TRADITIONAL_IUPAC>
(2R)-14-fluoro-2-methyl-6,9,10,19-tetraazapentacyclo[14.2.1.0^{2,6}.0^{8,18}.0^{12,17}]nonadeca-1(18),8,12(17),13,15-pentaen-11-one

> <JCHEM_VEBER_RULE>
0

> <DRUGBANK_ID>
DB15173

> <DRUG_GROUPS>
investigational

> <GENERIC_NAME>
JNJ-42165279

$$$$
