
  Mrv1652306131722042D          

 11  9  0  0  1  0            999 V2000
    4.6184    1.8414    0.0000 C   0  0  2  0  0  0  0  0  0  0  0  0
    3.9039    1.4289    0.0000 C   0  0  2  0  0  0  0  0  0  0  0  0
    3.1895    1.8414    0.0000 C   0  0  0  0  0  0  0  0  0  0  0  0
    3.1895    2.6664    0.0000 O   0  0  0  0  0  0  0  0  0  0  0  0
    2.4750    1.4289    0.0000 O   0  5  0  0  0  0  0  0  0  0  0  0
    3.9039    0.6039    0.0000 O   0  0  0  0  0  0  0  0  0  0  0  0
    5.3329    1.4289    0.0000 C   0  0  0  0  0  0  0  0  0  0  0  0
    6.0474    1.8414    0.0000 O   0  0  0  0  0  0  0  0  0  0  0  0
    5.3329    0.6039    0.0000 O   0  0  0  0  0  0  0  0  0  0  0  0
    4.6184    2.6664    0.0000 O   0  0  0  0  0  0  0  0  0  0  0  0
    1.7605    1.0164    0.0000 K   0  3  0  0  0  0  0  0  0  0  0  0
  1  2  1  0  0  0  0
  2  3  1  0  0  0  0
  3  4  2  0  0  0  0
  3  5  1  0  0  0  0
  2  6  1  1  0  0  0
  1  7  1  0  0  0  0
  7  8  2  0  0  0  0
  7  9  1  0  0  0  0
  1 10  1  1  0  0  0
M  CHG  2   5  -1  11   1
M  END
> <DATABASE_ID>
DB11107

> <DATABASE_NAME>
drugbank

> <SMILES>
[K+].O[C@H]([C@@H](O)C([O-])=O)C(O)=O

> <INCHI_IDENTIFIER>
InChI=1S/C4H6O6.K/c5-1(3(7)8)2(6)4(9)10;/h1-2,5-6H,(H,7,8)(H,9,10);/q;+1/p-1/t1-,2-;/m1./s1

> <INCHI_KEY>
KYKNRZGSIGMXFH-ZVGUSBNCSA-M

> <FORMULA>
C4H5KO6

> <MOLECULAR_WEIGHT>
188.176

> <EXACT_MASS>
187.97231937

> <JCHEM_ACCEPTOR_COUNT>
6

> <JCHEM_ATOM_COUNT>
16

> <JCHEM_AVERAGE_POLARIZABILITY>
11.2617467211087

> <JCHEM_BIOAVAILABILITY>
1

> <JCHEM_DONOR_COUNT>
3

> <JCHEM_FORMAL_CHARGE>
0

> <JCHEM_GHOSE_FILTER>
0

> <JCHEM_IUPAC>
potassium (2R,3R)-3-carboxy-2,3-dihydroxypropanoate

> <ALOGPS_LOGP>
-1.45

> <JCHEM_LOGP>
-1.8287998886666665

> <ALOGPS_LOGS>
0.48

> <JCHEM_MDDR_LIKE_RULE>
0

> <JCHEM_NUMBER_OF_RINGS>
0

> <JCHEM_PHYSIOLOGICAL_CHARGE>
-2

> <JCHEM_PKA>
4.792876457889945

> <JCHEM_PKA_STRONGEST_ACIDIC>
2.719041003817166

> <JCHEM_PKA_STRONGEST_BASIC>
-4.330574673439462

> <JCHEM_POLAR_SURFACE_AREA>
117.89000000000001

> <JCHEM_REFRACTIVITY>
37.05049999999999

> <JCHEM_ROTATABLE_BOND_COUNT>
3

> <JCHEM_RULE_OF_FIVE>
1

> <ALOGPS_SOLUBILITY>
5.66e+02 g/l

> <JCHEM_TRADITIONAL_IUPAC>
potassium L-tartrate(1-)

> <JCHEM_VEBER_RULE>
0

> <DRUGBANK_ID>
DB11107

> <DRUG_GROUPS>
experimental

> <GENERIC_NAME>
Potassium bitartrate

> <SYNONYMS>
Potassium bitartrate; potassium hydrogen tartrate

> <PRODUCTS>
Ceo-two; Ceo-two Bowel Evacuant Suppositories; Phexxi

$$$$
