
  Mrv1652310211600372D          

 16 17  0  0  0  0            999 V2000
    1.4289   -1.6500    0.0000 C   0  0  0  0  0  0  0  0  0  0  0  0
    1.4289   -2.4750    0.0000 C   0  0  0  0  0  0  0  0  0  0  0  0
    2.0964   -2.9599    0.0000 C   0  0  0  0  0  0  0  0  0  0  0  0
    1.8414   -3.7445    0.0000 S   0  0  0  0  0  0  0  0  0  0  0  0
    1.0164   -3.7445    0.0000 C   0  0  0  0  0  0  0  0  0  0  0  0
    0.7615   -2.9599    0.0000 N   0  3  0  0  0  0  0  0  0  0  0  0
   -0.0231   -2.7050    0.0000 C   0  0  0  0  0  0  0  0  0  0  0  0
   -0.6362   -3.2570    0.0000 C   0  0  0  0  0  0  0  0  0  0  0  0
   -0.4647   -4.0640    0.0000 O   0  0  0  0  0  0  0  0  0  0  0  0
   -1.4208   -3.0021    0.0000 C   0  0  0  0  0  0  0  0  0  0  0  0
   -2.0339   -3.5541    0.0000 C   0  0  0  0  0  0  0  0  0  0  0  0
   -2.8186   -3.2992    0.0000 C   0  0  0  0  0  0  0  0  0  0  0  0
   -2.9901   -2.4922    0.0000 C   0  0  0  0  0  0  0  0  0  0  0  0
   -2.3770   -1.9402    0.0000 C   0  0  0  0  0  0  0  0  0  0  0  0
   -1.5924   -2.1951    0.0000 C   0  0  0  0  0  0  0  0  0  0  0  0
    2.8810   -2.7050    0.0000 C   0  0  0  0  0  0  0  0  0  0  0  0
  1  2  1  0  0  0  0
  2  3  2  0  0  0  0
  3  4  1  0  0  0  0
  4  5  1  0  0  0  0
  5  6  2  0  0  0  0
  2  6  1  0  0  0  0
  6  7  1  0  0  0  0
  7  8  1  0  0  0  0
  8  9  2  0  0  0  0
  8 10  1  0  0  0  0
 10 11  2  0  0  0  0
 11 12  1  0  0  0  0
 12 13  2  0  0  0  0
 13 14  1  0  0  0  0
 14 15  2  0  0  0  0
 10 15  1  0  0  0  0
  3 16  1  0  0  0  0
M  CHG  1   6   1
M  END
> <DATABASE_ID>
DB12497

> <DATABASE_NAME>
drugbank

> <SMILES>
CC1=C(C)[N+](CC(=O)C2=CC=CC=C2)=CS1

> <INCHI_IDENTIFIER>
InChI=1S/C13H14NOS/c1-10-11(2)16-9-14(10)8-13(15)12-6-4-3-5-7-12/h3-7,9H,8H2,1-2H3/q+1

> <INCHI_KEY>
LYLFQLCLUXOFOL-UHFFFAOYSA-N

> <FORMULA>
C13H14NOS

> <MOLECULAR_WEIGHT>
232.32

> <EXACT_MASS>
232.079061669

> <JCHEM_ACCEPTOR_COUNT>
1

> <JCHEM_ATOM_COUNT>
30

> <JCHEM_AVERAGE_POLARIZABILITY>
24.96563755714474

> <JCHEM_BIOAVAILABILITY>
1

> <JCHEM_DONOR_COUNT>
0

> <JCHEM_FORMAL_CHARGE>
1

> <JCHEM_GHOSE_FILTER>
0

> <JCHEM_IUPAC>
4,5-dimethyl-3-(2-oxo-2-phenylethyl)-1,3-thiazol-3-ium

> <ALOGPS_LOGP>
-0.77

> <JCHEM_LOGP>
-0.8550986258050786

> <ALOGPS_LOGS>
-4.80

> <JCHEM_MDDR_LIKE_RULE>
0

> <JCHEM_NUMBER_OF_RINGS>
2

> <JCHEM_PHYSIOLOGICAL_CHARGE>
1

> <JCHEM_PKA_STRONGEST_ACIDIC>
14.690769437082473

> <JCHEM_PKA_STRONGEST_BASIC>
-8.484038654041216

> <JCHEM_POLAR_SURFACE_AREA>
20.95

> <JCHEM_REFRACTIVITY>
65.97710000000001

> <JCHEM_ROTATABLE_BOND_COUNT>
3

> <JCHEM_RULE_OF_FIVE>
1

> <ALOGPS_SOLUBILITY>
4.24e-03 g/l

> <JCHEM_TRADITIONAL_IUPAC>
4,5-dimethyl-3-(2-oxo-2-phenylethyl)-1,3-thiazol-3-ium

> <JCHEM_VEBER_RULE>
1

> <DRUGBANK_ID>
DB12497

> <DRUG_GROUPS>
investigational

> <GENERIC_NAME>
Alagebrium

$$$$
