
  Mrv1909 05201915052D          

 42 47  0  0  1  0            999 V2000
    0.8817    2.7451    0.0000 C   0  0  0  0  0  0  0  0  0  0  0  0
    1.0322    1.8565    0.0000 C   0  0  0  0  0  0  0  0  0  0  0  0
    0.0484    1.6727    0.0000 C   0  0  0  0  0  0  0  0  0  0  0  0
    1.7965    2.1672    0.0000 C   0  0  0  0  0  0  0  0  0  0  0  0
    2.4477    1.6606    0.0000 C   0  0  0  0  0  0  0  0  0  0  0  0
    2.3346    0.8434    0.0000 C   0  0  0  0  0  0  0  0  0  0  0  0
    1.6157    0.6402    0.0000 C   0  0  0  0  0  0  0  0  0  0  0  0
    0.9191    1.0393    0.0000 C   0  0  0  0  0  0  0  0  0  0  0  0
    3.1271    1.0725    0.0000 N   0  0  0  0  0  0  0  0  0  0  0  0
    3.5899    0.3895    0.0000 C   0  0  2  0  0  0  0  0  0  0  0  0
    3.0834   -0.2617    0.0000 C   0  0  2  0  0  0  0  0  0  0  0  0
    3.3124   -1.0543    0.0000 C   0  0  0  0  0  0  0  0  0  0  0  0
    2.7406   -1.6489    0.0000 C   0  0  0  0  0  0  0  0  0  0  0  0
    1.7175   -1.6497    0.0000 F   0  0  0  0  0  0  0  0  0  0  0  0
    2.9696   -2.4415    0.0000 C   0  0  0  0  0  0  0  0  0  0  0  0
    2.7084   -3.2920    0.0000 Cl  0  0  0  0  0  0  0  0  0  0  0  0
    3.7705   -2.6394    0.0000 N   0  0  0  0  0  0  0  0  0  0  0  0
    4.3424   -2.0447    0.0000 C   0  0  0  0  0  0  0  0  0  0  0  0
    4.1133   -1.2522    0.0000 C   0  0  0  0  0  0  0  0  0  0  0  0
    2.3075    0.0188    0.0000 C   0  0  2  0  0  0  0  0  0  0  0  0
    2.2804   -0.8057    0.0000 C   0  0  0  0  0  0  0  0  0  0  0  0
    2.2299   -1.7314    0.0000 O   0  0  0  0  0  0  0  0  0  0  0  0
    1.4879   -1.0348    0.0000 N   0  0  0  0  0  0  0  0  0  0  0  0
    1.0251   -0.3518    0.0000 C   0  0  0  0  0  0  0  0  0  0  0  0
    0.2079   -0.2387    0.0000 C   0  0  0  0  0  0  0  0  0  0  0  0
   -0.1027    0.5256    0.0000 C   0  0  0  0  0  0  0  0  0  0  0  0
   -0.9807    0.4454    0.0000 Cl  0  0  0  0  0  0  0  0  0  0  0  0
    0.4038    1.1768    0.0000 C   0  0  0  0  0  0  0  0  0  0  0  0
    1.2210    1.0637    0.0000 C   0  0  0  0  0  0  0  0  0  0  0  0
    1.5317    0.2994    0.0000 C   0  0  0  0  0  0  0  0  0  0  0  0
    4.4545    0.5013    0.0000 C   0  0  0  0  0  0  0  0  0  0  0  0
    5.1083   -0.0306    0.0000 O   0  0  0  0  0  0  0  0  0  0  0  0
    4.8625    1.2524    0.0000 N   0  0  0  0  0  0  0  0  0  0  0  0
    5.6747    1.0359    0.0000 C   0  0  2  0  0  0  0  0  0  0  0  0
    6.1105    1.7364    0.0000 C   0  0  0  0  0  0  0  0  0  0  0  0
    6.9350    1.7094    0.0000 C   0  0  0  0  0  0  0  0  0  0  0  0
    7.3239    0.9818    0.0000 C   0  0  2  0  0  0  0  0  0  0  0  0
    6.8881    0.2812    0.0000 O   0  0  0  0  0  0  0  0  0  0  0  0
    6.0636    0.3083    0.0000 C   0  0  0  0  0  0  0  0  0  0  0  0
    8.1484    0.9547    0.0000 C   0  0  0  0  0  0  0  0  0  0  0  0
    8.5841    1.6553    0.0000 N   0  0  0  0  0  0  0  0  0  0  0  0
    8.5372    0.2271    0.0000 O   0  0  0  0  0  0  0  0  0  0  0  0
  1  2  1  0  0  0  0
  2  3  1  0  0  0  0
  2  4  1  0  0  0  0
  4  5  1  0  0  0  0
  5  6  1  0  0  0  0
  6  7  1  0  0  0  0
  7  8  1  0  0  0  0
  2  8  1  0  0  0  0
  6  9  1  0  0  0  0
 10  9  1  0  0  0  0
 11 10  1  0  0  0  0
 11 12  1  6  0  0  0
 12 13  2  0  0  0  0
 13 14  1  0  0  0  0
 13 15  1  0  0  0  0
 15 16  1  0  0  0  0
 15 17  2  0  0  0  0
 17 18  1  0  0  0  0
 18 19  2  0  0  0  0
 12 19  1  0  0  0  0
 11 20  1  0  0  0  0
 20  6  1  0  0  0  0
 20 21  1  6  0  0  0
 21 22  2  0  0  0  0
 21 23  1  0  0  0  0
 23 24  1  0  0  0  0
 24 25  2  0  0  0  0
 25 26  1  0  0  0  0
 26 27  1  0  0  0  0
 26 28  2  0  0  0  0
 28 29  1  0  0  0  0
 29 30  2  0  0  0  0
 20 30  1  0  0  0  0
 24 30  1  0  0  0  0
 10 31  1  1  0  0  0
 31 32  2  0  0  0  0
 31 33  1  0  0  0  0
 34 33  1  6  0  0  0
 34 35  1  0  0  0  0
 35 36  1  0  0  0  0
 37 36  1  0  0  0  0
 37 38  1  0  0  0  0
 38 39  1  0  0  0  0
 34 39  1  0  0  0  0
 37 40  1  1  0  0  0
 40 41  1  0  0  0  0
 40 42  2  0  0  0  0
M  END
> <DATABASE_ID>
DB15257

> <DATABASE_NAME>
drugbank

> <SMILES>
CC1(C)CCC2(CC1)N[C@H]([C@H](C1=C(F)C(Cl)=NC=C1)[C@]21C(=O)NC2=CC(Cl)=CC=C12)C(=O)N[C@@H]1CC[C@H](OC1)C(N)=O

> <INCHI_IDENTIFIER>
InChI=1S/C30H34Cl2FN5O4/c1-28(2)8-10-29(11-9-28)30(18-5-3-15(31)13-19(18)37-27(30)41)21(17-7-12-35-24(32)22(17)33)23(38-29)26(40)36-16-4-6-20(25(34)39)42-14-16/h3,5,7,12-13,16,20-21,23,38H,4,6,8-11,14H2,1-2H3,(H2,34,39)(H,36,40)(H,37,41)/t16-,20+,21+,23-,30-/m1/s1

> <INCHI_KEY>
RYAYYVTWKAOAJF-QISPRATLSA-N

> <FORMULA>
C30H34Cl2FN5O4

> <MOLECULAR_WEIGHT>
618.53

> <EXACT_MASS>
617.1971882

> <JCHEM_ACCEPTOR_COUNT>
6

> <JCHEM_ATOM_COUNT>
76

> <JCHEM_AVERAGE_POLARIZABILITY>
62.24897049015252

> <JCHEM_BIOAVAILABILITY>
1

> <JCHEM_DONOR_COUNT>
4

> <JCHEM_FORMAL_CHARGE>
0

> <JCHEM_GHOSE_FILTER>
0

> <JCHEM_IUPAC>
(3'R,4'S,5'R)-N-[(3R,6S)-6-carbamoyloxan-3-yl]-6''-chloro-4'-(2-chloro-3-fluoropyridin-4-yl)-4,4-dimethyl-2''-oxo-1'',2''-dihydrodispiro[cyclohexane-1,2'-pyrrolidine-3',3''-indole]-5'-carboxamide

> <ALOGPS_LOGP>
3.76

> <JCHEM_LOGP>
3.312882683

> <ALOGPS_LOGS>
-5.15

> <JCHEM_MDDR_LIKE_RULE>
0

> <JCHEM_NUMBER_OF_RINGS>
6

> <JCHEM_PHYSIOLOGICAL_CHARGE>
1

> <JCHEM_PKA>
13.414986356966695

> <JCHEM_PKA_STRONGEST_ACIDIC>
12.738289782660013

> <JCHEM_PKA_STRONGEST_BASIC>
8.967851995571245

> <JCHEM_POLAR_SURFACE_AREA>
135.44

> <JCHEM_REFRACTIVITY>
156.81569999999996

> <JCHEM_ROTATABLE_BOND_COUNT>
4

> <JCHEM_RULE_OF_FIVE>
0

> <ALOGPS_SOLUBILITY>
4.41e-03 g/l

> <JCHEM_TRADITIONAL_IUPAC>
(2R)-14-fluoro-2-methyl-6,9,10,19-tetraazapentacyclo[14.2.1.0^{2,6}.0^{8,18}.0^{12,17}]nonadeca-1(18),8,12(17),13,15-pentaen-11-one

> <JCHEM_VEBER_RULE>
0

> <DRUGBANK_ID>
DB15257

> <DRUG_GROUPS>
investigational

> <GENERIC_NAME>
Milademetan

> <SYNONYMS>
Milademetan

$$$$
