
  Mrv1718007031813592D          

 10 10  0  0  0  0            999 V2000
   -1.4289   -0.8250    0.0000 C   0  0  0  0  0  0  0  0  0  0  0  0
   -0.7144   -0.4125    0.0000 C   0  0  0  0  0  0  0  0  0  0  0  0
   -2.1434   -0.4125    0.0000 C   0  0  0  0  0  0  0  0  0  0  0  0
   -2.1434    0.4125    0.0000 C   0  0  0  0  0  0  0  0  0  0  0  0
   -1.4289    0.8250    0.0000 C   0  0  0  0  0  0  0  0  0  0  0  0
   -0.7144    0.4125    0.0000 C   0  0  0  0  0  0  0  0  0  0  0  0
    0.0000    0.8250    0.0000 C   0  0  0  0  0  0  0  0  0  0  0  0
    0.7144    0.4125    0.0000 C   0  0  0  0  0  0  0  0  0  0  0  0
    1.4289    0.8250    0.0000 C   0  0  0  0  0  0  0  0  0  0  0  0
    2.1434    0.4125    0.0000 O   0  0  0  0  0  0  0  0  0  0  0  0
  1  2  2  0  0  0  0
  3  1  1  0  0  0  0
  3  4  2  0  0  0  0
  4  5  1  0  0  0  0
  5  6  2  0  0  0  0
  2  6  1  0  0  0  0
  6  7  1  0  0  0  0
  7  8  2  0  0  0  0
  8  9  1  0  0  0  0
  9 10  1  0  0  0  0
M  END
> <DATABASE_ID>
DB14186

> <DATABASE_NAME>
drugbank

> <SMILES>
OC\C=C\C1=CC=CC=C1

> <INCHI_IDENTIFIER>
InChI=1S/C9H10O/c10-8-4-7-9-5-2-1-3-6-9/h1-7,10H,8H2/b7-4+

> <INCHI_KEY>
OOCCDEMITAIZTP-QPJJXVBHSA-N

> <FORMULA>
C9H10O

> <MOLECULAR_WEIGHT>
134.1751

> <EXACT_MASS>
134.073164942

> <JCHEM_ACCEPTOR_COUNT>
1

> <JCHEM_ATOM_COUNT>
20

> <JCHEM_AVERAGE_POLARIZABILITY>
15.411925629164916

> <JCHEM_BIOAVAILABILITY>
1

> <JCHEM_DONOR_COUNT>
1

> <JCHEM_FORMAL_CHARGE>
0

> <JCHEM_GHOSE_FILTER>
0

> <JCHEM_IUPAC>
(2E)-3-phenylprop-2-en-1-ol

> <ALOGPS_LOGP>
1.93

> <JCHEM_LOGP>
1.8158117219999996

> <ALOGPS_LOGS>
-1.76

> <JCHEM_MDDR_LIKE_RULE>
0

> <JCHEM_NUMBER_OF_RINGS>
1

> <JCHEM_PHYSIOLOGICAL_CHARGE>
0

> <JCHEM_PKA_STRONGEST_ACIDIC>
15.62297059992013

> <JCHEM_PKA_STRONGEST_BASIC>
-2.526312659594935

> <JCHEM_POLAR_SURFACE_AREA>
20.23

> <JCHEM_REFRACTIVITY>
43.1925

> <JCHEM_ROTATABLE_BOND_COUNT>
2

> <JCHEM_RULE_OF_FIVE>
1

> <ALOGPS_SOLUBILITY>
2.34e+00 g/l

> <JCHEM_TRADITIONAL_IUPAC>
cinnamyl alcohol

> <JCHEM_VEBER_RULE>
1

> <DRUGBANK_ID>
DB14186

> <DRUG_GROUPS>
approved; experimental

> <GENERIC_NAME>
Cinnamyl alcohol

> <SYNONYMS>
(2E)-3-phenylprop-2-en-1-ol; (E)-cinnamyl alcohol; Cinnamyl alcohol; Styrylcarbinol

> <PRODUCTS>
T.R.U.E. Test Thin-Layer Rapid Use Patch Test

$$$$
