
  Mrv1652310201623202D          

 26 29  0  0  1  0            999 V2000
    2.1265   -1.1368    0.0000 C   0  0  0  0  0  0  0  0  0  0  0  0
    2.6666   -0.5132    0.0000 O   0  0  0  0  0  0  0  0  0  0  0  0
    3.4767   -0.6691    0.0000 C   0  0  0  0  0  0  0  0  0  0  0  0
    3.7467   -1.4486    0.0000 C   0  0  0  0  0  0  0  0  0  0  0  0
    4.5569   -1.6046    0.0000 C   0  0  0  0  0  0  0  0  0  0  0  0
    5.0970   -0.9809    0.0000 C   0  0  0  0  0  0  0  0  0  0  0  0
    4.8269   -0.2014    0.0000 C   0  0  0  0  0  0  0  0  0  0  0  0
    4.0168   -0.0454    0.0000 C   0  0  0  0  0  0  0  0  0  0  0  0
    3.7467    0.7341    0.0000 O   0  0  0  0  0  0  0  0  0  0  0  0
    2.9366    0.8900    0.0000 C   0  0  0  0  0  0  0  0  0  0  0  0
    5.3670    0.4223    0.0000 C   0  0  0  0  0  0  0  0  0  0  0  0
    6.1771    0.2664    0.0000 N   0  0  0  0  0  0  0  0  0  0  0  0
    6.7172    0.8900    0.0000 C   0  0  0  0  0  0  0  0  0  0  0  0
    7.5274    0.7341    0.0000 C   0  0  0  0  0  0  0  0  0  0  0  0
    7.7974   -0.0454    0.0000 C   0  0  0  0  0  0  0  0  0  0  0  0
    8.6075   -0.2014    0.0000 C   0  0  0  0  0  0  0  0  0  0  0  0
    8.8776   -0.9809    0.0000 C   0  0  0  0  0  0  0  0  0  0  0  0
    8.3375   -1.6046    0.0000 C   0  0  0  0  0  0  0  0  0  0  0  0
    7.5274   -1.4486    0.0000 C   0  0  0  0  0  0  0  0  0  0  0  0
    7.2573   -0.6691    0.0000 C   0  0  0  0  0  0  0  0  0  0  0  0
    6.4472   -0.5132    0.0000 C   0  0  2  0  0  0  0  0  0  0  0  0
    5.9071   -1.1368    0.0000 C   0  0  0  0  0  0  0  0  0  0  0  0
    8.6075   -2.3841    0.0000 O   0  0  0  0  0  0  0  0  0  0  0  0
    8.0675   -3.0077    0.0000 C   0  0  0  0  0  0  0  0  0  0  0  0
    9.6877   -1.1368    0.0000 O   0  0  0  0  0  0  0  0  0  0  0  0
   10.2278   -0.5132    0.0000 C   0  0  0  0  0  0  0  0  0  0  0  0
  1  2  1  0  0  0  0
  2  3  1  0  0  0  0
  3  4  2  0  0  0  0
  4  5  1  0  0  0  0
  5  6  2  0  0  0  0
  6  7  1  0  0  0  0
  7  8  2  0  0  0  0
  3  8  1  0  0  0  0
  8  9  1  0  0  0  0
  9 10  1  0  0  0  0
  7 11  1  0  0  0  0
 11 12  1  0  0  0  0
 12 13  1  0  0  0  0
 13 14  1  0  0  0  0
 14 15  1  0  0  0  0
 15 16  2  0  0  0  0
 16 17  1  0  0  0  0
 17 18  2  0  0  0  0
 18 19  1  0  0  0  0
 19 20  2  0  0  0  0
 15 20  1  0  0  0  0
 20 21  1  0  0  0  0
 21 12  1  6  0  0  0
 21 22  1  0  0  0  0
  6 22  1  0  0  0  0
 18 23  1  0  0  0  0
 23 24  1  0  0  0  0
 17 25  1  0  0  0  0
 25 26  1  0  0  0  0
M  END
> <DATABASE_ID>
DB12093

> <DATABASE_NAME>
drugbank

> <SMILES>
COC1=CC=C2C[C@@H]3N(CCC4=CC(OC)=C(OC)C=C34)CC2=C1OC

> <INCHI_IDENTIFIER>
InChI=1S/C21H25NO4/c1-23-18-6-5-13-9-17-15-11-20(25-3)19(24-2)10-14(15)7-8-22(17)12-16(13)21(18)26-4/h5-6,10-11,17H,7-9,12H2,1-4H3/t17-/m0/s1

> <INCHI_KEY>
AEQDJSLRWYMAQI-KRWDZBQOSA-N

> <FORMULA>
C21H25NO4

> <MOLECULAR_WEIGHT>
355.434

> <EXACT_MASS>
355.178358289

> <JCHEM_ACCEPTOR_COUNT>
5

> <JCHEM_ATOM_COUNT>
51

> <JCHEM_AVERAGE_POLARIZABILITY>
39.9687029744724

> <JCHEM_BIOAVAILABILITY>
1

> <JCHEM_DONOR_COUNT>
0

> <JCHEM_FORMAL_CHARGE>
0

> <JCHEM_GHOSE_FILTER>
1

> <JCHEM_IUPAC>
(12bS)-3,4,10,11-tetramethoxy-7,8,12b,13-tetrahydro-5H-6-azatetraphene

> <ALOGPS_LOGP>
3.09

> <JCHEM_LOGP>
3.1479747203333344

> <ALOGPS_LOGS>
-4.16

> <JCHEM_MDDR_LIKE_RULE>
0

> <JCHEM_NUMBER_OF_RINGS>
4

> <JCHEM_PHYSIOLOGICAL_CHARGE>
0

> <JCHEM_PKA_STRONGEST_BASIC>
5.344725834166826

> <JCHEM_POLAR_SURFACE_AREA>
40.160000000000004

> <JCHEM_REFRACTIVITY>
101.35549999999998

> <JCHEM_ROTATABLE_BOND_COUNT>
4

> <JCHEM_RULE_OF_FIVE>
1

> <ALOGPS_SOLUBILITY>
2.46e-02 g/l

> <JCHEM_TRADITIONAL_IUPAC>
tetrahydropalmatine

> <JCHEM_VEBER_RULE>
0

> <DRUGBANK_ID>
DB12093

> <DRUG_GROUPS>
investigational

> <GENERIC_NAME>
Tetrahydropalmatine

> <SALTS>
Tetrahydropalmatine Hydrochloride

$$$$
