
  Mrv1572004221604452D          

 14 14  0  0  0  0            999 V2000
   -0.3297   -0.8227    0.0000 C   0  0  0  0  0  0  0  0  0  0  0  0
   -2.2820    0.5872    0.0000 C   0  0  0  0  0  0  0  0  0  0  0  0
    1.2352    0.6294    0.0000 C   0  0  0  0  0  0  0  0  0  0  0  0
   -0.8843    0.8843    0.0000 C   0  0  0  0  0  0  0  0  0  0  0  0
    0.1553   -0.1553    0.0000 C   0  0  0  0  0  0  0  0  0  0  0  0
   -1.4974    0.3323    0.0000 C   0  0  0  0  0  0  0  0  0  0  0  0
    0.5678    1.1143    0.0000 C   0  0  0  0  0  0  0  0  0  0  0  0
   -2.8951    0.0352    0.0000 Cl  0  0  0  0  0  0  0  0  0  0  0  0
    0.9803   -0.1553    0.0000 N   0  0  0  0  0  0  0  0  0  0  0  0
   -0.0997    0.6294    0.0000 N   0  0  0  0  0  0  0  0  0  0  0  0
    0.5678    1.9393    0.0000 N   0  0  0  0  0  0  0  0  0  0  0  0
   -1.3259   -0.4747    0.0000 O   0  0  0  0  0  0  0  0  0  0  0  0
   -0.1467    2.3518    0.0000 O   0  0  0  0  0  0  0  0  0  0  0  0
    1.2822    2.3518    0.0000 O   0  0  0  0  0  0  0  0  0  0  0  0
  5  1  1  0  0  0  0
  6  2  1  0  0  0  0
  6  4  1  0  0  0  0
  7  3  2  0  0  0  0
  8  2  1  0  0  0  0
  9  3  1  0  0  0  0
  9  5  2  0  0  0  0
 10  4  1  0  0  0  0
 10  5  1  0  0  0  0
 10  7  1  0  0  0  0
 11  7  1  0  0  0  0
 12  6  1  0  0  0  0
 13 11  2  0  0  0  0
 14 11  2  0  0  0  0
M  END
> <DATABASE_ID>
DB13026

> <DATABASE_NAME>
drugbank

> <SMILES>
CC1=NC=C(N1CC(O)CCl)N(=O)=O

> <INCHI_IDENTIFIER>
InChI=1S/C7H10ClN3O3/c1-5-9-3-7(11(13)14)10(5)4-6(12)2-8/h3,6,12H,2,4H2,1H3

> <INCHI_KEY>
IPWKIXLWTCNBKN-UHFFFAOYSA-N

> <FORMULA>
C7H10ClN3O3

> <MOLECULAR_WEIGHT>
219.63

> <EXACT_MASS>
219.0410689

> <JCHEM_ACCEPTOR_COUNT>
4

> <JCHEM_ATOM_COUNT>
24

> <JCHEM_AVERAGE_POLARIZABILITY>
19.591955492685816

> <JCHEM_BIOAVAILABILITY>
1

> <JCHEM_DONOR_COUNT>
1

> <JCHEM_FORMAL_CHARGE>
0

> <JCHEM_GHOSE_FILTER>
1

> <JCHEM_IUPAC>
1-chloro-3-(2-methyl-5-nitro-1H-imidazol-1-yl)propan-2-ol

> <ALOGPS_LOGP>
0.37

> <JCHEM_LOGP>
0.2649466893333334

> <ALOGPS_LOGS>
-1.82

> <JCHEM_MDDR_LIKE_RULE>
0

> <JCHEM_NUMBER_OF_RINGS>
1

> <JCHEM_PHYSIOLOGICAL_CHARGE>
0

> <JCHEM_PKA_STRONGEST_ACIDIC>
13.887818424635807

> <JCHEM_PKA_STRONGEST_BASIC>
3.084536286190219

> <JCHEM_POLAR_SURFACE_AREA>
83.87

> <JCHEM_REFRACTIVITY>
50.234

> <JCHEM_ROTATABLE_BOND_COUNT>
4

> <JCHEM_RULE_OF_FIVE>
1

> <ALOGPS_SOLUBILITY>
3.34e+00 g/l

> <JCHEM_TRADITIONAL_IUPAC>
madelen

> <JCHEM_VEBER_RULE>
0

> <DRUGBANK_ID>
DB13026

> <DRUG_GROUPS>
investigational

> <GENERIC_NAME>
Ornidazole

> <SYNONYMS>
ornidazol; Ornidazole

$$$$
