
  Mrv1572010161515592D          

 18 20  0  0  0  0            999 V2000
   -0.0085    0.4213    0.0000 C   0  0  0  0  0  0  0  0  0  0  0  0
   -0.7180    0.8298    0.0000 C   0  0  0  0  0  0  0  0  0  0  0  0
   -0.7180    1.6553    0.0000 C   0  0  0  0  0  0  0  0  0  0  0  0
    0.7094    0.8298    0.0000 C   0  0  0  0  0  0  0  0  0  0  0  0
   -0.0085    2.0638    0.0000 C   0  0  0  0  0  0  0  0  0  0  0  0
   -0.0085   -0.4128    0.0000 C   0  0  0  0  0  0  0  0  0  0  0  0
    0.7094    1.6424    0.0000 C   0  0  0  0  0  0  0  0  0  0  0  0
    1.4489    2.0381    0.0000 N   0  0  0  0  0  0  0  0  0  0  0  0
   -1.4318    0.4213    0.0000 C   0  0  0  0  0  0  0  0  0  0  0  0
   -1.4318    2.0638    0.0000 C   0  0  0  0  0  0  0  0  0  0  0  0
   -0.7266   -0.8298    0.0000 C   0  0  0  0  0  0  0  0  0  0  0  0
    0.6922   -0.8255    0.0000 C   0  0  0  0  0  0  0  0  0  0  0  0
    2.1498    1.6037    0.0000 C   0  0  0  0  0  0  0  0  0  0  0  0
   -2.1498    0.8298    0.0000 C   0  0  0  0  0  0  0  0  0  0  0  0
   -2.1498    1.6424    0.0000 C   0  0  0  0  0  0  0  0  0  0  0  0
   -0.7266   -1.6510    0.0000 C   0  0  0  0  0  0  0  0  0  0  0  0
    0.6922   -1.6510    0.0000 C   0  0  0  0  0  0  0  0  0  0  0  0
   -0.0085   -2.0638    0.0000 C   0  0  0  0  0  0  0  0  0  0  0  0
  1  2  1  0  0  0  0
  1  4  1  0  0  0  0
  1  6  1  0  0  0  0
  2  3  1  0  0  0  0
  2  9  2  0  0  0  0
  3 10  2  0  0  0  0
  3  5  1  0  0  0  0
  4  7  1  0  0  0  0
  5  7  1  0  0  0  0
  6 11  2  0  0  0  0
  6 12  1  0  0  0  0
  7  8  1  0  0  0  0
  8 13  1  0  0  0  0
  9 14  1  0  0  0  0
 10 15  1  0  0  0  0
 11 16  1  0  0  0  0
 12 17  2  0  0  0  0
 14 15  2  0  0  0  0
 16 18  2  0  0  0  0
 17 18  1  0  0  0  0
M  END
> <DATABASE_ID>
DB09193

> <DATABASE_NAME>
drugbank

> <SMILES>
CNC1CC(C2=CC=CC=C2)C2=CC=CC=C2C1

> <INCHI_IDENTIFIER>
InChI=1S/C17H19N/c1-18-15-11-14-9-5-6-10-16(14)17(12-15)13-7-3-2-4-8-13/h2-10,15,17-18H,11-12H2,1H3

> <INCHI_KEY>
HLOCJJORRHQDKS-UHFFFAOYSA-N

> <FORMULA>
C17H19N

> <MOLECULAR_WEIGHT>
237.346

> <EXACT_MASS>
237.151749616

> <JCHEM_ACCEPTOR_COUNT>
1

> <JCHEM_ATOM_COUNT>
37

> <JCHEM_AVERAGE_POLARIZABILITY>
28.181431110345375

> <JCHEM_BIOAVAILABILITY>
1

> <JCHEM_DONOR_COUNT>
1

> <JCHEM_FORMAL_CHARGE>
0

> <JCHEM_GHOSE_FILTER>
1

> <JCHEM_IUPAC>
N-methyl-4-phenyl-1,2,3,4-tetrahydronaphthalen-2-amine

> <ALOGPS_LOGP>
3.98

> <JCHEM_LOGP>
3.785303161

> <ALOGPS_LOGS>
-5.43

> <JCHEM_MDDR_LIKE_RULE>
0

> <JCHEM_NUMBER_OF_RINGS>
3

> <JCHEM_PHYSIOLOGICAL_CHARGE>
1

> <JCHEM_PKA_STRONGEST_BASIC>
10.280293545378438

> <JCHEM_POLAR_SURFACE_AREA>
12.03

> <JCHEM_REFRACTIVITY>
76.28540000000002

> <JCHEM_ROTATABLE_BOND_COUNT>
2

> <JCHEM_RULE_OF_FIVE>
1

> <ALOGPS_SOLUBILITY>
8.72e-04 g/l

> <JCHEM_TRADITIONAL_IUPAC>
N-methyl-4-phenyl-1,2,3,4-tetrahydronaphthalen-2-amine

> <JCHEM_VEBER_RULE>
1

> <DRUGBANK_ID>
DB09193

> <DRUG_GROUPS>
experimental

> <GENERIC_NAME>
CP-39,332

$$$$
