
  Mrv1909 11252021242D          

 24 26  0  0  0  0            999 V2000
   -1.8722   -0.3487    0.0000 S   0  0  0  0  0  0  0  0  0  0  0  0
   -1.3873   -1.0162    0.0000 C   0  0  0  0  0  0  0  0  0  0  0  0
   -1.8723   -1.6836    0.0000 N   0  0  0  0  0  0  0  0  0  0  0  0
   -2.6568   -1.4286    0.0000 C   0  0  0  0  0  0  0  0  0  0  0  0
   -2.6568   -0.6036    0.0000 C   0  0  0  0  0  0  0  0  0  0  0  0
   -3.3713   -1.8410    0.0000 C   0  0  0  0  0  0  0  0  0  0  0  0
   -4.0858   -1.4284    0.0000 C   0  0  0  0  0  0  0  0  0  0  0  0
   -4.0857   -0.6034    0.0000 C   0  0  0  0  0  0  0  0  0  0  0  0
   -3.3712   -0.1910    0.0000 C   0  0  0  0  0  0  0  0  0  0  0  0
   -0.5623   -1.0163    0.0000 C   0  0  0  0  0  0  0  0  0  0  0  0
   -0.1499   -1.7308    0.0000 C   0  0  0  0  0  0  0  0  0  0  0  0
    0.6750   -1.7309    0.0000 C   0  0  0  0  0  0  0  0  0  0  0  0
    1.0876   -1.0165    0.0000 C   0  0  0  0  0  0  0  0  0  0  0  0
    0.6752   -0.3020    0.0000 C   0  0  0  0  0  0  0  0  0  0  0  0
   -0.1497   -0.3019    0.0000 C   0  0  0  0  0  0  0  0  0  0  0  0
    1.9126   -1.0165    0.0000 O   0  0  0  0  0  0  0  0  0  0  0  0
    2.3251   -0.3021    0.0000 C   0  0  0  0  0  0  0  0  0  0  0  0
    3.1501   -0.3022    0.0000 C   0  0  0  0  0  0  0  0  0  0  0  0
    3.5627    0.4121    0.0000 N   0  0  0  0  0  0  0  0  0  0  0  0
    4.3877    0.4120    0.0000 C   0  0  0  0  0  0  0  0  0  0  0  0
    4.8003    1.1265    0.0000 C   0  0  0  0  0  0  0  0  0  0  0  0
    3.1503    1.1266    0.0000 C   0  0  0  0  0  0  0  0  0  0  0  0
    3.5628    1.8410    0.0000 C   0  0  0  0  0  0  0  0  0  0  0  0
   -4.8003   -1.8409    0.0000 Cl  0  0  0  0  0  0  0  0  0  0  0  0
  1  2  1  0  0  0  0
  2  3  2  0  0  0  0
  3  4  1  0  0  0  0
  4  5  1  0  0  0  0
  1  5  1  0  0  0  0
  6  7  1  0  0  0  0
  7  8  2  0  0  0  0
  8  9  1  0  0  0  0
  5  9  2  0  0  0  0
  4  6  2  0  0  0  0
 10 11  1  0  0  0  0
 11 12  2  0  0  0  0
 12 13  1  0  0  0  0
 13 14  2  0  0  0  0
 14 15  1  0  0  0  0
 10 15  2  0  0  0  0
 17 18  1  0  0  0  0
 16 17  1  0  0  0  0
 20 21  1  0  0  0  0
 19 20  1  0  0  0  0
 22 23  1  0  0  0  0
 19 22  1  0  0  0  0
 18 19  1  0  0  0  0
 13 16  1  0  0  0  0
  2 10  1  0  0  0  0
  7 24  1  0  0  0  0
M  END
> <DATABASE_ID>
DB15942

> <DATABASE_NAME>
drugbank

> <SMILES>
CCN(CC)CCOC1=CC=C(C=C1)C1=NC2=CC(Cl)=CC=C2S1

> <INCHI_IDENTIFIER>
InChI=1S/C19H21ClN2OS/c1-3-22(4-2)11-12-23-16-8-5-14(6-9-16)19-21-17-13-15(20)7-10-18(17)24-19/h5-10,13H,3-4,11-12H2,1-2H3

> <INCHI_KEY>
TXOKWXJQVFUUDD-UHFFFAOYSA-N

> <FORMULA>
C19H21ClN2OS

> <MOLECULAR_WEIGHT>
360.9

> <EXACT_MASS>
360.1063122

> <JCHEM_ACCEPTOR_COUNT>
3

> <JCHEM_ATOM_COUNT>
45

> <JCHEM_AVERAGE_NEUTRAL_MICROSPECIES_CHARGE>
0.9947933684791487

> <JCHEM_AVERAGE_POLARIZABILITY>
40.77962292381231

> <JCHEM_BIOAVAILABILITY>
1

> <JCHEM_DONOR_COUNT>
0

> <JCHEM_FORMAL_CHARGE>
0

> <JCHEM_GHOSE_FILTER>
1

> <JCHEM_IUPAC>
{2-[4-(5-chloro-1,3-benzothiazol-2-yl)phenoxy]ethyl}diethylamine

> <ALOGPS_LOGP>
5.55

> <JCHEM_LOGP>
5.316875856999999

> <ALOGPS_LOGS>
-5.20

> <JCHEM_MDDR_LIKE_RULE>
1

> <JCHEM_NEUTRAL_CHARGE>
1

> <JCHEM_NUMBER_OF_RINGS>
3

> <JCHEM_PHYSIOLOGICAL_CHARGE>
1

> <JCHEM_PKA_STRONGEST_BASIC>
9.28055722770959

> <JCHEM_POLAR_SURFACE_AREA>
25.36

> <JCHEM_REFRACTIVITY>
111.0146

> <JCHEM_ROTATABLE_BOND_COUNT>
7

> <JCHEM_RULE_OF_FIVE>
0

> <ALOGPS_SOLUBILITY>
2.28e-03 g/l

> <JCHEM_TRADITIONAL_IUPAC>
fimasartan potassium

> <JCHEM_VEBER_RULE>
1

> <DRUGBANK_ID>
DB15942

> <DRUG_GROUPS>
experimental

> <GENERIC_NAME>
Haletazole

> <SYNONYMS>
Haletazole; Halethazole

> <SALTS>
Haletazole tartrate

$$$$
