
  Mrv1909 05201915132D          

  1  0  0  0  0  0            999 V2000
    0.0000    0.0000    0.0000 Nd  0  0  0  0  0  0  0  0  0  0  0  0
M  END
> <DATABASE_ID>
DB15318

> <DATABASE_NAME>
drugbank

> <SMILES>
[Nd]

> <INCHI_IDENTIFIER>
InChI=1S/Nd

> <INCHI_KEY>
QEFYFXOXNSNQGX-UHFFFAOYSA-N

> <FORMULA>
Nd

> <MOLECULAR_WEIGHT>
144.242

> <EXACT_MASS>
141.907718643

> <JCHEM_ACCEPTOR_COUNT>
0

> <JCHEM_ATOM_COUNT>
1

> <JCHEM_AVERAGE_POLARIZABILITY>
1.7784

> <JCHEM_BIOAVAILABILITY>
1

> <JCHEM_DONOR_COUNT>
0

> <JCHEM_FORMAL_CHARGE>
0

> <JCHEM_GHOSE_FILTER>
0

> <JCHEM_IUPAC>
neodymium

> <JCHEM_LOGP>
0.0

> <JCHEM_MDDR_LIKE_RULE>
0

> <JCHEM_NUMBER_OF_RINGS>
0

> <JCHEM_PHYSIOLOGICAL_CHARGE>
0

> <JCHEM_POLAR_SURFACE_AREA>
0.0

> <JCHEM_REFRACTIVITY>
0.0

> <JCHEM_ROTATABLE_BOND_COUNT>
0

> <JCHEM_RULE_OF_FIVE>
1

> <JCHEM_TRADITIONAL_IUPAC>
(2R)-14-fluoro-2-methyl-6,9,10,19-tetraazapentacyclo[14.2.1.0^{2,6}.0^{8,18}.0^{12,17}]nonadeca-1(18),8,12(17),13,15-pentaen-11-one

> <JCHEM_VEBER_RULE>
1

> <DRUGBANK_ID>
DB15318

> <DRUG_GROUPS>
investigational

> <GENERIC_NAME>
Neodymium

$$$$
