
  Mrv1902 03041919362D          

 40 44  0  0  0  0            999 V2000
   -2.5769   -2.4043    0.0000 C   0  0  2  0  0  0  0  0  0  0  0  0
   -2.5769   -3.2408    0.0000 C   0  0  1  0  0  0  0  0  0  0  0  0
   -1.8658   -3.6591    0.0000 C   0  0  0  0  0  0  0  0  0  0  0  0
   -1.1131   -3.2408    0.0000 C   0  0  1  0  0  0  0  0  0  0  0  0
   -1.1131   -2.4043    0.0000 C   0  0  2  0  0  0  0  0  0  0  0  0
   -1.8658   -1.9860    0.0000 C   0  0  2  0  0  0  0  0  0  0  0  0
   -0.4019   -3.6591    0.0000 C   0  0  0  0  0  0  0  0  0  0  0  0
    0.3090   -3.2408    0.0000 C   0  0  1  0  0  0  0  0  0  0  0  0
    0.3090   -2.4043    0.0000 C   0  0  0  0  0  0  0  0  0  0  0  0
   -0.4019   -1.9860    0.0000 C   0  0  0  0  0  0  0  0  0  0  0  0
   -2.5769   -1.5677    0.0000 H   0  0  0  0  0  0  0  0  0  0  0  0
   -2.5769   -4.0773    0.0000 H   0  0  0  0  0  0  0  0  0  0  0  0
   -1.1131   -4.0773    0.0000 H   0  0  0  0  0  0  0  0  0  0  0  0
   -1.8658   -1.1495    0.0000 C   0  0  0  0  0  0  0  0  0  0  0  0
   -1.1131   -1.5677    0.0000 H   0  0  0  0  0  0  0  0  0  0  0  0
    1.0201   -3.6591    0.0000 N   0  0  0  0  0  0  0  0  0  0  0  0
    1.7311   -3.2408    0.0000 C   0  0  0  0  0  0  0  0  0  0  0  0
    2.4421   -3.6591    0.0000 O   0  0  0  0  0  0  0  0  0  0  0  0
    1.7311   -2.4043    0.0000 O   0  0  0  0  0  0  0  0  0  0  0  0
    3.1532   -3.2408    0.0000 C   0  0  0  0  0  0  0  0  0  0  0  0
    3.8642   -3.6591    0.0000 C   0  0  0  0  0  0  0  0  0  0  0  0
   -2.5769   -0.7313    0.0000 C   0  0  0  0  0  0  0  0  0  0  0  0
   -2.5769    0.1052    0.0000 C   0  0  0  0  0  0  0  0  0  0  0  0
   -1.8658    0.5234    0.0000 C   0  0  0  0  0  0  0  0  0  0  0  0
   -1.8658    1.3600    0.0000 C   0  0  0  0  0  0  0  0  0  0  0  0
   -2.5769    1.7782    0.0000 C   0  0  0  0  0  0  0  0  0  0  0  0
   -3.2880    1.3600    0.0000 C   0  0  0  0  0  0  0  0  0  0  0  0
   -3.2880    0.5234    0.0000 N   0  0  0  0  0  0  0  0  0  0  0  0
   -2.5769    2.6148    0.0000 C   0  0  0  0  0  0  0  0  0  0  0  0
   -1.8658    3.0330    0.0000 C   0  0  0  0  0  0  0  0  0  0  0  0
   -1.8658    3.8696    0.0000 C   0  0  0  0  0  0  0  0  0  0  0  0
   -2.5769    4.2877    0.0000 C   0  0  0  0  0  0  0  0  0  0  0  0
   -3.2880    3.8696    0.0000 C   0  0  0  0  0  0  0  0  0  0  0  0
   -3.2880    3.0330    0.0000 C   0  0  0  0  0  0  0  0  0  0  0  0
   -1.1548    4.2877    0.0000 F   0  0  0  0  0  0  0  0  0  0  0  0
   -3.3725   -2.1458    0.0000 C   0  0  2  0  0  0  0  0  0  0  0  0
   -3.8642   -2.8225    0.0000 O   0  0  0  0  0  0  0  0  0  0  0  0
   -3.3725   -3.4993    0.0000 C   0  0  0  0  0  0  0  0  0  0  0  0
   -3.6288   -1.3573    0.0000 C   0  0  0  0  0  0  0  0  0  0  0  0
   -3.6288   -4.2877    0.0000 O   0  0  0  0  0  0  0  0  0  0  0  0
  1  2  1  0  0  0  0
  2  3  1  0  0  0  0
  3  4  1  0  0  0  0
  4  5  1  0  0  0  0
  5  6  1  0  0  0  0
  1  6  1  0  0  0  0
  4  7  1  0  0  0  0
  7  8  1  0  0  0  0
  8  9  1  0  0  0  0
  9 10  1  0  0  0  0
  5 10  1  0  0  0  0
  1 11  1  6  0  0  0
  2 12  1  6  0  0  0
  4 13  1  6  0  0  0
  6 14  1  1  0  0  0
  5 15  1  1  0  0  0
  8 16  1  1  0  0  0
 16 17  1  0  0  0  0
 17 18  1  0  0  0  0
 17 19  2  0  0  0  0
 18 20  1  0  0  0  0
 20 21  1  0  0  0  0
 14 22  2  0  0  0  0
 22 23  1  0  0  0  0
 23 24  2  0  0  0  0
 24 25  1  0  0  0  0
 25 26  2  0  0  0  0
 26 27  1  0  0  0  0
 27 28  2  0  0  0  0
 23 28  1  0  0  0  0
 26 29  1  0  0  0  0
 29 30  2  0  0  0  0
 30 31  1  0  0  0  0
 31 32  2  0  0  0  0
 32 33  1  0  0  0  0
 33 34  2  0  0  0  0
 29 34  1  0  0  0  0
 31 35  1  0  0  0  0
  1 36  1  0  0  0  0
 36 37  1  0  0  0  0
 37 38  1  0  0  0  0
  2 38  1  0  0  0  0
 36 39  1  6  0  0  0
 38 40  2  0  0  0  0
M  END
> <DATABASE_ID>
DB09030

> <DATABASE_NAME>
drugbank

> <SMILES>
[H][C@@]12C[C@]3([H])C[C@@H](CC[C@@]3([H])[C@H](\C=C\C3=CC=C(C=N3)C3=CC(F)=CC=C3)[C@]1([H])[C@@H](C)OC2=O)NC(=O)OCC

> <INCHI_IDENTIFIER>
InChI=1S/C29H33FN2O4/c1-3-35-29(34)32-23-10-11-24-20(14-23)15-26-27(17(2)36-28(26)33)25(24)12-9-22-8-7-19(16-31-22)18-5-4-6-21(30)13-18/h4-9,12-13,16-17,20,23-27H,3,10-11,14-15H2,1-2H3,(H,32,34)/b12-9+/t17-,20+,23-,24-,25+,26-,27+/m1/s1

> <INCHI_KEY>
ZBGXUVOIWDMMJE-QHNZEKIYSA-N

> <FORMULA>
C29H33FN2O4

> <MOLECULAR_WEIGHT>
492.5817

> <EXACT_MASS>
492.242435759

> <JCHEM_ACCEPTOR_COUNT>
3

> <JCHEM_ATOM_COUNT>
69

> <JCHEM_AVERAGE_POLARIZABILITY>
53.850950197174754

> <JCHEM_BIOAVAILABILITY>
1

> <JCHEM_DONOR_COUNT>
1

> <JCHEM_FORMAL_CHARGE>
0

> <JCHEM_GHOSE_FILTER>
0

> <JCHEM_IUPAC>
ethyl N-[(1R,3aR,4aR,6R,8aR,9S,9aS)-9-[(1E)-2-[5-(3-fluorophenyl)pyridin-2-yl]ethenyl]-1-methyl-3-oxo-dodecahydronaphtho[2,3-c]furan-6-yl]carbamate

> <ALOGPS_LOGP>
4.90

> <JCHEM_LOGP>
5.036946574

> <ALOGPS_LOGS>
-5.88

> <JCHEM_MDDR_LIKE_RULE>
1

> <JCHEM_NUMBER_OF_RINGS>
5

> <JCHEM_PHYSIOLOGICAL_CHARGE>
0

> <JCHEM_PKA_STRONGEST_ACIDIC>
14.778973206060416

> <JCHEM_PKA_STRONGEST_BASIC>
4.3164105017860805

> <JCHEM_POLAR_SURFACE_AREA>
77.52000000000001

> <JCHEM_REFRACTIVITY>
134.5236

> <JCHEM_ROTATABLE_BOND_COUNT>
6

> <JCHEM_RULE_OF_FIVE>
0

> <ALOGPS_SOLUBILITY>
6.54e-04 g/l

> <JCHEM_TRADITIONAL_IUPAC>
vorapaxar

> <JCHEM_VEBER_RULE>
0

> <DRUGBANK_ID>
DB09030

> <SECONDARY_ACCESSION_NUMBERS>
DB05692

> <DRUG_GROUPS>
approved

> <GENERIC_NAME>
Vorapaxar

> <SYNONYMS>
[(1R,3aR,4aR,6R,8aR,9S,9aS)-9-{(E)-2-[5-(3-Fluorophényl)-2-pyridinyl]vinyl}-1-méthyl-3-oxododécahydronaphto[2,3-c]furan-6-yl]carbamate d'éthyle; Carbamic acid, [(1R,3aR,4aR,6R,8aR,9S,9aS)-9-[(1E)-2-[5-(3-fluorophenyl)-2- pyridinyl]ethenyl]dodecahydro-1-methyl-3-oxonaphtho[2,3-c]furan-6-yl]-, ethyl ester; Carbamic acid, N-[(1R,3aR,4aR,6R,8aR,9S,9aS)-9-[(E)-2-[5-(3-fluorophenyl)-2-pyridinyl]ethenyl]dodecahydro-1-methyl-3-oxonaphtho[2,3-c]furan-6-yl]-, ethyl ester; Ethyl N-[(3R,3aS,4S,4aR,7R,8aR,9aR)-4-[(E)-2-[5-(3-fluorophenyl)-2-pyridyl]vinyl]-3-methyl-1-oxo-3a,4,4a,5,6,7,8,8a,9,9a-decahydro-3H-benzo[f]isobenzofuran-7-yl]carbamate; Vorapaxar

> <PRODUCTS>
Zontivity

> <SALTS>
Vorapaxar sulfate

$$$$
