
  Mrv1909 10032015312D          

 36 40  0  0  0  0            999 V2000
   -2.8074   -0.8224    0.0000 C   0  0  0  0  0  0  0  0  0  0  0  0
   -2.0928   -0.4100    0.0000 C   0  0  0  0  0  0  0  0  0  0  0  0
   -1.3809   -0.8220    0.0000 C   0  0  0  0  0  0  0  0  0  0  0  0
   -1.3809   -1.6473    0.0000 C   0  0  0  0  0  0  0  0  0  0  0  0
   -2.0910   -2.0591    0.0000 C   0  0  0  0  0  0  0  0  0  0  0  0
   -2.8074   -1.6510    0.0000 C   0  0  0  0  0  0  0  0  0  0  0  0
   -0.6663   -2.0598    0.0000 N   0  0  0  0  0  0  0  0  0  0  0  0
    0.0480   -1.6473    0.0000 C   0  0  0  0  0  0  0  0  0  0  0  0
    0.0483   -0.8222    0.0000 N   0  0  0  0  0  0  0  0  0  0  0  0
    0.7611   -0.4115    0.0000 C   0  0  0  0  0  0  0  0  0  0  0  0
    1.4758   -0.8242    0.0000 C   0  0  0  0  0  0  0  0  0  0  0  0
    1.4773   -1.6452    0.0000 C   0  0  0  0  0  0  0  0  0  0  0  0
    0.7657   -2.0615    0.0000 N   0  0  0  0  0  0  0  0  0  0  0  0
    2.2512   -1.8973    0.0000 N   0  0  0  0  0  0  0  0  0  0  0  0
    2.7338   -1.2365    0.0000 C   0  0  0  0  0  0  0  0  0  0  0  0
    2.2581   -0.5761    0.0000 C   0  0  0  0  0  0  0  0  0  0  0  0
   -3.5220   -0.4098    0.0000 N   0  0  0  0  0  0  0  0  0  0  0  0
    0.7611    0.4133    0.0000 O   0  0  0  0  0  0  0  0  0  0  0  0
    1.4756    0.8259    0.0000 C   0  0  0  0  0  0  0  0  0  0  0  0
    1.4758    1.6510    0.0000 C   0  0  0  0  0  0  0  0  0  0  0  0
    2.1884    2.0615    0.0000 C   0  0  0  0  0  0  0  0  0  0  0  0
    2.9032    1.6490    0.0000 C   0  0  0  0  0  0  0  0  0  0  0  0
    2.9048    0.8280    0.0000 C   0  0  0  0  0  0  0  0  0  0  0  0
    2.1931    0.4115    0.0000 C   0  0  0  0  0  0  0  0  0  0  0  0
    3.7017    0.6145    0.0000 N   0  0  0  0  0  0  0  0  0  0  0  0
    4.2851    1.1978    0.0000 C   0  0  0  0  0  0  0  0  0  0  0  0
    5.0820    0.9843    0.0000 C   0  0  0  0  0  0  0  0  0  0  0  0
    5.6654    1.5677    0.0000 C   0  0  0  0  0  0  0  0  0  0  0  0
    4.0715    1.9948    0.0000 O   0  0  0  0  0  0  0  0  0  0  0  0
   -4.2365   -0.8224    0.0000 C   0  0  0  0  0  0  0  0  0  0  0  0
   -4.9509   -0.4098    0.0000 C   0  0  0  0  0  0  0  0  0  0  0  0
   -4.9509    0.4150    0.0000 N   0  0  0  0  0  0  0  0  0  0  0  0
   -4.2365    0.8276    0.0000 C   0  0  0  0  0  0  0  0  0  0  0  0
   -3.5220    0.4150    0.0000 C   0  0  0  0  0  0  0  0  0  0  0  0
   -5.6654    0.8276    0.0000 C   0  0  0  0  0  0  0  0  0  0  0  0
   -2.0928    0.4149    0.0000 F   0  0  0  0  0  0  0  0  0  0  0  0
  2  1  2  0  0  0  0
  3  2  1  0  0  0  0
  4  3  2  0  0  0  0
  5  4  1  0  0  0  0
  1  6  1  0  0  0  0
  6  5  2  0  0  0  0
  4  7  1  0  0  0  0
  7  8  1  0  0  0  0
  9  8  2  0  0  0  0
 10  9  1  0  0  0  0
 11 10  2  0  0  0  0
 12 11  1  0  0  0  0
 13 12  2  0  0  0  0
  8 13  1  0  0  0  0
 12 14  1  0  0  0  0
 14 15  1  0  0  0  0
 15 16  2  0  0  0  0
 11 16  1  0  0  0  0
  1 17  1  0  0  0  0
 10 18  1  0  0  0  0
 18 19  1  0  0  0  0
 20 19  2  0  0  0  0
 21 20  1  0  0  0  0
 22 21  2  0  0  0  0
 23 22  1  0  0  0  0
 24 23  2  0  0  0  0
 19 24  1  0  0  0  0
 23 25  1  0  0  0  0
 25 26  1  0  0  0  0
 26 27  1  0  0  0  0
 27 28  2  0  0  0  0
 26 29  2  0  0  0  0
 30 17  1  0  0  0  0
 31 30  1  0  0  0  0
 32 31  1  0  0  0  0
 33 32  1  0  0  0  0
 34 33  1  0  0  0  0
 17 34  1  0  0  0  0
 32 35  1  0  0  0  0
  2 36  1  0  0  0  0
M  END
> <DATABASE_ID>
DB15327

> <DATABASE_NAME>
drugbank

> <SMILES>
CN1CCN(CC1)C1=C(F)C=C(NC2=NC(OC3=CC=CC(NC(=O)C=C)=C3)=C3C=CNC3=N2)C=C1

> <INCHI_IDENTIFIER>
InChI=1S/C26H26FN7O2/c1-3-23(35)29-17-5-4-6-19(15-17)36-25-20-9-10-28-24(20)31-26(32-25)30-18-7-8-22(21(27)16-18)34-13-11-33(2)12-14-34/h3-10,15-16H,1,11-14H2,2H3,(H,29,35)(H2,28,30,31,32)

> <INCHI_KEY>
UOFYSRZSLXWIQB-UHFFFAOYSA-N

> <FORMULA>
C26H26FN7O2

> <MOLECULAR_WEIGHT>
487.539

> <EXACT_MASS>
487.213201268

> <JCHEM_ACCEPTOR_COUNT>
6

> <JCHEM_ATOM_COUNT>
62

> <JCHEM_AVERAGE_NEUTRAL_MICROSPECIES_CHARGE>
2.009772645550269

> <JCHEM_AVERAGE_POLARIZABILITY>
52.33627401624009

> <JCHEM_BIOAVAILABILITY>
1

> <JCHEM_DONOR_COUNT>
3

> <JCHEM_FORMAL_CHARGE>
0

> <JCHEM_GHOSE_FILTER>
0

> <JCHEM_IUPAC>
N-{3-[(2-{[3-fluoro-4-(4-methylpiperazin-1-yl)phenyl]amino}-7H-pyrrolo[2,3-d]pyrimidin-4-yl)oxy]phenyl}prop-2-enamide

> <ALOGPS_LOGP>
4.33

> <JCHEM_LOGP>
4.821284762666667

> <ALOGPS_LOGS>
-4.25

> <JCHEM_MDDR_LIKE_RULE>
1

> <JCHEM_NEUTRAL_CHARGE>
1

> <JCHEM_NUMBER_OF_RINGS>
5

> <JCHEM_PHYSIOLOGICAL_CHARGE>
1

> <JCHEM_PKA>
14.016029091171264

> <JCHEM_PKA_STRONGEST_ACIDIC>
12.595923961462013

> <JCHEM_PKA_STRONGEST_BASIC>
7.24851031177104

> <JCHEM_POLAR_SURFACE_AREA>
98.41000000000001

> <JCHEM_REFRACTIVITY>
138.95369999999994

> <JCHEM_ROTATABLE_BOND_COUNT>
7

> <JCHEM_RULE_OF_FIVE>
1

> <ALOGPS_SOLUBILITY>
2.76e-02 g/l

> <JCHEM_TRADITIONAL_IUPAC>
N-{3-[(2-{[3-fluoro-4-(4-methylpiperazin-1-yl)phenyl]amino}-7H-pyrrolo[2,3-d]pyrimidin-4-yl)oxy]phenyl}prop-2-enamide

> <JCHEM_VEBER_RULE>
0

> <DRUGBANK_ID>
DB15327

> <DRUG_GROUPS>
investigational

> <GENERIC_NAME>
Abivertinib

> <SYNONYMS>
Abivertinib

> <SALTS>
Abivertinib maleate

$$$$
