
  Mrv1652306131722002D          

 20 19  0  0  1  0            999 V2000
   -2.0485   -0.2755    0.0000 C   0  0  0  0  0  0  0  0  0  0  0  0
   -2.6005    0.3376    0.0000 C   0  0  0  0  0  0  0  0  0  0  0  0
   -2.1880    1.0521    0.0000 S   0  0  0  0  0  0  0  0  0  0  0  0
   -1.3810    0.8805    0.0000 S   0  0  0  0  0  0  0  0  0  0  0  0
   -1.2948    0.0600    0.0000 C   0  0  2  0  0  0  0  0  0  0  0  0
   -0.5803   -0.3525    0.0000 C   0  0  0  0  0  0  0  0  0  0  0  0
    0.1342    0.0600    0.0000 C   0  0  0  0  0  0  0  0  0  0  0  0
    0.8486   -0.3525    0.0000 C   0  0  0  0  0  0  0  0  0  0  0  0
    1.5631    0.0600    0.0000 C   0  0  0  0  0  0  0  0  0  0  0  0
    2.2776   -0.3525    0.0000 C   0  0  0  0  0  0  0  0  0  0  0  0
    2.9920    0.0600    0.0000 O   0  0  0  0  0  0  0  0  0  0  0  0
    2.2776   -1.1775    0.0000 O   0  0  0  0  0  0  0  0  0  0  0  0
    5.5922   -0.4779    0.0000 C   0  0  0  0  0  0  0  0  0  0  0  0
    6.3067   -0.0654    0.0000 C   0  0  0  0  0  0  0  0  0  0  0  0
    7.0212    0.3471    0.0000 C   0  0  0  0  0  0  0  0  0  0  0  0
    7.0212    1.1721    0.0000 O   0  0  0  0  0  0  0  0  0  0  0  0
    6.7192   -0.7798    0.0000 C   0  0  0  0  0  0  0  0  0  0  0  0
    7.5442   -0.7798    0.0000 O   0  0  0  0  0  0  0  0  0  0  0  0
    5.8942    0.6491    0.0000 N   0  0  0  0  0  0  0  0  0  0  0  0
    4.8778   -0.0654    0.0000 O   0  0  0  0  0  0  0  0  0  0  0  0
  1  2  1  0  0  0  0
  2  3  1  0  0  0  0
  3  4  1  0  0  0  0
  4  5  1  0  0  0  0
  1  5  1  0  0  0  0
  5  6  1  6  0  0  0
  6  7  1  0  0  0  0
  7  8  1  0  0  0  0
  8  9  1  0  0  0  0
  9 10  1  0  0  0  0
 10 11  2  0  0  0  0
 10 12  1  0  0  0  0
 13 14  1  0  0  0  0
 14 15  1  0  0  0  0
 15 16  1  0  0  0  0
 14 17  1  0  0  0  0
 17 18  1  0  0  0  0
 14 19  1  0  0  0  0
 13 20  1  0  0  0  0
M  END
> <DATABASE_ID>
DB06253

> <DATABASE_NAME>
drugbank

> <SMILES>
NC(CO)(CO)CO.OC(=O)CCCC[C@@H]1CCSS1

> <INCHI_IDENTIFIER>
InChI=1S/C8H14O2S2.C4H11NO3/c9-8(10)4-2-1-3-7-5-6-11-12-7;5-4(1-6,2-7)3-8/h7H,1-6H2,(H,9,10);6-8H,1-3,5H2/t7-;/m1./s1

> <INCHI_KEY>
CCTREOMTIFSZAU-OGFXRTJISA-N

> <FORMULA>
C12H25NO5S2

> <MOLECULAR_WEIGHT>
327.45

> <EXACT_MASS>
327.117415257

> <JCHEM_ACCEPTOR_COUNT>
2

> <JCHEM_ATOM_COUNT>
45

> <JCHEM_AVERAGE_POLARIZABILITY>
21.99462283357971

> <JCHEM_BIOAVAILABILITY>
1

> <JCHEM_DONOR_COUNT>
1

> <JCHEM_FORMAL_CHARGE>
0

> <JCHEM_GHOSE_FILTER>
1

> <JCHEM_IUPAC>
2-amino-2-(hydroxymethyl)propane-1,3-diol; 5-[(3R)-1,2-dithiolan-3-yl]pentanoic acid

> <ALOGPS_LOGP>
2.75

> <JCHEM_LOGP>
2.1137794076666667

> <ALOGPS_LOGS>
-2.96

> <JCHEM_MDDR_LIKE_RULE>
0

> <JCHEM_NUMBER_OF_RINGS>
1

> <JCHEM_PHYSIOLOGICAL_CHARGE>
-1

> <JCHEM_PKA_STRONGEST_ACIDIC>
4.523468122735193

> <JCHEM_POLAR_SURFACE_AREA>
37.3

> <JCHEM_REFRACTIVITY>
54.3714

> <JCHEM_ROTATABLE_BOND_COUNT>
8

> <JCHEM_RULE_OF_FIVE>
1

> <ALOGPS_SOLUBILITY>
2.24e-01 g/l

> <JCHEM_TRADITIONAL_IUPAC>
lipoic acid; tris buffer

> <JCHEM_VEBER_RULE>
1

> <DRUGBANK_ID>
DB06253

> <DRUG_GROUPS>
investigational

> <GENERIC_NAME>
Thioctic acid tromethamine

> <SYNONYMS>
(R)-5-(1,2-dithiolaln-3-yl)-pentanoic acid tromethamine; Thioctic acid tromethamine

$$$$
