
  Mrv1652310211603422D          

 30 31  0  0  0  0            999 V2000
   -6.2116   -2.1177    0.0000 C   0  0  0  0  0  0  0  0  0  0  0  0
   -5.4971   -1.7052    0.0000 C   0  0  0  0  0  0  0  0  0  0  0  0
   -4.7826   -2.1177    0.0000 C   0  0  0  0  0  0  0  0  0  0  0  0
   -4.0681   -1.7052    0.0000 C   0  0  0  0  0  0  0  0  0  0  0  0
   -3.3537   -2.1177    0.0000 C   0  0  0  0  0  0  0  0  0  0  0  0
   -2.6392   -1.7052    0.0000 C   0  0  0  0  0  0  0  0  0  0  0  0
   -1.9247   -2.1177    0.0000 C   0  0  0  0  0  0  0  0  0  0  0  0
   -1.2103   -1.7052    0.0000 C   0  0  0  0  0  0  0  0  0  0  0  0
   -0.4958   -2.1177    0.0000 N   0  0  0  0  0  0  0  0  0  0  0  0
   -0.4095   -2.9382    0.0000 C   0  0  0  0  0  0  0  0  0  0  0  0
    0.3974   -3.1097    0.0000 C   0  0  0  0  0  0  0  0  0  0  0  0
    0.8099   -2.3952    0.0000 C   0  0  0  0  0  0  0  0  0  0  0  0
    0.2579   -1.7821    0.0000 C   0  0  0  0  0  0  0  0  0  0  0  0
    0.5128   -0.9975    0.0000 C   0  0  0  0  0  0  0  0  0  0  0  0
    1.3198   -0.8260    0.0000 C   0  0  0  0  0  0  0  0  0  0  0  0
    1.8718   -1.4391    0.0000 C   0  0  0  0  0  0  0  0  0  0  0  0
    1.6169   -2.2237    0.0000 C   0  0  0  0  0  0  0  0  0  0  0  0
    2.1689   -2.8368    0.0000 C   0  0  0  0  0  0  0  0  0  0  0  0
    2.6788   -1.2676    0.0000 C   0  0  0  0  0  0  0  0  0  0  0  0
    3.2308   -1.8807    0.0000 C   0  0  0  0  0  0  0  0  0  0  0  0
    4.0378   -1.7091    0.0000 O   0  0  0  0  0  0  0  0  0  0  0  0
    2.9759   -2.6653    0.0000 O   0  0  0  0  0  0  0  0  0  0  0  0
    1.5747   -0.0414    0.0000 C   0  0  0  0  0  0  0  0  0  0  0  0
   -0.0392   -0.3844    0.0000 N   0  0  0  0  0  0  0  0  0  0  0  0
    0.2157    0.4002    0.0000 C   0  0  0  0  0  0  0  0  0  0  0  0
    1.0227    0.5717    0.0000 O   0  0  0  0  0  0  0  0  0  0  0  0
   -0.3363    1.0133    0.0000 C   0  0  0  0  0  0  0  0  0  0  0  0
    0.2768    1.5653    0.0000 C   0  0  0  0  0  0  0  0  0  0  0  0
   -0.9494    0.4612    0.0000 C   0  0  0  0  0  0  0  0  0  0  0  0
   -0.8883    1.6264    0.0000 C   0  0  0  0  0  0  0  0  0  0  0  0
  1  2  1  0  0  0  0
  2  3  1  0  0  0  0
  3  4  1  0  0  0  0
  4  5  1  0  0  0  0
  5  6  1  0  0  0  0
  6  7  1  0  0  0  0
  7  8  1  0  0  0  0
  8  9  1  0  0  0  0
  9 10  1  0  0  0  0
 10 11  1  0  0  0  0
 11 12  1  0  0  0  0
 12 13  2  0  0  0  0
  9 13  1  0  0  0  0
 13 14  1  0  0  0  0
 14 15  2  0  0  0  0
 15 16  1  0  0  0  0
 16 17  2  0  0  0  0
 12 17  1  0  0  0  0
 17 18  1  0  0  0  0
 16 19  1  0  0  0  0
 19 20  1  0  0  0  0
 20 21  2  0  0  0  0
 20 22  1  0  0  0  0
 15 23  1  0  0  0  0
 14 24  1  0  0  0  0
 24 25  1  0  0  0  0
 25 26  2  0  0  0  0
 25 27  1  0  0  0  0
 27 28  1  0  0  0  0
 27 29  1  0  0  0  0
 27 30  1  0  0  0  0
M  END
> <DATABASE_ID>
DB12971

> <DATABASE_NAME>
drugbank

> <SMILES>
CCCCCCCCN1CCC2=C1C(NC(=O)C(C)(C)C)=C(C)C(CC(O)=O)=C2C

> <INCHI_IDENTIFIER>
InChI=1S/C25H40N2O3/c1-7-8-9-10-11-12-14-27-15-13-19-17(2)20(16-21(28)29)18(3)22(23(19)27)26-24(30)25(4,5)6/h7-16H2,1-6H3,(H,26,30)(H,28,29)

> <INCHI_KEY>
TXIIZHHIOHVWJD-UHFFFAOYSA-N

> <FORMULA>
C25H40N2O3

> <MOLECULAR_WEIGHT>
416.606

> <EXACT_MASS>
416.303893156

> <JCHEM_ACCEPTOR_COUNT>
4

> <JCHEM_ATOM_COUNT>
70

> <JCHEM_AVERAGE_POLARIZABILITY>
50.454747932008736

> <JCHEM_BIOAVAILABILITY>
0

> <JCHEM_DONOR_COUNT>
2

> <JCHEM_FORMAL_CHARGE>
0

> <JCHEM_GHOSE_FILTER>
0

> <JCHEM_IUPAC>
2-[7-(2,2-dimethylpropanamido)-4,6-dimethyl-1-octyl-2,3-dihydro-1H-indol-5-yl]acetic acid

> <ALOGPS_LOGP>
4.94

> <JCHEM_LOGP>
6.551835830399229

> <ALOGPS_LOGS>
-5.27

> <JCHEM_MDDR_LIKE_RULE>
0

> <JCHEM_NUMBER_OF_RINGS>
2

> <JCHEM_PHYSIOLOGICAL_CHARGE>
-1

> <JCHEM_PKA>
14.039427155613911

> <JCHEM_PKA_STRONGEST_ACIDIC>
4.7392126776268295

> <JCHEM_PKA_STRONGEST_BASIC>
3.6027996183275377

> <JCHEM_POLAR_SURFACE_AREA>
69.64000000000001

> <JCHEM_REFRACTIVITY>
126.02919999999996

> <JCHEM_ROTATABLE_BOND_COUNT>
11

> <JCHEM_RULE_OF_FIVE>
0

> <ALOGPS_SOLUBILITY>
2.22e-03 g/l

> <JCHEM_TRADITIONAL_IUPAC>
pactimibe

> <JCHEM_VEBER_RULE>
0

> <DRUGBANK_ID>
DB12971

> <DRUG_GROUPS>
investigational

> <GENERIC_NAME>
Pactimibe

> <SYNONYMS>
Pactimibe

$$$$
