
  Mrv1909 12152018032D          

 19 21  0  0  0  0            999 V2000
    3.3710    0.3754    0.0000 C   0  0  0  0  0  0  0  0  0  0  0  0
    2.5552    0.2525    0.0000 N   0  0  0  0  0  0  0  0  0  0  0  0
    2.0408    0.8975    0.0000 C   0  0  0  0  0  0  0  0  0  0  0  0
    1.2365    0.7139    0.0000 N   0  0  0  0  0  0  0  0  0  0  0  0
    0.5915    1.2283    0.0000 C   0  0  0  0  0  0  0  0  0  0  0  0
    0.5915    2.0533    0.0000 C   0  0  0  0  0  0  0  0  0  0  0  0
   -0.1230    2.4658    0.0000 C   0  0  0  0  0  0  0  0  0  0  0  0
   -0.8374    2.0533    0.0000 C   0  0  0  0  0  0  0  0  0  0  0  0
   -1.5519    2.4658    0.0000 Cl  0  0  0  0  0  0  0  0  0  0  0  0
   -0.8374    1.2283    0.0000 C   0  0  0  0  0  0  0  0  0  0  0  0
   -0.1230    0.8158    0.0000 C   0  0  0  0  0  0  0  0  0  0  0  0
    1.2365    2.5677    0.0000 C   0  0  0  0  0  0  0  0  0  0  0  0
    2.0408    2.3841    0.0000 N   0  0  0  0  0  0  0  0  0  0  0  0
    2.3988    1.6408    0.0000 C   0  0  0  0  0  0  0  0  0  0  0  0
    1.0529    3.3720    0.0000 C   0  0  0  0  0  0  0  0  0  0  0  0
    0.2943    3.6962    0.0000 C   0  0  0  0  0  0  0  0  0  0  0  0
    0.3683    4.5179    0.0000 C   0  0  0  0  0  0  0  0  0  0  0  0
    1.1726    4.7015    0.0000 C   0  0  0  0  0  0  0  0  0  0  0  0
    1.5957    3.9933    0.0000 N   0  0  0  0  0  0  0  0  0  0  0  0
  1  2  1  0  0  0  0
  2  3  1  0  0  0  0
  3  4  2  0  0  0  0
  4  5  1  0  0  0  0
  5  6  2  0  0  0  0
  6  7  1  0  0  0  0
  7  8  2  0  0  0  0
  8  9  1  0  0  0  0
  8 10  1  0  0  0  0
 10 11  2  0  0  0  0
  5 11  1  0  0  0  0
  6 12  1  0  0  0  0
 12 13  2  0  0  0  0
 13 14  1  0  0  0  0
  3 14  1  0  0  0  0
 12 15  1  0  0  0  0
 15 16  2  0  0  0  0
 16 17  1  0  0  0  0
 17 18  2  0  0  0  0
 18 19  1  0  0  0  0
 15 19  1  0  0  0  0
M  END
> <DATABASE_ID>
DB16062

> <DATABASE_NAME>
drugbank

> <SMILES>
CNC1=NC2=C(C=C(Cl)C=C2)C(=NC1)C1=CC=CN1

> <INCHI_IDENTIFIER>
InChI=1S/C14H13ClN4/c1-16-13-8-18-14(12-3-2-6-17-12)10-7-9(15)4-5-11(10)19-13/h2-7,17H,8H2,1H3,(H,16,19)

> <INCHI_KEY>
LEAKQIXYSHIHCW-UHFFFAOYSA-N

> <FORMULA>
C14H13ClN4

> <MOLECULAR_WEIGHT>
272.74

> <EXACT_MASS>
272.0828741

> <JCHEM_ACCEPTOR_COUNT>
3

> <JCHEM_ATOM_COUNT>
32

> <JCHEM_AVERAGE_NEUTRAL_MICROSPECIES_CHARGE>
0.42026769239548084

> <JCHEM_AVERAGE_POLARIZABILITY>
28.71394968605451

> <JCHEM_BIOAVAILABILITY>
1

> <JCHEM_DONOR_COUNT>
2

> <JCHEM_FORMAL_CHARGE>
0

> <JCHEM_GHOSE_FILTER>
1

> <JCHEM_IUPAC>
7-chloro-N-methyl-5-(1H-pyrrol-2-yl)-3H-1,4-benzodiazepin-2-amine

> <ALOGPS_LOGP>
2.37

> <JCHEM_LOGP>
2.367195857333334

> <ALOGPS_LOGS>
-3.51

> <JCHEM_MDDR_LIKE_RULE>
0

> <JCHEM_NEUTRAL_CHARGE>
1

> <JCHEM_NUMBER_OF_RINGS>
3

> <JCHEM_PHYSIOLOGICAL_CHARGE>
0

> <JCHEM_PKA_STRONGEST_ACIDIC>
15.466883958737272

> <JCHEM_PKA_STRONGEST_BASIC>
6.860298854363509

> <JCHEM_POLAR_SURFACE_AREA>
52.54

> <JCHEM_REFRACTIVITY>
78.51950000000002

> <JCHEM_ROTATABLE_BOND_COUNT>
1

> <JCHEM_RULE_OF_FIVE>
1

> <ALOGPS_SOLUBILITY>
8.47e-02 g/l

> <JCHEM_TRADITIONAL_IUPAC>
5-({4-[2-(3-methoxyphenyl)-2-oxoethoxy]phenyl}methyl)-1,3-thiazolidine-2,4-dione

> <JCHEM_VEBER_RULE>
0

> <DRUGBANK_ID>
DB16062

> <DRUG_GROUPS>
investigational

> <GENERIC_NAME>
Ro 24-7429

$$$$
