
  Mrv1909 02012019512D          

 66 70  0  0  0  0            999 V2000
   10.7040   -0.4880    0.0000 N   0  0  0  0  0  0  0  0  0  0  0  0
    9.9900   -0.0794    0.0000 C   0  0  0  0  0  0  0  0  0  0  0  0
    9.2810   -0.4880    0.0000 N   0  0  0  0  0  0  0  0  0  0  0  0
    9.9950    0.7476    0.0000 N   0  0  0  0  0  0  0  0  0  0  0  0
    8.5670   -0.0794    0.0000 C   0  0  0  0  0  0  0  0  0  0  0  0
    7.8531   -0.4880    0.0000 C   0  0  0  0  0  0  0  0  0  0  0  0
    7.1392   -0.0794    0.0000 C   0  0  0  0  0  0  0  0  0  0  0  0
    6.4302   -0.4931    0.0000 C   0  0  0  0  0  0  0  0  0  0  0  0
    5.7163   -0.0845    0.0000 C   0  0  0  0  0  0  0  0  0  0  0  0
    5.0024   -0.4980    0.0000 N   0  0  0  0  0  0  0  0  0  0  0  0
    5.0785   -1.4694    0.0000 C   0  0  0  0  0  0  0  0  0  0  0  0
    4.2934   -1.7387    0.0000 C   0  0  1  0  0  0  0  0  0  0  0  0
    4.3041   -2.5610    0.0000 C   0  0  0  0  0  0  0  0  0  0  0  0
    5.0952   -2.8068    0.0000 C   0  0  0  0  0  0  0  0  0  0  0  0
    5.5655   -2.1326    0.0000 N   0  0  0  0  0  0  0  0  0  0  0  0
    2.8537   -0.0865    0.0000 C   0  0  0  0  0  0  0  0  0  0  0  0
    2.1448   -0.5001    0.0000 N   0  0  0  0  0  0  0  0  0  0  0  0
    1.4309   -0.0915    0.0000 C   0  0  0  0  0  0  0  0  0  0  0  0
    0.7169   -0.5050    0.0000 C   0  0  0  0  0  0  0  0  0  0  0  0
    4.2843   -0.0823    0.0000 C   0  0  0  0  0  0  0  0  0  0  0  0
    4.2857    0.7426    0.0000 C   0  0  0  0  0  0  0  0  0  0  0  0
    3.5690    1.1567    0.0000 C   0  0  0  0  0  0  0  0  0  0  0  0
    2.8553    0.7422    0.0000 C   0  0  0  0  0  0  0  0  0  0  0  0
    3.5711   -0.4962    0.0000 C   0  0  0  0  0  0  0  0  0  0  0  0
    1.4376    0.7329    0.0000 O   0  0  0  0  0  0  0  0  0  0  0  0
    3.5795   -1.3251    0.0000 O   0  0  0  0  0  0  0  0  0  0  0  0
    5.7212    0.7379    0.0000 O   0  0  0  0  0  0  0  0  0  0  0  0
    3.5680    1.9818    0.0000 C   0  0  0  0  0  0  0  0  0  0  0  0
    3.5671    2.8068    0.0000 F   0  0  0  0  0  0  0  0  0  0  0  0
    2.7430    1.9808    0.0000 F   0  0  0  0  0  0  0  0  0  0  0  0
    4.3931    1.9827    0.0000 F   0  0  0  0  0  0  0  0  0  0  0  0
  -10.7040   -0.4880    0.0000 N   0  0  0  0  0  0  0  0  0  0  0  0
   -9.9900   -0.0794    0.0000 C   0  0  0  0  0  0  0  0  0  0  0  0
   -9.2810   -0.4880    0.0000 N   0  0  0  0  0  0  0  0  0  0  0  0
   -9.9950    0.7476    0.0000 N   0  0  0  0  0  0  0  0  0  0  0  0
   -8.5671   -0.0794    0.0000 C   0  0  0  0  0  0  0  0  0  0  0  0
   -7.8531   -0.4880    0.0000 C   0  0  0  0  0  0  0  0  0  0  0  0
   -7.1392   -0.0794    0.0000 C   0  0  0  0  0  0  0  0  0  0  0  0
   -6.4302   -0.4931    0.0000 C   0  0  0  0  0  0  0  0  0  0  0  0
   -5.7164   -0.0845    0.0000 C   0  0  0  0  0  0  0  0  0  0  0  0
   -5.0024   -0.4980    0.0000 N   0  0  0  0  0  0  0  0  0  0  0  0
   -5.0786   -1.4694    0.0000 C   0  0  0  0  0  0  0  0  0  0  0  0
   -4.2934   -1.7387    0.0000 C   0  0  1  0  0  0  0  0  0  0  0  0
   -4.3041   -2.5610    0.0000 C   0  0  0  0  0  0  0  0  0  0  0  0
   -5.0953   -2.8068    0.0000 C   0  0  0  0  0  0  0  0  0  0  0  0
   -5.5656   -2.1326    0.0000 N   0  0  0  0  0  0  0  0  0  0  0  0
   -2.8539   -0.0865    0.0000 C   0  0  0  0  0  0  0  0  0  0  0  0
   -2.1449   -0.5001    0.0000 N   0  0  0  0  0  0  0  0  0  0  0  0
   -1.4309   -0.0915    0.0000 C   0  0  0  0  0  0  0  0  0  0  0  0
   -0.7169   -0.5050    0.0000 C   0  0  0  0  0  0  0  0  0  0  0  0
   -4.2843   -0.0823    0.0000 C   0  0  0  0  0  0  0  0  0  0  0  0
   -4.2857    0.7426    0.0000 C   0  0  0  0  0  0  0  0  0  0  0  0
   -3.5690    1.1567    0.0000 C   0  0  0  0  0  0  0  0  0  0  0  0
   -2.8554    0.7422    0.0000 C   0  0  0  0  0  0  0  0  0  0  0  0
   -3.5711   -0.4962    0.0000 C   0  0  0  0  0  0  0  0  0  0  0  0
   -0.7156   -1.3300    0.0000 N   0  0  0  0  0  0  0  0  0  0  0  0
   -0.0053   -0.0910    0.0000 C   0  0  0  0  0  0  0  0  0  0  0  0
    0.7098   -1.3344    0.0000 N   0  0  0  0  0  0  0  0  0  0  0  0
   -0.0074   -1.7439    0.0000 C   0  0  0  0  0  0  0  0  0  0  0  0
   -1.4376    0.7329    0.0000 O   0  0  0  0  0  0  0  0  0  0  0  0
   -3.5795   -1.3251    0.0000 O   0  0  0  0  0  0  0  0  0  0  0  0
   -5.7212    0.7379    0.0000 O   0  0  0  0  0  0  0  0  0  0  0  0
   -3.5680    1.9818    0.0000 C   0  0  0  0  0  0  0  0  0  0  0  0
   -3.5670    2.8068    0.0000 F   0  0  0  0  0  0  0  0  0  0  0  0
   -2.7430    1.9808    0.0000 F   0  0  0  0  0  0  0  0  0  0  0  0
   -4.3931    1.9827    0.0000 F   0  0  0  0  0  0  0  0  0  0  0  0
 32 33  1  0  0  0  0
  8  9  1  0  0  0  0
 33 34  1  0  0  0  0
 17 18  1  0  0  0  0
 33 35  2  0  0  0  0
  3  5  1  0  0  0  0
 34 36  1  0  0  0  0
 18 19  1  0  0  0  0
 36 37  1  0  0  0  0
  9 10  1  0  0  0  0
 37 38  1  0  0  0  0
 11 12  1  0  0  0  0
 38 39  1  0  0  0  0
 20 21  2  0  0  0  0
 39 40  1  0  0  0  0
  2  3  1  0  0  0  0
 40 41  1  0  0  0  0
 42 43  1  0  0  0  0
 21 22  1  0  0  0  0
  5  6  1  0  0  0  0
 22 23  2  0  0  0  0
 23 16  1  0  0  0  0
  1  2  1  0  0  0  0
 43 44  1  0  0  0  0
 44 45  1  0  0  0  0
 45 46  1  0  0  0  0
 46 42  1  0  0  0  0
 16 24  2  0  0  0  0
 24 20  1  0  0  0  0
 47 48  1  0  0  0  0
 20 10  1  0  0  0  0
 48 49  1  0  0  0  0
  6  7  1  0  0  0  0
 49 50  1  0  0  0  0
 18 25  2  0  0  0  0
  2  4  2  0  0  0  0
 51 52  2  0  0  0  0
 24 26  1  0  0  0  0
 52 53  1  0  0  0  0
 12 26  1  1  0  0  0
 53 54  2  0  0  0  0
 54 47  1  0  0  0  0
 12 13  1  0  0  0  0
 47 55  2  0  0  0  0
 55 51  1  0  0  0  0
  9 27  2  0  0  0  0
 56 50  2  0  0  0  0
 13 14  1  0  0  0  0
 50 57  1  0  0  0  0
 57 19  2  0  0  0  0
 22 28  1  0  0  0  0
 19 58  1  0  0  0  0
 14 15  1  0  0  0  0
 58 59  2  0  0  0  0
 59 56  1  0  0  0  0
 51 41  1  0  0  0  0
 28 29  1  0  0  0  0
 49 60  2  0  0  0  0
 15 11  1  0  0  0  0
 55 61  1  0  0  0  0
 43 61  1  6  0  0  0
 28 30  1  0  0  0  0
 40 62  2  0  0  0  0
  7  8  1  0  0  0  0
 53 63  1  0  0  0  0
 28 31  1  0  0  0  0
 63 64  1  0  0  0  0
 63 65  1  0  0  0  0
 16 17  1  0  0  0  0
 63 66  1  0  0  0  0
M  END
> <DATABASE_ID>
DB12997

> <DATABASE_NAME>
drugbank

> <SMILES>
NC(=N)NCCCCC(=O)NC1=CC(=CC(NC(=O)C2=CC(=NC=N2)C(=O)NC2=C(O[C@@H]3CCNC3)C(NC(=O)CCCCNC(N)=N)=CC(=C2)C(F)(F)F)=C1O[C@@H]1CCNC1)C(F)(F)F

> <INCHI_IDENTIFIER>
InChI=1S/C40H50F6N14O6/c41-39(42,43)21-13-25(57-31(61)5-1-3-9-53-37(47)48)33(65-23-7-11-51-18-23)27(15-21)59-35(63)29-17-30(56-20-55-29)36(64)60-28-16-22(40(44,45)46)14-26(34(28)66-24-8-12-52-19-24)58-32(62)6-2-4-10-54-38(49)50/h13-17,20,23-24,51-52H,1-12,18-19H2,(H,57,61)(H,58,62)(H,59,63)(H,60,64)(H4,47,48,53)(H4,49,50,54)/t23-,24-/m1/s1

> <INCHI_KEY>
QPDYBCZNGUJZDK-DNQXCXABSA-N

> <FORMULA>
C40H50F6N14O6

> <MOLECULAR_WEIGHT>
936.922

> <EXACT_MASS>
936.394194364

> <JCHEM_ACCEPTOR_COUNT>
16

> <JCHEM_ATOM_COUNT>
116

> <JCHEM_AVERAGE_NEUTRAL_MICROSPECIES_CHARGE>
3.998450191390217

> <JCHEM_AVERAGE_POLARIZABILITY>
91.28353675562205

> <JCHEM_BIOAVAILABILITY>
0

> <JCHEM_DONOR_COUNT>
12

> <JCHEM_FORMAL_CHARGE>
0

> <JCHEM_GHOSE_FILTER>
0

> <JCHEM_IUPAC>
N4,N6-bis[3-(5-carbamimidamidopentanamido)-2-[(3R)-pyrrolidin-3-yloxy]-5-(trifluoromethyl)phenyl]pyrimidine-4,6-dicarboxamide

> <ALOGPS_LOGP>
1.67

> <JCHEM_LOGP>
0.6850606054371722

> <ALOGPS_LOGS>
-4.77

> <JCHEM_MDDR_LIKE_RULE>
1

> <JCHEM_NEUTRAL_CHARGE>
4

> <JCHEM_NUMBER_OF_RINGS>
5

> <JCHEM_PHYSIOLOGICAL_CHARGE>
4

> <JCHEM_PKA>
12.721777860357307

> <JCHEM_PKA_STRONGEST_ACIDIC>
12.292830564746216

> <JCHEM_PKA_STRONGEST_BASIC>
11.940394271222242

> <JCHEM_POLAR_SURFACE_AREA>
308.5

> <JCHEM_REFRACTIVITY>
254.48649999999998

> <JCHEM_ROTATABLE_BOND_COUNT>
22

> <JCHEM_RULE_OF_FIVE>
0

> <ALOGPS_SOLUBILITY>
1.58e-02 g/l

> <JCHEM_TRADITIONAL_IUPAC>
[(3aS,4R,10aS)-2-amino-5,10,10-trihydroxy-6-imino-1H,3aH,4H,8H,9H-pyrrolo[1,2-c]purin-4-yl]methyl carbamate

> <JCHEM_VEBER_RULE>
0

> <DRUGBANK_ID>
DB12997

> <DRUG_GROUPS>
investigational

> <GENERIC_NAME>
Brilacidin

> <SYNONYMS>
Brilacidin; Brilacidina; Brilacidine; Brilacidinum

> <SALTS>
Brilacidin tetrahydrochloride

$$$$
