
  Mrv1909 11261904462D          

  5  4  0  0  0  0            999 V2000
   -0.3571    0.6187    0.0000 N   0  0  0  0  0  0  0  0  0  0  0  0
   -0.3571   -0.2062    0.0000 C   0  0  0  0  0  0  0  0  0  0  0  0
    0.3573   -0.6187    0.0000 N   0  0  0  0  0  0  0  0  0  0  0  0
   -1.0717   -0.6187    0.0000 N   0  0  0  0  0  0  0  0  0  0  0  0
    1.0718   -0.2062    0.0000 O   0  0  0  0  0  0  0  0  0  0  0  0
  2  1  2  0  0  0  0
  3  2  1  0  0  0  0
  5  3  1  0  0  0  0
  2  4  1  0  0  0  0
M  END
> <DATABASE_ID>
DB03770

> <DATABASE_NAME>
drugbank

> <SMILES>
NC(=N)NO

> <INCHI_IDENTIFIER>
InChI=1S/CH5N3O/c2-1(3)4-5/h5H,(H4,2,3,4)

> <INCHI_KEY>
WFBHRSAKANVBKH-UHFFFAOYSA-N

> <FORMULA>
CH5N3O

> <MOLECULAR_WEIGHT>
75.0699

> <EXACT_MASS>
75.043261797

> <JCHEM_ACCEPTOR_COUNT>
4

> <JCHEM_ATOM_COUNT>
10

> <JCHEM_AVERAGE_POLARIZABILITY>
6.452932466589871

> <JCHEM_BIOAVAILABILITY>
1

> <JCHEM_DONOR_COUNT>
4

> <JCHEM_FORMAL_CHARGE>
0

> <JCHEM_GHOSE_FILTER>
0

> <JCHEM_IUPAC>
N-hydroxyguanidine

> <ALOGPS_LOGP>
-1.81

> <JCHEM_LOGP>
-1.1751874089999998

> <ALOGPS_LOGS>
-1.04

> <JCHEM_MDDR_LIKE_RULE>
0

> <JCHEM_NUMBER_OF_RINGS>
0

> <JCHEM_PHYSIOLOGICAL_CHARGE>
1

> <JCHEM_PKA>
19.171844478788003

> <JCHEM_PKA_STRONGEST_ACIDIC>
14.823463710915513

> <JCHEM_PKA_STRONGEST_BASIC>
10.51277361509189

> <JCHEM_POLAR_SURFACE_AREA>
82.13000000000001

> <JCHEM_REFRACTIVITY>
38.1162

> <JCHEM_ROTATABLE_BOND_COUNT>
0

> <JCHEM_RULE_OF_FIVE>
1

> <ALOGPS_SOLUBILITY>
6.83e+00 g/l

> <JCHEM_TRADITIONAL_IUPAC>
5-[(2R,4S,5R)-4-hydroxy-5-(hydroxymethyl)oxolan-2-yl]-1-methyl-3H-pyrimidine-2,4-dione

> <JCHEM_VEBER_RULE>
0

> <DRUGBANK_ID>
DB03770

> <SECONDARY_ACCESSION_NUMBERS>
EXPT01741

> <DRUG_GROUPS>
experimental

> <GENERIC_NAME>
N-hydroxyguanidine

> <SYNONYMS>
Hydroxyguanidine

$$$$
