
  Mrv1533004261506202D          

 33 34  0  0  0  0            999 V2000
    1.4289   -6.6000    0.0000 C   0  0  0  0  0  0  0  0  0  0  0  0
    0.7145   -6.1875    0.0000 C   0  0  0  0  0  0  0  0  0  0  0  0
    0.7145   -5.3625    0.0000 C   0  0  0  0  0  0  0  0  0  0  0  0
    1.4289   -4.9500    0.0000 C   0  0  0  0  0  0  0  0  0  0  0  0
    2.1434   -5.3625    0.0000 C   0  0  0  0  0  0  0  0  0  0  0  0
    2.1434   -6.1875    0.0000 C   0  0  0  0  0  0  0  0  0  0  0  0
    2.8579   -6.6000    0.0000 I   0  0  0  0  0  0  0  0  0  0  0  0
    2.8579   -4.9500    0.0000 N   0  0  0  0  0  0  0  0  0  0  0  0
    3.5724   -5.3625    0.0000 C   0  0  0  0  0  0  0  0  0  0  0  0
    3.5724   -6.1875    0.0000 O   0  0  0  0  0  0  0  0  0  0  0  0
    4.2868   -4.9500    0.0000 C   0  0  0  0  0  0  0  0  0  0  0  0
    5.0013   -5.3625    0.0000 O   0  0  0  0  0  0  0  0  0  0  0  0
    5.7158   -4.9500    0.0000 C   0  0  0  0  0  0  0  0  0  0  0  0
    6.4302   -5.3625    0.0000 C   0  0  0  0  0  0  0  0  0  0  0  0
    6.4302   -6.1875    0.0000 O   0  0  0  0  0  0  0  0  0  0  0  0
    7.1447   -4.9500    0.0000 N   0  0  0  0  0  0  0  0  0  0  0  0
    7.8592   -5.3625    0.0000 C   0  0  0  0  0  0  0  0  0  0  0  0
    8.5737   -4.9500    0.0000 C   0  0  0  0  0  0  0  0  0  0  0  0
    9.2881   -5.3625    0.0000 C   0  0  0  0  0  0  0  0  0  0  0  0
    9.2881   -6.1875    0.0000 C   0  0  0  0  0  0  0  0  0  0  0  0
    8.5737   -6.6000    0.0000 C   0  0  0  0  0  0  0  0  0  0  0  0
    7.8592   -6.1875    0.0000 C   0  0  0  0  0  0  0  0  0  0  0  0
    7.1447   -6.6000    0.0000 I   0  0  0  0  0  0  0  0  0  0  0  0
    8.5737   -7.4250    0.0000 C   0  0  0  0  0  0  0  0  0  0  0  0
    9.2881   -7.8375    0.0000 O   0  0  0  0  0  0  0  0  0  0  0  0
    7.8592   -7.8375    0.0000 O   0  0  0  0  0  0  0  0  0  0  0  0
   10.0026   -6.6000    0.0000 I   0  0  0  0  0  0  0  0  0  0  0  0
    8.5737   -4.1250    0.0000 I   0  0  0  0  0  0  0  0  0  0  0  0
    1.4289   -4.1250    0.0000 I   0  0  0  0  0  0  0  0  0  0  0  0
    0.0000   -4.9500    0.0000 C   0  0  0  0  0  0  0  0  0  0  0  0
   -0.7145   -5.3625    0.0000 O   0  0  0  0  0  0  0  0  0  0  0  0
    0.0000   -4.1250    0.0000 O   0  0  0  0  0  0  0  0  0  0  0  0
    0.0000   -6.6000    0.0000 I   0  0  0  0  0  0  0  0  0  0  0  0
  1  2  2  0  0  0  0
  2  3  1  0  0  0  0
  3  4  2  0  0  0  0
  4  5  1  0  0  0  0
  5  6  2  0  0  0  0
  1  6  1  0  0  0  0
  6  7  1  0  0  0  0
  5  8  1  0  0  0  0
  8  9  1  0  0  0  0
  9 10  2  0  0  0  0
  9 11  1  0  0  0  0
 11 12  1  0  0  0  0
 12 13  1  0  0  0  0
 13 14  1  0  0  0  0
 14 15  2  0  0  0  0
 14 16  1  0  0  0  0
 16 17  1  0  0  0  0
 17 18  2  0  0  0  0
 18 19  1  0  0  0  0
 19 20  2  0  0  0  0
 20 21  1  0  0  0  0
 21 22  2  0  0  0  0
 17 22  1  0  0  0  0
 22 23  1  0  0  0  0
 21 24  1  0  0  0  0
 24 25  2  0  0  0  0
 24 26  1  0  0  0  0
 20 27  1  0  0  0  0
 18 28  1  0  0  0  0
  4 29  1  0  0  0  0
  3 30  1  0  0  0  0
 30 31  2  0  0  0  0
 30 32  1  0  0  0  0
  2 33  1  0  0  0  0
M  END
> <DATABASE_ID>
DB13741

> <DATABASE_NAME>
drugbank

> <SMILES>
OC(=O)C1=C(I)C(NC(=O)COCC(=O)NC2=C(I)C=C(I)C(C(O)=O)=C2I)=C(I)C=C1I

> <INCHI_IDENTIFIER>
InChI=1S/C18H10I6N2O7/c19-5-1-7(21)15(13(23)11(5)17(29)30)25-9(27)3-33-4-10(28)26-16-8(22)2-6(20)12(14(16)24)18(31)32/h1-2H,3-4H2,(H,25,27)(H,26,28)(H,29,30)(H,31,32)

> <INCHI_KEY>
FZDZULUFHNDEDJ-UHFFFAOYSA-N

> <FORMULA>
C18H10I6N2O7

> <MOLECULAR_WEIGHT>
1127.712

> <EXACT_MASS>
1127.47562

> <JCHEM_ACCEPTOR_COUNT>
7

> <JCHEM_ATOM_COUNT>
43

> <JCHEM_AVERAGE_POLARIZABILITY>
64.57577675831544

> <JCHEM_BIOAVAILABILITY>
0

> <JCHEM_DONOR_COUNT>
4

> <JCHEM_FORMAL_CHARGE>
0

> <JCHEM_GHOSE_FILTER>
0

> <JCHEM_IUPAC>
3-(2-{[(3-carboxy-2,4,6-triiodophenyl)carbamoyl]methoxy}acetamido)-2,4,6-triiodobenzoic acid

> <ALOGPS_LOGP>
2.84

> <JCHEM_LOGP>
6.837952532999999

> <ALOGPS_LOGS>
-5.28

> <JCHEM_MDDR_LIKE_RULE>
0

> <JCHEM_NUMBER_OF_RINGS>
2

> <JCHEM_PHYSIOLOGICAL_CHARGE>
-2

> <JCHEM_PKA>
2.626983156952332

> <JCHEM_PKA_STRONGEST_ACIDIC>
2.024923282347553

> <JCHEM_PKA_STRONGEST_BASIC>
-4.247407910223423

> <JCHEM_POLAR_SURFACE_AREA>
142.03

> <JCHEM_REFRACTIVITY>
176.4237

> <JCHEM_ROTATABLE_BOND_COUNT>
8

> <JCHEM_RULE_OF_FIVE>
0

> <ALOGPS_SOLUBILITY>
5.91e-03 g/l

> <JCHEM_TRADITIONAL_IUPAC>
ioglycamic acid

> <JCHEM_VEBER_RULE>
0

> <DRUGBANK_ID>
DB13741

> <DRUG_GROUPS>
experimental

> <GENERIC_NAME>
Ioglycamic acid

> <SYNONYMS>
Ioglycamic acid

$$$$
