
  Mrv1909 05201914462D          

 37 40  0  0  0  0            999 V2000
    0.0000   -2.4750    0.0000 C   0  0  0  0  0  0  0  0  0  0  0  0
    0.0000   -1.6500    0.0000 O   0  0  0  0  0  0  0  0  0  0  0  0
    0.7145   -1.2375    0.0000 C   0  0  0  0  0  0  0  0  0  0  0  0
    0.7145   -0.4125    0.0000 C   0  0  0  0  0  0  0  0  0  0  0  0
    0.0000    0.0000    0.0000 O   0  0  0  0  0  0  0  0  0  0  0  0
    0.0000    0.8250    0.0000 C   0  0  0  0  0  0  0  0  0  0  0  0
    1.4289    0.0000    0.0000 C   0  0  0  0  0  0  0  0  0  0  0  0
    2.1434   -0.4125    0.0000 C   0  0  0  0  0  0  0  0  0  0  0  0
    2.8579    0.0000    0.0000 C   0  0  0  0  0  0  0  0  0  0  0  0
    2.8579    0.8250    0.0000 O   0  0  0  0  0  0  0  0  0  0  0  0
    3.5724    1.2375    0.0000 C   0  0  0  0  0  0  0  0  0  0  0  0
    3.5724    2.0625    0.0000 C   0  0  0  0  0  0  0  0  0  0  0  0
    4.2868    2.4750    0.0000 C   0  0  0  0  0  0  0  0  0  0  0  0
    5.0013    2.0625    0.0000 C   0  0  0  0  0  0  0  0  0  0  0  0
    5.0013    1.2375    0.0000 C   0  0  0  0  0  0  0  0  0  0  0  0
    5.7158    0.8250    0.0000 N   0  0  0  0  0  0  0  0  0  0  0  0
    6.4302    1.2375    0.0000 C   0  0  0  0  0  0  0  0  0  0  0  0
    6.4302    2.0625    0.0000 O   0  0  0  0  0  0  0  0  0  0  0  0
    7.1447    0.8250    0.0000 N   0  0  0  0  0  0  0  0  0  0  0  0
    7.8592    1.2375    0.0000 C   0  0  0  0  0  0  0  0  0  0  0  0
    7.9454    2.0580    0.0000 N   0  0  0  0  0  0  0  0  0  0  0  0
    8.7524    2.2295    0.0000 O   0  0  0  0  0  0  0  0  0  0  0  0
    9.1649    1.5150    0.0000 C   0  0  0  0  0  0  0  0  0  0  0  0
    8.6129    0.9019    0.0000 C   0  0  0  0  0  0  0  0  0  0  0  0
    9.9854    1.4288    0.0000 C   0  0  0  0  0  0  0  0  0  0  0  0
    9.8991    0.6083    0.0000 C   0  0  0  0  0  0  0  0  0  0  0  0
   10.0716    2.2493    0.0000 C   0  0  0  0  0  0  0  0  0  0  0  0
   10.8058    1.3426    0.0000 C   0  0  0  0  0  0  0  0  0  0  0  0
   11.6263    1.2563    0.0000 F   0  0  0  0  0  0  0  0  0  0  0  0
   10.7196    0.5221    0.0000 F   0  0  0  0  0  0  0  0  0  0  0  0
   10.8921    2.1630    0.0000 F   0  0  0  0  0  0  0  0  0  0  0  0
    4.2868    0.8250    0.0000 C   0  0  0  0  0  0  0  0  0  0  0  0
    3.5724   -0.4125    0.0000 N   0  0  0  0  0  0  0  0  0  0  0  0
    3.5724   -1.2375    0.0000 C   0  0  0  0  0  0  0  0  0  0  0  0
    2.8579   -1.6500    0.0000 N   0  0  0  0  0  0  0  0  0  0  0  0
    2.1434   -1.2375    0.0000 C   0  0  0  0  0  0  0  0  0  0  0  0
    1.4289   -1.6500    0.0000 C   0  0  0  0  0  0  0  0  0  0  0  0
  1  2  1  0  0  0  0
  2  3  1  0  0  0  0
  3  4  2  0  0  0  0
  4  5  1  0  0  0  0
  5  6  1  0  0  0  0
  4  7  1  0  0  0  0
  7  8  2  0  0  0  0
  8  9  1  0  0  0  0
  9 10  1  0  0  0  0
 10 11  1  0  0  0  0
 11 12  2  0  0  0  0
 12 13  1  0  0  0  0
 13 14  2  0  0  0  0
 14 15  1  0  0  0  0
 15 16  1  0  0  0  0
 16 17  1  0  0  0  0
 17 18  2  0  0  0  0
 17 19  1  0  0  0  0
 19 20  1  0  0  0  0
 20 21  2  0  0  0  0
 21 22  1  0  0  0  0
 22 23  1  0  0  0  0
 23 24  2  0  0  0  0
 20 24  1  0  0  0  0
 23 25  1  0  0  0  0
 25 26  1  0  0  0  0
 25 27  1  0  0  0  0
 25 28  1  0  0  0  0
 28 29  1  0  0  0  0
 28 30  1  0  0  0  0
 28 31  1  0  0  0  0
 15 32  2  0  0  0  0
 11 32  1  0  0  0  0
  9 33  2  0  0  0  0
 33 34  1  0  0  0  0
 34 35  2  0  0  0  0
 35 36  1  0  0  0  0
  8 36  1  0  0  0  0
 36 37  2  0  0  0  0
  3 37  1  0  0  0  0
M  END
> <DATABASE_ID>
DB15068

> <DATABASE_NAME>
drugbank

> <SMILES>
COC1=C(OC)C=C2C(OC3=CC=CC(NC(=O)NC4=NOC(=C4)C(C)(C)C(F)(F)F)=C3)=NC=NC2=C1

> <INCHI_IDENTIFIER>
InChI=1S/C24H22F3N5O5/c1-23(2,24(25,26)27)19-11-20(32-37-19)31-22(33)30-13-6-5-7-14(8-13)36-21-15-9-17(34-3)18(35-4)10-16(15)28-12-29-21/h5-12H,1-4H3,(H2,30,31,32,33)

> <INCHI_KEY>
DKNUPRMJNUQNHR-UHFFFAOYSA-N

> <FORMULA>
C24H22F3N5O5

> <MOLECULAR_WEIGHT>
517.465

> <EXACT_MASS>
517.157303317

> <JCHEM_ACCEPTOR_COUNT>
6

> <JCHEM_ATOM_COUNT>
59

> <JCHEM_AVERAGE_POLARIZABILITY>
47.54513749407529

> <JCHEM_BIOAVAILABILITY>
0

> <JCHEM_DONOR_COUNT>
2

> <JCHEM_FORMAL_CHARGE>
0

> <JCHEM_GHOSE_FILTER>
0

> <JCHEM_IUPAC>
1-{3-[(6,7-dimethoxyquinazolin-4-yl)oxy]phenyl}-3-[5-(1,1,1-trifluoro-2-methylpropan-2-yl)-1,2-oxazol-3-yl]urea

> <ALOGPS_LOGP>
4.16

> <JCHEM_LOGP>
5.138361481333334

> <ALOGPS_LOGS>
-4.12

> <JCHEM_MDDR_LIKE_RULE>
1

> <JCHEM_NUMBER_OF_RINGS>
4

> <JCHEM_PHYSIOLOGICAL_CHARGE>
0

> <JCHEM_PKA>
17.681227336871018

> <JCHEM_PKA_STRONGEST_ACIDIC>
8.260121842048354

> <JCHEM_PKA_STRONGEST_BASIC>
2.9037719728015907

> <JCHEM_POLAR_SURFACE_AREA>
120.63

> <JCHEM_REFRACTIVITY>
129.50740000000005

> <JCHEM_ROTATABLE_BOND_COUNT>
8

> <JCHEM_RULE_OF_FIVE>
0

> <ALOGPS_SOLUBILITY>
3.93e-02 g/l

> <JCHEM_TRADITIONAL_IUPAC>
(2R)-14-fluoro-2-methyl-6,9,10,19-tetraazapentacyclo[14.2.1.0^{2,6}.0^{8,18}.0^{12,17}]nonadeca-1(18),8,12(17),13,15-pentaen-11-one

> <JCHEM_VEBER_RULE>
0

> <DRUGBANK_ID>
DB15068

> <DRUG_GROUPS>
investigational

> <GENERIC_NAME>
Agerafenib

> <SYNONYMS>
Agerafenib

$$$$
