
  Mrv1909 11292217342D          

 41 45  0  0  0  0            999 V2000
    2.1434    3.7125    0.0000 C   0  0  0  0  0  0  0  0  0  0  0  0
    1.4289    3.3000    0.0000 O   0  0  0  0  0  0  0  0  0  0  0  0
    1.4289    2.4750    0.0000 C   0  0  0  0  0  0  0  0  0  0  0  0
    2.1434    2.0625    0.0000 N   0  0  0  0  0  0  0  0  0  0  0  0
    2.1434    1.2375    0.0000 C   0  0  0  0  0  0  0  0  0  0  0  0
    1.4289    0.8250    0.0000 C   0  0  0  0  0  0  0  0  0  0  0  0
    0.7145    1.2375    0.0000 C   0  0  0  0  0  0  0  0  0  0  0  0
    0.7145    2.0625    0.0000 C   0  0  0  0  0  0  0  0  0  0  0  0
   -0.0000    2.4750    0.0000 N   0  0  0  0  0  0  0  0  0  0  0  0
   -0.0000    3.3000    0.0000 S   0  0  0  0  0  0  0  0  0  0  0  0
    0.8250    3.3000    0.0000 C   0  0  0  0  0  0  0  0  0  0  0  0
   -0.8250    3.3000    0.0000 O   0  0  0  0  0  0  0  0  0  0  0  0
   -0.0000    4.1250    0.0000 O   0  0  0  0  0  0  0  0  0  0  0  0
    1.4289    0.0000    0.0000 C   0  0  0  0  0  0  0  0  0  0  0  0
    2.1434   -0.4125    0.0000 C   0  0  0  0  0  0  0  0  0  0  0  0
    2.8579    0.0000    0.0000 C   0  0  0  0  0  0  0  0  0  0  0  0
    3.5724   -0.4125    0.0000 C   0  0  0  0  0  0  0  0  0  0  0  0
    4.2868   -0.0000    0.0000 F   0  0  0  0  0  0  0  0  0  0  0  0
    3.5724   -1.2375    0.0000 C   0  0  0  0  0  0  0  0  0  0  0  0
    2.8579   -1.6500    0.0000 C   0  0  0  0  0  0  0  0  0  0  0  0
    2.8579   -2.4750    0.0000 C   0  0  0  0  0  0  0  0  0  0  0  0
    2.1434   -2.8875    0.0000 N   0  0  0  0  0  0  0  0  0  0  0  0
    2.1434   -3.7125    0.0000 C   0  0  0  0  0  0  0  0  0  0  0  0
    1.4289   -4.1250    0.0000 C   0  0  0  0  0  0  0  0  0  0  0  0
    0.7145   -3.7125    0.0000 C   0  0  0  0  0  0  0  0  0  0  0  0
    0.7145   -2.8875    0.0000 C   0  0  0  0  0  0  0  0  0  0  0  0
    1.4289   -2.4750    0.0000 C   0  0  0  0  0  0  0  0  0  0  0  0
   -0.0000   -4.1250    0.0000 C   0  0  0  0  0  0  0  0  0  0  0  0
   -0.4125   -3.4105    0.0000 C   0  0  0  0  0  0  0  0  0  0  0  0
    0.4125   -4.8395    0.0000 C   0  0  0  0  0  0  0  0  0  0  0  0
   -0.7145   -4.5375    0.0000 O   0  0  0  0  0  0  0  0  0  0  0  0
    2.1434   -1.2375    0.0000 C   0  0  0  0  0  0  0  0  0  0  0  0
    1.4289   -1.6500    0.0000 N   0  0  0  0  0  0  0  0  0  0  0  0
    0.7145   -1.2375    0.0000 C   0  0  0  0  0  0  0  0  0  0  0  0
    0.7145   -0.4125    0.0000 N   0  0  0  0  0  0  0  0  0  0  0  0
    0.0000   -1.6500    0.0000 N   0  0  0  0  0  0  0  0  0  0  0  0
    0.0000   -2.4750    0.0000 C   0  0  0  0  0  0  0  0  0  0  0  0
   -0.7145   -2.8875    0.0000 C   0  0  0  0  0  0  0  0  0  0  0  0
   -1.4289   -2.4750    0.0000 O   0  0  0  0  0  0  0  0  0  0  0  0
   -1.4289   -1.6500    0.0000 C   0  0  0  0  0  0  0  0  0  0  0  0
   -0.7145   -1.2375    0.0000 C   0  0  0  0  0  0  0  0  0  0  0  0
  1  2  1  0  0  0  0
  2  3  1  0  0  0  0
  3  4  2  0  0  0  0
  4  5  1  0  0  0  0
  5  6  2  0  0  0  0
  6  7  1  0  0  0  0
  7  8  2  0  0  0  0
  3  8  1  0  0  0  0
  8  9  1  0  0  0  0
  9 10  1  0  0  0  0
 10 11  1  0  0  0  0
 10 12  2  0  0  0  0
 10 13  2  0  0  0  0
  6 14  1  0  0  0  0
 14 15  2  0  0  0  0
 15 16  1  0  0  0  0
 16 17  2  0  0  0  0
 17 18  1  0  0  0  0
 17 19  1  0  0  0  0
 19 20  2  0  0  0  0
 20 21  1  0  0  0  0
 21 22  1  0  0  0  0
 22 23  1  0  0  0  0
 23 24  1  0  0  0  0
 24 25  1  0  0  0  0
 25 26  1  0  0  0  0
 26 27  1  0  0  0  0
 22 27  1  0  0  0  0
 25 28  1  0  0  0  0
 28 29  1  0  0  0  0
 28 30  1  0  0  0  0
 28 31  1  0  0  0  0
 20 32  1  0  0  0  0
 15 32  1  0  0  0  0
 32 33  2  0  0  0  0
 33 34  1  0  0  0  0
 34 35  2  0  0  0  0
 14 35  1  0  0  0  0
 34 36  1  0  0  0  0
 36 37  1  0  0  0  0
 37 38  1  0  0  0  0
 38 39  1  0  0  0  0
 39 40  1  0  0  0  0
 40 41  1  0  0  0  0
 36 41  1  0  0  0  0
M  END
> <DATABASE_ID>
DB17235

> <DATABASE_NAME>
drugbank

> <SMILES>
COC1=NC=C(C=C1NS(C)(=O)=O)C1=C2C=C(F)C=C(CN3CCC(CC3)C(C)(C)O)C2=NC(=N1)N1CCOCC1

> <INCHI_IDENTIFIER>
InChI=1S/C28H37FN6O5S/c1-28(2,36)20-5-7-34(8-6-20)17-19-13-21(29)15-22-24(31-27(32-25(19)22)35-9-11-40-12-10-35)18-14-23(33-41(4,37)38)26(39-3)30-16-18/h13-16,20,33,36H,5-12,17H2,1-4H3

> <INCHI_KEY>
NVWKNQGHVMMAJW-UHFFFAOYSA-N

> <FORMULA>
C28H37FN6O5S

> <MOLECULAR_WEIGHT>
588.7

> <EXACT_MASS>
588.253017652

> <JCHEM_ACCEPTOR_COUNT>
10

> <JCHEM_ATOM_COUNT>
78

> <JCHEM_AVERAGE_NEUTRAL_MICROSPECIES_CHARGE>
2.836853434649589

> <JCHEM_AVERAGE_POLARIZABILITY>
61.987779030381695

> <JCHEM_BIOAVAILABILITY>
1

> <JCHEM_DONOR_COUNT>
2

> <JCHEM_FORMAL_CHARGE>
0

> <JCHEM_GHOSE_FILTER>
0

> <JCHEM_IUPAC>
N-[5-(6-fluoro-8-{[4-(2-hydroxypropan-2-yl)piperidin-1-yl]methyl}-2-(morpholin-4-yl)quinazolin-4-yl)-2-methoxypyridin-3-yl]methanesulfonamide

> <ALOGPS_LOGP>
2.94

> <JCHEM_LOGP>
1.384482665261202

> <ALOGPS_LOGS>
-3.87

> <JCHEM_MDDR_LIKE_RULE>
1

> <JCHEM_NEUTRAL_CHARGE>
1

> <JCHEM_NUMBER_OF_RINGS>
5

> <JCHEM_PHYSIOLOGICAL_CHARGE>
1

> <JCHEM_PKA>
15.06448222592979

> <JCHEM_PKA_STRONGEST_ACIDIC>
7.572131611647722

> <JCHEM_PKA_STRONGEST_BASIC>
8.360252414387702

> <JCHEM_POLAR_SURFACE_AREA>
130.01

> <JCHEM_REFRACTIVITY>
154.67519999999996

> <JCHEM_ROTATABLE_BOND_COUNT>
7

> <JCHEM_RULE_OF_FIVE>
0

> <ALOGPS_SOLUBILITY>
7.94e-02 g/l

> <JCHEM_TRADITIONAL_IUPAC>
N-[5-(6-fluoro-8-{[4-(2-hydroxypropan-2-yl)piperidin-1-yl]methyl}-2-(morpholin-4-yl)quinazolin-4-yl)-2-methoxypyridin-3-yl]methanesulfonamide

> <JCHEM_VEBER_RULE>
0

> <DRUGBANK_ID>
DB17235

> <DRUG_GROUPS>
investigational

> <GENERIC_NAME>
Linperlisib

> <SYNONYMS>
Methanesulfonamide, n-(5-(6-fluoro-8-((4-(1-hydroxy-1-methylethyl)-1-piperidinyl)methyl)-2-(4-morpholinyl)-4-quinazolinyl)-2-methoxy-3-pyridinyl)-; N-(5-(6-fluoro-8-((4-(2-hydroxypropan-2-yl) piperidin-1-yl)methyl)-2-morpholinoquinazolin-4-yl)-2-methoxypyridin-3-)methanesulfonamide; Pi3k.delta.-in-2

$$$$
