
  Mrv1909 02282219192D          

 25 26  0  0  1  0            999 V2000
    2.5006   -0.4125    0.0000 C   0  0  0  0  0  0  0  0  0  0  0  0
    1.7861   -3.3000    0.0000 C   0  0  0  0  0  0  0  0  0  0  0  0
    2.5006   -2.8875    0.0000 C   0  0  0  0  0  0  0  0  0  0  0  0
    1.0717   -2.8875    0.0000 C   0  0  0  0  0  0  0  0  0  0  0  0
    2.5006   -2.0625    0.0000 C   0  0  0  0  0  0  0  0  0  0  0  0
    1.0717   -2.0625    0.0000 C   0  0  0  0  0  0  0  0  0  0  0  0
   -0.3572    2.8875    0.0000 C   0  0  0  0  0  0  0  0  0  0  0  0
   -1.0717    3.3000    0.0000 C   0  0  0  0  0  0  0  0  0  0  0  0
    0.3572    1.6500    0.0000 C   0  0  0  0  0  0  0  0  0  0  0  0
   -1.0717    1.6500    0.0000 C   0  0  0  0  0  0  0  0  0  0  0  0
   -0.3572    0.4125    0.0000 C   0  0  0  0  0  0  0  0  0  0  0  0
    1.7861   -0.8250    0.0000 C   0  0  1  0  0  0  0  0  0  0  0  0
   -0.3572    2.0625    0.0000 C   0  0  0  0  0  0  0  0  0  0  0  0
    1.7861   -1.6500    0.0000 C   0  0  0  0  0  0  0  0  0  0  0  0
    0.3572    0.8250    0.0000 C   0  0  0  0  0  0  0  0  0  0  0  0
   -1.7861    2.8875    0.0000 C   0  0  0  0  0  0  0  0  0  0  0  0
   -1.7861    2.0625    0.0000 C   0  0  0  0  0  0  0  0  0  0  0  0
    1.0717    0.4125    0.0000 C   0  0  0  0  0  0  0  0  0  0  0  0
   -1.0717    0.0000    0.0000 N   0  0  0  0  0  0  0  0  0  0  0  0
    1.0717   -0.4125    0.0000 N   0  0  0  0  0  0  0  0  0  0  0  0
   -2.5006    3.3000    0.0000 O   0  0  0  0  0  0  0  0  0  0  0  0
   -2.5006    1.6500    0.0000 O   0  0  0  0  0  0  0  0  0  0  0  0
    1.7861    0.8250    0.0000 O   0  0  0  0  0  0  0  0  0  0  0  0
    1.0717    2.0625    0.0000 H   0  0  0  0  0  0  0  0  0  0  0  0
    2.5006   -1.2375    0.0000 H   0  0  0  0  0  0  0  0  0  0  0  0
  3  2  2  0  0  0  0
  4  2  1  0  0  0  0
  5  3  1  0  0  0  0
  6  4  2  0  0  0  0
  8  7  2  0  0  0  0
 12  1  1  0  0  0  0
 13  7  1  0  0  0  0
 13  9  1  0  0  0  0
 13 10  2  0  0  0  0
 14  5  2  0  0  0  0
 14  6  1  0  0  0  0
 12 14  1  0  0  0  0
 15  9  2  0  0  0  0
 15 11  1  0  0  0  0
 16  8  1  0  0  0  0
 17 10  1  0  0  0  0
 17 16  2  0  0  0  0
 18 15  1  0  0  0  0
 19 11  3  0  0  0  0
 12 20  1  0  0  0  0
 20 18  2  0  0  0  0
 21 16  1  0  0  0  0
 22 17  1  0  0  0  0
 18 23  1  4  0  0  0
 24  9  1  0  0  0  0
 12 25  1  6  0  0  0
M  END
> <DATABASE_ID>
DB16763

> <DATABASE_NAME>
drugbank

> <SMILES>
[H]\C(=C(\C#N)C(O)=N[C@@]([H])(C)C1=CC=CC=C1)C1=CC(O)=C(O)C=C1

> <INCHI_IDENTIFIER>
InChI=1S/C18H16N2O3/c1-12(14-5-3-2-4-6-14)20-18(23)15(11-19)9-13-7-8-16(21)17(22)10-13/h2-10,12,21-22H,1H3,(H,20,23)/b15-9+/t12-/m0/s1

> <INCHI_KEY>
UMGQVUWXNOJOSJ-DGGAMASNSA-N

> <FORMULA>
C18H16N2O3

> <MOLECULAR_WEIGHT>
308.337

> <EXACT_MASS>
308.116092383

> <JCHEM_ACCEPTOR_COUNT>
5

> <JCHEM_ATOM_COUNT>
39

> <JCHEM_AVERAGE_NEUTRAL_MICROSPECIES_CHARGE>
-0.05369799327795943

> <JCHEM_AVERAGE_POLARIZABILITY>
32.47095275464382

> <JCHEM_BIOAVAILABILITY>
1

> <JCHEM_DONOR_COUNT>
3

> <JCHEM_FORMAL_CHARGE>
0

> <JCHEM_GHOSE_FILTER>
1

> <JCHEM_IUPAC>
(2E)-2-cyano-3-(3,4-dihydroxyphenyl)-N-[(1S)-1-phenylethyl]prop-2-enimidic acid

> <ALOGPS_LOGP>
3.13

> <JCHEM_LOGP>
3.718199959333334

> <ALOGPS_LOGS>
-4.44

> <JCHEM_MDDR_LIKE_RULE>
0

> <JCHEM_NEUTRAL_CHARGE>
0

> <JCHEM_NUMBER_OF_RINGS>
2

> <JCHEM_PHYSIOLOGICAL_CHARGE>
0

> <JCHEM_PKA>
8.508641275463926

> <JCHEM_PKA_STRONGEST_ACIDIC>
4.456007814245573

> <JCHEM_PKA_STRONGEST_BASIC>
2.1016265296553986

> <JCHEM_POLAR_SURFACE_AREA>
96.84

> <JCHEM_REFRACTIVITY>
88.3473

> <JCHEM_ROTATABLE_BOND_COUNT>
4

> <JCHEM_RULE_OF_FIVE>
1

> <ALOGPS_SOLUBILITY>
1.13e-02 g/l

> <JCHEM_TRADITIONAL_IUPAC>
tpmpa

> <JCHEM_VEBER_RULE>
0

> <DRUGBANK_ID>
DB16763

> <DRUG_GROUPS>
experimental

> <GENERIC_NAME>
Tyrphostin AG 835

> <SYNONYMS>
Tyrphostin Ag-835; Tyrphostin B44, (+) enantiomer; Tyrphostin B50

$$$$
