
  Mrv1909 01172001232D          

 48 51  0  0  0  0            999 V2000
   -2.4804    2.9827    0.0000 C   0  0  0  0  0  0  0  0  0  0  0  0
   -1.6554    2.9827    0.0000 C   0  0  0  0  0  0  0  0  0  0  0  0
   -1.3986    3.7669    0.0000 C   0  0  0  0  0  0  0  0  0  0  0  0
   -2.0678    4.2536    0.0000 N   0  0  0  0  0  0  0  0  0  0  0  0
   -2.7328    3.7669    0.0000 C   0  0  0  0  0  0  0  0  0  0  0  0
   -1.1712    2.3147    0.0000 N   0  0  0  0  0  0  0  0  0  0  0  0
   -0.3469    2.3161    0.0000 C   0  0  0  0  0  0  0  0  0  0  0  0
    0.0667    1.6023    0.0000 C   0  0  0  0  0  0  0  0  0  0  0  0
    0.0642    3.0313    0.0000 O   0  0  0  0  0  0  0  0  0  0  0  0
   -0.2658    0.8488    0.0000 N   0  0  0  0  0  0  0  0  0  0  0  0
    0.3481    0.2977    0.0000 C   0  0  0  0  0  0  0  0  0  0  0  0
    1.0621    0.7115    0.0000 C   0  0  0  0  0  0  0  0  0  0  0  0
    0.8890    1.5181    0.0000 C   0  0  0  0  0  0  0  0  0  0  0  0
    1.8163    0.3772    0.0000 N   0  0  0  0  0  0  0  0  0  0  0  0
    2.3987    0.9661    0.0000 C   0  0  0  0  0  0  0  0  0  0  0  0
    3.1968    0.7569    0.0000 C   0  0  0  0  0  0  0  0  0  0  0  0
    2.1810    1.7618    0.0000 O   0  0  0  0  0  0  0  0  0  0  0  0
    3.4967   -0.0089    0.0000 C   0  0  0  0  0  0  0  0  0  0  0  0
    4.3202    0.0387    0.0000 C   0  0  0  0  0  0  0  0  0  0  0  0
    4.5295    0.8368    0.0000 C   0  0  0  0  0  0  0  0  0  0  0  0
    3.8351    1.2822    0.0000 N   0  0  0  0  0  0  0  0  0  0  0  0
    4.8429   -0.5996    0.0000 N   0  0  0  0  0  0  0  0  0  0  0  0
    5.6654   -0.5963    0.0000 C   0  0  0  0  0  0  0  0  0  0  0  0
    6.0808   -1.3091    0.0000 C   0  0  0  0  0  0  0  0  0  0  0  0
    6.0752    0.1197    0.0000 O   0  0  0  0  0  0  0  0  0  0  0  0
    5.7498   -2.0614    0.0000 C   0  0  0  0  0  0  0  0  0  0  0  0
    6.3650   -2.6110    0.0000 C   0  0  0  0  0  0  0  0  0  0  0  0
    7.0780   -2.1957    0.0000 C   0  0  0  0  0  0  0  0  0  0  0  0
    6.9032   -1.3894    0.0000 N   0  0  0  0  0  0  0  0  0  0  0  0
    6.2821   -3.4318    0.0000 N   0  0  0  0  0  0  0  0  0  0  0  0
    6.9904   -3.8421    0.0000 C   0  0  0  0  0  0  0  0  0  0  0  0
    6.9892   -4.6671    0.0000 C   0  0  0  0  0  0  0  0  0  0  0  0
    7.7056   -3.4306    0.0000 O   0  0  0  0  0  0  0  0  0  0  0  0
    6.2743   -5.0786    0.0000 C   0  0  0  0  0  0  0  0  0  0  0  0
    7.6988   -5.0755    0.0000 Br  0  0  0  0  0  0  0  0  0  0  0  0
    7.4516   -0.7732    0.0000 C   0  0  0  0  0  0  0  0  0  0  0  0
    3.7863    2.1057    0.0000 C   0  0  0  0  0  0  0  0  0  0  0  0
   -1.0723    0.6752    0.0000 C   0  0  0  0  0  0  0  0  0  0  0  0
   -2.0690    5.0786    0.0000 C   0  0  0  0  0  0  0  0  0  0  0  0
   -3.5175    4.0215    0.0000 C   0  0  0  0  0  0  0  0  0  0  0  0
   -3.6894    4.8283    0.0000 O   0  0  0  0  0  0  0  0  0  0  0  0
   -4.1305    3.4691    0.0000 N   0  0  0  0  0  0  0  0  0  0  0  0
   -4.9344    3.6869    0.0000 C   0  0  0  0  0  0  0  0  0  0  0  0
   -5.5220    3.1036    0.0000 C   0  0  0  0  0  0  0  0  0  0  0  0
   -6.3219    3.3203    0.0000 N   0  0  0  0  0  0  0  0  0  0  0  0
   -6.9095    2.7369    0.0000 C   0  0  0  0  0  0  0  0  0  0  0  0
   -7.7056    2.9534    0.0000 N   0  0  0  0  0  0  0  0  0  0  0  0
   -6.6988    1.9393    0.0000 N   0  0  0  0  0  0  0  0  0  0  0  0
 22 23  1  0  0  0  0
  2  6  1  0  0  0  0
 23 24  1  0  0  0  0
 10 11  1  0  0  0  0
 23 25  2  0  0  0  0
 24 26  2  0  0  0  0
 11 12  2  0  0  0  0
 12 13  1  0  0  0  0
 13  8  2  0  0  0  0
 26 27  1  0  0  0  0
 27 28  2  0  0  0  0
 28 29  1  0  0  0  0
 29 24  1  0  0  0  0
 12 14  1  0  0  0  0
 27 30  1  0  0  0  0
  6  7  1  0  0  0  0
 30 31  1  0  0  0  0
 14 15  1  0  0  0  0
 31 32  1  0  0  0  0
  2  3  2  0  0  0  0
 31 33  2  0  0  0  0
 15 16  1  0  0  0  0
 32 34  2  0  0  0  0
  7  8  1  0  0  0  0
 32 35  1  0  0  0  0
 15 17  2  0  0  0  0
 29 36  1  0  0  0  0
 16 18  2  0  0  0  0
 21 37  1  0  0  0  0
  3  4  1  0  0  0  0
 10 38  1  0  0  0  0
  7  9  2  0  0  0  0
  4 39  1  0  0  0  0
  8 10  1  0  0  0  0
  5 40  1  0  0  0  0
  4  5  1  0  0  0  0
 40 41  2  0  0  0  0
 18 19  1  0  0  0  0
 40 42  1  0  0  0  0
 19 20  2  0  0  0  0
 42 43  1  0  0  0  0
 20 21  1  0  0  0  0
 43 44  1  0  0  0  0
 21 16  1  0  0  0  0
 44 45  1  0  0  0  0
  5  1  2  0  0  0  0
 45 46  2  0  0  0  0
 19 22  1  0  0  0  0
 46 47  1  0  0  0  0
  1  2  1  0  0  0  0
 46 48  1  0  0  0  0
M  END
> <DATABASE_ID>
DB06598

> <DATABASE_NAME>
drugbank

> <SMILES>
CN1C=C(NC(=O)C2=CC(NC(=O)C3=CC(NC(=O)C4=CC(NC(=O)C(Br)=C)=CN4C)=CN3C)=CN2C)C=C1C(=O)NCCN=C(N)N

> <INCHI_IDENTIFIER>
InChI=1S/C30H35BrN12O5/c1-16(31)25(44)36-17-9-22(41(3)12-17)27(46)38-19-11-24(43(5)14-19)29(48)39-20-10-23(42(4)15-20)28(47)37-18-8-21(40(2)13-18)26(45)34-6-7-35-30(32)33/h8-15H,1,6-7H2,2-5H3,(H,34,45)(H,36,44)(H,37,47)(H,38,46)(H,39,48)(H4,32,33,35)

> <INCHI_KEY>
RXOVOXFAAGIKDQ-UHFFFAOYSA-N

> <FORMULA>
C30H35BrN12O5

> <MOLECULAR_WEIGHT>
723.593

> <EXACT_MASS>
722.203675

> <JCHEM_ACCEPTOR_COUNT>
8

> <JCHEM_ATOM_COUNT>
83

> <JCHEM_AVERAGE_NEUTRAL_MICROSPECIES_CHARGE>
0.9999648268275206

> <JCHEM_AVERAGE_POLARIZABILITY>
71.76565621321132

> <JCHEM_BIOAVAILABILITY>
0

> <JCHEM_DONOR_COUNT>
7

> <JCHEM_FORMAL_CHARGE>
0

> <JCHEM_GHOSE_FILTER>
0

> <JCHEM_IUPAC>
4-(4-{4-[4-(2-bromoprop-2-enamido)-1-methyl-1H-pyrrole-2-amido]-1-methyl-1H-pyrrole-2-amido}-1-methyl-1H-pyrrole-2-amido)-N-{2-[(diaminomethylidene)amino]ethyl}-1-methyl-1H-pyrrole-2-carboxamide

> <ALOGPS_LOGP>
2.49

> <JCHEM_LOGP>
0.4377663880435765

> <ALOGPS_LOGS>
-3.89

> <JCHEM_MDDR_LIKE_RULE>
1

> <JCHEM_NEUTRAL_CHARGE>
1

> <JCHEM_NUMBER_OF_RINGS>
4

> <JCHEM_PHYSIOLOGICAL_CHARGE>
1

> <JCHEM_PKA>
14.994352166520077

> <JCHEM_PKA_STRONGEST_ACIDIC>
13.097882466211239

> <JCHEM_PKA_STRONGEST_BASIC>
11.464092169464728

> <JCHEM_POLAR_SURFACE_AREA>
229.62

> <JCHEM_REFRACTIVITY>
190.25719999999993

> <JCHEM_ROTATABLE_BOND_COUNT>
12

> <JCHEM_RULE_OF_FIVE>
0

> <ALOGPS_SOLUBILITY>
9.23e-02 g/l

> <JCHEM_TRADITIONAL_IUPAC>
edaglitazone

> <JCHEM_VEBER_RULE>
0

> <DRUGBANK_ID>
DB06598

> <DRUG_GROUPS>
investigational

> <GENERIC_NAME>
Brostallicin

> <SYNONYMS>
Brostalicina; Brostallicin; Brostallicine; Brostallicinum

> <SALTS>
Brostallicin hydrochloride

$$$$
