
  Mrv1652310201622462D          

 17 17  0  0  0  0            999 V2000
   -1.4289    4.1250    0.0000 C   0  0  0  0  0  0  0  0  0  0  0  0
   -0.7145    3.7125    0.0000 C   0  0  0  0  0  0  0  0  0  0  0  0
    0.0000    4.1250    0.0000 C   0  0  0  0  0  0  0  0  0  0  0  0
   -0.7145    2.8875    0.0000 N   0  0  0  0  0  0  0  0  0  0  0  0
    0.0000    2.4750    0.0000 P   0  0  0  0  0  0  0  0  0  0  0  0
   -0.4125    1.7605    0.0000 S   0  0  0  0  0  0  0  0  0  0  0  0
    0.4125    3.1895    0.0000 O   0  0  0  0  0  0  0  0  0  0  0  0
    1.2375    3.1895    0.0000 C   0  0  0  0  0  0  0  0  0  0  0  0
    0.7145    2.0625    0.0000 O   0  0  0  0  0  0  0  0  0  0  0  0
    0.7145    1.2375    0.0000 C   0  0  0  0  0  0  0  0  0  0  0  0
    1.4289    0.8250    0.0000 C   0  0  0  0  0  0  0  0  0  0  0  0
    1.4289   -0.0000    0.0000 C   0  0  0  0  0  0  0  0  0  0  0  0
    0.7145   -0.4125    0.0000 C   0  0  0  0  0  0  0  0  0  0  0  0
    0.0000    0.0000    0.0000 C   0  0  0  0  0  0  0  0  0  0  0  0
    0.0000    0.8250    0.0000 C   0  0  0  0  0  0  0  0  0  0  0  0
   -0.7145    1.2375    0.0000 Cl  0  0  0  0  0  0  0  0  0  0  0  0
    0.7145   -1.2375    0.0000 Cl  0  0  0  0  0  0  0  0  0  0  0  0
  1  2  1  0  0  0  0
  2  3  1  0  0  0  0
  2  4  1  0  0  0  0
  4  5  1  0  0  0  0
  5  6  2  0  0  0  0
  5  7  1  0  0  0  0
  7  8  1  0  0  0  0
  5  9  1  0  0  0  0
  9 10  1  0  0  0  0
 10 11  2  0  0  0  0
 11 12  1  0  0  0  0
 12 13  2  0  0  0  0
 13 14  1  0  0  0  0
 14 15  2  0  0  0  0
 10 15  1  0  0  0  0
 15 16  1  0  0  0  0
 13 17  1  0  0  0  0
M  END
> <DATABASE_ID>
DB11768

> <DATABASE_NAME>
drugbank

> <SMILES>
COP(=S)(NC(C)C)OC1=CC=C(Cl)C=C1Cl

> <INCHI_IDENTIFIER>
InChI=1S/C10H14Cl2NO2PS/c1-7(2)13-16(17,14-3)15-10-5-4-8(11)6-9(10)12/h4-7H,1-3H3,(H,13,17)

> <INCHI_KEY>
PJFGPJQBWSEWKX-UHFFFAOYSA-N

> <FORMULA>
C10H14Cl2NO2PS

> <MOLECULAR_WEIGHT>
314.16

> <EXACT_MASS>
312.9859923

> <JCHEM_ACCEPTOR_COUNT>
0

> <JCHEM_ATOM_COUNT>
31

> <JCHEM_AVERAGE_POLARIZABILITY>
29.093057898657833

> <JCHEM_BIOAVAILABILITY>
1

> <JCHEM_DONOR_COUNT>
1

> <JCHEM_FORMAL_CHARGE>
0

> <JCHEM_GHOSE_FILTER>
1

> <JCHEM_IUPAC>
[(2,4-dichlorophenoxy)(methoxy)sulfanylidene-lambda5-phosphanyl](propan-2-yl)amine

> <ALOGPS_LOGP>
4.47

> <JCHEM_LOGP>
3.913918106333333

> <ALOGPS_LOGS>
-5.26

> <JCHEM_MDDR_LIKE_RULE>
0

> <JCHEM_NUMBER_OF_RINGS>
1

> <JCHEM_PHYSIOLOGICAL_CHARGE>
0

> <JCHEM_PKA_STRONGEST_ACIDIC>
9.853910184164757

> <JCHEM_POLAR_SURFACE_AREA>
30.49

> <JCHEM_REFRACTIVITY>
76.5941

> <JCHEM_ROTATABLE_BOND_COUNT>
5

> <JCHEM_RULE_OF_FIVE>
1

> <ALOGPS_SOLUBILITY>
1.72e-03 g/l

> <JCHEM_TRADITIONAL_IUPAC>
[2,4-dichlorophenoxy(methoxy)sulfanylidene-lambda5-phosphanyl](isopropyl)amine

> <JCHEM_VEBER_RULE>
1

> <DRUGBANK_ID>
DB11768

> <DRUG_GROUPS>
approved; investigational

> <GENERIC_NAME>
Zytron

> <SYNONYMS>
DMPA; O-(2,4-dichlorophenyl)-O-methyl-isopropylphosphoramidothioate

$$$$
