
  Mrv1718012011717342D          

 26 29  0  0  0  0            999 V2000
    0.2760   -6.4498    0.0000 C   0  0  0  0  0  0  0  0  0  0  0  0
   -0.4039   -5.9825    0.0000 C   0  0  0  0  0  0  0  0  0  0  0  0
   -0.3392   -5.1601    0.0000 S   0  0  0  0  0  0  0  0  0  0  0  0
    0.4832   -5.2248    0.0000 O   0  0  0  0  0  0  0  0  0  0  0  0
   -1.1617   -5.0953    0.0000 O   0  0  0  0  0  0  0  0  0  0  0  0
   -0.2745   -4.3376    0.0000 N   0  0  0  0  0  0  0  0  0  0  0  0
   -0.8103   -3.7103    0.0000 C   0  0  0  0  0  0  0  0  0  0  0  0
   -0.1830   -3.1745    0.0000 C   0  0  0  0  0  0  0  0  0  0  0  0
    0.3528   -3.8018    0.0000 C   0  0  0  0  0  0  0  0  0  0  0  0
   -0.5575   -2.4394    0.0000 C   0  0  0  0  0  0  0  0  0  0  0  0
   -1.3814   -2.3962    0.0000 C   0  0  0  0  0  0  0  0  0  0  0  0
   -2.2052   -2.3530    0.0000 N   0  0  0  0  0  0  0  0  0  0  0  0
    0.3020   -2.5070    0.0000 N   0  0  0  0  0  0  0  0  0  0  0  0
    0.0470   -1.7224    0.0000 C   0  0  0  0  0  0  0  0  0  0  0  0
    0.7145   -1.2375    0.0000 C   0  0  0  0  0  0  0  0  0  0  0  0
    1.3819   -1.7224    0.0000 C   0  0  0  0  0  0  0  0  0  0  0  0
    1.1270   -2.5070    0.0000 N   0  0  0  0  0  0  0  0  0  0  0  0
    0.7145   -0.4125    0.0000 C   0  0  0  0  0  0  0  0  0  0  0  0
    0.0000    0.0000    0.0000 C   0  0  0  0  0  0  0  0  0  0  0  0
   -0.7846   -0.2549    0.0000 C   0  0  0  0  0  0  0  0  0  0  0  0
   -1.2695    0.4125    0.0000 C   0  0  0  0  0  0  0  0  0  0  0  0
   -0.7846    1.0799    0.0000 N   0  0  0  0  0  0  0  0  0  0  0  0
    0.0000    0.8250    0.0000 C   0  0  0  0  0  0  0  0  0  0  0  0
    0.7145    1.2375    0.0000 N   0  0  0  0  0  0  0  0  0  0  0  0
    1.4289    0.8250    0.0000 C   0  0  0  0  0  0  0  0  0  0  0  0
    1.4289    0.0000    0.0000 N   0  0  0  0  0  0  0  0  0  0  0  0
  1  2  1  0  0  0  0
  2  3  1  0  0  0  0
  3  4  2  0  0  0  0
  3  5  2  0  0  0  0
  3  6  1  0  0  0  0
  6  7  1  0  0  0  0
  7  8  1  0  0  0  0
  8  9  1  0  0  0  0
  6  9  1  0  0  0  0
  8 10  1  0  0  0  0
 10 11  1  0  0  0  0
 11 12  3  0  0  0  0
  8 13  1  0  0  0  0
 13 14  1  0  0  0  0
 14 15  2  0  0  0  0
 15 16  1  0  0  0  0
 16 17  2  0  0  0  0
 13 17  1  0  0  0  0
 15 18  1  0  0  0  0
 18 19  2  0  0  0  0
 19 20  1  0  0  0  0
 20 21  2  0  0  0  0
 21 22  1  0  0  0  0
 22 23  1  0  0  0  0
 19 23  1  0  0  0  0
 23 24  2  0  0  0  0
 24 25  1  0  0  0  0
 25 26  2  0  0  0  0
 18 26  1  0  0  0  0
M  END
> <DATABASE_ID>
DB11817

> <DATABASE_NAME>
drugbank

> <SMILES>
CCS(=O)(=O)N1CC(CC#N)(C1)N1C=C(C=N1)C1=C2C=CNC2=NC=N1

> <INCHI_IDENTIFIER>
InChI=1S/C16H17N7O2S/c1-2-26(24,25)22-9-16(10-22,4-5-17)23-8-12(7-21-23)14-13-3-6-18-15(13)20-11-19-14/h3,6-8,11H,2,4,9-10H2,1H3,(H,18,19,20)

> <INCHI_KEY>
XUZMWHLSFXCVMG-UHFFFAOYSA-N

> <FORMULA>
C16H17N7O2S

> <MOLECULAR_WEIGHT>
371.42

> <EXACT_MASS>
371.116443989

> <JCHEM_ACCEPTOR_COUNT>
6

> <JCHEM_ATOM_COUNT>
43

> <JCHEM_AVERAGE_POLARIZABILITY>
36.716857603146266

> <JCHEM_BIOAVAILABILITY>
1

> <JCHEM_DONOR_COUNT>
1

> <JCHEM_FORMAL_CHARGE>
0

> <JCHEM_GHOSE_FILTER>
1

> <JCHEM_IUPAC>
2-[1-(ethanesulfonyl)-3-(4-{7H-pyrrolo[2,3-d]pyrimidin-4-yl}-1H-pyrazol-1-yl)azetidin-3-yl]acetonitrile

> <ALOGPS_LOGP>
1.08

> <JCHEM_LOGP>
-0.18857415466666694

> <ALOGPS_LOGS>
-3.02

> <JCHEM_MDDR_LIKE_RULE>
0

> <JCHEM_NUMBER_OF_RINGS>
4

> <JCHEM_PHYSIOLOGICAL_CHARGE>
0

> <JCHEM_PKA_STRONGEST_ACIDIC>
13.893635160133329

> <JCHEM_PKA_STRONGEST_BASIC>
3.9112904621252658

> <JCHEM_POLAR_SURFACE_AREA>
120.56

> <JCHEM_REFRACTIVITY>
105.5468

> <JCHEM_ROTATABLE_BOND_COUNT>
4

> <JCHEM_RULE_OF_FIVE>
1

> <ALOGPS_SOLUBILITY>
3.57e-01 g/l

> <JCHEM_TRADITIONAL_IUPAC>
2-[1-(ethanesulfonyl)-3-(4-{7H-pyrrolo[2,3-d]pyrimidin-4-yl}pyrazol-1-yl)azetidin-3-yl]acetonitrile

> <JCHEM_VEBER_RULE>
0

> <DRUGBANK_ID>
DB11817

> <DRUG_GROUPS>
approved; investigational

> <GENERIC_NAME>
Baricitinib

> <SYNONYMS>
Baricitinib

> <PRODUCTS>
Baricitinib; Olumiant

$$$$
