
  Mrv1909 07102021182D          

 37 40  0  0  0  0            999 V2000
   -2.4048    2.5820    0.0000 C   0  0  0  0  0  0  0  0  0  0  0  0
   -1.2767    3.4590    0.0000 C   0  0  0  0  0  0  0  0  0  0  0  0
   -1.3921    1.2793    0.0000 C   0  0  0  0  0  0  0  0  0  0  0  0
    1.3705    2.3821    0.0000 C   0  0  0  0  0  0  0  0  0  0  0  0
    4.5466    1.3336    0.0000 C   0  0  0  0  0  0  0  0  0  0  0  0
    2.0307    1.7357    0.0000 C   0  0  0  0  0  0  0  0  0  0  0  0
   -0.2640    2.1564    0.0000 C   0  0  0  0  0  0  0  0  0  0  0  0
    0.2424    1.5050    0.0000 C   0  0  0  0  0  0  0  0  0  0  0  0
    4.5754   -0.8489    0.0000 C   0  0  0  0  0  0  0  0  0  0  0  0
    3.7633   -0.7037    0.0000 C   0  0  0  0  0  0  0  0  0  0  0  0
    1.3367    0.1741    0.0000 C   0  0  0  0  0  0  0  0  0  0  0  0
    2.0195   -0.2889    0.0000 C   0  0  0  0  0  0  0  0  0  0  0  0
    6.1708    1.0432    0.0000 C   0  0  0  0  0  0  0  0  0  0  0  0
    3.7345    1.4789    0.0000 C   0  0  0  0  0  0  0  0  0  0  0  0
    5.3587    1.1884    0.0000 C   0  0  0  0  0  0  0  0  0  0  0  0
    2.9224    1.6241    0.0000 C   0  0  0  0  0  0  0  0  0  0  0  0
    5.9193   -0.3634    0.0000 C   0  0  0  0  0  0  0  0  0  0  0  0
   -1.5876    2.6948    0.0000 C   0  0  0  0  0  0  0  0  0  0  0  0
   -1.0812    2.0435    0.0000 C   0  0  1  0  0  0  0  0  0  0  0  0
    1.0596    1.6179    0.0000 C   0  0  2  0  0  0  0  0  0  0  0  0
    5.1072   -0.2182    0.0000 C   0  0  0  0  0  0  0  0  0  0  0  0
    6.4511    0.2673    0.0000 C   0  0  1  0  0  0  0  0  0  0  0  0
    3.4830    0.0722    0.0000 C   0  0  0  0  0  0  0  0  0  0  0  0
    1.5660    0.9666    0.0000 C   0  0  2  0  0  0  0  0  0  0  0  0
    2.6708    0.2174    0.0000 C   0  0  1  0  0  0  0  0  0  0  0  0
    4.0148    0.7029    0.0000 C   0  0  1  0  0  0  0  0  0  0  0  0
    4.8269    0.5577    0.0000 C   0  0  2  0  0  0  0  0  0  0  0  0
    2.3905    0.9934    0.0000 C   0  0  1  0  0  0  0  0  0  0  0  0
    7.2632    0.1221    0.0000 O   0  0  0  0  0  0  0  0  0  0  0  0
    0.0469    2.9205    0.0000 H   0  0  0  0  0  0  0  0  0  0  0  0
   -0.0685    0.7409    0.0000 H   0  0  0  0  0  0  0  0  0  0  0  0
   -0.5749    1.3922    0.0000 H   0  0  0  0  0  0  0  0  0  0  0  0
    0.5533    2.2692    0.0000 H   0  0  0  0  0  0  0  0  0  0  0  0
    6.7314   -0.5086    0.0000 H   0  0  0  0  0  0  0  0  0  0  0  0
    0.7557    0.8111    0.0000 H   0  0  0  0  0  0  0  0  0  0  0  0
    2.8685   -0.5835    0.0000 H   0  0  0  0  0  0  0  0  0  0  0  0
    3.2027    0.8481    0.0000 H   0  0  0  0  0  0  0  0  0  0  0  0
  8  7  2  0  0  0  0
 10  9  1  0  0  0  0
 12 11  1  0  0  0  0
 15 13  1  0  0  0  0
 16 14  1  0  0  0  0
 18  1  1  0  0  0  0
 18  2  1  0  0  0  0
 19  3  1  0  0  0  0
 19  7  1  0  0  0  0
 19 18  1  0  0  0  0
 20  4  1  0  0  0  0
 20  8  1  0  0  0  0
 21  9  2  0  0  0  0
 21 17  1  0  0  0  0
 22 13  1  0  0  0  0
 22 17  1  0  0  0  0
 23 10  2  0  0  0  0
 24 11  1  0  0  0  0
 24 20  1  6  0  0  0
 25 12  1  0  0  0  0
 25 23  1  0  0  0  0
 26 14  1  0  0  0  0
 26 23  1  0  0  0  0
 27  5  1  6  0  0  0
 27 15  1  0  0  0  0
 27 21  1  0  0  0  0
 26 27  1  0  0  0  0
 28  6  1  6  0  0  0
 28 16  1  0  0  0  0
 24 28  1  0  0  0  0
 28 25  1  0  0  0  0
 22 29  1  0  0  0  0
 30  7  1  0  0  0  0
 31  8  1  0  0  0  0
 19 32  1  1  0  0  0
 20 33  1  6  0  0  0
 22 34  1  1  0  0  0
 24 35  1  1  0  0  0
 25 36  1  1  0  0  0
 26 37  1  1  0  0  0
M  END
> <DATABASE_ID>
DB04038

> <DATABASE_NAME>
drugbank

> <SMILES>
[H]\C(=C(\[H])[C@@]([H])(C)[C@@]1([H])CC[C@@]2([H])C3=CC=C4C[C@@]([H])(O)CC[C@]4(C)[C@@]3([H])CC[C@]12C)[C@]([H])(C)C(C)C

> <INCHI_IDENTIFIER>
InChI=1S/C28H44O/c1-18(2)19(3)7-8-20(4)24-11-12-25-23-10-9-21-17-22(29)13-15-27(21,5)26(23)14-16-28(24,25)6/h7-10,18-20,22,24-26,29H,11-17H2,1-6H3/b8-7+/t19-,20+,22-,24+,25-,26-,27-,28+/m0/s1

> <INCHI_KEY>
DNVPQKQSNYMLRS-APGDWVJJSA-N

> <FORMULA>
C28H44O

> <MOLECULAR_WEIGHT>
396.659

> <EXACT_MASS>
396.339216037

> <JCHEM_ACCEPTOR_COUNT>
1

> <JCHEM_ATOM_COUNT>
73

> <JCHEM_AVERAGE_NEUTRAL_MICROSPECIES_CHARGE>
0.041080202555192125

> <JCHEM_AVERAGE_POLARIZABILITY>
51.00662796623252

> <JCHEM_BIOAVAILABILITY>
1

> <JCHEM_DONOR_COUNT>
1

> <JCHEM_FORMAL_CHARGE>
0

> <JCHEM_GHOSE_FILTER>
0

> <JCHEM_IUPAC>
(1R,3aR,7S,9aR,9bS,11aR)-1-[(2R,3E,5R)-5,6-dimethylhept-3-en-2-yl]-9a,11a-dimethyl-1H,2H,3H,3aH,6H,7H,8H,9H,9aH,9bH,10H,11H,11aH-cyclopenta[a]phenanthren-7-ol

> <ALOGPS_LOGP>
7.39

> <JCHEM_LOGP>
6.632406989000003

> <ALOGPS_LOGS>
-6.41

> <JCHEM_MDDR_LIKE_RULE>
0

> <JCHEM_NEUTRAL_CHARGE>
0

> <JCHEM_NUMBER_OF_RINGS>
4

> <JCHEM_PHYSIOLOGICAL_CHARGE>
0

> <JCHEM_PKA_STRONGEST_ACIDIC>
18.270805421445605

> <JCHEM_PKA_STRONGEST_BASIC>
-1.3681497086596925

> <JCHEM_POLAR_SURFACE_AREA>
20.23

> <JCHEM_REFRACTIVITY>
127.13169999999995

> <JCHEM_ROTATABLE_BOND_COUNT>
4

> <JCHEM_RULE_OF_FIVE>
0

> <ALOGPS_SOLUBILITY>
1.56e-04 g/l

> <JCHEM_TRADITIONAL_IUPAC>
ergosterol

> <JCHEM_VEBER_RULE>
1

> <DRUGBANK_ID>
DB04038

> <SECONDARY_ACCESSION_NUMBERS>
EXPT01357

> <DRUG_GROUPS>
approved; experimental

> <GENERIC_NAME>
Ergosterol

> <SYNONYMS>
(22E,24S)-24-methylcholesta-5,7,22-trien-3Î²-ol; Provitamin D2

> <PRODUCTS>
Zoo Chews Plus Iron

$$$$
