
  Mrv1652310211602302D          

 18 18  0  0  1  0            999 V2000
    1.9967    5.2393    0.0000 C   0  0  0  0  0  0  0  0  0  0  0  0
    1.9967    4.4143    0.0000 C   0  0  0  0  0  0  0  0  0  0  0  0
    1.2822    4.0018    0.0000 C   0  0  0  0  0  0  0  0  0  0  0  0
    0.5678    4.4143    0.0000 C   0  0  0  0  0  0  0  0  0  0  0  0
   -0.1467    4.0018    0.0000 C   0  0  0  0  0  0  0  0  0  0  0  0
    1.2822    3.1768    0.0000 C   0  0  1  0  0  0  0  0  0  0  0  0
    1.9967    2.7643    0.0000 C   0  0  0  0  0  0  0  0  0  0  0  0
    2.7112    3.1768    0.0000 O   0  0  0  0  0  0  0  0  0  0  0  0
    0.5678    2.7643    0.0000 N   0  0  0  0  0  0  0  0  0  0  0  0
    0.5678    1.9393    0.0000 S   0  0  0  0  0  0  0  0  0  0  0  0
   -0.2572    1.9393    0.0000 O   0  0  0  0  0  0  0  0  0  0  0  0
    1.3928    1.9393    0.0000 O   0  0  0  0  0  0  0  0  0  0  0  0
    0.5678    1.1143    0.0000 C   0  0  0  0  0  0  0  0  0  0  0  0
    1.2352    0.6294    0.0000 C   0  0  0  0  0  0  0  0  0  0  0  0
    0.9803   -0.1553    0.0000 C   0  0  0  0  0  0  0  0  0  0  0  0
    0.1553   -0.1553    0.0000 C   0  0  0  0  0  0  0  0  0  0  0  0
   -0.0997    0.6294    0.0000 S   0  0  0  0  0  0  0  0  0  0  0  0
   -0.3297   -0.8227    0.0000 Cl  0  0  0  0  0  0  0  0  0  0  0  0
  1  2  1  0  0  0  0
  2  3  1  0  0  0  0
  3  4  1  0  0  0  0
  4  5  1  0  0  0  0
  3  6  1  0  0  0  0
  6  7  1  0  0  0  0
  7  8  1  0  0  0  0
  6  9  1  1  0  0  0
  9 10  1  0  0  0  0
 10 11  2  0  0  0  0
 10 12  2  0  0  0  0
 10 13  1  0  0  0  0
 13 14  2  0  0  0  0
 14 15  1  0  0  0  0
 15 16  2  0  0  0  0
 16 17  1  0  0  0  0
 13 17  1  0  0  0  0
 16 18  1  0  0  0  0
M  END
> <DATABASE_ID>
DB12819

> <DATABASE_NAME>
drugbank

> <SMILES>
CCC(CC)[C@@H](CO)NS(=O)(=O)C1=CC=C(Cl)S1

> <INCHI_IDENTIFIER>
InChI=1S/C11H18ClNO3S2/c1-3-8(4-2)9(7-14)13-18(15,16)11-6-5-10(12)17-11/h5-6,8-9,13-14H,3-4,7H2,1-2H3/t9-/m1/s1

> <INCHI_KEY>
PYZFRRVBPNGCBX-SECBINFHSA-N

> <FORMULA>
C11H18ClNO3S2

> <MOLECULAR_WEIGHT>
311.84

> <EXACT_MASS>
311.0416635

> <JCHEM_ACCEPTOR_COUNT>
3

> <JCHEM_ATOM_COUNT>
36

> <JCHEM_AVERAGE_POLARIZABILITY>
31.056529879980335

> <JCHEM_BIOAVAILABILITY>
1

> <JCHEM_DONOR_COUNT>
2

> <JCHEM_FORMAL_CHARGE>
0

> <JCHEM_GHOSE_FILTER>
1

> <JCHEM_IUPAC>
5-chloro-N-[(2S)-3-ethyl-1-hydroxypentan-2-yl]thiophene-2-sulfonamide

> <ALOGPS_LOGP>
1.95

> <JCHEM_LOGP>
3.022536787999999

> <ALOGPS_LOGS>
-3.61

> <JCHEM_MDDR_LIKE_RULE>
0

> <JCHEM_NUMBER_OF_RINGS>
1

> <JCHEM_PHYSIOLOGICAL_CHARGE>
0

> <JCHEM_PKA>
14.948739482366673

> <JCHEM_PKA_STRONGEST_ACIDIC>
8.193754120215948

> <JCHEM_PKA_STRONGEST_BASIC>
-2.7709289456868786

> <JCHEM_POLAR_SURFACE_AREA>
66.4

> <JCHEM_REFRACTIVITY>
72.2517

> <JCHEM_ROTATABLE_BOND_COUNT>
6

> <JCHEM_RULE_OF_FIVE>
1

> <ALOGPS_SOLUBILITY>
7.65e-02 g/l

> <JCHEM_TRADITIONAL_IUPAC>
5-chloro-N-[(2S)-3-ethyl-1-hydroxypentan-2-yl]thiophene-2-sulfonamide

> <JCHEM_VEBER_RULE>
0

> <DRUGBANK_ID>
DB12819

> <DRUG_GROUPS>
investigational

> <GENERIC_NAME>
GSI-136

$$$$
