
  Mrv1652306031607142D          

 17 17  0  0  0  0            999 V2000
    7.1447    0.0000    0.0000 C   0  0  0  0  0  0  0  0  0  0  0  0
    6.4302   -1.2375    0.0000 C   0  0  0  0  0  0  0  0  0  0  0  0
    0.0000    0.0000    0.0000 C   0  0  0  0  0  0  0  0  0  0  0  0
    0.7145    1.2375    0.0000 C   0  0  0  0  0  0  0  0  0  0  0  0
    0.7145   -0.4125    0.0000 C   0  0  0  0  0  0  0  0  0  0  0  0
    1.4289    0.8250    0.0000 C   0  0  0  0  0  0  0  0  0  0  0  0
    5.7158    0.0000    0.0000 C   0  0  0  0  0  0  0  0  0  0  0  0
    5.0013   -0.4125    0.0000 C   0  0  0  0  0  0  0  0  0  0  0  0
    2.8579    0.0000    0.0000 C   0  0  0  0  0  0  0  0  0  0  0  0
    0.0000    0.8250    0.0000 C   0  0  0  0  0  0  0  0  0  0  0  0
    1.4289    0.0000    0.0000 C   0  0  0  0  0  0  0  0  0  0  0  0
    3.5724   -0.4125    0.0000 C   0  0  0  0  0  0  0  0  0  0  0  0
   -0.7145    1.2375    0.0000 Cl  0  0  0  0  0  0  0  0  0  0  0  0
    6.4302   -0.4125    0.0000 N   0  0  0  0  0  0  0  0  0  0  0  0
    3.5724   -1.2375    0.0000 O   0  0  0  0  0  0  0  0  0  0  0  0
    4.2868    0.0000    0.0000 O   0  0  0  0  0  0  0  0  0  0  0  0
    2.1434   -0.4125    0.0000 O   0  0  0  0  0  0  0  0  0  0  0  0
  5  3  1  0  0  0  0
  6  4  2  0  0  0  0
  8  7  1  0  0  0  0
 10  3  2  0  0  0  0
 10  4  1  0  0  0  0
 11  5  2  0  0  0  0
 11  6  1  0  0  0  0
 12  9  1  0  0  0  0
 13 10  1  0  0  0  0
 14  1  1  0  0  0  0
 14  2  1  0  0  0  0
 14  7  1  0  0  0  0
 15 12  2  0  0  0  0
 16  8  1  0  0  0  0
 16 12  1  0  0  0  0
 17  9  1  0  0  0  0
 17 11  1  0  0  0  0
M  END
> <DATABASE_ID>
DB13758

> <DATABASE_NAME>
drugbank

> <SMILES>
CN(C)CCOC(=O)COC1=CC=C(Cl)C=C1

> <INCHI_IDENTIFIER>
InChI=1S/C12H16ClNO3/c1-14(2)7-8-16-12(15)9-17-11-5-3-10(13)4-6-11/h3-6H,7-9H2,1-2H3

> <INCHI_KEY>
XZTYGFHCIAKPGJ-UHFFFAOYSA-N

> <FORMULA>
C12H16ClNO3

> <MOLECULAR_WEIGHT>
257.71

> <EXACT_MASS>
257.0818711

> <JCHEM_ACCEPTOR_COUNT>
3

> <JCHEM_ATOM_COUNT>
33

> <JCHEM_AVERAGE_POLARIZABILITY>
26.867182049195197

> <JCHEM_BIOAVAILABILITY>
1

> <JCHEM_DONOR_COUNT>
0

> <JCHEM_FORMAL_CHARGE>
0

> <JCHEM_GHOSE_FILTER>
1

> <JCHEM_IUPAC>
2-(dimethylamino)ethyl 2-(4-chlorophenoxy)acetate

> <ALOGPS_LOGP>
2.40

> <JCHEM_LOGP>
2.0621411133333334

> <ALOGPS_LOGS>
-1.95

> <JCHEM_MDDR_LIKE_RULE>
0

> <JCHEM_NUMBER_OF_RINGS>
1

> <JCHEM_PHYSIOLOGICAL_CHARGE>
1

> <JCHEM_PKA_STRONGEST_BASIC>
8.418003627339894

> <JCHEM_POLAR_SURFACE_AREA>
38.77

> <JCHEM_REFRACTIVITY>
66.19880000000002

> <JCHEM_ROTATABLE_BOND_COUNT>
7

> <JCHEM_RULE_OF_FIVE>
1

> <ALOGPS_SOLUBILITY>
2.90e+00 g/l

> <JCHEM_TRADITIONAL_IUPAC>
2-(dimethylamino)ethyl 4-chlorophenoxyacetate

> <JCHEM_VEBER_RULE>
1

> <DRUGBANK_ID>
DB13758

> <DRUG_GROUPS>
experimental

> <GENERIC_NAME>
Meclofenoxate

> <SYNONYMS>
Meclofenoxate

$$$$
