
  Mrv1652310211602002D          

 30 33  0  0  0  0            999 V2000
    3.9934    5.7750    0.0000 C   0  0  0  0  0  0  0  0  0  0  0  0
    3.9934    4.9500    0.0000 O   0  0  0  0  0  0  0  0  0  0  0  0
    4.7079    4.5375    0.0000 C   0  0  0  0  0  0  0  0  0  0  0  0
    5.4223    4.9500    0.0000 C   0  0  0  0  0  0  0  0  0  0  0  0
    6.1368    4.5375    0.0000 C   0  0  0  0  0  0  0  0  0  0  0  0
    6.1368    3.7125    0.0000 C   0  0  0  0  0  0  0  0  0  0  0  0
    5.4223    3.3000    0.0000 C   0  0  0  0  0  0  0  0  0  0  0  0
    4.7079    3.7125    0.0000 C   0  0  0  0  0  0  0  0  0  0  0  0
    3.9934    3.3000    0.0000 N   0  0  0  0  0  0  0  0  0  0  0  0
    3.9934    2.4750    0.0000 C   0  0  0  0  0  0  0  0  0  0  0  0
    4.7079    2.0625    0.0000 O   0  0  0  0  0  0  0  0  0  0  0  0
    3.2789    2.0625    0.0000 N   0  0  0  0  0  0  0  0  0  0  0  0
    3.2789    1.2375    0.0000 C   0  0  0  0  0  0  0  0  0  0  0  0
    3.9934    0.8250    0.0000 C   0  0  0  0  0  0  0  0  0  0  0  0
    3.9934    0.0000    0.0000 C   0  0  0  0  0  0  0  0  0  0  0  0
    3.2789   -0.4125    0.0000 C   0  0  0  0  0  0  0  0  0  0  0  0
    2.5645    0.0000    0.0000 C   0  0  0  0  0  0  0  0  0  0  0  0
    2.5645    0.8250    0.0000 C   0  0  0  0  0  0  0  0  0  0  0  0
    1.7798    1.0799    0.0000 C   0  0  0  0  0  0  0  0  0  0  0  0
    1.2949    0.4125    0.0000 C   0  0  0  0  0  0  0  0  0  0  0  0
    1.7798   -0.2549    0.0000 N   0  0  0  0  0  0  0  0  0  0  0  0
    1.5249   -1.0396    0.0000 C   0  0  0  0  0  0  0  0  0  0  0  0
    0.7179   -1.2111    0.0000 C   0  0  0  0  0  0  0  0  0  0  0  0
    0.4630   -1.9957    0.0000 C   0  0  0  0  0  0  0  0  0  0  0  0
   -0.3440   -2.1672    0.0000 C   0  0  0  0  0  0  0  0  0  0  0  0
   -0.8960   -1.5541    0.0000 N   0  0  0  0  0  0  0  0  0  0  0  0
   -0.6411   -0.7695    0.0000 C   0  0  0  0  0  0  0  0  0  0  0  0
    0.1659   -0.5980    0.0000 C   0  0  0  0  0  0  0  0  0  0  0  0
   -1.1931   -0.1564    0.0000 N   0  0  0  0  0  0  0  0  0  0  0  0
    6.8513    3.3000    0.0000 Br  0  0  0  0  0  0  0  0  0  0  0  0
  1  2  1  0  0  0  0
  2  3  1  0  0  0  0
  3  4  2  0  0  0  0
  4  5  1  0  0  0  0
  5  6  2  0  0  0  0
  6  7  1  0  0  0  0
  7  8  2  0  0  0  0
  3  8  1  0  0  0  0
  8  9  1  0  0  0  0
  9 10  1  0  0  0  0
 10 11  2  0  0  0  0
 10 12  1  0  0  0  0
 12 13  1  0  0  0  0
 13 14  1  0  0  0  0
 14 15  2  0  0  0  0
 15 16  1  0  0  0  0
 16 17  2  0  0  0  0
 17 18  1  0  0  0  0
 13 18  2  0  0  0  0
 18 19  1  0  0  0  0
 19 20  2  0  0  0  0
 20 21  1  0  0  0  0
 17 21  1  0  0  0  0
 21 22  1  0  0  0  0
 22 23  1  0  0  0  0
 23 24  2  0  0  0  0
 24 25  1  0  0  0  0
 25 26  2  0  0  0  0
 26 27  1  0  0  0  0
 27 28  2  0  0  0  0
 23 28  1  0  0  0  0
 27 29  1  0  0  0  0
  6 30  1  0  0  0  0
M  END
> <DATABASE_ID>
DB12744

> <DATABASE_NAME>
drugbank

> <SMILES>
COC1=CC=C(Br)C=C1NC(=O)NC1=C2C=CN(CC3=CC=NC(N)=C3)C2=CC=C1

> <INCHI_IDENTIFIER>
InChI=1S/C22H20BrN5O2/c1-30-20-6-5-15(23)12-18(20)27-22(29)26-17-3-2-4-19-16(17)8-10-28(19)13-14-7-9-25-21(24)11-14/h2-12H,13H2,1H3,(H2,24,25)(H2,26,27,29)

> <INCHI_KEY>
ZXBFYBLSJMEBEP-UHFFFAOYSA-N

> <FORMULA>
C22H20BrN5O2

> <MOLECULAR_WEIGHT>
466.339

> <EXACT_MASS>
465.080038

> <JCHEM_ACCEPTOR_COUNT>
4

> <JCHEM_ATOM_COUNT>
50

> <JCHEM_AVERAGE_POLARIZABILITY>
43.996366576878074

> <JCHEM_BIOAVAILABILITY>
1

> <JCHEM_DONOR_COUNT>
3

> <JCHEM_FORMAL_CHARGE>
0

> <JCHEM_GHOSE_FILTER>
1

> <JCHEM_IUPAC>
3-{1-[(2-aminopyridin-4-yl)methyl]-1H-indol-4-yl}-1-(5-bromo-2-methoxyphenyl)urea

> <ALOGPS_LOGP>
3.85

> <JCHEM_LOGP>
4.324506845666667

> <ALOGPS_LOGS>
-4.98

> <JCHEM_MDDR_LIKE_RULE>
0

> <JCHEM_NUMBER_OF_RINGS>
4

> <JCHEM_PHYSIOLOGICAL_CHARGE>
1

> <JCHEM_PKA>
15.440989384511404

> <JCHEM_PKA_STRONGEST_ACIDIC>
10.56294096784061

> <JCHEM_PKA_STRONGEST_BASIC>
7.312589136014105

> <JCHEM_POLAR_SURFACE_AREA>
94.2

> <JCHEM_REFRACTIVITY>
123.5916

> <JCHEM_ROTATABLE_BOND_COUNT>
5

> <JCHEM_RULE_OF_FIVE>
1

> <ALOGPS_SOLUBILITY>
4.93e-03 g/l

> <JCHEM_TRADITIONAL_IUPAC>
3-{1-[(2-aminopyridin-4-yl)methyl]indol-4-yl}-1-(5-bromo-2-methoxyphenyl)urea

> <JCHEM_VEBER_RULE>
0

> <DRUGBANK_ID>
DB12744

> <DRUG_GROUPS>
investigational

> <GENERIC_NAME>
CGI-1842

$$$$
