
  Mrv1652310201623422D          

 30 32  0  0  0  0            999 V2000
   -4.4126    4.2065    0.0000 C   0  0  0  0  0  0  0  0  0  0  0  0
   -4.1304    3.4313    0.0000 C   0  0  0  0  0  0  0  0  0  0  0  0
   -3.3179    3.2880    0.0000 C   0  0  0  0  0  0  0  0  0  0  0  0
   -3.0358    2.5128    0.0000 N   0  0  0  0  0  0  0  0  0  0  0  0
   -2.2233    2.3695    0.0000 C   0  0  0  0  0  0  0  0  0  0  0  0
   -1.9411    1.5942    0.0000 C   0  0  0  0  0  0  0  0  0  0  0  0
   -2.4714    0.9623    0.0000 N   0  0  0  0  0  0  0  0  0  0  0  0
   -3.2839    1.1055    0.0000 C   0  0  0  0  0  0  0  0  0  0  0  0
   -3.5661    1.8808    0.0000 C   0  0  0  0  0  0  0  0  0  0  0  0
   -2.1893    0.1870    0.0000 C   0  0  0  0  0  0  0  0  0  0  0  0
   -1.3768    0.0438    0.0000 C   0  0  0  0  0  0  0  0  0  0  0  0
   -1.0946   -0.7315    0.0000 C   0  0  0  0  0  0  0  0  0  0  0  0
   -1.6249   -1.3635    0.0000 C   0  0  0  0  0  0  0  0  0  0  0  0
   -2.4374   -1.2202    0.0000 C   0  0  0  0  0  0  0  0  0  0  0  0
   -2.7196   -0.4450    0.0000 C   0  0  0  0  0  0  0  0  0  0  0  0
   -1.3428   -2.1387    0.0000 C   0  0  0  0  0  0  0  0  0  0  0  0
   -1.8731   -2.7707    0.0000 O   0  0  0  0  0  0  0  0  0  0  0  0
   -0.5303   -2.2820    0.0000 N   0  0  0  0  0  0  0  0  0  0  0  0
   -0.2481   -3.0572    0.0000 C   0  0  0  0  0  0  0  0  0  0  0  0
    0.2822   -3.6892    0.0000 C   0  0  0  0  0  0  0  0  0  0  0  0
    0.0000   -4.4645    0.0000 C   0  0  0  0  0  0  0  0  0  0  0  0
   -0.8125   -4.6077    0.0000 C   0  0  0  0  0  0  0  0  0  0  0  0
   -1.3428   -3.9757    0.0000 C   0  0  0  0  0  0  0  0  0  0  0  0
   -1.0606   -3.2005    0.0000 C   0  0  0  0  0  0  0  0  0  0  0  0
    0.4663   -2.6447    0.0000 C   0  0  0  0  0  0  0  0  0  0  0  0
    1.1808   -3.0572    0.0000 O   0  0  0  0  0  0  0  0  0  0  0  0
    0.4663   -1.8197    0.0000 N   0  0  0  0  0  0  0  0  0  0  0  0
    1.1808   -1.4072    0.0000 C   0  0  0  0  0  0  0  0  0  0  0  0
    1.8953   -1.8197    0.0000 C   0  0  0  0  0  0  0  0  0  0  0  0
    2.6098   -2.2322    0.0000 N   0  0  0  0  0  0  0  0  0  0  0  0
  1  2  1  0  0  0  0
  2  3  1  0  0  0  0
  3  4  1  0  0  0  0
  4  5  1  0  0  0  0
  5  6  1  0  0  0  0
  6  7  1  0  0  0  0
  7  8  1  0  0  0  0
  8  9  1  0  0  0  0
  4  9  1  0  0  0  0
  7 10  1  0  0  0  0
 10 11  2  0  0  0  0
 11 12  1  0  0  0  0
 12 13  2  0  0  0  0
 13 14  1  0  0  0  0
 14 15  2  0  0  0  0
 10 15  1  0  0  0  0
 13 16  1  0  0  0  0
 16 17  2  0  0  0  0
 16 18  1  0  0  0  0
 18 19  1  0  0  0  0
 19 20  1  0  0  0  0
 20 21  1  0  0  0  0
 21 22  1  0  0  0  0
 22 23  1  0  0  0  0
 23 24  1  0  0  0  0
 19 24  1  0  0  0  0
 19 25  1  0  0  0  0
 25 26  2  0  0  0  0
 25 27  1  0  0  0  0
 27 28  1  0  0  0  0
 28 29  1  0  0  0  0
 29 30  3  0  0  0  0
M  END
> <DATABASE_ID>
DB12239

> <DATABASE_NAME>
drugbank

> <SMILES>
CCCN1CCN(CC1)C1=CC=C(C=C1)C(=O)NC1(CCCCC1)C(=O)NCC#N

> <INCHI_IDENTIFIER>
InChI=1S/C23H33N5O2/c1-2-14-27-15-17-28(18-16-27)20-8-6-19(7-9-20)21(29)26-23(10-4-3-5-11-23)22(30)25-13-12-24/h6-9H,2-5,10-11,13-18H2,1H3,(H,25,30)(H,26,29)

> <INCHI_KEY>
LLCRBOWRJOUJAE-UHFFFAOYSA-N

> <FORMULA>
C23H33N5O2

> <MOLECULAR_WEIGHT>
411.55

> <EXACT_MASS>
411.263425323

> <JCHEM_ACCEPTOR_COUNT>
5

> <JCHEM_ATOM_COUNT>
63

> <JCHEM_AVERAGE_POLARIZABILITY>
47.22438233524743

> <JCHEM_BIOAVAILABILITY>
1

> <JCHEM_DONOR_COUNT>
2

> <JCHEM_FORMAL_CHARGE>
0

> <JCHEM_GHOSE_FILTER>
1

> <JCHEM_IUPAC>
N-{1-[(cyanomethyl)carbamoyl]cyclohexyl}-4-(4-propylpiperazin-1-yl)benzamide

> <ALOGPS_LOGP>
2.66

> <JCHEM_LOGP>
2.340122579333333

> <ALOGPS_LOGS>
-3.46

> <JCHEM_MDDR_LIKE_RULE>
1

> <JCHEM_NUMBER_OF_RINGS>
3

> <JCHEM_PHYSIOLOGICAL_CHARGE>
1

> <JCHEM_PKA>
15.927265144277431

> <JCHEM_PKA_STRONGEST_ACIDIC>
11.757880451857192

> <JCHEM_PKA_STRONGEST_BASIC>
8.335178182751958

> <JCHEM_POLAR_SURFACE_AREA>
88.47

> <JCHEM_REFRACTIVITY>
118.70579999999997

> <JCHEM_ROTATABLE_BOND_COUNT>
7

> <JCHEM_RULE_OF_FIVE>
1

> <ALOGPS_SOLUBILITY>
1.42e-01 g/l

> <JCHEM_TRADITIONAL_IUPAC>
N-[1-(cyanomethylcarbamoyl)cyclohexyl]-4-(4-propylpiperazin-1-yl)benzamide

> <JCHEM_VEBER_RULE>
0

> <DRUGBANK_ID>
DB12239

> <DRUG_GROUPS>
investigational

> <GENERIC_NAME>
Balicatib

> <SYNONYMS>
Balicatib

$$$$
