
  Mrv1909 05201914472D          

 45 49  0  0  1  0            999 V2000
   -4.4673   -5.8923    0.0000 C   0  0  0  0  0  0  0  0  0  0  0  0
   -4.1870   -5.1163    0.0000 O   0  0  0  0  0  0  0  0  0  0  0  0
   -3.3749   -4.9711    0.0000 C   0  0  0  0  0  0  0  0  0  0  0  0
   -3.0946   -4.1952    0.0000 C   0  0  0  0  0  0  0  0  0  0  0  0
   -3.6264   -3.5645    0.0000 Cl  0  0  0  0  0  0  0  0  0  0  0  0
   -2.2825   -4.0500    0.0000 C   0  0  0  0  0  0  0  0  0  0  0  0
   -2.0022   -3.2741    0.0000 O   0  0  0  0  0  0  0  0  0  0  0  0
   -1.1901   -3.1289    0.0000 C   0  0  0  0  0  0  0  0  0  0  0  0
   -0.6582   -3.7596    0.0000 O   0  0  0  0  0  0  0  0  0  0  0  0
   -0.9098   -2.3529    0.0000 O   0  0  0  0  0  0  0  0  0  0  0  0
   -0.0976   -2.2077    0.0000 C   0  0  1  0  0  0  0  0  0  0  0  0
    0.1827   -1.4318    0.0000 C   0  0  0  0  0  0  0  0  0  0  0  0
    0.9948   -1.2866    0.0000 C   0  0  0  0  0  0  0  0  0  0  0  0
    1.5266   -1.9173    0.0000 C   0  0  2  0  0  0  0  0  0  0  0  0
    1.8069   -1.1414    0.0000 C   0  0  0  0  0  0  0  0  0  0  0  0
    2.3387   -1.7721    0.0000 C   0  0  1  0  0  0  0  0  0  0  0  0
    2.6190   -0.9961    0.0000 C   0  0  0  0  0  0  0  0  0  0  0  0
    3.4311   -0.8509    0.0000 C   0  0  0  0  0  0  0  0  0  0  0  0
    3.9629   -1.4816    0.0000 C   0  0  2  0  0  0  0  0  0  0  0  0
    4.3228   -0.7393    0.0000 C   0  0  0  0  0  0  0  0  0  0  0  0
    4.7875   -1.5084    0.0000 C   0  0  2  0  0  0  0  0  0  0  0  0
    5.0168   -2.3009    0.0000 C   0  0  0  0  0  0  0  0  0  0  0  0
    4.3340   -2.7639    0.0000 C   0  0  0  0  0  0  0  0  0  0  0  0
    3.6826   -2.2576    0.0000 C   0  0  1  0  0  0  0  0  0  0  0  0
    2.8705   -2.4028    0.0000 C   0  0  2  0  0  0  0  0  0  0  0  0
    2.5902   -3.1787    0.0000 C   0  0  0  0  0  0  0  0  0  0  0  0
    1.7781   -3.3239    0.0000 C   0  0  0  0  0  0  0  0  0  0  0  0
    1.2463   -2.6932    0.0000 C   0  0  0  0  0  0  0  0  0  0  0  0
    0.4342   -2.8384    0.0000 C   0  0  0  0  0  0  0  0  0  0  0  0
    5.2939   -0.8571    0.0000 C   0  0  2  0  0  0  0  0  0  0  0  0
    6.1111   -0.9700    0.0000 C   0  0  0  0  0  0  0  0  0  0  0  0
    4.9830   -0.0929    0.0000 C   0  0  0  0  0  0  0  0  0  0  0  0
    5.4893    0.5584    0.0000 C   0  0  0  0  0  0  0  0  0  0  0  0
    5.1784    1.3226    0.0000 C   0  0  0  0  0  0  0  0  0  0  0  0
    5.6848    1.9739    0.0000 C   0  0  0  0  0  0  0  0  0  0  0  0
    5.3739    2.7381    0.0000 C   0  0  0  0  0  0  0  0  0  0  0  0
    6.5020    1.8611    0.0000 C   0  0  0  0  0  0  0  0  0  0  0  0
   -1.7507   -4.6807    0.0000 C   0  0  0  0  0  0  0  0  0  0  0  0
   -0.9385   -4.5355    0.0000 Cl  0  0  0  0  0  0  0  0  0  0  0  0
   -2.0310   -5.4566    0.0000 C   0  0  0  0  0  0  0  0  0  0  0  0
   -2.8431   -5.6018    0.0000 N   0  0  0  0  0  0  0  0  0  0  0  0
   -1.4991   -6.0873    0.0000 C   0  0  0  0  0  0  0  0  0  0  0  0
   -0.9673   -6.7180    0.0000 Cl  0  0  0  0  0  0  0  0  0  0  0  0
   -2.1299   -6.6192    0.0000 Cl  0  0  0  0  0  0  0  0  0  0  0  0
   -0.8684   -5.5555    0.0000 Cl  0  0  0  0  0  0  0  0  0  0  0  0
  1  2  1  0  0  0  0
  2  3  1  0  0  0  0
  3  4  2  0  0  0  0
  4  5  1  0  0  0  0
  4  6  1  0  0  0  0
  6  7  1  0  0  0  0
  7  8  1  0  0  0  0
  8  9  2  0  0  0  0
  8 10  1  0  0  0  0
 11 10  1  1  0  0  0
 11 12  1  0  0  0  0
 12 13  1  0  0  0  0
 14 13  1  0  0  0  0
 14 15  1  1  0  0  0
 16 14  1  0  0  0  0
 16 17  1  1  0  0  0
 17 18  1  0  0  0  0
 19 18  1  0  0  0  0
 19 20  1  1  0  0  0
 19 21  1  0  0  0  0
 21 22  1  0  0  0  0
 22 23  1  0  0  0  0
 24 23  1  1  0  0  0
 24 19  1  0  0  0  0
 25 24  1  0  0  0  0
 16 25  1  0  0  0  0
 25 26  1  6  0  0  0
 26 27  1  0  0  0  0
 27 28  2  0  0  0  0
 14 28  1  0  0  0  0
 28 29  1  0  0  0  0
 11 29  1  0  0  0  0
 21 30  1  1  0  0  0
 30 31  1  1  0  0  0
 30 32  1  0  0  0  0
 32 33  1  0  0  0  0
 33 34  1  0  0  0  0
 34 35  1  0  0  0  0
 35 36  1  0  0  0  0
 35 37  1  0  0  0  0
  6 38  2  0  0  0  0
 38 39  1  0  0  0  0
 38 40  1  0  0  0  0
 40 41  2  0  0  0  0
  3 41  1  0  0  0  0
 40 42  1  0  0  0  0
 42 43  1  0  0  0  0
 42 44  1  0  0  0  0
 42 45  1  0  0  0  0
M  END
> <DATABASE_ID>
DB15075

> <DATABASE_NAME>
drugbank

> <SMILES>
COC1=C(Cl)C(OC(=O)O[C@H]2CC[C@]3(C)[C@H]4CC[C@]5(C)[C@H](CC[C@H]5[C@@H]4CC=C3C2)[C@H](C)CCCC(C)C)=C(Cl)C(=N1)C(Cl)(Cl)Cl

> <INCHI_IDENTIFIER>
InChI=1S/C35H48Cl5NO4/c1-19(2)8-7-9-20(3)24-12-13-25-23-11-10-21-18-22(14-16-33(21,4)26(23)15-17-34(24,25)5)44-32(42)45-29-27(36)30(35(38,39)40)41-31(43-6)28(29)37/h10,19-20,22-26H,7-9,11-18H2,1-6H3/t20-,22+,23+,24-,25+,26+,33+,34-/m1/s1

> <INCHI_KEY>
ZJUUIXYKTPSIOH-LEZJFEBPSA-N

> <FORMULA>
C35H48Cl5NO4

> <MOLECULAR_WEIGHT>
724.02

> <EXACT_MASS>
721.2025975

> <JCHEM_ACCEPTOR_COUNT>
4

> <JCHEM_ATOM_COUNT>
93

> <JCHEM_AVERAGE_POLARIZABILITY>
78.78841834118248

> <JCHEM_BIOAVAILABILITY>
0

> <JCHEM_DONOR_COUNT>
0

> <JCHEM_FORMAL_CHARGE>
0

> <JCHEM_GHOSE_FILTER>
0

> <JCHEM_IUPAC>
(1R,3aS,3bS,7S,9aR,9bS,11aR)-9a,11a-dimethyl-1-[(2R)-6-methylheptan-2-yl]-1H,2H,3H,3aH,3bH,4H,6H,7H,8H,9H,9aH,9bH,10H,11H,11aH-cyclopenta[a]phenanthren-7-yl 3,5-dichloro-2-methoxy-6-(trichloromethyl)pyridin-4-yl carbonate

> <ALOGPS_LOGP>
9.49

> <JCHEM_LOGP>
12.14222581

> <ALOGPS_LOGS>
-8.76

> <JCHEM_MDDR_LIKE_RULE>
1

> <JCHEM_NUMBER_OF_RINGS>
5

> <JCHEM_PHYSIOLOGICAL_CHARGE>
0

> <JCHEM_PKA_STRONGEST_BASIC>
-1.2421420763691693

> <JCHEM_POLAR_SURFACE_AREA>
57.650000000000006

> <JCHEM_REFRACTIVITY>
185.50469999999999

> <JCHEM_ROTATABLE_BOND_COUNT>
11

> <JCHEM_RULE_OF_FIVE>
0

> <ALOGPS_SOLUBILITY>
1.26e-06 g/l

> <JCHEM_TRADITIONAL_IUPAC>
(2R)-14-fluoro-2-methyl-6,9,10,19-tetraazapentacyclo[14.2.1.0^{2,6}.0^{8,18}.0^{12,17}]nonadeca-1(18),8,12(17),13,15-pentaen-11-one

> <JCHEM_VEBER_RULE>
0

> <DRUGBANK_ID>
DB15075

> <DRUG_GROUPS>
investigational

> <GENERIC_NAME>
4-demethyl-4-cholesteryloxycarbonylpenclomedine

> <SYNONYMS>
4-DEMETHYLCHOLESTERYLOXYCARBONYLPENCLOMEDINE; DM-CHOC-PEN

$$$$
