
  Mrv1652310211603172D          

 22 24  0  0  0  0            999 V2000
   -0.7145   -1.2375    0.0000 C   0  0  0  0  0  0  0  0  0  0  0  0
    0.0000   -1.6500    0.0000 C   0  0  0  0  0  0  0  0  0  0  0  0
    0.7145   -1.2375    0.0000 C   0  0  0  0  0  0  0  0  0  0  0  0
    0.7145   -0.4125    0.0000 C   0  0  0  0  0  0  0  0  0  0  0  0
    0.0000   -0.0000    0.0000 C   0  0  0  0  0  0  0  0  0  0  0  0
   -0.7145   -0.4125    0.0000 C   0  0  0  0  0  0  0  0  0  0  0  0
    0.0000    0.8250    0.0000 Cl  0  0  0  0  0  0  0  0  0  0  0  0
    1.4289   -0.0000    0.0000 N   0  0  0  0  0  0  0  0  0  0  0  0
    2.1434   -0.4125    0.0000 C   0  0  0  0  0  0  0  0  0  0  0  0
    2.1434   -1.2375    0.0000 C   0  0  0  0  0  0  0  0  0  0  0  0
    1.4289   -1.6500    0.0000 N   0  0  0  0  0  0  0  0  0  0  0  0
    2.8579   -1.6500    0.0000 N   0  0  0  0  0  0  0  0  0  0  0  0
    2.8579   -2.4750    0.0000 S   0  0  0  0  0  0  0  0  0  0  0  0
    2.0329   -2.4750    0.0000 O   0  0  0  0  0  0  0  0  0  0  0  0
    3.6829   -2.4750    0.0000 O   0  0  0  0  0  0  0  0  0  0  0  0
    2.8579   -3.3000    0.0000 C   0  0  0  0  0  0  0  0  0  0  0  0
    3.5724   -3.7125    0.0000 C   0  0  0  0  0  0  0  0  0  0  0  0
    3.5724   -4.5375    0.0000 C   0  0  0  0  0  0  0  0  0  0  0  0
    2.8579   -4.9500    0.0000 C   0  0  0  0  0  0  0  0  0  0  0  0
    2.1434   -4.5375    0.0000 C   0  0  0  0  0  0  0  0  0  0  0  0
    2.1434   -3.7125    0.0000 C   0  0  0  0  0  0  0  0  0  0  0  0
    2.8579   -5.7750    0.0000 N   0  0  0  0  0  0  0  0  0  0  0  0
  1  2  1  0  0  0  0
  2  3  2  0  0  0  0
  3  4  1  0  0  0  0
  4  5  2  0  0  0  0
  5  6  1  0  0  0  0
  1  6  2  0  0  0  0
  5  7  1  0  0  0  0
  4  8  1  0  0  0  0
  8  9  2  0  0  0  0
  9 10  1  0  0  0  0
 10 11  2  0  0  0  0
  3 11  1  0  0  0  0
 10 12  1  0  0  0  0
 12 13  1  0  0  0  0
 13 14  2  0  0  0  0
 13 15  2  0  0  0  0
 13 16  1  0  0  0  0
 16 17  2  0  0  0  0
 17 18  1  0  0  0  0
 18 19  2  0  0  0  0
 19 20  1  0  0  0  0
 20 21  2  0  0  0  0
 16 21  1  0  0  0  0
 19 22  1  0  0  0  0
M  END
> <DATABASE_ID>
DB12921

> <DATABASE_NAME>
drugbank

> <SMILES>
NC1=CC=C(C=C1)S(=O)(=O)NC1=NC2=CC=CC(Cl)=C2N=C1

> <INCHI_IDENTIFIER>
InChI=1S/C14H11ClN4O2S/c15-11-2-1-3-12-14(11)17-8-13(18-12)19-22(20,21)10-6-4-9(16)5-7-10/h1-8H,16H2,(H,18,19)

> <INCHI_KEY>
CTSNHMQGVWXIEG-UHFFFAOYSA-N

> <FORMULA>
C14H11ClN4O2S

> <MOLECULAR_WEIGHT>
334.78

> <EXACT_MASS>
334.0291245

> <JCHEM_ACCEPTOR_COUNT>
5

> <JCHEM_ATOM_COUNT>
33

> <JCHEM_AVERAGE_POLARIZABILITY>
31.753407468039743

> <JCHEM_BIOAVAILABILITY>
1

> <JCHEM_DONOR_COUNT>
2

> <JCHEM_FORMAL_CHARGE>
0

> <JCHEM_GHOSE_FILTER>
1

> <JCHEM_IUPAC>
4-amino-N-(5-chloroquinoxalin-2-yl)benzene-1-sulfonamide

> <ALOGPS_LOGP>
2.11

> <JCHEM_LOGP>
2.1563199063333336

> <ALOGPS_LOGS>
-4.31

> <JCHEM_MDDR_LIKE_RULE>
0

> <JCHEM_NUMBER_OF_RINGS>
3

> <JCHEM_PHYSIOLOGICAL_CHARGE>
-1

> <JCHEM_PKA_STRONGEST_ACIDIC>
6.638166209451431

> <JCHEM_PKA_STRONGEST_BASIC>
2.1245818763939117

> <JCHEM_POLAR_SURFACE_AREA>
97.97

> <JCHEM_REFRACTIVITY>
84.10130000000001

> <JCHEM_ROTATABLE_BOND_COUNT>
2

> <JCHEM_RULE_OF_FIVE>
1

> <ALOGPS_SOLUBILITY>
1.66e-02 g/l

> <JCHEM_TRADITIONAL_IUPAC>
4-amino-N-(5-chloroquinoxalin-2-yl)benzenesulfonamide

> <JCHEM_VEBER_RULE>
0

> <DRUGBANK_ID>
DB12921

> <DRUG_GROUPS>
investigational

> <GENERIC_NAME>
Chlorsulfaquinoxaline

> <SYNONYMS>
Chloroquinoxaline sulfonamide

$$$$
