
  Mrv1909 07102021182D          

  5  4  0  0  0  0            999 V2000
    0.0000    0.8250    0.0000 O   0  5  0  0  0  0  0  0  0  0  0  0
   -0.0000   -0.8250    0.0000 O   0  5  0  0  0  0  0  0  0  0  0  0
   -0.8250    0.0000    0.0000 O   0  5  0  0  0  0  0  0  0  0  0  0
    0.8250    0.0000    0.0000 O   0  0  0  0  0  0  0  0  0  0  0  0
    0.0000    0.0000    0.0000 P   0  0  0  0  0  0  0  0  0  0  0  0
  5  1  1  0  0  0  0
  5  2  1  0  0  0  0
  5  3  1  0  0  0  0
  5  4  2  0  0  0  0
M  CHG  3   1  -1   2  -1   3  -1
M  END
> <DATABASE_ID>
DB14523

> <DATABASE_NAME>
drugbank

> <SMILES>
[O-]P([O-])([O-])=O

> <INCHI_IDENTIFIER>
InChI=1S/H3O4P/c1-5(2,3)4/h(H3,1,2,3,4)/p-3

> <INCHI_KEY>
NBIIXXVUZAFLBC-UHFFFAOYSA-K

> <FORMULA>
O4P

> <MOLECULAR_WEIGHT>
94.9714

> <EXACT_MASS>
94.95342

> <JCHEM_ACCEPTOR_COUNT>
4

> <JCHEM_ATOM_COUNT>
5

> <JCHEM_AVERAGE_NEUTRAL_MICROSPECIES_CHARGE>
-1.6909402832708205

> <JCHEM_AVERAGE_POLARIZABILITY>
4.932137383430433

> <JCHEM_BIOAVAILABILITY>
1

> <JCHEM_DONOR_COUNT>
0

> <JCHEM_FORMAL_CHARGE>
-3

> <JCHEM_GHOSE_FILTER>
0

> <JCHEM_IUPAC>
phosphate

> <JCHEM_LOGP>
-1.0201038226666665

> <JCHEM_MDDR_LIKE_RULE>
0

> <JCHEM_NEUTRAL_CHARGE>
-2

> <JCHEM_NUMBER_OF_RINGS>
0

> <JCHEM_PHYSIOLOGICAL_CHARGE>
-2

> <JCHEM_PKA>
6.951626889535468

> <JCHEM_PKA_STRONGEST_ACIDIC>
1.7961261340181294

> <JCHEM_POLAR_SURFACE_AREA>
86.25

> <JCHEM_REFRACTIVITY>
11.2868

> <JCHEM_ROTATABLE_BOND_COUNT>
0

> <JCHEM_RULE_OF_FIVE>
1

> <JCHEM_TRADITIONAL_IUPAC>
ergosterol

> <JCHEM_VEBER_RULE>
0

> <DRUGBANK_ID>
DB14523

> <DRUG_GROUPS>
experimental

> <GENERIC_NAME>
Phosphate ion

> <SYNONYMS>
Orthophosphate; Phosphate

> <PRODUCTS>
Liquidguard

$$$$
