
  Mrv1533004251511082D          

 18 20  0  0  0  0            999 V2000
    0.1308   -2.6499    0.0000 C   0  0  0  0  0  0  0  0  0  0  0  0
    0.5433   -1.9354    0.0000 C   0  0  0  0  0  0  0  0  0  0  0  0
    0.1308   -1.2210    0.0000 O   0  0  0  0  0  0  0  0  0  0  0  0
    1.3683   -1.9354    0.0000 C   0  0  0  0  0  0  0  0  0  0  0  0
    1.8532   -1.2680    0.0000 O   0  0  0  0  0  0  0  0  0  0  0  0
    2.6378   -1.5229    0.0000 C   0  0  0  0  0  0  0  0  0  0  0  0
    3.3523   -1.1104    0.0000 C   0  0  0  0  0  0  0  0  0  0  0  0
    3.3523   -0.2854    0.0000 O   0  0  0  0  0  0  0  0  0  0  0  0
    4.0668   -1.5229    0.0000 C   0  0  0  0  0  0  0  0  0  0  0  0
    4.7812   -1.1104    0.0000 C   0  0  0  0  0  0  0  0  0  0  0  0
    5.4957   -1.5229    0.0000 C   0  0  0  0  0  0  0  0  0  0  0  0
    5.4957   -2.3479    0.0000 C   0  0  0  0  0  0  0  0  0  0  0  0
    4.7812   -2.7604    0.0000 C   0  0  0  0  0  0  0  0  0  0  0  0
    4.0668   -2.3479    0.0000 C   0  0  0  0  0  0  0  0  0  0  0  0
    3.3523   -2.7604    0.0000 C   0  0  0  0  0  0  0  0  0  0  0  0
    3.3523   -3.5854    0.0000 O   0  0  0  0  0  0  0  0  0  0  0  0
    2.6378   -2.3479    0.0000 C   0  0  0  0  0  0  0  0  0  0  0  0
    1.8532   -2.6029    0.0000 C   0  0  0  0  0  0  0  0  0  0  0  0
  1  2  1  0  0  0  0
  2  3  2  0  0  0  0
  2  4  1  0  0  0  0
  4  5  1  0  0  0  0
  5  6  1  0  0  0  0
  6  7  1  0  0  0  0
  7  8  2  0  0  0  0
  7  9  1  0  0  0  0
  9 10  2  0  0  0  0
 10 11  1  0  0  0  0
 11 12  2  0  0  0  0
 12 13  1  0  0  0  0
 13 14  2  0  0  0  0
  9 14  1  0  0  0  0
 14 15  1  0  0  0  0
 15 16  2  0  0  0  0
 15 17  1  0  0  0  0
  6 17  2  0  0  0  0
 17 18  1  0  0  0  0
  4 18  2  0  0  0  0
M  END
> <DATABASE_ID>
DB12155

> <DATABASE_NAME>
drugbank

> <SMILES>
CC(=O)C1=CC2=C(O1)C(=O)C1=CC=CC=C1C2=O

> <INCHI_IDENTIFIER>
InChI=1S/C14H8O4/c1-7(15)11-6-10-12(16)8-4-2-3-5-9(8)13(17)14(10)18-11/h2-6H,1H3

> <INCHI_KEY>
DPHUWDIXHNQOSY-UHFFFAOYSA-N

> <FORMULA>
C14H8O4

> <MOLECULAR_WEIGHT>
240.214

> <EXACT_MASS>
240.042258738

> <JCHEM_ACCEPTOR_COUNT>
3

> <JCHEM_ATOM_COUNT>
26

> <JCHEM_AVERAGE_POLARIZABILITY>
23.906587953675896

> <JCHEM_BIOAVAILABILITY>
1

> <JCHEM_DONOR_COUNT>
0

> <JCHEM_FORMAL_CHARGE>
0

> <JCHEM_GHOSE_FILTER>
1

> <JCHEM_IUPAC>
2-acetyl-4H,9H-naphtho[2,3-b]furan-4,9-dione

> <ALOGPS_LOGP>
2.68

> <JCHEM_LOGP>
1.456601361

> <ALOGPS_LOGS>
-3.32

> <JCHEM_MDDR_LIKE_RULE>
0

> <JCHEM_NUMBER_OF_RINGS>
3

> <JCHEM_PHYSIOLOGICAL_CHARGE>
0

> <JCHEM_PKA_STRONGEST_ACIDIC>
13.977147763545481

> <JCHEM_PKA_STRONGEST_BASIC>
-3.2977547137711567

> <JCHEM_POLAR_SURFACE_AREA>
64.35

> <JCHEM_REFRACTIVITY>
63.822200000000024

> <JCHEM_ROTATABLE_BOND_COUNT>
1

> <JCHEM_RULE_OF_FIVE>
1

> <ALOGPS_SOLUBILITY>
1.15e-01 g/l

> <JCHEM_TRADITIONAL_IUPAC>
2-acetylnaphtho[2,3-b]furan-4,9-dione

> <JCHEM_VEBER_RULE>
0

> <DRUGBANK_ID>
DB12155

> <DRUG_GROUPS>
investigational

> <GENERIC_NAME>
Napabucasin

> <SYNONYMS>
Napabucasin

$$$$
