
  Mrv1909 05201914572D          

 28 32  0  0  0  0            999 V2000
    4.1080   -0.8093    0.0000 C   0  0  0  0  0  0  0  0  0  0  0  0
    3.4084   -0.3721    0.0000 C   0  0  0  0  0  0  0  0  0  0  0  0
    3.0993   -1.1370    0.0000 C   0  0  0  0  0  0  0  0  0  0  0  0
    3.9604    0.2410    0.0000 O   0  0  0  0  0  0  0  0  0  0  0  0
    3.7054    1.0256    0.0000 C   0  0  0  0  0  0  0  0  0  0  0  0
    2.8985    1.1971    0.0000 C   0  0  0  0  0  0  0  0  0  0  0  0
    2.3464    0.5840    0.0000 N   0  0  0  0  0  0  0  0  0  0  0  0
    2.6014   -0.2006    0.0000 C   0  0  0  0  0  0  0  0  0  0  0  0
    1.9339   -0.6855    0.0000 N   0  0  0  0  0  0  0  0  0  0  0  0
    1.2665   -0.2006    0.0000 C   0  0  0  0  0  0  0  0  0  0  0  0
    0.4595   -0.3721    0.0000 C   0  0  0  0  0  0  0  0  0  0  0  0
   -0.0925    0.2410    0.0000 N   0  0  0  0  0  0  0  0  0  0  0  0
    0.1624    1.0256    0.0000 C   0  0  0  0  0  0  0  0  0  0  0  0
    0.9694    1.1971    0.0000 N   0  0  0  0  0  0  0  0  0  0  0  0
    1.5214    0.5840    0.0000 C   0  0  0  0  0  0  0  0  0  0  0  0
   -0.3896    1.6387    0.0000 C   0  0  0  0  0  0  0  0  0  0  0  0
   -1.1966    1.4672    0.0000 C   0  0  0  0  0  0  0  0  0  0  0  0
   -1.7486    2.0803    0.0000 N   0  0  0  0  0  0  0  0  0  0  0  0
   -1.4937    2.8649    0.0000 C   0  0  0  0  0  0  0  0  0  0  0  0
   -2.0457    3.4780    0.0000 N   0  0  0  0  0  0  0  0  0  0  0  0
   -0.6867    3.0364    0.0000 N   0  0  0  0  0  0  0  0  0  0  0  0
   -0.1347    2.4233    0.0000 C   0  0  0  0  0  0  0  0  0  0  0  0
    0.2046   -1.1567    0.0000 N   0  0  0  0  0  0  0  0  0  0  0  0
    0.7566   -1.7698    0.0000 C   0  0  0  0  0  0  0  0  0  0  0  0
    0.5017   -2.5545    0.0000 C   0  0  0  0  0  0  0  0  0  0  0  0
   -0.3053   -2.7260    0.0000 O   0  0  0  0  0  0  0  0  0  0  0  0
   -0.8573   -2.1129    0.0000 C   0  0  0  0  0  0  0  0  0  0  0  0
   -0.6024   -1.3283    0.0000 C   0  0  0  0  0  0  0  0  0  0  0  0
  1  2  1  0  0  0  0
  2  3  1  0  0  0  0
  2  4  1  0  0  0  0
  4  5  1  0  0  0  0
  5  6  1  0  0  0  0
  6  7  1  0  0  0  0
  7  8  1  0  0  0  0
  2  8  1  0  0  0  0
  8  9  2  0  0  0  0
  9 10  1  0  0  0  0
 10 11  2  0  0  0  0
 11 12  1  0  0  0  0
 12 13  2  0  0  0  0
 13 14  1  0  0  0  0
 14 15  2  0  0  0  0
  7 15  1  0  0  0  0
 10 15  1  0  0  0  0
 13 16  1  0  0  0  0
 16 17  2  0  0  0  0
 17 18  1  0  0  0  0
 18 19  2  0  0  0  0
 19 20  1  0  0  0  0
 19 21  1  0  0  0  0
 21 22  2  0  0  0  0
 16 22  1  0  0  0  0
 11 23  1  0  0  0  0
 23 24  1  0  0  0  0
 24 25  1  0  0  0  0
 25 26  1  0  0  0  0
 26 27  1  0  0  0  0
 27 28  1  0  0  0  0
 23 28  1  0  0  0  0
M  END
> <DATABASE_ID>
DB15186

> <DATABASE_NAME>
drugbank

> <SMILES>
CC1(C)OCCN2C1=NC1=C(N=C(N=C21)C1=CN=C(N)N=C1)N1CCOCC1

> <INCHI_IDENTIFIER>
InChI=1S/C18H22N8O2/c1-18(2)16-22-12-14(25-3-6-27-7-4-25)23-13(11-9-20-17(19)21-10-11)24-15(12)26(16)5-8-28-18/h9-10H,3-8H2,1-2H3,(H2,19,20,21)

> <INCHI_KEY>
LGWACEZVCMBSKW-UHFFFAOYSA-N

> <FORMULA>
C18H22N8O2

> <MOLECULAR_WEIGHT>
382.428

> <EXACT_MASS>
382.18657198

> <JCHEM_ACCEPTOR_COUNT>
9

> <JCHEM_ATOM_COUNT>
50

> <JCHEM_AVERAGE_POLARIZABILITY>
40.85843961913836

> <JCHEM_BIOAVAILABILITY>
1

> <JCHEM_DONOR_COUNT>
1

> <JCHEM_FORMAL_CHARGE>
0

> <JCHEM_GHOSE_FILTER>
1

> <JCHEM_IUPAC>
5-[6,6-dimethyl-4-(morpholin-4-yl)-6H,8H,9H-[1,4]oxazino[3,4-h]purin-2-yl]pyrimidin-2-amine

> <ALOGPS_LOGP>
1.62

> <JCHEM_LOGP>
1.321285376666665

> <ALOGPS_LOGS>
-2.59

> <JCHEM_MDDR_LIKE_RULE>
0

> <JCHEM_NUMBER_OF_RINGS>
5

> <JCHEM_PHYSIOLOGICAL_CHARGE>
0

> <JCHEM_PKA_STRONGEST_ACIDIC>
15.834804416912823

> <JCHEM_PKA_STRONGEST_BASIC>
3.979547506019327

> <JCHEM_POLAR_SURFACE_AREA>
117.1

> <JCHEM_REFRACTIVITY>
115.15279999999996

> <JCHEM_ROTATABLE_BOND_COUNT>
2

> <JCHEM_RULE_OF_FIVE>
1

> <ALOGPS_SOLUBILITY>
9.93e-01 g/l

> <JCHEM_TRADITIONAL_IUPAC>
(2R)-14-fluoro-2-methyl-6,9,10,19-tetraazapentacyclo[14.2.1.0^{2,6}.0^{8,18}.0^{12,17}]nonadeca-1(18),8,12(17),13,15-pentaen-11-one

> <JCHEM_VEBER_RULE>
0

> <DRUGBANK_ID>
DB15186

> <DRUG_GROUPS>
investigational

> <GENERIC_NAME>
Paxalisib

> <SYNONYMS>
5-(6,6-dimethyl-4-morpholino-8,9-dihydro-6H-[1,4]oxazino[3,4-e]purin-2-yl)pyrimidin-2-amine

$$$$
