
  Mrv1909 05102100442D          

121133  0  0  1  0            999 V2000
    8.7148   -0.8603    0.0000 C   0  0  2  0  0  0  0  0  0  0  0  0
    7.2802   -0.6553    0.0000 O   0  0  0  0  0  0  0  0  0  0  0  0
    6.9370    0.1834    0.0000 C   0  0  1  0  0  0  0  0  0  0  0  0
    6.1030    0.4408    0.0000 C   0  0  2  0  0  0  0  0  0  0  0  0
    5.9170    1.2033    0.0000 C   0  0  2  0  0  0  0  0  0  0  0  0
    4.9258    1.6706    0.0000 O   0  0  0  0  0  0  0  0  0  0  0  0
    4.0439    1.1463    0.0000 C   0  0  1  0  0  0  0  0  0  0  0  0
    4.0439    0.3408    0.0000 C   0  0  2  0  0  0  0  0  0  0  0  0
    3.3100   -0.0500    0.0000 C   0  0  1  0  0  0  0  0  0  0  0  0
    3.3100   -0.8603    0.0000 O   0  0  0  0  0  0  0  0  0  0  0  0
    2.6333    0.3645    0.0000 C   0  0  1  0  0  0  0  0  0  0  0  0
    2.6333    1.1463    0.0000 C   0  0  2  0  0  0  0  0  0  0  0  0
    3.3624    1.5942    0.0000 O   0  0  0  0  0  0  0  0  0  0  0  0
    1.9280    1.5942    0.0000 C   0  0  0  0  0  0  0  0  0  0  0  0
    1.9280    2.5045    0.0000 O   0  0  0  0  0  0  0  0  0  0  0  0
    2.7428    3.0526    0.0000 C   0  0  0  0  0  0  0  0  0  0  0  0
    1.9040   -0.0261    0.0000 O   0  0  0  0  0  0  0  0  0  0  0  0
    1.2272    0.3645    0.0000 C   0  0  1  0  0  0  0  0  0  0  0  0
    0.4933   -0.0261    0.0000 C   0  0  1  0  0  0  0  0  0  0  0  0
   -0.1834    0.3884    0.0000 C   0  0  1  0  0  0  0  0  0  0  0  0
   -0.9127   -0.0261    0.0000 O   0  0  0  0  0  0  0  0  0  0  0  0
   -1.5894    0.3884    0.0000 C   0  0  1  0  0  0  0  0  0  0  0  0
   -2.3187   -0.0261    0.0000 C   0  0  2  0  0  0  0  0  0  0  0  0
   -3.0002    0.3884    0.0000 C   0  0  1  0  0  0  0  0  0  0  0  0
   -3.8342    0.3884    0.0000 O   0  0  0  0  0  0  0  0  0  0  0  0
   -4.3585    0.7315    0.0000 C   0  0  1  0  0  0  0  0  0  0  0  0
   -4.3585    1.5370    0.0000 O   0  0  0  0  0  0  0  0  0  0  0  0
   -5.0592    1.9517    0.0000 C   0  0  2  0  0  0  0  0  0  0  0  0
   -5.0592    2.7904    0.0000 C   0  0  0  0  0  0  0  0  0  0  0  0
   -5.7692    1.5609    0.0000 C   0  0  2  0  0  0  0  0  0  0  0  0
   -5.7692    0.7315    0.0000 C   0  0  1  0  0  0  0  0  0  0  0  0
   -5.0592    0.3408    0.0000 C   0  0  0  0  0  0  0  0  0  0  0  0
   -6.4698    0.3408    0.0000 O   0  0  0  0  0  0  0  0  0  0  0  0
   -6.4698    1.9517    0.0000 O   0  0  0  0  0  0  0  0  0  0  0  0
   -7.1707    1.5609    0.0000 C   0  0  2  0  0  0  0  0  0  0  0  0
   -7.8759    1.9517    0.0000 O   0  0  0  0  0  0  0  0  0  0  0  0
   -8.5813    1.5609    0.0000 C   0  0  2  0  0  0  0  0  0  0  0  0
   -9.3868    2.1376    0.0000 C   0  0  0  0  0  0  0  0  0  0  0  0
   -8.5813    0.7315    0.0000 C   0  0  2  0  0  0  0  0  0  0  0  0
   -7.8759    0.3408    0.0000 C   0  0  1  0  0  0  0  0  0  0  0  0
   -7.1707    0.7315    0.0000 C   0  0  0  0  0  0  0  0  0  0  0  0
   -7.0943   -0.4170    0.0000 O   0  0  0  0  0  0  0  0  0  0  0  0
   -7.3564   -1.3321    0.0000 C   0  0  1  0  0  0  0  0  0  0  0  0
   -7.3564   -2.1662    0.0000 C   0  0  0  0  0  0  0  0  0  0  0  0
   -8.0570   -2.5570    0.0000 C   0  0  1  0  0  0  0  0  0  0  0  0
   -8.9196   -3.2861    0.0000 N   0  3  0  0  0  0  0  0  0  0  0  0
   -9.8347   -3.9392    0.0000 O   0  5  0  0  0  0  0  0  0  0  0  0
   -8.4288   -4.0964    0.0000 O   0  0  0  0  0  0  0  0  0  0  0  0
   -7.3326   -3.1813    0.0000 C   0  0  0  0  0  0  0  0  0  0  0  0
   -8.7671   -2.1137    0.0000 C   0  0  2  0  0  0  0  0  0  0  0  0
   -8.7671   -1.3083    0.0000 C   0  0  1  0  0  0  0  0  0  0  0  0
   -8.0332   -0.9173    0.0000 O   0  0  0  0  0  0  0  0  0  0  0  0
   -9.2056   -0.5742    0.0000 C   0  0  0  0  0  0  0  0  0  0  0  0
   -9.6251   -2.7142    0.0000 O   0  0  0  0  0  0  0  0  0  0  0  0
  -10.8545   -2.7142    0.0000 C   0  0  0  0  0  0  0  0  0  0  0  0
   -6.5844   -1.3321    0.0000 H   0  0  0  0  0  0  0  0  0  0  0  0
   -9.2865    0.3121    0.0000 O   0  0  0  0  0  0  0  0  0  0  0  0
  -10.0159    0.7315    0.0000 C   0  0  0  0  0  0  0  0  0  0  0  0
  -10.7450    0.3121    0.0000 C   0  0  0  0  0  0  0  0  0  0  0  0
  -10.7450   -0.4932    0.0000 C   0  0  0  0  0  0  0  0  0  0  0  0
  -11.4218   -0.9173    0.0000 C   0  0  0  0  0  0  0  0  0  0  0  0
  -11.4218   -1.7229    0.0000 Cl  0  0  0  0  0  0  0  0  0  0  0  0
  -12.1559   -0.4932    0.0000 C   0  0  0  0  0  0  0  0  0  0  0  0
  -12.1559    0.3121    0.0000 C   0  0  0  0  0  0  0  0  0  0  0  0
  -11.4218    0.7315    0.0000 C   0  0  0  0  0  0  0  0  0  0  0  0
  -11.4218    1.5370    0.0000 C   0  0  0  0  0  0  0  0  0  0  0  0
  -13.0423    0.8840    0.0000 Cl  0  0  0  0  0  0  0  0  0  0  0  0
  -12.8564   -0.9412    0.0000 O   0  0  0  0  0  0  0  0  0  0  0  0
  -10.1493   -0.9651    0.0000 O   0  0  0  0  0  0  0  0  0  0  0  0
  -10.1493   -1.7229    0.0000 C   0  0  0  0  0  0  0  0  0  0  0  0
  -10.0159    1.4083    0.0000 O   0  0  0  0  0  0  0  0  0  0  0  0
   -6.4747    1.1604    0.0000 H   0  0  0  0  0  0  0  0  0  0  0  0
   -3.7819    1.2272    0.0000 O   0  0  0  0  0  0  0  0  0  0  0  0
   -3.0002    1.2272    0.0000 C   0  0  2  0  0  0  0  0  0  0  0  0
   -2.3187    1.6706    0.0000 C   0  0  2  0  0  0  0  0  0  0  0  0
   -1.5894    1.2033    0.0000 O   0  0  0  0  0  0  0  0  0  0  0  0
   -2.3187    2.4760    0.0000 C   0  0  0  0  0  0  0  0  0  0  0  0
   -3.3862    1.8944    0.0000 H   0  0  0  0  0  0  0  0  0  0  0  0
   -3.4673   -0.6553    0.0000 C   0  0  0  0  0  0  0  0  0  0  0  0
   -2.3187   -0.8316    0.0000 O   0  0  0  0  0  0  0  0  0  0  0  0
   -0.9174    0.7792    0.0000 H   0  0  0  0  0  0  0  0  0  0  0  0
   -0.1834    1.2272    0.0000 C   0  0  2  0  0  0  0  0  0  0  0  0
    0.5220    1.6181    0.0000 C   0  0  2  0  0  0  0  0  0  0  0  0
    1.2272    1.2510    0.0000 O   0  0  0  0  0  0  0  0  0  0  0  0
    0.5220    2.4283    0.0000 C   0  0  0  0  0  0  0  0  0  0  0  0
   -0.8840    1.6419    0.0000 O   0  0  0  0  0  0  0  0  0  0  0  0
   -0.8840    2.5808    0.0000 C   0  0  0  0  0  0  0  0  0  0  0  0
    0.4408   -0.8316    0.0000 O   0  0  0  0  0  0  0  0  0  0  0  0
    1.8897    0.7506    0.0000 H   0  0  0  0  0  0  0  0  0  0  0  0
    4.7732   -0.0786    0.0000 O   0  0  0  0  0  0  0  0  0  0  0  0
    4.7732   -1.0699    0.0000 C   0  0  0  0  0  0  0  0  0  0  0  0
    4.7114    0.7601    0.0000 H   0  0  0  0  0  0  0  0  0  0  0  0
    6.4938    1.7991    0.0000 O   0  0  0  0  0  0  0  0  0  0  0  0
    7.3278    1.6419    0.0000 C   0  0  0  0  0  0  0  0  0  0  0  0
    7.5661    0.8077    0.0000 C   0  0  2  0  0  0  0  0  0  0  0  0
    8.0046   -0.0261    0.0000 O   0  0  0  0  0  0  0  0  0  0  0  0
    8.2287    1.1938    0.0000 H   0  0  0  0  0  0  0  0  0  0  0  0
    5.4786   -0.0786    0.0000 O   0  0  0  0  0  0  0  0  0  0  0  0
    6.4843   -0.5982    0.0000 H   0  0  0  0  0  0  0  0  0  0  0  0
    9.3390   -1.2797    0.0000 C   0  0  1  0  0  0  0  0  0  0  0  0
   10.0969   -1.0699    0.0000 C   0  0  2  0  0  0  0  0  0  0  0  0
   10.2495   -0.2883    0.0000 C   0  0  2  0  0  0  0  0  0  0  0  0
   11.0073    0.0262    0.0000 O   0  0  0  0  0  0  0  0  0  0  0  0
   11.6602    0.7315    0.0000 C   0  0  0  0  0  0  0  0  0  0  0  0
   11.6602    1.5942    0.0000 C   0  0  0  0  0  0  0  0  0  0  0  0
   10.9786    2.0614    0.0000 C   0  0  0  0  0  0  0  0  0  0  0  0
   10.9786    2.9191    0.0000 C   0  0  0  0  0  0  0  0  0  0  0  0
   11.7365    3.3099    0.0000 C   0  0  0  0  0  0  0  0  0  0  0  0
   12.3656    2.8954    0.0000 C   0  0  0  0  0  0  0  0  0  0  0  0
   12.3656    1.9851    0.0000 C   0  0  0  0  0  0  0  0  0  0  0  0
   13.0423    1.5132    0.0000 C   0  0  0  0  0  0  0  0  0  0  0  0
   11.7365    4.0964    0.0000 O   0  0  0  0  0  0  0  0  0  0  0  0
   10.1732    1.6943    0.0000 O   0  0  0  0  0  0  0  0  0  0  0  0
   12.5991    0.0500    0.0000 O   0  0  0  0  0  0  0  0  0  0  0  0
    9.6298    0.1834    0.0000 C   0  0  0  0  0  0  0  0  0  0  0  0
    8.8434   -0.0786    0.0000 O   0  0  0  0  0  0  0  0  0  0  0  0
   10.8262   -1.6752    0.0000 O   0  0  0  0  0  0  0  0  0  0  0  0
   10.3019   -2.4568    0.0000 C   0  0  0  0  0  0  0  0  0  0  0  0
    9.2628   -2.1947    0.0000 O   0  0  0  0  0  0  0  0  0  0  0  0
   10.8405   -0.8651    0.0000 H   0  0  0  0  0  0  0  0  0  0  0  0
    8.5956   -1.4798    0.0000 H   0  0  0  0  0  0  0  0  0  0  0  0
  1  2  1  1  0  0  0
  3  2  1  0  0  0  0
  4  3  1  0  0  0  0
  5  4  1  0  0  0  0
  5  6  1  6  0  0  0
  7  6  1  0  0  0  0
  8  7  1  0  0  0  0
  9  8  1  0  0  0  0
  9 10  1  1  0  0  0
 11  9  1  0  0  0  0
 11 12  1  0  0  0  0
 12 13  1  0  0  0  0
 13  7  1  0  0  0  0
 12 14  1  1  0  0  0
 15 14  1  0  0  0  0
 16 15  1  0  0  0  0
 11 17  1  6  0  0  0
 18 17  1  0  0  0  0
 19 18  1  0  0  0  0
 20 19  1  0  0  0  0
 20 21  1  1  0  0  0
 22 21  1  0  0  0  0
 23 22  1  0  0  0  0
 24 23  1  0  0  0  0
 25 24  1  0  0  0  0
 26 25  1  6  0  0  0
 27 26  1  0  0  0  0
 28 27  1  0  0  0  0
 28 29  1  1  0  0  0
 28 30  1  0  0  0  0
 30 31  1  0  0  0  0
 31 32  1  0  0  0  0
 32 26  1  0  0  0  0
 31 33  1  1  0  0  0
 30 34  1  6  0  0  0
 35 34  1  0  0  0  0
 36 35  1  0  0  0  0
 37 36  1  0  0  0  0
 37 38  1  1  0  0  0
 37 39  1  0  0  0  0
 39 40  1  0  0  0  0
 40 41  1  0  0  0  0
 41 35  1  0  0  0  0
 40 42  1  1  0  0  0
 43 42  1  0  0  0  0
 44 43  1  0  0  0  0
 45 44  1  0  0  0  0
 45 46  1  6  0  0  0
 47 46  1  0  0  0  0
 48 46  2  0  0  0  0
 45 49  1  1  0  0  0
 50 45  1  0  0  0  0
 50 51  1  0  0  0  0
 51 52  1  0  0  0  0
 52 43  1  0  0  0  0
 51 53  1  6  0  0  0
 50 54  1  1  0  0  0
 55 54  1  0  0  0  0
 43 56  1  6  0  0  0
 39 57  1  6  0  0  0
 58 57  1  0  0  0  0
 59 58  1  0  0  0  0
 60 59  2  0  0  0  0
 61 60  1  0  0  0  0
 62 61  1  0  0  0  0
 63 61  2  0  0  0  0
 63 64  1  0  0  0  0
 64 65  2  0  0  0  0
 65 59  1  0  0  0  0
 66 65  1  0  0  0  0
 67 64  1  0  0  0  0
 68 63  1  0  0  0  0
 69 60  1  0  0  0  0
 70 69  1  0  0  0  0
 71 58  2  0  0  0  0
 35 72  1  6  0  0  0
 73 26  1  0  0  0  0
 73 74  1  0  0  0  0
 74 75  1  0  0  0  0
 75 76  1  0  0  0  0
 76 22  1  0  0  0  0
 75 77  1  1  0  0  0
 74 78  1  1  0  0  0
 74 24  1  0  0  0  0
 24 79  1  6  0  0  0
 23 80  1  1  0  0  0
 22 81  1  6  0  0  0
 82 20  1  0  0  0  0
 82 83  1  0  0  0  0
 83 84  1  0  0  0  0
 84 18  1  0  0  0  0
 83 85  1  1  0  0  0
 82 86  1  1  0  0  0
 87 86  1  0  0  0  0
 19 88  1  6  0  0  0
 18 89  1  6  0  0  0
  8 90  1  1  0  0  0
 91 90  1  0  0  0  0
  7 92  1  6  0  0  0
 93  5  1  0  0  0  0
 93 94  1  0  0  0  0
 94 95  1  0  0  0  0
 95 96  1  0  0  0  0
  1 96  1  6  0  0  0
 95 97  1  1  0  0  0
 95  3  1  0  0  0  0
  4 98  1  1  0  0  0
  3 99  1  6  0  0  0
100  1  1  0  0  0  0
101100  1  0  0  0  0
102101  1  0  0  0  0
102103  1  1  0  0  0
104103  1  0  0  0  0
105104  1  0  0  0  0
106105  2  0  0  0  0
107106  1  0  0  0  0
108107  2  0  0  0  0
108109  1  0  0  0  0
109110  2  0  0  0  0
110105  1  0  0  0  0
111110  1  0  0  0  0
112108  1  0  0  0  0
113106  1  0  0  0  0
114104  2  0  0  0  0
115102  1  0  0  0  0
115116  1  0  0  0  0
116  1  1  0  0  0  0
117101  1  0  0  0  0
118117  1  0  0  0  0
118119  1  0  0  0  0
119100  1  0  0  0  0
101120  1  1  0  0  0
100121  1  6  0  0  0
M  CHG  2  46   1  47  -1
M  END
> <DATABASE_ID>
DB06431

> <DATABASE_NAME>
drugbank

> <SMILES>
[H][C@]12CO[C@@H](O[C@]3([H])O[C@H](COC)[C@@H](O[C@]4([H])O[C@H](C)[C@H](OC)[C@H](O[C@]5([H])O[C@H](C)[C@@]6([H])O[C@]7(C[C@@H](O)[C@H](O[C@@]8([H])C[C@@H](O[C@@]9([H])C[C@@](C)([C@@H](OC)[C@H](C)O9)[N+]([O-])=O)[C@H](OC(=O)C9=C(OC)C(Cl)=C(O)C(Cl)=C9C)[C@@H](C)O8)[C@@H](C)O7)O[C@]6(C)[C@@H]5O)[C@H]4O)[C@H](O)[C@@H]3OC)[C@H](O)[C@]1([H])O[C@@]1(O2)OC[C@@H](OC(=O)C2=C(O)C=C(O)C=C2C)[C@]2([H])OCO[C@@]12[H]

> <INCHI_IDENTIFIER>
InChI=1S/C70H97Cl2NO38/c1-24-15-31(74)16-32(75)40(24)61(82)100-36-22-94-70(60-53(36)92-23-93-60)108-37-21-91-63(46(79)52(37)109-70)106-65-56(89-13)45(78)51(35(101-65)20-86-10)104-64-47(80)55(50(87-11)27(4)97-64)105-66-57(81)68(9)59(30(7)98-66)110-69(111-68)18-33(76)48(28(5)107-69)102-38-17-34(99-39-19-67(8,73(84)85)58(90-14)29(6)96-39)49(26(3)95-38)103-62(83)41-25(2)42(71)44(77)43(72)54(41)88-12/h15-16,26-30,33-39,45-53,55-60,63-66,74-81H,17-23H2,1-14H3/t26-,27-,28-,29+,30-,33-,34-,35-,36-,37+,38+,39+,45+,46-,47-,48-,49-,50+,51-,52-,53+,55-,56+,57-,58+,59-,60-,63+,64+,65+,66+,67+,68-,69-,70-/m1/s1

> <INCHI_KEY>
UPADRKHAIMTUCC-OWALTSPQSA-N

> <FORMULA>
C70H97Cl2NO38

> <MOLECULAR_WEIGHT>
1631.42

> <EXACT_MASS>
1629.5065631

> <JCHEM_ACCEPTOR_COUNT>
36

> <JCHEM_ATOM_COUNT>
208

> <JCHEM_AVERAGE_NEUTRAL_MICROSPECIES_CHARGE>
-0.9579960065476576

> <JCHEM_AVERAGE_POLARIZABILITY>
160.30323738138057

> <JCHEM_BIOAVAILABILITY>
0

> <JCHEM_DONOR_COUNT>
8

> <JCHEM_FORMAL_CHARGE>
0

> <JCHEM_GHOSE_FILTER>
0

> <JCHEM_IUPAC>
(2R,3R,4R,6S)-6-[(2R,3aR,4R,4'R,5'S,6S,6'R,7S,7aR)-6-{[(2S,3R,4R,5S,6R)-2-{[(2R,3S,4S,5S,6S)-6-[(2R,3aS,3'aR,6S,7R,7'R,7aS,7'aS)-7'-(2,4-dihydroxy-6-methylbenzoyloxy)-octahydro-2'H,3aH-2,4'-spirobi[[1,3]dioxolo[4,5-c]pyran]-7-oloxy]-4-hydroxy-5-methoxy-2-(methoxymethyl)oxan-3-yl]oxy}-3-hydroxy-5-methoxy-6-methyloxan-4-yl]oxy}-4,6',7a-trimethyl-tetrahydro-3aH-spiro[[1,3]dioxolo[4,5-c]pyran-2,2'-oxane]-4',7-dioloxy]-4-{[(2S,4S,5R,6S)-5-methoxy-4,6-dimethyl-4-nitrooxan-2-yl]oxy}-2-methyloxan-3-yl 3,5-dichloro-4-hydroxy-2-methoxy-6-methylbenzoate

> <ALOGPS_LOGP>
3.03

> <JCHEM_LOGP>
4.949123650333329

> <ALOGPS_LOGS>
-3.58

> <JCHEM_MDDR_LIKE_RULE>
1

> <JCHEM_NEUTRAL_CHARGE>
-1

> <JCHEM_NUMBER_OF_RINGS>
13

> <JCHEM_PHYSIOLOGICAL_CHARGE>
-1

> <JCHEM_PKA>
8.696244384949418

> <JCHEM_PKA_STRONGEST_ACIDIC>
5.820489448799047

> <JCHEM_PKA_STRONGEST_BASIC>
-3.302771193539424

> <JCHEM_POLAR_SURFACE_AREA>
479.10000000000025

> <JCHEM_REFRACTIVITY>
362.00839999999994

> <JCHEM_ROTATABLE_BOND_COUNT>
23

> <JCHEM_RULE_OF_FIVE>
0

> <ALOGPS_SOLUBILITY>
4.32e-01 g/l

> <JCHEM_TRADITIONAL_IUPAC>
N-[(1R,3S,5S)-8-[2-(4-acetylpiperazin-1-yl)ethyl]-8-azabicyclo[3.2.1]octan-3-yl]-1-isopropylindazole-3-carboxamide

> <JCHEM_VEBER_RULE>
0

> <DRUGBANK_ID>
DB06431

> <DRUG_GROUPS>
investigational

> <GENERIC_NAME>
Evernimicin

> <SYNONYMS>
Evernimicin

> <INTERNATIONAL_BRANDS>
Ziracin

$$$$
