
  Mrv1909 10141921352D          

 25 26  0  0  0  0            999 V2000
   -4.3842   -0.2737    0.0000 O   0  0  0  0  0  0  0  0  0  0  0  0
   -3.6697    0.1387    0.0000 C   0  0  0  0  0  0  0  0  0  0  0  0
   -2.9552   -0.2737    0.0000 C   0  0  0  0  0  0  0  0  0  0  0  0
   -2.9552   -1.0987    0.0000 C   0  0  0  0  0  0  0  0  0  0  0  0
   -3.6697   -1.5112    0.0000 O   0  0  0  0  0  0  0  0  0  0  0  0
   -2.2408    0.1387    0.0000 N   0  0  0  0  0  0  0  0  0  0  0  0
   -1.5263   -0.2737    0.0000 C   0  0  0  0  0  0  0  0  0  0  0  0
   -1.5263   -1.0987    0.0000 O   0  0  0  0  0  0  0  0  0  0  0  0
   -0.8118    0.1387    0.0000 C   0  0  1  0  0  0  0  0  0  0  0  0
   -0.8118    0.9637    0.0000 O   0  0  0  0  0  0  0  0  0  0  0  0
   -0.0973   -0.2737    0.0000 C   0  0  1  0  0  0  0  0  0  0  0  0
   -0.0973   -1.0987    0.0000 O   0  0  0  0  0  0  0  0  0  0  0  0
    0.6170    0.1387    0.0000 C   0  0  1  0  0  0  0  0  0  0  0  0
    0.7033    0.9592    0.0000 C   0  0  2  0  0  0  0  0  0  0  0  0
    0.0902    1.5112    0.0000 C   0  0  0  0  0  0  0  0  0  0  0  0
    1.5102    1.1307    0.0000 O   0  0  0  0  0  0  0  0  0  0  0  0
    1.9227    0.4162    0.0000 C   0  0  0  0  0  0  0  0  0  0  0  0
    1.3707   -0.1968    0.0000 N   0  0  0  0  0  0  0  0  0  0  0  0
    2.7432    0.3300    0.0000 C   0  0  0  0  0  0  0  0  0  0  0  0
    3.2281    0.9974    0.0000 C   0  0  0  0  0  0  0  0  0  0  0  0
    4.0486    0.9112    0.0000 C   0  0  0  0  0  0  0  0  0  0  0  0
    4.3842    0.1575    0.0000 C   0  0  0  0  0  0  0  0  0  0  0  0
    3.8993   -0.5098    0.0000 C   0  0  0  0  0  0  0  0  0  0  0  0
    3.0788   -0.4236    0.0000 C   0  0  0  0  0  0  0  0  0  0  0  0
    2.5938   -1.0910    0.0000 O   0  0  0  0  0  0  0  0  0  0  0  0
  1  2  1  0  0  0  0
  2  3  1  0  0  0  0
  3  4  1  0  0  0  0
  4  5  1  0  0  0  0
  3  6  1  0  0  0  0
  6  7  1  0  0  0  0
  7  8  2  0  0  0  0
  9  7  1  0  0  0  0
  9 10  1  1  0  0  0
 11  9  1  0  0  0  0
 11 12  1  6  0  0  0
 11 13  1  0  0  0  0
 13 14  1  0  0  0  0
 14 15  1  6  0  0  0
 14 16  1  0  0  0  0
 16 17  1  0  0  0  0
 17 18  2  0  0  0  0
 13 18  1  1  0  0  0
 17 19  1  0  0  0  0
 19 20  2  0  0  0  0
 20 21  1  0  0  0  0
 21 22  2  0  0  0  0
 22 23  1  0  0  0  0
 23 24  2  0  0  0  0
 19 24  1  0  0  0  0
 24 25  1  0  0  0  0
M  END
> <DATABASE_ID>
DB15554

> <DATABASE_NAME>
drugbank

> <SMILES>
C[C@@H]1OC(=N[C@H]1[C@H](O)[C@H](O)C(=O)NC(CO)CO)C1=CC=CC=C1O

> <INCHI_IDENTIFIER>
InChI=1S/C16H22N2O7/c1-8-12(13(22)14(23)15(24)17-9(6-19)7-20)18-16(25-8)10-4-2-3-5-11(10)21/h2-5,8-9,12-14,19-23H,6-7H2,1H3,(H,17,24)/t8-,12+,13-,14-/m0/s1

> <INCHI_KEY>
XXWREFOKTUTPHF-ISTUKMMPSA-N

> <FORMULA>
C16H22N2O7

> <MOLECULAR_WEIGHT>
354.359

> <EXACT_MASS>
354.142701056

> <JCHEM_ACCEPTOR_COUNT>
7

> <JCHEM_ATOM_COUNT>
47

> <JCHEM_AVERAGE_POLARIZABILITY>
35.60430003025009

> <JCHEM_BIOAVAILABILITY>
1

> <JCHEM_DONOR_COUNT>
6

> <JCHEM_FORMAL_CHARGE>
0

> <JCHEM_GHOSE_FILTER>
0

> <JCHEM_IUPAC>
(2S,3S)-N-(1,3-dihydroxypropan-2-yl)-2,3-dihydroxy-3-[(4S,5S)-2-(2-hydroxyphenyl)-5-methyl-4,5-dihydro-1,3-oxazol-4-yl]propanamide

> <ALOGPS_LOGP>
-0.65

> <JCHEM_LOGP>
-0.9029553379999997

> <ALOGPS_LOGS>
-2.21

> <JCHEM_MDDR_LIKE_RULE>
0

> <JCHEM_NUMBER_OF_RINGS>
2

> <JCHEM_PHYSIOLOGICAL_CHARGE>
0

> <JCHEM_PKA>
11.969943067179498

> <JCHEM_PKA_STRONGEST_ACIDIC>
10.357890002427668

> <JCHEM_PKA_STRONGEST_BASIC>
1.8344966685692579

> <JCHEM_POLAR_SURFACE_AREA>
151.84

> <JCHEM_REFRACTIVITY>
86.46530000000001

> <JCHEM_ROTATABLE_BOND_COUNT>
7

> <JCHEM_RULE_OF_FIVE>
0

> <ALOGPS_SOLUBILITY>
2.20e+00 g/l

> <JCHEM_TRADITIONAL_IUPAC>
(3R)-3-[(4S,5S)-2-(5-chloro-2-hydroxyphenyl)-5-methyl-4,5-dihydro-1,3-oxazol-4-yl]-3-hydroxypropanoic acid

> <JCHEM_VEBER_RULE>
0

> <DRUGBANK_ID>
DB15554

> <DRUG_GROUPS>
experimental

> <GENERIC_NAME>
Leptazoline D

$$$$
