
  Mrv1909 05201914332D          

 35 38  0  0  1  0            999 V2000
   -1.3319    8.4645    0.0000 C   0  0  0  0  0  0  0  0  0  0  0  0
   -0.7798    7.8514    0.0000 C   0  0  0  0  0  0  0  0  0  0  0  0
   -1.0348    7.0668    0.0000 O   0  0  0  0  0  0  0  0  0  0  0  0
   -0.4828    6.4537    0.0000 C   0  0  0  0  0  0  0  0  0  0  0  0
    0.3242    6.6252    0.0000 O   0  0  0  0  0  0  0  0  0  0  0  0
   -0.7377    5.6691    0.0000 C   0  0  2  0  0  0  0  0  0  0  0  0
   -1.5447    5.4975    0.0000 C   0  0  0  0  0  0  0  0  0  0  0  0
   -0.1857    5.0560    0.0000 N   0  0  0  0  0  0  0  0  0  0  0  0
   -0.4406    4.2713    0.0000 P   0  0  1  0  0  0  0  0  0  0  0  0
   -1.2252    4.5263    0.0000 O   0  0  0  0  0  0  0  0  0  0  0  0
   -0.6955    3.4867    0.0000 C   0  0  0  0  0  0  0  0  0  0  0  0
   -0.1435    2.8736    0.0000 O   0  0  0  0  0  0  0  0  0  0  0  0
   -0.3984    2.0890    0.0000 C   0  0  1  0  0  0  0  0  0  0  0  0
    0.0865    1.4216    0.0000 O   0  0  0  0  0  0  0  0  0  0  0  0
   -0.3984    0.7541    0.0000 C   0  0  1  0  0  0  0  0  0  0  0  0
   -0.1435   -0.0305    0.0000 N   0  0  0  0  0  0  0  0  0  0  0  0
   -0.6284   -0.6979    0.0000 C   0  0  0  0  0  0  0  0  0  0  0  0
   -0.1435   -1.3654    0.0000 N   0  0  0  0  0  0  0  0  0  0  0  0
    0.6411   -1.1104    0.0000 C   0  0  0  0  0  0  0  0  0  0  0  0
    0.6411   -0.2854    0.0000 C   0  0  0  0  0  0  0  0  0  0  0  0
    1.3556    0.1271    0.0000 N   0  0  0  0  0  0  0  0  0  0  0  0
    2.0701   -0.2854    0.0000 C   0  0  0  0  0  0  0  0  0  0  0  0
    2.0701   -1.1104    0.0000 N   0  0  0  0  0  0  0  0  0  0  0  0
    1.3556   -1.5229    0.0000 C   0  0  0  0  0  0  0  0  0  0  0  0
    1.3556   -2.3479    0.0000 N   0  0  0  0  0  0  0  0  0  0  0  0
   -1.1831    1.0091    0.0000 C   0  0  0  0  0  0  0  0  0  0  0  0
   -1.8505    0.5241    0.0000 F   0  0  0  0  0  0  0  0  0  0  0  0
   -1.1831    1.8341    0.0000 C   0  0  0  0  0  0  0  0  0  0  0  0
    0.3440    4.0164    0.0000 O   0  0  0  0  0  0  0  0  0  0  0  0
    0.9571    4.5684    0.0000 C   0  0  0  0  0  0  0  0  0  0  0  0
    0.7856    5.3754    0.0000 C   0  0  0  0  0  0  0  0  0  0  0  0
    1.3987    5.9274    0.0000 C   0  0  0  0  0  0  0  0  0  0  0  0
    2.1833    5.6725    0.0000 C   0  0  0  0  0  0  0  0  0  0  0  0
    2.3548    4.8655    0.0000 C   0  0  0  0  0  0  0  0  0  0  0  0
    1.7417    4.3135    0.0000 C   0  0  0  0  0  0  0  0  0  0  0  0
  1  2  1  0  0  0  0
  2  3  1  0  0  0  0
  3  4  1  0  0  0  0
  4  5  2  0  0  0  0
  6  4  1  0  0  0  0
  6  7  1  1  0  0  0
  6  8  1  0  0  0  0
  9  8  1  6  0  0  0
  9 10  2  0  0  0  0
  9 11  1  0  0  0  0
 11 12  1  0  0  0  0
 13 12  1  1  0  0  0
 13 14  1  0  0  0  0
 15 14  1  0  0  0  0
 15 16  1  1  0  0  0
 16 17  1  0  0  0  0
 17 18  2  0  0  0  0
 18 19  1  0  0  0  0
 19 20  2  0  0  0  0
 16 20  1  0  0  0  0
 20 21  1  0  0  0  0
 21 22  2  0  0  0  0
 22 23  1  0  0  0  0
 23 24  2  0  0  0  0
 19 24  1  0  0  0  0
 24 25  1  0  0  0  0
 15 26  1  0  0  0  0
 26 27  1  0  0  0  0
 26 28  2  0  0  0  0
 13 28  1  0  0  0  0
  9 29  1  1  0  0  0
 29 30  1  0  0  0  0
 30 31  2  0  0  0  0
 31 32  1  0  0  0  0
 32 33  2  0  0  0  0
 33 34  1  0  0  0  0
 34 35  2  0  0  0  0
 30 35  1  0  0  0  0
M  END
> <DATABASE_ID>
DB14903

> <DATABASE_NAME>
drugbank

> <SMILES>
CCOC(=O)[C@H](C)N[P@@](=O)(CO[C@H]1O[C@@H](N2C=NC3=C2N=CN=C3N)C(F)=C1)OC1=CC=CC=C1

> <INCHI_IDENTIFIER>
InChI=1S/C21H24FN6O6P/c1-3-31-21(29)13(2)27-35(30,34-14-7-5-4-6-8-14)12-32-16-9-15(22)20(33-16)28-11-26-17-18(23)24-10-25-19(17)28/h4-11,13,16,20H,3,12H2,1-2H3,(H,27,30)(H2,23,24,25)/t13-,16-,20+,35+/m0/s1

> <INCHI_KEY>
OCJRRXHWPBXZSU-BJBBEUPESA-N

> <FORMULA>
C21H24FN6O6P

> <MOLECULAR_WEIGHT>
506.431

> <EXACT_MASS>
506.147897678

> <JCHEM_ACCEPTOR_COUNT>
8

> <JCHEM_ATOM_COUNT>
59

> <JCHEM_AVERAGE_POLARIZABILITY>
47.877840581485586

> <JCHEM_BIOAVAILABILITY>
0

> <JCHEM_DONOR_COUNT>
2

> <JCHEM_FORMAL_CHARGE>
0

> <JCHEM_GHOSE_FILTER>
0

> <JCHEM_IUPAC>
ethyl (2S)-2-{[(R)-({[(2R,5R)-5-(6-amino-9H-purin-9-yl)-4-fluoro-2,5-dihydrofuran-2-yl]oxy}methyl)(phenoxy)phosphoryl]amino}propanoate

> <ALOGPS_LOGP>
1.44

> <JCHEM_LOGP>
1.4897075683333345

> <ALOGPS_LOGS>
-3.04

> <JCHEM_MDDR_LIKE_RULE>
1

> <JCHEM_NUMBER_OF_RINGS>
4

> <JCHEM_PHYSIOLOGICAL_CHARGE>
0

> <JCHEM_PKA>
18.514546044975784

> <JCHEM_PKA_STRONGEST_ACIDIC>
11.359494527904758

> <JCHEM_PKA_STRONGEST_BASIC>
3.909520813733849

> <JCHEM_POLAR_SURFACE_AREA>
152.70999999999998

> <JCHEM_REFRACTIVITY>
122.90050000000004

> <JCHEM_ROTATABLE_BOND_COUNT>
11

> <JCHEM_RULE_OF_FIVE>
0

> <ALOGPS_SOLUBILITY>
4.59e-01 g/l

> <JCHEM_TRADITIONAL_IUPAC>
(2R)-14-fluoro-2-methyl-6,9,10,19-tetraazapentacyclo[14.2.1.0^{2,6}.0^{8,18}.0^{12,17}]nonadeca-1(18),8,12(17),13,15-pentaen-11-one

> <JCHEM_VEBER_RULE>
0

> <DRUGBANK_ID>
DB14903

> <DRUG_GROUPS>
investigational

> <GENERIC_NAME>
Rovafovir etalafenamide

> <SYNONYMS>
Rovafovir etalafenamide

$$$$
