
  Mrv1572004221606212D          

 16 17  0  0  0  0            999 V2000
    2.8579    0.0000    0.0000 C   0  0  0  0  0  0  0  0  0  0  0  0
    5.0013    2.0625    0.0000 C   0  0  0  0  0  0  0  0  0  0  0  0
    0.7145    2.0625    0.0000 C   0  0  0  0  0  0  0  0  0  0  0  0
    1.4289    2.4750    0.0000 C   0  0  0  0  0  0  0  0  0  0  0  0
    1.4289    0.8250    0.0000 C   0  0  0  0  0  0  0  0  0  0  0  0
    3.5724    1.2375    0.0000 C   0  0  0  0  0  0  0  0  0  0  0  0
    0.7145    1.2375    0.0000 C   0  0  0  0  0  0  0  0  0  0  0  0
    2.1434    2.0625    0.0000 C   0  0  0  0  0  0  0  0  0  0  0  0
    2.1434    1.2375    0.0000 C   0  0  0  0  0  0  0  0  0  0  0  0
    3.5724    2.0625    0.0000 C   0  0  0  0  0  0  0  0  0  0  0  0
    2.8579    2.4750    0.0000 C   0  0  0  0  0  0  0  0  0  0  0  0
    0.0000    0.8250    0.0000 F   0  0  0  0  0  0  0  0  0  0  0  0
    2.8579    0.8250    0.0000 N   0  0  0  0  0  0  0  0  0  0  0  0
    2.8579    3.3000    0.0000 O   0  0  0  0  0  0  0  0  0  0  0  0
    4.2868    3.3000    0.0000 O   0  0  0  0  0  0  0  0  0  0  0  0
    4.2868    2.4750    0.0000 S   0  0  0  0  0  0  0  0  0  0  0  0
  4  3  2  0  0  0  0
  7  3  1  0  0  0  0
  7  5  2  0  0  0  0
  8  4  1  0  0  0  0
  9  5  1  0  0  0  0
  9  8  2  0  0  0  0
 10  6  2  0  0  0  0
 11  8  1  0  0  0  0
 11 10  1  0  0  0  0
 12  7  1  0  0  0  0
 13  1  1  0  0  0  0
 13  6  1  0  0  0  0
 13  9  1  0  0  0  0
 14 11  2  0  0  0  0
 16  2  1  0  0  0  0
 16 10  1  0  0  0  0
 16 15  2  0  0  0  0
M  END
> <DATABASE_ID>
DB13228

> <DATABASE_NAME>
drugbank

> <SMILES>
CN1C=C(C(=O)C2=C1C=C(F)C=C2)S(C)=O

> <INCHI_IDENTIFIER>
InChI=1S/C11H10FNO2S/c1-13-6-10(16(2)15)11(14)8-4-3-7(12)5-9(8)13/h3-6H,1-2H3

> <INCHI_KEY>
UYGONJYYUKVHDD-UHFFFAOYSA-N

> <FORMULA>
C11H10FNO2S

> <MOLECULAR_WEIGHT>
239.26

> <EXACT_MASS>
239.041627903

> <JCHEM_ACCEPTOR_COUNT>
3

> <JCHEM_ATOM_COUNT>
26

> <JCHEM_AVERAGE_POLARIZABILITY>
22.88130453713848

> <JCHEM_BIOAVAILABILITY>
1

> <JCHEM_DONOR_COUNT>
0

> <JCHEM_FORMAL_CHARGE>
0

> <JCHEM_GHOSE_FILTER>
1

> <JCHEM_IUPAC>
7-fluoro-3-methanesulfinyl-1-methyl-1,4-dihydroquinolin-4-one

> <ALOGPS_LOGP>
1.13

> <JCHEM_LOGP>
0.7187198986666667

> <ALOGPS_LOGS>
-1.52

> <JCHEM_MDDR_LIKE_RULE>
0

> <JCHEM_NUMBER_OF_RINGS>
2

> <JCHEM_PHYSIOLOGICAL_CHARGE>
0

> <JCHEM_PKA_STRONGEST_BASIC>
-1.3665969070493094

> <JCHEM_POLAR_SURFACE_AREA>
37.38

> <JCHEM_REFRACTIVITY>
63.818000000000005

> <JCHEM_ROTATABLE_BOND_COUNT>
1

> <JCHEM_RULE_OF_FIVE>
1

> <ALOGPS_SOLUBILITY>
7.25e+00 g/l

> <JCHEM_TRADITIONAL_IUPAC>
manoplax

> <JCHEM_VEBER_RULE>
1

> <DRUGBANK_ID>
DB13228

> <DRUG_GROUPS>
approved; withdrawn

> <GENERIC_NAME>
Flosequinan

> <SYNONYMS>
Flosequinan

$$$$
