
  Mrv1652310211602232D          

 46 51  0  0  1  0            999 V2000
   -0.7145   -0.4125    0.0000 C   0  0  0  0  0  0  0  0  0  0  0  0
   -0.7145   -1.2375    0.0000 C   0  0  0  0  0  0  0  0  0  0  0  0
    0.0000   -1.6500    0.0000 C   0  0  0  0  0  0  0  0  0  0  0  0
    0.7145   -1.2375    0.0000 C   0  0  0  0  0  0  0  0  0  0  0  0
    0.7145   -0.4125    0.0000 C   0  0  0  0  0  0  0  0  0  0  0  0
    0.0000   -0.0000    0.0000 C   0  0  0  0  0  0  0  0  0  0  0  0
    1.4289   -0.0000    0.0000 C   0  0  0  0  0  0  0  0  0  0  0  0
    2.1434   -0.4125    0.0000 N   0  0  0  0  0  0  0  0  0  0  0  0
    2.1434   -1.2375    0.0000 N   0  0  0  0  0  0  0  0  0  0  0  0
    1.4289   -1.6500    0.0000 C   0  0  0  0  0  0  0  0  0  0  0  0
    1.4289   -2.4750    0.0000 O   0  0  0  0  0  0  0  0  0  0  0  0
    2.8579   -1.6500    0.0000 C   0  0  0  0  0  0  0  0  0  0  0  0
    2.8579   -2.4750    0.0000 C   0  0  1  0  0  0  0  0  0  0  0  0
    2.1904   -2.9599    0.0000 C   0  0  0  0  0  0  0  0  0  0  0  0
    2.4454   -3.7445    0.0000 C   0  0  0  0  0  0  0  0  0  0  0  0
    3.2704   -3.7445    0.0000 C   0  0  0  0  0  0  0  0  0  0  0  0
    3.5253   -2.9599    0.0000 N   0  0  0  0  0  0  0  0  0  0  0  0
    4.3099   -2.7050    0.0000 C   0  0  0  0  0  0  0  0  0  0  0  0
    4.9230   -3.2570    0.0000 C   0  0  0  0  0  0  0  0  0  0  0  0
    5.7077   -3.0021    0.0000 C   0  0  0  0  0  0  0  0  0  0  0  0
    6.3208   -3.5541    0.0000 C   0  0  0  0  0  0  0  0  0  0  0  0
    6.1492   -4.3611    0.0000 C   0  0  0  0  0  0  0  0  0  0  0  0
    6.7623   -4.9131    0.0000 C   0  0  0  0  0  0  0  0  0  0  0  0
    6.5908   -5.7201    0.0000 C   0  0  0  0  0  0  0  0  0  0  0  0
    5.8062   -5.9750    0.0000 C   0  0  0  0  0  0  0  0  0  0  0  0
    5.1931   -5.4230    0.0000 C   0  0  0  0  0  0  0  0  0  0  0  0
    5.3646   -4.6160    0.0000 C   0  0  0  0  0  0  0  0  0  0  0  0
    5.6346   -6.7820    0.0000 O   0  0  0  0  0  0  0  0  0  0  0  0
    4.8500   -7.0369    0.0000 C   0  0  0  0  0  0  0  0  0  0  0  0
    4.6785   -7.8439    0.0000 C   0  0  0  0  0  0  0  0  0  0  0  0
    3.8939   -8.0988    0.0000 C   0  0  0  0  0  0  0  0  0  0  0  0
    3.7223   -8.9058    0.0000 N   0  0  0  0  0  0  0  0  0  0  0  0
    4.3750   -9.4105    0.0000 C   0  0  0  0  0  0  0  0  0  0  0  0
    4.3873  -10.2354    0.0000 C   0  0  0  0  0  0  0  0  0  0  0  0
    3.7501  -10.7594    0.0000 C   0  0  0  0  0  0  0  0  0  0  0  0
    2.9431  -10.5878    0.0000 C   0  0  0  0  0  0  0  0  0  0  0  0
    2.5741   -9.8500    0.0000 C   0  0  0  0  0  0  0  0  0  0  0  0
    2.9209   -9.1014    0.0000 C   0  0  0  0  0  0  0  0  0  0  0  0
    1.4289    0.8250    0.0000 C   0  0  0  0  0  0  0  0  0  0  0  0
    2.1434    1.2375    0.0000 C   0  0  0  0  0  0  0  0  0  0  0  0
    2.1434    2.0625    0.0000 C   0  0  0  0  0  0  0  0  0  0  0  0
    2.8579    2.4750    0.0000 C   0  0  0  0  0  0  0  0  0  0  0  0
    3.5724    2.0625    0.0000 C   0  0  0  0  0  0  0  0  0  0  0  0
    3.5724    1.2375    0.0000 C   0  0  0  0  0  0  0  0  0  0  0  0
    2.8579    0.8250    0.0000 C   0  0  0  0  0  0  0  0  0  0  0  0
    4.2868    2.4750    0.0000 Cl  0  0  0  0  0  0  0  0  0  0  0  0
  1  2  2  0  0  0  0
  2  3  1  0  0  0  0
  3  4  2  0  0  0  0
  4  5  1  0  0  0  0
  5  6  2  0  0  0  0
  1  6  1  0  0  0  0
  5  7  1  0  0  0  0
  7  8  2  0  0  0  0
  8  9  1  0  0  0  0
  9 10  1  0  0  0  0
  4 10  1  0  0  0  0
 10 11  2  0  0  0  0
  9 12  1  0  0  0  0
 13 12  1  6  0  0  0
 13 14  1  0  0  0  0
 14 15  1  0  0  0  0
 15 16  1  0  0  0  0
 16 17  1  0  0  0  0
 13 17  1  0  0  0  0
 17 18  1  0  0  0  0
 18 19  1  0  0  0  0
 19 20  1  0  0  0  0
 20 21  1  0  0  0  0
 21 22  1  0  0  0  0
 22 23  2  0  0  0  0
 23 24  1  0  0  0  0
 24 25  2  0  0  0  0
 25 26  1  0  0  0  0
 26 27  2  0  0  0  0
 22 27  1  0  0  0  0
 25 28  1  0  0  0  0
 28 29  1  0  0  0  0
 29 30  1  0  0  0  0
 30 31  1  0  0  0  0
 31 32  1  0  0  0  0
 32 33  1  0  0  0  0
 33 34  1  0  0  0  0
 34 35  1  0  0  0  0
 35 36  1  0  0  0  0
 36 37  1  0  0  0  0
 37 38  1  0  0  0  0
 32 38  1  0  0  0  0
  7 39  1  0  0  0  0
 39 40  1  0  0  0  0
 40 41  2  0  0  0  0
 41 42  1  0  0  0  0
 42 43  2  0  0  0  0
 43 44  1  0  0  0  0
 44 45  2  0  0  0  0
 40 45  1  0  0  0  0
 43 46  1  0  0  0  0
M  END
> <DATABASE_ID>
DB12806

> <DATABASE_NAME>
drugbank

> <SMILES>
ClC1=CC=C(CC2=NN(C[C@H]3CCCN3CCCCC3=CC=C(OCCCN4CCCCCC4)C=C3)C(=O)C3=CC=CC=C23)C=C1

> <INCHI_IDENTIFIER>
InChI=1S/C39H49ClN4O2/c40-33-19-15-32(16-20-33)29-38-36-13-3-4-14-37(36)39(45)44(41-38)30-34-12-9-27-43(34)26-8-5-11-31-17-21-35(22-18-31)46-28-10-25-42-23-6-1-2-7-24-42/h3-4,13-22,34H,1-2,5-12,23-30H2/t34-/m1/s1

> <INCHI_KEY>
YANGEESWIGIKOP-UUWRZZSWSA-N

> <FORMULA>
C39H49ClN4O2

> <MOLECULAR_WEIGHT>
641.3

> <EXACT_MASS>
640.3544045

> <JCHEM_ACCEPTOR_COUNT>
5

> <JCHEM_ATOM_COUNT>
95

> <JCHEM_AVERAGE_POLARIZABILITY>
73.56006414598977

> <JCHEM_BIOAVAILABILITY>
0

> <JCHEM_DONOR_COUNT>
0

> <JCHEM_FORMAL_CHARGE>
0

> <JCHEM_GHOSE_FILTER>
0

> <JCHEM_IUPAC>
2-{[(2R)-1-(4-{4-[3-(azepan-1-yl)propoxy]phenyl}butyl)pyrrolidin-2-yl]methyl}-4-[(4-chlorophenyl)methyl]-1,2-dihydrophthalazin-1-one

> <ALOGPS_LOGP>
7.84

> <JCHEM_LOGP>
8.099443166999999

> <ALOGPS_LOGS>
-6.78

> <JCHEM_MDDR_LIKE_RULE>
1

> <JCHEM_NUMBER_OF_RINGS>
6

> <JCHEM_PHYSIOLOGICAL_CHARGE>
2

> <JCHEM_PKA_STRONGEST_BASIC>
9.792008385460438

> <JCHEM_POLAR_SURFACE_AREA>
48.38

> <JCHEM_REFRACTIVITY>
190.31029999999996

> <JCHEM_ROTATABLE_BOND_COUNT>
14

> <JCHEM_RULE_OF_FIVE>
0

> <ALOGPS_SOLUBILITY>
1.06e-04 g/l

> <JCHEM_TRADITIONAL_IUPAC>
2-{[(2R)-1-(4-{4-[3-(azepan-1-yl)propoxy]phenyl}butyl)pyrrolidin-2-yl]methyl}-4-[(4-chlorophenyl)methyl]phthalazin-1-one

> <JCHEM_VEBER_RULE>
0

> <DRUGBANK_ID>
DB12806

> <DRUG_GROUPS>
investigational

> <GENERIC_NAME>
GSK-1004723

$$$$
