
  Mrv1909 05201915332D          

 29 32  0  0  0  0            999 V2000
   -5.5495   -0.1977    0.0000 C   0  0  0  0  0  0  0  0  0  0  0  0
   -5.5495   -1.0227    0.0000 C   0  0  0  0  0  0  0  0  0  0  0  0
   -4.8350   -1.4352    0.0000 C   0  0  0  0  0  0  0  0  0  0  0  0
   -4.8350   -2.2602    0.0000 C   0  0  0  0  0  0  0  0  0  0  0  0
   -5.5495   -2.6727    0.0000 C   0  0  0  0  0  0  0  0  0  0  0  0
   -6.2640   -2.2602    0.0000 C   0  0  0  0  0  0  0  0  0  0  0  0
   -6.2640   -1.4352    0.0000 C   0  0  0  0  0  0  0  0  0  0  0  0
   -6.9784   -1.0227    0.0000 N   0  0  0  0  0  0  0  0  0  0  0  0
   -7.7321   -1.3583    0.0000 N   0  0  0  0  0  0  0  0  0  0  0  0
   -8.2841   -0.7452    0.0000 C   0  0  0  0  0  0  0  0  0  0  0  0
   -7.8716   -0.0307    0.0000 C   0  0  0  0  0  0  0  0  0  0  0  0
   -8.2072    0.7230    0.0000 C   0  0  0  0  0  0  0  0  0  0  0  0
   -7.7223    1.3904    0.0000 O   0  0  0  0  0  0  0  0  0  0  0  0
   -9.0277    0.8092    0.0000 C   0  0  0  0  0  0  0  0  0  0  0  0
   -9.5126    0.1418    0.0000 C   0  0  0  0  0  0  0  0  0  0  0  0
  -10.3331    0.2280    0.0000 C   0  0  0  0  0  0  0  0  0  0  0  0
  -10.6686    0.9817    0.0000 C   0  0  0  0  0  0  0  0  0  0  0  0
  -10.1837    1.6491    0.0000 C   0  0  0  0  0  0  0  0  0  0  0  0
   -9.3632    1.5629    0.0000 C   0  0  0  0  0  0  0  0  0  0  0  0
  -10.5193    2.4028    0.0000 C   0  0  0  0  0  0  0  0  0  0  0  0
  -10.8548    3.1565    0.0000 N   0  0  0  0  0  0  0  0  0  0  0  0
   -7.0647   -0.2022    0.0000 C   0  0  0  0  0  0  0  0  0  0  0  0
   -6.4516    0.3498    0.0000 N   0  0  0  0  0  0  0  0  0  0  0  0
   -5.5495   -3.4977    0.0000 C   0  0  0  0  0  0  0  0  0  0  0  0
   -6.2640   -3.9102    0.0000 O   0  0  0  0  0  0  0  0  0  0  0  0
   -4.8350   -3.9102    0.0000 N   0  0  0  0  0  0  0  0  0  0  0  0
   -4.8350   -4.7352    0.0000 C   0  0  0  0  0  0  0  0  0  0  0  0
   -4.4225   -5.4497    0.0000 C   0  0  0  0  0  0  0  0  0  0  0  0
   -5.2475   -5.4497    0.0000 C   0  0  0  0  0  0  0  0  0  0  0  0
  1  2  1  0  0  0  0
  2  3  2  0  0  0  0
  3  4  1  0  0  0  0
  4  5  2  0  0  0  0
  5  6  1  0  0  0  0
  6  7  2  0  0  0  0
  2  7  1  0  0  0  0
  7  8  1  0  0  0  0
  8  9  1  0  0  0  0
  9 10  2  0  0  0  0
 10 11  1  0  0  0  0
 11 12  1  0  0  0  0
 12 13  2  0  0  0  0
 12 14  1  0  0  0  0
 14 15  2  0  0  0  0
 15 16  1  0  0  0  0
 16 17  2  0  0  0  0
 17 18  1  0  0  0  0
 18 19  2  0  0  0  0
 14 19  1  0  0  0  0
 18 20  1  0  0  0  0
 20 21  3  0  0  0  0
 11 22  2  0  0  0  0
  8 22  1  0  0  0  0
 22 23  1  0  0  0  0
  5 24  1  0  0  0  0
 24 25  2  0  0  0  0
 24 26  1  0  0  0  0
 26 27  1  0  0  0  0
 27 28  1  0  0  0  0
 28 29  1  0  0  0  0
 27 29  1  0  0  0  0
M  END
> <DATABASE_ID>
DB15448

> <DATABASE_NAME>
drugbank

> <SMILES>
CC1=CC=C(C=C1N1N=CC(C(=O)C2=CC=CC(=C2)C#N)=C1N)C(=O)NC1CC1

> <INCHI_IDENTIFIER>
InChI=1S/C22H19N5O2/c1-13-5-6-16(22(29)26-17-7-8-17)10-19(13)27-21(24)18(12-25-27)20(28)15-4-2-3-14(9-15)11-23/h2-6,9-10,12,17H,7-8,24H2,1H3,(H,26,29)

> <INCHI_KEY>
VGUSQKZDZHAAEE-UHFFFAOYSA-N

> <FORMULA>
C22H19N5O2

> <MOLECULAR_WEIGHT>
385.427

> <EXACT_MASS>
385.153874872

> <JCHEM_ACCEPTOR_COUNT>
5

> <JCHEM_ATOM_COUNT>
48

> <JCHEM_AVERAGE_POLARIZABILITY>
41.43344298672498

> <JCHEM_BIOAVAILABILITY>
1

> <JCHEM_DONOR_COUNT>
2

> <JCHEM_FORMAL_CHARGE>
0

> <JCHEM_GHOSE_FILTER>
1

> <JCHEM_IUPAC>
3-[5-amino-4-(3-cyanobenzoyl)-1H-pyrazol-1-yl]-N-cyclopropyl-4-methylbenzamide

> <ALOGPS_LOGP>
2.48

> <JCHEM_LOGP>
3.3381808886666673

> <ALOGPS_LOGS>
-4.02

> <JCHEM_MDDR_LIKE_RULE>
0

> <JCHEM_NUMBER_OF_RINGS>
4

> <JCHEM_PHYSIOLOGICAL_CHARGE>
0

> <JCHEM_PKA_STRONGEST_ACIDIC>
15.424730495522665

> <JCHEM_PKA_STRONGEST_BASIC>
2.181685495427

> <JCHEM_POLAR_SURFACE_AREA>
113.80000000000001

> <JCHEM_REFRACTIVITY>
110.898

> <JCHEM_ROTATABLE_BOND_COUNT>
5

> <JCHEM_RULE_OF_FIVE>
1

> <ALOGPS_SOLUBILITY>
3.66e-02 g/l

> <JCHEM_TRADITIONAL_IUPAC>
(2R)-14-fluoro-2-methyl-6,9,10,19-tetraazapentacyclo[14.2.1.0^{2,6}.0^{8,18}.0^{12,17}]nonadeca-1(18),8,12(17),13,15-pentaen-11-one

> <JCHEM_VEBER_RULE>
0

> <DRUGBANK_ID>
DB15448

> <DRUG_GROUPS>
investigational

> <GENERIC_NAME>
Acumapimod

> <SYNONYMS>
Acumapimod

$$$$
