
  Mrv1909 11142221472D          

 27 29  0  0  0  0            999 V2000
   -0.9252   -0.5075    0.0000 N   0  0  0  0  0  0  0  0  0  0  0  0
   -0.7537   -1.3144    0.0000 C   0  0  0  0  0  0  0  0  0  0  0  0
    0.0000   -1.6500    0.0000 C   0  0  0  0  0  0  0  0  0  0  0  0
   -0.0862   -2.4705    0.0000 C   0  0  0  0  0  0  0  0  0  0  0  0
   -0.8932   -2.6420    0.0000 N   0  0  0  0  0  0  0  0  0  0  0  0
   -1.3057   -1.9275    0.0000 N   0  0  0  0  0  0  0  0  0  0  0  0
   -2.1262   -1.8413    0.0000 C   0  0  0  0  0  0  0  0  0  0  0  0
   -2.6111   -2.5087    0.0000 C   0  0  0  0  0  0  0  0  0  0  0  0
   -3.4316   -2.4225    0.0000 C   0  0  0  0  0  0  0  0  0  0  0  0
   -3.7671   -1.6688    0.0000 C   0  0  0  0  0  0  0  0  0  0  0  0
   -4.5876   -1.5826    0.0000 F   0  0  0  0  0  0  0  0  0  0  0  0
   -3.2822   -1.0014    0.0000 C   0  0  0  0  0  0  0  0  0  0  0  0
   -2.4617   -1.0876    0.0000 C   0  0  0  0  0  0  0  0  0  0  0  0
    0.7145   -1.2375    0.0000 C   0  0  0  0  0  0  0  0  0  0  0  0
    1.4289   -1.6500    0.0000 O   0  0  0  0  0  0  0  0  0  0  0  0
    0.7145   -0.4125    0.0000 C   0  0  0  0  0  0  0  0  0  0  0  0
   -0.0000    0.0000    0.0000 C   0  0  0  0  0  0  0  0  0  0  0  0
   -0.0000    0.8250    0.0000 C   0  0  0  0  0  0  0  0  0  0  0  0
    0.7145    1.2375    0.0000 C   0  0  0  0  0  0  0  0  0  0  0  0
    1.4289    0.8250    0.0000 C   0  0  0  0  0  0  0  0  0  0  0  0
    2.1434    1.2375    0.0000 O   0  0  0  0  0  0  0  0  0  0  0  0
    2.8579    0.8250    0.0000 C   0  0  0  0  0  0  0  0  0  0  0  0
    3.5724    1.2375    0.0000 C   0  0  0  0  0  0  0  0  0  0  0  0
    3.5724    2.0625    0.0000 O   0  0  0  0  0  0  0  0  0  0  0  0
    4.2868    0.8250    0.0000 C   0  0  0  0  0  0  0  0  0  0  0  0
    5.0013    1.2375    0.0000 O   0  0  0  0  0  0  0  0  0  0  0  0
    1.4289    0.0000    0.0000 C   0  0  0  0  0  0  0  0  0  0  0  0
  1  2  1  0  0  0  0
  2  3  2  0  0  0  0
  3  4  1  0  0  0  0
  4  5  2  0  0  0  0
  5  6  1  0  0  0  0
  2  6  1  0  0  0  0
  6  7  1  0  0  0  0
  7  8  2  0  0  0  0
  8  9  1  0  0  0  0
  9 10  2  0  0  0  0
 10 11  1  0  0  0  0
 10 12  1  0  0  0  0
 12 13  2  0  0  0  0
  7 13  1  0  0  0  0
  3 14  1  0  0  0  0
 14 15  2  0  0  0  0
 14 16  1  0  0  0  0
 16 17  2  0  0  0  0
 17 18  1  0  0  0  0
 18 19  2  0  0  0  0
 19 20  1  0  0  0  0
 20 21  1  0  0  0  0
 21 22  1  0  0  0  0
 22 23  1  0  0  0  0
 23 24  1  0  0  0  0
 23 25  1  0  0  0  0
 25 26  1  0  0  0  0
 20 27  2  0  0  0  0
 16 27  1  0  0  0  0
M  END
> <DATABASE_ID>
DB17106

> <DATABASE_NAME>
drugbank

> <SMILES>
NC1=C(C=NN1C1=CC=C(F)C=C1)C(=O)C1=CC=CC(OCC(O)CO)=C1

> <INCHI_IDENTIFIER>
InChI=1S/C19H18FN3O4/c20-13-4-6-14(7-5-13)23-19(21)17(9-22-23)18(26)12-2-1-3-16(8-12)27-11-15(25)10-24/h1-9,15,24-25H,10-11,21H2

> <INCHI_KEY>
IJDQETGUEUJVTB-UHFFFAOYSA-N

> <FORMULA>
C19H18FN3O4

> <MOLECULAR_WEIGHT>
371.368

> <EXACT_MASS>
371.128134235

> <JCHEM_ACCEPTOR_COUNT>
6

> <JCHEM_ATOM_COUNT>
45

> <JCHEM_AVERAGE_NEUTRAL_MICROSPECIES_CHARGE>
1.533018600499344e-05

> <JCHEM_AVERAGE_POLARIZABILITY>
37.62187107410675

> <JCHEM_BIOAVAILABILITY>
1

> <JCHEM_DONOR_COUNT>
3

> <JCHEM_FORMAL_CHARGE>
0

> <JCHEM_GHOSE_FILTER>
1

> <JCHEM_IUPAC>
3-{3-[5-amino-1-(4-fluorophenyl)-1H-pyrazole-4-carbonyl]phenoxy}propane-1,2-diol

> <ALOGPS_LOGP>
1.58

> <JCHEM_LOGP>
2.0933761309999994

> <ALOGPS_LOGS>
-3.57

> <JCHEM_MDDR_LIKE_RULE>
1

> <JCHEM_NEUTRAL_CHARGE>
0

> <JCHEM_NUMBER_OF_RINGS>
3

> <JCHEM_PHYSIOLOGICAL_CHARGE>
0

> <JCHEM_PKA>
15.562425936840443

> <JCHEM_PKA_STRONGEST_ACIDIC>
13.624307301399394

> <JCHEM_PKA_STRONGEST_BASIC>
2.1923076033351907

> <JCHEM_POLAR_SURFACE_AREA>
110.60000000000001

> <JCHEM_REFRACTIVITY>
97.8833

> <JCHEM_ROTATABLE_BOND_COUNT>
7

> <JCHEM_RULE_OF_FIVE>
1

> <ALOGPS_SOLUBILITY>
9.90e-02 g/l

> <JCHEM_TRADITIONAL_IUPAC>
ioflubenzamide i-131

> <JCHEM_VEBER_RULE>
0

> <DRUGBANK_ID>
DB17106

> <DRUG_GROUPS>
investigational

> <GENERIC_NAME>
SYD-003

> <SYNONYMS>
(5-amino-1-(4-fluoro-phenyl)-1h-pyrazol-4-yl)-(3-(2,3-dihydroxy-propoxy)-phenyl)-methanone; [5-Amino-1-(4-fluoro-phenyl)-1H-pyrazol-4-yl]-[3-(2,3-dihydroxy-propoxy)-phenyl]-methanone; Methanone, (5-amino-1-(4-fluorophenyl)-1h-pyrazol-4-yl)(3-(2,3-dihydroxypropoxy)phenyl)-

$$$$
