
  Mrv1652310201622382D          

 25 27  0  0  0  0            999 V2000
   -0.1712   -0.6979    0.0000 C   0  0  0  0  0  0  0  0  0  0  0  0
    0.6538   -0.6979    0.0000 C   0  0  0  0  0  0  0  0  0  0  0  0
    1.1387   -0.0305    0.0000 C   0  0  0  0  0  0  0  0  0  0  0  0
    1.9233   -0.2854    0.0000 C   0  0  0  0  0  0  0  0  0  0  0  0
    2.6378    0.1271    0.0000 C   0  0  0  0  0  0  0  0  0  0  0  0
    3.3523   -0.2854    0.0000 C   0  0  0  0  0  0  0  0  0  0  0  0
    3.3523   -1.1104    0.0000 C   0  0  0  0  0  0  0  0  0  0  0  0
    2.6378   -1.5229    0.0000 N   0  0  0  0  0  0  0  0  0  0  0  0
    1.9233   -1.1104    0.0000 C   0  0  0  0  0  0  0  0  0  0  0  0
    1.1387   -1.3654    0.0000 N   0  0  0  0  0  0  0  0  0  0  0  0
    0.8838   -2.1500    0.0000 C   0  0  0  0  0  0  0  0  0  0  0  0
    1.4358   -2.7631    0.0000 C   0  0  0  0  0  0  0  0  0  0  0  0
    2.2428   -2.5916    0.0000 C   0  0  0  0  0  0  0  0  0  0  0  0
    2.7948   -3.2047    0.0000 C   0  0  0  0  0  0  0  0  0  0  0  0
    2.5399   -3.9893    0.0000 C   0  0  0  0  0  0  0  0  0  0  0  0
    1.7329   -4.1608    0.0000 C   0  0  0  0  0  0  0  0  0  0  0  0
    1.1809   -3.5477    0.0000 C   0  0  0  0  0  0  0  0  0  0  0  0
    3.0919   -4.6024    0.0000 S   0  0  0  0  0  0  0  0  0  0  0  0
    3.6439   -5.2155    0.0000 O   0  0  0  0  0  0  0  0  0  0  0  0
    3.7050   -4.0503    0.0000 O   0  0  0  0  0  0  0  0  0  0  0  0
    2.4788   -5.1544    0.0000 C   0  0  0  0  0  0  0  0  0  0  0  0
    0.8838    0.7541    0.0000 C   0  0  0  0  0  0  0  0  0  0  0  0
    1.4358    1.3672    0.0000 C   0  0  0  0  0  0  0  0  0  0  0  0
    1.1809    2.1518    0.0000 O   0  0  0  0  0  0  0  0  0  0  0  0
    2.2428    1.1957    0.0000 O   0  0  0  0  0  0  0  0  0  0  0  0
  1  2  1  0  0  0  0
  2  3  2  0  0  0  0
  3  4  1  0  0  0  0
  4  5  2  0  0  0  0
  5  6  1  0  0  0  0
  6  7  2  0  0  0  0
  7  8  1  0  0  0  0
  8  9  2  0  0  0  0
  4  9  1  0  0  0  0
  9 10  1  0  0  0  0
  2 10  1  0  0  0  0
 10 11  1  0  0  0  0
 11 12  1  0  0  0  0
 12 13  2  0  0  0  0
 13 14  1  0  0  0  0
 14 15  2  0  0  0  0
 15 16  1  0  0  0  0
 16 17  2  0  0  0  0
 12 17  1  0  0  0  0
 15 18  1  0  0  0  0
 18 19  2  0  0  0  0
 18 20  2  0  0  0  0
 18 21  1  0  0  0  0
  3 22  1  0  0  0  0
 22 23  1  0  0  0  0
 23 24  2  0  0  0  0
 23 25  1  0  0  0  0
M  END
> <DATABASE_ID>
DB11658

> <DATABASE_NAME>
drugbank

> <SMILES>
CC1=C(CC(O)=O)C2=CC=CN=C2N1CC1=CC=C(C=C1)S(C)(=O)=O

> <INCHI_IDENTIFIER>
InChI=1S/C18H18N2O4S/c1-12-16(10-17(21)22)15-4-3-9-19-18(15)20(12)11-13-5-7-14(8-6-13)25(2,23)24/h3-9H,10-11H2,1-2H3,(H,21,22)

> <INCHI_KEY>
YOPFAMROKXHVCQ-UHFFFAOYSA-N

> <FORMULA>
C18H18N2O4S

> <MOLECULAR_WEIGHT>
358.41

> <EXACT_MASS>
358.098728242

> <JCHEM_ACCEPTOR_COUNT>
5

> <JCHEM_ATOM_COUNT>
43

> <JCHEM_AVERAGE_POLARIZABILITY>
36.69947580908908

> <JCHEM_BIOAVAILABILITY>
1

> <JCHEM_DONOR_COUNT>
1

> <JCHEM_FORMAL_CHARGE>
0

> <JCHEM_GHOSE_FILTER>
1

> <JCHEM_IUPAC>
2-{1-[(4-methanesulfonylphenyl)methyl]-2-methyl-1H-pyrrolo[2,3-b]pyridin-3-yl}acetic acid

> <ALOGPS_LOGP>
1.73

> <JCHEM_LOGP>
1.3745808244399806

> <ALOGPS_LOGS>
-3.86

> <JCHEM_MDDR_LIKE_RULE>
0

> <JCHEM_NUMBER_OF_RINGS>
3

> <JCHEM_PHYSIOLOGICAL_CHARGE>
-1

> <JCHEM_PKA>
19.70693478444762

> <JCHEM_PKA_STRONGEST_ACIDIC>
4.371093064040579

> <JCHEM_PKA_STRONGEST_BASIC>
3.715084622657129

> <JCHEM_POLAR_SURFACE_AREA>
89.26

> <JCHEM_REFRACTIVITY>
94.91039999999998

> <JCHEM_ROTATABLE_BOND_COUNT>
5

> <JCHEM_RULE_OF_FIVE>
1

> <ALOGPS_SOLUBILITY>
4.98e-02 g/l

> <JCHEM_TRADITIONAL_IUPAC>
{1-[(4-methanesulfonylphenyl)methyl]-2-methylpyrrolo[2,3-b]pyridin-3-yl}acetic acid

> <JCHEM_VEBER_RULE>
0

> <DRUGBANK_ID>
DB11658

> <DRUG_GROUPS>
investigational

> <GENERIC_NAME>
QAV-680

$$$$
