
  Mrv1572004221603002D          

 15 15  0  0  0  0            999 V2000
   -0.7145    3.7125    0.0000 C   0  0  0  0  0  0  0  0  0  0  0  0
   -0.0000    3.3000    0.0000 C   0  0  0  0  0  0  0  0  0  0  0  0
    1.4289   -0.0000    0.0000 C   0  0  0  0  0  0  0  0  0  0  0  0
    1.4289    0.8250    0.0000 C   0  0  0  0  0  0  0  0  0  0  0  0
   -0.0000    2.4750    0.0000 C   0  0  0  0  0  0  0  0  0  0  0  0
    0.0000   -0.0000    0.0000 C   0  0  0  0  0  0  0  0  0  0  0  0
    0.7145   -1.2375    0.0000 C   0  0  0  0  0  0  0  0  0  0  0  0
    0.7145   -0.4125    0.0000 C   0  0  0  0  0  0  0  0  0  0  0  0
    0.0000    0.8250    0.0000 C   0  0  0  0  0  0  0  0  0  0  0  0
    0.7145    1.2375    0.0000 C   0  0  0  0  0  0  0  0  0  0  0  0
   -0.0000   -1.6500    0.0000 C   0  0  0  0  0  0  0  0  0  0  0  0
   -0.7145    1.2375    0.0000 Cl  0  0  0  0  0  0  0  0  0  0  0  0
   -0.0000   -2.4750    0.0000 O   0  0  0  0  0  0  0  0  0  0  0  0
   -0.7145   -1.2375    0.0000 O   0  0  0  0  0  0  0  0  0  0  0  0
    0.7145    2.0625    0.0000 O   0  0  0  0  0  0  0  0  0  0  0  0
  2  1  2  0  0  0  0
  4  3  2  0  0  0  0
  5  2  1  0  0  0  0
  8  3  1  0  0  0  0
  8  6  2  0  0  0  0
  8  7  1  0  0  0  0
  9  6  1  0  0  0  0
 10  4  1  0  0  0  0
 10  9  2  0  0  0  0
 11  7  1  0  0  0  0
 12  9  1  0  0  0  0
 13 11  2  0  0  0  0
 14 11  1  0  0  0  0
 15  5  1  0  0  0  0
 15 10  1  0  0  0  0
M  END
> <DATABASE_ID>
DB13167

> <DATABASE_NAME>
drugbank

> <SMILES>
OC(=O)CC1=CC(Cl)=C(OCC=C)C=C1

> <INCHI_IDENTIFIER>
InChI=1S/C11H11ClO3/c1-2-5-15-10-4-3-8(6-9(10)12)7-11(13)14/h2-4,6H,1,5,7H2,(H,13,14)

> <INCHI_KEY>
ARHWPKZXBHOEEE-UHFFFAOYSA-N

> <FORMULA>
C11H11ClO3

> <MOLECULAR_WEIGHT>
226.66

> <EXACT_MASS>
226.0396719

> <JCHEM_ACCEPTOR_COUNT>
3

> <JCHEM_ATOM_COUNT>
26

> <JCHEM_AVERAGE_POLARIZABILITY>
22.284825813457417

> <JCHEM_BIOAVAILABILITY>
1

> <JCHEM_DONOR_COUNT>
1

> <JCHEM_FORMAL_CHARGE>
0

> <JCHEM_GHOSE_FILTER>
1

> <JCHEM_IUPAC>
2-[3-chloro-4-(prop-2-en-1-yloxy)phenyl]acetic acid

> <ALOGPS_LOGP>
3.01

> <JCHEM_LOGP>
2.788617339333333

> <ALOGPS_LOGS>
-2.90

> <JCHEM_MDDR_LIKE_RULE>
0

> <JCHEM_NUMBER_OF_RINGS>
1

> <JCHEM_PHYSIOLOGICAL_CHARGE>
-1

> <JCHEM_PKA_STRONGEST_ACIDIC>
3.705692735266783

> <JCHEM_PKA_STRONGEST_BASIC>
-4.913613057291896

> <JCHEM_POLAR_SURFACE_AREA>
46.53

> <JCHEM_REFRACTIVITY>
57.79630000000001

> <JCHEM_ROTATABLE_BOND_COUNT>
5

> <JCHEM_RULE_OF_FIVE>
1

> <ALOGPS_SOLUBILITY>
2.88e-01 g/l

> <JCHEM_TRADITIONAL_IUPAC>
mervan

> <JCHEM_VEBER_RULE>
0

> <DRUGBANK_ID>
DB13167

> <DRUG_GROUPS>
approved; withdrawn

> <GENERIC_NAME>
Alclofenac

> <SYNONYMS>
(4-Allyloxy-3-chlorphenyl)essigsäure; [4-(allyloxy)-3-chlorophenyl]acetic acid; 3-Chloro-4-(2-propenyloxy)benzeneacetic acid; Alclofénac; Alclofenac; Alclofenaco; Alclofenacum; Alclophenac

> <INTERNATIONAL_BRANDS>
Allopydin; Medifenac; Mervan; Neosten; Neoston; Prinalgin; Reufenac; Zumaril

$$$$
