
  Mrv1652309191712422D          

 27 29  0  0  0  0            999 V2000
   -2.1434    3.7125    0.0000 C   0  0  0  0  0  0  0  0  0  0  0  0
   -0.7145    3.7125    0.0000 C   0  0  0  0  0  0  0  0  0  0  0  0
    4.2868    3.3000    0.0000 C   0  0  0  0  0  0  0  0  0  0  0  0
   -1.4289    2.4750    0.0000 C   0  0  0  0  0  0  0  0  0  0  0  0
    2.8579    0.8250    0.0000 C   0  0  0  0  0  0  0  0  0  0  0  0
    2.1434    2.0625    0.0000 C   0  0  0  0  0  0  0  0  0  0  0  0
    3.5724    1.2375    0.0000 C   0  0  0  0  0  0  0  0  0  0  0  0
    2.8579    2.4750    0.0000 C   0  0  0  0  0  0  0  0  0  0  0  0
   -0.7145    2.0625    0.0000 C   0  0  0  0  0  0  0  0  0  0  0  0
   -1.4289   -0.0000    0.0000 C   0  0  0  0  0  0  0  0  0  0  0  0
   -1.4289    3.3000    0.0000 C   0  0  0  0  0  0  0  0  0  0  0  0
    2.1434    1.2375    0.0000 C   0  0  0  0  0  0  0  0  0  0  0  0
    3.5724    2.0625    0.0000 C   0  0  0  0  0  0  0  0  0  0  0  0
   -0.7145    1.2375    0.0000 C   0  0  0  0  0  0  0  0  0  0  0  0
   -1.4289    0.8250    0.0000 C   0  0  0  0  0  0  0  0  0  0  0  0
   -0.7145   -0.4125    0.0000 C   0  0  0  0  0  0  0  0  0  0  0  0
    0.0000    0.0000    0.0000 C   0  0  0  0  0  0  0  0  0  0  0  0
    0.7145   -0.4125    0.0000 C   0  0  0  0  0  0  0  0  0  0  0  0
    1.4289    0.0000    0.0000 C   0  0  0  0  0  0  0  0  0  0  0  0
    1.4289    0.8250    0.0000 C   0  0  0  0  0  0  0  0  0  0  0  0
    0.0000    0.8250    0.0000 C   0  0  0  0  0  0  0  0  0  0  0  0
   -2.1434    1.2375    0.0000 O   0  0  0  0  0  0  0  0  0  0  0  0
   -0.7145   -1.2375    0.0000 O   0  0  0  0  0  0  0  0  0  0  0  0
    0.7145   -1.2375    0.0000 O   0  0  0  0  0  0  0  0  0  0  0  0
    2.1434   -0.4125    0.0000 O   0  0  0  0  0  0  0  0  0  0  0  0
    4.2868    2.4750    0.0000 O   0  0  0  0  0  0  0  0  0  0  0  0
    0.7145    1.2375    0.0000 O   0  0  0  0  0  0  0  0  0  0  0  0
  7  5  1  0  0  0  0
  8  6  2  0  0  0  0
  9  4  1  0  0  0  0
 11  1  1  0  0  0  0
 11  2  1  0  0  0  0
 11  4  2  0  0  0  0
 12  5  2  0  0  0  0
 12  6  1  0  0  0  0
 13  7  2  0  0  0  0
 13  8  1  0  0  0  0
 14  9  1  0  0  0  0
 15 10  2  0  0  0  0
 15 14  1  0  0  0  0
 16 10  1  0  0  0  0
 17 16  2  0  0  0  0
 18 17  1  0  0  0  0
 19 18  1  0  0  0  0
 20 12  1  0  0  0  0
 20 19  2  0  0  0  0
 21 14  2  0  0  0  0
 21 17  1  0  0  0  0
 22 15  1  0  0  0  0
 23 16  1  0  0  0  0
 24 18  2  0  0  0  0
 25 19  1  0  0  0  0
 26  3  1  0  0  0  0
 26 13  1  0  0  0  0
 27 20  1  0  0  0  0
 27 21  1  0  0  0  0
M  END
> <DATABASE_ID>
DB12672

> <DATABASE_NAME>
drugbank

> <SMILES>
COC1=CC=C(C=C1)C1=C(O)C(=O)C2=C(O)C=C(O)C(CC=C(C)C)=C2O1

> <INCHI_IDENTIFIER>
InChI=1S/C21H20O6/c1-11(2)4-9-14-15(22)10-16(23)17-18(24)19(25)20(27-21(14)17)12-5-7-13(26-3)8-6-12/h4-8,10,22-23,25H,9H2,1-3H3

> <INCHI_KEY>
TUUXBSASAQJECY-UHFFFAOYSA-N

> <FORMULA>
C21H20O6

> <MOLECULAR_WEIGHT>
368.385

> <EXACT_MASS>
368.125988364

> <JCHEM_ACCEPTOR_COUNT>
6

> <JCHEM_ATOM_COUNT>
47

> <JCHEM_AVERAGE_POLARIZABILITY>
38.76948234345778

> <JCHEM_BIOAVAILABILITY>
1

> <JCHEM_DONOR_COUNT>
3

> <JCHEM_FORMAL_CHARGE>
0

> <JCHEM_GHOSE_FILTER>
1

> <JCHEM_IUPAC>
3,5,7-trihydroxy-2-(4-methoxyphenyl)-8-(3-methylbut-2-en-1-yl)-4H-chromen-4-one

> <ALOGPS_LOGP>
3.86

> <JCHEM_LOGP>
4.334325841

> <ALOGPS_LOGS>
-4.65

> <JCHEM_MDDR_LIKE_RULE>
0

> <JCHEM_NUMBER_OF_RINGS>
3

> <JCHEM_PHYSIOLOGICAL_CHARGE>
-1

> <JCHEM_PKA>
7.9202574242642685

> <JCHEM_PKA_STRONGEST_ACIDIC>
6.21761618751669

> <JCHEM_PKA_STRONGEST_BASIC>
-3.7617509690299906

> <JCHEM_POLAR_SURFACE_AREA>
96.22000000000001

> <JCHEM_REFRACTIVITY>
103.60639999999998

> <JCHEM_ROTATABLE_BOND_COUNT>
4

> <JCHEM_RULE_OF_FIVE>
1

> <ALOGPS_SOLUBILITY>
8.21e-03 g/l

> <JCHEM_TRADITIONAL_IUPAC>
3,5,7-trihydroxy-2-(4-methoxyphenyl)-8-(3-methylbut-2-en-1-yl)chromen-4-one

> <JCHEM_VEBER_RULE>
0

> <DRUGBANK_ID>
DB12672

> <DRUG_GROUPS>
investigational

> <GENERIC_NAME>
Icaritin

$$$$
