
  Mrv1652307051704082D          

  5  4  0  0  0  0            999 V2000
    0.7146    0.2062    0.0000 As  0  0  0  0  0  0  0  0  0  0  0  0
   -0.7146    0.2062    0.0000 As  0  0  0  0  0  0  0  0  0  0  0  0
    0.0000   -0.2062    0.0000 O   0  0  0  0  0  0  0  0  0  0  0  0
    1.4290   -0.2062    0.0000 O   0  0  0  0  0  0  0  0  0  0  0  0
   -1.4290   -0.2062    0.0000 O   0  0  0  0  0  0  0  0  0  0  0  0
  1  3  1  0  0  0  0
  1  4  2  0  0  0  0
  2  3  1  0  0  0  0
  2  5  2  0  0  0  0
M  END
> <DATABASE_ID>
DB01169

> <DATABASE_NAME>
drugbank

> <SMILES>
O=[As]O[As]=O

> <INCHI_IDENTIFIER>
InChI=1S/As2O3/c3-1-5-2-4

> <INCHI_KEY>
IKWTVSLWAPBBKU-UHFFFAOYSA-N

> <FORMULA>
As2O3

> <MOLECULAR_WEIGHT>
197.84

> <EXACT_MASS>
197.827934

> <JCHEM_ACCEPTOR_COUNT>
2

> <JCHEM_ATOM_COUNT>
5

> <JCHEM_AVERAGE_POLARIZABILITY>
6.9058351056406195

> <JCHEM_BIOAVAILABILITY>
1

> <JCHEM_DONOR_COUNT>
0

> <JCHEM_FORMAL_CHARGE>
0

> <JCHEM_GHOSE_FILTER>
0

> <JCHEM_IUPAC>
diarsorosooxidane

> <JCHEM_LOGP>
1.0684

> <JCHEM_MDDR_LIKE_RULE>
0

> <JCHEM_NUMBER_OF_RINGS>
0

> <JCHEM_PHYSIOLOGICAL_CHARGE>
0

> <JCHEM_PKA_STRONGEST_BASIC>
-6.0420726203634265

> <JCHEM_POLAR_SURFACE_AREA>
43.370000000000005

> <JCHEM_REFRACTIVITY>
4.236

> <JCHEM_ROTATABLE_BOND_COUNT>
2

> <JCHEM_RULE_OF_FIVE>
1

> <JCHEM_TRADITIONAL_IUPAC>
arsenic trioxide

> <JCHEM_VEBER_RULE>
0

> <DRUGBANK_ID>
DB01169

> <SECONDARY_ACCESSION_NUMBERS>
APRD00171

> <DRUG_GROUPS>
approved; investigational

> <GENERIC_NAME>
Arsenic trioxide

> <SYNONYMS>
Acide Arsenieux; Anhydride Arsenieux; Arsenic Blanc; Arsenic oxide; Arsenic trioxide; Arsenic(III) oxide; arsénico trióxido; Arsenigen Saure; Arsenolite; Arsenous oxide; Arsenous oxide anhydride; Diarsenic oxide; Diarsenic trioxide; White arsenic

> <PRODUCTS>
Arsenic Trioxide; Arsenic Trioxide Accord; Arsenic Trioxide Medac; Arsenic Trioxide Mylan; Arsenic Trioxide Solution for Injection; Arsenic Trioxide for Injection; Arsenic trioxide; Teva-arsenic Trioxide for Injection; Trisenox

$$$$
