
  Mrv1572004221604452D          

 43 45  0  0  0  0            999 V2000
   -8.0491   -2.6297    0.0000 C   0  0  0  0  0  0  0  0  0  0  0  0
   -7.8355    0.2202    0.0000 C   0  0  0  0  0  0  0  0  0  0  0  0
    6.8917    1.7312    0.0000 C   0  0  0  0  0  0  0  0  0  0  0  0
    5.4627   -0.7438    0.0000 C   0  0  0  0  0  0  0  0  0  0  0  0
   -8.3003   -0.4614    0.0000 C   0  0  0  0  0  0  0  0  0  0  0  0
    6.8917    0.9062    0.0000 C   0  0  0  0  0  0  0  0  0  0  0  0
   -1.7230    1.9528    0.0000 C   0  0  0  0  0  0  0  0  0  0  0  0
   -2.8994   -0.1497    0.0000 C   0  0  0  0  0  0  0  0  0  0  0  0
    1.1759    1.7312    0.0000 C   0  0  0  0  0  0  0  0  0  0  0  0
   -2.0244    1.1848    0.0000 C   0  0  0  0  0  0  0  0  0  0  0  0
   -0.9347    2.1959    0.0000 C   0  0  0  0  0  0  0  0  0  0  0  0
   -2.0767   -0.2113    0.0000 C   0  0  0  0  0  0  0  0  0  0  0  0
    0.4614    2.1437    0.0000 C   0  0  0  0  0  0  0  0  0  0  0  0
   -0.7962    0.3474    0.0000 C   0  0  0  0  0  0  0  0  0  0  0  0
   -0.1914    0.9085    0.0000 C   0  0  0  0  0  0  0  0  0  0  0  0
   -3.3641   -0.8313    0.0000 C   0  0  0  0  0  0  0  0  0  0  0  0
    1.8904    2.1437    0.0000 C   0  0  0  0  0  0  0  0  0  0  0  0
   -5.9390   -2.0713    0.0000 C   0  0  0  0  0  0  0  0  0  0  0  0
   -5.8322   -0.6464    0.0000 C   0  0  0  0  0  0  0  0  0  0  0  0
    4.7483    2.1437    0.0000 C   0  0  0  0  0  0  0  0  0  0  0  0
    4.0338    0.9062    0.0000 C   0  0  0  0  0  0  0  0  0  0  0  0
   -5.4742   -1.3897    0.0000 C   0  0  0  0  0  0  0  0  0  0  0  0
    4.0338    1.7312    0.0000 C   0  0  0  0  0  0  0  0  0  0  0  0
   -6.7617   -2.0097    0.0000 C   0  0  0  0  0  0  0  0  0  0  0  0
   -6.6549   -0.5847    0.0000 C   0  0  0  0  0  0  0  0  0  0  0  0
    5.4627    1.7312    0.0000 C   0  0  0  0  0  0  0  0  0  0  0  0
    4.7483    0.4937    0.0000 C   0  0  0  0  0  0  0  0  0  0  0  0
   -7.1196   -1.2664    0.0000 C   0  0  0  0  0  0  0  0  0  0  0  0
    5.4627    0.9062    0.0000 C   0  0  0  0  0  0  0  0  0  0  0  0
   -4.6515   -1.4513    0.0000 C   0  0  0  0  0  0  0  0  0  0  0  0
    3.3193    2.1437    0.0000 C   0  0  0  0  0  0  0  0  0  0  0  0
   -1.6119    0.4703    0.0000 N   0  0  0  0  0  0  0  0  0  0  0  0
   -0.2530    1.7312    0.0000 N   0  0  0  0  0  0  0  0  0  0  0  0
   -4.2936   -2.1946    0.0000 O   0  0  0  0  0  0  0  0  0  0  0  0
    3.3193    2.9687    0.0000 O   0  0  0  0  0  0  0  0  0  0  0  0
   -7.2264   -2.6913    0.0000 O   0  0  0  0  0  0  0  0  0  0  0  0
   -7.0128    0.1586    0.0000 O   0  0  0  0  0  0  0  0  0  0  0  0
    6.1772    2.1437    0.0000 O   0  0  0  0  0  0  0  0  0  0  0  0
    4.7483   -0.3313    0.0000 O   0  0  0  0  0  0  0  0  0  0  0  0
   -7.9423   -1.2047    0.0000 O   0  0  0  0  0  0  0  0  0  0  0  0
    6.1772    0.4937    0.0000 O   0  0  0  0  0  0  0  0  0  0  0  0
   -4.1868   -0.7697    0.0000 O   0  0  0  0  0  0  0  0  0  0  0  0
    2.6048    1.7312    0.0000 O   0  0  0  0  0  0  0  0  0  0  0  0
 10  7  1  0  0  0  0
 11  7  1  0  0  0  0
 12  8  1  0  0  0  0
 13  9  1  0  0  0  0
 15 14  1  0  0  0  0
 16  8  1  0  0  0  0
 17  9  1  0  0  0  0
 22 18  2  0  0  0  0
 22 19  1  0  0  0  0
 23 20  2  0  0  0  0
 23 21  1  0  0  0  0
 24 18  1  0  0  0  0
 25 19  2  0  0  0  0
 26 20  1  0  0  0  0
 27 21  2  0  0  0  0
 28 24  2  0  0  0  0
 28 25  1  0  0  0  0
 29 26  2  0  0  0  0
 29 27  1  0  0  0  0
 30 22  1  0  0  0  0
 31 23  1  0  0  0  0
 32 10  1  0  0  0  0
 32 12  1  0  0  0  0
 32 14  1  0  0  0  0
 33 11  1  0  0  0  0
 33 13  1  0  0  0  0
 33 15  1  0  0  0  0
 34 30  2  0  0  0  0
 35 31  2  0  0  0  0
 36  1  1  0  0  0  0
 36 24  1  0  0  0  0
 37  2  1  0  0  0  0
 37 25  1  0  0  0  0
 38  3  1  0  0  0  0
 38 26  1  0  0  0  0
 39  4  1  0  0  0  0
 39 27  1  0  0  0  0
 40  5  1  0  0  0  0
 40 28  1  0  0  0  0
 41  6  1  0  0  0  0
 41 29  1  0  0  0  0
 42 16  1  0  0  0  0
 42 30  1  0  0  0  0
 43 17  1  0  0  0  0
 43 31  1  0  0  0  0
M  END
> <DATABASE_ID>
DB13715

> <DATABASE_NAME>
drugbank

> <SMILES>
COC1=CC(=CC(OC)=C1OC)C(=O)OCCCN1CCCN(CCCOC(=O)C2=CC(OC)=C(OC)C(OC)=C2)CC1

> <INCHI_IDENTIFIER>
InChI=1S/C31H44N2O10/c1-36-24-18-22(19-25(37-2)28(24)40-5)30(34)42-16-8-12-32-10-7-11-33(15-14-32)13-9-17-43-31(35)23-20-26(38-3)29(41-6)27(21-23)39-4/h18-21H,7-17H2,1-6H3

> <INCHI_KEY>
QVZCXCJXTMIDME-UHFFFAOYSA-N

> <FORMULA>
C31H44N2O10

> <MOLECULAR_WEIGHT>
604.697

> <EXACT_MASS>
604.299595625

> <JCHEM_ACCEPTOR_COUNT>
10

> <JCHEM_ATOM_COUNT>
87

> <JCHEM_AVERAGE_POLARIZABILITY>
66.89125629116458

> <JCHEM_BIOAVAILABILITY>
0

> <JCHEM_DONOR_COUNT>
0

> <JCHEM_FORMAL_CHARGE>
0

> <JCHEM_GHOSE_FILTER>
0

> <JCHEM_IUPAC>
3-{4-[3-(3,4,5-trimethoxybenzoyloxy)propyl]-1,4-diazepan-1-yl}propyl 3,4,5-trimethoxybenzoate

> <ALOGPS_LOGP>
3.21

> <JCHEM_LOGP>
2.8815363410000012

> <ALOGPS_LOGS>
-4.08

> <JCHEM_MDDR_LIKE_RULE>
1

> <JCHEM_NUMBER_OF_RINGS>
3

> <JCHEM_PHYSIOLOGICAL_CHARGE>
1

> <JCHEM_PKA_STRONGEST_BASIC>
9.539454514012407

> <JCHEM_POLAR_SURFACE_AREA>
114.46000000000004

> <JCHEM_REFRACTIVITY>
161.64219999999997

> <JCHEM_ROTATABLE_BOND_COUNT>
18

> <JCHEM_RULE_OF_FIVE>
0

> <ALOGPS_SOLUBILITY>
5.02e-02 g/l

> <JCHEM_TRADITIONAL_IUPAC>
dilazep

> <JCHEM_VEBER_RULE>
0

> <DRUGBANK_ID>
DB13715

> <DRUG_GROUPS>
experimental

> <GENERIC_NAME>
Dilazep

> <SYNONYMS>
Dilazep

$$$$
