
  Mrv1652310201622402D          

 34 37  0  0  0  0            999 V2000
    1.4289   -2.4750    0.0000 C   0  0  0  0  0  0  0  0  0  0  0  0
    0.7145   -2.8875    0.0000 C   0  0  0  0  0  0  0  0  0  0  0  0
    0.7145   -3.7125    0.0000 C   0  0  0  0  0  0  0  0  0  0  0  0
    0.0000   -4.1250    0.0000 C   0  0  0  0  0  0  0  0  0  0  0  0
   -0.7145   -3.7125    0.0000 C   0  0  0  0  0  0  0  0  0  0  0  0
   -0.7145   -2.8875    0.0000 C   0  0  0  0  0  0  0  0  0  0  0  0
    0.0000   -2.4750    0.0000 C   0  0  0  0  0  0  0  0  0  0  0  0
    0.0000   -1.6500    0.0000 N   0  0  0  0  0  0  0  0  0  0  0  0
   -0.7145   -1.2375    0.0000 C   0  0  0  0  0  0  0  0  0  0  0  0
   -1.4289   -1.6500    0.0000 C   0  0  0  0  0  0  0  0  0  0  0  0
   -1.4289   -2.4750    0.0000 O   0  0  0  0  0  0  0  0  0  0  0  0
   -2.1434   -1.2375    0.0000 N   0  0  0  0  0  0  0  0  0  0  0  0
   -2.8579   -1.6500    0.0000 C   0  0  0  0  0  0  0  0  0  0  0  0
   -2.8579   -2.4750    0.0000 C   0  0  0  0  0  0  0  0  0  0  0  0
   -3.5724   -2.8875    0.0000 C   0  0  0  0  0  0  0  0  0  0  0  0
   -4.2868   -2.4750    0.0000 C   0  0  0  0  0  0  0  0  0  0  0  0
   -4.2868   -1.6500    0.0000 C   0  0  0  0  0  0  0  0  0  0  0  0
   -3.5724   -1.2375    0.0000 C   0  0  0  0  0  0  0  0  0  0  0  0
   -5.0013   -2.8875    0.0000 C   0  0  0  0  0  0  0  0  0  0  0  0
   -5.0875   -3.7080    0.0000 N   0  0  0  0  0  0  0  0  0  0  0  0
   -5.8945   -3.8795    0.0000 C   0  0  0  0  0  0  0  0  0  0  0  0
   -6.3070   -3.1650    0.0000 O   0  0  0  0  0  0  0  0  0  0  0  0
   -5.7550   -2.5519    0.0000 N   0  0  0  0  0  0  0  0  0  0  0  0
    0.7145   -1.2375    0.0000 C   0  0  0  0  0  0  0  0  0  0  0  0
    1.4289   -1.6500    0.0000 O   0  0  0  0  0  0  0  0  0  0  0  0
    0.7145   -0.4125    0.0000 C   0  0  0  0  0  0  0  0  0  0  0  0
    0.0000   -0.0000    0.0000 C   0  0  0  0  0  0  0  0  0  0  0  0
    0.0000    0.8250    0.0000 C   0  0  0  0  0  0  0  0  0  0  0  0
    0.7145    1.2375    0.0000 S   0  0  0  0  0  0  0  0  0  0  0  0
    0.1842    1.8695    0.0000 O   0  0  0  0  0  0  0  0  0  0  0  0
    1.2448    1.8695    0.0000 O   0  0  0  0  0  0  0  0  0  0  0  0
    1.4289    0.8250    0.0000 C   0  0  0  0  0  0  0  0  0  0  0  0
    1.4289    0.0000    0.0000 C   0  0  0  0  0  0  0  0  0  0  0  0
   -1.5350   -2.9737    0.0000 C   0  0  0  0  0  0  0  0  0  0  0  0
  1  2  1  0  0  0  0
  2  3  2  0  0  0  0
  3  4  1  0  0  0  0
  4  5  2  0  0  0  0
  5  6  1  0  0  0  0
  6  7  2  0  0  0  0
  2  7  1  0  0  0  0
  7  8  1  0  0  0  0
  8  9  1  0  0  0  0
  9 10  1  0  0  0  0
 10 11  2  0  0  0  0
 10 12  1  0  0  0  0
 12 13  1  0  0  0  0
 13 14  2  0  0  0  0
 14 15  1  0  0  0  0
 15 16  2  0  0  0  0
 16 17  1  0  0  0  0
 17 18  2  0  0  0  0
 13 18  1  0  0  0  0
 16 19  1  0  0  0  0
 19 20  1  0  0  0  0
 20 21  2  0  0  0  0
 21 22  1  0  0  0  0
 22 23  1  0  0  0  0
 19 23  2  0  0  0  0
  8 24  1  0  0  0  0
 24 25  2  0  0  0  0
 24 26  1  0  0  0  0
 26 27  1  0  0  0  0
 27 28  1  0  0  0  0
 28 29  1  0  0  0  0
 29 30  2  0  0  0  0
 29 31  2  0  0  0  0
 29 32  1  0  0  0  0
 32 33  1  0  0  0  0
 26 33  1  0  0  0  0
  6 34  1  0  0  0  0
M  END
> <DATABASE_ID>
DB11701

> <DATABASE_NAME>
drugbank

> <SMILES>
CC1=CC=CC(C)=C1N(CC(=O)NC1=CC=C(C=C1)C1=NOC=N1)C(=O)C1CCS(=O)(=O)CC1

> <INCHI_IDENTIFIER>
InChI=1S/C24H26N4O5S/c1-16-4-3-5-17(2)22(16)28(24(30)19-10-12-34(31,32)13-11-19)14-21(29)26-20-8-6-18(7-9-20)23-25-15-33-27-23/h3-9,15,19H,10-14H2,1-2H3,(H,26,29)

> <INCHI_KEY>
MNHNIVNAFBSLLX-UHFFFAOYSA-N

> <FORMULA>
C24H26N4O5S

> <MOLECULAR_WEIGHT>
482.56

> <EXACT_MASS>
482.162391127

> <JCHEM_ACCEPTOR_COUNT>
6

> <JCHEM_ATOM_COUNT>
60

> <JCHEM_AVERAGE_POLARIZABILITY>
49.338306503650735

> <JCHEM_BIOAVAILABILITY>
1

> <JCHEM_DONOR_COUNT>
1

> <JCHEM_FORMAL_CHARGE>
0

> <JCHEM_GHOSE_FILTER>
0

> <JCHEM_IUPAC>
2-[N-(2,6-dimethylphenyl)-1-(1,1-dioxo-1lambda6-thian-4-yl)formamido]-N-[4-(1,2,4-oxadiazol-3-yl)phenyl]acetamide

> <ALOGPS_LOGP>
2.03

> <JCHEM_LOGP>
2.6129528906666657

> <ALOGPS_LOGS>
-3.59

> <JCHEM_MDDR_LIKE_RULE>
1

> <JCHEM_NUMBER_OF_RINGS>
4

> <JCHEM_PHYSIOLOGICAL_CHARGE>
0

> <JCHEM_PKA>
13.463931546028778

> <JCHEM_PKA_STRONGEST_ACIDIC>
12.186671852548661

> <JCHEM_PKA_STRONGEST_BASIC>
-2.007146550059687

> <JCHEM_POLAR_SURFACE_AREA>
122.47

> <JCHEM_REFRACTIVITY>
140.6136

> <JCHEM_ROTATABLE_BOND_COUNT>
6

> <JCHEM_RULE_OF_FIVE>
1

> <ALOGPS_SOLUBILITY>
1.23e-01 g/l

> <JCHEM_TRADITIONAL_IUPAC>
2-[N-(2,6-dimethylphenyl)-1-(1,1-dioxo-1lambda6-thian-4-yl)formamido]-N-[4-(1,2,4-oxadiazol-3-yl)phenyl]acetamide

> <JCHEM_VEBER_RULE>
0

> <DRUGBANK_ID>
DB11701

> <DRUG_GROUPS>
investigational

> <GENERIC_NAME>
Amenamevir

> <SYNONYMS>
Amenamevir

$$$$
