
  Mrv1652306231722432D          

 14 15  0  0  0  0            999 V2000
   -0.2549    0.7846    0.0000 C   0  0  0  0  0  0  0  0  0  0  0  0
   -0.0000   -0.0000    0.0000 N   0  0  0  0  0  0  0  0  0  0  0  0
   -0.4849   -0.6674    0.0000 C   0  0  0  0  0  0  0  0  0  0  0  0
   -1.3099   -0.6674    0.0000 O   0  0  0  0  0  0  0  0  0  0  0  0
   -0.0000   -1.3349    0.0000 N   0  0  0  0  0  0  0  0  0  0  0  0
    0.7846   -1.0799    0.0000 C   0  0  2  0  0  0  0  0  0  0  0  0
    0.7846   -0.2549    0.0000 C   0  0  1  0  0  0  0  0  0  0  0  0
    1.5692    0.0000    0.0000 N   0  0  0  0  0  0  0  0  0  0  0  0
    2.0542   -0.6674    0.0000 C   0  0  0  0  0  0  0  0  0  0  0  0
    2.8792   -0.6674    0.0000 O   0  0  0  0  0  0  0  0  0  0  0  0
    1.5692   -1.3349    0.0000 N   0  0  0  0  0  0  0  0  0  0  0  0
    1.8242   -2.1195    0.0000 C   0  0  0  0  0  0  0  0  0  0  0  0
    1.8242    0.7846    0.0000 C   0  0  0  0  0  0  0  0  0  0  0  0
   -0.2549   -2.1195    0.0000 C   0  0  0  0  0  0  0  0  0  0  0  0
  1  2  1  0  0  0  0
  2  3  1  0  0  0  0
  3  4  2  0  0  0  0
  3  5  1  0  0  0  0
  6  5  1  6  0  0  0
  6  7  1  0  0  0  0
  7  2  1  6  0  0  0
  7  8  1  0  0  0  0
  8  9  1  0  0  0  0
  9 10  2  0  0  0  0
  9 11  1  0  0  0  0
  6 11  1  0  0  0  0
 11 12  1  0  0  0  0
  8 13  1  0  0  0  0
  5 14  1  0  0  0  0
M  END
> <DATABASE_ID>
DB13522

> <DATABASE_NAME>
drugbank

> <SMILES>
CN1[C@H]2[C@@H](N(C)C1=O)N(C)C(=O)N2C

> <INCHI_IDENTIFIER>
InChI=1S/C8H14N4O2/c1-9-5-6(11(3)7(9)13)12(4)8(14)10(5)2/h5-6H,1-4H3/t5-,6+

> <INCHI_KEY>
XIUUSFJTJXFNGH-OLQVQODUSA-N

> <FORMULA>
C8H14N4O2

> <MOLECULAR_WEIGHT>
198.226

> <EXACT_MASS>
198.111675707

> <JCHEM_ACCEPTOR_COUNT>
2

> <JCHEM_ATOM_COUNT>
28

> <JCHEM_AVERAGE_POLARIZABILITY>
19.837958438698085

> <JCHEM_BIOAVAILABILITY>
1

> <JCHEM_DONOR_COUNT>
0

> <JCHEM_FORMAL_CHARGE>
0

> <JCHEM_GHOSE_FILTER>
0

> <JCHEM_IUPAC>
(3as,6as)-1,3,4,6-tetramethyl-octahydro-[1,3]diazolo[4,5-d]imidazole-2,5-dione

> <ALOGPS_LOGP>
-0.74

> <JCHEM_LOGP>
-0.8010778873333333

> <ALOGPS_LOGS>
0.09

> <JCHEM_MDDR_LIKE_RULE>
0

> <JCHEM_NUMBER_OF_RINGS>
2

> <JCHEM_PHYSIOLOGICAL_CHARGE>
0

> <JCHEM_PKA_STRONGEST_BASIC>
-2.7069807860905675

> <JCHEM_POLAR_SURFACE_AREA>
47.10000000000001

> <JCHEM_REFRACTIVITY>
49.027

> <JCHEM_ROTATABLE_BOND_COUNT>
0

> <JCHEM_RULE_OF_FIVE>
1

> <ALOGPS_SOLUBILITY>
2.44e+02 g/l

> <JCHEM_TRADITIONAL_IUPAC>
(3as,6as)-1,3,4,6-tetramethyl-dihydro-[1,3]diazolo[4,5-d]imidazole-2,5-dione

> <JCHEM_VEBER_RULE>
0

> <DRUGBANK_ID>
DB13522

> <DRUG_GROUPS>
experimental

> <GENERIC_NAME>
Mebicar

> <SYNONYMS>
Tetramethylglycoluril

$$$$
