
  Mrv1909 05201915062D          

 31 34  0  0  0  0            999 V2000
   -0.4366   -0.0605    0.0000 C   0  0  0  0  0  0  0  0  0  0  0  0
    0.2779   -0.4730    0.0000 C   0  0  0  0  0  0  0  0  0  0  0  0
    0.9923   -0.0605    0.0000 C   0  0  0  0  0  0  0  0  0  0  0  0
    0.2779   -1.2980    0.0000 N   0  0  0  0  0  0  0  0  0  0  0  0
    0.9923   -1.7105    0.0000 C   0  0  0  0  0  0  0  0  0  0  0  0
    0.9923   -2.5355    0.0000 C   0  0  0  0  0  0  0  0  0  0  0  0
    0.2779   -2.9480    0.0000 C   0  0  0  0  0  0  0  0  0  0  0  0
   -0.4366   -2.5355    0.0000 C   0  0  0  0  0  0  0  0  0  0  0  0
   -0.4366   -1.7105    0.0000 C   0  0  0  0  0  0  0  0  0  0  0  0
    0.2779   -3.7730    0.0000 N   0  0  0  0  0  0  0  0  0  0  0  0
    1.0212   -4.1310    0.0000 C   0  0  0  0  0  0  0  0  0  0  0  0
    1.2047   -4.9353    0.0000 C   0  0  0  0  0  0  0  0  0  0  0  0
    0.6904   -5.5803    0.0000 C   0  0  0  0  0  0  0  0  0  0  0  0
   -0.1346   -5.5803    0.0000 N   0  0  0  0  0  0  0  0  0  0  0  0
   -0.6490   -4.9353    0.0000 C   0  0  0  0  0  0  0  0  0  0  0  0
   -0.4654   -4.1310    0.0000 C   0  0  0  0  0  0  0  0  0  0  0  0
   -0.4926   -6.3236    0.0000 C   0  0  0  0  0  0  0  0  0  0  0  0
   -0.0279   -7.0052    0.0000 C   0  0  0  0  0  0  0  0  0  0  0  0
   -0.3858   -7.7485    0.0000 C   0  0  0  0  0  0  0  0  0  0  0  0
   -1.2085   -7.8102    0.0000 C   0  0  0  0  0  0  0  0  0  0  0  0
   -1.6732   -7.1285    0.0000 C   0  0  0  0  0  0  0  0  0  0  0  0
   -1.3153   -6.3852    0.0000 N   0  0  0  0  0  0  0  0  0  0  0  0
   -2.4959   -7.1902    0.0000 C   0  0  0  0  0  0  0  0  0  0  0  0
   -2.9607   -6.5085    0.0000 O   0  0  0  0  0  0  0  0  0  0  0  0
   -2.8539   -7.9335    0.0000 N   0  0  0  0  0  0  0  0  0  0  0  0
   -3.6766   -7.9951    0.0000 C   0  0  0  0  0  0  0  0  0  0  0  0
   -4.0345   -8.7384    0.0000 C   0  0  0  0  0  0  0  0  0  0  0  0
   -4.8572   -8.8001    0.0000 C   0  0  0  0  0  0  0  0  0  0  0  0
   -5.3220   -8.1185    0.0000 N   0  0  0  0  0  0  0  0  0  0  0  0
   -4.9640   -7.3752    0.0000 C   0  0  0  0  0  0  0  0  0  0  0  0
   -4.1413   -7.3135    0.0000 C   0  0  0  0  0  0  0  0  0  0  0  0
  1  2  1  0  0  0  0
  2  3  1  0  0  0  0
  2  4  1  0  0  0  0
  4  5  1  0  0  0  0
  5  6  1  0  0  0  0
  6  7  1  0  0  0  0
  7  8  1  0  0  0  0
  8  9  1  0  0  0  0
  4  9  1  0  0  0  0
  7 10  1  0  0  0  0
 10 11  1  0  0  0  0
 11 12  1  0  0  0  0
 12 13  1  0  0  0  0
 13 14  1  0  0  0  0
 14 15  1  0  0  0  0
 15 16  1  0  0  0  0
 10 16  1  0  0  0  0
 14 17  1  0  0  0  0
 17 18  2  0  0  0  0
 18 19  1  0  0  0  0
 19 20  2  0  0  0  0
 20 21  1  0  0  0  0
 21 22  2  0  0  0  0
 17 22  1  0  0  0  0
 21 23  1  0  0  0  0
 23 24  2  0  0  0  0
 23 25  1  0  0  0  0
 25 26  1  0  0  0  0
 26 27  2  0  0  0  0
 27 28  1  0  0  0  0
 28 29  2  0  0  0  0
 29 30  1  0  0  0  0
 30 31  2  0  0  0  0
 26 31  1  0  0  0  0
M  END
> <DATABASE_ID>
DB15265

> <DATABASE_NAME>
drugbank

> <SMILES>
CC(C)N1CCC(CC1)N1CCCN(CC1)C1=CC=CC(=N1)C(=O)NC1=CC=NC=C1

> <INCHI_IDENTIFIER>
InChI=1S/C24H34N6O/c1-19(2)28-15-9-21(10-16-28)29-13-4-14-30(18-17-29)23-6-3-5-22(27-23)24(31)26-20-7-11-25-12-8-20/h3,5-8,11-12,19,21H,4,9-10,13-18H2,1-2H3,(H,25,26,31)

> <INCHI_KEY>
XNUNVQKARNSSEO-UHFFFAOYSA-N

> <FORMULA>
C24H34N6O

> <MOLECULAR_WEIGHT>
422.577

> <EXACT_MASS>
422.279409739

> <JCHEM_ACCEPTOR_COUNT>
6

> <JCHEM_ATOM_COUNT>
65

> <JCHEM_AVERAGE_POLARIZABILITY>
47.611929017613534

> <JCHEM_BIOAVAILABILITY>
1

> <JCHEM_DONOR_COUNT>
1

> <JCHEM_FORMAL_CHARGE>
0

> <JCHEM_GHOSE_FILTER>
1

> <JCHEM_IUPAC>
6-{4-[1-(propan-2-yl)piperidin-4-yl]-1,4-diazepan-1-yl}-N-(pyridin-4-yl)pyridine-2-carboxamide

> <ALOGPS_LOGP>
3.23

> <JCHEM_LOGP>
2.4254059063333333

> <ALOGPS_LOGS>
-3.60

> <JCHEM_MDDR_LIKE_RULE>
0

> <JCHEM_NUMBER_OF_RINGS>
4

> <JCHEM_PHYSIOLOGICAL_CHARGE>
2

> <JCHEM_PKA_STRONGEST_ACIDIC>
14.503338448139338

> <JCHEM_PKA_STRONGEST_BASIC>
9.516385697404868

> <JCHEM_POLAR_SURFACE_AREA>
64.6

> <JCHEM_REFRACTIVITY>
127.1818

> <JCHEM_ROTATABLE_BOND_COUNT>
5

> <JCHEM_RULE_OF_FIVE>
1

> <ALOGPS_SOLUBILITY>
1.07e-01 g/l

> <JCHEM_TRADITIONAL_IUPAC>
(2R)-14-fluoro-2-methyl-6,9,10,19-tetraazapentacyclo[14.2.1.0^{2,6}.0^{8,18}.0^{12,17}]nonadeca-1(18),8,12(17),13,15-pentaen-11-one

> <JCHEM_VEBER_RULE>
0

> <DRUGBANK_ID>
DB15265

> <DRUG_GROUPS>
investigational

> <GENERIC_NAME>
USL-311

> <SYNONYMS>
2-Pyridinecarboxamide, 6-(hexahydro-4-(1-(1-methylethyl)-4-piperidinyl)-1H-1,4-diazepin-1-yl)-N-4-pyridinyl-; 6-[4-(1-propan-2-ylpiperidin-4-yl)-1,4-diazepan-1-yl]-N-pyridin-4-ylpyridine-2-carboxamide

$$$$
