
  Mrv1909 01292018362D          

110115  0  0  0  0            999 V2000
   -0.7858    3.9863    0.0000 C   0  0  1  0  0  0  0  0  0  0  0  0
   -0.3691    4.7008    0.0000 C   0  0  2  0  0  0  0  0  0  0  0  0
   -1.6135    3.9863    0.0000 C   0  0  2  0  0  0  0  0  0  0  0  0
   -0.2263    3.0990    0.0000 O   0  0  0  0  0  0  0  0  0  0  0  0
   -0.7858    5.4094    0.0000 O   0  0  0  0  0  0  0  0  0  0  0  0
    0.4524    4.7008    0.0000 O   0  0  0  0  0  0  0  0  0  0  0  0
   -2.0184    4.7008    0.0000 C   0  0  2  0  0  0  0  0  0  0  0  0
   -2.4411    3.7303    0.0000 O   0  0  0  0  0  0  0  0  0  0  0  0
   -1.2622    1.7356    0.0000 C   0  0  1  0  0  0  0  0  0  0  0  0
   -1.6135    5.4034    0.0000 C   0  0  1  0  0  0  0  0  0  0  0  0
    1.3038    4.2661    0.0000 P   0  0  0  0  0  0  0  0  0  0  0  0
   -2.6080    5.2903    0.0000 C   0  0  0  0  0  0  0  0  0  0  0  0
   -3.0664    4.5758    0.0000 O   0  0  0  0  0  0  0  0  0  0  0  0
   -3.1199    3.3969    0.0000 C   0  0  0  0  0  0  0  0  0  0  0  0
   -1.1550    0.9257    0.0000 C   0  0  1  0  0  0  0  0  0  0  0  0
   -2.0303    2.0511    0.0000 O   0  0  0  0  0  0  0  0  0  0  0  0
   -2.0245    6.1180    0.0000 C   0  0  0  0  0  0  0  0  0  0  0  0
    2.0303    4.7604    0.0000 O   0  0  0  0  0  0  0  0  0  0  0  0
    1.2980    5.0938    0.0000 O   0  0  0  0  0  0  0  0  0  0  0  0
    1.2980    3.4444    0.0000 O   0  0  0  0  0  0  0  0  0  0  0  0
   -3.8644    3.6767    0.0000 N   0  0  0  0  0  0  0  0  0  0  0  0
   -3.1199    2.6466    0.0000 O   0  0  0  0  0  0  0  0  0  0  0  0
   -1.8100    0.4137    0.0000 C   0  0  2  0  0  0  0  0  0  0  0  0
   -0.3930    0.6103    0.0000 N   0  0  0  0  0  0  0  0  0  0  0  0
   -2.6795    1.5449    0.0000 C   0  0  1  0  0  0  0  0  0  0  0  0
   -2.8521    6.1180    0.0000 O   0  0  0  0  0  0  0  0  0  0  0  0
   -1.6135    6.8385    0.0000 O   0  0  0  0  0  0  0  0  0  0  0  0
    2.7390    4.3496    0.0000 C   0  0  0  0  0  0  0  0  0  0  0  0
   -2.5663    0.7353    0.0000 C   0  0  1  0  0  0  0  0  0  0  0  0
   -1.7029   -0.4018    0.0000 O   0  0  0  0  0  0  0  0  0  0  0  0
    0.3750    1.0388    0.0000 C   0  0  0  0  0  0  0  0  0  0  0  0
   -3.4416    1.8605    0.0000 C   0  0  0  0  0  0  0  0  0  0  0  0
    3.4475    4.7604    0.0000 C   0  0  2  0  0  0  0  0  0  0  0  0
   -3.2213   -0.4613    0.0000 O   0  0  0  0  0  0  0  0  0  0  0  0
    0.9347    0.5745    0.0000 C   0  0  0  0  0  0  0  0  0  0  0  0
    0.3989    1.8844    0.0000 O   0  0  0  0  0  0  0  0  0  0  0  0
   -4.3704    1.3484    0.0000 O   0  0  0  0  0  0  0  0  0  0  0  0
    4.1559    4.3436    0.0000 C   0  0  0  0  0  0  0  0  0  0  0  0
    3.4533    5.5821    0.0000 O   0  0  0  0  0  0  0  0  0  0  0  0
   -4.3228   -1.4262    0.0000 C   0  0  1  0  0  0  0  0  0  0  0  0
   -5.2458    1.3484    0.0000 C   0  0  2  0  0  0  0  0  0  0  0  0
    4.1559    3.5219    0.0000 O   0  0  0  0  0  0  0  0  0  0  0  0
    4.8766    4.7545    0.0000 O   0  0  0  0  0  0  0  0  0  0  0  0
   -4.3286   -2.2477    0.0000 C   0  0  1  0  0  0  0  0  0  0  0  0
   -5.0373   -1.0151    0.0000 O   0  0  0  0  0  0  0  0  0  0  0  0
   -5.6804    2.0511    0.0000 O   0  0  0  0  0  0  0  0  0  0  0  0
   -5.6388    0.6340    0.0000 C   0  0  1  0  0  0  0  0  0  0  0  0
    4.1501    2.6763    0.0000 C   0  0  0  0  0  0  0  0  0  0  0  0
   -5.0493   -2.6527    0.0000 C   0  0  2  0  0  0  0  0  0  0  0  0
   -3.6202   -2.6646    0.0000 N   0  0  0  0  0  0  0  0  0  0  0  0
   -5.7519   -1.4262    0.0000 C   0  0  1  0  0  0  0  0  0  0  0  0
   -6.5080    2.0272    0.0000 C   0  0  1  0  0  0  0  0  0  0  0  0
   -6.4664    0.5983    0.0000 C   0  0  2  0  0  0  0  0  0  0  0  0
   -5.2040   -0.0803    0.0000 O   0  0  0  0  0  0  0  0  0  0  0  0
    4.8824    2.2536    0.0000 C   0  0  0  0  0  0  0  0  0  0  0  0
   -5.7519   -2.2419    0.0000 C   0  0  1  0  0  0  0  0  0  0  0  0
   -5.0493   -3.4803    0.0000 O   0  0  0  0  0  0  0  0  0  0  0  0
   -2.8997   -2.2538    0.0000 C   0  0  0  0  0  0  0  0  0  0  0  0
   -6.4664   -1.0032    0.0000 C   0  0  0  0  0  0  0  0  0  0  0  0
   -6.8952    1.3009    0.0000 C   0  0  2  0  0  0  0  0  0  0  0  0
   -6.9427    2.7299    0.0000 C   0  0  0  0  0  0  0  0  0  0  0  0
   -6.8533   -0.1220    0.0000 O   0  0  0  0  0  0  0  0  0  0  0  0
    5.6327    2.7180    0.0000 C   0  0  0  0  0  0  0  0  0  0  0  0
   -6.7283   -2.6884    0.0000 O   0  0  0  0  0  0  0  0  0  0  0  0
   -2.1911   -2.6764    0.0000 C   0  0  0  0  0  0  0  0  0  0  0  0
   -2.8937   -1.4320    0.0000 O   0  0  0  0  0  0  0  0  0  0  0  0
   -7.7168    1.2772    0.0000 O   0  0  0  0  0  0  0  0  0  0  0  0
   -6.5498    3.4504    0.0000 O   0  0  0  0  0  0  0  0  0  0  0  0
    6.3234    2.2713    0.0000 C   0  0  0  0  0  0  0  0  0  0  0  0
   -7.5501   -2.6884    0.0000 C   0  0  2  0  0  0  0  0  0  0  0  0
    7.0379    2.6883    0.0000 C   0  0  0  0  0  0  0  0  0  0  0  0
    6.3294    1.4556    0.0000 C   0  0  0  0  0  0  0  0  0  0  0  0
   -7.9668   -3.3969    0.0000 O   0  0  0  0  0  0  0  0  0  0  0  0
   -7.9668   -1.9738    0.0000 C   0  0  1  0  0  0  0  0  0  0  0  0
    7.7525    2.2775    0.0000 C   0  0  0  0  0  0  0  0  0  0  0  0
   -8.7946   -3.3910    0.0000 C   0  0  2  0  0  0  0  0  0  0  0  0
   -8.7946   -1.9678    0.0000 C   0  0  2  0  0  0  0  0  0  0  0  0
   -7.5501   -1.2593    0.0000 O   0  0  0  0  0  0  0  0  0  0  0  0
    8.4610    2.6943    0.0000 C   0  0  0  0  0  0  0  0  0  0  0  0
   -9.2113   -4.1056    0.0000 C   0  0  0  0  0  0  0  0  0  0  0  0
   -9.1994   -2.6764    0.0000 C   0  0  1  0  0  0  0  0  0  0  0  0
   -9.1994   -1.2474    0.0000 O   0  0  0  0  0  0  0  0  0  0  0  0
    9.1755    2.2893    0.0000 C   0  0  0  0  0  0  0  0  0  0  0  0
   -8.8065   -4.8140    0.0000 N   0  0  0  0  0  0  0  0  0  0  0  0
  -10.0390   -4.0995    0.0000 O   0  0  0  0  0  0  0  0  0  0  0  0
  -10.0270   -2.6764    0.0000 O   0  0  0  0  0  0  0  0  0  0  0  0
    9.8843    2.7001    0.0000 C   0  0  0  0  0  0  0  0  0  0  0  0
   -9.2232   -5.5286    0.0000 C   0  0  0  0  0  0  0  0  0  0  0  0
   10.5988    2.2893    0.0000 C   0  0  0  0  0  0  0  0  0  0  0  0
    9.3008    3.2836    0.0000 C   0  0  0  0  0  0  0  0  0  0  0  0
   10.5988    3.1169    0.0000 C   0  0  0  0  0  0  0  0  0  0  0  0
  -10.0450   -5.6179    0.0000 C   0  0  0  0  0  0  0  0  0  0  0  0
   -8.8958   -6.2908    0.0000 C   0  0  0  0  0  0  0  0  0  0  0  0
   10.5927    1.4617    0.0000 C   0  0  0  0  0  0  0  0  0  0  0  0
  -10.2236   -6.4219    0.0000 C   0  0  0  0  0  0  0  0  0  0  0  0
  -10.5988   -5.0046    0.0000 O   0  0  0  0  0  0  0  0  0  0  0  0
   -9.5089   -6.8385    0.0000 C   0  0  0  0  0  0  0  0  0  0  0  0
   -8.0920   -6.4754    0.0000 O   0  0  0  0  0  0  0  0  0  0  0  0
    9.8781    1.0568    0.0000 C   0  0  0  0  0  0  0  0  0  0  0  0
    9.8781    0.2292    0.0000 C   0  0  0  0  0  0  0  0  0  0  0  0
    9.1697    1.4676    0.0000 C   0  0  0  0  0  0  0  0  0  0  0  0
    9.1578   -0.1817    0.0000 C   0  0  0  0  0  0  0  0  0  0  0  0
    9.1578   -0.9974    0.0000 C   0  0  0  0  0  0  0  0  0  0  0  0
    8.4373   -1.4082    0.0000 C   0  0  0  0  0  0  0  0  0  0  0  0
    9.8663   -1.4200    0.0000 C   0  0  0  0  0  0  0  0  0  0  0  0
    8.4313   -2.2359    0.0000 C   0  0  0  0  0  0  0  0  0  0  0  0
    7.7109   -2.6466    0.0000 C   0  0  0  0  0  0  0  0  0  0  0  0
    6.9963   -2.2299    0.0000 C   0  0  0  0  0  0  0  0  0  0  0  0
    6.2818   -2.6466    0.0000 C   0  0  0  0  0  0  0  0  0  0  0  0
    6.9963   -1.4082    0.0000 C   0  0  0  0  0  0  0  0  0  0  0  0
  1  2  1  0  0  0  0
  1  3  1  0  0  0  0
  1  4  1  6  0  0  0
  2  5  1  0  0  0  0
  2  6  1  6  0  0  0
  3  7  1  0  0  0  0
  3  8  1  1  0  0  0
  9  4  1  1  0  0  0
  5 10  1  0  0  0  0
  6 11  1  0  0  0  0
  7 12  1  1  0  0  0
  7 13  1  6  0  0  0
  8 14  1  0  0  0  0
  9 15  1  0  0  0  0
  9 16  1  0  0  0  0
 10 17  1  1  0  0  0
 11 18  1  0  0  0  0
 11 19  1  0  0  0  0
 11 20  2  0  0  0  0
 14 21  1  0  0  0  0
 14 22  2  0  0  0  0
 15 23  1  0  0  0  0
 15 24  1  6  0  0  0
 16 25  1  0  0  0  0
 17 26  1  0  0  0  0
 17 27  2  0  0  0  0
 18 28  1  0  0  0  0
 23 29  1  0  0  0  0
 23 30  1  1  0  0  0
 24 31  1  0  0  0  0
 25 32  1  1  0  0  0
 28 33  1  0  0  0  0
 29 34  1  6  0  0  0
 31 35  1  0  0  0  0
 31 36  2  0  0  0  0
 32 37  1  0  0  0  0
 33 38  1  0  0  0  0
 33 39  1  1  0  0  0
 40 34  1  1  0  0  0
 41 37  1  1  0  0  0
 38 42  1  0  0  0  0
 38 43  2  0  0  0  0
 40 44  1  0  0  0  0
 40 45  1  0  0  0  0
 41 46  1  0  0  0  0
 41 47  1  0  0  0  0
 42 48  1  0  0  0  0
 44 49  1  0  0  0  0
 44 50  1  6  0  0  0
 45 51  1  0  0  0  0
 46 52  1  0  0  0  0
 47 53  1  0  0  0  0
 47 54  1  6  0  0  0
 48 55  1  0  0  0  0
 49 56  1  0  0  0  0
 49 57  1  1  0  0  0
 50 58  1  0  0  0  0
 51 59  1  1  0  0  0
 52 60  1  0  0  0  0
 52 61  1  1  0  0  0
 53 62  1  1  0  0  0
 55 63  1  0  0  0  0
 56 64  1  6  0  0  0
 58 65  1  0  0  0  0
 58 66  2  0  0  0  0
 60 67  1  6  0  0  0
 61 68  1  0  0  0  0
 63 69  2  0  0  0  0
 70 64  1  6  0  0  0
 69 71  1  0  0  0  0
 69 72  1  0  0  0  0
 70 73  1  0  0  0  0
 70 74  1  0  0  0  0
 71 75  1  0  0  0  0
 73 76  1  0  0  0  0
 74 77  1  0  0  0  0
 74 78  1  1  0  0  0
 75 79  1  0  0  0  0
 76 80  1  6  0  0  0
 76 81  1  0  0  0  0
 77 82  1  6  0  0  0
 79 83  2  0  0  0  0
 80 84  1  0  0  0  0
 80 85  2  0  0  0  0
 81 86  1  6  0  0  0
 83 87  1  0  0  0  0
 84 88  1  0  0  0  0
 87 89  1  0  0  0  0
 87 90  1  0  0  0  0
 87 91  1  0  0  0  0
 88 92  1  0  0  0  0
 88 93  2  0  0  0  0
 89 94  1  0  0  0  0
 92 95  1  0  0  0  0
 92 96  2  0  0  0  0
 93 97  1  0  0  0  0
 93 98  1  0  0  0  0
 94 99  1  0  0  0  0
 99100  1  0  0  0  0
 99101  2  0  0  0  0
100102  1  0  0  0  0
102103  2  0  0  0  0
103104  1  0  0  0  0
103105  1  0  0  0  0
104106  1  0  0  0  0
106107  1  0  0  0  0
107108  2  0  0  0  0
108109  1  0  0  0  0
108110  1  0  0  0  0
  7 10  1  0  0  0  0
 25 29  1  0  0  0  0
 51 56  1  0  0  0  0
 53 60  1  0  0  0  0
 77 81  1  0  0  0  0
 95 97  1  0  0  0  0
M  END
> <DATABASE_ID>
DB11377

> <DATABASE_NAME>
drugbank

> <SMILES>
C[C@H]1O[C@@H](O[C@H]2[C@H](O)[C@@H](NC(C)=O)[C@H](O[C@H]3[C@@H](OP(O)(=O)OC[C@@H](O)C(=O)OCC\C=C(/C)CC\C=C\C(C)(C)CCC(=C)C\C=C(/C)CCC=C(C)C)O[C@H](C(O)=O)[C@@](C)(O)[C@@H]3OC(N)=O)O[C@@H]2CO[C@@H]2O[C@H](CO)[C@@H](O)[C@H](O)[C@H]2O)[C@H](NC(C)=O)[C@@H](O)[C@@H]1O[C@@H]1O[C@@H]([C@H](O)[C@H](O)[C@H]1O)C(=O)NC1=C(O)CCC1=O

> <INCHI_IDENTIFIER>
InChI=1S/C70H109N4O35P/c1-31(2)16-14-18-33(4)20-21-34(5)24-26-69(9,10)25-13-12-17-32(3)19-15-27-97-62(92)40(80)29-99-110(95,96)109-67-57(58(108-68(71)93)70(11,94)59(107-67)61(90)91)106-64-45(73-37(8)77)48(83)55(42(102-64)30-98-65-52(87)49(84)46(81)41(28-75)101-65)104-63-44(72-36(7)76)47(82)54(35(6)100-63)103-66-53(88)50(85)51(86)56(105-66)60(89)74-43-38(78)22-23-39(43)79/h13,16,19-20,25,35,40-42,44-59,63-67,75,78,80-88,94H,5,12,14-15,17-18,21-24,26-30H2,1-4,6-11H3,(H2,71,93)(H,72,76)(H,73,77)(H,74,89)(H,90,91)(H,95,96)/b25-13+,32-19+,33-20+/t35-,40-,41-,42-,44-,45-,46-,47-,48-,49+,50+,51-,52-,53-,54-,55-,56+,57-,58-,59-,63+,64+,65-,66-,67-,70+/m1/s1

> <INCHI_KEY>
FUIOWSNNCWZETH-NAMXWVJMSA-N

> <FORMULA>
C70H109N4O35P

> <MOLECULAR_WEIGHT>
1597.609

> <EXACT_MASS>
1596.660998224

> <JCHEM_ACCEPTOR_COUNT>
31

> <JCHEM_ATOM_COUNT>
219

> <JCHEM_AVERAGE_NEUTRAL_MICROSPECIES_CHARGE>
-2.992512782203407

> <JCHEM_AVERAGE_POLARIZABILITY>
160.67854767630118

> <JCHEM_BIOAVAILABILITY>
0

> <JCHEM_DONOR_COUNT>
18

> <JCHEM_FORMAL_CHARGE>
0

> <JCHEM_GHOSE_FILTER>
0

> <JCHEM_IUPAC>
(2S,3S,4R,5R,6R)-4-(carbamoyloxy)-5-{[(2S,3R,4R,5S,6R)-3-acetamido-5-{[(2S,3R,4R,5S,6R)-3-acetamido-4-hydroxy-6-methyl-5-{[(2R,3R,4S,5R,6S)-3,4,5-trihydroxy-6-[(2-hydroxy-5-oxocyclopent-1-en-1-yl)carbamoyl]oxan-2-yl]oxy}oxan-2-yl]oxy}-4-hydroxy-6-({[(2R,3R,4S,5S,6R)-3,4,5-trihydroxy-6-(hydroxymethyl)oxan-2-yl]oxy}methyl)oxan-2-yl]oxy}-3-hydroxy-6-({hydroxy[(2R)-2-hydroxy-3-oxo-3-{[(3E,7E,14E)-4,9,9,15,19-pentamethyl-12-methylideneicosa-3,7,14,18-tetraen-1-yl]oxy}propoxy]phosphoryl}oxy)-3-methyloxane-2-carboxylic acid

> <ALOGPS_LOGP>
1.53

> <JCHEM_LOGP>
-1.7693274690000016

> <ALOGPS_LOGS>
-4.33

> <JCHEM_MDDR_LIKE_RULE>
1

> <JCHEM_NEUTRAL_CHARGE>
-3

> <JCHEM_NUMBER_OF_RINGS>
6

> <JCHEM_PHYSIOLOGICAL_CHARGE>
-3

> <JCHEM_PKA>
3.255963098941972

> <JCHEM_PKA_STRONGEST_ACIDIC>
1.5768375020140317

> <JCHEM_PKA_STRONGEST_BASIC>
-4.156176633672574

> <JCHEM_POLAR_SURFACE_AREA>
601.8800000000002

> <JCHEM_REFRACTIVITY>
376.046

> <JCHEM_ROTATABLE_BOND_COUNT>
39

> <JCHEM_RULE_OF_FIVE>
0

> <ALOGPS_SOLUBILITY>
7.55e-02 g/l

> <JCHEM_TRADITIONAL_IUPAC>
fidaxomicin

> <JCHEM_VEBER_RULE>
0

> <DRUGBANK_ID>
DB11377

> <DRUG_GROUPS>
vet_approved

> <GENERIC_NAME>
Bambermycins

> <SYNONYMS>
Bambermicina; Bambermycin; Bambermycine; Bambermycins; Bambermycinum; Flavofosfolipol; Moenomycin; Moenomycin A

> <INTERNATIONAL_BRANDS>
Gainpro

$$$$
