
  Mrv1652310211605062D          

 32 35  0  0  0  0            999 V2000
    3.9641   -7.3602    0.0000 C   0  0  0  0  0  0  0  0  0  0  0  0
    3.9641   -8.1852    0.0000 N   0  0  0  0  0  0  0  0  0  0  0  0
    4.6315   -8.6701    0.0000 C   0  0  0  0  0  0  0  0  0  0  0  0
    4.3766   -9.4548    0.0000 C   0  0  0  0  0  0  0  0  0  0  0  0
    3.5516   -9.4548    0.0000 C   0  0  0  0  0  0  0  0  0  0  0  0
    3.2966   -8.6701    0.0000 N   0  0  0  0  0  0  0  0  0  0  0  0
    4.8615  -10.1222    0.0000 C   0  0  0  0  0  0  0  0  0  0  0  0
    5.6820  -10.0360    0.0000 C   0  0  0  0  0  0  0  0  0  0  0  0
    6.1669  -10.7034    0.0000 C   0  0  0  0  0  0  0  0  0  0  0  0
    5.8314  -11.4571    0.0000 C   0  0  0  0  0  0  0  0  0  0  0  0
    5.0109  -11.5433    0.0000 C   0  0  0  0  0  0  0  0  0  0  0  0
    4.5260  -10.8759    0.0000 C   0  0  0  0  0  0  0  0  0  0  0  0
    6.3163  -12.1245    0.0000 S   0  0  0  0  0  0  0  0  0  0  0  0
    5.6488  -12.6094    0.0000 O   0  0  0  0  0  0  0  0  0  0  0  0
    6.9837  -11.6396    0.0000 O   0  0  0  0  0  0  0  0  0  0  0  0
    6.8012  -12.7919    0.0000 N   0  0  0  0  0  0  0  0  0  0  0  0
    7.6262  -12.7919    0.0000 C   0  0  0  0  0  0  0  0  0  0  0  0
    7.8811  -13.5766    0.0000 C   0  0  0  0  0  0  0  0  0  0  0  0
    7.2137  -14.0615    0.0000 C   0  0  0  0  0  0  0  0  0  0  0  0
    6.5463  -13.5766    0.0000 C   0  0  0  0  0  0  0  0  0  0  0  0
    7.2137  -14.8865    0.0000 C   0  0  0  0  0  0  0  0  0  0  0  0
    6.4992  -15.2990    0.0000 C   0  0  0  0  0  0  0  0  0  0  0  0
    6.4992  -16.1240    0.0000 C   0  0  0  0  0  0  0  0  0  0  0  0
    5.7848  -16.5365    0.0000 O   0  0  0  0  0  0  0  0  0  0  0  0
    7.2137  -16.5365    0.0000 N   0  0  0  0  0  0  0  0  0  0  0  0
    7.2137  -17.3615    0.0000 C   0  0  0  0  0  0  0  0  0  0  0  0
    7.9282  -17.7740    0.0000 C   0  0  0  0  0  0  0  0  0  0  0  0
    7.9282  -18.5990    0.0000 C   0  0  0  0  0  0  0  0  0  0  0  0
    7.2137  -19.0115    0.0000 C   0  0  0  0  0  0  0  0  0  0  0  0
    6.4992  -18.5990    0.0000 C   0  0  0  0  0  0  0  0  0  0  0  0
    6.4992  -17.7740    0.0000 C   0  0  0  0  0  0  0  0  0  0  0  0
    5.7848  -17.3615    0.0000 N   0  0  0  0  0  0  0  0  0  0  0  0
  1  2  1  0  0  0  0
  2  3  1  0  0  0  0
  3  4  2  0  0  0  0
  4  5  1  0  0  0  0
  5  6  2  0  0  0  0
  2  6  1  0  0  0  0
  4  7  1  0  0  0  0
  7  8  2  0  0  0  0
  8  9  1  0  0  0  0
  9 10  2  0  0  0  0
 10 11  1  0  0  0  0
 11 12  2  0  0  0  0
  7 12  1  0  0  0  0
 10 13  1  0  0  0  0
 13 14  2  0  0  0  0
 13 15  2  0  0  0  0
 13 16  1  0  0  0  0
 16 17  1  0  0  0  0
 17 18  2  0  0  0  0
 18 19  1  0  0  0  0
 19 20  2  0  0  0  0
 16 20  1  0  0  0  0
 19 21  1  0  0  0  0
 21 22  2  0  0  0  0
 22 23  1  0  0  0  0
 23 24  2  0  0  0  0
 23 25  1  0  0  0  0
 25 26  1  0  0  0  0
 26 27  2  0  0  0  0
 27 28  1  0  0  0  0
 28 29  2  0  0  0  0
 29 30  1  0  0  0  0
 30 31  2  0  0  0  0
 26 31  1  0  0  0  0
 31 32  1  0  0  0  0
M  END
> <DATABASE_ID>
DB13101

> <DATABASE_NAME>
drugbank

> <SMILES>
CN1C=C(C=N1)C1=CC=C(C=C1)S(=O)(=O)N1C=CC(\C=C\C(=O)NC2=CC=CC=C2N)=C1

> <INCHI_IDENTIFIER>
InChI=1S/C23H21N5O3S/c1-27-16-19(14-25-27)18-7-9-20(10-8-18)32(30,31)28-13-12-17(15-28)6-11-23(29)26-22-5-3-2-4-21(22)24/h2-16H,24H2,1H3,(H,26,29)/b11-6+

> <INCHI_KEY>
PRXXYMVLYKJITB-IZZDOVSWSA-N

> <FORMULA>
C23H21N5O3S

> <MOLECULAR_WEIGHT>
447.51

> <EXACT_MASS>
447.13651073

> <JCHEM_ACCEPTOR_COUNT>
5

> <JCHEM_ATOM_COUNT>
53

> <JCHEM_AVERAGE_POLARIZABILITY>
47.92256657025803

> <JCHEM_BIOAVAILABILITY>
1

> <JCHEM_DONOR_COUNT>
2

> <JCHEM_FORMAL_CHARGE>
0

> <JCHEM_GHOSE_FILTER>
0

> <JCHEM_IUPAC>
(2E)-N-(2-aminophenyl)-3-{1-[4-(1-methyl-1H-pyrazol-4-yl)benzenesulfonyl]-1H-pyrrol-3-yl}prop-2-enamide

> <ALOGPS_LOGP>
2.87

> <JCHEM_LOGP>
2.825805759000001

> <ALOGPS_LOGS>
-4.21

> <JCHEM_MDDR_LIKE_RULE>
0

> <JCHEM_NUMBER_OF_RINGS>
4

> <JCHEM_PHYSIOLOGICAL_CHARGE>
0

> <JCHEM_PKA_STRONGEST_ACIDIC>
14.368613954779413

> <JCHEM_PKA_STRONGEST_BASIC>
3.2781824485816595

> <JCHEM_POLAR_SURFACE_AREA>
112.01

> <JCHEM_REFRACTIVITY>
137.85629999999998

> <JCHEM_ROTATABLE_BOND_COUNT>
5

> <JCHEM_RULE_OF_FIVE>
1

> <ALOGPS_SOLUBILITY>
2.79e-02 g/l

> <JCHEM_TRADITIONAL_IUPAC>
(2E)-N-(2-aminophenyl)-3-{1-[4-(1-methylpyrazol-4-yl)benzenesulfonyl]pyrrol-3-yl}prop-2-enamide

> <JCHEM_VEBER_RULE>
0

> <DRUGBANK_ID>
DB13101

> <DRUG_GROUPS>
investigational

> <GENERIC_NAME>
4SC-202

$$$$
