
  Mrv1652309191705322D          

 12 13  0  0  0  0            999 V2000
    1.4289    0.8250    0.0000 C   0  0  0  0  0  0  0  0  0  0  0  0
    1.4289    0.0000    0.0000 C   0  0  0  0  0  0  0  0  0  0  0  0
    2.1434    1.2375    0.0000 C   0  0  0  0  0  0  0  0  0  0  0  0
    2.1434   -0.4125    0.0000 C   0  0  0  0  0  0  0  0  0  0  0  0
    4.2868    0.8250    0.0000 C   0  0  0  0  0  0  0  0  0  0  0  0
    2.8579    0.8250    0.0000 C   0  0  0  0  0  0  0  0  0  0  0  0
    3.5724    1.2375    0.0000 C   0  0  0  0  0  0  0  0  0  0  0  0
    2.8579    0.0000    0.0000 C   0  0  0  0  0  0  0  0  0  0  0  0
    4.2868    0.0000    0.0000 C   0  0  0  0  0  0  0  0  0  0  0  0
    3.5724    2.0625    0.0000 O   0  0  0  0  0  0  0  0  0  0  0  0
    5.0013   -0.4125    0.0000 O   0  0  0  0  0  0  0  0  0  0  0  0
    3.5724   -0.4125    0.0000 O   0  0  0  0  0  0  0  0  0  0  0  0
  2  1  2  0  0  0  0
  3  1  1  0  0  0  0
  4  2  1  0  0  0  0
  6  3  2  0  0  0  0
  7  5  2  0  0  0  0
  7  6  1  0  0  0  0
  8  4  2  0  0  0  0
  8  6  1  0  0  0  0
  9  5  1  0  0  0  0
 10  7  1  0  0  0  0
 11  9  2  0  0  0  0
 12  8  1  0  0  0  0
 12  9  1  0  0  0  0
M  END
> <DATABASE_ID>
DB03410

> <DATABASE_NAME>
drugbank

> <SMILES>
OC1=CC(=O)OC2=CC=CC=C12

> <INCHI_IDENTIFIER>
InChI=1S/C9H6O3/c10-7-5-9(11)12-8-4-2-1-3-6(7)8/h1-5,10H

> <INCHI_KEY>
VXIXUWQIVKSKSA-UHFFFAOYSA-N

> <FORMULA>
C9H6O3

> <MOLECULAR_WEIGHT>
162.144

> <EXACT_MASS>
162.031694053

> <JCHEM_ACCEPTOR_COUNT>
2

> <JCHEM_ATOM_COUNT>
18

> <JCHEM_AVERAGE_POLARIZABILITY>
15.242528371516123

> <JCHEM_BIOAVAILABILITY>
1

> <JCHEM_DONOR_COUNT>
1

> <JCHEM_FORMAL_CHARGE>
0

> <JCHEM_GHOSE_FILTER>
0

> <JCHEM_IUPAC>
4-hydroxy-2H-chromen-2-one

> <ALOGPS_LOGP>
1.01

> <JCHEM_LOGP>
1.029812716333333

> <ALOGPS_LOGS>
-1.77

> <JCHEM_MDDR_LIKE_RULE>
0

> <JCHEM_NUMBER_OF_RINGS>
2

> <JCHEM_PHYSIOLOGICAL_CHARGE>
-1

> <JCHEM_PKA_STRONGEST_ACIDIC>
5.295473229551473

> <JCHEM_PKA_STRONGEST_BASIC>
-7.043560009396393

> <JCHEM_POLAR_SURFACE_AREA>
46.53

> <JCHEM_REFRACTIVITY>
43.440900000000006

> <JCHEM_ROTATABLE_BOND_COUNT>
0

> <JCHEM_RULE_OF_FIVE>
1

> <ALOGPS_SOLUBILITY>
2.78e+00 g/l

> <JCHEM_TRADITIONAL_IUPAC>
4-hydroxy-coumarin

> <JCHEM_VEBER_RULE>
0

> <DRUGBANK_ID>
DB03410

> <SECONDARY_ACCESSION_NUMBERS>
EXPT00215

> <DRUG_GROUPS>
experimental

> <GENERIC_NAME>
4-hydroxycoumarin

> <SYNONYMS>
4-coumarinol; 4-hydroxy-2-chromenone; 4-hydroxy-2H-1-benzopyran-2-one; 4-hydroxy-2H-benzo[b]pyran-2-one; 4-hydroxychromen-2-one; 4-hydroxycoumarin; Benzotetronic acid

$$$$
