
  Mrv1909 10311918192D          

 84 83  0  0  0  0            999 V2000
    7.7991   -0.4389    0.0000 O   0  0  0  0  0  0  0  0  0  0  0  0
    8.2228   -3.0549    0.0000 O   0  0  0  0  0  0  0  0  0  0  0  0
    7.8103   -3.7694    0.0000 Al  0  0  0  0  0  0  0  0  0  0  0  0
    8.2228   -4.4839    0.0000 O   0  0  0  0  0  0  0  0  0  0  0  0
    6.9853   -3.7694    0.0000 O   0  0  0  0  0  0  0  0  0  0  0  0
   -3.0578   -4.7876    0.0000 O   0  0  0  0  0  0  0  0  0  0  0  0
   -2.7223   -5.5412    0.0000 Al  0  0  0  0  0  0  0  0  0  0  0  0
   -3.2072   -6.2087    0.0000 O   0  0  0  0  0  0  0  0  0  0  0  0
   -1.9018   -5.6275    0.0000 O   0  0  0  0  0  0  0  0  0  0  0  0
   -1.4169   -4.9600    0.0000 S   0  0  0  0  0  0  0  0  0  0  0  0
   -0.7494   -5.4450    0.0000 O   0  0  0  0  0  0  0  0  0  0  0  0
   -2.0843   -4.4751    0.0000 O   0  0  0  0  0  0  0  0  0  0  0  0
   -0.9320   -4.2925    0.0000 O   0  0  0  0  0  0  0  0  0  0  0  0
   -0.1115   -4.3788    0.0000 C   0  0  0  0  0  0  0  0  0  0  0  0
    0.3733   -3.7114    0.0000 C   0  0  1  0  0  0  0  0  0  0  0  0
    0.1184   -2.9268    0.0000 O   0  0  0  0  0  0  0  0  0  0  0  0
    0.7858   -2.4418    0.0000 C   0  0  1  0  0  0  0  0  0  0  0  0
    0.2338   -1.8287    0.0000 C   0  0  0  0  0  0  0  0  0  0  0  0
   -0.5731   -2.0003    0.0000 O   0  0  0  0  0  0  0  0  0  0  0  0
   -1.1251   -1.3872    0.0000 S   0  0  0  0  0  0  0  0  0  0  0  0
   -0.5120   -0.8351    0.0000 O   0  0  0  0  0  0  0  0  0  0  0  0
   -1.6771   -0.7741    0.0000 O   0  0  0  0  0  0  0  0  0  0  0  0
   -1.7382   -1.9392    0.0000 O   0  0  0  0  0  0  0  0  0  0  0  0
   -1.5667   -2.7462    0.0000 Al  0  0  0  0  0  0  0  0  0  0  0  0
   -0.7820   -3.0011    0.0000 O   0  0  0  0  0  0  0  0  0  0  0  0
   -2.1798   -3.2982    0.0000 O   0  0  0  0  0  0  0  0  0  0  0  0
    1.3378   -1.8287    0.0000 O   0  0  0  0  0  0  0  0  0  0  0  0
    1.0829   -1.0441    0.0000 C   0  0  1  0  0  0  0  0  0  0  0  0
    0.2760   -0.8726    0.0000 O   0  0  0  0  0  0  0  0  0  0  0  0
    0.0210   -0.0880    0.0000 C   0  0  2  0  0  0  0  0  0  0  0  0
   -0.7858    0.0835    0.0000 C   0  0  0  0  0  0  0  0  0  0  0  0
   -1.3378   -0.5295    0.0000 O   0  0  0  0  0  0  0  0  0  0  0  0
   -2.1448   -0.3580    0.0000 S   0  0  0  0  0  0  0  0  0  0  0  0
   -1.9733    0.4489    0.0000 O   0  0  0  0  0  0  0  0  0  0  0  0
   -2.3163   -1.1649    0.0000 O   0  0  0  0  0  0  0  0  0  0  0  0
   -2.9518   -0.1865    0.0000 O   0  0  0  0  0  0  0  0  0  0  0  0
   -3.5039   -0.7996    0.0000 Al  0  0  0  0  0  0  0  0  0  0  0  0
   -3.2489   -1.5842    0.0000 O   0  0  0  0  0  0  0  0  0  0  0  0
   -4.3108   -0.6281    0.0000 O   0  0  0  0  0  0  0  0  0  0  0  0
    0.5731    0.5250    0.0000 C   0  0  1  0  0  0  0  0  0  0  0  0
    0.3181    1.3096    0.0000 O   0  0  0  0  0  0  0  0  0  0  0  0
   -0.4888    1.4812    0.0000 S   0  0  0  0  0  0  0  0  0  0  0  0
   -1.2957    1.6527    0.0000 O   0  0  0  0  0  0  0  0  0  0  0  0
   -0.6603    0.6742    0.0000 O   0  0  0  0  0  0  0  0  0  0  0  0
   -0.3172    2.2881    0.0000 O   0  0  0  0  0  0  0  0  0  0  0  0
   -0.9303    2.8402    0.0000 Al  0  0  0  0  0  0  0  0  0  0  0  0
   -1.7149    2.5852    0.0000 O   0  0  0  0  0  0  0  0  0  0  0  0
   -0.7588    3.6471    0.0000 O   0  0  0  0  0  0  0  0  0  0  0  0
    1.3799    0.3535    0.0000 C   0  0  2  0  0  0  0  0  0  0  0  0
    1.9321    0.9666    0.0000 O   0  0  0  0  0  0  0  0  0  0  0  0
    2.7390    0.7951    0.0000 S   0  0  0  0  0  0  0  0  0  0  0  0
    2.5675   -0.0117    0.0000 O   0  0  0  0  0  0  0  0  0  0  0  0
    3.5460    0.6235    0.0000 O   0  0  0  0  0  0  0  0  0  0  0  0
    2.9106    1.6020    0.0000 O   0  0  0  0  0  0  0  0  0  0  0  0
    3.6952    1.8570    0.0000 Al  0  0  0  0  0  0  0  0  0  0  0  0
    3.8667    2.6639    0.0000 O   0  0  0  0  0  0  0  0  0  0  0  0
    4.3083    1.3049    0.0000 O   0  0  0  0  0  0  0  0  0  0  0  0
    1.6350   -0.4310    0.0000 C   0  0  1  0  0  0  0  0  0  0  0  0
    2.4419   -0.6026    0.0000 O   0  0  0  0  0  0  0  0  0  0  0  0
    2.6969   -1.3872    0.0000 S   0  0  0  0  0  0  0  0  0  0  0  0
    3.4815   -1.1322    0.0000 O   0  0  0  0  0  0  0  0  0  0  0  0
    1.9123   -1.6421    0.0000 O   0  0  0  0  0  0  0  0  0  0  0  0
    2.9518   -2.1718    0.0000 O   0  0  0  0  0  0  0  0  0  0  0  0
    3.7588   -2.3433    0.0000 Al  0  0  0  0  0  0  0  0  0  0  0  0
    4.3108   -1.7302    0.0000 O   0  0  0  0  0  0  0  0  0  0  0  0
    4.0137   -3.1279    0.0000 O   0  0  0  0  0  0  0  0  0  0  0  0
    1.4533   -2.9268    0.0000 C   0  0  1  0  0  0  0  0  0  0  0  0
    2.2378   -2.6718    0.0000 O   0  0  0  0  0  0  0  0  0  0  0  0
    2.8510   -3.2239    0.0000 S   0  0  0  0  0  0  0  0  0  0  0  0
    3.4030   -2.6107    0.0000 O   0  0  0  0  0  0  0  0  0  0  0  0
    2.2990   -3.8370    0.0000 O   0  0  0  0  0  0  0  0  0  0  0  0
    3.4641   -3.7759    0.0000 O   0  0  0  0  0  0  0  0  0  0  0  0
    3.2926   -4.5829    0.0000 Al  0  0  0  0  0  0  0  0  0  0  0  0
    3.9057   -5.1349    0.0000 O   0  0  0  0  0  0  0  0  0  0  0  0
    2.5078   -4.8378    0.0000 O   0  0  0  0  0  0  0  0  0  0  0  0
    1.1983   -3.7114    0.0000 C   0  0  2  0  0  0  0  0  0  0  0  0
    1.6832   -4.3788    0.0000 O   0  0  0  0  0  0  0  0  0  0  0  0
    1.3476   -5.1325    0.0000 S   0  0  0  0  0  0  0  0  0  0  0  0
    2.1014   -5.4681    0.0000 O   0  0  0  0  0  0  0  0  0  0  0  0
    0.5940   -4.7969    0.0000 O   0  0  0  0  0  0  0  0  0  0  0  0
    1.0122   -5.8862    0.0000 O   0  0  0  0  0  0  0  0  0  0  0  0
    0.1917   -5.9724    0.0000 Al  0  0  0  0  0  0  0  0  0  0  0  0
   -0.1438   -6.7261    0.0000 O   0  0  0  0  0  0  0  0  0  0  0  0
   -0.2932   -5.3050    0.0000 O   0  0  0  0  0  0  0  0  0  0  0  0
  2  3  1  0  0  0  0
  3  4  1  0  0  0  0
  3  5  1  0  0  0  0
  6  7  1  0  0  0  0
  7  8  1  0  0  0  0
  7  9  1  0  0  0  0
  9 10  1  0  0  0  0
 10 11  2  0  0  0  0
 10 12  2  0  0  0  0
 10 13  1  0  0  0  0
 13 14  1  0  0  0  0
 15 14  1  1  0  0  0
 15 16  1  0  0  0  0
 17 16  1  0  0  0  0
 17 18  1  6  0  0  0
 18 19  1  0  0  0  0
 19 20  1  0  0  0  0
 20 21  2  0  0  0  0
 20 22  2  0  0  0  0
 20 23  1  0  0  0  0
 23 24  1  0  0  0  0
 24 25  1  0  0  0  0
 24 26  1  0  0  0  0
 17 27  1  1  0  0  0
 28 27  1  1  0  0  0
 28 29  1  0  0  0  0
 30 29  1  0  0  0  0
 30 31  1  6  0  0  0
 31 32  1  0  0  0  0
 32 33  1  0  0  0  0
 33 34  2  0  0  0  0
 33 35  2  0  0  0  0
 33 36  1  0  0  0  0
 36 37  1  0  0  0  0
 37 38  1  0  0  0  0
 37 39  1  0  0  0  0
 40 30  1  0  0  0  0
 40 41  1  1  0  0  0
 41 42  1  0  0  0  0
 42 43  2  0  0  0  0
 42 44  2  0  0  0  0
 42 45  1  0  0  0  0
 45 46  1  0  0  0  0
 46 47  1  0  0  0  0
 46 48  1  0  0  0  0
 40 49  1  0  0  0  0
 49 50  1  6  0  0  0
 50 51  1  0  0  0  0
 51 52  2  0  0  0  0
 51 53  2  0  0  0  0
 51 54  1  0  0  0  0
 54 55  1  0  0  0  0
 55 56  1  0  0  0  0
 55 57  1  0  0  0  0
 49 58  1  0  0  0  0
 58 28  1  0  0  0  0
 58 59  1  1  0  0  0
 59 60  1  0  0  0  0
 60 61  2  0  0  0  0
 60 62  2  0  0  0  0
 60 63  1  0  0  0  0
 63 64  1  0  0  0  0
 64 65  1  0  0  0  0
 64 66  1  0  0  0  0
 67 17  1  0  0  0  0
 67 68  1  1  0  0  0
 68 69  1  0  0  0  0
 69 70  2  0  0  0  0
 69 71  2  0  0  0  0
 69 72  1  0  0  0  0
 72 73  1  0  0  0  0
 73 74  1  0  0  0  0
 73 75  1  0  0  0  0
 67 76  1  0  0  0  0
 76 15  1  0  0  0  0
 76 77  1  6  0  0  0
 77 78  1  0  0  0  0
 78 79  2  0  0  0  0
 78 80  2  0  0  0  0
 78 81  1  0  0  0  0
 81 82  1  0  0  0  0
 82 83  1  0  0  0  0
 82 84  1  0  0  0  0
M  END
> <DATABASE_ID>
DB00364

> <DATABASE_NAME>
drugbank

> <SMILES>
O.O[Al](O)O.O[Al](O)OS(=O)(=O)OC[C@H]1O[C@@](COS(=O)(=O)O[Al](O)O)(O[C@H]2O[C@H](COS(=O)(=O)O[Al](O)O)[C@@H](OS(=O)(=O)O[Al](O)O)[C@H](OS(=O)(=O)O[Al](O)O)[C@H]2OS(=O)(=O)O[Al](O)O)[C@@H](OS(=O)(=O)O[Al](O)O)[C@@H]1OS(=O)(=O)O[Al](O)O

> <INCHI_IDENTIFIER>
InChI=1S/C12H22O35S8.9Al.20H2O/c13-48(14,15)37-1-4-6(43-51(22,23)24)8(45-53(28,29)30)9(46-54(31,32)33)11(40-4)42-12(3-39-50(19,20)21)10(47-55(34,35)36)7(44-52(25,26)27)5(41-12)2-38-49(16,17)18;;;;;;;;;;;;;;;;;;;;;;;;;;;;;/h4-11H,1-3H2,(H,13,14,15)(H,16,17,18)(H,19,20,21)(H,22,23,24)(H,25,26,27)(H,28,29,30)(H,31,32,33)(H,34,35,36);;;;;;;;;;20*1H2/q;9*+3;;;;;;;;;;;;;;;;;;;;/p-27/t4-,5-,6-,7-,8+,9-,10+,11-,12+;;;;;;;;;;;;;;;;;;;;;;;;;;;;;/m1............................./s1

> <INCHI_KEY>
IPLJAZDIICJQEL-JTJNLBSYSA-A

> <FORMULA>
C12H35Al9O55S8

> <MOLECULAR_WEIGHT>
1558.67

> <EXACT_MASS>
1557.6045961

> <JCHEM_ACCEPTOR_COUNT>
35

> <JCHEM_ATOM_COUNT>
119

> <JCHEM_AVERAGE_POLARIZABILITY>
107.19253213477145

> <JCHEM_BIOAVAILABILITY>
0

> <JCHEM_DONOR_COUNT>
16

> <JCHEM_FORMAL_CHARGE>
0

> <JCHEM_GHOSE_FILTER>
0

> <JCHEM_IUPAC>
[({[(2R,3R,4S,5R,6R)-6-{[(2S,3S,4R,5R)-3,4-bis({[(dihydroxyalumanyl)oxy]sulfonyl}oxy)-2,5-bis[({[(dihydroxyalumanyl)oxy]sulfonyl}oxy)methyl]oxolan-2-yl]oxy}-4,5-bis({[(dihydroxyalumanyl)oxy]sulfonyl}oxy)-2-[({[(dihydroxyalumanyl)oxy]sulfonyl}oxy)methyl]oxan-3-yl]oxy}sulfonyl)oxy]alumanediol alumanetriol hydrate

> <ALOGPS_LOGP>
0.74

> <JCHEM_LOGP>
-5.8719

> <ALOGPS_LOGS>
-3.28

> <JCHEM_MDDR_LIKE_RULE>
0

> <JCHEM_NUMBER_OF_RINGS>
2

> <JCHEM_PHYSIOLOGICAL_CHARGE>
0

> <JCHEM_PKA>
13.959604594312891

> <JCHEM_PKA_STRONGEST_ACIDIC>
13.53391826169288

> <JCHEM_PKA_STRONGEST_BASIC>
-3.0450518252492262

> <JCHEM_POLAR_SURFACE_AREA>
772.1700000000006

> <JCHEM_REFRACTIVITY>
180.02690000000004

> <JCHEM_ROTATABLE_BOND_COUNT>
37

> <JCHEM_RULE_OF_FIVE>
0

> <ALOGPS_SOLUBILITY>
7.74e-01 g/l

> <JCHEM_TRADITIONAL_IUPAC>
pafuramidine

> <JCHEM_VEBER_RULE>
0

> <DRUGBANK_ID>
DB00364

> <SECONDARY_ACCESSION_NUMBERS>
APRD01238

> <DRUG_GROUPS>
approved

> <GENERIC_NAME>
Sucralfate

> <SYNONYMS>
Hexadeca-μ-hydroxytetracosahydroxy[μ8-[1,3,4,6-tetra-O-sulfo-β-Dfructofuranosyl-α-D-glucopyranoside tetrakis(hydrogen sulfato)8-)]]hexadecaaluminum; Sucralfat; Sucralfate; Sucralfato; Sucralfatum

> <PRODUCTS>
Apo-sucralfate - Tab 1g; Carafate; Dom-sucralfate; Nu-sucralfate - Tab 1gm; PMS-sucralfate; Sucralfate; Sucralfate Powder; Sucralfate-1 - Tab 1g; Sulcrate; Sulcrate Sus 100mg/ml; Sulcrate Suspension Plus; Teva-sucralfate; Varecell Intensive Liposome DoubleCream

> <INTERNATIONAL_BRANDS>
Antepsin; Sucramal; Sucraxol; Ulcogant

$$$$
