
  Mrv1572010141516542D          

 26 28  0  0  0  0            999 V2000
   -1.7862    1.8562    0.0000 O   0  0  0  0  0  0  0  0  0  0  0  0
   -0.3571   -0.6187    0.0000 N   0  0  0  0  0  0  0  0  0  0  0  0
   -0.3571    1.8562    0.0000 N   0  0  0  0  0  0  0  0  0  0  0  0
   -0.3571    1.0312    0.0000 C   0  0  0  0  0  0  0  0  0  0  0  0
    0.3572    0.6187    0.0000 C   0  0  0  0  0  0  0  0  0  0  0  0
   -1.0717    0.6187    0.0000 C   0  0  0  0  0  0  0  0  0  0  0  0
    0.3572   -0.2062    0.0000 C   0  0  0  0  0  0  0  0  0  0  0  0
   -1.0717   -0.2062    0.0000 C   0  0  0  0  0  0  0  0  0  0  0  0
   -0.3571   -1.4437    0.0000 C   0  0  0  0  0  0  0  0  0  0  0  0
   -1.0717   -1.8562    0.0000 C   0  0  0  0  0  0  0  0  0  0  0  0
    0.3572    2.2687    0.0000 C   0  0  0  0  0  0  0  0  0  0  0  0
   -1.0717    2.2687    0.0000 C   0  0  0  0  0  0  0  0  0  0  0  0
   -1.0717    3.0938    0.0000 C   0  0  0  0  0  0  0  0  0  0  0  0
   -1.0717   -2.6813    0.0000 C   0  0  0  0  0  0  0  0  0  0  0  0
    0.3572    3.0938    0.0000 C   0  0  0  0  0  0  0  0  0  0  0  0
    1.0717    1.8562    0.0000 C   0  0  0  0  0  0  0  0  0  0  0  0
   -1.7862    3.5063    0.0000 C   0  0  0  0  0  0  0  0  0  0  0  0
   -0.3571   -3.0938    0.0000 C   0  0  0  0  0  0  0  0  0  0  0  0
   -1.7862   -3.0938    0.0000 C   0  0  0  0  0  0  0  0  0  0  0  0
    1.0717    3.5063    0.0000 C   0  0  0  0  0  0  0  0  0  0  0  0
    1.7862    2.2687    0.0000 C   0  0  0  0  0  0  0  0  0  0  0  0
   -1.7862    4.3313    0.0000 C   0  0  0  0  0  0  0  0  0  0  0  0
    1.7862    3.0938    0.0000 C   0  0  0  0  0  0  0  0  0  0  0  0
   -0.3571   -3.9188    0.0000 C   0  0  0  0  0  0  0  0  0  0  0  0
   -1.7862   -3.9188    0.0000 C   0  0  0  0  0  0  0  0  0  0  0  0
   -1.0717   -4.3313    0.0000 C   0  0  0  0  0  0  0  0  0  0  0  0
  1 12  2  0  0  0  0
  2  7  1  0  0  0  0
  2  8  1  0  0  0  0
  2  9  1  0  0  0  0
  3  4  1  0  0  0  0
  3 11  1  0  0  0  0
  3 12  1  0  0  0  0
  4  5  1  0  0  0  0
  4  6  1  0  0  0  0
  5  7  1  0  0  0  0
  6  8  1  0  0  0  0
  9 10  1  0  0  0  0
 10 14  1  0  0  0  0
 11 15  2  0  0  0  0
 11 16  1  0  0  0  0
 12 13  1  0  0  0  0
 13 17  1  0  0  0  0
 14 18  2  0  0  0  0
 14 19  1  0  0  0  0
 15 20  1  0  0  0  0
 16 21  2  0  0  0  0
 17 22  1  0  0  0  0
 18 24  1  0  0  0  0
 19 25  2  0  0  0  0
 20 23  2  0  0  0  0
 21 23  1  0  0  0  0
 24 26  2  0  0  0  0
 25 26  1  0  0  0  0
M  END
> <DATABASE_ID>
DB09173

> <DATABASE_NAME>
drugbank

> <SMILES>
CCCC(=O)N(C1CCN(CCC2=CC=CC=C2)CC1)C1=CC=CC=C1

> <INCHI_IDENTIFIER>
InChI=1S/C23H30N2O/c1-2-9-23(26)25(21-12-7-4-8-13-21)22-15-18-24(19-16-22)17-14-20-10-5-3-6-11-20/h3-8,10-13,22H,2,9,14-19H2,1H3

> <INCHI_KEY>
QQOMYEQLWQJRKK-UHFFFAOYSA-N

> <FORMULA>
C23H30N2O

> <MOLECULAR_WEIGHT>
350.506

> <EXACT_MASS>
350.235813594

> <JCHEM_ACCEPTOR_COUNT>
2

> <JCHEM_ATOM_COUNT>
56

> <JCHEM_AVERAGE_POLARIZABILITY>
42.032659814113224

> <JCHEM_BIOAVAILABILITY>
1

> <JCHEM_DONOR_COUNT>
0

> <JCHEM_FORMAL_CHARGE>
0

> <JCHEM_GHOSE_FILTER>
1

> <JCHEM_IUPAC>
N-phenyl-N-[1-(2-phenylethyl)piperidin-4-yl]butanamide

> <ALOGPS_LOGP>
4.44

> <JCHEM_LOGP>
4.2600672133333335

> <ALOGPS_LOGS>
-4.41

> <JCHEM_MDDR_LIKE_RULE>
1

> <JCHEM_NUMBER_OF_RINGS>
3

> <JCHEM_PHYSIOLOGICAL_CHARGE>
1

> <JCHEM_PKA_STRONGEST_BASIC>
8.767606300482685

> <JCHEM_POLAR_SURFACE_AREA>
23.550000000000004

> <JCHEM_REFRACTIVITY>
108.08350000000004

> <JCHEM_ROTATABLE_BOND_COUNT>
7

> <JCHEM_RULE_OF_FIVE>
1

> <ALOGPS_SOLUBILITY>
1.37e-02 g/l

> <JCHEM_TRADITIONAL_IUPAC>
N-phenyl-N-[1-(2-phenylethyl)piperidin-4-yl]butanamide

> <JCHEM_VEBER_RULE>
1

> <DRUGBANK_ID>
DB09173

> <DRUG_GROUPS>
illicit

> <GENERIC_NAME>
Butyrfentanyl

> <SYNONYMS>
Butyr-fentanyl; Butyrylfentanyl

$$$$
