
  Mrv1909 02282022162D          

 10 10  0  0  0  0            999 V2000
    0.0000    0.6187    0.0000 C   0  0  0  0  0  0  0  0  0  0  0  0
    0.7145    0.2062    0.0000 C   0  0  0  0  0  0  0  0  0  0  0  0
    0.7145   -0.6187    0.0000 C   0  0  0  0  0  0  0  0  0  0  0  0
    0.0000   -1.0313    0.0000 C   0  0  0  0  0  0  0  0  0  0  0  0
   -0.7145   -0.6187    0.0000 C   0  0  0  0  0  0  0  0  0  0  0  0
   -0.7145    0.2062    0.0000 C   0  0  0  0  0  0  0  0  0  0  0  0
    0.0000    1.4438    0.0000 C   0  0  0  0  0  0  0  0  0  0  0  0
   -0.7145    1.8563    0.0000 O   0  0  0  0  0  0  0  0  0  0  0  0
    0.7145    1.8563    0.0000 O   0  0  0  0  0  0  0  0  0  0  0  0
    0.0000   -1.8563    0.0000 O   0  0  0  0  0  0  0  0  0  0  0  0
  8  7  2  0  0  0  0
  1  7  1  0  0  0  0
  9  7  1  0  0  0  0
  2  1  2  0  0  0  0
  6  1  1  0  0  0  0
  3  2  1  0  0  0  0
  5  6  2  0  0  0  0
  4  3  2  0  0  0  0
  4  5  1  0  0  0  0
 10  4  1  0  0  0  0
M  END
> <DATABASE_ID>
DB04242

> <DATABASE_NAME>
drugbank

> <SMILES>
OC(=O)C1=CC=C(O)C=C1

> <INCHI_IDENTIFIER>
InChI=1S/C7H6O3/c8-6-3-1-5(2-4-6)7(9)10/h1-4,8H,(H,9,10)

> <INCHI_KEY>
FJKROLUGYXJWQN-UHFFFAOYSA-N

> <FORMULA>
C7H6O3

> <MOLECULAR_WEIGHT>
138.122

> <EXACT_MASS>
138.031694053

> <JCHEM_ACCEPTOR_COUNT>
3

> <JCHEM_ATOM_COUNT>
16

> <JCHEM_AVERAGE_NEUTRAL_MICROSPECIES_CHARGE>
-0.9997197558271697

> <JCHEM_AVERAGE_POLARIZABILITY>
12.939727468110942

> <JCHEM_BIOAVAILABILITY>
1

> <JCHEM_DONOR_COUNT>
2

> <JCHEM_FORMAL_CHARGE>
0

> <JCHEM_GHOSE_FILTER>
0

> <JCHEM_IUPAC>
4-hydroxybenzoic acid

> <ALOGPS_LOGP>
1.58

> <JCHEM_LOGP>
1.3272634023333332

> <ALOGPS_LOGS>
-1.06

> <JCHEM_MDDR_LIKE_RULE>
0

> <JCHEM_NEUTRAL_CHARGE>
-1

> <JCHEM_NUMBER_OF_RINGS>
1

> <JCHEM_PHYSIOLOGICAL_CHARGE>
-1

> <JCHEM_PKA>
9.67428543984855

> <JCHEM_PKA_STRONGEST_ACIDIC>
4.379964053135935

> <JCHEM_PKA_STRONGEST_BASIC>
-6.063011046171022

> <JCHEM_POLAR_SURFACE_AREA>
57.53

> <JCHEM_REFRACTIVITY>
35.2951

> <JCHEM_ROTATABLE_BOND_COUNT>
1

> <JCHEM_RULE_OF_FIVE>
1

> <ALOGPS_SOLUBILITY>
1.19e+01 g/l

> <JCHEM_TRADITIONAL_IUPAC>
L-saccharopine

> <JCHEM_VEBER_RULE>
0

> <DRUGBANK_ID>
DB04242

> <SECONDARY_ACCESSION_NUMBERS>
EXPT02580

> <DRUG_GROUPS>
experimental

> <GENERIC_NAME>
4-hydroxybenzoic acid

> <SYNONYMS>
4-carboxyphenol; p-Hydroxybenzoic acid; p-salicylic acid

$$$$
