
  Mrv1652310211601522D          

 16 16  0  0  1  0            999 V2000
    3.2680   -0.0498    0.0000 C   0  0  0  0  0  0  0  0  0  0  0  0
    2.4555   -0.1930    0.0000 C   0  0  0  0  0  0  0  0  0  0  0  0
    1.9252    0.4390    0.0000 O   0  0  0  0  0  0  0  0  0  0  0  0
    2.2074    1.2142    0.0000 P   0  0  2  0  0  0  0  0  0  0  0  0
    1.3949    1.3575    0.0000 O   0  0  0  0  0  0  0  0  0  0  0  0
    3.0198    1.3575    0.0000 N   0  0  0  0  0  0  0  0  0  0  0  0
    3.5501    0.7255    0.0000 C   0  0  2  0  0  0  0  0  0  0  0  0
    4.3626    0.8688    0.0000 O   0  0  0  0  0  0  0  0  0  0  0  0
    4.8929    0.2368    0.0000 O   0  0  0  0  0  0  0  0  0  0  0  0
    2.2074    2.0392    0.0000 N   0  0  0  0  0  0  0  0  0  0  0  0
    1.4929    2.4517    0.0000 C   0  0  0  0  0  0  0  0  0  0  0  0
    1.4929    3.2767    0.0000 C   0  0  0  0  0  0  0  0  0  0  0  0
    0.7784    3.6892    0.0000 Cl  0  0  0  0  0  0  0  0  0  0  0  0
    2.9218    2.4517    0.0000 C   0  0  0  0  0  0  0  0  0  0  0  0
    2.9218    3.2767    0.0000 C   0  0  0  0  0  0  0  0  0  0  0  0
    3.6363    3.6892    0.0000 Cl  0  0  0  0  0  0  0  0  0  0  0  0
  1  2  1  0  0  0  0
  2  3  1  0  0  0  0
  3  4  1  0  0  0  0
  4  5  2  0  0  0  0
  4  6  1  6  0  0  0
  6  7  1  0  0  0  0
  1  7  1  0  0  0  0
  7  8  1  6  0  0  0
  8  9  1  0  0  0  0
  4 10  1  1  0  0  0
 10 11  1  0  0  0  0
 11 12  1  0  0  0  0
 12 13  1  0  0  0  0
 10 14  1  0  0  0  0
 14 15  1  0  0  0  0
 15 16  1  0  0  0  0
M  END
> <DATABASE_ID>
DB12727

> <DATABASE_NAME>
drugbank

> <SMILES>
OO[C@@H]1CCO[P@](=O)(N1)N(CCCl)CCCl

> <INCHI_IDENTIFIER>
InChI=1S/C7H15Cl2N2O4P/c8-2-4-11(5-3-9)16(13)10-7(15-12)1-6-14-16/h7,12H,1-6H2,(H,10,13)/t7-,16-/m1/s1

> <INCHI_KEY>
VPAWVRUHMJVRHU-VGDKGRGNSA-N

> <FORMULA>
C7H15Cl2N2O4P

> <MOLECULAR_WEIGHT>
293.08

> <EXACT_MASS>
292.0146494

> <JCHEM_ACCEPTOR_COUNT>
4

> <JCHEM_ATOM_COUNT>
31

> <JCHEM_AVERAGE_POLARIZABILITY>
25.493791755929312

> <JCHEM_BIOAVAILABILITY>
1

> <JCHEM_DONOR_COUNT>
2

> <JCHEM_FORMAL_CHARGE>
0

> <JCHEM_GHOSE_FILTER>
1

> <JCHEM_IUPAC>
(2R,4R)-2-[bis(2-chloroethyl)amino]-4-hydroperoxy-1,3,2lambda5-oxazaphosphinan-2-one

> <ALOGPS_LOGP>
0.19

> <JCHEM_LOGP>
0.39200250433333345

> <ALOGPS_LOGS>
-1.34

> <JCHEM_MDDR_LIKE_RULE>
0

> <JCHEM_NUMBER_OF_RINGS>
1

> <JCHEM_PHYSIOLOGICAL_CHARGE>
0

> <JCHEM_PKA>
11.967652229267573

> <JCHEM_PKA_STRONGEST_ACIDIC>
11.363374582059434

> <JCHEM_PKA_STRONGEST_BASIC>
0.004582313132229454

> <JCHEM_POLAR_SURFACE_AREA>
71.03

> <JCHEM_REFRACTIVITY>
60.444600000000015

> <JCHEM_ROTATABLE_BOND_COUNT>
6

> <JCHEM_RULE_OF_FIVE>
1

> <ALOGPS_SOLUBILITY>
1.33e+01 g/l

> <JCHEM_TRADITIONAL_IUPAC>
(2R,4R)-2-[bis(2-chloroethyl)amino]-4-hydroperoxy-1,3,2lambda5-oxazaphosphinan-2-one

> <JCHEM_VEBER_RULE>
0

> <DRUGBANK_ID>
DB12727

> <DRUG_GROUPS>
investigational

> <GENERIC_NAME>
Perfosfamide

> <SYNONYMS>
Perfosfamide

$$$$
