
  Mrv1909 11162200442D          

 29 32  0  0  0  0            999 V2000
    5.7158    0.0000    0.0000 C   0  0  0  0  0  0  0  0  0  0  0  0
    5.0013   -0.4125    0.0000 C   0  0  0  0  0  0  0  0  0  0  0  0
    4.2868    0.0000    0.0000 O   0  0  0  0  0  0  0  0  0  0  0  0
    3.5724   -0.4125    0.0000 C   0  0  0  0  0  0  0  0  0  0  0  0
    2.8579    0.0000    0.0000 C   0  0  0  0  0  0  0  0  0  0  0  0
    2.1434   -0.4125    0.0000 C   0  0  0  0  0  0  0  0  0  0  0  0
    1.4289   -0.0000    0.0000 C   0  0  0  0  0  0  0  0  0  0  0  0
    0.7145   -0.4125    0.0000 N   0  0  0  0  0  0  0  0  0  0  0  0
    0.7145   -1.2375    0.0000 C   0  0  0  0  0  0  0  0  0  0  0  0
    1.3819   -1.7224    0.0000 N   0  0  0  0  0  0  0  0  0  0  0  0
    1.1270   -2.5070    0.0000 C   0  0  0  0  0  0  0  0  0  0  0  0
    0.3020   -2.5070    0.0000 C   0  0  0  0  0  0  0  0  0  0  0  0
    0.0470   -1.7224    0.0000 O   0  0  0  0  0  0  0  0  0  0  0  0
   -0.1830   -3.1745    0.0000 C   0  0  0  0  0  0  0  0  0  0  0  0
    0.1526   -3.9282    0.0000 C   0  0  0  0  0  0  0  0  0  0  0  0
   -0.3323   -4.5956    0.0000 C   0  0  0  0  0  0  0  0  0  0  0  0
   -1.1528   -4.5094    0.0000 C   0  0  0  0  0  0  0  0  0  0  0  0
   -1.4884   -3.7557    0.0000 C   0  0  0  0  0  0  0  0  0  0  0  0
   -1.0034   -3.0882    0.0000 C   0  0  0  0  0  0  0  0  0  0  0  0
   -1.6377   -5.1768    0.0000 N   0  0  0  0  0  0  0  0  0  0  0  0
   -1.3828   -5.9614    0.0000 C   0  0  0  0  0  0  0  0  0  0  0  0
   -2.0502   -6.4463    0.0000 C   0  0  0  0  0  0  0  0  0  0  0  0
   -2.7177   -5.9614    0.0000 N   0  0  0  0  0  0  0  0  0  0  0  0
   -2.4627   -5.1768    0.0000 C   0  0  0  0  0  0  0  0  0  0  0  0
   -2.9476   -4.5094    0.0000 O   0  0  0  0  0  0  0  0  0  0  0  0
    1.4289    0.8250    0.0000 C   0  0  0  0  0  0  0  0  0  0  0  0
    0.7145    1.2375    0.0000 C   0  0  0  0  0  0  0  0  0  0  0  0
    2.1434    1.2375    0.0000 C   0  0  0  0  0  0  0  0  0  0  0  0
    2.8579    0.8250    0.0000 C   0  0  0  0  0  0  0  0  0  0  0  0
  1  2  1  0  0  0  0
  2  3  1  0  0  0  0
  3  4  1  0  0  0  0
  4  5  1  0  0  0  0
  5  6  2  0  0  0  0
  6  7  1  0  0  0  0
  7  8  1  0  0  0  0
  8  9  1  0  0  0  0
  9 10  2  0  0  0  0
 10 11  1  0  0  0  0
 11 12  2  0  0  0  0
 12 13  1  0  0  0  0
  9 13  1  0  0  0  0
 12 14  1  0  0  0  0
 14 15  2  0  0  0  0
 15 16  1  0  0  0  0
 16 17  2  0  0  0  0
 17 18  1  0  0  0  0
 18 19  2  0  0  0  0
 14 19  1  0  0  0  0
 17 20  1  0  0  0  0
 20 21  1  0  0  0  0
 21 22  1  0  0  0  0
 22 23  1  0  0  0  0
 23 24  1  0  0  0  0
 20 24  1  0  0  0  0
 24 25  2  0  0  0  0
  7 26  2  0  0  0  0
 26 27  1  0  0  0  0
 26 28  1  0  0  0  0
 28 29  2  0  0  0  0
  5 29  1  0  0  0  0
M  END
> <DATABASE_ID>
DB17115

> <DATABASE_NAME>
drugbank

> <SMILES>
CCOCC1=CC(NC2=NC=C(O2)C2=CC=C(C=C2)N2CCNC2=O)=C(C)C=C1

> <INCHI_IDENTIFIER>
InChI=1S/C22H24N4O3/c1-3-28-14-16-5-4-15(2)19(12-16)25-21-24-13-20(29-21)17-6-8-18(9-7-17)26-11-10-23-22(26)27/h4-9,12-13H,3,10-11,14H2,1-2H3,(H,23,27)(H,24,25)

> <INCHI_KEY>
ZBAFYGYLXHEICJ-UHFFFAOYSA-N

> <FORMULA>
C22H24N4O3

> <MOLECULAR_WEIGHT>
392.459

> <EXACT_MASS>
392.184840649

> <JCHEM_ACCEPTOR_COUNT>
4

> <JCHEM_ATOM_COUNT>
53

> <JCHEM_AVERAGE_NEUTRAL_MICROSPECIES_CHARGE>
0.7531973980045573

> <JCHEM_AVERAGE_POLARIZABILITY>
43.451635031852824

> <JCHEM_BIOAVAILABILITY>
1

> <JCHEM_DONOR_COUNT>
2

> <JCHEM_FORMAL_CHARGE>
0

> <JCHEM_GHOSE_FILTER>
1

> <JCHEM_IUPAC>
1-[4-(2-{[5-(ethoxymethyl)-2-methylphenyl]amino}-1,3-oxazol-5-yl)phenyl]imidazolidin-2-one

> <ALOGPS_LOGP>
3.57

> <JCHEM_LOGP>
3.1729275716666674

> <ALOGPS_LOGS>
-3.73

> <JCHEM_MDDR_LIKE_RULE>
1

> <JCHEM_NEUTRAL_CHARGE>
0

> <JCHEM_NUMBER_OF_RINGS>
4

> <JCHEM_PHYSIOLOGICAL_CHARGE>
0

> <JCHEM_PKA>
15.828575624914716

> <JCHEM_PKA_STRONGEST_ACIDIC>
15.168083672186247

> <JCHEM_PKA_STRONGEST_BASIC>
0.48394519819540394

> <JCHEM_POLAR_SURFACE_AREA>
79.63

> <JCHEM_REFRACTIVITY>
110.68079999999999

> <JCHEM_ROTATABLE_BOND_COUNT>
7

> <JCHEM_RULE_OF_FIVE>
1

> <ALOGPS_SOLUBILITY>
7.26e-02 g/l

> <JCHEM_TRADITIONAL_IUPAC>
1-[4-(2-{[5-(ethoxymethyl)-2-methylphenyl]amino}-1,3-oxazol-5-yl)phenyl]imidazolidin-2-one

> <JCHEM_VEBER_RULE>
0

> <DRUGBANK_ID>
DB17115

> <DRUG_GROUPS>
investigational

> <GENERIC_NAME>
AB-8939

> <SYNONYMS>
1-(4-(2-(5-ethoxymethyl-2-methyl-phenylamino)-oxazol-5-yl)-phenyl)-imidazolidin-2-one; 2-imidazolidinone, 1-(4-(2-((5-(ethoxymethyl)-2-methylphenyl)amino)-5-oxazolyl)phenyl)-

$$$$
