
  Mrv1909 03022014552D          

 44 45  0  0  0  0            999 V2000
   -2.7327   -0.9646    0.0000 C   0  0  0  0  0  0  0  0  0  0  0  0
   -2.7338   -1.7919    0.0000 C   0  0  0  0  0  0  0  0  0  0  0  0
   -2.0189   -2.2048    0.0000 C   0  0  0  0  0  0  0  0  0  0  0  0
   -1.3025   -1.7915    0.0000 C   0  0  0  0  0  0  0  0  0  0  0  0
   -1.3053   -0.9609    0.0000 C   0  0  0  0  0  0  0  0  0  0  0  0
   -2.0207   -0.5518    0.0000 C   0  0  0  0  0  0  0  0  0  0  0  0
   -2.0271   -3.0271    0.0000 C   0  0  0  0  0  0  0  0  0  0  0  0
   -2.7437   -3.4354    0.0000 N   0  0  0  0  0  0  0  0  0  0  0  0
   -1.3146   -3.4395    0.0000 N   0  0  0  0  0  0  0  0  0  0  0  0
   -0.5936   -0.5437    0.0000 C   0  0  0  0  0  0  0  0  0  0  0  0
   -0.5978    0.2812    0.0000 C   0  0  2  0  0  0  0  0  0  0  0  0
   -1.3146    0.6937    0.0000 N   0  0  0  0  0  0  0  0  0  0  0  0
   -2.0312    0.2854    0.0000 S   0  0  0  0  0  0  0  0  0  0  0  0
   -1.6229   -0.4270    0.0000 O   0  0  0  0  0  0  0  0  0  0  0  0
   -2.6186   -0.2978    0.0000 O   0  0  0  0  0  0  0  0  0  0  0  0
    0.1146    0.6979    0.0000 C   0  0  0  0  0  0  0  0  0  0  0  0
    0.1104    1.5228    0.0000 O   0  0  0  0  0  0  0  0  0  0  0  0
    0.8271    0.2854    0.0000 N   0  0  0  0  0  0  0  0  0  0  0  0
    0.8241   -0.5387    0.0000 C   0  0  0  0  0  0  0  0  0  0  0  0
    1.5325   -0.9511    0.0000 C   0  0  0  0  0  0  0  0  0  0  0  0
    2.2484   -0.5439    0.0000 N   0  0  0  0  0  0  0  0  0  0  0  0
    2.2514    0.2803    0.0000 C   0  0  0  0  0  0  0  0  0  0  0  0
    1.5385    0.6972    0.0000 C   0  0  0  0  0  0  0  0  0  0  0  0
    2.9604   -0.9563    0.0000 C   0  0  0  0  0  0  0  0  0  0  0  0
    2.9563   -1.7813    0.0000 O   0  0  0  0  0  0  0  0  0  0  0  0
    3.6729   -0.5395    0.0000 O   0  0  0  0  0  0  0  0  0  0  0  0
    4.3854   -0.9520    0.0000 C   0  0  0  0  0  0  0  0  0  0  0  0
    5.0979   -0.5353    0.0000 C   0  0  0  0  0  0  0  0  0  0  0  0
   -2.6186    0.8728    0.0000 C   0  0  0  0  0  0  0  0  0  0  0  0
   -2.4006    1.6758    0.0000 C   0  0  0  0  0  0  0  0  0  0  0  0
   -2.9874    2.2629    0.0000 C   0  0  0  0  0  0  0  0  0  0  0  0
   -3.7909    2.0480    0.0000 C   0  0  0  0  0  0  0  0  0  0  0  0
   -4.0045    1.2407    0.0000 C   0  0  0  0  0  0  0  0  0  0  0  0
   -3.4953    0.7237    0.0000 C   0  0  0  0  0  0  0  0  0  0  0  0
   -1.6895    2.0937    0.0000 C   0  0  0  0  0  0  0  0  0  0  0  0
   -1.4771    2.8936    0.0000 C   0  0  0  0  0  0  0  0  0  0  0  0
   -1.1062    1.5104    0.0000 C   0  0  0  0  0  0  0  0  0  0  0  0
   -4.3812    2.6396    0.0000 C   0  0  0  0  0  0  0  0  0  0  0  0
   -5.0979    2.2312    0.0000 C   0  0  0  0  0  0  0  0  0  0  0  0
   -4.1687    3.4395    0.0000 C   0  0  0  0  0  0  0  0  0  0  0  0
   -3.8145    0.0687    0.0000 C   0  0  0  0  0  0  0  0  0  0  0  0
   -4.5896   -0.0312    0.0000 C   0  0  0  0  0  0  0  0  0  0  0  0
   -3.7104   -0.6062    0.0000 C   0  0  0  0  0  0  0  0  0  0  0  0
    2.1354   -3.1563    0.0000 Cl  0  0  0  0  0  0  0  0  0  0  0  0
 18 23  1  0  0  0  0
 19 20  1  0  0  0  0
 20 21  1  0  0  0  0
 21 22  1  0  0  0  0
 22 23  1  0  0  0  0
 11 10  1  6  0  0  0
 21 24  1  0  0  0  0
 24 25  2  0  0  0  0
 11 12  1  0  0  0  0
 24 26  1  0  0  0  0
  5  6  2  0  0  0  0
 26 27  1  0  0  0  0
 12 13  1  0  0  0  0
 27 28  1  0  0  0  0
  6  1  1  0  0  0  0
 13 29  1  0  0  0  0
 13 14  2  0  0  0  0
 29 30  2  0  0  0  0
  2  3  1  0  0  0  0
 30 31  1  0  0  0  0
 13 15  2  0  0  0  0
 31 32  2  0  0  0  0
  3  7  1  0  0  0  0
 32 33  1  0  0  0  0
 11 16  1  0  0  0  0
 33 34  2  0  0  0  0
 34 29  1  0  0  0  0
 30 35  1  0  0  0  0
 16 17  2  0  0  0  0
 35 36  1  0  0  0  0
  7  8  2  0  0  0  0
 35 37  1  0  0  0  0
 16 18  1  0  0  0  0
 32 38  1  0  0  0  0
 18 19  1  0  0  0  0
 38 39  1  0  0  0  0
  3  4  2  0  0  0  0
 38 40  1  0  0  0  0
  7  9  1  0  0  0  0
 34 41  1  0  0  0  0
  1  2  2  0  0  0  0
 41 42  1  0  0  0  0
  5 10  1  0  0  0  0
 41 43  1  0  0  0  0
  4  5  1  0  0  0  0
M  END
> <DATABASE_ID>
DB05476

> <DATABASE_NAME>
drugbank

> <SMILES>
Cl.CCOC(=O)N1CCN(CC1)C(=O)[C@H](CC1=CC=CC(=C1)C(N)=N)NS(=O)(=O)C1=C(C=C(C=C1C(C)C)C(C)C)C(C)C

> <INCHI_IDENTIFIER>
InChI=1S/C32H47N5O5S.ClH/c1-8-42-32(39)37-14-12-36(13-15-37)31(38)28(17-23-10-9-11-24(16-23)30(33)34)35-43(40,41)29-26(21(4)5)18-25(20(2)3)19-27(29)22(6)7;/h9-11,16,18-22,28,35H,8,12-15,17H2,1-7H3,(H3,33,34);1H/t28-;/m0./s1

> <INCHI_KEY>
FMHIVIJVVYYSRN-JCOPYZAKSA-N

> <FORMULA>
C32H48ClN5O5S

> <MOLECULAR_WEIGHT>
650.28

> <EXACT_MASS>
649.3064685

> <JCHEM_ACCEPTOR_COUNT>
6

> <JCHEM_ATOM_COUNT>
92

> <JCHEM_AVERAGE_NEUTRAL_MICROSPECIES_CHARGE>
0.999687040491198

> <JCHEM_AVERAGE_POLARIZABILITY>
68.31279021198124

> <JCHEM_BIOAVAILABILITY>
0

> <JCHEM_DONOR_COUNT>
3

> <JCHEM_FORMAL_CHARGE>
0

> <JCHEM_GHOSE_FILTER>
0

> <JCHEM_IUPAC>
ethyl 4-[(2S)-3-(3-carbamimidoylphenyl)-2-[2,4,6-tris(propan-2-yl)benzenesulfonamido]propanoyl]piperazine-1-carboxylate hydrochloride

> <ALOGPS_LOGP>
3.02

> <JCHEM_LOGP>
4.4403129814319495

> <ALOGPS_LOGS>
-5.12

> <JCHEM_MDDR_LIKE_RULE>
1

> <JCHEM_NEUTRAL_CHARGE>
1

> <JCHEM_NUMBER_OF_RINGS>
3

> <JCHEM_PHYSIOLOGICAL_CHARGE>
1

> <JCHEM_PKA>
15.52960969575761

> <JCHEM_PKA_STRONGEST_ACIDIC>
10.549209463980288

> <JCHEM_PKA_STRONGEST_BASIC>
11.513067799015086

> <JCHEM_POLAR_SURFACE_AREA>
145.88999999999996

> <JCHEM_REFRACTIVITY>
180.86410000000006

> <JCHEM_ROTATABLE_BOND_COUNT>
11

> <JCHEM_RULE_OF_FIVE>
0

> <ALOGPS_SOLUBILITY>
4.62e-03 g/l

> <JCHEM_TRADITIONAL_IUPAC>
(1S,3aS,3bS,10R,11aS)-10-(2H-1,3-benzodioxol-5-yl)-1-hydroxy-11a-methyl-1-(prop-1-yn-1-yl)-2H,3H,3aH,3bH,4H,5H,8H,9H,10H,11H-cyclopenta[a]phenanthren-7-one

> <JCHEM_VEBER_RULE>
0

> <DRUGBANK_ID>
DB05476

> <DRUG_GROUPS>
investigational

> <GENERIC_NAME>
WX-UK1

$$$$
