
  Mrv1652310201623312D          

 30 34  0  0  0  0            999 V2000
    6.7596   -3.7394    0.0000 C   0  0  0  0  0  0  0  0  0  0  0  0
    6.4557   -2.9724    0.0000 C   0  0  0  0  0  0  0  0  0  0  0  0
    6.9679   -2.3257    0.0000 C   0  0  0  0  0  0  0  0  0  0  0  0
    7.7841   -2.4460    0.0000 C   0  0  0  0  0  0  0  0  0  0  0  0
    8.0880   -3.2129    0.0000 C   0  0  0  0  0  0  0  0  0  0  0  0
    7.5758   -3.8596    0.0000 C   0  0  0  0  0  0  0  0  0  0  0  0
    8.2963   -1.7992    0.0000 F   0  0  0  0  0  0  0  0  0  0  0  0
    6.6639   -1.5588    0.0000 N   0  0  0  0  0  0  0  0  0  0  0  0
    5.8648   -1.3539    0.0000 N   0  0  0  0  0  0  0  0  0  0  0  0
    5.8127   -0.5305    0.0000 C   0  0  0  0  0  0  0  0  0  0  0  0
    6.5797   -0.2265    0.0000 C   0  0  0  0  0  0  0  0  0  0  0  0
    7.1058   -0.8620    0.0000 C   0  0  0  0  0  0  0  0  0  0  0  0
    5.1160   -0.0887    0.0000 N   0  0  0  0  0  0  0  0  0  0  0  0
    4.3850   -0.4711    0.0000 C   0  0  0  0  0  0  0  0  0  0  0  0
    4.3507   -1.2954    0.0000 O   0  0  0  0  0  0  0  0  0  0  0  0
    3.6883   -0.0293    0.0000 C   0  0  1  0  0  0  0  0  0  0  0  0
    2.9573   -0.4118    0.0000 C   0  0  0  0  0  0  0  0  0  0  0  0
    2.2606    0.0300    0.0000 C   0  0  0  0  0  0  0  0  0  0  0  0
    2.2948    0.8543    0.0000 C   0  0  1  0  0  0  0  0  0  0  0  0
    2.2428    1.6777    0.0000 O   0  0  0  0  0  0  0  0  0  0  0  0
    1.4436    1.8826    0.0000 C   0  0  0  0  0  0  0  0  0  0  0  0
    1.1396    2.6495    0.0000 O   0  0  0  0  0  0  0  0  0  0  0  0
    1.0018    1.1859    0.0000 C   0  0  0  0  0  0  0  0  0  0  0  0
    1.5279    0.5504    0.0000 C   0  0  0  0  0  0  0  0  0  0  0  0
    1.2406   -0.2230    0.0000 C   0  0  0  0  0  0  0  0  0  0  0  0
    0.4272   -0.3609    0.0000 N   0  0  0  0  0  0  0  0  0  0  0  0
   -0.0989    0.2746    0.0000 C   0  0  0  0  0  0  0  0  0  0  0  0
    0.1884    1.0480    0.0000 C   0  0  0  0  0  0  0  0  0  0  0  0
    3.0258    1.2368    0.0000 C   0  0  0  0  0  0  0  0  0  0  0  0
    3.7225    0.7950    0.0000 C   0  0  0  0  0  0  0  0  0  0  0  0
  1  2  2  0  0  0  0
  2  3  1  0  0  0  0
  3  4  2  0  0  0  0
  4  5  1  0  0  0  0
  5  6  2  0  0  0  0
  1  6  1  0  0  0  0
  4  7  1  0  0  0  0
  3  8  1  0  0  0  0
  8  9  1  0  0  0  0
  9 10  2  0  0  0  0
 10 11  1  0  0  0  0
 11 12  2  0  0  0  0
  8 12  1  0  0  0  0
 10 13  1  0  0  0  0
 13 14  1  0  0  0  0
 14 15  2  0  0  0  0
 16 14  1  1  0  0  0
 16 17  1  0  0  0  0
 17 18  1  0  0  0  0
 18 19  1  0  0  0  0
 19 20  1  6  0  0  0
 20 21  1  0  0  0  0
 21 22  2  0  0  0  0
 21 23  1  0  0  0  0
 23 24  2  0  0  0  0
 19 24  1  0  0  0  0
 24 25  1  0  0  0  0
 25 26  2  0  0  0  0
 26 27  1  0  0  0  0
 27 28  2  0  0  0  0
 23 28  1  0  0  0  0
 19 29  1  0  0  0  0
 29 30  1  0  0  0  0
 16 30  1  0  0  0  0
M  END
> <DATABASE_ID>
DB12168

> <DATABASE_NAME>
drugbank

> <SMILES>
FC1=C(C=CC=C1)N1C=CC(NC(=O)[C@H]2CC[C@@]3(CC2)OC(=O)C2=C3C=NC=C2)=N1

> <INCHI_IDENTIFIER>
InChI=1S/C22H19FN4O3/c23-17-3-1-2-4-18(17)27-12-8-19(26-27)25-20(28)14-5-9-22(10-6-14)16-13-24-11-7-15(16)21(29)30-22/h1-4,7-8,11-14H,5-6,9-10H2,(H,25,26,28)/t14-,22-

> <INCHI_KEY>
RMYZIRFUCOMQRH-CAJLXGCNSA-N

> <FORMULA>
C22H19FN4O3

> <MOLECULAR_WEIGHT>
406.417

> <EXACT_MASS>
406.144118651

> <JCHEM_ACCEPTOR_COUNT>
4

> <JCHEM_ATOM_COUNT>
49

> <JCHEM_AVERAGE_POLARIZABILITY>
41.39506836956694

> <JCHEM_BIOAVAILABILITY>
1

> <JCHEM_DONOR_COUNT>
1

> <JCHEM_FORMAL_CHARGE>
0

> <JCHEM_GHOSE_FILTER>
1

> <JCHEM_IUPAC>
(1r,4r)-N-[1-(2-fluorophenyl)-1H-pyrazol-3-yl]-1'-oxo-1'H-spiro[cyclohexane-1,3'-furo[3,4-c]pyridine]-4-carboxamide

> <ALOGPS_LOGP>
2.96

> <JCHEM_LOGP>
3.5133412833333333

> <ALOGPS_LOGS>
-4.50

> <JCHEM_MDDR_LIKE_RULE>
0

> <JCHEM_NUMBER_OF_RINGS>
5

> <JCHEM_PHYSIOLOGICAL_CHARGE>
0

> <JCHEM_PKA_STRONGEST_ACIDIC>
11.54600924703623

> <JCHEM_PKA_STRONGEST_BASIC>
3.032598889025635

> <JCHEM_POLAR_SURFACE_AREA>
86.11

> <JCHEM_REFRACTIVITY>
108.79359999999996

> <JCHEM_ROTATABLE_BOND_COUNT>
3

> <JCHEM_RULE_OF_FIVE>
1

> <ALOGPS_SOLUBILITY>
1.30e-02 g/l

> <JCHEM_TRADITIONAL_IUPAC>
(1r,4r)-N-[1-(2-fluorophenyl)pyrazol-3-yl]-1'-oxospiro[cyclohexane-1,3'-furo[3,4-c]pyridine]-4-carboxamide

> <JCHEM_VEBER_RULE>
0

> <DRUGBANK_ID>
DB12168

> <DRUG_GROUPS>
investigational

> <GENERIC_NAME>
MK-0557

$$$$
