
  Mrv1652306031606262D          

 20 21  0  0  0  0            999 V2000
   -2.8579    0.8250    0.0000 C   0  0  0  0  0  0  0  0  0  0  0  0
    5.0013    1.2375    0.0000 C   0  0  0  0  0  0  0  0  0  0  0  0
    4.2868    0.0000    0.0000 C   0  0  0  0  0  0  0  0  0  0  0  0
   -2.1434    1.2375    0.0000 C   0  0  0  0  0  0  0  0  0  0  0  0
   -1.4289    0.8250    0.0000 C   0  0  0  0  0  0  0  0  0  0  0  0
    1.4289   -1.6500    0.0000 C   0  0  0  0  0  0  0  0  0  0  0  0
    2.1434   -1.2375    0.0000 C   0  0  0  0  0  0  0  0  0  0  0  0
    0.7145   -1.2375    0.0000 C   0  0  0  0  0  0  0  0  0  0  0  0
   -0.7145    1.2375    0.0000 C   0  0  0  0  0  0  0  0  0  0  0  0
    2.1434   -0.4125    0.0000 C   0  0  0  0  0  0  0  0  0  0  0  0
    3.5724    1.2375    0.0000 C   0  0  0  0  0  0  0  0  0  0  0  0
    2.8579    0.8250    0.0000 C   0  0  0  0  0  0  0  0  0  0  0  0
   -0.0000    0.0000    0.0000 C   0  0  0  0  0  0  0  0  0  0  0  0
    0.7145   -0.4125    0.0000 C   0  0  0  0  0  0  0  0  0  0  0  0
   -0.0000    0.8250    0.0000 C   0  0  0  0  0  0  0  0  0  0  0  0
    1.4289    0.0000    0.0000 C   0  0  0  0  0  0  0  0  0  0  0  0
    1.4289    0.8250    0.0000 C   0  0  0  0  0  0  0  0  0  0  0  0
    0.7145    1.2375    0.0000 N   0  0  0  0  0  0  0  0  0  0  0  0
    4.2868    0.8250    0.0000 N   0  0  0  0  0  0  0  0  0  0  0  0
    2.1434    1.2375    0.0000 O   0  0  0  0  0  0  0  0  0  0  0  0
  4  1  1  0  0  0  0
  5  4  1  0  0  0  0
  7  6  2  0  0  0  0
  8  6  1  0  0  0  0
  9  5  1  0  0  0  0
 10  7  1  0  0  0  0
 12 11  1  0  0  0  0
 14  8  2  0  0  0  0
 14 13  1  0  0  0  0
 15  9  1  0  0  0  0
 15 13  2  0  0  0  0
 16 10  2  0  0  0  0
 16 14  1  0  0  0  0
 17 16  1  0  0  0  0
 18 15  1  0  0  0  0
 18 17  2  0  0  0  0
 19  2  1  0  0  0  0
 19  3  1  0  0  0  0
 19 11  1  0  0  0  0
 20 12  1  0  0  0  0
 20 17  1  0  0  0  0
M  END
> <DATABASE_ID>
DB13683

> <DATABASE_NAME>
drugbank

> <SMILES>
CCCCC1=CC2=CC=CC=C2C(OCCN(C)C)=N1

> <INCHI_IDENTIFIER>
InChI=1S/C17H24N2O/c1-4-5-9-15-13-14-8-6-7-10-16(14)17(18-15)20-12-11-19(2)3/h6-8,10,13H,4-5,9,11-12H2,1-3H3

> <INCHI_KEY>
XNMYNYSCEJBRPZ-UHFFFAOYSA-N

> <FORMULA>
C17H24N2O

> <MOLECULAR_WEIGHT>
272.392

> <EXACT_MASS>
272.188863401

> <JCHEM_ACCEPTOR_COUNT>
3

> <JCHEM_ATOM_COUNT>
44

> <JCHEM_AVERAGE_POLARIZABILITY>
32.98662958732284

> <JCHEM_BIOAVAILABILITY>
1

> <JCHEM_DONOR_COUNT>
0

> <JCHEM_FORMAL_CHARGE>
0

> <JCHEM_GHOSE_FILTER>
1

> <JCHEM_IUPAC>
{2-[(3-butylisoquinolin-1-yl)oxy]ethyl}dimethylamine

> <ALOGPS_LOGP>
3.91

> <JCHEM_LOGP>
3.9215242783333344

> <ALOGPS_LOGS>
-3.62

> <JCHEM_MDDR_LIKE_RULE>
0

> <JCHEM_NUMBER_OF_RINGS>
2

> <JCHEM_PHYSIOLOGICAL_CHARGE>
1

> <JCHEM_PKA_STRONGEST_BASIC>
8.63764975295575

> <JCHEM_POLAR_SURFACE_AREA>
25.360000000000003

> <JCHEM_REFRACTIVITY>
83.5675

> <JCHEM_ROTATABLE_BOND_COUNT>
7

> <JCHEM_RULE_OF_FIVE>
1

> <ALOGPS_SOLUBILITY>
6.55e-02 g/l

> <JCHEM_TRADITIONAL_IUPAC>
quinisocaine

> <JCHEM_VEBER_RULE>
1

> <DRUGBANK_ID>
DB13683

> <DRUG_GROUPS>
experimental

> <GENERIC_NAME>
Quinisocaine

> <SYNONYMS>
Dimethisoquin; Quinisocaine

$$$$
