
  Mrv1909 07102021182D          

  1  0  0  0  0  0            999 V2000
    0.0000    0.0000    0.0000 Cd  0  0  0  0  0  0  0  0  0  0  0  0
M  END
> <DATABASE_ID>
DB14085

> <DATABASE_NAME>
drugbank

> <SMILES>
[Cd]

> <INCHI_IDENTIFIER>
InChI=1S/Cd

> <INCHI_KEY>
BDOSMKKIYDKNTQ-UHFFFAOYSA-N

> <FORMULA>
Cd

> <MOLECULAR_WEIGHT>
112.411

> <EXACT_MASS>
113.903358121

> <JCHEM_ACCEPTOR_COUNT>
0

> <JCHEM_ATOM_COUNT>
1

> <JCHEM_AVERAGE_NEUTRAL_MICROSPECIES_CHARGE>
0.0

> <JCHEM_AVERAGE_POLARIZABILITY>
1.7784

> <JCHEM_BIOAVAILABILITY>
1

> <JCHEM_DONOR_COUNT>
0

> <JCHEM_FORMAL_CHARGE>
0

> <JCHEM_GHOSE_FILTER>
0

> <JCHEM_IUPAC>
cadmium

> <ALOGPS_LOGP>
-1.31

> <JCHEM_LOGP>
-0.07

> <ALOGPS_LOGS>
1.08

> <JCHEM_MDDR_LIKE_RULE>
0

> <JCHEM_NEUTRAL_CHARGE>
0

> <JCHEM_NUMBER_OF_RINGS>
0

> <JCHEM_PHYSIOLOGICAL_CHARGE>
0

> <JCHEM_POLAR_SURFACE_AREA>
0.0

> <JCHEM_REFRACTIVITY>
0.0

> <JCHEM_ROTATABLE_BOND_COUNT>
0

> <JCHEM_RULE_OF_FIVE>
1

> <ALOGPS_SOLUBILITY>
0.00e+00 g/l

> <JCHEM_TRADITIONAL_IUPAC>
ethane

> <JCHEM_VEBER_RULE>
1

> <DRUGBANK_ID>
DB14085

> <DRUG_GROUPS>
experimental

> <GENERIC_NAME>
Cadmium

> <SYNONYMS>
cadmio; Cadmium metal; Cadmium metallicum; Cadmium, elemental; Colloidal cadmium; Elemental cadmium; Kadmium

$$$$
