
  Mrv1718012141812222D          

 34 37  0  0  0  0            999 V2000
    1.4568    1.0145    0.0000 C   0  0  0  0  0  0  0  0  0  0  0  0
    1.4568    0.1895    0.0000 C   0  0  0  0  0  0  0  0  0  0  0  0
    0.7447   -0.2188    0.0000 S   0  0  0  0  0  0  0  0  0  0  0  0
    0.7447    1.4311    0.0000 C   0  0  0  0  0  0  0  0  0  0  0  0
    2.1724    1.4249    0.0000 C   0  0  0  0  0  0  0  0  0  0  0  0
    2.8857    1.0103    0.0000 S   0  0  0  0  0  0  0  0  0  0  0  0
    0.7466    2.2572    0.0000 C   0  0  0  0  0  0  0  0  0  0  0  0
    0.0322    2.6697    0.0000 O   0  0  0  0  0  0  0  0  0  0  0  0
    1.4611    2.6697    0.0000 O   0  0  0  0  0  0  0  0  0  0  0  0
    0.0327    1.0145    0.0000 N   0  0  0  0  0  0  0  0  0  0  0  0
    0.0363    0.1895    0.0000 C   0  0  1  0  0  0  0  0  0  0  0  0
   -0.7875    0.1851    0.0000 C   0  0  1  0  0  0  0  0  0  0  0  0
   -0.7921    1.0109    0.0000 C   0  0  0  0  0  0  0  0  0  0  0  0
   -1.2014   -0.5285    0.0000 N   0  0  0  0  0  0  0  0  0  0  0  0
    3.6014    1.4207    0.0000 C   0  0  0  0  0  0  0  0  0  0  0  0
    3.6927    2.2438    0.0000 N   0  0  0  0  0  0  0  0  0  0  0  0
    4.5001    2.4130    0.0000 N   0  0  0  0  0  0  0  0  0  0  0  0
    4.9106    1.6973    0.0000 N   0  0  0  0  0  0  0  0  0  0  0  0
    4.3567    1.0859    0.0000 N   0  0  0  0  0  0  0  0  0  0  0  0
    4.5275    0.2788    0.0000 C   0  0  0  0  0  0  0  0  0  0  0  0
   -1.3780    1.5917    0.0000 O   0  0  0  0  0  0  0  0  0  0  0  0
   -2.0263   -0.5270    0.0000 C   0  0  0  0  0  0  0  0  0  0  0  0
   -2.4402   -1.2407    0.0000 C   0  0  2  0  0  0  0  0  0  0  0  0
   -2.4375    0.1881    0.0000 O   0  0  0  0  0  0  0  0  0  0  0  0
   -2.0290   -1.9559    0.0000 O   0  0  0  0  0  0  0  0  0  0  0  0
   -3.2653   -1.2392    0.0000 C   0  0  0  0  0  0  0  0  0  0  0  0
   -3.6743   -1.9558    0.0000 C   0  0  0  0  0  0  0  0  0  0  0  0
   -4.4986   -1.9546    0.0000 C   0  0  0  0  0  0  0  0  0  0  0  0
   -4.9105   -1.2389    0.0000 C   0  0  0  0  0  0  0  0  0  0  0  0
   -4.4924   -0.5228    0.0000 C   0  0  0  0  0  0  0  0  0  0  0  0
   -3.6695   -0.5275    0.0000 C   0  0  0  0  0  0  0  0  0  0  0  0
   -2.4429   -2.6697    0.0000 C   0  0  0  0  0  0  0  0  0  0  0  0
   -3.2678   -2.6681    0.0000 O   0  0  0  0  0  0  0  0  0  0  0  0
    0.0443   -0.6313    0.0000 H   0  0  0  0  0  0  0  0  0  0  0  0
  7  8  1  0  0  0  0
  7  9  2  0  0  0  0
 16 17  1  0  0  0  0
 17 18  2  0  0  0  0
 18 19  1  0  0  0  0
 19 15  1  0  0  0  0
  4  7  1  0  0  0  0
 19 20  1  0  0  0  0
 10 11  1  0  0  0  0
 13 21  2  0  0  0  0
 10  4  1  0  0  0  0
 14 22  1  0  0  0  0
 22 23  1  0  0  0  0
  1  5  1  0  0  0  0
 22 24  2  0  0  0  0
  1  2  1  0  0  0  0
 23 25  1  6  0  0  0
 11 12  1  0  0  0  0
 23 26  1  0  0  0  0
 12 13  1  0  0  0  0
 26 27  2  0  0  0  0
 13 10  1  0  0  0  0
 27 28  1  0  0  0  0
  5  6  1  0  0  0  0
 28 29  2  0  0  0  0
 12 14  1  6  0  0  0
 29 30  1  0  0  0  0
  1  4  2  0  0  0  0
 30 31  2  0  0  0  0
 31 26  1  0  0  0  0
  6 15  1  0  0  0  0
 25 32  1  0  0  0  0
 15 16  2  0  0  0  0
 32 33  2  0  0  0  0
  2  3  1  0  0  0  0
 11 34  1  1  0  0  0
 11  3  1  0  0  0  0
M  END
> <DATABASE_ID>
DB14725

> <DATABASE_NAME>
drugbank

> <SMILES>
[H][C@]12SCC(CSC3=NN=NN3C)=C(N1C(=O)[C@H]2NC(=O)[C@H](OC=O)C1=CC=CC=C1)C(O)=O

> <INCHI_IDENTIFIER>
InChI=1S/C19H18N6O6S2/c1-24-19(21-22-23-24)33-8-11-7-32-17-12(16(28)25(17)13(11)18(29)30)20-15(27)14(31-9-26)10-5-3-2-4-6-10/h2-6,9,12,14,17H,7-8H2,1H3,(H,20,27)(H,29,30)/t12-,14-,17-/m1/s1

> <INCHI_KEY>
RRJHESVQVSRQEX-SUYBPPKGSA-N

> <FORMULA>
C19H18N6O6S2

> <MOLECULAR_WEIGHT>
490.51

> <EXACT_MASS>
490.072924672

> <JCHEM_ACCEPTOR_COUNT>
8

> <JCHEM_ATOM_COUNT>
51

> <JCHEM_AVERAGE_POLARIZABILITY>
45.27075447508427

> <JCHEM_BIOAVAILABILITY>
1

> <JCHEM_DONOR_COUNT>
2

> <JCHEM_FORMAL_CHARGE>
0

> <JCHEM_GHOSE_FILTER>
0

> <JCHEM_IUPAC>
(6R,7R)-7-[(2R)-2-(formyloxy)-2-phenylacetamido]-3-{[(1-methyl-1H-1,2,3,4-tetrazol-5-yl)sulfanyl]methyl}-8-oxo-5-thia-1-azabicyclo[4.2.0]oct-2-ene-2-carboxylic acid

> <ALOGPS_LOGP>
0.61

> <JCHEM_LOGP>
0.41951231800000033

> <ALOGPS_LOGS>
-3.33

> <JCHEM_MDDR_LIKE_RULE>
1

> <JCHEM_NUMBER_OF_RINGS>
4

> <JCHEM_PHYSIOLOGICAL_CHARGE>
-1

> <JCHEM_PKA>
11.225910572447274

> <JCHEM_PKA_STRONGEST_ACIDIC>
3.1018332148092593

> <JCHEM_PKA_STRONGEST_BASIC>
-1.666256687376535

> <JCHEM_POLAR_SURFACE_AREA>
156.60999999999999

> <JCHEM_REFRACTIVITY>
131.3065

> <JCHEM_ROTATABLE_BOND_COUNT>
9

> <JCHEM_RULE_OF_FIVE>
1

> <ALOGPS_SOLUBILITY>
2.27e-01 g/l

> <JCHEM_TRADITIONAL_IUPAC>
O-formylcefamandole

> <JCHEM_VEBER_RULE>
0

> <DRUGBANK_ID>
DB14725

> <DRUG_GROUPS>
approved

> <GENERIC_NAME>
Cefamandole nafate

> <SYNONYMS>
O-formylcefamandole

> <PRODUCTS>
Mandol Add-vantage Inj 1gm/vial; Mandol Inj 1gm/amp; Mandol Inj 2gm/amp

> <INTERNATIONAL_BRANDS>
Kefadol; Kefandol; Mandokef; Mandol

> <SALTS>
Cefamandole nafate sodium

$$$$
