
  Mrv1652306231722412D          

  1  0  0  0  0  0            999 V2000
    0.0000    0.0000    0.0000 Au  0  0  0  0  0  0  0  0  0  0  0  0
M  ISO  1   1 198
M  END
> <DATABASE_ID>
DB13427

> <DATABASE_NAME>
drugbank

> <SMILES>
[198Au]

> <INCHI_IDENTIFIER>
InChI=1S/Au/i1+1

> <INCHI_KEY>
PCHJSUWPFVWCPO-OUBTZVSYSA-N

> <FORMULA>
Au

> <MOLECULAR_WEIGHT>
197.9682

> <EXACT_MASS>
197.968225244

> <JCHEM_ACCEPTOR_COUNT>
0

> <JCHEM_ATOM_COUNT>
1

> <JCHEM_AVERAGE_POLARIZABILITY>
1.7784

> <JCHEM_BIOAVAILABILITY>
1

> <JCHEM_DONOR_COUNT>
0

> <JCHEM_FORMAL_CHARGE>
0

> <JCHEM_GHOSE_FILTER>
0

> <JCHEM_IUPAC>
(198Au)gold

> <JCHEM_LOGP>
0.029999999999999995

> <JCHEM_MDDR_LIKE_RULE>
0

> <JCHEM_NUMBER_OF_RINGS>
0

> <JCHEM_PHYSIOLOGICAL_CHARGE>
0

> <JCHEM_POLAR_SURFACE_AREA>
0.0

> <JCHEM_REFRACTIVITY>
0.0

> <JCHEM_ROTATABLE_BOND_COUNT>
0

> <JCHEM_RULE_OF_FIVE>
1

> <JCHEM_TRADITIONAL_IUPAC>
(198Au)gold

> <JCHEM_VEBER_RULE>
1

> <DRUGBANK_ID>
DB13427

> <DRUG_GROUPS>
experimental

> <GENERIC_NAME>
Gold Au-198

> <SYNONYMS>
Aureotope; Gold (198 Au); Gold (198 Au) colloidal; Gold (198Au) colloidal; Gold Au 198; Gold-198; Gold, Au-198; Gold, radioactive, colloidal

$$$$
