
  Mrv1718003261822402D          

 77 80  0  0  0  0            999 V2000
   -0.2575   -0.7810    0.0000 C   0  0  0  0  0  0  0  0  0  0  0  0
   -4.5443   -0.7810    0.0000 C   0  0  0  0  0  0  0  0  0  0  0  0
    5.4582    0.8689    0.0000 C   0  0  0  0  0  0  0  0  0  0  0  0
   -3.1153   -0.7810    0.0000 C   0  0  0  0  0  0  0  0  0  0  0  0
    3.3148   -2.0185    0.0000 C   0  0  0  0  0  0  0  0  0  0  0  0
   -3.1153   -4.0810    0.0000 C   0  0  0  0  0  0  0  0  0  0  0  0
   -6.6877   -2.8435    0.0000 C   0  0  0  0  0  0  0  0  0  0  0  0
    1.8859    0.4564    0.0000 C   0  0  0  0  0  0  0  0  0  0  0  0
   -0.2575   -3.2560    0.0000 C   0  0  0  0  0  0  0  0  0  0  0  0
    4.7437   -2.0185    0.0000 C   0  0  0  0  0  0  0  0  0  0  0  0
    3.3148    0.4564    0.0000 C   0  0  0  0  0  0  0  0  0  0  0  0
    5.4582   -1.6060    0.0000 C   0  0  0  0  0  0  0  0  0  0  0  0
    4.7437   -2.8435    0.0000 C   0  0  0  0  0  0  0  0  0  0  0  0
    3.3148   -0.3685    0.0000 C   0  0  0  0  0  0  0  0  0  0  0  0
    4.0293    0.8689    0.0000 C   0  0  0  0  0  0  0  0  0  0  0  0
   -0.9719   -2.0185    0.0000 C   0  0  0  0  0  0  0  0  0  0  0  0
   -1.6864   -1.6060    0.0000 C   0  0  0  0  0  0  0  0  0  0  0  0
   -5.2588   -2.0185    0.0000 C   0  0  0  0  0  0  0  0  0  0  0  0
   -5.9732   -1.6060    0.0000 C   0  0  0  0  0  0  0  0  0  0  0  0
    6.1727   -0.3685    0.0000 C   0  0  0  0  0  0  0  0  0  0  0  0
    3.3148   -2.8435    0.0000 C   0  0  0  0  0  0  0  0  0  0  0  0
    1.1714   -1.6060    0.0000 C   0  0  0  0  0  0  0  0  0  0  0  0
    7.8167    1.0926    0.0000 C   0  0  0  0  0  0  0  0  0  0  0  0
    3.8897    3.0214    0.0000 C   0  0  0  0  0  0  0  0  0  0  0  0
    6.6442    3.9565    0.0000 C   0  0  0  0  0  0  0  0  0  0  0  0
   -7.4022   -1.6060    0.0000 C   0  0  0  0  0  0  0  0  0  0  0  0
   -0.2575   -1.6060    0.0000 C   0  0  1  0  0  0  0  0  0  0  0  0
   -4.5443   -1.6060    0.0000 C   0  0  0  0  0  0  0  0  0  0  0  0
    6.1727    0.4564    0.0000 C   0  0  1  0  0  0  0  0  0  0  0  0
   -3.1153   -1.6060    0.0000 C   0  0  2  0  0  0  0  0  0  0  0  0
    2.6003   -1.6060    0.0000 C   0  0  2  0  0  0  0  0  0  0  0  0
   -3.1153   -3.2560    0.0000 C   0  0  0  0  0  0  0  0  0  0  0  0
    5.4582   -0.7810    0.0000 C   0  0  0  0  0  0  0  0  0  0  0  0
    4.0293   -3.2560    0.0000 C   0  0  1  0  0  0  0  0  0  0  0  0
    6.8872    0.8689    0.0000 C   0  0  0  0  0  0  0  0  0  0  0  0
    4.7437    2.9314    0.0000 C   0  0  0  0  0  0  0  0  0  0  0  0
    7.0659    3.0984    0.0000 C   0  0  0  0  0  0  0  0  0  0  0  0
   -2.4009   -2.0185    0.0000 C   0  0  0  0  0  0  0  0  0  0  0  0
    2.6003   -0.7810    0.0000 C   0  0  1  0  0  0  0  0  0  0  0  0
    0.4569   -2.0185    0.0000 C   0  0  1  0  0  0  0  0  0  0  0  0
    1.8859   -2.0185    0.0000 C   0  0  1  0  0  0  0  0  0  0  0  0
    4.0293    1.6939    0.0000 C   0  0  0  0  0  0  0  0  0  0  0  0
    2.6003   -3.2560    0.0000 C   0  0  0  0  0  0  0  0  0  0  0  0
   -3.8298   -2.0185    0.0000 C   0  0  0  0  0  0  0  0  0  0  0  0
    5.4582    3.3439    0.0000 C   0  0  0  0  0  0  0  0  0  0  0  0
    7.4784    2.3839    0.0000 C   0  0  0  0  0  0  0  0  0  0  0  0
    4.7437    2.1064    0.0000 N   0  0  0  0  0  0  0  0  0  0  0  0
    6.9263    1.7708    0.0000 N   0  0  0  0  0  0  0  0  0  0  0  0
    6.2589    2.9268    0.0000 N   0  0  0  0  0  0  0  0  0  0  0  0
   -6.6877   -2.0185    0.0000 N   0  0  0  0  0  0  0  0  0  0  0  0
   -8.1166   -2.0185    0.0000 O   0  0  0  0  0  0  0  0  0  0  0  0
   -2.4009   -2.8435    0.0000 O   0  0  0  0  0  0  0  0  0  0  0  0
    4.7437   -0.3685    0.0000 O   0  0  0  0  0  0  0  0  0  0  0  0
    4.0293   -4.0810    0.0000 O   0  0  0  0  0  0  0  0  0  0  0  0
   -1.9159   -2.6860    0.0000 O   0  0  0  0  0  0  0  0  0  0  0  0
    2.6003   -4.0810    0.0000 O   0  0  0  0  0  0  0  0  0  0  0  0
    1.8859   -0.3685    0.0000 O   0  0  0  0  0  0  0  0  0  0  0  0
    0.4569   -2.8435    0.0000 O   0  0  0  0  0  0  0  0  0  0  0  0
    3.4772    2.3070    0.0000 O   0  0  0  0  0  0  0  0  0  0  0  0
    8.1166    1.8612    0.0000 O   0  0  0  0  0  0  0  0  0  0  0  0
    5.8287    4.0810    0.0000 O   0  0  0  0  0  0  0  0  0  0  0  0
   -3.8298   -2.8435    0.0000 O   0  0  0  0  0  0  0  0  0  0  0  0
    1.8859   -2.8435    0.0000 O   0  0  0  0  0  0  0  0  0  0  0  0
    2.6003    0.8689    0.0000 H   0  0  0  0  0  0  0  0  0  0  0  0
    4.7437    0.4564    0.0000 H   0  0  0  0  0  0  0  0  0  0  0  0
   -5.2588   -2.8435    0.0000 H   0  0  0  0  0  0  0  0  0  0  0  0
   -5.9732   -0.7810    0.0000 H   0  0  0  0  0  0  0  0  0  0  0  0
   -0.9719   -1.1935    0.0000 H   0  0  0  0  0  0  0  0  0  0  0  0
   -5.2588   -1.1935    0.0000 H   0  0  0  0  0  0  0  0  0  0  0  0
    5.4582    0.0439    0.0000 H   0  0  0  0  0  0  0  0  0  0  0  0
   -2.4009   -1.1935    0.0000 H   0  0  0  0  0  0  0  0  0  0  0  0
    3.3148   -1.1935    0.0000 H   0  0  0  0  0  0  0  0  0  0  0  0
    3.3148   -3.6685    0.0000 H   0  0  0  0  0  0  0  0  0  0  0  0
    2.6003    0.0439    0.0000 H   0  0  0  0  0  0  0  0  0  0  0  0
    0.4569   -1.1935    0.0000 H   0  0  0  0  0  0  0  0  0  0  0  0
    1.8859   -1.1935    0.0000 H   0  0  0  0  0  0  0  0  0  0  0  0
   -3.8298   -1.1935    0.0000 H   0  0  0  0  0  0  0  0  0  0  0  0
 12 10  1  0  0  0  0
 13 10  1  0  0  0  0
 14 11  1  0  0  0  0
 15 11  2  0  0  0  0
 17 16  1  0  0  0  0
 19 18  2  0  0  0  0
 27  1  1  0  0  0  0
 27 16  1  0  0  0  0
 28  2  1  0  0  0  0
 28 18  1  0  0  0  0
 29  3  1  0  0  0  0
 29 20  1  0  0  0  0
 30  4  1  0  0  0  0
 31  5  1  0  0  0  0
 32  6  1  0  0  0  0
 33 12  1  0  0  0  0
 33 20  1  0  0  0  0
 34 13  1  0  0  0  0
 34 21  1  0  0  0  0
 35 23  2  0  0  0  0
 29 35  1  0  0  0  0
 36 24  2  0  0  0  0
 37 25  2  0  0  0  0
 38 17  1  0  0  0  0
 30 38  1  0  0  0  0
 39 14  1  0  0  0  0
 31 39  1  0  0  0  0
 40 22  1  0  0  0  0
 27 40  1  0  0  0  0
 41 22  1  0  0  0  0
 31 41  1  0  0  0  0
 42 15  1  0  0  0  0
 43 21  1  0  0  0  0
 44 28  1  0  0  0  0
 30 44  1  0  0  0  0
 45 36  1  0  0  0  0
 46 37  1  0  0  0  0
 47 36  1  0  0  0  0
 47 42  2  0  0  0  0
 48 35  1  0  0  0  0
 48 46  2  0  0  0  0
 49 37  1  0  0  0  0
 49 45  2  0  0  0  0
 50  7  1  0  0  0  0
 50 19  1  0  0  0  0
 50 26  1  0  0  0  0
 51 26  1  0  0  0  0
 52 32  2  0  0  0  0
 53 33  2  0  0  0  0
 34 54  1  0  0  0  0
 55 38  2  0  0  0  0
 56 43  2  0  0  0  0
 57  8  1  0  0  0  0
 39 57  1  0  0  0  0
 58  9  1  0  0  0  0
 40 58  1  0  0  0  0
 59 24  1  0  0  0  0
 59 42  1  0  0  0  0
 60 23  1  0  0  0  0
 60 46  1  0  0  0  0
 61 25  1  0  0  0  0
 61 45  1  0  0  0  0
 62 32  1  0  0  0  0
 62 44  1  0  0  0  0
 41 63  1  0  0  0  0
 63 43  1  0  0  0  0
 64 11  1  0  0  0  0
 65 15  1  0  0  0  0
 66 18  1  0  0  0  0
 19 67  1  4  0  0  0
 27 68  1  1  0  0  0
 69 28  1  0  0  0  0
 29 70  1  1  0  0  0
 30 71  1  1  0  0  0
 31 72  1  6  0  0  0
 34 73  1  1  0  0  0
 39 74  1  6  0  0  0
 40 75  1  1  0  0  0
 41 76  1  6  0  0  0
 77 44  1  0  0  0  0
M  END
> <DATABASE_ID>
DB03021

> <DATABASE_NAME>
drugbank

> <SMILES>
[H]C(=C([H])C([H])(C)C([H])(OC(C)=O)[C@]([H])(C)C(=O)CC[C@]([H])(C)[C@]([H])(C[C@]1([H])OC(=O)C[C@@]([H])(O)CCCC(=O)C[C@]([H])(C)C2=COC(=N2)C2=COC(=N2)C2=COC(=N2)\C([H])=C([H])\C[C@]([H])(OC)[C@@]1([H])C)OC)N(C)CO

> <INCHI_IDENTIFIER>
InChI=1S/C46H66N4O13/c1-27(16-17-38(55)30(4)44(62-32(6)52)28(2)18-19-50(7)26-51)40(58-9)22-41-31(5)39(57-8)14-11-15-42-47-36(24-59-42)45-49-37(25-61-45)46-48-35(23-60-46)29(3)20-33(53)12-10-13-34(54)21-43(56)63-41/h11,15,18-19,23-25,27-31,34,39-41,44,51,54H,10,12-14,16-17,20-22,26H2,1-9H3/b15-11+,19-18?/t27-,28?,29-,30+,31+,34-,39-,40-,41-,44?/m0/s1

> <INCHI_KEY>
DIOFXPZEAVIPDB-GSMFZUCRSA-N

> <FORMULA>
C46H66N4O13

> <MOLECULAR_WEIGHT>
883.0352

> <EXACT_MASS>
882.462638218

> <JCHEM_ACCEPTOR_COUNT>
12

> <JCHEM_ATOM_COUNT>
129

> <JCHEM_AVERAGE_POLARIZABILITY>
94.71921092624656

> <JCHEM_BIOAVAILABILITY>
0

> <JCHEM_DONOR_COUNT>
2

> <JCHEM_FORMAL_CHARGE>
0

> <JCHEM_GHOSE_FILTER>
0

> <JCHEM_IUPAC>
(5S,9S,10S)-11-[(10S,16S,20S,21R,22S,24E)-16-hydroxy-22-methoxy-10,21-dimethyl-12,18-dioxo-3,7,19,27-tetraoxa-29,30,31-triazatetracyclo[24.2.1.1^{2,5}.1^{6,9}]hentriaconta-1(28),2(31),4,6(30),8,24,26(29)-heptaen-20-yl]-1-[(hydroxymethyl)(methyl)amino]-10-methoxy-3,5,9-trimethyl-6-oxoundec-1-en-4-yl acetate

> <ALOGPS_LOGP>
4.52

> <JCHEM_LOGP>
5.081796094666665

> <ALOGPS_LOGS>
-4.83

> <JCHEM_MDDR_LIKE_RULE>
1

> <JCHEM_NUMBER_OF_RINGS>
4

> <JCHEM_PHYSIOLOGICAL_CHARGE>
0

> <JCHEM_PKA>
15.049205267220763

> <JCHEM_PKA_STRONGEST_ACIDIC>
14.034383603451168

> <JCHEM_PKA_STRONGEST_BASIC>
4.355351569470373

> <JCHEM_POLAR_SURFACE_AREA>
226.98999999999995

> <JCHEM_REFRACTIVITY>
251.66790000000003

> <JCHEM_ROTATABLE_BOND_COUNT>
16

> <JCHEM_RULE_OF_FIVE>
0

> <ALOGPS_SOLUBILITY>
1.32e-02 g/l

> <JCHEM_TRADITIONAL_IUPAC>
(5S,9S,10S)-11-[(10S,16S,20S,21R,22S,24E)-16-hydroxy-22-methoxy-10,21-dimethyl-12,18-dioxo-3,7,19,27-tetraoxa-29,30,31-triazatetracyclo[24.2.1.1^{2,5}.1^{6,9}]hentriaconta-1(28),2(31),4,6(30),8,24,26(29)-heptaen-20-yl]-1-[(hydroxymethyl)(methyl)amino]-10-methoxy-3,5,9-trimethyl-6-oxoundec-1-en-4-yl acetate

> <JCHEM_VEBER_RULE>
0

> <DRUGBANK_ID>
DB03021

> <SECONDARY_ACCESSION_NUMBERS>
EXPT03182

> <DRUG_GROUPS>
experimental

> <GENERIC_NAME>
Ulapualide A

$$$$
