
  Mrv1652310211604052D          

 10 11  0  0  0  0            999 V2000
   -0.0000   -0.0000    0.0000 C   0  0  0  0  0  0  0  0  0  0  0  0
   -0.4849   -0.6674    0.0000 C   0  0  0  0  0  0  0  0  0  0  0  0
   -0.0000   -1.3349    0.0000 C   0  0  0  0  0  0  0  0  0  0  0  0
   -0.2549   -2.1195    0.0000 O   0  0  0  0  0  0  0  0  0  0  0  0
    0.7846   -1.0799    0.0000 N   0  0  0  0  0  0  0  0  0  0  0  0
    0.7846   -0.2549    0.0000 C   0  0  0  0  0  0  0  0  0  0  0  0
    1.5692    0.0000    0.0000 N   0  0  0  0  0  0  0  0  0  0  0  0
    2.0542   -0.6674    0.0000 C   0  0  0  0  0  0  0  0  0  0  0  0
    2.8792   -0.6674    0.0000 O   0  0  0  0  0  0  0  0  0  0  0  0
    1.5692   -1.3349    0.0000 C   0  0  0  0  0  0  0  0  0  0  0  0
  1  2  1  0  0  0  0
  2  3  1  0  0  0  0
  3  4  2  0  0  0  0
  3  5  1  0  0  0  0
  5  6  1  0  0  0  0
  1  6  1  0  0  0  0
  6  7  1  0  0  0  0
  7  8  1  0  0  0  0
  8  9  2  0  0  0  0
  8 10  1  0  0  0  0
  5 10  1  0  0  0  0
M  END
> <DATABASE_ID>
DB13018

> <DATABASE_NAME>
drugbank

> <SMILES>
O=C1CN2C(CCC2=O)N1

> <INCHI_IDENTIFIER>
InChI=1S/C6H8N2O2/c9-5-3-8-4(7-5)1-2-6(8)10/h4H,1-3H2,(H,7,9)

> <INCHI_KEY>
XTXXOHPHLNROBN-UHFFFAOYSA-N

> <FORMULA>
C6H8N2O2

> <MOLECULAR_WEIGHT>
140.142

> <EXACT_MASS>
140.058577506

> <JCHEM_ACCEPTOR_COUNT>
2

> <JCHEM_ATOM_COUNT>
18

> <JCHEM_AVERAGE_POLARIZABILITY>
13.20638399493944

> <JCHEM_BIOAVAILABILITY>
1

> <JCHEM_DONOR_COUNT>
1

> <JCHEM_FORMAL_CHARGE>
0

> <JCHEM_GHOSE_FILTER>
0

> <JCHEM_IUPAC>
hexahydro-1H-pyrrolo[1,2-a]imidazole-2,5-dione

> <ALOGPS_LOGP>
-1.91

> <JCHEM_LOGP>
-1.5355648113333333

> <ALOGPS_LOGS>
0.08

> <JCHEM_MDDR_LIKE_RULE>
0

> <JCHEM_NUMBER_OF_RINGS>
2

> <JCHEM_PHYSIOLOGICAL_CHARGE>
0

> <JCHEM_PKA_STRONGEST_ACIDIC>
11.155102359778482

> <JCHEM_PKA_STRONGEST_BASIC>
-2.4116933696320624

> <JCHEM_POLAR_SURFACE_AREA>
49.410000000000004

> <JCHEM_REFRACTIVITY>
32.8371

> <JCHEM_ROTATABLE_BOND_COUNT>
0

> <JCHEM_RULE_OF_FIVE>
1

> <ALOGPS_SOLUBILITY>
1.69e+02 g/l

> <JCHEM_TRADITIONAL_IUPAC>
tetrahydro-1H-pyrrolo[1,2-a]imidazole-2,5-dione

> <JCHEM_VEBER_RULE>
0

> <DRUGBANK_ID>
DB13018

> <DRUG_GROUPS>
investigational

> <GENERIC_NAME>
Dimiracetam

> <SYNONYMS>
Dimiracetam

$$$$
