
  Mrv1909 12152018152D          

 65 74  0  0  1  0            999 V2000
    0.7566    2.5948    0.0000 C   0  0  0  0  0  0  0  0  0  0  0  0
    1.5636    2.4233    0.0000 C   0  0  0  0  0  0  0  0  0  0  0  0
    1.8185    1.6387    0.0000 C   0  0  0  0  0  0  0  0  0  0  0  0
    2.6255    1.4672    0.0000 C   0  0  0  0  0  0  0  0  0  0  0  0
    3.2929    1.9521    0.0000 C   0  0  0  0  0  0  0  0  0  0  0  0
    3.9604    1.4672    0.0000 N   0  0  0  0  0  0  0  0  0  0  0  0
    3.7054    0.6825    0.0000 C   0  0  0  0  0  0  0  0  0  0  0  0
    4.2575    0.0694    0.0000 C   0  0  0  0  0  0  0  0  0  0  0  0
    5.0645    0.2410    0.0000 C   0  0  0  0  0  0  0  0  0  0  0  0
    5.3194    1.0256    0.0000 C   0  0  0  0  0  0  0  0  0  0  0  0
    6.1264    1.1971    0.0000 C   0  0  0  0  0  0  0  0  0  0  0  0
    6.6784    0.5840    0.0000 O   0  0  0  0  0  0  0  0  0  0  0  0
    6.4235   -0.2006    0.0000 C   0  0  0  0  0  0  0  0  0  0  0  0
    6.9755   -0.8137    0.0000 O   0  0  0  0  0  0  0  0  0  0  0  0
    5.6165   -0.3721    0.0000 C   0  0  1  0  0  0  0  0  0  0  0  0
    5.7597   -1.1846    0.0000 O   0  0  0  0  0  0  0  0  0  0  0  0
    5.0230   -0.9452    0.0000 C   0  0  0  0  0  0  0  0  0  0  0  0
    4.2300   -0.7178    0.0000 C   0  0  0  0  0  0  0  0  0  0  0  0
    4.7674    1.6387    0.0000 C   0  0  0  0  0  0  0  0  0  0  0  0
    5.0223    2.4233    0.0000 O   0  0  0  0  0  0  0  0  0  0  0  0
    2.8804    0.6825    0.0000 C   0  0  0  0  0  0  0  0  0  0  0  0
    2.3284    0.0694    0.0000 N   0  0  0  0  0  0  0  0  0  0  0  0
    1.5214    0.2410    0.0000 C   0  0  0  0  0  0  0  0  0  0  0  0
    0.9694   -0.3721    0.0000 C   0  0  0  0  0  0  0  0  0  0  0  0
    0.1624   -0.2006    0.0000 C   0  0  0  0  0  0  0  0  0  0  0  0
   -0.0925    0.5840    0.0000 C   0  0  0  0  0  0  0  0  0  0  0  0
   -0.8995    0.7556    0.0000 O   0  0  0  0  0  0  0  0  0  0  0  0
   -1.4515    0.1425    0.0000 C   0  0  0  0  0  0  0  0  0  0  0  0
   -1.1966   -0.6422    0.0000 O   0  0  0  0  0  0  0  0  0  0  0  0
   -2.2585    0.3140    0.0000 N   0  0  0  0  0  0  0  0  0  0  0  0
   -2.8105   -0.2991    0.0000 C   0  0  0  0  0  0  0  0  0  0  0  0
   -3.6175   -0.1276    0.0000 C   0  0  0  0  0  0  0  0  0  0  0  0
   -3.8724    0.6570    0.0000 C   0  0  0  0  0  0  0  0  0  0  0  0
   -4.6794    0.8286    0.0000 C   0  0  0  0  0  0  0  0  0  0  0  0
   -5.2314    0.2155    0.0000 C   0  0  0  0  0  0  0  0  0  0  0  0
   -4.9765   -0.5691    0.0000 N   0  0  0  0  0  0  0  0  0  0  0  0
   -4.1919   -0.8241    0.0000 C   0  0  0  0  0  0  0  0  0  0  0  0
   -4.1919   -1.6491    0.0000 C   0  0  0  0  0  0  0  0  0  0  0  0
   -4.9765   -1.9040    0.0000 C   0  0  0  0  0  0  0  0  0  0  0  0
   -5.3120   -2.6577    0.0000 C   0  0  0  0  0  0  0  0  0  0  0  0
   -6.1325   -2.7439    0.0000 C   0  0  0  0  0  0  0  0  0  0  0  0
   -6.6174   -2.0765    0.0000 C   0  0  0  0  0  0  0  0  0  0  0  0
   -6.2819   -1.3228    0.0000 C   0  0  0  0  0  0  0  0  0  0  0  0
   -5.4614   -1.2366    0.0000 C   0  0  0  0  0  0  0  0  0  0  0  0
   -6.4681   -3.4976    0.0000 N   0  0  0  0  0  0  0  0  0  0  0  0
   -6.0556   -4.2121    0.0000 C   0  0  0  0  0  0  0  0  0  0  0  0
   -5.2351   -4.2983    0.0000 O   0  0  0  0  0  0  0  0  0  0  0  0
   -6.6076   -4.8252    0.0000 N   0  0  0  0  0  0  0  0  0  0  0  0
   -7.3613   -4.4896    0.0000 N   0  0  0  0  0  0  0  0  0  0  0  0
   -7.2751   -3.6691    0.0000 C   0  0  0  0  0  0  0  0  0  0  0  0
   -7.8881   -3.1171    0.0000 C   0  0  0  0  0  0  0  0  0  0  0  0
   -7.7166   -2.3101    0.0000 C   0  0  0  0  0  0  0  0  0  0  0  0
   -8.3297   -1.7581    0.0000 C   0  0  0  0  0  0  0  0  0  0  0  0
   -8.1582   -0.9511    0.0000 C   0  0  0  0  0  0  0  0  0  0  0  0
   -8.7713   -0.3991    0.0000 C   0  0  0  0  0  0  0  0  0  0  0  0
   -7.3736   -0.6962    0.0000 C   0  0  0  0  0  0  0  0  0  0  0  0
   -9.1143   -2.0130    0.0000 C   0  0  0  0  0  0  0  0  0  0  0  0
   -9.7274   -1.4610    0.0000 O   0  0  0  0  0  0  0  0  0  0  0  0
   -9.2859   -2.8200    0.0000 C   0  0  0  0  0  0  0  0  0  0  0  0
   -8.6728   -3.3720    0.0000 C   0  0  0  0  0  0  0  0  0  0  0  0
   -8.8443   -4.1790    0.0000 O   0  0  0  0  0  0  0  0  0  0  0  0
   -3.3204    1.2701    0.0000 C   0  0  0  0  0  0  0  0  0  0  0  0
   -2.5134    1.0986    0.0000 C   0  0  0  0  0  0  0  0  0  0  0  0
    0.4595    1.1971    0.0000 C   0  0  0  0  0  0  0  0  0  0  0  0
    1.2665    1.0256    0.0000 C   0  0  0  0  0  0  0  0  0  0  0  0
  1  2  1  0  0  0  0
  2  3  1  0  0  0  0
  3  4  2  0  0  0  0
  4  5  1  0  0  0  0
  5  6  1  0  0  0  0
  6  7  1  0  0  0  0
  7  8  2  0  0  0  0
  8  9  1  0  0  0  0
  9 10  2  0  0  0  0
 10 11  1  0  0  0  0
 11 12  1  0  0  0  0
 12 13  1  0  0  0  0
 13 14  2  0  0  0  0
 15 13  1  0  0  0  0
 15  9  1  0  0  0  0
 15 16  1  1  0  0  0
 15 17  1  6  0  0  0
 17 18  1  0  0  0  0
 10 19  1  0  0  0  0
  6 19  1  0  0  0  0
 19 20  2  0  0  0  0
  7 21  1  0  0  0  0
  4 21  1  0  0  0  0
 21 22  2  0  0  0  0
 22 23  1  0  0  0  0
 23 24  2  0  0  0  0
 24 25  1  0  0  0  0
 25 26  2  0  0  0  0
 26 27  1  0  0  0  0
 27 28  1  0  0  0  0
 28 29  2  0  0  0  0
 28 30  1  0  0  0  0
 30 31  1  0  0  0  0
 31 32  1  0  0  0  0
 32 33  1  0  0  0  0
 33 34  1  0  0  0  0
 34 35  1  0  0  0  0
 35 36  1  0  0  0  0
 36 37  1  0  0  0  0
 37 38  2  0  0  0  0
 38 39  1  0  0  0  0
 39 40  2  0  0  0  0
 40 41  1  0  0  0  0
 41 42  2  0  0  0  0
 42 43  1  0  0  0  0
 43 44  2  0  0  0  0
 36 44  1  0  0  0  0
 39 44  1  0  0  0  0
 41 45  1  0  0  0  0
 45 46  1  0  0  0  0
 46 47  2  0  0  0  0
 46 48  1  0  0  0  0
 48 49  1  0  0  0  0
 49 50  2  0  0  0  0
 45 50  1  0  0  0  0
 50 51  1  0  0  0  0
 51 52  2  0  0  0  0
 52 53  1  0  0  0  0
 53 54  1  0  0  0  0
 54 55  1  0  0  0  0
 54 56  1  0  0  0  0
 53 57  2  0  0  0  0
 57 58  1  0  0  0  0
 57 59  1  0  0  0  0
 59 60  2  0  0  0  0
 51 60  1  0  0  0  0
 60 61  1  0  0  0  0
 33 62  1  0  0  0  0
 62 63  1  0  0  0  0
 30 63  1  0  0  0  0
 26 64  1  0  0  0  0
 64 65  2  0  0  0  0
  3 65  1  0  0  0  0
 23 65  1  0  0  0  0
M  END
> <DATABASE_ID>
DB16186

> <DATABASE_NAME>
drugbank

> <SMILES>
CCC1=C2CN3C(=CC4=C(COC(=O)[C@]4(O)CC)C3=O)C2=NC2=CC=C(OC(=O)N3CCC(CCN4C=CC5=CC(=CC=C45)N4C(=O)NN=C4C4=CC(C(C)C)=C(O)C=C4O)CC3)C=C12

> <INCHI_IDENTIFIER>
InChI=1S/C49H49N7O9/c1-5-31-33-20-30(8-9-38(33)50-43-35(31)24-55-40(43)22-37-36(45(55)59)25-64-46(60)49(37,63)6-2)65-48(62)54-16-12-27(13-17-54)11-15-53-18-14-28-19-29(7-10-39(28)53)56-44(51-52-47(56)61)34-21-32(26(3)4)41(57)23-42(34)58/h7-10,14,18-23,26-27,57-58,63H,5-6,11-13,15-17,24-25H2,1-4H3,(H,52,61)/t49-/m0/s1

> <INCHI_KEY>
QTPZAEAYDWMVJO-GGCSAXROSA-N

> <FORMULA>
C49H49N7O9

> <MOLECULAR_WEIGHT>
879.971

> <EXACT_MASS>
879.359176186

> <JCHEM_ACCEPTOR_COUNT>
9

> <JCHEM_ATOM_COUNT>
114

> <JCHEM_AVERAGE_NEUTRAL_MICROSPECIES_CHARGE>
-0.034587470579284664

> <JCHEM_AVERAGE_POLARIZABILITY>
95.67680309631842

> <JCHEM_BIOAVAILABILITY>
0

> <JCHEM_DONOR_COUNT>
4

> <JCHEM_FORMAL_CHARGE>
0

> <JCHEM_GHOSE_FILTER>
0

> <JCHEM_IUPAC>
(19S)-10,19-diethyl-19-hydroxy-14,18-dioxo-17-oxa-3,13-diazapentacyclo[11.8.0.0^{2,11}.0^{4,9}.0^{15,20}]henicosa-1(21),2,4,6,8,10,15(20)-heptaen-7-yl 4-[2-(5-{3-[2,4-dihydroxy-5-(propan-2-yl)phenyl]-5-oxo-4,5-dihydro-1H-1,2,4-triazol-4-yl}-1H-indol-1-yl)ethyl]piperidine-1-carboxylate

> <ALOGPS_LOGP>
5.83

> <JCHEM_LOGP>
6.699420311333331

> <ALOGPS_LOGS>
-4.95

> <JCHEM_MDDR_LIKE_RULE>
1

> <JCHEM_NEUTRAL_CHARGE>
0

> <JCHEM_NUMBER_OF_RINGS>
10

> <JCHEM_PHYSIOLOGICAL_CHARGE>
0

> <JCHEM_PKA>
9.294482045181859

> <JCHEM_PKA_STRONGEST_ACIDIC>
8.531628440216645

> <JCHEM_PKA_STRONGEST_BASIC>
3.80195272016212

> <JCHEM_POLAR_SURFACE_AREA>
199.35999999999996

> <JCHEM_REFRACTIVITY>
241.34239999999997

> <JCHEM_ROTATABLE_BOND_COUNT>
10

> <JCHEM_RULE_OF_FIVE>
0

> <ALOGPS_SOLUBILITY>
9.83e-03 g/l

> <JCHEM_TRADITIONAL_IUPAC>
2-methoxy-4-[(1E)-3-[4-(nitrooxy)butoxy]-3-oxoprop-1-en-1-yl]phenyl (4R)-4-[(1R,3aS,3bR,4S,5aS,7R,9aS,9bS,11aR)-4,7-dihydroxy-9a,11a-dimethyl-tetradecahydro-1H-cyclopenta[a]phenanthren-1-yl]pentanoate

> <JCHEM_VEBER_RULE>
0

> <DRUGBANK_ID>
DB16186

> <DRUG_GROUPS>
investigational

> <GENERIC_NAME>
PEN-866

> <SYNONYMS>
Hsp90-targeted sn-38 conjugate pen-866

$$$$
