
  Mrv1718007031816412D          

  4  3  0  0  0  0            999 V2000
   -0.3572    0.2062    0.0000 C   0  0  0  0  0  0  0  0  0  0  0  0
    0.3572   -0.2062    0.0000 C   0  0  0  0  0  0  0  0  0  0  0  0
   -1.0718   -0.2062    0.0000 N   0  0  0  0  0  0  0  0  0  0  0  0
    1.0718    0.2062    0.0000 N   0  0  0  0  0  0  0  0  0  0  0  0
  2  1  1  0  0  0  0
  3  1  1  0  0  0  0
  4  2  1  0  0  0  0
M  END
> <DATABASE_ID>
DB14189

> <DATABASE_NAME>
drugbank

> <SMILES>
NCCN

> <INCHI_IDENTIFIER>
InChI=1S/C2H8N2/c3-1-2-4/h1-4H2

> <INCHI_KEY>
PIICEJLVQHRZGT-UHFFFAOYSA-N

> <FORMULA>
C2H8N2

> <MOLECULAR_WEIGHT>
60.0983

> <EXACT_MASS>
60.068748266

> <JCHEM_ACCEPTOR_COUNT>
2

> <JCHEM_ATOM_COUNT>
12

> <JCHEM_AVERAGE_POLARIZABILITY>
7.0816726643279795

> <JCHEM_BIOAVAILABILITY>
1

> <JCHEM_DONOR_COUNT>
2

> <JCHEM_FORMAL_CHARGE>
0

> <JCHEM_GHOSE_FILTER>
0

> <JCHEM_IUPAC>
ethane-1,2-diamine

> <ALOGPS_LOGP>
-1.77

> <JCHEM_LOGP>
-1.4224426739999998

> <ALOGPS_LOGS>
0.97

> <JCHEM_MDDR_LIKE_RULE>
0

> <JCHEM_NUMBER_OF_RINGS>
0

> <JCHEM_PHYSIOLOGICAL_CHARGE>
2

> <JCHEM_PKA_STRONGEST_BASIC>
9.686189055248613

> <JCHEM_POLAR_SURFACE_AREA>
52.04

> <JCHEM_REFRACTIVITY>
17.8686

> <JCHEM_ROTATABLE_BOND_COUNT>
1

> <JCHEM_RULE_OF_FIVE>
1

> <ALOGPS_SOLUBILITY>
5.60e+02 g/l

> <JCHEM_TRADITIONAL_IUPAC>
ethylenediamine

> <JCHEM_VEBER_RULE>
0

> <DRUGBANK_ID>
DB14189

> <DRUG_GROUPS>
approved; experimental

> <GENERIC_NAME>
Ethylenediamine

> <SYNONYMS>
1,2-diaminoethane; Aethaldiamin; edamine; ethane-1,2-diamine; Ethyleendiamine; Ethylendiamine; Ethylene-diamine; Ethylenediamine

> <PRODUCTS>
T.R.U.E. Test Thin-Layer Rapid Use Patch Test

$$$$
