
  Mrv1652310211603322D          

 12 12  0  0  0  0            999 V2000
    1.4289    0.8250    0.0000 C   0  0  0  0  0  0  0  0  0  0  0  0
    1.4289   -0.0000    0.0000 C   0  0  0  0  0  0  0  0  0  0  0  0
    0.7145   -0.4125    0.0000 C   0  0  0  0  0  0  0  0  0  0  0  0
    0.0000   -0.0000    0.0000 C   0  0  0  0  0  0  0  0  0  0  0  0
    0.0000    0.8250    0.0000 C   0  0  0  0  0  0  0  0  0  0  0  0
    0.7145    1.2375    0.0000 C   0  0  0  0  0  0  0  0  0  0  0  0
    0.7145    2.0625    0.0000 C   0  0  0  0  0  0  0  0  0  0  0  0
    1.4289    2.4750    0.0000 O   0  0  0  0  0  0  0  0  0  0  0  0
   -0.0000    2.4750    0.0000 N   0  0  0  0  0  0  0  0  0  0  0  0
   -0.0000    3.3000    0.0000 O   0  0  0  0  0  0  0  0  0  0  0  0
   -0.7145   -0.4125    0.0000 O   0  0  0  0  0  0  0  0  0  0  0  0
    0.7145   -1.2375    0.0000 O   0  0  0  0  0  0  0  0  0  0  0  0
  1  2  2  0  0  0  0
  2  3  1  0  0  0  0
  3  4  2  0  0  0  0
  4  5  1  0  0  0  0
  5  6  2  0  0  0  0
  1  6  1  0  0  0  0
  6  7  1  0  0  0  0
  7  8  2  0  0  0  0
  7  9  1  0  0  0  0
  9 10  1  0  0  0  0
  4 11  1  0  0  0  0
  3 12  1  0  0  0  0
M  END
> <DATABASE_ID>
DB12948

> <DATABASE_NAME>
drugbank

> <SMILES>
ONC(=O)C1=CC(O)=C(O)C=C1

> <INCHI_IDENTIFIER>
InChI=1S/C7H7NO4/c9-5-2-1-4(3-6(5)10)7(11)8-12/h1-3,9-10,12H,(H,8,11)

> <INCHI_KEY>
QJMCKEPOKRERLN-UHFFFAOYSA-N

> <FORMULA>
C7H7NO4

> <MOLECULAR_WEIGHT>
169.136

> <EXACT_MASS>
169.037507709

> <JCHEM_ACCEPTOR_COUNT>
4

> <JCHEM_ATOM_COUNT>
19

> <JCHEM_AVERAGE_POLARIZABILITY>
15.21851449957833

> <JCHEM_BIOAVAILABILITY>
1

> <JCHEM_DONOR_COUNT>
4

> <JCHEM_FORMAL_CHARGE>
0

> <JCHEM_GHOSE_FILTER>
0

> <JCHEM_IUPAC>
N,3,4-trihydroxybenzamide

> <ALOGPS_LOGP>
0.06

> <JCHEM_LOGP>
0.2135737396666667

> <ALOGPS_LOGS>
-1.48

> <JCHEM_MDDR_LIKE_RULE>
0

> <JCHEM_NUMBER_OF_RINGS>
1

> <JCHEM_PHYSIOLOGICAL_CHARGE>
0

> <JCHEM_PKA>
9.843366576794011

> <JCHEM_PKA_STRONGEST_ACIDIC>
8.319415607705249

> <JCHEM_PKA_STRONGEST_BASIC>
-5.0731650007645905

> <JCHEM_POLAR_SURFACE_AREA>
89.79

> <JCHEM_REFRACTIVITY>
40.8628

> <JCHEM_ROTATABLE_BOND_COUNT>
1

> <JCHEM_RULE_OF_FIVE>
1

> <ALOGPS_SOLUBILITY>
5.54e+00 g/l

> <JCHEM_TRADITIONAL_IUPAC>
N,3,4-trihydroxybenzamide

> <JCHEM_VEBER_RULE>
0

> <DRUGBANK_ID>
DB12948

> <DRUG_GROUPS>
investigational

> <GENERIC_NAME>
Didox

$$$$
