
  Mrv1718007121812502D          

 53 36  0  0  0  0            999 V2000
   -5.7057    0.0576    0.0000 Fe  0  1  0  0  0  0  0  0  0  0  0  0
   -1.7493   -0.2071    0.0000 O   0  5  0  0  0  0  0  0  0  0  0  0
   -1.0310    0.2071    0.0000 C   0  0  0  0  0  0  0  0  0  0  0  0
   -0.3177   -0.2071    0.0000 C   0  0  0  0  0  0  0  0  0  0  0  0
    0.3957    0.2071    0.0000 C   0  0  0  0  0  0  0  0  0  0  0  0
    1.1138   -0.2071    0.0000 C   0  0  0  0  0  0  0  0  0  0  0  0
    1.8320    0.2071    0.0000 C   0  0  0  0  0  0  0  0  0  0  0  0
    2.5453   -0.2071    0.0000 O   0  5  0  0  0  0  0  0  0  0  0  0
    1.8320    1.0311    0.0000 O   0  0  0  0  0  0  0  0  0  0  0  0
    0.3957    1.0311    0.0000 O   0  5  0  0  0  0  0  0  0  0  0  0
    0.3957   -0.6122    0.0000 C   0  0  0  0  0  0  0  0  0  0  0  0
   -0.3269   -1.0264    0.0000 O   0  0  0  0  0  0  0  0  0  0  0  0
    1.1092   -1.0311    0.0000 O   0  5  0  0  0  0  0  0  0  0  0  0
   -1.0310    1.0311    0.0000 O   0  0  0  0  0  0  0  0  0  0  0  0
    5.7057    0.4142    0.0000 O   0  0  0  0  0  0  0  0  0  0  0  0
    5.7057    0.4142    0.0000 O   0  0  0  0  0  0  0  0  0  0  0  0
    5.7057    0.4142    0.0000 O   0  0  0  0  0  0  0  0  0  0  0  0
    5.7057    0.4142    0.0000 O   0  0  0  0  0  0  0  0  0  0  0  0
    5.7057    0.4142    0.0000 O   0  0  0  0  0  0  0  0  0  0  0  0
    5.7057    0.4142    0.0000 O   0  0  0  0  0  0  0  0  0  0  0  0
    5.7057    0.4142    0.0000 O   0  0  0  0  0  0  0  0  0  0  0  0
    5.7057    0.4142    0.0000 O   0  0  0  0  0  0  0  0  0  0  0  0
    5.7057    0.4142    0.0000 O   0  0  0  0  0  0  0  0  0  0  0  0
    5.7057    0.4142    0.0000 O   0  0  0  0  0  0  0  0  0  0  0  0
   -5.7057    0.0576    0.0000 Fe  0  1  0  0  0  0  0  0  0  0  0  0
   -5.7057    0.0576    0.0000 Fe  0  1  0  0  0  0  0  0  0  0  0  0
   -5.7057    0.0576    0.0000 Fe  0  1  0  0  0  0  0  0  0  0  0  0
   -1.7493   -0.2071    0.0000 O   0  5  0  0  0  0  0  0  0  0  0  0
   -1.0310    0.2071    0.0000 C   0  0  0  0  0  0  0  0  0  0  0  0
   -0.3177   -0.2071    0.0000 C   0  0  0  0  0  0  0  0  0  0  0  0
    0.3957    0.2071    0.0000 C   0  0  0  0  0  0  0  0  0  0  0  0
    1.1138   -0.2071    0.0000 C   0  0  0  0  0  0  0  0  0  0  0  0
    1.8320    0.2071    0.0000 C   0  0  0  0  0  0  0  0  0  0  0  0
    2.5453   -0.2071    0.0000 O   0  5  0  0  0  0  0  0  0  0  0  0
    1.8320    1.0311    0.0000 O   0  0  0  0  0  0  0  0  0  0  0  0
    0.3957    1.0311    0.0000 O   0  5  0  0  0  0  0  0  0  0  0  0
    0.3957   -0.6122    0.0000 C   0  0  0  0  0  0  0  0  0  0  0  0
   -0.3269   -1.0264    0.0000 O   0  0  0  0  0  0  0  0  0  0  0  0
    1.1092   -1.0311    0.0000 O   0  5  0  0  0  0  0  0  0  0  0  0
   -1.0310    1.0311    0.0000 O   0  0  0  0  0  0  0  0  0  0  0  0
   -1.7493   -0.2071    0.0000 O   0  5  0  0  0  0  0  0  0  0  0  0
   -1.0310    0.2071    0.0000 C   0  0  0  0  0  0  0  0  0  0  0  0
   -0.3177   -0.2071    0.0000 C   0  0  0  0  0  0  0  0  0  0  0  0
    0.3957    0.2071    0.0000 C   0  0  0  0  0  0  0  0  0  0  0  0
    1.1138   -0.2071    0.0000 C   0  0  0  0  0  0  0  0  0  0  0  0
    1.8320    0.2071    0.0000 C   0  0  0  0  0  0  0  0  0  0  0  0
    2.5453   -0.2071    0.0000 O   0  5  0  0  0  0  0  0  0  0  0  0
    1.8320    1.0311    0.0000 O   0  0  0  0  0  0  0  0  0  0  0  0
    0.3957    1.0311    0.0000 O   0  5  0  0  0  0  0  0  0  0  0  0
    0.3957   -0.6122    0.0000 C   0  0  0  0  0  0  0  0  0  0  0  0
   -0.3269   -1.0264    0.0000 O   0  0  0  0  0  0  0  0  0  0  0  0
    1.1092   -1.0311    0.0000 O   0  5  0  0  0  0  0  0  0  0  0  0
   -1.0310    1.0311    0.0000 O   0  0  0  0  0  0  0  0  0  0  0  0
  2  3  1  0  0  0  0
  3 14  2  0  0  0  0
  3  4  1  0  0  0  0
  4  5  1  0  0  0  0
  5  6  1  0  0  0  0
  5 10  1  0  0  0  0
  5 11  1  0  0  0  0
  6  7  1  0  0  0  0
  7  8  1  0  0  0  0
  7  9  2  0  0  0  0
 11 12  2  0  0  0  0
 11 13  1  0  0  0  0
 28 29  1  0  0  0  0
 29 40  2  0  0  0  0
 29 30  1  0  0  0  0
 30 31  1  0  0  0  0
 31 32  1  0  0  0  0
 31 36  1  0  0  0  0
 31 37  1  0  0  0  0
 32 33  1  0  0  0  0
 33 34  1  0  0  0  0
 33 35  2  0  0  0  0
 37 38  2  0  0  0  0
 37 39  1  0  0  0  0
 41 42  1  0  0  0  0
 42 53  2  0  0  0  0
 42 43  1  0  0  0  0
 43 44  1  0  0  0  0
 44 45  1  0  0  0  0
 44 49  1  0  0  0  0
 44 50  1  0  0  0  0
 45 46  1  0  0  0  0
 46 47  1  0  0  0  0
 46 48  2  0  0  0  0
 50 51  2  0  0  0  0
 50 52  1  0  0  0  0
M  CHG  8   1   3   2  -1   8  -1  10  -1  13  -1  25   3  26   3  27   3
M  CHG  8  28  -1  34  -1  36  -1  39  -1  41  -1  47  -1  49  -1  52  -1
M  END
> <DATABASE_ID>
DB14520

> <DATABASE_NAME>
drugbank

> <SMILES>
O.O.O.O.O.O.O.O.O.O.[Fe+3].[Fe+3].[Fe+3].[Fe+3].[O-]C(=O)CC([O-])(CC([O-])=O)C([O-])=O.[O-]C(=O)CC([O-])(CC([O-])=O)C([O-])=O.[O-]C(=O)CC([O-])(CC([O-])=O)C([O-])=O

> <INCHI_IDENTIFIER>
InChI=1S/3C6H7O7.4Fe.10H2O/c3*7-3(8)1-6(13,5(11)12)2-4(9)10;;;;;;;;;;;;;;/h3*1-2H2,(H,7,8)(H,9,10)(H,11,12);;;;;10*1H2/q3*-1;4*+3;;;;;;;;;;/p-9

> <INCHI_KEY>
UISKQNNAQKPSDO-UHFFFAOYSA-E

> <FORMULA>
C18H32Fe4O31

> <MOLECULAR_WEIGHT>
967.803

> <EXACT_MASS>
967.832498

> <JCHEM_ACCEPTOR_COUNT>
7

> <JCHEM_ATOM_COUNT>
85

> <JCHEM_AVERAGE_POLARIZABILITY>
13.972144370577094

> <JCHEM_BIOAVAILABILITY>
0

> <JCHEM_DONOR_COUNT>
0

> <JCHEM_FORMAL_CHARGE>
0

> <JCHEM_GHOSE_FILTER>
0

> <JCHEM_IUPAC>
tetrairon(3+) tris(2-oxidopropane-1,2,3-tricarboxylate) decahydrate

> <ALOGPS_LOGP>
1.42

> <JCHEM_LOGP>
-1.3226874519999998

> <ALOGPS_LOGS>
-3.19

> <JCHEM_MDDR_LIKE_RULE>
0

> <JCHEM_NUMBER_OF_RINGS>
0

> <JCHEM_PHYSIOLOGICAL_CHARGE>
-3

> <JCHEM_PKA>
4.674836176324002

> <JCHEM_PKA_STRONGEST_ACIDIC>
3.0479515131680714

> <JCHEM_PKA_STRONGEST_BASIC>
-4.185693450231931

> <JCHEM_POLAR_SURFACE_AREA>
143.45

> <JCHEM_REFRACTIVITY>
78.6855

> <JCHEM_ROTATABLE_BOND_COUNT>
15

> <JCHEM_RULE_OF_FIVE>
0

> <ALOGPS_SOLUBILITY>
5.03e-01 g/l

> <JCHEM_TRADITIONAL_IUPAC>
tetrairon(3+) tris(2-oxidopropane-1,2,3-tricarboxylate) decahydrate

> <JCHEM_VEBER_RULE>
0

> <DRUGBANK_ID>
DB14520

> <SECONDARY_ACCESSION_NUMBERS>
DBSALT002619

> <DRUG_GROUPS>
approved

> <GENERIC_NAME>
Tetraferric tricitrate decahydrate

> <SYNONYMS>
Ferric citrate; Ferric citrate hydrate

> <PRODUCTS>
Auryxia; Maxine Vitamin and Mineral Supplement

$$$$
