
  Mrv1652306231722382D          

 35 38  0  0  1  0            999 V2000
    0.4631    3.3652    0.0000 C   0  0  0  0  0  0  0  0  0  0  0  0
    0.3769    2.5447    0.0000 C   0  0  0  0  0  0  0  0  0  0  0  0
   -0.3768    2.2092    0.0000 O   0  0  0  0  0  0  0  0  0  0  0  0
   -0.4630    1.3887    0.0000 C   0  0  0  0  0  0  0  0  0  0  0  0
   -1.1775    0.9762    0.0000 C   0  0  1  0  0  0  0  0  0  0  0  0
   -1.0060    0.1692    0.0000 C   0  0  2  0  0  0  0  0  0  0  0  0
   -0.1855    0.0830    0.0000 C   0  0  2  0  0  0  0  0  0  0  0  0
    0.1501    0.8366    0.0000 O   0  0  0  0  0  0  0  0  0  0  0  0
    0.2270   -0.6315    0.0000 C   0  0  1  0  0  0  0  0  0  0  0  0
   -0.1855   -1.3460    0.0000 C   0  0  0  0  0  0  0  0  0  0  0  0
   -1.0105   -1.3460    0.0000 O   0  0  0  0  0  0  0  0  0  0  0  0
   -1.4230   -2.0605    0.0000 C   0  0  0  0  0  0  0  0  0  0  0  0
   -1.0105   -2.7749    0.0000 C   0  0  0  0  0  0  0  0  0  0  0  0
   -0.1855   -2.7749    0.0000 C   0  0  0  0  0  0  0  0  0  0  0  0
    0.2270   -3.4894    0.0000 C   0  0  0  0  0  0  0  0  0  0  0  0
   -0.1855   -4.2039    0.0000 C   0  0  0  0  0  0  0  0  0  0  0  0
   -1.0105   -4.2039    0.0000 C   0  0  0  0  0  0  0  0  0  0  0  0
   -1.4230   -3.4894    0.0000 C   0  0  0  0  0  0  0  0  0  0  0  0
    1.0520   -0.6315    0.0000 O   0  0  0  0  0  0  0  0  0  0  0  0
    1.4645   -1.3460    0.0000 C   0  0  0  0  0  0  0  0  0  0  0  0
    2.2895   -1.3460    0.0000 C   0  0  0  0  0  0  0  0  0  0  0  0
    2.7020   -0.6315    0.0000 C   0  0  0  0  0  0  0  0  0  0  0  0
    3.5270   -0.6315    0.0000 C   0  0  0  0  0  0  0  0  0  0  0  0
    3.9395   -1.3460    0.0000 C   0  0  0  0  0  0  0  0  0  0  0  0
    3.5270   -2.0605    0.0000 C   0  0  0  0  0  0  0  0  0  0  0  0
    2.7020   -2.0605    0.0000 C   0  0  0  0  0  0  0  0  0  0  0  0
   -1.5580   -0.4439    0.0000 O   0  0  0  0  0  0  0  0  0  0  0  0
   -2.3650   -0.2724    0.0000 C   0  0  0  0  0  0  0  0  0  0  0  0
   -2.9170   -0.8855    0.0000 C   0  0  0  0  0  0  0  0  0  0  0  0
   -2.6621   -1.6701    0.0000 C   0  0  0  0  0  0  0  0  0  0  0  0
   -3.2141   -2.2832    0.0000 C   0  0  0  0  0  0  0  0  0  0  0  0
   -4.0211   -2.1117    0.0000 C   0  0  0  0  0  0  0  0  0  0  0  0
   -4.2760   -1.3270    0.0000 C   0  0  0  0  0  0  0  0  0  0  0  0
   -3.7240   -0.7139    0.0000 C   0  0  0  0  0  0  0  0  0  0  0  0
   -1.9312    1.3117    0.0000 O   0  0  0  0  0  0  0  0  0  0  0  0
  1  2  1  0  0  0  0
  2  3  1  0  0  0  0
  3  4  1  0  0  0  0
  4  5  1  0  0  0  0
  5  6  1  0  0  0  0
  6  7  1  0  0  0  0
  7  8  1  0  0  0  0
  4  8  1  0  0  0  0
  7  9  1  6  0  0  0
  9 10  1  0  0  0  0
 10 11  1  0  0  0  0
 11 12  1  0  0  0  0
 12 13  1  0  0  0  0
 13 14  2  0  0  0  0
 14 15  1  0  0  0  0
 15 16  2  0  0  0  0
 16 17  1  0  0  0  0
 17 18  2  0  0  0  0
 13 18  1  0  0  0  0
  9 19  1  6  0  0  0
 19 20  1  0  0  0  0
 20 21  1  0  0  0  0
 21 22  2  0  0  0  0
 22 23  1  0  0  0  0
 23 24  2  0  0  0  0
 24 25  1  0  0  0  0
 25 26  2  0  0  0  0
 21 26  1  0  0  0  0
  6 27  1  6  0  0  0
 27 28  1  0  0  0  0
 28 29  1  0  0  0  0
 29 30  2  0  0  0  0
 30 31  1  0  0  0  0
 31 32  2  0  0  0  0
 32 33  1  0  0  0  0
 33 34  2  0  0  0  0
 29 34  1  0  0  0  0
  5 35  1  1  0  0  0
M  END
> <DATABASE_ID>
DB13227

> <DATABASE_NAME>
drugbank

> <SMILES>
CCOC1O[C@H]([C@@H](COCC2=CC=CC=C2)OCC2=CC=CC=C2)[C@H](OCC2=CC=CC=C2)[C@H]1O

> <INCHI_IDENTIFIER>
InChI=1S/C29H34O6/c1-2-32-29-26(30)28(34-20-24-16-10-5-11-17-24)27(35-29)25(33-19-23-14-8-4-9-15-23)21-31-18-22-12-6-3-7-13-22/h3-17,25-30H,2,18-21H2,1H3/t25-,26-,27-,28-,29?/m1/s1

> <INCHI_KEY>
ULLNJSBQMBKOJH-VIVFLBMVSA-N

> <FORMULA>
C29H34O6

> <MOLECULAR_WEIGHT>
478.585

> <EXACT_MASS>
478.235538815

> <JCHEM_ACCEPTOR_COUNT>
6

> <JCHEM_ATOM_COUNT>
69

> <JCHEM_AVERAGE_POLARIZABILITY>
52.50777982532493

> <JCHEM_BIOAVAILABILITY>
0

> <JCHEM_DONOR_COUNT>
1

> <JCHEM_FORMAL_CHARGE>
0

> <JCHEM_GHOSE_FILTER>
0

> <JCHEM_IUPAC>
(3R,4R,5R)-4-(benzyloxy)-5-[(1R)-1,2-bis(benzyloxy)ethyl]-2-ethoxyoxolan-3-ol

> <ALOGPS_LOGP>
4.13

> <JCHEM_LOGP>
5.170194103333333

> <ALOGPS_LOGS>
-5.17

> <JCHEM_MDDR_LIKE_RULE>
1

> <JCHEM_NUMBER_OF_RINGS>
4

> <JCHEM_PHYSIOLOGICAL_CHARGE>
0

> <JCHEM_PKA_STRONGEST_ACIDIC>
12.363193392824911

> <JCHEM_PKA_STRONGEST_BASIC>
-3.5587319981251793

> <JCHEM_POLAR_SURFACE_AREA>
66.38000000000001

> <JCHEM_REFRACTIVITY>
133.51460000000006

> <JCHEM_ROTATABLE_BOND_COUNT>
13

> <JCHEM_RULE_OF_FIVE>
0

> <ALOGPS_SOLUBILITY>
3.25e-03 g/l

> <JCHEM_TRADITIONAL_IUPAC>
glyvenol

> <JCHEM_VEBER_RULE>
0

> <DRUGBANK_ID>
DB13227

> <DRUG_GROUPS>
experimental

> <GENERIC_NAME>
Tribenoside

> <SYNONYMS>
TBGF; Tribenoside; Tribenosido; Tribenosidum

$$$$
