
  Mrv1909 02212019192D          

 51 51  0  0  0  0            999 V2000
    2.8875    2.1434    0.0000 C   0  0  0  0  0  0  0  0  0  0  0  0
    1.6500    2.8579    0.0000 C   0  0  0  0  0  0  0  0  0  0  0  0
   -3.3000    0.0000    0.0000 C   0  0  0  0  0  0  0  0  0  0  0  0
   -3.3000    1.4289    0.0000 C   0  0  0  0  0  0  0  0  0  0  0  0
    1.6500   -2.8578    0.0000 C   0  0  0  0  0  0  0  0  0  0  0  0
    0.4125   -3.5723    0.0000 C   0  0  0  0  0  0  0  0  0  0  0  0
   -1.6499    2.8579    0.0000 C   0  0  0  0  0  0  0  0  0  0  0  0
   -0.4124    3.5723    0.0000 C   0  0  0  0  0  0  0  0  0  0  0  0
    3.3000    0.0000    0.0000 C   0  0  0  0  0  0  0  0  0  0  0  0
    3.3000   -1.4289    0.0000 C   0  0  0  0  0  0  0  0  0  0  0  0
   -1.6499   -2.8578    0.0000 C   0  0  0  0  0  0  0  0  0  0  0  0
   -2.8874   -2.1433    0.0000 C   0  0  0  0  0  0  0  0  0  0  0  0
    0.4125    0.7145    0.0000 C   0  0  0  0  0  0  0  0  0  0  0  0
    0.4125   -0.7144    0.0000 C   0  0  0  0  0  0  0  0  0  0  0  0
   -0.8249    0.0000    0.0000 C   0  0  0  0  0  0  0  0  0  0  0  0
    2.0625    2.1434    0.0000 C   0  0  0  0  0  0  0  0  0  0  0  0
   -2.8874    0.7145    0.0000 C   0  0  0  0  0  0  0  0  0  0  0  0
    0.8250   -2.8578    0.0000 C   0  0  0  0  0  0  0  0  0  0  0  0
   -0.8249    2.8579    0.0000 C   0  0  0  0  0  0  0  0  0  0  0  0
    2.8875   -0.7144    0.0000 C   0  0  0  0  0  0  0  0  0  0  0  0
   -2.0624   -2.1433    0.0000 C   0  0  0  0  0  0  0  0  0  0  0  0
    1.6500    1.4289    0.0000 C   0  0  1  0  0  0  0  0  0  0  0  0
   -2.0624    0.7145    0.0000 C   0  0  1  0  0  0  0  0  0  0  0  0
    0.4125   -2.1433    0.0000 C   0  0  1  0  0  0  0  0  0  0  0  0
   -0.4124    2.1434    0.0000 C   0  0  0  0  0  0  0  0  0  0  0  0
    2.0625   -0.7144    0.0000 C   0  0  0  0  0  0  0  0  0  0  0  0
   -1.6499   -1.4289    0.0000 C   0  0  0  0  0  0  0  0  0  0  0  0
    0.4125    2.1434    0.0000 C   0  0  0  0  0  0  0  0  0  0  0  0
    1.6500   -1.4289    0.0000 C   0  0  0  0  0  0  0  0  0  0  0  0
   -2.0624   -0.7144    0.0000 C   0  0  0  0  0  0  0  0  0  0  0  0
    2.0625    0.7145    0.0000 C   0  0  0  0  0  0  0  0  0  0  0  0
   -1.6499    1.4289    0.0000 C   0  0  0  0  0  0  0  0  0  0  0  0
   -0.4124   -2.1433    0.0000 C   0  0  0  0  0  0  0  0  0  0  0  0
    0.8250    1.4289    0.0000 N   0  0  0  0  0  0  0  0  0  0  0  0
    0.8250   -1.4289    0.0000 N   0  0  0  0  0  0  0  0  0  0  0  0
   -1.6499    0.0000    0.0000 N   0  0  0  0  0  0  0  0  0  0  0  0
    0.8250    2.8579    0.0000 O   0  0  0  0  0  0  0  0  0  0  0  0
    2.0625   -2.1433    0.0000 O   0  0  0  0  0  0  0  0  0  0  0  0
   -2.8874   -0.7144    0.0000 O   0  0  0  0  0  0  0  0  0  0  0  0
    2.8875    0.7145    0.0000 O   0  0  0  0  0  0  0  0  0  0  0  0
   -2.0624    2.1434    0.0000 O   0  0  0  0  0  0  0  0  0  0  0  0
   -0.8249   -2.8578    0.0000 O   0  0  0  0  0  0  0  0  0  0  0  0
    1.6500    0.0000    0.0000 O   0  0  0  0  0  0  0  0  0  0  0  0
   -0.8249    1.4289    0.0000 O   0  0  0  0  0  0  0  0  0  0  0  0
   -0.8249   -1.4289    0.0000 O   0  0  0  0  0  0  0  0  0  0  0  0
    2.4750    1.4289    0.0000 H   0  0  0  0  0  0  0  0  0  0  0  0
   -2.4749    0.0000    0.0000 H   0  0  0  0  0  0  0  0  0  0  0  0
    1.2375   -2.1433    0.0000 H   0  0  0  0  0  0  0  0  0  0  0  0
   -1.2374    2.1434    0.0000 H   0  0  0  0  0  0  0  0  0  0  0  0
    2.4750    0.0000    0.0000 H   0  0  0  0  0  0  0  0  0  0  0  0
   -1.2527   -2.0819    0.0000 H   0  0  0  0  0  0  0  0  0  0  0  0
 16  1  1  0  0  0  0
 16  2  1  0  0  0  0
 17  3  1  0  0  0  0
 17  4  1  0  0  0  0
 18  5  1  0  0  0  0
 18  6  1  0  0  0  0
 19  7  1  0  0  0  0
 19  8  1  0  0  0  0
 20  9  1  0  0  0  0
 20 10  1  0  0  0  0
 21 11  1  0  0  0  0
 21 12  1  0  0  0  0
 22 16  1  1  0  0  0
 23 17  1  1  0  0  0
 24 18  1  1  0  0  0
 25 19  1  0  0  0  0
 26 20  1  0  0  0  0
 27 21  1  0  0  0  0
 28 25  1  0  0  0  0
 29 26  1  0  0  0  0
 30 27  1  0  0  0  0
 31 22  1  0  0  0  0
 32 23  1  0  0  0  0
 33 24  1  0  0  0  0
 34 13  1  0  0  0  0
 34 22  1  0  0  0  0
 34 28  1  0  0  0  0
 35 14  1  0  0  0  0
 35 24  1  0  0  0  0
 35 29  1  0  0  0  0
 36 15  1  0  0  0  0
 36 23  1  0  0  0  0
 36 30  1  0  0  0  0
 37 28  2  0  0  0  0
 38 29  2  0  0  0  0
 39 30  2  0  0  0  0
 40 31  2  0  0  0  0
 41 32  2  0  0  0  0
 42 33  2  0  0  0  0
 43 26  1  0  0  0  0
 43 31  1  0  0  0  0
 44 25  1  0  0  0  0
 44 32  1  0  0  0  0
 45 27  1  0  0  0  0
 45 33  1  0  0  0  0
 22 46  1  6  0  0  0
 23 47  1  6  0  0  0
 24 48  1  6  0  0  0
 49 25  1  0  0  0  0
 50 26  1  0  0  0  0
 51 27  1  0  0  0  0
M  END
> <DATABASE_ID>
DB08965

> <DATABASE_NAME>
drugbank

> <SMILES>
[H]C1(OC(=O)[C@]([H])(C(C)C)N(C)C(=O)C([H])(OC(=O)[C@]([H])(C(C)C)N(C)C(=O)C([H])(OC(=O)[C@]([H])(C(C)C)N(C)C1=O)C(C)C)C(C)C)C(C)C

> <INCHI_IDENTIFIER>
InChI=1S/C33H57N3O9/c1-16(2)22-31(40)43-26(20(9)10)29(38)35(14)24(18(5)6)33(42)45-27(21(11)12)30(39)36(15)23(17(3)4)32(41)44-25(19(7)8)28(37)34(22)13/h16-27H,1-15H3/t22-,23-,24-,25?,26?,27?/m0/s1

> <INCHI_KEY>
MIZMDSVSLSIMSC-OGLSAIDSSA-N

> <FORMULA>
C33H57N3O9

> <MOLECULAR_WEIGHT>
639.8204

> <EXACT_MASS>
639.409480437

> <JCHEM_ACCEPTOR_COUNT>
6

> <JCHEM_ATOM_COUNT>
102

> <JCHEM_AVERAGE_NEUTRAL_MICROSPECIES_CHARGE>
-2.278702276689286e-12

> <JCHEM_AVERAGE_POLARIZABILITY>
69.26911400288986

> <JCHEM_BIOAVAILABILITY>
1

> <JCHEM_DONOR_COUNT>
0

> <JCHEM_FORMAL_CHARGE>
0

> <JCHEM_GHOSE_FILTER>
0

> <JCHEM_IUPAC>
(3S,9S,15S)-4,10,16-trimethyl-3,6,9,12,15,18-hexakis(propan-2-yl)-1,7,13-trioxa-4,10,16-triazacyclooctadecane-2,5,8,11,14,17-hexone

> <ALOGPS_LOGP>
3.81

> <JCHEM_LOGP>
4.964367353

> <ALOGPS_LOGS>
-4.54

> <JCHEM_MDDR_LIKE_RULE>
0

> <JCHEM_NEUTRAL_CHARGE>
0

> <JCHEM_NUMBER_OF_RINGS>
1

> <JCHEM_PHYSIOLOGICAL_CHARGE>
0

> <JCHEM_PKA>
19.279295896206495

> <JCHEM_PKA_STRONGEST_ACIDIC>
18.8019123820987

> <JCHEM_PKA_STRONGEST_BASIC>
-5.404252844249662

> <JCHEM_POLAR_SURFACE_AREA>
139.82999999999998

> <JCHEM_REFRACTIVITY>
166.59870000000015

> <JCHEM_ROTATABLE_BOND_COUNT>
6

> <JCHEM_RULE_OF_FIVE>
0

> <ALOGPS_SOLUBILITY>
1.84e-02 g/l

> <JCHEM_TRADITIONAL_IUPAC>
(5Z,7E)-deca-5,7,9-trien-2-one

> <JCHEM_VEBER_RULE>
0

> <DRUGBANK_ID>
DB08965

> <DRUG_GROUPS>
approved; withdrawn

> <GENERIC_NAME>
Fusafungine

> <SYNONYMS>
Fusafungina; Fusafungine

$$$$
