
  Mrv1909 05201915192D          

 30 33  0  0  1  0            999 V2000
    3.2789    2.0625    0.0000 C   0  0  0  0  0  0  0  0  0  0  0  0
    3.2789    1.2375    0.0000 C   0  0  1  0  0  0  0  0  0  0  0  0
    3.9934    0.8250    0.0000 N   0  0  0  0  0  0  0  0  0  0  0  0
    3.9934    0.0000    0.0000 C   0  0  0  0  0  0  0  0  0  0  0  0
    3.2789   -0.4125    0.0000 C   0  0  0  0  0  0  0  0  0  0  0  0
    2.5645    0.0000    0.0000 C   0  0  0  0  0  0  0  0  0  0  0  0
    2.5645    0.8250    0.0000 C   0  0  0  0  0  0  0  0  0  0  0  0
    1.7798    1.0799    0.0000 N   0  0  0  0  0  0  0  0  0  0  0  0
    1.2949    0.4125    0.0000 N   0  0  0  0  0  0  0  0  0  0  0  0
    1.7798   -0.2549    0.0000 N   0  0  0  0  0  0  0  0  0  0  0  0
    1.5249   -1.0396    0.0000 C   0  0  0  0  0  0  0  0  0  0  0  0
    2.0769   -1.6527    0.0000 N   0  0  0  0  0  0  0  0  0  0  0  0
    1.8220   -2.4373    0.0000 C   0  0  0  0  0  0  0  0  0  0  0  0
    1.0150   -2.6088    0.0000 C   0  0  0  0  0  0  0  0  0  0  0  0
    0.7601   -3.3934    0.0000 F   0  0  0  0  0  0  0  0  0  0  0  0
    0.4630   -1.9957    0.0000 C   0  0  0  0  0  0  0  0  0  0  0  0
    0.7179   -1.2111    0.0000 N   0  0  0  0  0  0  0  0  0  0  0  0
    4.7079    1.2375    0.0000 C   0  0  0  0  0  0  0  0  0  0  0  0
    4.7079    2.0625    0.0000 O   0  0  0  0  0  0  0  0  0  0  0  0
    5.4223    0.8250    0.0000 C   0  0  0  0  0  0  0  0  0  0  0  0
    6.1368    1.2375    0.0000 C   0  0  0  0  0  0  0  0  0  0  0  0
    6.1368    2.0625    0.0000 Cl  0  0  0  0  0  0  0  0  0  0  0  0
    6.8513    0.8250    0.0000 C   0  0  0  0  0  0  0  0  0  0  0  0
    6.8513   -0.0000    0.0000 C   0  0  0  0  0  0  0  0  0  0  0  0
    6.1368   -0.4125    0.0000 C   0  0  0  0  0  0  0  0  0  0  0  0
    5.4223   -0.0000    0.0000 C   0  0  0  0  0  0  0  0  0  0  0  0
    7.5658    1.2375    0.0000 C   0  0  0  0  0  0  0  0  0  0  0  0
    8.2802    1.6500    0.0000 F   0  0  0  0  0  0  0  0  0  0  0  0
    7.9783    0.5230    0.0000 F   0  0  0  0  0  0  0  0  0  0  0  0
    7.1533    1.9520    0.0000 F   0  0  0  0  0  0  0  0  0  0  0  0
  2  1  1  1  0  0  0
  2  3  1  0  0  0  0
  3  4  1  0  0  0  0
  4  5  1  0  0  0  0
  5  6  1  0  0  0  0
  6  7  2  0  0  0  0
  2  7  1  0  0  0  0
  7  8  1  0  0  0  0
  8  9  2  0  0  0  0
  9 10  1  0  0  0  0
  6 10  1  0  0  0  0
 10 11  1  0  0  0  0
 11 12  2  0  0  0  0
 12 13  1  0  0  0  0
 13 14  2  0  0  0  0
 14 15  1  0  0  0  0
 14 16  1  0  0  0  0
 16 17  2  0  0  0  0
 11 17  1  0  0  0  0
  3 18  1  0  0  0  0
 18 19  2  0  0  0  0
 18 20  1  0  0  0  0
 20 21  2  0  0  0  0
 21 22  1  0  0  0  0
 21 23  1  0  0  0  0
 23 24  2  0  0  0  0
 24 25  1  0  0  0  0
 25 26  2  0  0  0  0
 20 26  1  0  0  0  0
 23 27  1  0  0  0  0
 27 28  1  0  0  0  0
 27 29  1  0  0  0  0
 27 30  1  0  0  0  0
M  END
> <DATABASE_ID>
DB15358

> <DATABASE_NAME>
drugbank

> <SMILES>
C[C@H]1N(CCC2=C1N=NN2C1=NC=C(F)C=N1)C(=O)C1=C(Cl)C(=CC=C1)C(F)(F)F

> <INCHI_IDENTIFIER>
InChI=1S/C18H13ClF4N6O/c1-9-15-13(29(27-26-15)17-24-7-10(20)8-25-17)5-6-28(9)16(30)11-3-2-4-12(14(11)19)18(21,22)23/h2-4,7-9H,5-6H2,1H3/t9-/m1/s1

> <INCHI_KEY>
CWFVVQFVGMFTBD-SECBINFHSA-N

> <FORMULA>
C18H13ClF4N6O

> <MOLECULAR_WEIGHT>
440.79

> <EXACT_MASS>
440.0775494

> <JCHEM_ACCEPTOR_COUNT>
5

> <JCHEM_ATOM_COUNT>
43

> <JCHEM_AVERAGE_POLARIZABILITY>
37.810703457316016

> <JCHEM_BIOAVAILABILITY>
1

> <JCHEM_DONOR_COUNT>
0

> <JCHEM_FORMAL_CHARGE>
0

> <JCHEM_GHOSE_FILTER>
1

> <JCHEM_IUPAC>
2-[(4R)-5-[2-chloro-3-(trifluoromethyl)benzoyl]-4-methyl-1H,4H,5H,6H,7H-[1,2,3]triazolo[4,5-c]pyridin-1-yl]-5-fluoropyrimidine

> <ALOGPS_LOGP>
2.93

> <JCHEM_LOGP>
3.461949077

> <ALOGPS_LOGS>
-4.59

> <JCHEM_MDDR_LIKE_RULE>
0

> <JCHEM_NUMBER_OF_RINGS>
4

> <JCHEM_PHYSIOLOGICAL_CHARGE>
0

> <JCHEM_PKA_STRONGEST_BASIC>
-0.6292905691836437

> <JCHEM_POLAR_SURFACE_AREA>
76.80000000000001

> <JCHEM_REFRACTIVITY>
101.13550000000001

> <JCHEM_ROTATABLE_BOND_COUNT>
3

> <JCHEM_RULE_OF_FIVE>
1

> <ALOGPS_SOLUBILITY>
1.12e-02 g/l

> <JCHEM_TRADITIONAL_IUPAC>
(2R)-14-fluoro-2-methyl-6,9,10,19-tetraazapentacyclo[14.2.1.0^{2,6}.0^{8,18}.0^{12,17}]nonadeca-1(18),8,12(17),13,15-pentaen-11-one

> <JCHEM_VEBER_RULE>
0

> <DRUGBANK_ID>
DB15358

> <DRUG_GROUPS>
investigational

> <GENERIC_NAME>
JNJ-54175446

$$$$
