
  Mrv1652310211603012D          

 27 28  0  0  0  0            999 V2000
   -0.7145   -0.4125    0.0000 C   0  0  0  0  0  0  0  0  0  0  0  0
    0.0000   -0.8250    0.0000 C   0  0  0  0  0  0  0  0  0  0  0  0
    0.7145   -1.2375    0.0000 S   0  0  0  0  0  0  0  0  0  0  0  0
    0.3020   -1.9520    0.0000 O   0  0  0  0  0  0  0  0  0  0  0  0
    1.1270   -0.5230    0.0000 O   0  0  0  0  0  0  0  0  0  0  0  0
    1.4289   -1.6500    0.0000 N   0  0  0  0  0  0  0  0  0  0  0  0
    1.4289   -2.4750    0.0000 C   0  0  1  0  0  0  0  0  0  0  0  0
    2.1434   -2.8875    0.0000 C   0  0  0  0  0  0  0  0  0  0  0  0
    2.1434   -3.7125    0.0000 C   0  0  0  0  0  0  0  0  0  0  0  0
    1.4289   -4.1250    0.0000 C   0  0  1  0  0  0  0  0  0  0  0  0
    0.7145   -3.7125    0.0000 C   0  0  0  0  0  0  0  0  0  0  0  0
    0.7145   -2.8875    0.0000 C   0  0  0  0  0  0  0  0  0  0  0  0
    1.4289   -4.9500    0.0000 C   0  0  0  0  0  0  0  0  0  0  0  0
    0.7145   -5.3625    0.0000 O   0  0  0  0  0  0  0  0  0  0  0  0
    2.1434   -5.3625    0.0000 N   0  0  0  0  0  0  0  0  0  0  0  0
    2.1434   -6.1875    0.0000 C   0  0  0  0  0  0  0  0  0  0  0  0
    2.8579   -6.6000    0.0000 N   0  0  0  0  0  0  0  0  0  0  0  0
    2.8579   -7.4250    0.0000 C   0  0  0  0  0  0  0  0  0  0  0  0
    2.1434   -7.8375    0.0000 C   0  0  0  0  0  0  0  0  0  0  0  0
    1.4289   -7.4250    0.0000 C   0  0  0  0  0  0  0  0  0  0  0  0
    1.4289   -6.6000    0.0000 C   0  0  0  0  0  0  0  0  0  0  0  0
    2.1434   -8.6625    0.0000 C   0  0  0  0  0  0  0  0  0  0  0  0
    2.1434   -9.4875    0.0000 F   0  0  0  0  0  0  0  0  0  0  0  0
    1.3184   -8.6625    0.0000 F   0  0  0  0  0  0  0  0  0  0  0  0
    2.9684   -8.6625    0.0000 F   0  0  0  0  0  0  0  0  0  0  0  0
   -0.4125   -1.5395    0.0000 C   0  0  0  0  0  0  0  0  0  0  0  0
    0.4125   -0.1105    0.0000 C   0  0  0  0  0  0  0  0  0  0  0  0
  1  2  1  0  0  0  0
  2  3  1  0  0  0  0
  3  4  2  0  0  0  0
  3  5  2  0  0  0  0
  3  6  1  0  0  0  0
  7  6  1  1  0  0  0
  7  8  1  0  0  0  0
  8  9  1  0  0  0  0
  9 10  1  0  0  0  0
 10 11  1  0  0  0  0
 11 12  1  0  0  0  0
  7 12  1  0  0  0  0
 10 13  1  6  0  0  0
 13 14  2  0  0  0  0
 13 15  1  0  0  0  0
 15 16  1  0  0  0  0
 16 17  2  0  0  0  0
 17 18  1  0  0  0  0
 18 19  2  0  0  0  0
 19 20  1  0  0  0  0
 20 21  2  0  0  0  0
 16 21  1  0  0  0  0
 19 22  1  0  0  0  0
 22 23  1  0  0  0  0
 22 24  1  0  0  0  0
 22 25  1  0  0  0  0
  2 26  1  0  0  0  0
  2 27  1  0  0  0  0
M  END
> <DATABASE_ID>
DB12889

> <DATABASE_NAME>
drugbank

> <SMILES>
CC(C)(C)S(=O)(=O)N[C@H]1CC[C@@H](CC1)C(=O)NC1=NC=C(C=C1)C(F)(F)F

> <INCHI_IDENTIFIER>
InChI=1S/C17H24F3N3O3S/c1-16(2,3)27(25,26)23-13-7-4-11(5-8-13)15(24)22-14-9-6-12(10-21-14)17(18,19)20/h6,9-11,13,23H,4-5,7-8H2,1-3H3,(H,21,22,24)/t11-,13-

> <INCHI_KEY>
WGEWUYACXPEFPO-AULYBMBSSA-N

> <FORMULA>
C17H24F3N3O3S

> <MOLECULAR_WEIGHT>
407.45

> <EXACT_MASS>
407.149047308

> <JCHEM_ACCEPTOR_COUNT>
4

> <JCHEM_ATOM_COUNT>
51

> <JCHEM_AVERAGE_POLARIZABILITY>
39.60804629553697

> <JCHEM_BIOAVAILABILITY>
1

> <JCHEM_DONOR_COUNT>
2

> <JCHEM_FORMAL_CHARGE>
0

> <JCHEM_GHOSE_FILTER>
1

> <JCHEM_IUPAC>
(1r,4r)-4-(2-methylpropane-2-sulfonamido)-N-[5-(trifluoromethyl)pyridin-2-yl]cyclohexane-1-carboxamide

> <ALOGPS_LOGP>
2.58

> <JCHEM_LOGP>
2.9099043776666664

> <ALOGPS_LOGS>
-3.94

> <JCHEM_MDDR_LIKE_RULE>
0

> <JCHEM_NUMBER_OF_RINGS>
2

> <JCHEM_PHYSIOLOGICAL_CHARGE>
0

> <JCHEM_PKA>
12.271527682468871

> <JCHEM_PKA_STRONGEST_ACIDIC>
11.659173813947096

> <JCHEM_PKA_STRONGEST_BASIC>
2.942207737095713

> <JCHEM_POLAR_SURFACE_AREA>
88.16

> <JCHEM_REFRACTIVITY>
96.80230000000003

> <JCHEM_ROTATABLE_BOND_COUNT>
5

> <JCHEM_RULE_OF_FIVE>
1

> <ALOGPS_SOLUBILITY>
4.66e-02 g/l

> <JCHEM_TRADITIONAL_IUPAC>
(1r,4r)-4-(2-methylpropane-2-sulfonamido)-N-[5-(trifluoromethyl)pyridin-2-yl]cyclohexane-1-carboxamide

> <JCHEM_VEBER_RULE>
0

> <DRUGBANK_ID>
DB12889

> <DRUG_GROUPS>
investigational

> <GENERIC_NAME>
Velneperit

> <SYNONYMS>
Velneperit

$$$$
