
  Mrv1718003251823132D          

 28 29  0  0  0  0            999 V2000
   -3.1561    0.6541    0.0000 C   0  0  0  0  0  0  0  0  0  0  0  0
   -3.1573   -0.1731    0.0000 C   0  0  0  0  0  0  0  0  0  0  0  0
   -2.4425   -0.5860    0.0000 C   0  0  0  0  0  0  0  0  0  0  0  0
   -1.7262   -0.1726    0.0000 C   0  0  0  0  0  0  0  0  0  0  0  0
   -1.7289    0.6577    0.0000 C   0  0  0  0  0  0  0  0  0  0  0  0
   -2.4444    1.0668    0.0000 C   0  0  0  0  0  0  0  0  0  0  0  0
   -1.0111   -0.5840    0.0000 C   0  0  0  0  0  0  0  0  0  0  0  0
   -0.2972   -0.1704    0.0000 C   0  0  2  0  0  0  0  0  0  0  0  0
    0.4177   -0.5818    0.0000 C   0  0  0  0  0  0  0  0  0  0  0  0
    1.1315   -0.1681    0.0000 C   0  0  0  0  0  0  0  0  0  0  0  0
    1.8465   -0.5795    0.0000 N   0  0  0  0  0  0  0  0  0  0  0  0
    1.1302    0.6567    0.0000 O   0  0  0  0  0  0  0  0  0  0  0  0
   -0.2986    0.6544    0.0000 N   0  0  0  0  0  0  0  0  0  0  0  0
   -2.4469    1.8918    0.0000 F   0  0  0  0  0  0  0  0  0  0  0  0
   -2.4427   -1.4109    0.0000 F   0  0  0  0  0  0  0  0  0  0  0  0
    2.5220   -0.1194    0.0000 C   0  0  0  0  0  0  0  0  0  0  0  0
    3.3129   -0.3602    0.0000 C   0  0  0  0  0  0  0  0  0  0  0  0
    1.7841   -1.4069    0.0000 C   0  0  0  0  0  0  0  0  0  0  0  0
    3.6196   -1.1246    0.0000 N   0  0  0  0  0  0  0  0  0  0  0  0
    2.3921   -1.9666    0.0000 C   0  0  0  0  0  0  0  0  0  0  0  0
    3.2079   -1.8382    0.0000 C   0  0  0  0  0  0  0  0  0  0  0  0
    3.8707    0.2476    0.0000 O   0  0  0  0  0  0  0  0  0  0  0  0
   -3.8707    1.0664    0.0000 F   0  0  0  0  0  0  0  0  0  0  0  0
    2.3975    0.6960    0.0000 C   0  0  0  0  0  0  0  0  0  0  0  0
    3.0421    1.2122    0.0000 C   0  0  0  0  0  0  0  0  0  0  0  0
    3.3758    1.9666    0.0000 F   0  0  0  0  0  0  0  0  0  0  0  0
    2.2656    1.4909    0.0000 F   0  0  0  0  0  0  0  0  0  0  0  0
    3.8185    0.9337    0.0000 F   0  0  0  0  0  0  0  0  0  0  0  0
  6 14  1  0  0  0  0
  4  7  1  0  0  0  0
  3 15  1  0  0  0  0
  3  4  2  0  0  0  0
 11 16  1  0  0  0  0
  7  8  1  0  0  0  0
 16 17  1  0  0  0  0
 11 18  1  0  0  0  0
  8  9  1  0  0  0  0
 17 19  1  0  0  0  0
  4  5  1  0  0  0  0
 18 20  1  0  0  0  0
  9 10  1  0  0  0  0
 19 21  1  0  0  0  0
 20 21  1  0  0  0  0
  2  3  1  0  0  0  0
 17 22  2  0  0  0  0
 10 11  1  0  0  0  0
  1 23  1  0  0  0  0
  5  6  2  0  0  0  0
 16 24  1  0  0  0  0
 10 12  2  0  0  0  0
 24 25  1  0  0  0  0
  6  1  1  0  0  0  0
 25 26  1  0  0  0  0
  8 13  1  1  0  0  0
 25 27  1  0  0  0  0
  1  2  2  0  0  0  0
 25 28  1  0  0  0  0
M  END
> <DATABASE_ID>
DB07271

> <DATABASE_NAME>
drugbank

> <SMILES>
N[C@@H](CC(=O)N1CCCNC(=O)C1CC(F)(F)F)CC1=C(F)C=C(F)C(F)=C1

> <INCHI_IDENTIFIER>
InChI=1S/C17H19F6N3O2/c18-11-7-13(20)12(19)5-9(11)4-10(24)6-15(27)26-3-1-2-25-16(28)14(26)8-17(21,22)23/h5,7,10,14H,1-4,6,8,24H2,(H,25,28)/t10-,14?/m1/s1

> <INCHI_KEY>
RMDAPSXWBVPVOG-IAPIXIRKSA-N

> <FORMULA>
C17H19F6N3O2

> <MOLECULAR_WEIGHT>
411.3421

> <EXACT_MASS>
411.138146097

> <JCHEM_ACCEPTOR_COUNT>
3

> <JCHEM_ATOM_COUNT>
47

> <JCHEM_AVERAGE_POLARIZABILITY>
34.01082327323561

> <JCHEM_BIOAVAILABILITY>
1

> <JCHEM_DONOR_COUNT>
2

> <JCHEM_FORMAL_CHARGE>
0

> <JCHEM_GHOSE_FILTER>
1

> <JCHEM_IUPAC>
4-[(3R)-3-amino-4-(2,4,5-trifluorophenyl)butanoyl]-3-(2,2,2-trifluoroethyl)-1,4-diazepan-2-one

> <ALOGPS_LOGP>
1.81

> <JCHEM_LOGP>
1.3250740350000008

> <ALOGPS_LOGS>
-3.93

> <JCHEM_MDDR_LIKE_RULE>
0

> <JCHEM_NUMBER_OF_RINGS>
2

> <JCHEM_PHYSIOLOGICAL_CHARGE>
1

> <JCHEM_PKA_STRONGEST_ACIDIC>
12.57740643955523

> <JCHEM_PKA_STRONGEST_BASIC>
8.784817328913624

> <JCHEM_POLAR_SURFACE_AREA>
75.43

> <JCHEM_REFRACTIVITY>
87.35250000000002

> <JCHEM_ROTATABLE_BOND_COUNT>
6

> <JCHEM_RULE_OF_FIVE>
1

> <ALOGPS_SOLUBILITY>
4.85e-02 g/l

> <JCHEM_TRADITIONAL_IUPAC>
4-[(3R)-3-amino-4-(2,4,5-trifluorophenyl)butanoyl]-3-(2,2,2-trifluoroethyl)-1,4-diazepan-2-one

> <JCHEM_VEBER_RULE>
0

> <DRUGBANK_ID>
DB07271

> <DRUG_GROUPS>
experimental

> <GENERIC_NAME>
4-[(3R)-3-Amino-4-(2,4,5-trifluorophenyl)butanoyl]-3-(2,2,2-trifluoroethyl)-1,4-diazepan-2-one

$$$$
