
  Mrv1718007121816152D          

  1  0  0  0  0  0            999 V2000
    0.0000    0.0000    0.0000 Sr  0  2  0  0  0  0  0  0  0  0  0  0
M  CHG  1   1   2
M  ISO  1   1  89
M  END
> <DATABASE_ID>
DB14536

> <DATABASE_NAME>
drugbank

> <SMILES>
[89Sr++]

> <INCHI_IDENTIFIER>
InChI=1S/Sr/q+2/i1+1

> <INCHI_KEY>
PWYYWQHXAPXYMF-OUBTZVSYSA-N

> <FORMULA>
Sr

> <MOLECULAR_WEIGHT>
88.9064

> <EXACT_MASS>
88.906355746

> <JCHEM_ACCEPTOR_COUNT>
0

> <JCHEM_ATOM_COUNT>
1

> <JCHEM_AVERAGE_POLARIZABILITY>
1.7784

> <JCHEM_BIOAVAILABILITY>
1

> <JCHEM_DONOR_COUNT>
0

> <JCHEM_FORMAL_CHARGE>
2

> <JCHEM_GHOSE_FILTER>
0

> <JCHEM_IUPAC>
(89Sr)strontium(2+) ion

> <JCHEM_LOGP>
-0.3

> <JCHEM_MDDR_LIKE_RULE>
0

> <JCHEM_NUMBER_OF_RINGS>
0

> <JCHEM_PHYSIOLOGICAL_CHARGE>
2

> <JCHEM_PKA>
3.55

> <JCHEM_PKA_STRONGEST_ACIDIC>
3.09

> <JCHEM_POLAR_SURFACE_AREA>
0.0

> <JCHEM_REFRACTIVITY>
0.0

> <JCHEM_ROTATABLE_BOND_COUNT>
0

> <JCHEM_RULE_OF_FIVE>
1

> <JCHEM_TRADITIONAL_IUPAC>
(89Sr)strontium(2+) ion

> <JCHEM_VEBER_RULE>
1

> <DRUGBANK_ID>
DB14536

> <DRUG_GROUPS>
experimental

> <GENERIC_NAME>
Strontium cation Sr-89

> <SYNONYMS>
Strontium (89Sr) cation; Strontium Sr-89 cation; Strontium-89

$$$$
