
  Mrv1718006261812152D          

 91 95  0  0  0  0            999 V2000
    0.0195   -0.7930    0.0000 C   0  0  2  0  0  0  0  0  0  0  0  0
    0.8394   -0.7978    0.0000 C   0  0  2  0  0  0  0  0  0  0  0  0
    2.9916    0.3587    0.0000 C   0  0  2  0  0  0  0  0  0  0  0  0
   -3.8261   -0.4367    0.0000 C   0  0  2  0  0  0  0  0  0  0  0  0
    3.4162    1.0614    0.0000 C   0  0  1  0  0  0  0  0  0  0  0  0
   -3.4063    0.2513    0.0000 C   0  0  2  0  0  0  0  0  0  0  0  0
   -6.0417   -1.5446    0.0000 C   0  0  1  0  0  0  0  0  0  0  0  0
    4.2262   -0.3634    0.0000 C   0  0  1  0  0  0  0  0  0  0  0  0
    4.6460    0.3294    0.0000 C   0  0  1  0  0  0  0  0  0  0  0  0
    7.6718    0.0219    0.0000 C   0  0  2  0  0  0  0  0  0  0  0  0
   -2.1765   -0.4659    0.0000 C   0  0  2  0  0  0  0  0  0  0  0  0
    0.8345   -2.2375    0.0000 S   0  0  0  0  0  0  0  0  0  0  0  0
    7.6571   -1.4274    0.0000 S   0  0  0  0  0  0  0  0  0  0  0  0
   -6.0516   -2.9744    0.0000 S   0  0  0  0  0  0  0  0  0  0  0  0
    1.2639   -0.0951    0.0000 C   0  0  1  0  0  0  0  0  0  0  0  0
   -5.6269   -0.8369    0.0000 C   0  0  1  0  0  0  0  0  0  0  0  0
   -1.2200   -1.5153    0.0000 S   0  0  0  0  0  0  0  0  0  0  0  0
    4.2116   -1.7934    0.0000 S   0  0  0  0  0  0  0  0  0  0  0  0
   -0.3806   -0.0707    0.0000 C   0  0  1  0  0  0  0  0  0  0  0  0
    4.2408    1.0614    0.0000 O   0  0  0  0  0  0  0  0  0  0  0  0
   -2.5914    0.2513    0.0000 O   0  0  0  0  0  0  0  0  0  0  0  0
   -8.4867    1.3298    0.0000 S   0  0  0  0  0  0  0  0  0  0  0  0
    5.2267    2.8769    0.0000 S   0  0  0  0  0  0  0  0  0  0  0  0
   -1.6055    2.0815    0.0000 S   0  0  0  0  0  0  0  0  0  0  0  0
    6.4468    0.7247    0.0000 C   0  0  1  0  0  0  0  0  0  0  0  0
    3.4015   -0.3634    0.0000 C   0  0  1  0  0  0  0  0  0  0  0  0
   -2.6011   -1.1786    0.0000 C   0  0  1  0  0  0  0  0  0  0  0  0
   -3.4210   -1.1639    0.0000 C   0  0  1  0  0  0  0  0  0  0  0  0
    6.8469    0.0073    0.0000 C   0  0  2  0  0  0  0  0  0  0  0  0
   -6.8616   -1.5446    0.0000 C   0  0  2  0  0  0  0  0  0  0  0  0
   -4.6508   -0.4513    0.0000 O   0  0  0  0  0  0  0  0  0  0  0  0
    2.0936    0.3392    0.0000 O   0  0  0  0  0  0  0  0  0  0  0  0
    0.8540    0.6368    0.0000 O   0  0  0  0  0  0  0  0  0  0  0  0
   -6.0270   -0.1097    0.0000 O   0  0  0  0  0  0  0  0  0  0  0  0
    0.0342    0.6368    0.0000 C   0  0  2  0  0  0  0  0  0  0  0  0
   -1.3518   -0.0658    0.0000 O   0  0  0  0  0  0  0  0  0  0  0  0
    6.8665    1.4324    0.0000 C   0  0  2  0  0  0  0  0  0  0  0  0
    5.4659    0.7393    0.0000 O   0  0  0  0  0  0  0  0  0  0  0  0
    8.1012    0.7100    0.0000 C   0  0  2  0  0  0  0  0  0  0  0  0
    7.6864    1.4324    0.0000 O   0  0  0  0  0  0  0  0  0  0  0  0
   -6.8469   -0.1097    0.0000 C   0  0  1  0  0  0  0  0  0  0  0  0
   -7.2765   -0.8223    0.0000 C   0  0  1  0  0  0  0  0  0  0  0  0
    1.2493   -1.5153    0.0000 N   0  0  0  0  0  0  0  0  0  0  0  0
   -5.6416   -2.2668    0.0000 N   0  0  0  0  0  0  0  0  0  0  0  0
    8.0866   -0.7100    0.0000 N   0  0  0  0  0  0  0  0  0  0  0  0
   -0.3952   -1.5007    0.0000 O   0  0  0  0  0  0  0  0  0  0  0  0
    4.6314   -1.0760    0.0000 O   0  0  0  0  0  0  0  0  0  0  0  0
   -3.8115    0.9735    0.0000 C   0  0  0  0  0  0  0  0  0  0  0  0
    3.0062    1.7837    0.0000 C   0  0  0  0  0  0  0  0  0  0  0  0
   -0.3659    1.3542    0.0000 C   0  0  0  0  0  0  0  0  0  0  0  0
    6.4615    2.1547    0.0000 C   0  0  0  0  0  0  0  0  0  0  0  0
   -7.2618    0.6075    0.0000 C   0  0  0  0  0  0  0  0  0  0  0  0
   -1.1956    1.3689    0.0000 O   0  0  0  0  0  0  0  0  0  0  0  0
    5.6269    2.1547    0.0000 O   0  0  0  0  0  0  0  0  0  0  0  0
   -8.0866    0.5929    0.0000 O   0  0  0  0  0  0  0  0  0  0  0  0
    1.2395   -2.9402    0.0000 O   0  0  0  0  0  0  0  0  0  0  0  0
   -5.6416   -3.6821    0.0000 O   0  0  0  0  0  0  0  0  0  0  0  0
    8.0720   -2.1449    0.0000 O   0  0  0  0  0  0  0  0  0  0  0  0
    4.6264   -2.5109    0.0000 O   0  0  0  0  0  0  0  0  0  0  0  0
   -1.6348   -2.2180    0.0000 O   0  0  0  0  0  0  0  0  0  0  0  0
    4.4068    2.8769    0.0000 O   0  0  0  0  0  0  0  0  0  0  0  0
   -9.3212    1.3250    0.0000 O   0  0  0  0  0  0  0  0  0  0  0  0
   -2.4303    2.0668    0.0000 O   0  0  0  0  0  0  0  0  0  0  0  0
    0.2489   -1.6471    0.0000 O   0  0  0  0  0  0  0  0  0  0  0  0
   -6.7738   -3.3844    0.0000 O   0  0  0  0  0  0  0  0  0  0  0  0
   -6.7738   -2.5694    0.0000 O   0  0  0  0  0  0  0  0  0  0  0  0
    7.0714   -0.8369    0.0000 O   0  0  0  0  0  0  0  0  0  0  0  0
    7.0714   -2.0081    0.0000 O   0  0  0  0  0  0  0  0  0  0  0  0
    0.2489   -2.8084    0.0000 O   0  0  0  0  0  0  0  0  0  0  0  0
    3.4991   -2.2082    0.0000 O   0  0  0  0  0  0  0  0  0  0  0  0
    3.6358   -1.2078    0.0000 O   0  0  0  0  0  0  0  0  0  0  0  0
   -1.2200   -0.6758    0.0000 O   0  0  0  0  0  0  0  0  0  0  0  0
   -2.0155   -1.2810    0.0000 O   0  0  0  0  0  0  0  0  0  0  0  0
   -8.2915    2.1254    0.0000 O   0  0  0  0  0  0  0  0  0  0  0  0
   -0.8102    2.2865    0.0000 O   0  0  0  0  0  0  0  0  0  0  0  0
    6.0223    3.0964    0.0000 O   0  0  0  0  0  0  0  0  0  0  0  0
    5.4366    3.6821    0.0000 O   0  0  0  0  0  0  0  0  0  0  0  0
   -1.3859    2.8769    0.0000 O   0  0  0  0  0  0  0  0  0  0  0  0
   -7.7010    1.5349    0.0000 O   0  0  0  0  0  0  0  0  0  0  0  0
    2.1814    1.7691    0.0000 O   0  0  0  0  0  0  0  0  0  0  0  0
   -4.6411    0.9883    0.0000 O   0  0  0  0  0  0  0  0  0  0  0  0
   -3.4015    1.6910    0.0000 O   0  0  0  0  0  0  0  0  0  0  0  0
    3.4259    2.4962    0.0000 O   0  0  0  0  0  0  0  0  0  0  0  0
   -2.1912   -1.8959    0.0000 O   0  0  0  0  0  0  0  0  0  0  0  0
    2.9770   -1.0711    0.0000 O   0  0  0  0  0  0  0  0  0  0  0  0
   -3.8408   -1.8813    0.0000 O   0  0  0  0  0  0  0  0  0  0  0  0
    6.4322   -0.7051    0.0000 O   0  0  0  0  0  0  0  0  0  0  0  0
   -7.2862   -2.2619    0.0000 O   0  0  0  0  0  0  0  0  0  0  0  0
   -8.1012   -0.8418    0.0000 O   0  0  0  0  0  0  0  0  0  0  0  0
    8.9211    0.7100    0.0000 O   0  0  0  0  0  0  0  0  0  0  0  0
    9.3212   -0.0073    0.0000 C   0  0  0  0  0  0  0  0  0  0  0  0
  2  1  1  0  0  0  0
  3 32  1  6  0  0  0
  4 28  1  0  0  0  0
  5  3  1  0  0  0  0
  6 21  1  0  0  0  0
  7 16  1  0  0  0  0
  8 26  1  0  0  0  0
  9  8  1  0  0  0  0
 10 29  1  0  0  0  0
 11 36  1  1  0  0  0
 12 43  1  0  0  0  0
 13 45  1  0  0  0  0
 14 44  1  0  0  0  0
 15  2  1  0  0  0  0
 16 31  1  6  0  0  0
 17 46  1  0  0  0  0
 18 47  1  0  0  0  0
 19  1  1  0  0  0  0
 20  5  1  0  0  0  0
 21 11  1  0  0  0  0
 22 55  1  0  0  0  0
 23 54  1  0  0  0  0
 24 53  1  0  0  0  0
 25 38  1  6  0  0  0
 26  3  1  0  0  0  0
 27 11  1  0  0  0  0
 28 27  1  0  0  0  0
 29 25  1  0  0  0  0
 30  7  1  0  0  0  0
  4 31  1  6  0  0  0
 15 32  1  6  0  0  0
 33 35  1  0  0  0  0
 34 16  1  0  0  0  0
 35 19  1  0  0  0  0
 19 36  1  6  0  0  0
 37 25  1  0  0  0  0
  9 38  1  1  0  0  0
 39 40  1  0  0  0  0
 40 37  1  0  0  0  0
 41 34  1  0  0  0  0
 42 41  1  0  0  0  0
  2 43  1  6  0  0  0
  7 44  1  6  0  0  0
 10 45  1  6  0  0  0
  1 46  1  1  0  0  0
  8 47  1  6  0  0  0
  6 48  1  1  0  0  0
  5 49  1  6  0  0  0
 35 50  1  1  0  0  0
 37 51  1  1  0  0  0
 41 52  1  1  0  0  0
 53 50  1  0  0  0  0
 54 51  1  0  0  0  0
 55 52  1  0  0  0  0
 56 12  1  0  0  0  0
 57 14  1  0  0  0  0
 58 13  1  0  0  0  0
 59 18  1  0  0  0  0
 60 17  1  0  0  0  0
 61 23  1  0  0  0  0
 62 22  1  0  0  0  0
 63 24  1  0  0  0  0
 64 12  2  0  0  0  0
 65 14  2  0  0  0  0
 66 14  2  0  0  0  0
 67 13  2  0  0  0  0
 68 13  2  0  0  0  0
 69 12  2  0  0  0  0
 70 18  2  0  0  0  0
 71 18  2  0  0  0  0
 72 17  2  0  0  0  0
 73 17  2  0  0  0  0
 74 22  2  0  0  0  0
 75 24  2  0  0  0  0
 76 23  2  0  0  0  0
 77 23  2  0  0  0  0
 78 24  2  0  0  0  0
 79 22  2  0  0  0  0
 80 49  1  0  0  0  0
 81 48  1  0  0  0  0
 82 48  2  0  0  0  0
 83 49  2  0  0  0  0
 27 84  1  6  0  0  0
 26 85  1  1  0  0  0
 28 86  1  1  0  0  0
 29 87  1  1  0  0  0
 30 88  1  1  0  0  0
 42 89  1  6  0  0  0
 39 90  1  6  0  0  0
 91 90  1  0  0  0  0
 15 33  1  0  0  0  0
  6  4  1  0  0  0  0
  9 20  1  0  0  0  0
 42 30  1  0  0  0  0
 10 39  1  0  0  0  0
M  END
> <DATABASE_ID>
DB00569

> <DATABASE_NAME>
drugbank

> <SMILES>
CO[C@H]1O[C@H](COS(O)(=O)=O)[C@@H](O[C@@H]2O[C@H]([C@@H](O[C@H]3O[C@H](COS(O)(=O)=O)[C@@H](O[C@@H]4O[C@@H]([C@@H](O[C@H]5O[C@H](COS(O)(=O)=O)[C@@H](O)[C@H](O)[C@H]5NS(O)(=O)=O)[C@H](O)[C@H]4O)C(O)=O)[C@H](OS(O)(=O)=O)[C@H]3NS(O)(=O)=O)[C@H](O)[C@H]2OS(O)(=O)=O)C(O)=O)[C@H](O)[C@H]1NS(O)(=O)=O

> <INCHI_IDENTIFIER>
InChI=1S/C31H53N3O49S8/c1-69-27-9(33-85(48,49)50)13(37)17(6(74-27)3-71-88(57,58)59)76-31-22(83-91(66,67)68)16(40)21(24(81-31)26(43)44)79-29-10(34-86(51,52)53)19(82-90(63,64)65)18(7(75-29)4-72-89(60,61)62)77-30-15(39)14(38)20(23(80-30)25(41)42)78-28-8(32-84(45,46)47)12(36)11(35)5(73-28)2-70-87(54,55)56/h5-24,27-40H,2-4H2,1H3,(H,41,42)(H,43,44)(H,45,46,47)(H,48,49,50)(H,51,52,53)(H,54,55,56)(H,57,58,59)(H,60,61,62)(H,63,64,65)(H,66,67,68)/t5-,6-,7-,8-,9-,10-,11-,12-,13-,14-,15-,16+,17-,18-,19-,20+,21+,22-,23+,24-,27+,28-,29-,30-,31-/m1/s1

> <INCHI_KEY>
KANJSNBRCNMZMV-ABRZTLGGSA-N

> <FORMULA>
C31H53N3O49S8

> <MOLECULAR_WEIGHT>
1508.263

> <EXACT_MASS>
1506.951330709

> <JCHEM_ACCEPTOR_COUNT>
44

> <JCHEM_ATOM_COUNT>
144

> <JCHEM_AVERAGE_POLARIZABILITY>
122.56455111610754

> <JCHEM_BIOAVAILABILITY>
0

> <JCHEM_DONOR_COUNT>
19

> <JCHEM_FORMAL_CHARGE>
0

> <JCHEM_GHOSE_FILTER>
0

> <JCHEM_IUPAC>
(2R,3S,4S,5R,6R)-3-{[(2R,3R,4R,5R,6R)-5-{[(2R,3R,4R,5S,6S)-6-carboxy-5-{[(2R,3R,4R,5S,6R)-4,5-dihydroxy-3-(sulfoamino)-6-[(sulfooxy)methyl]oxan-2-yl]oxy}-3,4-dihydroxyoxan-2-yl]oxy}-3-(sulfoamino)-4-(sulfooxy)-6-[(sulfooxy)methyl]oxan-2-yl]oxy}-4-hydroxy-6-{[(2R,3S,4R,5R,6S)-4-hydroxy-6-methoxy-5-(sulfoamino)-2-[(sulfooxy)methyl]oxan-3-yl]oxy}-5-(sulfooxy)oxane-2-carboxylic acid

> <ALOGPS_LOGP>
-1.58

> <JCHEM_LOGP>
-10.479801889

> <ALOGPS_LOGS>
-2.28

> <JCHEM_MDDR_LIKE_RULE>
1

> <JCHEM_NUMBER_OF_RINGS>
5

> <JCHEM_PHYSIOLOGICAL_CHARGE>
-10

> <JCHEM_PKA>
-2.570233228629042

> <JCHEM_PKA_STRONGEST_ACIDIC>
-2.9501637229060824

> <JCHEM_POLAR_SURFACE_AREA>
805.4800000000005

> <JCHEM_REFRACTIVITY>
255.84640000000036

> <JCHEM_ROTATABLE_BOND_COUNT>
27

> <JCHEM_RULE_OF_FIVE>
0

> <ALOGPS_SOLUBILITY>
7.91e+00 g/l

> <JCHEM_TRADITIONAL_IUPAC>
natural heparin pentasaccharide

> <JCHEM_VEBER_RULE>
0

> <DRUGBANK_ID>
DB00569

> <SECONDARY_ACCESSION_NUMBERS>
APRD00500; DB11728

> <DRUG_GROUPS>
approved; investigational

> <GENERIC_NAME>
Fondaparinux

> <SYNONYMS>
Natural heparin pentasaccharide

> <PRODUCTS>
Arixtra; Fondaparinux Sodium; Fondaparinux Sodium Injection

> <SALTS>
Fondaparinux sodium

$$$$
