
  Mrv1909 05272114592D          

 87 92  0  0  1  0            999 V2000
   -8.6216   -2.6277    0.0000 N   0  0  0  0  0  0  0  0  0  0  0  0
   -8.5350   -1.8082    0.0000 C   0  0  2  0  0  0  0  0  0  0  0  0
   -7.8215   -1.3982    0.0000 C   0  0  0  0  0  0  0  0  0  0  0  0
   -7.1035   -1.8082    0.0000 O   0  0  0  0  0  0  0  0  0  0  0  0
   -7.8215   -0.5732    0.0000 N   0  0  0  0  0  0  0  0  0  0  0  0
   -7.1035   -0.1583    0.0000 C   0  0  2  0  0  0  0  0  0  0  0  0
   -6.3901   -0.5732    0.0000 C   0  0  0  0  0  0  0  0  0  0  0  0
   -5.6767   -0.1583    0.0000 N   0  0  0  0  0  0  0  0  0  0  0  0
   -4.9633   -0.5732    0.0000 C   0  0  2  0  0  0  0  0  0  0  0  0
   -4.2500   -0.1583    0.0000 C   0  0  0  0  0  0  0  0  0  0  0  0
   -3.5366   -0.5732    0.0000 N   0  0  0  0  0  0  0  0  0  0  0  0
   -2.8232   -0.1583    0.0000 C   0  0  2  0  0  0  0  0  0  0  0  0
   -2.1052   -0.5732    0.0000 C   0  0  0  0  0  0  0  0  0  0  0  0
   -1.3919   -0.1583    0.0000 N   0  0  0  0  0  0  0  0  0  0  0  0
   -0.6786   -0.5731    0.0000 C   0  0  2  0  0  0  0  0  0  0  0  0
    0.0348   -0.1583    0.0000 C   0  0  0  0  0  0  0  0  0  0  0  0
    0.7482   -0.5731    0.0000 N   0  0  0  0  0  0  0  0  0  0  0  0
    1.4615   -0.1583    0.0000 C   0  0  1  0  0  0  0  0  0  0  0  0
    2.1750   -0.5731    0.0000 C   0  0  0  0  0  0  0  0  0  0  0  0
    2.1750   -1.3981    0.0000 O   0  0  0  0  0  0  0  0  0  0  0  0
    2.8929   -0.1583    0.0000 N   0  0  0  0  0  0  0  0  0  0  0  0
    3.6064   -0.5731    0.0000 C   0  0  2  0  0  0  0  0  0  0  0  0
    4.3198   -0.1582    0.0000 C   0  0  0  0  0  0  0  0  0  0  0  0
    5.0331   -0.5731    0.0000 N   0  0  0  0  0  0  0  0  0  0  0  0
    5.7464   -0.1582    0.0000 C   0  0  2  0  0  0  0  0  0  0  0  0
    6.4600   -0.5731    0.0000 C   0  0  0  0  0  0  0  0  0  0  0  0
    7.1779   -0.1582    0.0000 N   0  0  0  0  0  0  0  0  0  0  0  0
    7.9299   -0.4932    0.0000 C   0  0  1  0  0  0  0  0  0  0  0  0
    8.4822    0.1199    0.0000 C   0  0  0  0  0  0  0  0  0  0  0  0
    8.0675    0.8332    0.0000 C   0  0  0  0  0  0  0  0  0  0  0  0
    7.2598    0.6611    0.0000 C   0  0  0  0  0  0  0  0  0  0  0  0
    8.1018   -1.3008    0.0000 C   0  0  0  0  0  0  0  0  0  0  0  0
    7.4889   -1.8532    0.0000 O   0  0  0  0  0  0  0  0  0  0  0  0
    8.8869   -1.5559    0.0000 N   0  0  0  0  0  0  0  0  0  0  0  0
    9.0543   -2.3635    0.0000 C   0  0  0  0  0  0  0  0  0  0  0  0
    9.8393   -2.6186    0.0000 C   0  0  0  0  0  0  0  0  0  0  0  0
    6.4600   -1.3981    0.0000 O   0  0  0  0  0  0  0  0  0  0  0  0
    5.7464    0.6666    0.0000 C   0  0  0  0  0  0  0  0  0  0  0  0
    6.4600    1.0767    0.0000 C   0  0  0  0  0  0  0  0  0  0  0  0
    6.4600    1.9017    0.0000 C   0  0  0  0  0  0  0  0  0  0  0  0
    7.1778    2.3165    0.0000 N   0  0  0  0  0  0  0  0  0  0  0  0
    7.1778    3.1414    0.0000 C   0  0  0  0  0  0  0  0  0  0  0  0
    6.4600    3.5516    0.0000 N   0  0  0  0  0  0  0  0  0  0  0  0
    7.8913    3.5516    0.0000 N   0  0  0  0  0  0  0  0  0  0  0  0
    4.3198    0.6666    0.0000 O   0  0  0  0  0  0  0  0  0  0  0  0
    3.6064   -1.3981    0.0000 C   0  0  0  0  0  0  0  0  0  0  0  0
    4.3199   -1.8082    0.0000 C   0  0  0  0  0  0  0  0  0  0  0  0
    4.3199   -2.6331    0.0000 C   0  0  0  0  0  0  0  0  0  0  0  0
    5.0331   -1.3981    0.0000 C   0  0  0  0  0  0  0  0  0  0  0  0
    1.4615    0.6665    0.0000 C   0  0  0  0  0  0  0  0  0  0  0  0
    2.1750    1.0766    0.0000 C   0  0  0  0  0  0  0  0  0  0  0  0
    2.1750    1.9016    0.0000 C   0  0  0  0  0  0  0  0  0  0  0  0
    2.8929    0.6666    0.0000 C   0  0  0  0  0  0  0  0  0  0  0  0
    0.0348    0.6665    0.0000 O   0  0  0  0  0  0  0  0  0  0  0  0
   -0.6786   -1.3982    0.0000 C   0  0  0  0  0  0  0  0  0  0  0  0
    0.0348   -1.8082    0.0000 C   0  0  0  0  0  0  0  0  0  0  0  0
    0.0348   -2.6331    0.0000 C   0  0  0  0  0  0  0  0  0  0  0  0
    0.7482   -3.0432    0.0000 C   0  0  0  0  0  0  0  0  0  0  0  0
    1.4615   -2.6331    0.0000 C   0  0  0  0  0  0  0  0  0  0  0  0
    1.4615   -1.8082    0.0000 C   0  0  0  0  0  0  0  0  0  0  0  0
    0.7482   -1.3982    0.0000 C   0  0  0  0  0  0  0  0  0  0  0  0
    2.1750   -3.0432    0.0000 O   0  0  0  0  0  0  0  0  0  0  0  0
   -2.1052   -1.3982    0.0000 O   0  0  0  0  0  0  0  0  0  0  0  0
   -2.8232    0.6665    0.0000 C   0  0  0  0  0  0  0  0  0  0  0  0
   -2.1052    1.0766    0.0000 O   0  0  0  0  0  0  0  0  0  0  0  0
   -4.2500    0.6665    0.0000 O   0  0  0  0  0  0  0  0  0  0  0  0
   -4.9633   -1.3982    0.0000 C   0  0  0  0  0  0  0  0  0  0  0  0
   -4.4721   -2.0767    0.0000 C   0  0  0  0  0  0  0  0  0  0  0  0
   -4.8925   -2.7856    0.0000 C   0  0  0  0  0  0  0  0  0  0  0  0
   -4.3485   -3.4033    0.0000 N   0  0  0  0  0  0  0  0  0  0  0  0
   -3.5909   -3.0764    0.0000 C   0  0  0  0  0  0  0  0  0  0  0  0
   -3.6664   -2.2569    0.0000 C   0  0  0  0  0  0  0  0  0  0  0  0
   -2.9962   -1.7794    0.0000 C   0  0  0  0  0  0  0  0  0  0  0  0
   -2.2462   -2.1233    0.0000 C   0  0  0  0  0  0  0  0  0  0  0  0
   -2.1665   -2.9445    0.0000 C   0  0  0  0  0  0  0  0  0  0  0  0
   -2.8410   -3.4202    0.0000 C   0  0  0  0  0  0  0  0  0  0  0  0
   -6.3901   -1.3982    0.0000 O   0  0  0  0  0  0  0  0  0  0  0  0
   -7.1035    0.6665    0.0000 C   0  0  0  0  0  0  0  0  0  0  0  0
   -7.8215    1.0766    0.0000 C   0  0  0  0  0  0  0  0  0  0  0  0
   -7.9081    1.8961    0.0000 C   0  0  0  0  0  0  0  0  0  0  0  0
   -8.7111    2.0681    0.0000 N   0  0  0  0  0  0  0  0  0  0  0  0
   -9.1259    1.3546    0.0000 C   0  0  0  0  0  0  0  0  0  0  0  0
   -8.5734    0.7418    0.0000 N   0  0  0  0  0  0  0  0  0  0  0  0
   -9.2868   -1.4733    0.0000 C   0  0  0  0  0  0  0  0  0  0  0  0
   -9.8393   -2.0864    0.0000 C   0  0  0  0  0  0  0  0  0  0  0  0
   -9.4245   -2.7997    0.0000 C   0  0  0  0  0  0  0  0  0  0  0  0
   -9.7640   -3.5516    0.0000 O   0  0  0  0  0  0  0  0  0  0  0  0
  1  2  1  0  0  0  0
  2  3  1  1  0  0  0
  3  4  2  0  0  0  0
  3  5  1  0  0  0  0
  5  6  1  0  0  0  0
  6  7  1  0  0  0  0
  7  8  1  0  0  0  0
  8  9  1  0  0  0  0
  9 10  1  0  0  0  0
 10 11  1  0  0  0  0
 11 12  1  0  0  0  0
 12 13  1  0  0  0  0
 13 14  1  0  0  0  0
 14 15  1  0  0  0  0
 15 16  1  0  0  0  0
 16 17  1  0  0  0  0
 17 18  1  0  0  0  0
 18 19  1  0  0  0  0
 19 20  2  0  0  0  0
 19 21  1  0  0  0  0
 21 22  1  0  0  0  0
 22 23  1  0  0  0  0
 23 24  1  0  0  0  0
 24 25  1  0  0  0  0
 25 26  1  0  0  0  0
 26 27  1  0  0  0  0
 27 28  1  0  0  0  0
 28 29  1  0  0  0  0
 29 30  1  0  0  0  0
 30 31  1  0  0  0  0
 31 27  1  0  0  0  0
 28 32  1  1  0  0  0
 32 33  2  0  0  0  0
 32 34  1  0  0  0  0
 34 35  1  0  0  0  0
 35 36  1  0  0  0  0
 26 37  2  0  0  0  0
 25 38  1  1  0  0  0
 38 39  1  0  0  0  0
 39 40  1  0  0  0  0
 40 41  1  0  0  0  0
 41 42  1  0  0  0  0
 42 43  2  0  0  0  0
 42 44  1  0  0  0  0
 23 45  2  0  0  0  0
 22 46  1  6  0  0  0
 46 47  1  0  0  0  0
 47 48  1  0  0  0  0
 47 49  1  0  0  0  0
 18 50  1  6  0  0  0
 50 51  1  0  0  0  0
 51 52  1  0  0  0  0
 51 53  1  0  0  0  0
 16 54  2  0  0  0  0
 15 55  1  6  0  0  0
 55 56  1  0  0  0  0
 56 57  2  0  0  0  0
 57 58  1  0  0  0  0
 58 59  2  0  0  0  0
 59 60  1  0  0  0  0
 60 61  2  0  0  0  0
 61 56  1  0  0  0  0
 59 62  1  0  0  0  0
 13 63  2  0  0  0  0
 12 64  1  1  0  0  0
 64 65  1  0  0  0  0
 10 66  2  0  0  0  0
  9 67  1  6  0  0  0
 67 68  1  0  0  0  0
 69 68  2  0  0  0  0
 70 69  1  0  0  0  0
 71 70  1  0  0  0  0
 72 71  2  0  0  0  0
 68 72  1  0  0  0  0
 72 73  1  0  0  0  0
 73 74  2  0  0  0  0
 74 75  1  0  0  0  0
 75 76  2  0  0  0  0
 76 71  1  0  0  0  0
  7 77  2  0  0  0  0
  6 78  1  1  0  0  0
 78 79  1  0  0  0  0
 79 80  2  0  0  0  0
 80 81  1  0  0  0  0
 81 82  1  0  0  0  0
 82 83  2  0  0  0  0
 83 79  1  0  0  0  0
  2 84  1  0  0  0  0
 84 85  1  0  0  0  0
 85 86  1  0  0  0  0
 86  1  1  0  0  0  0
 86 87  2  0  0  0  0
M  END
> <DATABASE_ID>
DB00007

> <DATABASE_NAME>
drugbank

> <SMILES>
CCNC(=O)[C@@H]1CCCN1C(=O)[C@H](CCCNC(N)=N)NC(=O)[C@H](CC(C)C)NC(=O)[C@@H](CC(C)C)NC(=O)[C@H](CC1=CC=C(O)C=C1)NC(=O)[C@H](CO)NC(=O)[C@H](CC1=CNC2=C1C=CC=C2)NC(=O)[C@H](CC1=CNC=N1)NC(=O)[C@@H]1CCC(=O)N1

> <INCHI_IDENTIFIER>
InChI=1S/C59H84N16O12/c1-6-63-57(86)48-14-10-22-75(48)58(87)41(13-9-21-64-59(60)61)68-51(80)42(23-32(2)3)69-52(81)43(24-33(4)5)70-53(82)44(25-34-15-17-37(77)18-16-34)71-56(85)47(30-76)74-54(83)45(26-35-28-65-39-12-8-7-11-38(35)39)72-55(84)46(27-36-29-62-31-66-36)73-50(79)40-19-20-49(78)67-40/h7-8,11-12,15-18,28-29,31-33,40-48,65,76-77H,6,9-10,13-14,19-27,30H2,1-5H3,(H,62,66)(H,63,86)(H,67,78)(H,68,80)(H,69,81)(H,70,82)(H,71,85)(H,72,84)(H,73,79)(H,74,83)(H4,60,61,64)/t40-,41-,42-,43+,44-,45-,46-,47-,48-/m0/s1

> <INCHI_KEY>
GFIJNRVAKGFPGQ-LIJARHBVSA-N

> <FORMULA>
C59H84N16O12

> <MOLECULAR_WEIGHT>
1209.3983

> <EXACT_MASS>
1208.645462232

> <JCHEM_ACCEPTOR_COUNT>
16

> <JCHEM_ATOM_COUNT>
171

> <JCHEM_AVERAGE_NEUTRAL_MICROSPECIES_CHARGE>
1.2512171755411934

> <JCHEM_AVERAGE_POLARIZABILITY>
125.23746436496857

> <JCHEM_BIOAVAILABILITY>
0

> <JCHEM_DONOR_COUNT>
16

> <JCHEM_FORMAL_CHARGE>
0

> <JCHEM_GHOSE_FILTER>
0

> <JCHEM_IUPAC>
(2S)-1-[(2S)-5-carbamimidamido-2-[(2S)-2-[(2R)-2-[(2S)-2-[(2S)-3-hydroxy-2-[(2S)-2-[(2S)-3-(1H-imidazol-4-yl)-2-{[(2S)-5-oxopyrrolidin-2-yl]formamido}propanamido]-3-(1H-indol-3-yl)propanamido]propanamido]-3-(4-hydroxyphenyl)propanamido]-4-methylpentanamido]-4-methylpentanamido]pentanoyl]-N-ethylpyrrolidine-2-carboxamide

> <ALOGPS_LOGP>
1.04

> <JCHEM_LOGP>
-2.40151467036951

> <ALOGPS_LOGS>
-4.55

> <JCHEM_MDDR_LIKE_RULE>
1

> <JCHEM_NEUTRAL_CHARGE>
1

> <JCHEM_NUMBER_OF_RINGS>
6

> <JCHEM_PHYSIOLOGICAL_CHARGE>
1

> <JCHEM_PKA>
10.979074128694565

> <JCHEM_PKA_STRONGEST_ACIDIC>
9.489202729908316

> <JCHEM_PKA_STRONGEST_BASIC>
11.918318983199532

> <JCHEM_POLAR_SURFACE_AREA>
429.04

> <JCHEM_REFRACTIVITY>
327.2417000000001

> <JCHEM_ROTATABLE_BOND_COUNT>
32

> <JCHEM_RULE_OF_FIVE>
0

> <ALOGPS_SOLUBILITY>
3.38e-02 g/l

> <JCHEM_TRADITIONAL_IUPAC>
leuprorelin

> <JCHEM_VEBER_RULE>
0

> <DRUGBANK_ID>
DB00007

> <SECONDARY_ACCESSION_NUMBERS>
BTD00009; BIOD00009

> <DRUG_GROUPS>
approved; investigational

> <GENERIC_NAME>
Leuprolide

> <SYNONYMS>
Leuprorelin; Leuprorelina; Leuproreline; Leuprorelinum

> <PRODUCTS>
Camcevi; Eligard; Fensolvi; Leuprolide Acetate; Leuprolide Acetate Depot; Leuprolide Acetate Injection; Lupaneta Pack; Lupron; Lupron Depot; Lupron Depot Ped; Lupron Depot-PED; Viadur; Zeulide Depot

> <INTERNATIONAL_BRANDS>
Camcevi; Leuplin; LeuProMaxx; Memryte; Prostap 3; Prostap SR

> <SALTS>
Leuprolide acetate; Leuprolide mesylate

$$$$
