
  Mrv1652306231722372D          

 15 16  0  0  1  0            999 V2000
   -1.4289   -1.6500    0.0000 C   0  0  0  0  0  0  0  0  0  0  0  0
   -0.7145   -1.2375    0.0000 O   0  0  0  0  0  0  0  0  0  0  0  0
   -0.7145   -0.4125    0.0000 C   0  0  0  0  0  0  0  0  0  0  0  0
   -1.4289    0.0000    0.0000 O   0  0  0  0  0  0  0  0  0  0  0  0
   -0.0000    0.0000    0.0000 C   0  0  1  0  0  0  0  0  0  0  0  0
    0.7145   -0.4125    0.0000 C   0  0  2  0  0  0  0  0  0  0  0  0
    0.5082    0.4125    0.0000 C   0  0  0  0  0  0  0  0  0  0  0  0
    0.7145    1.2375    0.0000 C   0  0  2  0  0  0  0  0  0  0  0  0
    0.0000    0.8250    0.0000 C   0  0  1  0  0  0  0  0  0  0  0  0
   -0.7145    1.2375    0.0000 C   0  0  0  0  0  0  0  0  0  0  0  0
   -1.4289    0.8250    0.0000 O   0  0  0  0  0  0  0  0  0  0  0  0
   -0.7145    2.0625    0.0000 O   0  0  0  0  0  0  0  0  0  0  0  0
   -1.4289    2.4750    0.0000 C   0  0  0  0  0  0  0  0  0  0  0  0
    1.4289    0.8250    0.0000 C   0  0  0  0  0  0  0  0  0  0  0  0
    1.4289    0.0000    0.0000 C   0  0  0  0  0  0  0  0  0  0  0  0
  1  2  1  0  0  0  0
  2  3  1  0  0  0  0
  3  4  2  0  0  0  0
  5  3  1  6  0  0  0
  5  6  1  0  0  0  0
  6  7  1  1  0  0  0
  8  7  1  1  0  0  0
  8  9  1  0  0  0  0
  5  9  1  0  0  0  0
  9 10  1  6  0  0  0
 10 11  2  0  0  0  0
 10 12  1  0  0  0  0
 12 13  1  0  0  0  0
  8 14  1  0  0  0  0
 14 15  2  0  0  0  0
  6 15  1  0  0  0  0
M  END
> <DATABASE_ID>
DB13204

> <DATABASE_NAME>
drugbank

> <SMILES>
COC(=O)[C@H]1[C@@H]2C[C@@H](C=C2)[C@H]1C(=O)OC

> <INCHI_IDENTIFIER>
InChI=1S/C11H14O4/c1-14-10(12)8-6-3-4-7(5-6)9(8)11(13)15-2/h3-4,6-9H,5H2,1-2H3/t6-,7+,8-,9+

> <INCHI_KEY>
VGQLNJWOULYVFV-SPJNRGJMSA-N

> <FORMULA>
C11H14O4

> <MOLECULAR_WEIGHT>
210.229

> <EXACT_MASS>
210.089208931

> <JCHEM_ACCEPTOR_COUNT>
2

> <JCHEM_ATOM_COUNT>
29

> <JCHEM_AVERAGE_POLARIZABILITY>
21.075787752727003

> <JCHEM_BIOAVAILABILITY>
1

> <JCHEM_DONOR_COUNT>
0

> <JCHEM_FORMAL_CHARGE>
0

> <JCHEM_GHOSE_FILTER>
1

> <JCHEM_IUPAC>
2,3-dimethyl (1R,2S,3R,4S)-bicyclo[2.2.1]hept-5-ene-2,3-dicarboxylate

> <ALOGPS_LOGP>
1.07

> <JCHEM_LOGP>
0.7085110969999997

> <ALOGPS_LOGS>
-1.63

> <JCHEM_MDDR_LIKE_RULE>
0

> <JCHEM_NUMBER_OF_RINGS>
2

> <JCHEM_PHYSIOLOGICAL_CHARGE>
0

> <JCHEM_PKA_STRONGEST_BASIC>
-6.777529634114734

> <JCHEM_POLAR_SURFACE_AREA>
52.60000000000001

> <JCHEM_REFRACTIVITY>
53.43460000000001

> <JCHEM_ROTATABLE_BOND_COUNT>
4

> <JCHEM_RULE_OF_FIVE>
1

> <ALOGPS_SOLUBILITY>
4.92e+00 g/l

> <JCHEM_TRADITIONAL_IUPAC>
dimethyl carbate

> <JCHEM_VEBER_RULE>
0

> <DRUGBANK_ID>
DB13204

> <DRUG_GROUPS>
experimental

> <GENERIC_NAME>
Dimethyl carbate

> <SYNONYMS>
Dimethylcarbate

$$$$
