
  Mrv1909 07102017592D          

 36 35  0  0  0  0            999 V2000
   -6.4780   -6.6275    0.0000 S   0  0  0  0  0  0  0  0  0  0  0  0
   -3.6202   -6.6275    0.0000 P   0  0  0  0  0  0  0  0  0  0  0  0
   -0.7623   -4.9775    0.0000 O   0  0  0  0  0  0  0  0  0  0  0  0
   -2.9057   -6.2150    0.0000 O   0  0  0  0  0  0  0  0  0  0  0  0
   -4.3347   -7.0400    0.0000 O   0  0  0  0  0  0  0  0  0  0  0  0
   -0.0478   -5.3900    0.0000 O   0  0  0  0  0  0  0  0  0  0  0  0
   -4.0326   -5.9131    0.0000 O   0  0  0  0  0  0  0  0  0  0  0  0
   -3.2077   -7.3420    0.0000 O   0  0  0  0  0  0  0  0  0  0  0  0
   -0.7623   -6.6274    0.0000 N   0  0  0  0  0  0  0  0  0  0  0  0
    2.0953    0.7972    0.0000 C   0  0  0  0  0  0  0  0  0  0  0  0
    2.0954   -0.0276    0.0000 C   0  0  0  0  0  0  0  0  0  0  0  0
    2.8099    1.2098    0.0000 C   0  0  0  0  0  0  0  0  0  0  0  0
    1.3809   -0.4401    0.0000 C   0  0  0  0  0  0  0  0  0  0  0  0
    2.8099    2.0349    0.0000 C   0  0  0  0  0  0  0  0  0  0  0  0
    1.3809   -1.2651    0.0000 C   0  0  0  0  0  0  0  0  0  0  0  0
    3.5243    2.4473    0.0000 C   0  0  0  0  0  0  0  0  0  0  0  0
    0.6665   -1.6774    0.0000 C   0  0  0  0  0  0  0  0  0  0  0  0
    3.5243    3.2723    0.0000 C   0  0  0  0  0  0  0  0  0  0  0  0
    0.6665   -2.5025    0.0000 C   0  0  0  0  0  0  0  0  0  0  0  0
    4.2388    3.6847    0.0000 C   0  0  0  0  0  0  0  0  0  0  0  0
   -0.0478   -2.9149    0.0000 C   0  0  0  0  0  0  0  0  0  0  0  0
    4.2388    4.5099    0.0000 C   0  0  0  0  0  0  0  0  0  0  0  0
   -0.0478   -3.7399    0.0000 C   0  0  0  0  0  0  0  0  0  0  0  0
    4.9532    4.9224    0.0000 C   0  0  0  0  0  0  0  0  0  0  0  0
   -0.7623   -4.1524    0.0000 C   0  0  0  0  0  0  0  0  0  0  0  0
    4.9532    5.7474    0.0000 C   0  0  0  0  0  0  0  0  0  0  0  0
   -1.4768   -5.3900    0.0000 C   0  0  0  0  0  0  0  0  0  0  0  0
   -1.4768   -6.2149    0.0000 C   0  0  2  0  0  0  0  0  0  0  0  0
    5.6678    6.1598    0.0000 C   0  0  0  0  0  0  0  0  0  0  0  0
   -2.1913   -6.6275    0.0000 C   0  0  0  0  0  0  0  0  0  0  0  0
   -0.0478   -6.2149    0.0000 C   0  0  0  0  0  0  0  0  0  0  0  0
    0.6665   -6.6275    0.0000 C   0  0  0  0  0  0  0  0  0  0  0  0
   -5.0490   -6.6275    0.0000 C   0  0  0  0  0  0  0  0  0  0  0  0
   -5.7636   -7.0401    0.0000 C   0  0  0  0  0  0  0  0  0  0  0  0
   -7.1925   -7.0401    0.0000 C   0  0  0  0  0  0  0  0  0  0  0  0
   -0.7623   -7.1391    0.0000 H   0  0  0  0  0  0  0  0  0  0  0  0
  1 34  1  0  0  0  0
  1 35  1  0  0  0  0
  2  4  1  0  0  0  0
  2  5  1  0  0  0  0
  2  7  1  0  0  0  0
  2  8  2  0  0  0  0
  3 25  1  0  0  0  0
  3 27  1  0  0  0  0
  4 30  1  0  0  0  0
  5 33  1  0  0  0  0
  6 31  2  0  0  0  0
 28  9  1  1  0  0  0
  9 31  1  0  0  0  0
  9 36  1  0  0  0  0
 10 11  1  0  0  0  0
 10 12  1  0  0  0  0
 11 13  1  0  0  0  0
 12 14  1  0  0  0  0
 13 15  1  0  0  0  0
 14 16  1  0  0  0  0
 15 17  1  0  0  0  0
 16 18  1  0  0  0  0
 17 19  1  0  0  0  0
 18 20  1  0  0  0  0
 19 21  1  0  0  0  0
 20 22  1  0  0  0  0
 21 23  1  0  0  0  0
 22 24  1  0  0  0  0
 23 25  1  0  0  0  0
 24 26  1  0  0  0  0
 26 29  1  0  0  0  0
 27 28  1  0  0  0  0
 28 30  1  0  0  0  0
 31 32  1  0  0  0  0
 33 34  1  0  0  0  0
M  END
> <DATABASE_ID>
DB04112

> <DATABASE_NAME>
drugbank

> <SMILES>
[H]N([C@H](COCCCCCCCCCCCCCCCCCC)COP(O)(=O)OCCSC)C(C)=O

> <INCHI_IDENTIFIER>
InChI=1S/C26H54NO6PS/c1-4-5-6-7-8-9-10-11-12-13-14-15-16-17-18-19-20-31-23-26(27-25(2)28)24-33-34(29,30)32-21-22-35-3/h26H,4-24H2,1-3H3,(H,27,28)(H,29,30)/t26-/m1/s1

> <INCHI_KEY>
ZULTVWFLRZJENJ-AREMUKBSSA-N

> <FORMULA>
C26H54NO6PS

> <MOLECULAR_WEIGHT>
539.749

> <EXACT_MASS>
539.340945667

> <JCHEM_ACCEPTOR_COUNT>
4

> <JCHEM_ATOM_COUNT>
89

> <JCHEM_AVERAGE_NEUTRAL_MICROSPECIES_CHARGE>
-0.9999918363745757

> <JCHEM_AVERAGE_POLARIZABILITY>
65.12396957990353

> <JCHEM_BIOAVAILABILITY>
0

> <JCHEM_DONOR_COUNT>
2

> <JCHEM_FORMAL_CHARGE>
0

> <JCHEM_GHOSE_FILTER>
0

> <JCHEM_IUPAC>
[(2R)-2-acetamido-3-(octadecyloxy)propoxy][2-(methylsulfanyl)ethoxy]phosphinic acid

> <ALOGPS_LOGP>
6.11

> <JCHEM_LOGP>
7.110701437333333

> <ALOGPS_LOGS>
-6.19

> <JCHEM_MDDR_LIKE_RULE>
0

> <JCHEM_NEUTRAL_CHARGE>
-1

> <JCHEM_NUMBER_OF_RINGS>
0

> <JCHEM_PHYSIOLOGICAL_CHARGE>
-1

> <JCHEM_PKA>
13.940096519434313

> <JCHEM_PKA_STRONGEST_ACIDIC>
1.9179540986852044

> <JCHEM_PKA_STRONGEST_BASIC>
-1.6471176248704542

> <JCHEM_POLAR_SURFACE_AREA>
94.09

> <JCHEM_REFRACTIVITY>
147.13729999999995

> <JCHEM_ROTATABLE_BOND_COUNT>
27

> <JCHEM_RULE_OF_FIVE>
0

> <ALOGPS_SOLUBILITY>
3.49e-04 g/l

> <JCHEM_TRADITIONAL_IUPAC>
(2R)-2-acetamido-3-(octadecyloxy)propoxy(2-(methylsulfanyl)ethoxy)phosphinic acid

> <JCHEM_VEBER_RULE>
0

> <DRUGBANK_ID>
DB04112

> <SECONDARY_ACCESSION_NUMBERS>
EXPT01881

> <DRUG_GROUPS>
experimental

> <GENERIC_NAME>
(2R)-2-Acetamido-3-(octadecyloxy)propyl 2-(methylsulfanyl)ethyl hydrogen phosphate

> <SYNONYMS>
1-Octadecyl-2-acetamido-2-deoxy-SN-glycerol-3-phosphoethylmethyl sulfide

$$$$
