
  Mrv1652306131721572D          

 22 25  0  0  1  0            999 V2000
    4.5466   -0.5086    0.0000 C   0  0  0  0  0  0  0  0  0  0  0  0
    4.8269    0.2673    0.0000 C   0  0  2  0  0  0  0  0  0  0  0  0
    5.3587   -0.3634    0.0000 C   0  0  0  0  0  0  0  0  0  0  0  0
    6.1708   -0.2182    0.0000 C   0  0  0  0  0  0  0  0  0  0  0  0
    6.4511    0.5577    0.0000 C   0  0  1  0  0  0  0  0  0  0  0  0
    5.9193    1.1884    0.0000 C   0  0  0  0  0  0  0  0  0  0  0  0
    5.1072    1.0432    0.0000 C   0  0  2  0  0  0  0  0  0  0  0  0
    4.5754    1.6739    0.0000 C   0  0  0  0  0  0  0  0  0  0  0  0
    3.7633    1.5287    0.0000 C   0  0  0  0  0  0  0  0  0  0  0  0
    3.4830    0.7528    0.0000 C   0  0  2  0  0  0  0  0  0  0  0  0
    4.0148    0.1221    0.0000 C   0  0  2  0  0  0  0  0  0  0  0  0
    3.7345   -0.6539    0.0000 C   0  0  0  0  0  0  0  0  0  0  0  0
    2.9224   -0.7991    0.0000 C   0  0  0  0  0  0  0  0  0  0  0  0
    2.3905   -0.1684    0.0000 C   0  0  1  0  0  0  0  0  0  0  0  0
    2.6708    0.6076    0.0000 C   0  0  1  0  0  0  0  0  0  0  0  0
    2.0195    1.1139    0.0000 C   0  0  0  0  0  0  0  0  0  0  0  0
    1.3367    0.6509    0.0000 C   0  0  0  0  0  0  0  0  0  0  0  0
    1.5660   -0.1416    0.0000 C   0  0  1  0  0  0  0  0  0  0  0  0
    0.8051   -0.4604    0.0000 C   0  0  0  0  0  0  0  0  0  0  0  0
    1.4446   -0.9576    0.0000 O   0  0  0  0  0  0  0  0  0  0  0  0
    2.0307   -0.9107    0.0000 C   0  0  0  0  0  0  0  0  0  0  0  0
    7.2632    0.7029    0.0000 O   0  0  0  0  0  0  0  0  0  0  0  0
  2  1  1  1  0  0  0
  2  3  1  0  0  0  0
  3  4  1  0  0  0  0
  4  5  1  0  0  0  0
  5  6  1  0  0  0  0
  7  6  1  1  0  0  0
  2  7  1  0  0  0  0
  7  8  1  0  0  0  0
  8  9  1  0  0  0  0
 10  9  1  6  0  0  0
 10 11  1  0  0  0  0
  2 11  1  0  0  0  0
 11 12  1  1  0  0  0
 12 13  1  0  0  0  0
 13 14  1  0  0  0  0
 14 15  1  0  0  0  0
 10 15  1  0  0  0  0
 15 16  1  1  0  0  0
 16 17  1  0  0  0  0
 17 18  1  0  0  0  0
 14 18  1  0  0  0  0
 18 19  1  6  0  0  0
 18 20  1  1  0  0  0
 14 21  1  1  0  0  0
  5 22  1  1  0  0  0
M  END
> <DATABASE_ID>
DB01513

> <DATABASE_NAME>
drugbank

> <SMILES>
C[C@]1(O)CC[C@H]2[C@@H]3CC[C@H]4C[C@@H](O)CC[C@]4(C)[C@H]3CC[C@]12C

> <INCHI_IDENTIFIER>
InChI=1S/C20H34O2/c1-18-9-6-14(21)12-13(18)4-5-15-16(18)7-10-19(2)17(15)8-11-20(19,3)22/h13-17,21-22H,4-12H2,1-3H3/t13-,14-,15+,16-,17-,18-,19-,20-/m0/s1

> <INCHI_KEY>
QGKQXZFZOIQFBI-UYEYMFBJSA-N

> <FORMULA>
C20H34O2

> <MOLECULAR_WEIGHT>
306.49

> <EXACT_MASS>
306.255880335

> <JCHEM_ACCEPTOR_COUNT>
2

> <JCHEM_ATOM_COUNT>
56

> <JCHEM_AVERAGE_POLARIZABILITY>
37.21316411024725

> <JCHEM_BIOAVAILABILITY>
1

> <JCHEM_DONOR_COUNT>
2

> <JCHEM_FORMAL_CHARGE>
0

> <JCHEM_GHOSE_FILTER>
1

> <JCHEM_IUPAC>
(1S,2S,5S,7S,10R,11S,14S,15S)-2,14,15-trimethyltetracyclo[8.7.0.0^{2,7}.0^{11,15}]heptadecane-5,14-diol

> <ALOGPS_LOGP>
4.28

> <JCHEM_LOGP>
3.484333499333334

> <ALOGPS_LOGS>
-4.82

> <JCHEM_MDDR_LIKE_RULE>
0

> <JCHEM_NUMBER_OF_RINGS>
4

> <JCHEM_PHYSIOLOGICAL_CHARGE>
0

> <JCHEM_PKA_STRONGEST_ACIDIC>
18.2963963211217

> <JCHEM_PKA_STRONGEST_BASIC>
-0.46803704333201435

> <JCHEM_POLAR_SURFACE_AREA>
40.46

> <JCHEM_REFRACTIVITY>
89.2694

> <JCHEM_ROTATABLE_BOND_COUNT>
0

> <JCHEM_RULE_OF_FIVE>
1

> <ALOGPS_SOLUBILITY>
4.69e-03 g/l

> <JCHEM_TRADITIONAL_IUPAC>
(1S,2S,5S,7S,10R,11S,14S,15S)-2,14,15-trimethyltetracyclo[8.7.0.0^{2,7}.0^{11,15}]heptadecane-5,14-diol

> <JCHEM_VEBER_RULE>
0

> <DRUGBANK_ID>
DB01513

> <DRUG_GROUPS>
experimental; illicit

> <GENERIC_NAME>
17Alpha-methyl-3beta,17beta-dihydroxy-5alpha-androstane

$$$$
