
  Mrv1909 09132222022D          

 27 27  0  0  0  0            999 V2000
    0.0000   -2.4750    0.0000 C   0  0  0  0  0  0  0  0  0  0  0  0
    0.7145   -2.8875    0.0000 C   0  0  0  0  0  0  0  0  0  0  0  0
    1.4289   -2.4750    0.0000 C   0  0  0  0  0  0  0  0  0  0  0  0
    2.1434   -2.8875    0.0000 C   0  0  0  0  0  0  0  0  0  0  0  0
    2.8579   -2.4750    0.0000 C   0  0  0  0  0  0  0  0  0  0  0  0
    3.5724   -2.8875    0.0000 C   0  0  0  0  0  0  0  0  0  0  0  0
    4.2868   -2.4750    0.0000 C   0  0  0  0  0  0  0  0  0  0  0  0
    4.2868   -1.6500    0.0000 N   0  0  0  0  0  0  0  0  0  0  0  0
    3.5724   -1.2375    0.0000 C   0  0  0  0  0  0  0  0  0  0  0  0
    3.5724   -0.4125    0.0000 C   0  0  0  0  0  0  0  0  0  0  0  0
    5.0013   -2.8875    0.0000 C   0  0  0  0  0  0  0  0  0  0  0  0
    5.7158   -2.4750    0.0000 O   0  0  0  0  0  0  0  0  0  0  0  0
    5.0013   -3.7125    0.0000 C   0  0  0  0  0  0  0  0  0  0  0  0
    5.7158   -4.1250    0.0000 C   0  0  0  0  0  0  0  0  0  0  0  0
    6.4302   -3.7125    0.0000 C   0  0  0  0  0  0  0  0  0  0  0  0
    7.1447   -4.1250    0.0000 C   0  0  0  0  0  0  0  0  0  0  0  0
    7.1447   -4.9500    0.0000 C   0  0  0  0  0  0  0  0  0  0  0  0
    7.8592   -3.7125    0.0000 C   0  0  0  0  0  0  0  0  0  0  0  0
    8.5737   -4.1250    0.0000 C   0  0  0  0  0  0  0  0  0  0  0  0
    9.2881   -3.7125    0.0000 C   0  0  0  0  0  0  0  0  0  0  0  0
   10.0026   -4.1250    0.0000 C   0  0  0  0  0  0  0  0  0  0  0  0
   10.7171   -3.7125    0.0000 C   0  0  0  0  0  0  0  0  0  0  0  0
   10.0026   -4.9500    0.0000 C   0  0  0  0  0  0  0  0  0  0  0  0
    4.2868   -4.1250    0.0000 C   0  0  0  0  0  0  0  0  0  0  0  0
    4.2868   -4.9500    0.0000 O   0  0  0  0  0  0  0  0  0  0  0  0
    3.5724   -3.7125    0.0000 C   0  0  0  0  0  0  0  0  0  0  0  0
    2.8579   -4.1250    0.0000 O   0  0  0  0  0  0  0  0  0  0  0  0
  1  2  1  0  0  0  0
  2  3  1  0  0  0  0
  3  4  1  0  0  0  0
  4  5  1  0  0  0  0
  5  6  1  0  0  0  0
  6  7  2  0  0  0  0
  7  8  1  0  0  0  0
  8  9  1  0  0  0  0
  9 10  1  0  0  0  0
  7 11  1  0  0  0  0
 11 12  2  0  0  0  0
 11 13  1  0  0  0  0
 13 14  1  0  0  0  0
 14 15  1  0  0  0  0
 15 16  2  0  0  0  0
 16 17  1  0  0  0  0
 16 18  1  0  0  0  0
 18 19  1  0  0  0  0
 19 20  1  0  0  0  0
 20 21  2  0  0  0  0
 21 22  1  0  0  0  0
 21 23  1  0  0  0  0
 13 24  2  0  0  0  0
 24 25  1  0  0  0  0
 24 26  1  0  0  0  0
  6 26  1  0  0  0  0
 26 27  2  0  0  0  0
M  END
> <DATABASE_ID>
DB16933

> <DATABASE_NAME>
drugbank

> <SMILES>
CCCCCC1=C(NCC)C(=O)C(C\C=C(/C)CCC=C(C)C)=C(O)C1=O

> <INCHI_IDENTIFIER>
InChI=1S/C23H35NO3/c1-6-8-9-13-18-20(24-7-2)21(25)19(23(27)22(18)26)15-14-17(5)12-10-11-16(3)4/h11,14,24,27H,6-10,12-13,15H2,1-5H3/b17-14+

> <INCHI_KEY>
FWRXHQONRMSHII-SAPNQHFASA-N

> <FORMULA>
C23H35NO3

> <MOLECULAR_WEIGHT>
373.537

> <EXACT_MASS>
373.261693991

> <JCHEM_ACCEPTOR_COUNT>
4

> <JCHEM_ATOM_COUNT>
62

> <JCHEM_AVERAGE_NEUTRAL_MICROSPECIES_CHARGE>
-0.9368855059620937

> <JCHEM_AVERAGE_POLARIZABILITY>
44.26135098145977

> <JCHEM_BIOAVAILABILITY>
0

> <JCHEM_DONOR_COUNT>
2

> <JCHEM_FORMAL_CHARGE>
0

> <JCHEM_GHOSE_FILTER>
1

> <JCHEM_IUPAC>
2-[(2E)-3,7-dimethylocta-2,6-dien-1-yl]-6-(ethylamino)-3-hydroxy-5-pentylcyclohexa-2,5-diene-1,4-dione

> <ALOGPS_LOGP>
5.01

> <JCHEM_LOGP>
5.583241409666667

> <ALOGPS_LOGS>
-4.96

> <JCHEM_MDDR_LIKE_RULE>
0

> <JCHEM_NEUTRAL_CHARGE>
-1

> <JCHEM_NUMBER_OF_RINGS>
1

> <JCHEM_PHYSIOLOGICAL_CHARGE>
-1

> <JCHEM_PKA>
18.04652271389424

> <JCHEM_PKA_STRONGEST_ACIDIC>
5.828442584710111

> <JCHEM_PKA_STRONGEST_BASIC>
-5.1788992134460035

> <JCHEM_POLAR_SURFACE_AREA>
66.4

> <JCHEM_REFRACTIVITY>
116.26669999999997

> <JCHEM_ROTATABLE_BOND_COUNT>
11

> <JCHEM_RULE_OF_FIVE>
0

> <ALOGPS_SOLUBILITY>
4.10e-03 g/l

> <JCHEM_TRADITIONAL_IUPAC>
6-cyclopropaneamido-N-[hydroxy(2H2)methyl]-4-{[2-methoxy-3-(1-methyl-1,2,4-triazol-3-yl)phenyl]amino}pyridazine-3-carboxamide

> <JCHEM_VEBER_RULE>
0

> <DRUGBANK_ID>
DB16933

> <DRUG_GROUPS>
investigational

> <GENERIC_NAME>
EHP-102

> <SYNONYMS>
2-((2e)-3,7-dimethyl-2,6-octadien-1-yl)-6-(ethylamino)-3-hydroxy-5-pentyl-2,5-cyclohexadiene-1,4-dione; 2-(3,7-Dimethyl-Octa-2, 6-Dienyl)â€”6-Ethylamino-3-Hydroxy-5-Pentyl-[1,4]Benzoquinone; 2,5-cyclohexadiene-1,4-dione, 2-((2e)-3,7-dimethyl-2,6-octadien-1-yl)-6-(ethylamino)-3-hydroxy-5-pentyl-; EHP102

$$$$
