
  Mrv1909 03042003382D          

 56 58  0  0  0  0            999 V2000
   -0.8911    3.1652    0.0000 C   0  0  0  0  0  0  0  0  0  0  0  0
   -1.6057    2.7527    0.0000 C   0  0  1  0  0  0  0  0  0  0  0  0
   -1.6057    1.9277    0.0000 C   0  0  2  0  0  0  0  0  0  0  0  0
   -0.8911    1.5151    0.0000 C   0  0  1  0  0  0  0  0  0  0  0  0
   -0.1766    1.9277    0.0000 O   0  0  0  0  0  0  0  0  0  0  0  0
   -0.1766    2.7527    0.0000 C   0  0  2  0  0  0  0  0  0  0  0  0
    0.5377    3.1652    0.0000 C   0  0  0  0  0  0  0  0  0  0  0  0
   -2.3200    3.1652    0.0000 N   0  0  0  0  0  0  0  0  0  0  0  0
   -2.3200    1.5152    0.0000 O   0  0  0  0  0  0  0  0  0  0  0  0
   -1.5042    0.9631    0.0000 H   0  0  0  0  0  0  0  0  0  0  0  0
   -3.0345    2.7527    0.0000 C   0  0  0  0  0  0  0  0  0  0  0  0
   -2.3200    3.9902    0.0000 C   0  0  0  0  0  0  0  0  0  0  0  0
   -0.8049    0.6947    0.0000 O   0  0  0  0  0  0  0  0  0  0  0  0
   -0.0512    0.3591    0.0000 C   0  0  2  0  0  0  0  0  0  0  0  0
    0.0349   -0.4613    0.0000 C   0  0  2  0  0  0  0  0  0  0  0  0
    0.6161    0.8440    0.0000 C   0  0  2  0  0  0  0  0  0  0  0  0
    1.3698    0.5085    0.0000 C   0  0  0  0  0  0  0  0  0  0  0  0
    2.0373    0.9934    0.0000 C   0  0  2  0  0  0  0  0  0  0  0  0
    2.7909    0.6578    0.0000 N   0  0  0  0  0  0  0  0  0  0  0  0
    3.4584    1.1428    0.0000 C   0  0  0  0  0  0  0  0  0  0  0  0
    4.2120    0.8072    0.0000 C   0  0  0  0  0  0  0  0  0  0  0  0
    4.8795    1.2921    0.0000 C   0  0  0  0  0  0  0  0  0  0  0  0
    2.6511   -0.4747    0.0000 C   0  0  0  0  0  0  0  0  0  0  0  0
   -0.5483   -1.0446    0.0000 C   0  0  1  0  0  0  0  0  0  0  0  0
   -0.2663   -1.8931    0.0000 C   0  0  2  0  0  0  0  0  0  0  0  0
    0.4846   -2.0646    0.0000 C   0  0  0  0  0  0  0  0  0  0  0  0
    0.8234   -2.8772    0.0000 O   0  0  0  0  0  0  0  0  0  0  0  0
    1.7702   -2.9089    0.0000 C   0  0  1  0  0  0  0  0  0  0  0  0
    0.8126   -0.7367    0.0000 C   0  0  0  0  0  0  0  0  0  0  0  0
   -1.3260   -0.7692    0.0000 O   0  0  0  0  0  0  0  0  0  0  0  0
    0.7877    1.6510    0.0000 C   0  0  0  0  0  0  0  0  0  0  0  0
    1.9510    1.8139    0.0000 C   0  0  0  0  0  0  0  0  0  0  0  0
    0.1312    1.5115    0.0000 O   0  0  0  0  0  0  0  0  0  0  0  0
   -1.9533   -1.3050    0.0000 C   0  0  1  0  0  0  0  0  0  0  0  0
   -2.6452   -0.8557    0.0000 C   0  0  0  0  0  0  0  0  0  0  0  0
   -3.3803   -1.2303    0.0000 C   0  0  1  0  0  0  0  0  0  0  0  0
   -3.4235   -2.0541    0.0000 C   0  0  2  0  0  0  0  0  0  0  0  0
   -2.7316   -2.5035    0.0000 C   0  0  1  0  0  0  0  0  0  0  0  0
   -1.9965   -2.1289    0.0000 O   0  0  0  0  0  0  0  0  0  0  0  0
   -1.1464   -1.4766    0.0000 H   0  0  0  0  0  0  0  0  0  0  0  0
   -3.9934   -0.6782    0.0000 C   0  0  0  0  0  0  0  0  0  0  0  0
   -2.7316   -3.3285    0.0000 C   0  0  0  0  0  0  0  0  0  0  0  0
   -4.0366   -2.6062    0.0000 O   0  0  0  0  0  0  0  0  0  0  0  0
   -4.1650   -1.4852    0.0000 O   0  0  0  0  0  0  0  0  0  0  0  0
   -0.9114   -2.5136    0.0000 C   0  0  0  0  0  0  0  0  0  0  0  0
   -4.8794   -1.0727    0.0000 C   0  0  0  0  0  0  0  0  0  0  0  0
    0.8968   -1.4235    0.0000 O   0  0  0  0  0  0  0  0  0  0  0  0
    2.1433   -2.2135    0.0000 C   0  0  2  0  0  0  0  0  0  0  0  0
    3.0197   -1.9921    0.0000 C   0  0  1  0  0  0  0  0  0  0  0  0
    3.2530   -1.1289    0.0000 C   0  0  1  0  0  0  0  0  0  0  0  0
    1.8472   -3.7352    0.0000 C   0  0  0  0  0  0  0  0  0  0  0  0
    1.4463   -1.6615    0.0000 O   0  0  0  0  0  0  0  0  0  0  0  0
    2.0187   -1.4456    0.0000 C   0  0  0  0  0  0  0  0  0  0  0  0
    4.0779   -1.0171    0.0000 C   0  0  0  0  0  0  0  0  0  0  0  0
    2.6318   -3.9902    0.0000 C   0  0  0  0  0  0  0  0  0  0  0  0
    3.5717   -2.6052    0.0000 O   0  0  0  0  0  0  0  0  0  0  0  0
  1  2  1  0  0  0  0
  2  3  1  0  0  0  0
  3  4  1  0  0  0  0
  4  5  1  0  0  0  0
  5  6  1  0  0  0  0
  1  6  1  0  0  0  0
  6  7  1  1  0  0  0
  2  8  1  1  0  0  0
  3  9  1  6  0  0  0
  4 10  1  6  0  0  0
  8 11  1  0  0  0  0
  8 12  1  0  0  0  0
  4 13  1  0  0  0  0
 14 13  1  1  0  0  0
 14 15  1  0  0  0  0
 14 16  1  0  0  0  0
 16 17  1  0  0  0  0
 17 18  1  0  0  0  0
 18 19  1  0  0  0  0
 19 20  1  0  0  0  0
 20 21  1  0  0  0  0
 21 22  1  0  0  0  0
 19 23  1  0  0  0  0
 15 24  1  0  0  0  0
 24 25  1  0  0  0  0
 25 26  1  0  0  0  0
 26 27  1  0  0  0  0
 27 28  1  0  0  0  0
 15 29  1  1  0  0  0
 24 30  1  1  0  0  0
 16 31  1  1  0  0  0
 18 32  1  1  0  0  0
 16 33  1  6  0  0  0
 30 34  1  0  0  0  0
 35 36  1  0  0  0  0
 36 37  1  0  0  0  0
 37 38  1  0  0  0  0
 38 39  1  0  0  0  0
 34 35  1  0  0  0  0
 34 39  1  0  0  0  0
 34 40  1  1  0  0  0
 36 41  1  1  0  0  0
 38 42  1  1  0  0  0
 37 43  1  6  0  0  0
 36 44  1  6  0  0  0
 25 45  1  6  0  0  0
 44 46  1  0  0  0  0
 26 47  2  0  0  0  0
 28 48  1  0  0  0  0
 48 49  1  0  0  0  0
 49 50  1  0  0  0  0
 28 51  1  1  0  0  0
 48 52  1  1  0  0  0
 48 53  1  6  0  0  0
 50 54  1  6  0  0  0
 23 50  1  0  0  0  0
 51 55  1  0  0  0  0
 49 56  1  1  0  0  0
M  END
> <DATABASE_ID>
DB11416

> <DATABASE_NAME>
drugbank

> <SMILES>
[H][C@@]1(C[C@@](C)(OC)[C@@H](O)[C@H](C)O1)O[C@H]1[C@H](C)[C@@H](O[C@]2([H])O[C@H](C)C[C@@H]([C@H]2O)N(C)C)[C@](C)(O)C[C@@H](C)N(CCC)C[C@H](C)[C@@H](O)[C@](C)(O)[C@@H](CC)OC(=O)[C@@H]1C

> <INCHI_IDENTIFIER>
InChI=1S/C40H76N2O12/c1-15-17-42-21-22(3)33(44)40(11,48)29(16-2)52-36(46)26(7)32(53-30-20-39(10,49-14)34(45)27(8)51-30)25(6)35(38(9,47)19-23(42)4)54-37-31(43)28(41(12)13)18-24(5)50-37/h22-35,37,43-45,47-48H,15-21H2,1-14H3/t22-,23+,24+,25-,26+,27-,28-,29+,30-,31+,32-,33+,34-,35+,37-,38+,39+,40+/m0/s1

> <INCHI_KEY>
VWAMTBXLZPEDQO-UZSBJOJWSA-N

> <FORMULA>
C40H76N2O12

> <MOLECULAR_WEIGHT>
777.05

> <EXACT_MASS>
776.539825895

> <JCHEM_ACCEPTOR_COUNT>
13

> <JCHEM_ATOM_COUNT>
130

> <JCHEM_AVERAGE_NEUTRAL_MICROSPECIES_CHARGE>
1.9893431973539486

> <JCHEM_AVERAGE_POLARIZABILITY>
86.24469055458951

> <JCHEM_BIOAVAILABILITY>
0

> <JCHEM_DONOR_COUNT>
5

> <JCHEM_FORMAL_CHARGE>
0

> <JCHEM_GHOSE_FILTER>
0

> <JCHEM_IUPAC>
(2R,3S,4R,5S,8R,10R,11R,12S,13S,14R)-11-{[(2S,3R,4S,6R)-4-(dimethylamino)-3-hydroxy-6-methyloxan-2-yl]oxy}-2-ethyl-3,4,10-trihydroxy-13-{[(2R,4R,5S,6S)-5-hydroxy-4-methoxy-4,6-dimethyloxan-2-yl]oxy}-3,5,8,10,12,14-hexamethyl-7-propyl-1-oxa-7-azacyclopentadecan-15-one

> <ALOGPS_LOGP>
3.74

> <JCHEM_LOGP>
2.9810597499999973

> <ALOGPS_LOGS>
-3.42

> <JCHEM_MDDR_LIKE_RULE>
1

> <JCHEM_NEUTRAL_CHARGE>
2

> <JCHEM_NUMBER_OF_RINGS>
3

> <JCHEM_PHYSIOLOGICAL_CHARGE>
2

> <JCHEM_PKA>
12.934341614928366

> <JCHEM_PKA_STRONGEST_ACIDIC>
12.462237716267282

> <JCHEM_PKA_STRONGEST_BASIC>
9.94886003975061

> <JCHEM_POLAR_SURFACE_AREA>
180.08

> <JCHEM_REFRACTIVITY>
203.54640000000003

> <JCHEM_ROTATABLE_BOND_COUNT>
9

> <JCHEM_RULE_OF_FIVE>
0

> <ALOGPS_SOLUBILITY>
2.94e-01 g/l

> <JCHEM_TRADITIONAL_IUPAC>
4,4'-dihydroxy-10,10'-dioxo-5,5'-bis({[3,4,5-trihydroxy-6-(hydroxymethyl)oxan-2-yl]oxy})-9H,9'H-[9,9'-bianthracene]-2,2'-dicarboxylic acid

> <JCHEM_VEBER_RULE>
0

> <DRUGBANK_ID>
DB11416

> <DRUG_GROUPS>
vet_approved

> <GENERIC_NAME>
Gamithromycin

> <SYNONYMS>
Gamithromycin

$$$$
