
  Mrv1909 03102022312D          

 25 29  0  0  0  0            999 V2000
   -1.1348    0.3605    0.0000 C   0  0  1  0  0  0  0  0  0  0  0  0
   -0.4059    0.7464    0.0000 C   0  0  0  0  0  0  0  0  0  0  0  0
   -1.8639    0.7464    0.0000 N   0  0  0  0  0  0  0  0  0  0  0  0
    0.3229    0.3605    0.0000 N   0  0  0  0  0  0  0  0  0  0  0  0
   -0.4059    1.6040    0.0000 O   0  0  0  0  0  0  0  0  0  0  0  0
    0.5803   -0.4542    0.0000 C   0  0  2  0  0  0  0  0  0  0  0  0
    1.4379   -0.4542    0.0000 C   0  0  2  0  0  0  0  0  0  0  0  0
    1.6953    0.4033    0.0000 C   0  0  0  0  0  0  0  0  0  0  0  0
    0.9662    0.8321    0.0000 C   0  0  1  0  0  0  0  0  0  0  0  0
    0.9662    1.6898    0.0000 C   0  0  0  0  0  0  0  0  0  0  0  0
    0.9662    2.5473    0.0000 N   0  0  0  0  0  0  0  0  0  0  0  0
    1.0091   -1.1833    0.0000 C   0  0  0  0  0  0  0  0  0  0  0  0
    2.2955   -0.4542    0.0000 H   0  0  0  0  0  0  0  0  0  0  0  0
   -0.2342   -0.4542    0.0000 H   0  0  0  0  0  0  0  0  0  0  0  0
   -1.1348   -0.4972    0.0000 C   0  0  0  0  0  0  0  0  0  0  0  0
   -1.8490   -0.9095    0.0000 C   0  0  0  0  0  0  0  0  0  0  0  0
   -1.8490   -1.7344    0.0000 C   0  0  0  0  0  0  0  0  0  0  0  0
   -0.4204   -1.7344    0.0000 C   0  0  0  0  0  0  0  0  0  0  0  0
   -1.1348   -2.1468    0.0000 C   0  0  0  0  0  0  0  0  0  0  0  0
   -1.5812   -2.2137    0.0000 C   0  0  0  0  0  0  0  0  0  0  0  0
   -1.5812   -1.3890    0.0000 C   0  0  0  0  0  0  0  0  0  0  0  0
   -0.4204   -0.9095    0.0000 C   0  0  0  0  0  0  0  0  0  0  0  0
   -2.2955   -2.5473    0.0000 C   0  0  0  0  0  0  0  0  0  0  0  0
   -0.8270   -2.5473    0.0000 C   0  0  0  0  0  0  0  0  0  0  0  0
    0.2938   -2.1468    0.0000 O   0  0  0  0  0  0  0  0  0  0  0  0
 15  1  1  0  0  0  0
  1  2  1  0  0  0  0
  1  3  1  6  0  0  0
  2  4  1  0  0  0  0
  2  5  2  0  0  0  0
  4  6  1  0  0  0  0
  6  7  1  0  0  0  0
  7  8  1  0  0  0  0
  8  9  1  0  0  0  0
  4  9  1  0  0  0  0
  9 10  1  6  0  0  0
 10 11  3  0  0  0  0
  7 12  1  0  0  0  0
 12  6  1  0  0  0  0
  7 13  1  1  0  0  0
  6 14  1  1  0  0  0
 15 16  1  0  0  0  0
 15 22  1  0  0  0  0
 16 17  1  0  0  0  0
 17 19  1  0  0  0  0
 18 22  1  0  0  0  0
 24 18  1  0  0  0  0
 18 19  1  0  0  0  0
 23 20  1  0  0  0  0
 24 20  1  0  0  0  0
 23 17  1  0  0  0  0
 20 21  1  0  0  0  0
 15 21  1  0  0  0  0
 18 25  1  0  0  0  0
M  END
> <DATABASE_ID>
DB06335

> <DATABASE_NAME>
drugbank

> <SMILES>
[H][C@@]12C[C@]1([H])N([C@@H](C2)C#N)C(=O)[C@@H](N)C12CC3CC(CC(O)(C3)C1)C2

> <INCHI_IDENTIFIER>
InChI=1S/C18H25N3O2/c19-8-13-2-12-3-14(12)21(13)16(22)15(20)17-4-10-1-11(5-17)7-18(23,6-10)9-17/h10-15,23H,1-7,9,20H2/t10?,11?,12-,13+,14+,15-,17?,18?/m1/s1

> <INCHI_KEY>
QGJUIPDUBHWZPV-SGTAVMJGSA-N

> <FORMULA>
C18H25N3O2

> <MOLECULAR_WEIGHT>
315.41

> <EXACT_MASS>
315.194677059

> <JCHEM_ACCEPTOR_COUNT>
4

> <JCHEM_ATOM_COUNT>
48

> <JCHEM_AVERAGE_NEUTRAL_MICROSPECIES_CHARGE>
1.0013566983217967

> <JCHEM_AVERAGE_POLARIZABILITY>
34.22115150468458

> <JCHEM_BIOAVAILABILITY>
1

> <JCHEM_DONOR_COUNT>
2

> <JCHEM_FORMAL_CHARGE>
0

> <JCHEM_GHOSE_FILTER>
1

> <JCHEM_IUPAC>
(1S,3S,5S)-2-[(2S)-2-amino-2-(3-hydroxyadamantan-1-yl)acetyl]-2-azabicyclo[3.1.0]hexane-3-carbonitrile

> <ALOGPS_LOGP>
0.88

> <JCHEM_LOGP>
-0.07953443200000038

> <ALOGPS_LOGS>
-2.14

> <JCHEM_MDDR_LIKE_RULE>
0

> <JCHEM_NEUTRAL_CHARGE>
1

> <JCHEM_NUMBER_OF_RINGS>
5

> <JCHEM_PHYSIOLOGICAL_CHARGE>
1

> <JCHEM_PKA_STRONGEST_ACIDIC>
14.743205216079474

> <JCHEM_PKA_STRONGEST_BASIC>
7.8981657875150555

> <JCHEM_POLAR_SURFACE_AREA>
90.35

> <JCHEM_REFRACTIVITY>
83.9913

> <JCHEM_ROTATABLE_BOND_COUNT>
2

> <JCHEM_RULE_OF_FIVE>
1

> <ALOGPS_SOLUBILITY>
2.26e+00 g/l

> <JCHEM_TRADITIONAL_IUPAC>
saxagliptin

> <JCHEM_VEBER_RULE>
0

> <DRUGBANK_ID>
DB06335

> <DRUG_GROUPS>
approved

> <GENERIC_NAME>
Saxagliptin

> <SYNONYMS>
(1S,3S,5S)-2-((2S)-Amino(3-hydroxytricyclo(3.3.1.13,7)dec-1-yl)acetyl)-2-azabicyclo(3.1.0)hexane-3-carbonitrile; Saxagliptin; Saxagliptin anhydrous; Saxagliptina

> <PRODUCTS>
Apo-saxagliptin; Kombiglyze XR; Komboglyze; Onglyza; Pro-saxagliptin; Qtern; Qternmet XR; Sandoz Saxagliptin; Teva-saxagliptin

> <SALTS>
Saxagliptin hydrochloride; Saxagliptin monohydrate

$$$$
