
  Mrv1718011221711552D          

  4  0  0  0  0  0            999 V2000
   -0.0145    0.7666    0.0000 O   0  5  0  0  0  0  0  0  0  0  0  0
    0.9853   -0.7041    0.0000 O   0  5  0  0  0  0  0  0  0  0  0  0
   -0.9854   -0.7666    0.0000 O   0  5  0  0  0  0  0  0  0  0  0  0
   -0.0770   -0.1416    0.0000 Al  0  1  0  0  0  0  0  0  0  0  0  0
M  CHG  4   1  -1   2  -1   3  -1   4   3
M  END
> <DATABASE_ID>
DB06723

> <DATABASE_NAME>
drugbank

> <SMILES>
[OH-].[OH-].[OH-].[Al+3]

> <INCHI_IDENTIFIER>
InChI=1S/Al.3H2O/h;3*1H2/q+3;;;/p-3

> <INCHI_KEY>
WNROFYMDJYEPJX-UHFFFAOYSA-K

> <FORMULA>
AlH3O3

> <MOLECULAR_WEIGHT>
78.0036

> <EXACT_MASS>
77.989757403

> <JCHEM_ACCEPTOR_COUNT>
0

> <JCHEM_ATOM_COUNT>
7

> <JCHEM_AVERAGE_POLARIZABILITY>
1.7784

> <JCHEM_BIOAVAILABILITY>
1

> <JCHEM_DONOR_COUNT>
0

> <JCHEM_FORMAL_CHARGE>
0

> <JCHEM_GHOSE_FILTER>
0

> <JCHEM_IUPAC>
aluminium(3+) trihydroxide

> <JCHEM_LOGP>
1.4499999999999997

> <JCHEM_MDDR_LIKE_RULE>
0

> <JCHEM_NUMBER_OF_RINGS>
0

> <JCHEM_PHYSIOLOGICAL_CHARGE>
3

> <JCHEM_PKA>
4.49

> <JCHEM_PKA_STRONGEST_ACIDIC>
4.07

> <JCHEM_POLAR_SURFACE_AREA>
0.0

> <JCHEM_REFRACTIVITY>
0.0

> <JCHEM_ROTATABLE_BOND_COUNT>
0

> <JCHEM_RULE_OF_FIVE>
1

> <JCHEM_TRADITIONAL_IUPAC>
aluminum hydroxide

> <JCHEM_VEBER_RULE>
1

> <DRUGBANK_ID>
DB06723

> <DRUG_GROUPS>
approved; investigational

> <GENERIC_NAME>
Aluminum hydroxide

> <SYNONYMS>
Aluminio hidrÃ³xido; Aluminium hydroxide; Aluminium hydroxide gel, dried; Aluminium hydroxide, dried; Aluminum hydroxide; Aluminum hydroxide gel, dried; Aluminum hydroxide, dried; Dried aluminium hydroxide; Dried aluminum hydroxide gel

> <PRODUCTS>
AHC Premium Intense Contour Balm; Acid Gone Antacid; Acid Gone Antacid Extra Strength; Acidex Tc Oral Suspension; Advanced Antacid Cherry; Advanced Antacid Mint; Advanced Antacid Regular Strength; Advanced Regular Strength Antacid; Alka Phenyl Tab; Alka Phenylbutazone Tab; Almacone; Almacone Antacid Antigas; Almacone Double Strength; Almagel Plus Sus; Alternagel; Alu-tab Tab 600mg; Alumina, Magnesia, and Simethicone; Alumina, Magnesia, and Simethicone Oral Suspension Regular Strength; Aluminum Hydroxide; Aluminum Hydroxide, Magnesium Hydroxide, Simethicone; Aluminum hydroxide and Magnesium carbonate; Alumox; Amphojel 500 Suspension; Amphojel Plus Suspension; Antacid; Antacid & Antigas; Antacid - Alumina and Magnesia Oral Suspension USP; Antacid Anti-Gas; Antacid Antigas; Antacid Antigas Maximum Strength; Antacid Antigas Maximum Strength Mint; Antacid Antigas Maximum Strength Original; Antacid Antigas Nta; Antacid Cherry Flavored; Antacid Chewable Tab; Antacid Double Strength; Antacid Extra Strength; Antacid Liquid Susp; Antacid Magnesia and Alumina; Antacid Max Strength Cherry; Antacid Maximum Strength; Antacid Mint; Antacid Mint Flavored; Antacid Plus; Antacid Plus - Sus; Antacid Plus Antiflatuent; Antacid Plus Antiflatulent; Antacid Plus Antiflatulent - Alumina, Magnesia & Simethicone Oral Suspension; Antacid Plus Extra Strength; Antacid Plus Gas Relief; Antacid Plus Gas Relief Regular Strength; Antacid Regular Strength; Antacid Regular With Anti-gas; Antacid Supreme; Antacid Supreme Cherry; Antacid Sus; Antacid With Alumina, Magnesia Plus Simethicone Oral Suspension USP; Antacid With Anti-gas Liquid Extra Strength Mint Flavour; Antacid and Antigas; Antacid and Gasrelief; Antacid antigas Maximum Strength; Antacid antigas Regular Strength; Antacid regular strength; Antiacide Avec Antiflatulent Sus; Antiacide Sus; Astoneagran; BANACOS Cica Airy-fit Dilla Suncream; C2 Buffered Tab; C2 Buffered With Codeine Tab; CVS Health Extra Strength Antacid; CVS Health Extra Strength Heartburn Relief Antacid Original Flavor; CareOne Antacid; Careone Antacid Regular Strength; Careone Liquid Antacid; Careone antacid; Centra Acid Plus-sus; Centra Acid-sus; ConRx AR; Derma Gran; DermaMed; Dermadrox; Dermagran Ointment; Dg Health Antacid; Diaret Tab; Diarex Tab; Diovol EX Tab; Diovol Plus Suspension; Diovol Plus Tablets; Eno; Equaline Antacid; Equaline Antacid regular strength; Equate Antacid regular strength; Equate antacid extra strength; Equate antacid maximum strength; Equate antacid regular strength; Estomarol; Exchange Select Antacid Regular Strength; Extra Strength Antacid; Extra Strength Antacid Original Flavor; Extra Strength Heartburn Relief; Extra Strength Heartburn Relief Antacid; FAST ACTING Heartburn Relief; FIRST Mouthwash BLM; FLANAX Antacid Anti-gas; Flanax Antacid; Foamcoat Antacid; GOOD NEIGHBOR PHARMACY Antacid Extra Strength; Gastrocote Chewable Tab; Gasulsol Tab; Gasva; Gavis-care Antacid; Gaviscon; Gaviscon Butterscotch Flavour Tablets; Gaviscon Extra Strength; Gaviscon Extra Strength Butterscotch Flavoured Tablets; Gaviscon Extra Strength Strawberry Fl.tabs; Gaviscon Extra Strength Tablets; Gaviscon Icy Mint Flavour Liq; Gaviscon Liquid - Fruit & Mint Flavours; Gaviscon Regular Strength; Gaviscon Tablets; Gaviscon Tablets - Butterscotch and Fr.fl.; Gaviscon Tabs Extra Strength; Gelusil; Gelusil Antacid & Anti-gas; Gelusil Antacid and Anti-gas; Gelusil Extra Strength Liq; Gelusil Extra Strength Tablets; Gelusil Liquid Sus; Gelusil Maximum Strength; Geri-lanta Antacid; Geri-lanta Antacid Antigas; Geri-lanta Maximum Strength; Geri-mox Antacid Antigas; Geri-mox Max Cherry; Good Neighbor Pharmacy Antacid; Good Sense Antacid; Good Sense Antacid Maximum Strength; Good Sense Antacid Regular Strength; Good Sense antacid; HEB Extra Strength Cherry Flavor; HEB Extra Strength Cool Mint; HEB Extra Strength Original Flavor; Harris Teeter Antacid; Harris Teeter Antacid Maximum Strength; Harris Teeter Antacid Regular Strength; Health Mart Antacid; Healthy Accents Antacid; Healthy Accents Maldroxal; Heartburn Relief; Heartburn Relief - Tab; Indigel Plus Liquid; Inon; Isa Knox Ageless Serum Makeup Base 10; Isaknox Ageless Serum Blemish Balm; Isaknox Ageless Serum Moist Pearl Base; Kroger Extra Strength; Leader Antacid; Leader Antacid Maximum Strength; Leader Antacid Regular Strength; Leader AntacidRegular Strength Regular Strength; MYLANTA MAXIMUM STRENGTH CLASSIC FLAVOR antacid and anti gas; MYLANTA Maximum Strength; MYLANTA Regular Strength; Maalox Advanced Antacid & Antigas; Maalox Advanced Extra Strength Antacid & Antigas; Maalox Advanced Maximum Strength Cherry; Maalox Advanced Maximum Strength Mint; Maalox Advanced Maximum Strength Wild Berry; Maalox Advanced Regular Strength Mint; Maalox Antacid; Maalox Plus Extra Strength (cherry); Maalox Plus Extra Strength Tablets; Maalox Plus Suspension Extra Strength; Maalox Plus Suspension Flavour; Maalox Plus Suspension Mint Flavour; Maalox Plus Tab; Maalox Plus Tablets; Maalox Plus Tablets Lemon Flavour; Maalox Plus Tablets Mint Flavour; Maalox Suspension; Maalox Suspension Mint Flavour; Maalox Tablet; Maalox Tablets; Maalox Tablets Cherry Flavour; Maalox Tablets Mint Flavour; Maalox Tc Suspension; Maalox Tc Tablet; Mag Al Plus; Mag-AL Liquid; Mag-AL Plus; Mag-AL Plus XS; Mag-Al; Mag-Al Plus; Mag-Al Plus XS; Mag-al Liquid; Magnesium Hydroxide/Aluminum Hydroxice/Simethicone; Magsil; Magsil Antacid (lemon Mint); Maximum Strength Advanced Antacid; Maximum Strength Antacid; Maximum Strength Antacid Anti Gas; Maximum Strength Antacid Antigas; Maximum Strength Antacid Cherry; Maximum Strength Antacid Cherry liquid; Maximum Strength Antacid Mint; Maximum Strength Antacid and Antigas; Maximum Strength Antacid and Antigas Cherry; Maximum Strength Antacid and Gas Relief; Maximum Strength Antacid and Gasrelief; Maximum Strength Antacid/ Antigas; Maximum Strength Comfort Gel; Maximum Strength Fast Acting Antacid Anti-gas; Medi Hydro DP BB Cream; Medique Alamag; Medique Alamag Plus; Meijer Extra Strength Original Flavor; Melox; Mi Acid; Mi-Acid Regular Strength; Mi-acid Maximum Strength; Mi-acid Regular Strength; Mintox; Mintox Maximum Strength; Mintox Plus Tabs; Mucaine - Sus; Mylanta Liquid Extra Strength Sus; Mylanta Liquid Regular Strength Sus; Mylanta Maximum Strength; Mylanta Maximum Strength Classic Flavor; Mylanta Maximum Strength Vanilla Caramel Flavor; Mylanta Plain Liq Double Strength; Mylanta Plain Liq Double Strength Sus; Mylanta Regular Strength; Mylanta Tablets Double Strength; Mylanta Tablets Regular Strength; Mylanta Ultimate Strength; Neo Tigol Tab; Neutralca S Sus; Neutralca S Tab; O Hui Veil Fit Dual Foundation 10; O Hui Veil Fit Dual Foundation 20; O Hui Veil Fit Dual Foundation 30; PMS-alumina Mag and Simethicone Sus; Phenylone Plus Tab; Pranicura; Premier Value Extra Strength Original Flavor; Quality Choice Maximum Strength Antacid; Rafton Liquid - Fruit Flavour; Rafton Tablets - Fruit Flavour; Regular Strength Antacid; Regular Strength Antacid Antigas; Regular Strength Antacid Mint; Regular Strength Antacid and Gas Relief; Regular Strength Antacid/antigas; Regular Strength Comfort Gel; Regular Strength antacid anti gas; Rexall Antacid Advanced; Ri Mox; Riginic Antacid Liquid; Rite Aid Extra Strength; Rugby Almacone; Rulox Regular; Rx Act Antacid Extra Strength; Rx Act Antacid regular strength; Shoprite Antacid; Signature Care Antacid Plus Gas Relief; Smart Sense Antacid; SohMed Acid Reducer; Sooryehan Onbit Essence Foundation 23; Sooryehan Onbit Essence Foundation 25; Sooryehan Onbit Lifting Base; Spasmo Nil Tab; Stomaax; Stomaax Plus; Stratuscare Antacid And Antigas; Stratuscare Antacid and Antigas; Stratuscare Antacid and Antigas Regular Strength; Sunmark Antacid; Sunmark Antacid Maximum Strength; Sunmark Antacid Maximum Strength Cherry; Sunmark antacid extra strength; Tendergran; Topcare Antacid; Topcare Antacid Maximum Strength; Topcare Antacid Plus Anti Gas; Topcare Antacid Regular Strength; Univol Suspension; Up and Up Antacid Anti Gas; Up and Up Antacid Anti Gas Regular Strength; Walgreens Fast Acting Heartburn Relief Extra Strength; equate Extra Strength Antacid; leader Antacid Extra Strength

> <INTERNATIONAL_BRANDS>
Alu-Cap; Amphojel

> <SALTS>
Algeldrate; Almagate

$$$$
