
  Mrv1909 03042002442D          

 62 69  0  0  0  0            999 V2000
   -3.5296    3.2721    0.0000 C   0  0  0  0  0  0  0  0  0  0  0  0
   -2.8071    2.8736    0.0000 C   0  0  0  0  0  0  0  0  0  0  0  0
   -2.1055    3.2997    0.0000 C   0  0  0  0  0  0  0  0  0  0  0  0
   -2.1191    4.1205    0.0000 O   0  0  0  0  0  0  0  0  0  0  0  0
   -2.8415    4.5192    0.0000 C   0  0  0  0  0  0  0  0  0  0  0  0
   -3.5504    4.0968    0.0000 C   0  0  0  0  0  0  0  0  0  0  0  0
   -4.2728    4.4954    0.0000 O   0  0  0  0  0  0  0  0  0  0  0  0
   -4.2346    2.8437    0.0000 O   0  0  0  0  0  0  0  0  0  0  0  0
   -2.7899    2.0485    0.0000 O   0  0  0  0  0  0  0  0  0  0  0  0
   -2.8552    5.3440    0.0000 C   0  0  0  0  0  0  0  0  0  0  0  0
   -2.1526    5.7678    0.0000 O   0  0  0  0  0  0  0  0  0  0  0  0
   -1.3869    2.8942    0.0000 O   0  0  0  0  0  0  0  0  0  0  0  0
    1.4789   -0.4149    0.0000 C   0  0  0  0  0  0  0  0  0  0  0  0
    0.7529   -0.8120    0.0000 C   0  0  0  0  0  0  0  0  0  0  0  0
    0.7349   -1.6374    0.0000 C   0  0  0  0  0  0  0  0  0  0  0  0
    1.4419   -2.0668    0.0000 C   0  0  0  0  0  0  0  0  0  0  0  0
    2.1688   -1.6647    0.0000 C   0  0  0  0  0  0  0  0  0  0  0  0
    2.1833   -0.8406    0.0000 C   0  0  0  0  0  0  0  0  0  0  0  0
   -1.3857   -0.3927    0.0000 C   0  0  0  0  0  0  0  0  0  0  0  0
   -2.1067   -0.7988    0.0000 C   0  0  0  0  0  0  0  0  0  0  0  0
   -2.1145   -1.6243    0.0000 C   0  0  0  0  0  0  0  0  0  0  0  0
   -1.4020   -2.0447    0.0000 C   0  0  0  0  0  0  0  0  0  0  0  0
   -0.6803   -1.6336    0.0000 C   0  0  0  0  0  0  0  0  0  0  0  0
   -0.6760   -0.8094    0.0000 C   0  0  0  0  0  0  0  0  0  0  0  0
   -2.0980    1.6580    0.0000 C   0  0  0  0  0  0  0  0  0  0  0  0
   -2.0992    0.8305    0.0000 C   0  0  0  0  0  0  0  0  0  0  0  0
   -1.3842    0.4176    0.0000 C   0  0  0  0  0  0  0  0  0  0  0  0
   -1.3860    2.0709    0.0000 C   0  0  0  0  0  0  0  0  0  0  0  0
   -0.6706    1.6616    0.0000 C   0  0  0  0  0  0  0  0  0  0  0  0
   -0.6717    0.8331    0.0000 C   0  0  0  0  0  0  0  0  0  0  0  0
    0.0411    0.4200    0.0000 C   0  0  0  0  0  0  0  0  0  0  0  0
    0.0435    2.0772    0.0000 C   0  0  0  0  0  0  0  0  0  0  0  0
    0.7612    1.6596    0.0000 C   0  0  0  0  0  0  0  0  0  0  0  0
    0.7594    0.8347    0.0000 C   0  0  0  0  0  0  0  0  0  0  0  0
    1.4719    0.4225    0.0000 C   0  0  0  0  0  0  0  0  0  0  0  0
    2.1864    0.8341    0.0000 C   0  0  0  0  0  0  0  0  0  0  0  0
    2.1841    1.6623    0.0000 C   0  0  0  0  0  0  0  0  0  0  0  0
    1.4712    2.0708    0.0000 C   0  0  0  0  0  0  0  0  0  0  0  0
    0.0435    2.9023    0.0000 O   0  0  0  0  0  0  0  0  0  0  0  0
    1.4693    2.8958    0.0000 O   0  0  0  0  0  0  0  0  0  0  0  0
    2.9014    0.4223    0.0000 C   0  0  0  0  0  0  0  0  0  0  0  0
    2.9022   -0.4027    0.0000 O   0  0  0  0  0  0  0  0  0  0  0  0
    3.6156    0.8356    0.0000 O   0  0  0  0  0  0  0  0  0  0  0  0
    0.0405   -0.4050    0.0000 C   0  0  0  0  0  0  0  0  0  0  0  0
    0.0321   -2.0505    0.0000 C   0  0  0  0  0  0  0  0  0  0  0  0
   -1.4084   -2.8698    0.0000 O   0  0  0  0  0  0  0  0  0  0  0  0
   -2.8171   -0.3790    0.0000 C   0  0  0  0  0  0  0  0  0  0  0  0
   -2.8088    0.4459    0.0000 O   0  0  0  0  0  0  0  0  0  0  0  0
   -3.5356   -0.7844    0.0000 O   0  0  0  0  0  0  0  0  0  0  0  0
    0.0329   -2.8757    0.0000 O   0  0  0  0  0  0  0  0  0  0  0  0
    1.4253   -2.8916    0.0000 O   0  0  0  0  0  0  0  0  0  0  0  0
    2.1372   -3.3009    0.0000 C   0  0  0  0  0  0  0  0  0  0  0  0
    2.1368   -4.1229    0.0000 O   0  0  0  0  0  0  0  0  0  0  0  0
    2.8446   -4.5320    0.0000 C   0  0  0  0  0  0  0  0  0  0  0  0
    3.5573   -4.1236    0.0000 C   0  0  0  0  0  0  0  0  0  0  0  0
    3.5577   -3.3016    0.0000 C   0  0  0  0  0  0  0  0  0  0  0  0
    2.8454   -2.8880    0.0000 C   0  0  0  0  0  0  0  0  0  0  0  0
    2.8446   -2.0629    0.0000 O   0  0  0  0  0  0  0  0  0  0  0  0
    4.2728   -2.8901    0.0000 O   0  0  0  0  0  0  0  0  0  0  0  0
    4.2710   -4.5375    0.0000 O   0  0  0  0  0  0  0  0  0  0  0  0
    2.8430   -5.3571    0.0000 C   0  0  0  0  0  0  0  0  0  0  0  0
    3.5540   -5.7678    0.0000 O   0  0  0  0  0  0  0  0  0  0  0  0
 15 16  2  0  0  0  0
 29 32  1  0  0  0  0
 30 31  1  0  0  0  0
 31 34  1  0  0  0  0
 33 32  1  0  0  0  0
  1  8  1  0  0  0  0
 16 17  1  0  0  0  0
 33 34  2  0  0  0  0
  1  6  1  0  0  0  0
 34 35  1  0  0  0  0
 17 18  2  0  0  0  0
 35 36  2  0  0  0  0
 18 13  1  0  0  0  0
 36 37  1  0  0  0  0
  2  9  1  0  0  0  0
 37 38  2  0  0  0  0
 38 33  1  0  0  0  0
  2  3  1  0  0  0  0
 32 39  2  0  0  0  0
 28 12  1  0  0  0  0
 19 20  2  0  0  0  0
 38 40  1  0  0  0  0
  5 10  1  0  0  0  0
 36 41  1  0  0  0  0
 20 21  1  0  0  0  0
 41 42  2  0  0  0  0
  3  4  1  0  0  0  0
 41 43  1  0  0  0  0
 21 22  2  0  0  0  0
 31 44  1  0  0  0  0
 44 24  1  0  0  0  0
 10 11  1  0  0  0  0
 44 14  1  0  0  0  0
 23 45  1  0  0  0  0
 45 15  1  0  0  0  0
 22 23  1  0  0  0  0
 22 46  1  0  0  0  0
  4  5  1  0  0  0  0
 20 47  1  0  0  0  0
 23 24  2  0  0  0  0
 47 48  2  0  0  0  0
 24 19  1  0  0  0  0
 47 49  1  0  0  0  0
  3 12  1  0  0  0  0
 45 50  2  0  0  0  0
  5  6  1  0  0  0  0
 16 51  1  0  0  0  0
 25 26  2  0  0  0  0
 51 52  1  0  0  0  0
 52 53  1  0  0  0  0
 26 27  1  0  0  0  0
 27 30  2  0  0  0  0
 13 14  2  0  0  0  0
 29 28  2  0  0  0  0
 52 57  1  0  0  0  0
 53 54  1  0  0  0  0
 54 55  1  0  0  0  0
 55 56  1  0  0  0  0
 56 57  1  0  0  0  0
 28 25  1  0  0  0  0
 57 58  1  0  0  0  0
 29 30  1  0  0  0  0
 56 59  1  0  0  0  0
  6  7  1  0  0  0  0
 55 60  1  0  0  0  0
 14 15  1  0  0  0  0
 54 61  1  0  0  0  0
  1  2  1  0  0  0  0
 61 62  1  0  0  0  0
M  END
> <DATABASE_ID>
DB11365

> <DATABASE_NAME>
drugbank

> <SMILES>
OCC1OC(OC2=C3C(=O)C4=C(C=C(C=C4O)C(O)=O)C(C4C5=CC=CC(OC6OC(CO)C(O)C(O)C6O)=C5C(=O)C5=C4C=C(C=C5O)C(O)=O)C3=CC=C2)C(O)C(O)C1O

> <INCHI_IDENTIFIER>
InChI=1S/C42H38O20/c43-11-23-31(47)35(51)37(53)41(61-23)59-21-5-1-3-15-25(17-7-13(39(55)56)9-19(45)27(17)33(49)29(15)21)26-16-4-2-6-22(60-42-38(54)36(52)32(48)24(12-44)62-42)30(16)34(50)28-18(26)8-14(40(57)58)10-20(28)46/h1-10,23-26,31-32,35-38,41-48,51-54H,11-12H2,(H,55,56)(H,57,58)

> <INCHI_KEY>
IPQVTOJGNYVQEO-UHFFFAOYSA-N

> <FORMULA>
C42H38O20

> <MOLECULAR_WEIGHT>
862.746

> <EXACT_MASS>
862.195643624

> <JCHEM_ACCEPTOR_COUNT>
20

> <JCHEM_ATOM_COUNT>
100

> <JCHEM_AVERAGE_NEUTRAL_MICROSPECIES_CHARGE>
0.0027767202258429566

> <JCHEM_AVERAGE_POLARIZABILITY>
81.48614951775826

> <JCHEM_BIOAVAILABILITY>
0

> <JCHEM_DONOR_COUNT>
12

> <JCHEM_FORMAL_CHARGE>
0

> <JCHEM_GHOSE_FILTER>
0

> <JCHEM_IUPAC>
4,4'-dihydroxy-10,10'-dioxo-5,5'-bis({[3,4,5-trihydroxy-6-(hydroxymethyl)oxan-2-yl]oxy})-9H,9'H,10H,10'H-[9,9'-bianthracene]-2,2'-dicarboxylic acid

> <ALOGPS_LOGP>
0.94

> <JCHEM_LOGP>
1.188237431333333

> <ALOGPS_LOGS>
-3.06

> <JCHEM_MDDR_LIKE_RULE>
1

> <JCHEM_NEUTRAL_CHARGE>
-2

> <JCHEM_NUMBER_OF_RINGS>
8

> <JCHEM_PHYSIOLOGICAL_CHARGE>
-2

> <JCHEM_PKA>
3.828671941925737

> <JCHEM_PKA_STRONGEST_ACIDIC>
3.2266176662082584

> <JCHEM_PKA_STRONGEST_BASIC>
-3.954075423702688

> <JCHEM_POLAR_SURFACE_AREA>
347.96000000000004

> <JCHEM_REFRACTIVITY>
205.44320000000005

> <JCHEM_ROTATABLE_BOND_COUNT>
9

> <JCHEM_RULE_OF_FIVE>
0

> <ALOGPS_SOLUBILITY>
7.53e-01 g/l

> <JCHEM_TRADITIONAL_IUPAC>
4,4'-dihydroxy-10,10'-dioxo-5,5'-bis({[3,4,5-trihydroxy-6-(hydroxymethyl)oxan-2-yl]oxy})-9H,9'H-[9,9'-bianthracene]-2,2'-dicarboxylic acid

> <JCHEM_VEBER_RULE>
0

> <DRUGBANK_ID>
DB11365

> <DRUG_GROUPS>
experimental

> <GENERIC_NAME>
Sennosides

> <SYNONYMS>
Senna glycosides; Sennoside; Sennosides

> <PRODUCTS>
2 In 1laxative Stool Softener and Stiulant Laxative; Agarol Extra Strength Chewable Laxative Tablets; Agarol With Sennosides; Agoral; Assured Natural Laxative; Bekunis Natures Gentle Laxative Herbal Tea; Bekunis Natures Gentle Laxative Instant Tea; Bekunis Natures Gentle Stimulant Laxative; Best Choice Senna; CAREALL Senna-S Laxative; CAREALL Sennosides; CVS Senna Laxative; Calcium Sennosides 20%; Calcium Sennosides 60%; Caremotion; Castoria Liq 0.7mg/ml; Chocolate Flavored Senna; Chocolate Laxative Regular strength, Sennosides Stimulant Laxative, equate; Chocolated Laxative; Chocolated Laxative Regular Strength Sennosides Stimulant Laxative TopCare health; Chocolated Laxative Regular Strength Sennosides Stimulant Laxative, Best Choice; Cholasyn; Colace; Colace + Stimulant Laxative; Colace Kit; Colistat Plus; DOK Plus; DocQLax; Docusate Plus Senna; Docusate Sennosides; Docusate Sod/Senna; Docusate Sodium; Docusate Sodium - Sennosides; Docusate Sodium With Sennosides; Docusate Sodium and Senna; Docusate Sodium with Sennosides; Docusate Sodium, Sennosides; Docusate sodium and Sennosides; Docusen; Docuzen; Drug Mart Stool Softener plus Stimulant Laxative; Drug Mart Vegetable Laxative plus Stool Softener; EX-lax Gentle Strength; EX-lax Maximum Strength Stimulant Laxative; EX-lax Regular Strength Chocolated Stimulant Laxative; EX-lax Regular Strength Stimulant Laxative; Exchange select; Feel Well PLUS; Flora Herbtea Senna Leaves; Genexa Kids Senna Laxative; Genexa Senna Laxative; Gentle Relief Senna Laxative; Geri-kot; GeriCare Senna Syrup; Glysennid Tab 8.6mg; Glysennid Tablets 12mg; Good Neighbor Senna; Goodsense Senna; HEB Maximum strength Laxative pills; Health Sense Senno; Humco Senna Leaves; Humco Senna Powder; Jamp-senna S; Konsyl Overnight Relief Senna Prompt; Kroger Senna Laxative Regular Strength; Lax-Aid; Lax-Aid for Children; Lax-time; Laxacin; Laxatif De Sene Et Docusate De Sodium; Laxative; Laxative Docusate Sodium with Senna; Laxative Maximum Strength; Laxative Pills; Laxative Pills Extra Strength; Laxative Pills Maximum Strength; Laxative Pills maximum strength; Laxative Plus Softener; Laxative Regular Strength; Laxative Regular Strength, chocolated stimulant laxative sennosides, Equaline; Laxative Senna; Laxative Stool Softener; Laxative and Stool Softener; Laxative maximum strength; Laxative pills Maximum Strength; Laxative pills maximum strength; Leader Maximum Strength Laxative; Leader Regular Strength Chocolate Laxative sennosides; Leader Senna Laxative; Leader Stool Softener plus Stimulant Laxative; Little Remedies Little Tummys Laxative Drops; Maximum Strength Laxative; Maximum Strength Laxative Pills; Medi-laxx Rx Stool Softener and Laxative; Medi-laxx Stool Softener and Laxative; Meijer Senna Laxative Regular Strength; Mucinum (cascara and Senna Tablets); Natural Laxative; Natural Laxative Plus Stool Softener; Natural Senna; Natural Senna Laxative; Natural Vegetable Laxative; Natural Vegetable Laxative with Stool Softener; Nature's Remedy; Only For STIMULANT LAXATIVE; Perdiem; Peri-Colace; Phytolax; Plus Pharma Senna Plus Standardized Senna Concentrate 8.6 mg and Docusate Sodium 50 mg Each; Plus Pharma Senna Standardized Senna Concentrate 8.6 mg Sennosides Each; Preferred Plus Senna Gentle Natural Vegetable Laxative; Publix Laxative Maximum Strength; Purgasol; Regular Strength Laxative; SENNA Syrup; Sandoz Senna S; Sankaijo; Sd's Tea; Senexon; Senexon-S; Senna; Senna Docusate; Senna Gen; Senna Lax; Senna Laxative; Senna Laxative Natural Vegetable Laxative; Senna Laxative Natural vegetable laxative; Senna Laxative and Docusate Sodium Tablets; Senna Laxative plus Stool Softener; Senna Leaves; Senna Liquid; Senna Natural Relief; Senna Natural Vegetable; Senna Natural Vegetable Laxative; Senna Natural vegetable laxative; Senna Plus; Senna Plus Standardized Senna Concentrate 8.6 mg and Docusate Sodium 50 mg Each; Senna S; Senna S Dual Action; Senna S Laxative; Senna S Orange; Senna S Stool Softener with Laxative; Senna S. Tablets; Senna Standardized Senna Concentrate 8.6 mg Sennosides Each; Senna Syrup; Senna Tabs; Senna Time; Senna Time S; Senna and Docusate Sodium; Senna laxative; Senna laxative Natural vegetable laxative; Senna laxative Regular Strength; Senna plus; Senna- S; Senna-Doc; Senna-Lax; Senna-S; Senna-S Laxative; Senna-S Laxative With Stool Softener; Senna-Tabs; Senna-Time; Senna-lax; Senna-plus; Senna-s; Senna/Docusate Sodium; SennaLax-S; Sennagen; Sennazon; Sennoside 8.6mg; Sennosides; Sennosides 17.2mg; Sennosides 8.6mg; Sennosides Natural Laxative; Sennosides With Docusate Sodium; Sennosides and Docusate Sodium; Sennosides, Docusate Sodium; Sennosides, Docusate sodium; Sennosides,Docusate sodium; Senokot; Senokot S; Senokot-S; SenokotXTRA; Senolax Jam 5mg/7gm; Sool Softener Laxative; Stimulant Laxative; Stimulant Laxative Plus Stool Softener; Stimulant laxative plus stool softener; Stool Softener; Stool Softener Laxative; Stool Softener Laxative Plus Stimulant; Stool Softener Plus Laxative; Stool Softener Plus Stimulant; Stool Softener Plus Stimulant Laxative; Stool Softener Stimulant laxative; Stool Softener With Stimulant Laxative; Stool Softener and Laxative; Stool Softener and Stimulant Laxative; Stool Softener plus Laxative; Stool Softener plus Stimulant Laxative; Stool Softener plus stimulant Laxative; Stool Softener plus stimulant laxative; Stool Softener with Laxative; Stool Softener with Stimulant Laxative; Stool Softener with laxative; Stool Softener-stimulant Laxative; Stool Softening Senna Laxative; Super Colon Cleanse; Valumeds Natural Laxative; Vegetable Laxative; Vegetable Laxative and Stool Softner; Walgreens Senna Laxative; X Prep Liq

> <SALTS>
Sennosides A and B

$$$$
