
  Mrv1652310211602052D          

 18 20  0  0  0  0            999 V2000
    2.7845    0.6979    0.0000 C   0  0  0  0  0  0  0  0  0  0  0  0
    2.0701    1.1104    0.0000 C   0  0  0  0  0  0  0  0  0  0  0  0
    1.3556    0.6979    0.0000 C   0  0  0  0  0  0  0  0  0  0  0  0
    0.6411    1.1104    0.0000 C   0  0  0  0  0  0  0  0  0  0  0  0
    0.6411    1.9354    0.0000 C   0  0  0  0  0  0  0  0  0  0  0  0
    1.3556    2.3479    0.0000 C   0  0  0  0  0  0  0  0  0  0  0  0
    2.0701    1.9354    0.0000 N   0  0  0  0  0  0  0  0  0  0  0  0
   -0.1435    2.1904    0.0000 C   0  0  0  0  0  0  0  0  0  0  0  0
   -0.6284    1.5229    0.0000 O   0  0  0  0  0  0  0  0  0  0  0  0
   -0.1435    0.8555    0.0000 C   0  0  0  0  0  0  0  0  0  0  0  0
   -0.3984    2.9750    0.0000 C   0  0  0  0  0  0  0  0  0  0  0  0
   -1.2054    3.1465    0.0000 C   0  0  0  0  0  0  0  0  0  0  0  0
   -1.4604    3.9312    0.0000 C   0  0  0  0  0  0  0  0  0  0  0  0
   -0.9083    4.5442    0.0000 C   0  0  0  0  0  0  0  0  0  0  0  0
   -0.1014    4.3727    0.0000 C   0  0  0  0  0  0  0  0  0  0  0  0
    0.1536    3.5881    0.0000 C   0  0  0  0  0  0  0  0  0  0  0  0
   -1.1633    5.3289    0.0000 Cl  0  0  0  0  0  0  0  0  0  0  0  0
    1.3556   -0.1271    0.0000 O   0  0  0  0  0  0  0  0  0  0  0  0
  1  2  1  0  0  0  0
  2  3  2  0  0  0  0
  3  4  1  0  0  0  0
  4  5  2  0  0  0  0
  5  6  1  0  0  0  0
  6  7  2  0  0  0  0
  2  7  1  0  0  0  0
  5  8  1  0  0  0  0
  8  9  1  0  0  0  0
  9 10  1  0  0  0  0
  4 10  1  0  0  0  0
  8 11  1  0  0  0  0
 11 12  2  0  0  0  0
 12 13  1  0  0  0  0
 13 14  2  0  0  0  0
 14 15  1  0  0  0  0
 15 16  2  0  0  0  0
 11 16  1  0  0  0  0
 14 17  1  0  0  0  0
  3 18  1  0  0  0  0
M  END
> <DATABASE_ID>
DB12766

> <DATABASE_NAME>
drugbank

> <SMILES>
CC1=C(O)C2=C(C=N1)C(OC2)C1=CC=C(Cl)C=C1

> <INCHI_IDENTIFIER>
InChI=1S/C14H12ClNO2/c1-8-13(17)12-7-18-14(11(12)6-16-8)9-2-4-10(15)5-3-9/h2-6,14,17H,7H2,1H3

> <INCHI_KEY>
CVKNDPRBJVBDSS-UHFFFAOYSA-N

> <FORMULA>
C14H12ClNO2

> <MOLECULAR_WEIGHT>
261.71

> <EXACT_MASS>
261.0556563

> <JCHEM_ACCEPTOR_COUNT>
3

> <JCHEM_ATOM_COUNT>
30

> <JCHEM_AVERAGE_POLARIZABILITY>
26.492306531293657

> <JCHEM_BIOAVAILABILITY>
1

> <JCHEM_DONOR_COUNT>
1

> <JCHEM_FORMAL_CHARGE>
0

> <JCHEM_GHOSE_FILTER>
1

> <JCHEM_IUPAC>
3-(4-chlorophenyl)-6-methyl-1H,3H-furo[3,4-c]pyridin-7-ol

> <ALOGPS_LOGP>
2.80

> <JCHEM_LOGP>
2.5986671376666663

> <ALOGPS_LOGS>
-2.56

> <JCHEM_MDDR_LIKE_RULE>
0

> <JCHEM_NUMBER_OF_RINGS>
3

> <JCHEM_PHYSIOLOGICAL_CHARGE>
0

> <JCHEM_PKA_STRONGEST_ACIDIC>
8.56521546644741

> <JCHEM_PKA_STRONGEST_BASIC>
5.514649848043225

> <JCHEM_POLAR_SURFACE_AREA>
42.35

> <JCHEM_REFRACTIVITY>
69.6828

> <JCHEM_ROTATABLE_BOND_COUNT>
1

> <JCHEM_RULE_OF_FIVE>
1

> <ALOGPS_SOLUBILITY>
7.27e-01 g/l

> <JCHEM_TRADITIONAL_IUPAC>
cicletanine

> <JCHEM_VEBER_RULE>
0

> <DRUGBANK_ID>
DB12766

> <DRUG_GROUPS>
investigational

> <GENERIC_NAME>
Cicletanine

> <SYNONYMS>
Cicletanine

$$$$
