
  Mrv1718011041807412D          

  4  3  0  0  0  0            999 V2000
    0.0000   -0.2062    0.0000 C   0  0  0  0  0  0  0  0  0  0  0  0
   -0.7145   -0.6187    0.0000 H   0  0  0  0  0  0  0  0  0  0  0  0
    0.0000    0.6187    0.0000 O   0  0  0  0  0  0  0  0  0  0  0  0
    0.7145   -0.6187    0.0000 H   0  0  0  0  0  0  0  0  0  0  0  0
  3  1  2  0  0  0  0
  1  4  1  0  0  0  0
  1  2  1  0  0  0  0
M  END
> <DATABASE_ID>
DB03843

> <DATABASE_NAME>
drugbank

> <SMILES>
[H]C([H])=O

> <INCHI_IDENTIFIER>
InChI=1S/CH2O/c1-2/h1H2

> <INCHI_KEY>
WSFSSNUMVMOOMR-UHFFFAOYSA-N

> <FORMULA>
CH2O

> <MOLECULAR_WEIGHT>
30.026

> <EXACT_MASS>
30.010564686

> <JCHEM_ACCEPTOR_COUNT>
1

> <JCHEM_ATOM_COUNT>
4

> <JCHEM_AVERAGE_POLARIZABILITY>
2.578047880261086

> <JCHEM_BIOAVAILABILITY>
1

> <JCHEM_DONOR_COUNT>
0

> <JCHEM_FORMAL_CHARGE>
0

> <JCHEM_GHOSE_FILTER>
0

> <JCHEM_IUPAC>
formaldehyde

> <ALOGPS_LOGP>
-0.68

> <JCHEM_LOGP>
-0.46697540866666665

> <ALOGPS_LOGS>
0.82

> <JCHEM_MDDR_LIKE_RULE>
0

> <JCHEM_NUMBER_OF_RINGS>
0

> <JCHEM_PHYSIOLOGICAL_CHARGE>
0

> <JCHEM_PKA_STRONGEST_BASIC>
-8.091396818575825

> <JCHEM_POLAR_SURFACE_AREA>
17.07

> <JCHEM_REFRACTIVITY>
6.3069999999999995

> <JCHEM_ROTATABLE_BOND_COUNT>
0

> <JCHEM_RULE_OF_FIVE>
1

> <ALOGPS_SOLUBILITY>
1.98e+02 g/l

> <JCHEM_TRADITIONAL_IUPAC>
formaldehyde

> <JCHEM_VEBER_RULE>
1

> <DRUGBANK_ID>
DB03843

> <SECONDARY_ACCESSION_NUMBERS>
EXPT01444

> <DRUG_GROUPS>
approved; vet_approved

> <GENERIC_NAME>
Formaldehyde

> <SYNONYMS>
FormaldehÃ­do; Formaldehyd; Formaldehyde; Formaldehyde solution; Formalin; Formic aldehyde; Formol; Methanal; Methyl aldehyde; Methylene oxide; Oxomethane; Oxomethylene; Oxymethylene; Paraform

> <PRODUCTS>
British Army Foot Pwr; Forma-Ray; Formadon; Formalaz; Formaldehyde; Root Canal Therapy; T.R.U.E. Test Thin-Layer Rapid Use Patch Test

$$$$
