
  Mrv1652310211604242D          

 23 26  0  0  1  0            999 V2000
   -2.3799   -2.7244    0.0000 C   0  0  0  0  0  0  0  0  0  0  0  0
   -3.1645   -2.4694    0.0000 N   0  0  0  0  0  0  0  0  0  0  0  0
   -3.3361   -1.6625    0.0000 C   0  0  0  0  0  0  0  0  0  0  0  0
   -2.7230   -1.1104    0.0000 C   0  0  0  0  0  0  0  0  0  0  0  0
   -1.9384   -1.3654    0.0000 C   0  0  0  0  0  0  0  0  0  0  0  0
   -1.7668   -2.1724    0.0000 N   0  0  0  0  0  0  0  0  0  0  0  0
   -1.4534   -0.6979    0.0000 N   0  0  0  0  0  0  0  0  0  0  0  0
   -1.9384   -0.0305    0.0000 C   0  0  0  0  0  0  0  0  0  0  0  0
   -2.7230   -0.2854    0.0000 N   0  0  0  0  0  0  0  0  0  0  0  0
   -1.6834    0.7541    0.0000 Cl  0  0  0  0  0  0  0  0  0  0  0  0
   -0.6284   -0.6979    0.0000 C   0  0  1  0  0  0  0  0  0  0  0  0
   -0.1435   -1.3654    0.0000 C   0  0  1  0  0  0  0  0  0  0  0  0
    0.6411   -1.1104    0.0000 C   0  0  1  0  0  0  0  0  0  0  0  0
    0.6411   -0.2854    0.0000 C   0  0  2  0  0  0  0  0  0  0  0  0
   -0.1435   -0.0305    0.0000 O   0  0  0  0  0  0  0  0  0  0  0  0
    1.3556    0.1271    0.0000 C   0  0  0  0  0  0  0  0  0  0  0  0
    2.0701   -0.2854    0.0000 O   0  0  0  0  0  0  0  0  0  0  0  0
    2.0701   -1.1104    0.0000 P   0  0  0  0  0  0  0  0  0  0  0  0
    2.8825   -0.9672    0.0000 O   0  0  0  0  0  0  0  0  0  0  0  0
    1.3556   -1.5229    0.0000 O   0  0  0  0  0  0  0  0  0  0  0  0
    2.3522   -1.8857    0.0000 O   0  0  0  0  0  0  0  0  0  0  0  0
   -0.3984   -2.1500    0.0000 O   0  0  0  0  0  0  0  0  0  0  0  0
   -4.1207   -1.4075    0.0000 N   0  0  0  0  0  0  0  0  0  0  0  0
  1  2  2  0  0  0  0
  2  3  1  0  0  0  0
  3  4  2  0  0  0  0
  4  5  1  0  0  0  0
  5  6  2  0  0  0  0
  1  6  1  0  0  0  0
  5  7  1  0  0  0  0
  7  8  1  0  0  0  0
  8  9  2  0  0  0  0
  4  9  1  0  0  0  0
  8 10  1  0  0  0  0
 11  7  1  6  0  0  0
 11 12  1  0  0  0  0
 12 13  1  0  0  0  0
 13 14  1  0  0  0  0
 14 15  1  6  0  0  0
 11 15  1  0  0  0  0
 14 16  1  0  0  0  0
 16 17  1  0  0  0  0
 17 18  1  0  0  0  0
 18 19  2  0  0  0  0
 18 20  1  0  0  0  0
 13 20  1  1  0  0  0
 18 21  1  0  0  0  0
 12 22  1  1  0  0  0
  3 23  1  0  0  0  0
M  END
> <DATABASE_ID>
DB13046

> <DATABASE_NAME>
drugbank

> <SMILES>
NC1=C2N=C(Cl)N([C@@H]3O[C@@H]4COP(O)(=O)O[C@H]4[C@H]3O)C2=NC=N1

> <INCHI_IDENTIFIER>
InChI=1S/C10H11ClN5O6P/c11-10-15-4-7(12)13-2-14-8(4)16(10)9-5(17)6-3(21-9)1-20-23(18,19)22-6/h2-3,5-6,9,17H,1H2,(H,18,19)(H2,12,13,14)/t3-,5-,6-,9-/m1/s1

> <INCHI_KEY>
CLLFEJLEDNXZNR-UUOKFMHZSA-N

> <FORMULA>
C10H11ClN5O6P

> <MOLECULAR_WEIGHT>
363.65

> <EXACT_MASS>
363.0135478

> <JCHEM_ACCEPTOR_COUNT>
8

> <JCHEM_ATOM_COUNT>
34

> <JCHEM_AVERAGE_POLARIZABILITY>
30.541546754577908

> <JCHEM_BIOAVAILABILITY>
1

> <JCHEM_DONOR_COUNT>
3

> <JCHEM_FORMAL_CHARGE>
0

> <JCHEM_GHOSE_FILTER>
0

> <JCHEM_IUPAC>
(4aR,6R,7R,7aS)-6-(6-amino-8-chloro-9H-purin-9-yl)-2,7-dihydroxy-hexahydro-2lambda5-furo[3,2-d][1,3,2]dioxaphosphinin-2-one

> <ALOGPS_LOGP>
-1.59

> <JCHEM_LOGP>
-1.559304970954683

> <ALOGPS_LOGS>
-2.08

> <JCHEM_MDDR_LIKE_RULE>
0

> <JCHEM_NUMBER_OF_RINGS>
4

> <JCHEM_PHYSIOLOGICAL_CHARGE>
-1

> <JCHEM_PKA>
12.5863153382567

> <JCHEM_PKA_STRONGEST_ACIDIC>
1.7790862830448209

> <JCHEM_PKA_STRONGEST_BASIC>
2.7677094626307515

> <JCHEM_POLAR_SURFACE_AREA>
154.84

> <JCHEM_REFRACTIVITY>
75.3154

> <JCHEM_ROTATABLE_BOND_COUNT>
1

> <JCHEM_RULE_OF_FIVE>
1

> <ALOGPS_SOLUBILITY>
3.04e+00 g/l

> <JCHEM_TRADITIONAL_IUPAC>
(4aR,6R,7R,7aS)-6-(6-amino-8-chloropurin-9-yl)-2,7-dihydroxy-tetrahydro-4H-2lambda5-furo[3,2-d][1,3,2]dioxaphosphinin-2-one

> <JCHEM_VEBER_RULE>
0

> <DRUGBANK_ID>
DB13046

> <DRUG_GROUPS>
investigational

> <GENERIC_NAME>
Tocladesine

> <SYNONYMS>
Tocladesine

$$$$
