
  Mrv1909 07311916562D          

 33 38  0  0  0  0            999 V2000
   -1.5915    0.1677    0.0000 O   0  0  0  0  0  0  0  0  0  0  0  0
   -1.3710   -0.6271    0.0000 C   0  0  0  0  0  0  0  0  0  0  0  0
   -1.9493   -1.2154    0.0000 C   0  0  0  0  0  0  0  0  0  0  0  0
   -2.7480   -1.0088    0.0000 C   0  0  0  0  0  0  0  0  0  0  0  0
   -3.3263   -1.5971    0.0000 C   0  0  0  0  0  0  0  0  0  0  0  0
   -3.1059   -2.3920    0.0000 C   0  0  0  0  0  0  0  0  0  0  0  0
   -2.3073   -2.5987    0.0000 C   0  0  0  0  0  0  0  0  0  0  0  0
   -1.7291   -2.0104    0.0000 C   0  0  0  0  0  0  0  0  0  0  0  0
   -0.5724   -0.8338    0.0000 O   0  0  0  0  0  0  0  0  0  0  0  0
    0.5235   -0.2085    0.0000 O   0  0  0  0  0  0  0  0  0  0  0  0
   -0.1906    0.3128    0.0000 C   0  0  2  0  0  0  0  0  0  0  0  0
    0.0465    0.9198    0.0000 C   0  0  1  0  0  0  0  0  0  0  0  0
    1.2045    0.3115    0.0000 C   0  0  0  0  0  0  0  0  0  0  0  0
    3.3263   -0.2596    0.0000 C   0  0  0  0  0  0  0  0  0  0  0  0
    2.5032   -0.3132    0.0000 O   0  0  0  0  0  0  0  0  0  0  0  0
    2.0451    0.3729    0.0000 C   0  0  0  0  0  0  0  0  0  0  0  0
    2.4205    1.1183    0.0000 C   0  0  0  0  0  0  0  0  0  0  0  0
    1.9421    1.8192    0.0000 C   0  0  0  0  0  0  0  0  0  0  0  0
    1.0729    1.8631    0.0000 C   0  0  0  0  0  0  0  0  0  0  0  0
    0.2823    2.3757    0.0000 C   0  0  0  0  0  0  0  0  0  0  0  0
   -0.6106    1.9271    0.0000 C   0  0  2  0  0  0  0  0  0  0  0  0
   -0.1676    1.7601    0.0000 C   0  0  2  0  0  0  0  0  0  0  0  0
   -0.9668    2.2062    0.0000 C   0  0  0  0  0  0  0  0  0  0  0  0
   -1.0132    0.7560    0.0000 C   0  0  0  0  0  0  0  0  0  0  0  0
   -1.5062    1.6343    0.0000 C   0  0  0  0  0  0  0  0  0  0  0  0
   -0.6305   -0.3850    0.0000 H   0  0  0  0  0  0  0  0  0  0  0  0
    0.8343    1.0648    0.0000 C   0  0  0  0  0  0  0  0  0  0  0  0
    0.6188    2.0090    0.0000 H   0  0  0  0  0  0  0  0  0  0  0  0
   -1.0898    2.5987    0.0000 H   0  0  0  0  0  0  0  0  0  0  0  0
   -0.6743    0.2282    0.0000 C   0  0  0  0  0  0  0  0  0  0  0  0
   -1.2942    1.2589    0.0000 N   0  0  0  0  0  0  0  0  0  0  0  0
   -1.4647    0.4552    0.0000 C   0  0  0  0  0  0  0  0  0  0  0  0
   -2.0169    1.6566    0.0000 C   0  0  0  0  0  0  0  0  0  0  0  0
  1  2  1  0  0  0  0
  1 24  1  0  0  0  0
  2  9  2  0  0  0  0
  3  2  1  0  0  0  0
  3  8  1  0  0  0  0
  4  3  2  0  0  0  0
  4  5  1  0  0  0  0
  5  6  2  0  0  0  0
  7  6  1  0  0  0  0
  8  7  2  0  0  0  0
 11 12  1  0  0  0  0
 11 24  1  0  0  0  0
 11 26  1  6  0  0  0
 12 22  1  0  0  0  0
 13 10  1  0  0  0  0
 13 27  1  0  0  0  0
 15 14  1  0  0  0  0
 15 16  1  0  0  0  0
 16 13  2  0  0  0  0
 17 18  2  0  0  0  0
 17 16  1  0  0  0  0
 18 19  1  0  0  0  0
 19 27  2  0  0  0  0
 20 19  1  0  0  0  0
 21 22  1  0  0  0  0
 21 20  1  0  0  0  0
 23 22  1  0  0  0  0
 24 25  2  0  0  0  0
 25 23  1  0  0  0  0
 27 12  1  0  0  0  0
 22 28  1  6  0  0  0
 21 29  1  1  0  0  0
 21 31  1  0  0  0  0
 31 32  1  0  0  0  0
 12 30  1  6  0  0  0
 32 30  1  0  0  0  0
 31 33  1  0  0  0  0
 11 10  1  1  0  0  0
M  END
> <DATABASE_ID>
DB15465

> <DATABASE_NAME>
drugbank

> <SMILES>
[H][C@@]12OC3=C(OC)C=CC4=C3[C@@]11CCN(C)[C@]([H])(C4)[C@]1([H])CC=C2OC(=O)C1=CC=CC=C1

> <INCHI_IDENTIFIER>
InChI=1S/C25H25NO4/c1-26-13-12-25-17-9-11-20(29-24(27)15-6-4-3-5-7-15)23(25)30-22-19(28-2)10-8-16(21(22)25)14-18(17)26/h3-8,10-11,17-18,23H,9,12-14H2,1-2H3/t17-,18-,23+,25+/m1/s1

> <INCHI_KEY>
VPMRSLWWUXNYRY-NDOYXKHWSA-N

> <FORMULA>
C25H25NO4

> <MOLECULAR_WEIGHT>
403.478

> <EXACT_MASS>
403.178358289

> <JCHEM_ACCEPTOR_COUNT>
4

> <JCHEM_ATOM_COUNT>
55

> <JCHEM_AVERAGE_POLARIZABILITY>
43.741820864826934

> <JCHEM_BIOAVAILABILITY>
1

> <JCHEM_DONOR_COUNT>
0

> <JCHEM_FORMAL_CHARGE>
0

> <JCHEM_GHOSE_FILTER>
1

> <JCHEM_IUPAC>
(1S,5R,13R,17R)-10-methoxy-4-methyl-12-oxa-4-azapentacyclo[9.6.1.0^{1,13}.0^{5,17}.0^{7,18}]octadeca-7(18),8,10,14-tetraen-14-yl benzoate

> <JCHEM_LOGP>
3.712008725333332

> <JCHEM_MDDR_LIKE_RULE>
0

> <JCHEM_NUMBER_OF_RINGS>
6

> <JCHEM_PHYSIOLOGICAL_CHARGE>
1

> <JCHEM_PKA_STRONGEST_BASIC>
9.355121580333083

> <JCHEM_POLAR_SURFACE_AREA>
48.00000000000001

> <JCHEM_REFRACTIVITY>
114.95749999999998

> <JCHEM_ROTATABLE_BOND_COUNT>
4

> <JCHEM_RULE_OF_FIVE>
1

> <JCHEM_TRADITIONAL_IUPAC>
(1S,5R,13R,17R)-10-methoxy-4-methyl-12-oxa-4-azapentacyclo[9.6.1.0^{1,13}.0^{5,17}.0^{7,18}]octadeca-7(18),8,10,14-tetraen-14-yl benzoate

> <JCHEM_VEBER_RULE>
0

> <DRUGBANK_ID>
DB15465

> <DRUG_GROUPS>
approved

> <GENERIC_NAME>
Benzhydrocodone

> <SYNONYMS>
Benzhydrocodone

> <PRODUCTS>
Apadaz; Benzhydrocodone and Acetaminophen

> <SALTS>
Benzhydrocodone hydrochloride

$$$$
