
  Mrv1652306291702102D          

 33 36  0  0  0  0            999 V2000
   -3.7506    3.3401    0.0000 C   0  0  0  0  0  0  0  0  0  0  0  0
    0.8767   -3.3401    0.0000 C   0  0  0  0  0  0  0  0  0  0  0  0
   -4.4942    0.4057    0.0000 C   0  0  0  0  0  0  0  0  0  0  0  0
    0.5780   -0.4979    0.0000 C   0  0  0  0  0  0  0  0  0  0  0  0
   -0.2424   -0.5841    0.0000 C   0  0  0  0  0  0  0  0  0  0  0  0
   -1.5478   -0.0029    0.0000 C   0  0  0  0  0  0  0  0  0  0  0  0
    2.5177   -3.1677    0.0000 C   0  0  0  0  0  0  0  0  0  0  0  0
    2.3683   -1.7466    0.0000 C   0  0  0  0  0  0  0  0  0  0  0  0
    3.3381   -3.0814    0.0000 C   0  0  0  0  0  0  0  0  0  0  0  0
    3.1888   -1.6603    0.0000 C   0  0  0  0  0  0  0  0  0  0  0  0
   -2.0327    0.6644    0.0000 C   0  0  0  0  0  0  0  0  0  0  0  0
    1.0629   -1.1654    0.0000 C   0  0  0  0  0  0  0  0  0  0  0  0
   -1.3984   -1.4241    0.0000 C   0  0  0  0  0  0  0  0  0  0  0  0
   -2.7039   -0.8429    0.0000 C   0  0  0  0  0  0  0  0  0  0  0  0
   -3.0832    2.0302    0.0000 C   0  0  0  0  0  0  0  0  0  0  0  0
   -4.1631    1.2456    0.0000 C   0  0  0  0  0  0  0  0  0  0  0  0
   -3.7506    2.5151    0.0000 C   0  0  0  0  0  0  0  0  0  0  0  0
    1.2123   -2.5865    0.0000 C   0  0  1  0  0  0  0  0  0  0  0  0
   -1.8834   -0.7566    0.0000 C   0  0  0  0  0  0  0  0  0  0  0  0
    2.0327   -2.5002    0.0000 C   0  0  0  0  0  0  0  0  0  0  0  0
   -0.5780   -1.3378    0.0000 C   0  0  0  0  0  0  0  0  0  0  0  0
    3.6737   -2.3278    0.0000 C   0  0  0  0  0  0  0  0  0  0  0  0
   -2.8532    0.5782    0.0000 C   0  0  0  0  0  0  0  0  0  0  0  0
   -3.1888   -0.1754    0.0000 C   0  0  0  0  0  0  0  0  0  0  0  0
   -0.0930   -2.0053    0.0000 C   0  0  0  0  0  0  0  0  0  0  0  0
    4.4942   -2.2415    0.0000 F   0  0  0  0  0  0  0  0  0  0  0  0
   -4.4181    2.0302    0.0000 N   0  0  0  0  0  0  0  0  0  0  0  0
   -3.3381    1.2456    0.0000 N   0  0  0  0  0  0  0  0  0  0  0  0
    0.7273   -1.9190    0.0000 N   0  0  0  0  0  0  0  0  0  0  0  0
   -0.4286   -2.7589    0.0000 O   0  0  0  0  0  0  0  0  0  0  0  0
   -4.0093   -0.2617    0.0000 O   0  0  0  0  0  0  0  0  0  0  0  0
   -1.7340   -2.1777    0.0000 H   0  0  0  0  0  0  0  0  0  0  0  0
    1.6972   -3.2539    0.0000 H   0  0  0  0  0  0  0  0  0  0  0  0
  5  4  1  0  0  0  0
  9  7  1  0  0  0  0
 10  8  2  0  0  0  0
 11  6  2  0  0  0  0
 12  4  1  0  0  0  0
 17  1  1  0  0  0  0
 17 15  2  0  0  0  0
 18  2  1  6  0  0  0
 19  6  1  0  0  0  0
 19 13  1  0  0  0  0
 19 14  2  0  0  0  0
 20  7  2  0  0  0  0
 20  8  1  0  0  0  0
 20 18  1  0  0  0  0
 21  5  1  0  0  0  0
 21 13  2  0  0  0  0
 22  9  2  0  0  0  0
 22 10  1  0  0  0  0
 23 11  1  0  0  0  0
 24 14  1  0  0  0  0
 24 23  2  0  0  0  0
 25 21  1  0  0  0  0
 26 22  1  0  0  0  0
 27 16  2  0  0  0  0
 27 17  1  0  0  0  0
 28 15  1  0  0  0  0
 28 16  1  0  0  0  0
 28 23  1  0  0  0  0
 29 12  1  0  0  0  0
 29 18  1  0  0  0  0
 29 25  1  0  0  0  0
 30 25  2  0  0  0  0
 31  3  1  0  0  0  0
 31 24  1  0  0  0  0
 32 13  1  0  0  0  0
 18 33  1  1  0  0  0
M  END
> <DATABASE_ID>
DB05171

> <DATABASE_NAME>
drugbank

> <SMILES>
[H]\C(C1=CC(OC)=C(C=C1)N1C=NC(C)=C1)=C1\CCCN(C1=O)[C@@]([H])(C)C1=CC=C(F)C=C1

> <INCHI_IDENTIFIER>
InChI=1S/C25H26FN3O2/c1-17-15-28(16-27-17)23-11-6-19(14-24(23)31-3)13-21-5-4-12-29(25(21)30)18(2)20-7-9-22(26)10-8-20/h6-11,13-16,18H,4-5,12H2,1-3H3/b21-13+/t18-/m0/s1

> <INCHI_KEY>
PUOAETJYKQITMO-LANLRWRYSA-N

> <FORMULA>
C25H26FN3O2

> <MOLECULAR_WEIGHT>
419.5

> <EXACT_MASS>
419.200905252

> <JCHEM_ACCEPTOR_COUNT>
3

> <JCHEM_ATOM_COUNT>
57

> <JCHEM_AVERAGE_POLARIZABILITY>
46.077860291556135

> <JCHEM_BIOAVAILABILITY>
1

> <JCHEM_DONOR_COUNT>
0

> <JCHEM_FORMAL_CHARGE>
0

> <JCHEM_GHOSE_FILTER>
0

> <JCHEM_IUPAC>
(3E)-1-[(1S)-1-(4-fluorophenyl)ethyl]-3-{[3-methoxy-4-(4-methyl-1H-imidazol-1-yl)phenyl]methylidene}piperidin-2-one

> <ALOGPS_LOGP>
4.47

> <JCHEM_LOGP>
4.163695522

> <ALOGPS_LOGS>
-5.41

> <JCHEM_MDDR_LIKE_RULE>
0

> <JCHEM_NUMBER_OF_RINGS>
4

> <JCHEM_PHYSIOLOGICAL_CHARGE>
0

> <JCHEM_PKA_STRONGEST_BASIC>
6.274347984772028

> <JCHEM_POLAR_SURFACE_AREA>
47.36

> <JCHEM_REFRACTIVITY>
130.1529

> <JCHEM_ROTATABLE_BOND_COUNT>
5

> <JCHEM_RULE_OF_FIVE>
1

> <ALOGPS_SOLUBILITY>
1.65e-03 g/l

> <JCHEM_TRADITIONAL_IUPAC>
(3E)-1-[(1S)-1-(4-fluorophenyl)ethyl]-3-{[3-methoxy-4-(4-methylimidazol-1-yl)phenyl]methylidene}piperidin-2-one

> <JCHEM_VEBER_RULE>
0

> <DRUGBANK_ID>
DB05171

> <DRUG_GROUPS>
investigational

> <GENERIC_NAME>
E-2012

$$$$
