
  Mrv1909 12112017252D          

 28 31  0  0  0  0            999 V2000
    6.1368    2.0625    0.0000 C   0  0  0  0  0  0  0  0  0  0  0  0
    5.4223    2.4750    0.0000 O   0  0  0  0  0  0  0  0  0  0  0  0
    4.7079    2.0625    0.0000 C   0  0  0  0  0  0  0  0  0  0  0  0
    5.1928    1.3951    0.0000 O   0  0  0  0  0  0  0  0  0  0  0  0
    3.9934    2.4750    0.0000 C   0  0  0  0  0  0  0  0  0  0  0  0
    3.2789    2.0625    0.0000 C   0  0  0  0  0  0  0  0  0  0  0  0
    2.5645    2.4750    0.0000 C   0  0  0  0  0  0  0  0  0  0  0  0
    2.5645    3.3000    0.0000 C   0  0  0  0  0  0  0  0  0  0  0  0
    1.7798    3.5549    0.0000 O   0  0  0  0  0  0  0  0  0  0  0  0
    1.2949    2.8875    0.0000 C   0  0  0  0  0  0  0  0  0  0  0  0
    1.7798    2.2201    0.0000 O   0  0  0  0  0  0  0  0  0  0  0  0
    3.2789    3.7125    0.0000 C   0  0  0  0  0  0  0  0  0  0  0  0
    3.2789    4.5375    0.0000 O   0  0  0  0  0  0  0  0  0  0  0  0
    3.9934    4.9500    0.0000 C   0  0  0  0  0  0  0  0  0  0  0  0
    3.9934    3.3000    0.0000 C   0  0  0  0  0  0  0  0  0  0  0  0
    3.2789    1.2375    0.0000 C   0  0  0  0  0  0  0  0  0  0  0  0
    3.9934    0.8250    0.0000 C   0  0  0  0  0  0  0  0  0  0  0  0
    4.7079    1.2375    0.0000 C   0  0  0  0  0  0  0  0  0  0  0  0
    5.4223    0.8250    0.0000 O   0  0  0  0  0  0  0  0  0  0  0  0
    3.9934    0.0000    0.0000 C   0  0  0  0  0  0  0  0  0  0  0  0
    3.2789   -0.4125    0.0000 C   0  0  0  0  0  0  0  0  0  0  0  0
    3.2789   -1.2375    0.0000 O   0  0  0  0  0  0  0  0  0  0  0  0
    3.9934   -1.6500    0.0000 C   0  0  0  0  0  0  0  0  0  0  0  0
    2.5645    0.0000    0.0000 C   0  0  0  0  0  0  0  0  0  0  0  0
    2.5645    0.8250    0.0000 C   0  0  0  0  0  0  0  0  0  0  0  0
    1.7798    1.0799    0.0000 O   0  0  0  0  0  0  0  0  0  0  0  0
    1.2949    0.4125    0.0000 C   0  0  0  0  0  0  0  0  0  0  0  0
    1.7798   -0.2549    0.0000 O   0  0  0  0  0  0  0  0  0  0  0  0
  1  2  1  0  0  0  0
  2  3  1  0  0  0  0
  3  4  2  0  0  0  0
  3  5  1  0  0  0  0
  5  6  2  0  0  0  0
  6  7  1  0  0  0  0
  7  8  2  0  0  0  0
  8  9  1  0  0  0  0
  9 10  1  0  0  0  0
 10 11  1  0  0  0  0
  7 11  1  0  0  0  0
  8 12  1  0  0  0  0
 12 13  1  0  0  0  0
 13 14  1  0  0  0  0
 12 15  2  0  0  0  0
  5 15  1  0  0  0  0
  6 16  1  0  0  0  0
 16 17  2  0  0  0  0
 17 18  1  0  0  0  0
 18 19  1  0  0  0  0
 17 20  1  0  0  0  0
 20 21  2  0  0  0  0
 21 22  1  0  0  0  0
 22 23  1  0  0  0  0
 21 24  1  0  0  0  0
 24 25  2  0  0  0  0
 16 25  1  0  0  0  0
 25 26  1  0  0  0  0
 26 27  1  0  0  0  0
 27 28  1  0  0  0  0
 24 28  1  0  0  0  0
M  END
> <DATABASE_ID>
DB16014

> <DATABASE_NAME>
drugbank

> <SMILES>
COC(=O)C1=C(C2=C(OCO2)C(OC)=C1)C1=C(CO)C=C(OC)C2=C1OCO2

> <INCHI_IDENTIFIER>
InChI=1S/C19H18O9/c1-22-11-4-9(6-20)13(17-15(11)25-7-27-17)14-10(19(21)24-3)5-12(23-2)16-18(14)28-8-26-16/h4-5,20H,6-8H2,1-3H3

> <INCHI_KEY>
KXMTXZACPVCDMH-UHFFFAOYSA-N

> <FORMULA>
C19H18O9

> <MOLECULAR_WEIGHT>
390.344

> <EXACT_MASS>
390.09508216

> <JCHEM_ACCEPTOR_COUNT>
8

> <JCHEM_ATOM_COUNT>
46

> <JCHEM_AVERAGE_NEUTRAL_MICROSPECIES_CHARGE>
0.0016597028899698176

> <JCHEM_AVERAGE_POLARIZABILITY>
38.0600065191512

> <JCHEM_BIOAVAILABILITY>
1

> <JCHEM_DONOR_COUNT>
1

> <JCHEM_FORMAL_CHARGE>
0

> <JCHEM_GHOSE_FILTER>
1

> <JCHEM_IUPAC>
methyl 4-[5-(hydroxymethyl)-7-methoxy-2H-1,3-benzodioxol-4-yl]-7-methoxy-2H-1,3-benzodioxole-5-carboxylate

> <ALOGPS_LOGP>
1.55

> <JCHEM_LOGP>
1.7877227786666663

> <ALOGPS_LOGS>
-3.16

> <JCHEM_MDDR_LIKE_RULE>
0

> <JCHEM_NEUTRAL_CHARGE>
0

> <JCHEM_NUMBER_OF_RINGS>
4

> <JCHEM_PHYSIOLOGICAL_CHARGE>
0

> <JCHEM_PKA_STRONGEST_ACIDIC>
15.028172113323585

> <JCHEM_PKA_STRONGEST_BASIC>
-2.7864775176322647

> <JCHEM_POLAR_SURFACE_AREA>
101.91000000000003

> <JCHEM_REFRACTIVITY>
94.49560000000002

> <JCHEM_ROTATABLE_BOND_COUNT>
5

> <JCHEM_RULE_OF_FIVE>
1

> <ALOGPS_SOLUBILITY>
2.71e-01 g/l

> <JCHEM_TRADITIONAL_IUPAC>
bicyclol

> <JCHEM_VEBER_RULE>
0

> <DRUGBANK_ID>
DB16014

> <DRUG_GROUPS>
investigational

> <GENERIC_NAME>
Bicyclol

> <SYNONYMS>
4,4'-bi-1,3-benzodioxole)-5-carboxylic acid, 5'-(hydroxymethyl)-7,7'-dimethoxy-, methyl ester

$$$$
