
  Mrv1652310211603042D          

 17 18  0  0  1  0            999 V2000
    2.0367    1.1759    0.0000 C   0  0  0  0  0  0  0  0  0  0  0  0
    2.0367    2.0009    0.0000 C   0  0  0  0  0  0  0  0  0  0  0  0
    2.7512    2.4134    0.0000 C   0  0  0  0  0  0  0  0  0  0  0  0
    2.7512    3.2384    0.0000 O   0  0  0  0  0  0  0  0  0  0  0  0
    3.4656    2.0009    0.0000 N   0  0  0  0  0  0  0  0  0  0  0  0
    3.4656    1.1759    0.0000 C   0  0  0  0  0  0  0  0  0  0  0  0
    4.1801    0.7634    0.0000 O   0  0  0  0  0  0  0  0  0  0  0  0
    2.7512    0.7634    0.0000 N   0  0  0  0  0  0  0  0  0  0  0  0
    2.7512   -0.0616    0.0000 C   0  0  1  0  0  0  0  0  0  0  0  0
    3.4186   -0.5465    0.0000 C   0  0  0  0  0  0  0  0  0  0  0  0
    3.1637   -1.3312    0.0000 C   0  0  1  0  0  0  0  0  0  0  0  0
    2.3387   -1.3312    0.0000 C   0  0  2  0  0  0  0  0  0  0  0  0
    2.0837   -0.5465    0.0000 O   0  0  0  0  0  0  0  0  0  0  0  0
    1.8538   -1.9986    0.0000 C   0  0  0  0  0  0  0  0  0  0  0  0
    2.1893   -2.7523    0.0000 O   0  0  0  0  0  0  0  0  0  0  0  0
    3.6486   -1.9986    0.0000 F   0  0  0  0  0  0  0  0  0  0  0  0
    1.3222    2.4134    0.0000 Cl  0  0  0  0  0  0  0  0  0  0  0  0
  1  2  2  0  0  0  0
  2  3  1  0  0  0  0
  3  4  2  0  0  0  0
  3  5  1  0  0  0  0
  5  6  1  0  0  0  0
  6  7  2  0  0  0  0
  6  8  1  0  0  0  0
  1  8  1  0  0  0  0
  9  8  1  1  0  0  0
  9 10  1  0  0  0  0
 10 11  1  0  0  0  0
 11 12  1  0  0  0  0
 12 13  1  0  0  0  0
  9 13  1  0  0  0  0
 12 14  1  1  0  0  0
 14 15  1  0  0  0  0
 11 16  1  6  0  0  0
  2 17  1  0  0  0  0
M  END
> <DATABASE_ID>
DB12894

> <DATABASE_NAME>
drugbank

> <SMILES>
OC[C@H]1O[C@H](C[C@@H]1F)N1C=C(Cl)C(=O)NC1=O

> <INCHI_IDENTIFIER>
InChI=1S/C9H10ClFN2O4/c10-4-2-13(9(16)12-8(4)15)7-1-5(11)6(3-14)17-7/h2,5-7,14H,1,3H2,(H,12,15,16)/t5-,6+,7+/m0/s1

> <INCHI_KEY>
WKVDSZYIGHLONN-RRKCRQDMSA-N

> <FORMULA>
C9H10ClFN2O4

> <MOLECULAR_WEIGHT>
264.64

> <EXACT_MASS>
264.0313127

> <JCHEM_ACCEPTOR_COUNT>
4

> <JCHEM_ATOM_COUNT>
27

> <JCHEM_AVERAGE_POLARIZABILITY>
22.324357333248194

> <JCHEM_BIOAVAILABILITY>
1

> <JCHEM_DONOR_COUNT>
2

> <JCHEM_FORMAL_CHARGE>
0

> <JCHEM_GHOSE_FILTER>
1

> <JCHEM_IUPAC>
5-chloro-1-[(2R,4S,5R)-4-fluoro-5-(hydroxymethyl)oxolan-2-yl]-1,2,3,4-tetrahydropyrimidine-2,4-dione

> <ALOGPS_LOGP>
-0.18

> <JCHEM_LOGP>
0.037273345333333624

> <ALOGPS_LOGS>
-0.94

> <JCHEM_MDDR_LIKE_RULE>
0

> <JCHEM_NUMBER_OF_RINGS>
2

> <JCHEM_PHYSIOLOGICAL_CHARGE>
0

> <JCHEM_PKA>
14.578883670936584

> <JCHEM_PKA_STRONGEST_ACIDIC>
8.421989468534807

> <JCHEM_PKA_STRONGEST_BASIC>
-2.9834995151557377

> <JCHEM_POLAR_SURFACE_AREA>
78.87

> <JCHEM_REFRACTIVITY>
54.15410000000001

> <JCHEM_ROTATABLE_BOND_COUNT>
2

> <JCHEM_RULE_OF_FIVE>
1

> <ALOGPS_SOLUBILITY>
3.03e+01 g/l

> <JCHEM_TRADITIONAL_IUPAC>
5-chloro-1-[(2R,4S,5R)-4-fluoro-5-(hydroxymethyl)oxolan-2-yl]-3H-pyrimidine-2,4-dione

> <JCHEM_VEBER_RULE>
0

> <DRUGBANK_ID>
DB12894

> <DRUG_GROUPS>
investigational

> <GENERIC_NAME>
Raluridine

> <SYNONYMS>
Raluridine

$$$$
