
  Mrv1572004221605222D          

 26 29  0  0  0  0            999 V2000
    3.5724   -0.4125    0.0000 C   0  0  0  0  0  0  0  0  0  0  0  0
    2.1434   -0.4125    0.0000 C   0  0  0  0  0  0  0  0  0  0  0  0
    1.4289    0.0000    0.0000 C   0  0  0  0  0  0  0  0  0  0  0  0
   -0.7145   -0.4125    0.0000 C   0  0  0  0  0  0  0  0  0  0  0  0
   -1.4289    0.8250    0.0000 C   0  0  0  0  0  0  0  0  0  0  0  0
    0.0000   -0.0000    0.0000 C   0  0  0  0  0  0  0  0  0  0  0  0
   -0.7145    1.2375    0.0000 C   0  0  0  0  0  0  0  0  0  0  0  0
    1.4289    2.4750    0.0000 C   0  0  0  0  0  0  0  0  0  0  0  0
    3.5724    1.2375    0.0000 C   0  0  0  0  0  0  0  0  0  0  0  0
    2.8579    0.0000    0.0000 C   0  0  0  0  0  0  0  0  0  0  0  0
   -1.4289   -0.0000    0.0000 C   0  0  0  0  0  0  0  0  0  0  0  0
    1.4289    0.8250    0.0000 C   0  0  0  0  0  0  0  0  0  0  0  0
    2.1434    2.0625    0.0000 C   0  0  0  0  0  0  0  0  0  0  0  0
    3.5724    2.0625    0.0000 C   0  0  0  0  0  0  0  0  0  0  0  0
    0.7145    2.0625    0.0000 C   0  0  0  0  0  0  0  0  0  0  0  0
    2.1434    1.2375    0.0000 C   0  0  0  0  0  0  0  0  0  0  0  0
    0.7145    1.2375    0.0000 C   0  0  0  0  0  0  0  0  0  0  0  0
    2.8579    2.4750    0.0000 C   0  0  0  0  0  0  0  0  0  0  0  0
    4.2868    2.4750    0.0000 C   0  0  0  0  0  0  0  0  0  0  0  0
   -0.0000    2.4750    0.0000 F   0  0  0  0  0  0  0  0  0  0  0  0
    0.0000    0.8250    0.0000 N   0  0  0  0  0  0  0  0  0  0  0  0
    2.8579    0.8250    0.0000 N   0  0  0  0  0  0  0  0  0  0  0  0
   -2.1434   -0.4125    0.0000 O   0  0  0  0  0  0  0  0  0  0  0  0
    2.8579    3.3000    0.0000 O   0  0  0  0  0  0  0  0  0  0  0  0
    4.2868    3.3000    0.0000 O   0  0  0  0  0  0  0  0  0  0  0  0
    5.0013    2.0625    0.0000 O   0  0  0  0  0  0  0  0  0  0  0  0
  3  2  1  0  0  0  0
  6  4  1  0  0  0  0
  7  5  1  0  0  0  0
 10  1  1  0  0  0  0
 10  2  1  0  0  0  0
 11  4  1  0  0  0  0
 11  5  1  0  0  0  0
 12  3  1  0  0  0  0
 13  8  2  0  0  0  0
 14  9  2  0  0  0  0
 15  8  1  0  0  0  0
 16 12  2  0  0  0  0
 16 13  1  0  0  0  0
 17 12  1  0  0  0  0
 17 15  2  0  0  0  0
 18 13  1  0  0  0  0
 18 14  1  0  0  0  0
 19 14  1  0  0  0  0
 20 15  1  0  0  0  0
 21  6  1  0  0  0  0
 21  7  1  0  0  0  0
 21 17  1  0  0  0  0
 22  9  1  0  0  0  0
 22 10  1  0  0  0  0
 22 16  1  0  0  0  0
 23 11  1  0  0  0  0
 24 18  2  0  0  0  0
 25 19  2  0  0  0  0
 26 19  1  0  0  0  0
M  END
> <DATABASE_ID>
DB12447

> <DATABASE_NAME>
drugbank

> <SMILES>
CC1CCC2=C3N1C=C(C(O)=O)C(=O)C3=CC(F)=C2N1CCC(O)CC1

> <INCHI_IDENTIFIER>
InChI=1S/C19H21FN2O4/c1-10-2-3-12-16-13(18(24)14(19(25)26)9-22(10)16)8-15(20)17(12)21-6-4-11(23)5-7-21/h8-11,23H,2-7H2,1H3,(H,25,26)

> <INCHI_KEY>
JYJTVFIEFKZWCJ-UHFFFAOYSA-N

> <FORMULA>
C19H21FN2O4

> <MOLECULAR_WEIGHT>
360.385

> <EXACT_MASS>
360.148535327

> <JCHEM_ACCEPTOR_COUNT>
6

> <JCHEM_ATOM_COUNT>
47

> <JCHEM_AVERAGE_POLARIZABILITY>
36.52528392499897

> <JCHEM_BIOAVAILABILITY>
1

> <JCHEM_DONOR_COUNT>
2

> <JCHEM_FORMAL_CHARGE>
0

> <JCHEM_GHOSE_FILTER>
1

> <JCHEM_IUPAC>
7-fluoro-8-(4-hydroxypiperidin-1-yl)-12-methyl-4-oxo-1-azatricyclo[7.3.1.0⁵,¹³]trideca-2,5,7,9(13)-tetraene-3-carboxylic acid

> <ALOGPS_LOGP>
0.87

> <JCHEM_LOGP>
1.8429430223333325

> <ALOGPS_LOGS>
-2.76

> <JCHEM_MDDR_LIKE_RULE>
0

> <JCHEM_NUMBER_OF_RINGS>
4

> <JCHEM_PHYSIOLOGICAL_CHARGE>
-1

> <JCHEM_PKA>
15.177857879200793

> <JCHEM_PKA_STRONGEST_ACIDIC>
6.131530038213894

> <JCHEM_PKA_STRONGEST_BASIC>
0.44412074352989206

> <JCHEM_POLAR_SURFACE_AREA>
81.08

> <JCHEM_REFRACTIVITY>
96.02649999999996

> <JCHEM_ROTATABLE_BOND_COUNT>
2

> <JCHEM_RULE_OF_FIVE>
1

> <ALOGPS_SOLUBILITY>
6.32e-01 g/l

> <JCHEM_TRADITIONAL_IUPAC>
nadifloxacin

> <JCHEM_VEBER_RULE>
0

> <DRUGBANK_ID>
DB12447

> <DRUG_GROUPS>
investigational

> <GENERIC_NAME>
Nadifloxacin

> <SYNONYMS>
Nadifloxacin; Nadifloxacino

$$$$
