
  Mrv1718009011815342D          

 38 41  0  0  1  0            999 V2000
    9.1390    1.2383    0.0000 C   0  0  0  0  0  0  0  0  0  0  0  0
   -0.5056   -2.0108    0.0000 C   0  0  0  0  0  0  0  0  0  0  0  0
    0.0469    2.9205    0.0000 C   0  0  0  0  0  0  0  0  0  0  0  0
    2.0307    1.7357    0.0000 C   0  0  0  0  0  0  0  0  0  0  0  0
    8.6072    0.6076    0.0000 C   0  0  0  0  0  0  0  0  0  0  0  0
   -0.3604   -1.1987    0.0000 C   0  0  0  0  0  0  0  0  0  0  0  0
   -0.2640    2.1564    0.0000 C   0  0  0  0  0  0  0  0  0  0  0  0
    4.5754   -0.8489    0.0000 C   0  0  0  0  0  0  0  0  0  0  0  0
    6.1708    1.0432    0.0000 C   0  0  0  0  0  0  0  0  0  0  0  0
    3.7633   -0.7037    0.0000 C   0  0  0  0  0  0  0  0  0  0  0  0
    5.3587    1.1884    0.0000 C   0  0  0  0  0  0  0  0  0  0  0  0
    3.7345    1.4789    0.0000 C   0  0  0  0  0  0  0  0  0  0  0  0
    2.9224    1.6241    0.0000 C   0  0  0  0  0  0  0  0  0  0  0  0
    5.9193   -0.3634    0.0000 C   0  0  0  0  0  0  0  0  0  0  0  0
    2.0195   -0.2889    0.0000 C   0  0  0  0  0  0  0  0  0  0  0  0
    5.1072   -0.2182    0.0000 C   0  0  0  0  0  0  0  0  0  0  0  0
    6.4511    0.2673    0.0000 C   0  0  0  0  0  0  0  0  0  0  0  0
    4.8269    0.5577    0.0000 C   0  0  0  0  0  0  0  0  0  0  0  0
    4.0148    0.7029    0.0000 C   0  0  2  0  0  0  0  0  0  0  0  0
    3.4830    0.0722    0.0000 C   0  0  2  0  0  0  0  0  0  0  0  0
    2.6708    0.2174    0.0000 C   0  0  1  0  0  0  0  0  0  0  0  0
    1.3367    0.1741    0.0000 C   0  0  2  0  0  0  0  0  0  0  0  0
    7.7951    0.7528    0.0000 C   0  0  0  0  0  0  0  0  0  0  0  0
    0.4155   -0.9184    0.0000 C   0  0  0  0  0  0  0  0  0  0  0  0
    0.2424    1.5050    0.0000 C   0  0  0  0  0  0  0  0  0  0  0  0
    1.5660    0.9666    0.0000 C   0  0  1  0  0  0  0  0  0  0  0  0
    2.3905    0.9934    0.0000 C   0  0  2  0  0  0  0  0  0  0  0  0
    7.5148    1.5287    0.0000 O   0  0  0  0  0  0  0  0  0  0  0  0
    1.0462   -1.4502    0.0000 O   0  0  0  0  0  0  0  0  0  0  0  0
   -0.0685    0.7409    0.0000 O   0  0  0  0  0  0  0  0  0  0  0  0
    7.2632    0.1221    0.0000 O   0  0  0  0  0  0  0  0  0  0  0  0
    0.5607   -0.1062    0.0000 O   0  0  0  0  0  0  0  0  0  0  0  0
    1.0596    1.6179    0.0000 O   0  0  0  0  0  0  0  0  0  0  0  0
    4.5466    1.3336    0.0000 H   0  0  0  0  0  0  0  0  0  0  0  0
    3.1989   -0.7023    0.0000 H   0  0  0  0  0  0  0  0  0  0  0  0
    2.5826   -0.6028    0.0000 H   0  0  0  0  0  0  0  0  0  0  0  0
    1.2341   -0.6445    0.0000 H   0  0  0  0  0  0  0  0  0  0  0  0
    0.7557    0.8111    0.0000 H   0  0  0  0  0  0  0  0  0  0  0  0
  5  1  1  0  0  0  0
  6  2  1  0  0  0  0
  7  3  1  0  0  0  0
 10  8  1  0  0  0  0
 11  9  1  0  0  0  0
 13 12  1  0  0  0  0
 16  8  1  0  0  0  0
 16 14  2  0  0  0  0
 17  9  2  0  0  0  0
 17 14  1  0  0  0  0
 18 11  2  0  0  0  0
 18 16  1  0  0  0  0
 19 12  1  0  0  0  0
 19 18  1  0  0  0  0
 20 10  1  0  0  0  0
 20 19  1  0  0  0  0
 21 15  1  0  0  0  0
 21 20  1  0  0  0  0
 22 15  1  0  0  0  0
 23  5  1  0  0  0  0
 24  6  1  0  0  0  0
 25  7  1  0  0  0  0
 26 22  1  0  0  0  0
 27  4  1  6  0  0  0
 27 13  1  0  0  0  0
 27 21  1  0  0  0  0
 27 26  1  0  0  0  0
 28 23  2  0  0  0  0
 29 24  2  0  0  0  0
 30 25  2  0  0  0  0
 31 17  1  0  0  0  0
 31 23  1  0  0  0  0
 22 32  1  1  0  0  0
 32 24  1  0  0  0  0
 33 25  1  0  0  0  0
 26 33  1  6  0  0  0
 19 34  1  1  0  0  0
 20 35  1  6  0  0  0
 21 36  1  1  0  0  0
 22 37  1  6  0  0  0
 26 38  1  1  0  0  0
M  END
> <DATABASE_ID>
DB14641

> <DATABASE_NAME>
drugbank

> <SMILES>
[H][C@]1(C[C@@]2([H])[C@]3([H])CCC4=CC(OC(=O)CC)=CC=C4[C@@]3([H])CC[C@]2(C)[C@@]1([H])OC(=O)CC)OC(=O)CC

> <INCHI_IDENTIFIER>
InChI=1S/C27H36O6/c1-5-23(28)31-17-9-11-18-16(14-17)8-10-20-19(18)12-13-27(4)21(20)15-22(32-24(29)6-2)26(27)33-25(30)7-3/h9,11,14,19-22,26H,5-8,10,12-13,15H2,1-4H3/t19-,20-,21+,22-,26+,27+/m1/s1

> <INCHI_KEY>
ONMZMZJEZHMWQL-REUUDLSRSA-N

> <FORMULA>
C27H36O6

> <MOLECULAR_WEIGHT>
456.5711

> <EXACT_MASS>
456.251188884

> <JCHEM_ACCEPTOR_COUNT>
3

> <JCHEM_ATOM_COUNT>
69

> <JCHEM_AVERAGE_POLARIZABILITY>
52.331887167746984

> <JCHEM_BIOAVAILABILITY>
1

> <JCHEM_DONOR_COUNT>
0

> <JCHEM_FORMAL_CHARGE>
0

> <JCHEM_GHOSE_FILTER>
1

> <JCHEM_IUPAC>
(1R,2R,3aS,3bR,9bS,11aS)-11a-methyl-1,7-bis(propanoyloxy)-1H,2H,3H,3aH,3bH,4H,5H,9bH,10H,11H,11aH-cyclopenta[a]phenanthren-2-yl propanoate

> <ALOGPS_LOGP>
5.52

> <JCHEM_LOGP>
5.565282379000001

> <ALOGPS_LOGS>
-6.02

> <JCHEM_MDDR_LIKE_RULE>
1

> <JCHEM_NUMBER_OF_RINGS>
4

> <JCHEM_PHYSIOLOGICAL_CHARGE>
0

> <JCHEM_PKA_STRONGEST_BASIC>
-6.607518138670807

> <JCHEM_POLAR_SURFACE_AREA>
78.9

> <JCHEM_REFRACTIVITY>
122.60139999999994

> <JCHEM_ROTATABLE_BOND_COUNT>
9

> <JCHEM_RULE_OF_FIVE>
0

> <ALOGPS_SOLUBILITY>
4.38e-04 g/l

> <JCHEM_TRADITIONAL_IUPAC>
(1R,2R,3aS,3bR,9bS,11aS)-11a-methyl-1,7-bis(propanoyloxy)-1H,2H,3H,3aH,3bH,4H,5H,9bH,10H,11H-cyclopenta[a]phenanthren-2-yl propanoate

> <JCHEM_VEBER_RULE>
0

> <DRUGBANK_ID>
DB14641

> <SECONDARY_ACCESSION_NUMBERS>
DBSALT000069

> <DRUG_GROUPS>
experimental

> <GENERIC_NAME>
Estriol tripropionate

> <SYNONYMS>
Estriol propionate; Estriol, tripropionate

$$$$
