
  Mrv1909 02232018252D          

 33 35  0  0  0  0            999 V2000
   -2.1409   -1.2375    0.0000 C   0  0  0  0  0  0  0  0  0  0  0  0
   -2.8587   -1.6500    0.0000 C   0  0  0  0  0  0  0  0  0  0  0  0
   -2.8587   -2.4749    0.0000 C   0  0  0  0  0  0  0  0  0  0  0  0
   -2.1409   -2.8875    0.0000 C   0  0  0  0  0  0  0  0  0  0  0  0
   -1.4313   -1.6500    0.0000 C   0  0  0  0  0  0  0  0  0  0  0  0
   -1.4313   -2.4749    0.0000 C   0  0  0  0  0  0  0  0  0  0  0  0
   -0.7136   -2.8875    0.0000 C   0  0  0  0  0  0  0  0  0  0  0  0
   -0.0040   -2.4749    0.0000 C   0  0  0  0  0  0  0  0  0  0  0  0
   -0.0040   -1.6500    0.0000 C   0  0  0  0  0  0  0  0  0  0  0  0
   -0.7136   -1.2375    0.0000 O   0  0  0  0  0  0  0  0  0  0  0  0
    0.7136   -1.2375    0.0000 O   0  0  0  0  0  0  0  0  0  0  0  0
   -0.7136   -3.7125    0.0000 O   0  0  0  0  0  0  0  0  0  0  0  0
    0.7136   -2.8875    0.0000 C   0  0  1  0  0  0  0  0  0  0  0  0
    0.7136   -3.7125    0.0000 C   0  0  0  0  0  0  0  0  0  0  0  0
    1.4313   -4.1251    0.0000 C   0  0  0  0  0  0  0  0  0  0  0  0
    1.4313   -2.4749    0.0000 C   0  0  0  0  0  0  0  0  0  0  0  0
    2.1409   -1.2375    0.0000 C   0  0  0  0  0  0  0  0  0  0  0  0
    1.4313   -1.6500    0.0000 C   0  0  0  0  0  0  0  0  0  0  0  0
    2.1409   -2.8875    0.0000 C   0  0  0  0  0  0  0  0  0  0  0  0
    2.8587   -2.4749    0.0000 C   0  0  0  0  0  0  0  0  0  0  0  0
    2.8587   -1.6500    0.0000 C   0  0  0  0  0  0  0  0  0  0  0  0
    2.1409   -0.4125    0.0000 N   0  0  0  0  0  0  0  0  0  0  0  0
    1.4313    0.0000    0.0000 C   0  0  0  0  0  0  0  0  0  0  0  0
    0.7136   -0.4125    0.0000 O   0  0  0  0  0  0  0  0  0  0  0  0
    1.4313    0.8249    0.0000 C   0  0  0  0  0  0  0  0  0  0  0  0
    0.7136    1.2375    0.0000 N   0  0  0  0  0  0  0  0  0  0  0  0
    0.7136    2.0624    0.0000 C   0  0  0  0  0  0  0  0  0  0  0  0
    1.4313    2.4749    0.0000 O   0  0  0  0  0  0  0  0  0  0  0  0
   -0.0040    2.4749    0.0000 O   0  0  0  0  0  0  0  0  0  0  0  0
   -0.0040    3.3000    0.0000 C   0  0  0  0  0  0  0  0  0  0  0  0
   -0.0040    4.1251    0.0000 C   0  0  0  0  0  0  0  0  0  0  0  0
   -0.8291    3.3000    0.0000 C   0  0  0  0  0  0  0  0  0  0  0  0
    0.8208    3.3000    0.0000 C   0  0  0  0  0  0  0  0  0  0  0  0
  1  2  1  0  0  0  0
  1  5  2  0  0  0  0
  2  3  2  0  0  0  0
  3  4  1  0  0  0  0
  4  6  2  0  0  0  0
  5 10  1  0  0  0  0
  5  6  1  0  0  0  0
  6  7  1  0  0  0  0
  7  8  2  0  0  0  0
  7 12  1  0  0  0  0
  8  9  1  0  0  0  0
  8 13  1  0  0  0  0
  9 10  1  0  0  0  0
  9 11  2  0  0  0  0
 13 16  1  0  0  0  0
 13 14  1  6  0  0  0
 14 15  1  0  0  0  0
 16 18  2  0  0  0  0
 16 19  1  0  0  0  0
 17 18  1  0  0  0  0
 17 21  2  0  0  0  0
 17 22  1  0  0  0  0
 19 20  2  0  0  0  0
 20 21  1  0  0  0  0
 22 23  1  0  0  0  0
 23 25  1  0  0  0  0
 23 24  2  0  0  0  0
 25 26  1  0  0  0  0
 26 27  1  0  0  0  0
 27 29  1  0  0  0  0
 27 28  2  0  0  0  0
 29 30  1  0  0  0  0
 30 31  1  0  0  0  0
 30 32  1  0  0  0  0
 30 33  1  0  0  0  0
M  END
> <DATABASE_ID>
DB08664

> <DATABASE_NAME>
drugbank

> <SMILES>
CC[C@@H](C1=CC(NC(=O)CNC(=O)OC(C)(C)C)=CC=C1)C1=C(O)C2=CC=CC=C2OC1=O

> <INCHI_IDENTIFIER>
InChI=1S/C25H28N2O6/c1-5-17(21-22(29)18-11-6-7-12-19(18)32-23(21)30)15-9-8-10-16(13-15)27-20(28)14-26-24(31)33-25(2,3)4/h6-13,17,29H,5,14H2,1-4H3,(H,26,31)(H,27,28)/t17-/m0/s1

> <INCHI_KEY>
QUQQVMVIWCUYFV-KRWDZBQOSA-N

> <FORMULA>
C25H28N2O6

> <MOLECULAR_WEIGHT>
452.4996

> <EXACT_MASS>
452.194736638

> <JCHEM_ACCEPTOR_COUNT>
4

> <JCHEM_ATOM_COUNT>
61

> <JCHEM_AVERAGE_NEUTRAL_MICROSPECIES_CHARGE>
-3.2687408183344698e-06

> <JCHEM_AVERAGE_POLARIZABILITY>
48.445131515249585

> <JCHEM_BIOAVAILABILITY>
1

> <JCHEM_DONOR_COUNT>
3

> <JCHEM_FORMAL_CHARGE>
0

> <JCHEM_GHOSE_FILTER>
1

> <JCHEM_IUPAC>
tert-butyl N-[({3-[(1S)-1-(4-hydroxy-2-oxo-2H-chromen-3-yl)propyl]phenyl}carbamoyl)methyl]carbamate

> <ALOGPS_LOGP>
3.59

> <JCHEM_LOGP>
3.5410015159999997

> <ALOGPS_LOGS>
-4.99

> <JCHEM_MDDR_LIKE_RULE>
1

> <JCHEM_NEUTRAL_CHARGE>
-1

> <JCHEM_NUMBER_OF_RINGS>
3

> <JCHEM_PHYSIOLOGICAL_CHARGE>
-1

> <JCHEM_PKA>
13.121141893473286

> <JCHEM_PKA_STRONGEST_ACIDIC>
5.485618095086583

> <JCHEM_PKA_STRONGEST_BASIC>
-6.7356349674909035

> <JCHEM_POLAR_SURFACE_AREA>
113.96

> <JCHEM_REFRACTIVITY>
124.73930000000001

> <JCHEM_ROTATABLE_BOND_COUNT>
8

> <JCHEM_RULE_OF_FIVE>
1

> <ALOGPS_SOLUBILITY>
4.64e-03 g/l

> <JCHEM_TRADITIONAL_IUPAC>
tert-butyl N-[({3-[(1S)-1-(4-hydroxy-2-oxochromen-3-yl)propyl]phenyl}carbamoyl)methyl]carbamate

> <JCHEM_VEBER_RULE>
0

> <DRUGBANK_ID>
DB08664

> <DRUG_GROUPS>
experimental

> <GENERIC_NAME>
({3-[1-(4-Hydroxy-2-oxo-2H-chromen-3-yl)-propyl]-phenylcarbamoyl}-methyl)-carbamic acid tert-butyl ester

> <SYNONYMS>
tert-butyl N-[({3-[(1S)-1-(4-hydroxy-2-oxo-2H-chromen-3-yl)propyl]phenyl}carbamoyl)methyl]carbamate

$$$$
