
  Mrv1652306031607032D          

 31 34  0  0  1  0            999 V2000
    7.9362   -1.3437    0.0000 C   0  0  0  0  0  0  0  0  0  0  0  0
    3.9503    0.0961    0.0000 C   0  0  0  0  0  0  0  0  0  0  0  0
    6.4662    0.4982    0.0000 C   0  0  0  0  0  0  0  0  0  0  0  0
    3.9215   -2.0864    0.0000 C   0  0  0  0  0  0  0  0  0  0  0  0
    4.7336   -1.9412    0.0000 C   0  0  0  0  0  0  0  0  0  0  0  0
    2.3261   -0.1943    0.0000 C   0  0  0  0  0  0  0  0  0  0  0  0
    3.1382   -0.0491    0.0000 C   0  0  0  0  0  0  0  0  0  0  0  0
    6.4774   -1.5264    0.0000 C   0  0  0  0  0  0  0  0  0  0  0  0
    2.5776   -1.6009    0.0000 C   0  0  0  0  0  0  0  0  0  0  0  0
    5.5745    0.3866    0.0000 C   0  0  0  0  0  0  0  0  0  0  0  0
    8.0233    0.6502    0.0000 C   0  0  0  0  0  0  0  0  0  0  0  0
    7.1602   -1.0634    0.0000 C   0  0  1  0  0  0  0  0  0  0  0  0
    3.3897   -1.4557    0.0000 C   0  0  0  0  0  0  0  0  0  0  0  0
    2.0458   -0.9702    0.0000 C   0  0  0  0  0  0  0  0  0  0  0  0
    5.0139   -1.1653    0.0000 C   0  0  1  0  0  0  0  0  0  0  0  0
    5.8261   -1.0201    0.0000 C   0  0  1  0  0  0  0  0  0  0  0  0
    4.7624    0.2414    0.0000 C   0  0  0  0  0  0  0  0  0  0  0  0
    7.7430   -0.1257    0.0000 C   0  0  0  0  0  0  0  0  0  0  0  0
    3.6700   -0.6798    0.0000 C   0  0  2  0  0  0  0  0  0  0  0  0
    6.1064   -0.2441    0.0000 C   0  0  2  0  0  0  0  0  0  0  0  0
    4.4821   -0.5346    0.0000 C   0  0  2  0  0  0  0  0  0  0  0  0
    6.9309   -0.2709    0.0000 C   0  0  2  0  0  0  0  0  0  0  0  0
    7.4915    1.2809    0.0000 Cl  0  0  0  0  0  0  0  0  0  0  0  0
    4.4226    0.2883    0.0000 F   0  0  0  0  0  0  0  0  0  0  0  0
    1.2336   -1.1154    0.0000 O   0  0  0  0  0  0  0  0  0  0  0  0
    4.2306    0.8721    0.0000 O   0  0  0  0  0  0  0  0  0  0  0  0
    8.2749   -0.7564    0.0000 O   0  0  0  0  0  0  0  0  0  0  0  0
    6.8714    0.5519    0.0000 O   0  0  0  0  0  0  0  0  0  0  0  0
    7.7622   -0.4993    0.0000 H   0  0  0  0  0  0  0  0  0  0  0  0
    5.5458   -1.7960    0.0000 H   0  0  0  0  0  0  0  0  0  0  0  0
    5.2942   -0.3894    0.0000 H   0  0  0  0  0  0  0  0  0  0  0  0
  5  4  1  0  0  0  0
  7  6  2  0  0  0  0
 12  1  1  1  0  0  0
 12  8  1  0  0  0  0
 13  4  1  0  0  0  0
 13  9  2  0  0  0  0
 14  6  1  0  0  0  0
 14  9  1  0  0  0  0
 15  5  1  0  0  0  0
 16  8  1  0  0  0  0
 16 15  1  0  0  0  0
 17 10  1  0  0  0  0
 18 11  1  0  0  0  0
 19  2  1  1  0  0  0
 19  7  1  0  0  0  0
 19 13  1  0  0  0  0
 20  3  1  1  0  0  0
 20 10  1  0  0  0  0
 20 16  1  0  0  0  0
 21 15  1  0  0  0  0
 21 17  1  0  0  0  0
 21 19  1  0  0  0  0
 22 12  1  0  0  0  0
 22 18  1  1  0  0  0
 22 20  1  0  0  0  0
 23 11  1  0  0  0  0
 21 24  1  6  0  0  0
 25 14  2  0  0  0  0
 26 17  2  0  0  0  0
 27 18  2  0  0  0  0
 22 28  1  6  0  0  0
 12 29  1  6  0  0  0
 15 30  1  1  0  0  0
 16 31  1  6  0  0  0
M  END
> <DATABASE_ID>
DB13158

> <DATABASE_NAME>
drugbank

> <SMILES>
[H][C@]1(C)C[C@@]2([H])[C@]3([H])CCC4=CC(=O)C=C[C@]4(C)[C@@]3(F)C(=O)C[C@]2(C)[C@@]1(O)C(=O)CCl

> <INCHI_IDENTIFIER>
InChI=1S/C22H26ClFO4/c1-12-8-16-15-5-4-13-9-14(25)6-7-19(13,2)21(15,24)17(26)10-20(16,3)22(12,28)18(27)11-23/h6-7,9,12,15-16,28H,4-5,8,10-11H2,1-3H3/t12-,15-,16-,19-,20-,21-,22-/m0/s1

> <INCHI_KEY>
XXIFVOHLGBURIG-OZCCCYNHSA-N

> <FORMULA>
C22H26ClFO4

> <MOLECULAR_WEIGHT>
408.89

> <EXACT_MASS>
408.1503652

> <JCHEM_ACCEPTOR_COUNT>
4

> <JCHEM_ATOM_COUNT>
54

> <JCHEM_AVERAGE_POLARIZABILITY>
41.36182922713204

> <JCHEM_BIOAVAILABILITY>
1

> <JCHEM_DONOR_COUNT>
1

> <JCHEM_FORMAL_CHARGE>
0

> <JCHEM_GHOSE_FILTER>
1

> <JCHEM_IUPAC>
(1R,2S,10S,11S,13S,14R,15S)-14-(2-chloroacetyl)-1-fluoro-14-hydroxy-2,13,15-trimethyltetracyclo[8.7.0.0^{2,7}.0^{11,15}]heptadeca-3,6-diene-5,17-dione

> <ALOGPS_LOGP>
2.88

> <JCHEM_LOGP>
3.599689241333333

> <ALOGPS_LOGS>
-4.77

> <JCHEM_MDDR_LIKE_RULE>
0

> <JCHEM_NUMBER_OF_RINGS>
4

> <JCHEM_PHYSIOLOGICAL_CHARGE>
0

> <JCHEM_PKA>
14.897540279605739

> <JCHEM_PKA_STRONGEST_ACIDIC>
12.486836352338791

> <JCHEM_PKA_STRONGEST_BASIC>
-3.8950005487266823

> <JCHEM_POLAR_SURFACE_AREA>
71.44

> <JCHEM_REFRACTIVITY>
104.72159999999997

> <JCHEM_ROTATABLE_BOND_COUNT>
2

> <JCHEM_RULE_OF_FIVE>
1

> <ALOGPS_SOLUBILITY>
6.91e-03 g/l

> <JCHEM_TRADITIONAL_IUPAC>
(1R,2S,10S,11S,13S,14R,15S)-14-(2-chloroacetyl)-1-fluoro-14-hydroxy-2,13,15-trimethyltetracyclo[8.7.0.0^{2,7}.0^{11,15}]heptadeca-3,6-diene-5,17-dione

> <JCHEM_VEBER_RULE>
0

> <DRUGBANK_ID>
DB13158

> <DRUG_GROUPS>
approved

> <GENERIC_NAME>
Clobetasone

> <SYNONYMS>
Clobetasona; Clobetasone

> <PRODUCTS>
Eumovate; Eumovate Crm 0.05%; Eumovate Ont 0.05%; Spectro Eczemacare Medicated Cream

> <INTERNATIONAL_BRANDS>
Eumosone

> <SALTS>
Clobetasone butyrate

$$$$
