
  Mrv1909 05201914332D          

 32 34  0  0  0  0            999 V2000
   -3.4914   -4.1763    0.0000 C   0  0  0  0  0  0  0  0  0  0  0  0
   -3.9039   -3.4618    0.0000 O   0  0  0  0  0  0  0  0  0  0  0  0
   -3.4914   -2.7474    0.0000 C   0  0  0  0  0  0  0  0  0  0  0  0
   -3.9039   -2.0329    0.0000 C   0  0  0  0  0  0  0  0  0  0  0  0
   -4.7289   -2.0329    0.0000 O   0  0  0  0  0  0  0  0  0  0  0  0
   -5.1414   -1.3184    0.0000 C   0  0  0  0  0  0  0  0  0  0  0  0
   -3.4914   -1.3184    0.0000 C   0  0  0  0  0  0  0  0  0  0  0  0
   -2.6664   -1.3184    0.0000 C   0  0  0  0  0  0  0  0  0  0  0  0
   -2.2539   -0.6039    0.0000 C   0  0  0  0  0  0  0  0  0  0  0  0
   -1.4289   -0.6039    0.0000 N   0  0  0  0  0  0  0  0  0  0  0  0
   -1.0164    0.1105    0.0000 C   0  0  0  0  0  0  0  0  0  0  0  0
   -1.4289    0.8250    0.0000 C   0  0  0  0  0  0  0  0  0  0  0  0
   -1.0164    1.5395    0.0000 C   0  0  0  0  0  0  0  0  0  0  0  0
   -0.1914    1.5395    0.0000 C   0  0  0  0  0  0  0  0  0  0  0  0
    0.2211    0.8250    0.0000 N   0  0  0  0  0  0  0  0  0  0  0  0
    1.0461    0.8250    0.0000 C   0  0  0  0  0  0  0  0  0  0  0  0
    1.4586    1.5395    0.0000 O   0  0  0  0  0  0  0  0  0  0  0  0
    1.4586    0.1105    0.0000 C   0  0  0  0  0  0  0  0  0  0  0  0
    2.2836    0.1105    0.0000 C   0  0  0  0  0  0  0  0  0  0  0  0
    2.6961    0.8250    0.0000 O   0  0  0  0  0  0  0  0  0  0  0  0
    2.2836    1.5395    0.0000 C   0  0  0  0  0  0  0  0  0  0  0  0
    2.6961    2.2539    0.0000 C   0  0  0  0  0  0  0  0  0  0  0  0
    3.5211    2.2539    0.0000 F   0  0  0  0  0  0  0  0  0  0  0  0
    2.6961   -0.6039    0.0000 C   0  0  0  0  0  0  0  0  0  0  0  0
    2.2836   -1.3184    0.0000 C   0  0  0  0  0  0  0  0  0  0  0  0
    1.4586   -1.3184    0.0000 C   0  0  0  0  0  0  0  0  0  0  0  0
    1.0461   -2.0329    0.0000 C   0  0  0  0  0  0  0  0  0  0  0  0
    1.0461   -0.6039    0.0000 C   0  0  0  0  0  0  0  0  0  0  0  0
   -1.0164   -1.3184    0.0000 C   0  0  0  0  0  0  0  0  0  0  0  0
   -1.4289   -2.0329    0.0000 C   0  0  0  0  0  0  0  0  0  0  0  0
   -2.2539   -2.0329    0.0000 C   0  0  0  0  0  0  0  0  0  0  0  0
   -2.6664   -2.7474    0.0000 C   0  0  0  0  0  0  0  0  0  0  0  0
  1  2  1  0  0  0  0
  2  3  1  0  0  0  0
  3  4  2  0  0  0  0
  4  5  1  0  0  0  0
  5  6  1  0  0  0  0
  4  7  1  0  0  0  0
  7  8  2  0  0  0  0
  8  9  1  0  0  0  0
  9 10  1  0  0  0  0
 10 11  1  0  0  0  0
 11 12  1  0  0  0  0
 12 13  1  0  0  0  0
 13 14  1  0  0  0  0
 14 15  1  0  0  0  0
 15 16  1  0  0  0  0
 16 17  2  0  0  0  0
 16 18  1  0  0  0  0
 18 19  2  0  0  0  0
 19 20  1  0  0  0  0
 20 21  1  0  0  0  0
 21 22  1  0  0  0  0
 22 23  1  0  0  0  0
 19 24  1  0  0  0  0
 24 25  2  0  0  0  0
 25 26  1  0  0  0  0
 26 27  1  0  0  0  0
 26 28  2  0  0  0  0
 18 28  1  0  0  0  0
 10 29  1  0  0  0  0
 29 30  1  0  0  0  0
 30 31  1  0  0  0  0
  8 31  1  0  0  0  0
 31 32  2  0  0  0  0
  3 32  1  0  0  0  0
M  ISO  1  23  18
M  END
> <DATABASE_ID>
DB14900

> <DATABASE_NAME>
drugbank

> <SMILES>
COC1=C(OC)C=C2CN(CCCCNC(=O)C3=C(OCC[18F])C=CC(C)=C3)CCC2=C1

> <INCHI_IDENTIFIER>
InChI=1S/C25H33FN2O4/c1-18-6-7-22(32-13-9-26)21(14-18)25(29)27-10-4-5-11-28-12-8-19-15-23(30-2)24(31-3)16-20(19)17-28/h6-7,14-16H,4-5,8-13,17H2,1-3H3,(H,27,29)/i26-1

> <INCHI_KEY>
QVRVXSZKCXFBTE-KPVNRNJOSA-N

> <FORMULA>
C25H33FN2O4

> <MOLECULAR_WEIGHT>
443.55

> <EXACT_MASS>
443.244970218

> <JCHEM_ACCEPTOR_COUNT>
5

> <JCHEM_ATOM_COUNT>
65

> <JCHEM_AVERAGE_POLARIZABILITY>
50.47402401407184

> <JCHEM_BIOAVAILABILITY>
1

> <JCHEM_DONOR_COUNT>
1

> <JCHEM_FORMAL_CHARGE>
0

> <JCHEM_GHOSE_FILTER>
1

> <JCHEM_IUPAC>
N-[4-(6,7-dimethoxy-1,2,3,4-tetrahydroisoquinolin-2-yl)butyl]-2-[2-(¹⁸F)fluoroethoxy]-5-methylbenzamide

> <ALOGPS_LOGP>
3.54

> <JCHEM_LOGP>
3.6492880863333332

> <ALOGPS_LOGS>
-4.81

> <JCHEM_MDDR_LIKE_RULE>
1

> <JCHEM_NUMBER_OF_RINGS>
3

> <JCHEM_PHYSIOLOGICAL_CHARGE>
1

> <JCHEM_PKA_STRONGEST_ACIDIC>
14.20156996499666

> <JCHEM_PKA_STRONGEST_BASIC>
8.00063306728683

> <JCHEM_POLAR_SURFACE_AREA>
60.03

> <JCHEM_REFRACTIVITY>
124.51539999999999

> <JCHEM_ROTATABLE_BOND_COUNT>
11

> <JCHEM_RULE_OF_FIVE>
1

> <ALOGPS_SOLUBILITY>
6.91e-03 g/l

> <JCHEM_TRADITIONAL_IUPAC>
(2R)-14-fluoro-2-methyl-6,9,10,19-tetraazapentacyclo[14.2.1.0^{2,6}.0^{8,18}.0^{12,17}]nonadeca-1(18),8,12(17),13,15-pentaen-11-one

> <JCHEM_VEBER_RULE>
0

> <DRUGBANK_ID>
DB14900

> <DRUG_GROUPS>
investigational

> <GENERIC_NAME>
ISO-1 F-18

> <SYNONYMS>
[18F]ISO-1; F-18-ISO

$$$$
