
  Mrv1652306131722012D          

 27 29  0  0  1  0            999 V2000
   -2.1434   -0.4125    0.0000 C   0  0  0  0  0  0  0  0  0  0  0  0
   -1.4289    0.0000    0.0000 C   0  0  0  0  0  0  0  0  0  0  0  0
   -1.4289    0.8250    0.0000 O   0  0  0  0  0  0  0  0  0  0  0  0
   -0.7145   -0.4125    0.0000 C   0  0  0  0  0  0  0  0  0  0  0  0
   -0.7145   -1.2375    0.0000 C   0  0  0  0  0  0  0  0  0  0  0  0
    0.0000   -1.6500    0.0000 C   0  0  0  0  0  0  0  0  0  0  0  0
    0.7145   -1.2375    0.0000 C   0  0  0  0  0  0  0  0  0  0  0  0
    0.7145   -0.4125    0.0000 C   0  0  0  0  0  0  0  0  0  0  0  0
    0.0000   -0.0000    0.0000 C   0  0  0  0  0  0  0  0  0  0  0  0
    1.4289   -0.0000    0.0000 C   0  0  1  0  0  0  0  0  0  0  0  0
    2.1434   -0.4125    0.0000 C   0  0  1  0  0  0  0  0  0  0  0  0
    2.1434   -1.2375    0.0000 C   0  0  0  0  0  0  0  0  0  0  0  0
    1.4289   -1.6500    0.0000 O   0  0  0  0  0  0  0  0  0  0  0  0
    2.9679   -1.2663    0.0000 C   0  0  0  0  0  0  0  0  0  0  0  0
    2.5806   -1.9371    0.0000 C   0  0  0  0  0  0  0  0  0  0  0  0
    2.8579   -0.0000    0.0000 O   0  0  0  0  0  0  0  0  0  0  0  0
    1.4289    0.8250    0.0000 N   0  0  0  0  0  0  0  0  0  0  0  0
    0.7145    1.2375    0.0000 C   0  0  0  0  0  0  0  0  0  0  0  0
    0.0000    0.8250    0.0000 O   0  0  0  0  0  0  0  0  0  0  0  0
    0.7145    2.0625    0.0000 C   0  0  0  0  0  0  0  0  0  0  0  0
    0.0000    2.4750    0.0000 C   0  0  0  0  0  0  0  0  0  0  0  0
    0.0000    3.3000    0.0000 C   0  0  0  0  0  0  0  0  0  0  0  0
    0.7145    3.7125    0.0000 C   0  0  0  0  0  0  0  0  0  0  0  0
    1.4289    3.3000    0.0000 C   0  0  0  0  0  0  0  0  0  0  0  0
    1.4289    2.4750    0.0000 C   0  0  0  0  0  0  0  0  0  0  0  0
    2.1434    3.7125    0.0000 Cl  0  0  0  0  0  0  0  0  0  0  0  0
    0.7145    4.5375    0.0000 F   0  0  0  0  0  0  0  0  0  0  0  0
  1  2  1  0  0  0  0
  2  3  2  0  0  0  0
  2  4  1  0  0  0  0
  4  5  2  0  0  0  0
  5  6  1  0  0  0  0
  6  7  2  0  0  0  0
  7  8  1  0  0  0  0
  8  9  2  0  0  0  0
  4  9  1  0  0  0  0
  8 10  1  0  0  0  0
 10 11  1  0  0  0  0
 11 12  1  0  0  0  0
 12 13  1  0  0  0  0
  7 13  1  0  0  0  0
 12 14  1  0  0  0  0
 12 15  1  0  0  0  0
 11 16  1  6  0  0  0
 10 17  1  6  0  0  0
 17 18  1  0  0  0  0
 18 19  2  0  0  0  0
 18 20  1  0  0  0  0
 20 21  2  0  0  0  0
 21 22  1  0  0  0  0
 22 23  2  0  0  0  0
 23 24  1  0  0  0  0
 24 25  2  0  0  0  0
 20 25  1  0  0  0  0
 24 26  1  0  0  0  0
 23 27  1  0  0  0  0
M  END
> <DATABASE_ID>
DB06578

> <DATABASE_NAME>
drugbank

> <SMILES>
CC(=O)C1=CC=C2OC(C)(C)[C@@H](O)[C@@H](NC(=O)C3=CC=C(F)C(Cl)=C3)C2=C1

> <INCHI_IDENTIFIER>
InChI=1S/C20H19ClFNO4/c1-10(24)11-5-7-16-13(8-11)17(18(25)20(2,3)27-16)23-19(26)12-4-6-15(22)14(21)9-12/h4-9,17-18,25H,1-3H3,(H,23,26)/t17-,18-/m0/s1

> <INCHI_KEY>
XLIIRNOPGJTBJD-ROUUACIJSA-N

> <FORMULA>
C20H19ClFNO4

> <MOLECULAR_WEIGHT>
391.82

> <EXACT_MASS>
391.098664

> <JCHEM_ACCEPTOR_COUNT>
4

> <JCHEM_ATOM_COUNT>
46

> <JCHEM_AVERAGE_POLARIZABILITY>
38.577588051103604

> <JCHEM_BIOAVAILABILITY>
1

> <JCHEM_DONOR_COUNT>
2

> <JCHEM_FORMAL_CHARGE>
0

> <JCHEM_GHOSE_FILTER>
1

> <JCHEM_IUPAC>
N-[(3S,4S)-6-acetyl-3-hydroxy-2,2-dimethyl-3,4-dihydro-2H-1-benzopyran-4-yl]-3-chloro-4-fluorobenzamide

> <ALOGPS_LOGP>
2.97

> <JCHEM_LOGP>
2.8738170366666664

> <ALOGPS_LOGS>
-4.64

> <JCHEM_MDDR_LIKE_RULE>
0

> <JCHEM_NUMBER_OF_RINGS>
3

> <JCHEM_PHYSIOLOGICAL_CHARGE>
0

> <JCHEM_PKA>
13.320654072904471

> <JCHEM_PKA_STRONGEST_ACIDIC>
12.388476683255927

> <JCHEM_PKA_STRONGEST_BASIC>
-1.079789378162364

> <JCHEM_POLAR_SURFACE_AREA>
75.63

> <JCHEM_REFRACTIVITY>
99.25359999999998

> <JCHEM_ROTATABLE_BOND_COUNT>
3

> <JCHEM_RULE_OF_FIVE>
1

> <ALOGPS_SOLUBILITY>
8.92e-03 g/l

> <JCHEM_TRADITIONAL_IUPAC>
N-[(3S,4S)-6-acetyl-3-hydroxy-2,2-dimethyl-3,4-dihydro-1-benzopyran-4-yl]-3-chloro-4-fluorobenzamide

> <JCHEM_VEBER_RULE>
0

> <DRUGBANK_ID>
DB06578

> <DRUG_GROUPS>
investigational

> <GENERIC_NAME>
Tonabersat

> <SYNONYMS>
Tonabersat

$$$$
