
  Mrv1652310211601222D          

 33 37  0  0  1  0            999 V2000
    1.3895   -1.8497    0.0000 C   0  0  0  0  0  0  0  0  0  0  0  0
    1.7494   -2.5921    0.0000 C   0  0  1  0  0  0  0  0  0  0  0  0
    2.2812   -1.9614    0.0000 C   0  0  0  0  0  0  0  0  0  0  0  0
    3.0934   -2.1066    0.0000 C   0  0  1  0  0  0  0  0  0  0  0  0
    3.3737   -2.8825    0.0000 C   0  0  0  0  0  0  0  0  0  0  0  0
    4.1858   -3.0277    0.0000 C   0  0  0  0  0  0  0  0  0  0  0  0
    4.7176   -2.3970    0.0000 C   0  0  0  0  0  0  0  0  0  0  0  0
    5.5297   -2.5422    0.0000 C   0  0  0  0  0  0  0  0  0  0  0  0
    5.8100   -3.3182    0.0000 C   0  0  0  0  0  0  0  0  0  0  0  0
    6.6221   -3.4634    0.0000 O   0  0  0  0  0  0  0  0  0  0  0  0
    5.2782   -3.9489    0.0000 C   0  0  0  0  0  0  0  0  0  0  0  0
    4.4661   -3.8037    0.0000 C   0  0  0  0  0  0  0  0  0  0  0  0
    3.9343   -4.4344    0.0000 C   0  0  0  0  0  0  0  0  0  0  0  0
    3.1221   -4.2891    0.0000 C   0  0  0  0  0  0  0  0  0  0  0  0
    2.8418   -3.5132    0.0000 C   0  0  1  0  0  0  0  0  0  0  0  0
    2.0297   -3.3680    0.0000 C   0  0  2  0  0  0  0  0  0  0  0  0
    1.3784   -3.8744    0.0000 C   0  0  0  0  0  0  0  0  0  0  0  0
    0.6955   -3.4114    0.0000 C   0  0  0  0  0  0  0  0  0  0  0  0
    0.9249   -2.6189    0.0000 C   0  0  2  0  0  0  0  0  0  0  0  0
    0.1640   -2.3000    0.0000 C   0  0  0  0  0  0  0  0  0  0  0  0
   -0.4926   -2.7995    0.0000 C   0  0  0  0  0  0  0  0  0  0  0  0
   -1.2535   -2.4806    0.0000 C   0  0  0  0  0  0  0  0  0  0  0  0
   -1.9101   -2.9801    0.0000 O   0  0  0  0  0  0  0  0  0  0  0  0
    0.8035   -1.8029    0.0000 O   0  0  0  0  0  0  0  0  0  0  0  0
    3.6252   -1.4759    0.0000 C   0  0  0  0  0  0  0  0  0  0  0  0
    3.3449   -0.7000    0.0000 C   0  0  0  0  0  0  0  0  0  0  0  0
    3.8767   -0.0692    0.0000 C   0  0  0  0  0  0  0  0  0  0  0  0
    4.6888   -0.2145    0.0000 C   0  0  0  0  0  0  0  0  0  0  0  0
    4.9691   -0.9904    0.0000 C   0  0  0  0  0  0  0  0  0  0  0  0
    4.4373   -1.6211    0.0000 C   0  0  0  0  0  0  0  0  0  0  0  0
    5.2206    0.4162    0.0000 N   0  0  0  0  0  0  0  0  0  0  0  0
    6.0328    0.2710    0.0000 C   0  0  0  0  0  0  0  0  0  0  0  0
    4.9403    1.1922    0.0000 C   0  0  0  0  0  0  0  0  0  0  0  0
  2  1  1  1  0  0  0
  2  3  1  0  0  0  0
  3  4  1  0  0  0  0
  4  5  1  0  0  0  0
  5  6  2  0  0  0  0
  6  7  1  0  0  0  0
  7  8  1  0  0  0  0
  8  9  1  0  0  0  0
  9 10  2  0  0  0  0
  9 11  1  0  0  0  0
 11 12  2  0  0  0  0
  6 12  1  0  0  0  0
 12 13  1  0  0  0  0
 13 14  1  0  0  0  0
 15 14  1  1  0  0  0
  5 15  1  0  0  0  0
 15 16  1  0  0  0  0
  2 16  1  0  0  0  0
 16 17  1  6  0  0  0
 17 18  1  0  0  0  0
 18 19  1  0  0  0  0
  2 19  1  0  0  0  0
 19 20  1  6  0  0  0
 20 21  1  0  0  0  0
 21 22  1  0  0  0  0
 22 23  1  0  0  0  0
 19 24  1  1  0  0  0
  4 25  1  6  0  0  0
 25 26  2  0  0  0  0
 26 27  1  0  0  0  0
 27 28  2  0  0  0  0
 28 29  1  0  0  0  0
 29 30  2  0  0  0  0
 25 30  1  0  0  0  0
 28 31  1  0  0  0  0
 31 32  1  0  0  0  0
 31 33  1  0  0  0  0
M  END
> <DATABASE_ID>
DB12637

> <DATABASE_NAME>
drugbank

> <SMILES>
CN(C)C1=CC=C(C=C1)[C@H]1C[C@]2(C)[C@@H](CC[C@]2(O)CCCO)[C@@H]2CCC3=CC(=O)CCC3=C12

> <INCHI_IDENTIFIER>
InChI=1S/C29H39NO3/c1-28-18-25(19-5-8-21(9-6-19)30(2)3)27-23-12-10-22(32)17-20(23)7-11-24(27)26(28)13-15-29(28,33)14-4-16-31/h5-6,8-9,17,24-26,31,33H,4,7,10-16,18H2,1-3H3/t24-,25+,26-,28+,29+/m0/s1

> <INCHI_KEY>
IEXUMDBQLIVNHZ-YOUGDJEHSA-N

> <FORMULA>
C29H39NO3

> <MOLECULAR_WEIGHT>
449.635

> <EXACT_MASS>
449.29299412

> <JCHEM_ACCEPTOR_COUNT>
4

> <JCHEM_ATOM_COUNT>
72

> <JCHEM_AVERAGE_POLARIZABILITY>
52.993126907057686

> <JCHEM_BIOAVAILABILITY>
1

> <JCHEM_DONOR_COUNT>
2

> <JCHEM_FORMAL_CHARGE>
0

> <JCHEM_GHOSE_FILTER>
0

> <JCHEM_IUPAC>
(10S,11S,14S,15R,17R)-17-[4-(dimethylamino)phenyl]-14-hydroxy-14-(3-hydroxypropyl)-15-methyltetracyclo[8.7.0.0^{2,7}.0^{11,15}]heptadeca-1,6-dien-5-one

> <ALOGPS_LOGP>
4.63

> <JCHEM_LOGP>
3.9559949109999977

> <ALOGPS_LOGS>
-4.77

> <JCHEM_MDDR_LIKE_RULE>
0

> <JCHEM_NUMBER_OF_RINGS>
5

> <JCHEM_PHYSIOLOGICAL_CHARGE>
0

> <JCHEM_PKA>
15.985883780521736

> <JCHEM_PKA_STRONGEST_ACIDIC>
14.34394305091918

> <JCHEM_PKA_STRONGEST_BASIC>
4.889633400050315

> <JCHEM_POLAR_SURFACE_AREA>
60.77

> <JCHEM_REFRACTIVITY>
135.30219999999997

> <JCHEM_ROTATABLE_BOND_COUNT>
5

> <JCHEM_RULE_OF_FIVE>
1

> <ALOGPS_SOLUBILITY>
7.59e-03 g/l

> <JCHEM_TRADITIONAL_IUPAC>
(10S,11S,14S,15R,17R)-17-[4-(dimethylamino)phenyl]-14-hydroxy-14-(3-hydroxypropyl)-15-methyltetracyclo[8.7.0.0^{2,7}.0^{11,15}]heptadeca-1,6-dien-5-one

> <JCHEM_VEBER_RULE>
0

> <DRUGBANK_ID>
DB12637

> <DRUG_GROUPS>
investigational

> <GENERIC_NAME>
Onapristone

> <SYNONYMS>
Onapristone

$$$$
