
  Mrv1909 05201915002D          

 24 26  0  0  1  0            999 V2000
   -5.0013   -1.2375    0.0000 C   0  0  0  0  0  0  0  0  0  0  0  0
   -4.2868   -1.6500    0.0000 C   0  0  0  0  0  0  0  0  0  0  0  0
   -3.5724   -1.2375    0.0000 C   0  0  0  0  0  0  0  0  0  0  0  0
   -2.8579   -1.6500    0.0000 C   0  0  0  0  0  0  0  0  0  0  0  0
   -2.1434   -1.2375    0.0000 C   0  0  0  0  0  0  0  0  0  0  0  0
   -1.4289   -1.6500    0.0000 C   0  0  0  0  0  0  0  0  0  0  0  0
   -0.7145   -1.2375    0.0000 C   0  0  2  0  0  0  0  0  0  0  0  0
    0.0000   -1.6500    0.0000 C   0  0  0  0  0  0  0  0  0  0  0  0
    0.7145   -1.2375    0.0000 C   0  0  0  0  0  0  0  0  0  0  0  0
    0.7145   -0.4125    0.0000 C   0  0  0  0  0  0  0  0  0  0  0  0
    0.0000   -0.0000    0.0000 C   0  0  0  0  0  0  0  0  0  0  0  0
   -0.7145   -0.4125    0.0000 C   0  0  0  0  0  0  0  0  0  0  0  0
    0.0000    0.8250    0.0000 C   0  0  0  0  0  0  0  0  0  0  0  0
    0.7145    1.2375    0.0000 C   0  0  0  0  0  0  0  0  0  0  0  0
    1.4289    0.8250    0.0000 C   0  0  0  0  0  0  0  0  0  0  0  0
    1.4289   -0.0000    0.0000 C   0  0  0  0  0  0  0  0  0  0  0  0
    2.1434    1.2375    0.0000 C   0  0  1  0  0  0  0  0  0  0  0  0
    2.2296    2.0580    0.0000 C   0  0  0  0  0  0  0  0  0  0  0  0
    3.0366    2.2295    0.0000 C   0  0  0  0  0  0  0  0  0  0  0  0
    3.4491    1.5150    0.0000 C   0  0  2  0  0  0  0  0  0  0  0  0
    4.1166    2.0000    0.0000 N   0  0  0  0  0  0  0  0  0  0  0  0
    4.0012    0.9019    0.0000 C   0  0  0  0  0  0  0  0  0  0  0  0
    4.8081    1.0735    0.0000 O   0  0  0  0  0  0  0  0  0  0  0  0
    2.8971    0.9019    0.0000 C   0  0  0  0  0  0  0  0  0  0  0  0
  1  2  1  0  0  0  0
  2  3  1  0  0  0  0
  3  4  1  0  0  0  0
  4  5  1  0  0  0  0
  5  6  1  0  0  0  0
  7  6  1  1  0  0  0
  7  8  1  0  0  0  0
  8  9  1  0  0  0  0
  9 10  1  0  0  0  0
 10 11  2  0  0  0  0
 11 12  1  0  0  0  0
  7 12  1  0  0  0  0
 11 13  1  0  0  0  0
 13 14  2  0  0  0  0
 14 15  1  0  0  0  0
 15 16  2  0  0  0  0
 10 16  1  0  0  0  0
 17 15  1  1  0  0  0
 17 18  1  0  0  0  0
 18 19  1  0  0  0  0
 20 19  1  0  0  0  0
 20 21  1  1  0  0  0
 20 22  1  6  0  0  0
 22 23  1  0  0  0  0
 20 24  1  0  0  0  0
 17 24  1  0  0  0  0
M  END
> <DATABASE_ID>
DB15214

> <DATABASE_NAME>
drugbank

> <SMILES>
CCCCCC[C@@H]1CCC2=C(C1)C=CC(=C2)[C@H]1CC[C@](N)(CO)C1

> <INCHI_IDENTIFIER>
InChI=1S/C22H35NO/c1-2-3-4-5-6-17-7-8-19-14-20(10-9-18(19)13-17)21-11-12-22(23,15-21)16-24/h9-10,14,17,21,24H,2-8,11-13,15-16,23H2,1H3/t17-,21+,22-/m1/s1

> <INCHI_KEY>
BPMMYKAHRIEVDH-VOQZNFBZSA-N

> <FORMULA>
C22H35NO

> <MOLECULAR_WEIGHT>
329.528

> <EXACT_MASS>
329.271864751

> <JCHEM_ACCEPTOR_COUNT>
2

> <JCHEM_ATOM_COUNT>
59

> <JCHEM_AVERAGE_POLARIZABILITY>
42.67179980487887

> <JCHEM_BIOAVAILABILITY>
1

> <JCHEM_DONOR_COUNT>
2

> <JCHEM_FORMAL_CHARGE>
0

> <JCHEM_GHOSE_FILTER>
1

> <JCHEM_IUPAC>
[(1R,3S)-1-amino-3-[(6R)-6-hexyl-5,6,7,8-tetrahydronaphthalen-2-yl]cyclopentyl]methanol

> <ALOGPS_LOGP>
5.76

> <JCHEM_LOGP>
5.345849399333333

> <ALOGPS_LOGS>
-6.49

> <JCHEM_MDDR_LIKE_RULE>
1

> <JCHEM_NUMBER_OF_RINGS>
3

> <JCHEM_PHYSIOLOGICAL_CHARGE>
1

> <JCHEM_PKA_STRONGEST_ACIDIC>
14.783801336097474

> <JCHEM_PKA_STRONGEST_BASIC>
9.96152097271946

> <JCHEM_POLAR_SURFACE_AREA>
46.25

> <JCHEM_REFRACTIVITY>
102.19329999999997

> <JCHEM_ROTATABLE_BOND_COUNT>
7

> <JCHEM_RULE_OF_FIVE>
0

> <ALOGPS_SOLUBILITY>
1.08e-04 g/l

> <JCHEM_TRADITIONAL_IUPAC>
(2R)-14-fluoro-2-methyl-6,9,10,19-tetraazapentacyclo[14.2.1.0^{2,6}.0^{8,18}.0^{12,17}]nonadeca-1(18),8,12(17),13,15-pentaen-11-one

> <JCHEM_VEBER_RULE>
0

> <DRUGBANK_ID>
DB15214

> <DRUG_GROUPS>
investigational

> <GENERIC_NAME>
BMS-986104

$$$$
