
  Mrv1652310211601152D          

 18 21  0  0  0  0            999 V2000
    4.5416   -0.2339    0.0000 C   0  0  0  0  0  0  0  0  0  0  0  0
    4.8451    0.5332    0.0000 C   0  0  0  0  0  0  0  0  0  0  0  0
    4.3325    1.1796    0.0000 C   0  0  0  0  0  0  0  0  0  0  0  0
    3.5164    1.0589    0.0000 C   0  0  0  0  0  0  0  0  0  0  0  0
    3.2129    0.2918    0.0000 C   0  0  0  0  0  0  0  0  0  0  0  0
    3.7255   -0.3546    0.0000 C   0  0  0  0  0  0  0  0  0  0  0  0
    2.3895    0.3434    0.0000 C   0  0  0  0  0  0  0  0  0  0  0  0
    2.1841    1.1425    0.0000 C   0  0  0  0  0  0  0  0  0  0  0  0
    2.8806    1.5847    0.0000 C   0  0  0  0  0  0  0  0  0  0  0  0
    1.9788    1.9415    0.0000 C   0  0  0  0  0  0  0  0  0  0  0  0
    2.5045    2.5773    0.0000 O   0  0  0  0  0  0  0  0  0  0  0  0
    1.1554    1.9931    0.0000 N   0  0  0  0  0  0  0  0  0  0  0  0
    0.8519    1.2260    0.0000 C   0  0  0  0  0  0  0  0  0  0  0  0
    1.4877    0.7002    0.0000 N   0  0  0  0  0  0  0  0  0  0  0  0
    1.3503   -0.1132    0.0000 C   0  0  0  0  0  0  0  0  0  0  0  0
    0.5771   -0.4010    0.0000 C   0  0  0  0  0  0  0  0  0  0  0  0
   -0.0587    0.1248    0.0000 C   0  0  0  0  0  0  0  0  0  0  0  0
    0.0787    0.9382    0.0000 C   0  0  0  0  0  0  0  0  0  0  0  0
  1  2  2  0  0  0  0
  2  3  1  0  0  0  0
  3  4  2  0  0  0  0
  4  5  1  0  0  0  0
  5  6  2  0  0  0  0
  1  6  1  0  0  0  0
  5  7  1  0  0  0  0
  7  8  1  0  0  0  0
  8  9  1  0  0  0  0
  4  9  1  0  0  0  0
  8 10  1  0  0  0  0
 10 11  2  0  0  0  0
 10 12  1  0  0  0  0
 12 13  2  0  0  0  0
 13 14  1  0  0  0  0
  8 14  1  0  0  0  0
 14 15  1  0  0  0  0
 15 16  2  0  0  0  0
 16 17  1  0  0  0  0
 17 18  2  0  0  0  0
 13 18  1  0  0  0  0
M  END
> <DATABASE_ID>
DB12621

> <DATABASE_NAME>
drugbank

> <SMILES>
O=C1N=C2C=CC=CN2C11CC2=CC=CC=C2C1

> <INCHI_IDENTIFIER>
InChI=1S/C15H12N2O/c18-14-15(17-8-4-3-7-13(17)16-14)9-11-5-1-2-6-12(11)10-15/h1-8H,9-10H2

> <INCHI_KEY>
QZWYXEBIQWJXAR-UHFFFAOYSA-N

> <FORMULA>
C15H12N2O

> <MOLECULAR_WEIGHT>
236.274

> <EXACT_MASS>
236.094963014

> <JCHEM_ACCEPTOR_COUNT>
3

> <JCHEM_ATOM_COUNT>
30

> <JCHEM_AVERAGE_POLARIZABILITY>
25.050224294693226

> <JCHEM_BIOAVAILABILITY>
1

> <JCHEM_DONOR_COUNT>
0

> <JCHEM_FORMAL_CHARGE>
0

> <JCHEM_GHOSE_FILTER>
1

> <JCHEM_IUPAC>
1',3'-dihydro-2H-spiro[imidazo[1,2-a]pyridine-3,2'-indene]-2-one

> <ALOGPS_LOGP>
2.04

> <JCHEM_LOGP>
1.8392705336666664

> <ALOGPS_LOGS>
-3.14

> <JCHEM_MDDR_LIKE_RULE>
0

> <JCHEM_NUMBER_OF_RINGS>
4

> <JCHEM_PHYSIOLOGICAL_CHARGE>
0

> <JCHEM_PKA_STRONGEST_BASIC>
0.22760435292376735

> <JCHEM_POLAR_SURFACE_AREA>
32.67

> <JCHEM_REFRACTIVITY>
70.59110000000001

> <JCHEM_ROTATABLE_BOND_COUNT>
0

> <JCHEM_RULE_OF_FIVE>
1

> <ALOGPS_SOLUBILITY>
1.71e-01 g/l

> <JCHEM_TRADITIONAL_IUPAC>
1',3'-dihydrospiro[imidazo[1,2-a]pyridine-3,2'-indene]-2-one

> <JCHEM_VEBER_RULE>
1

> <DRUGBANK_ID>
DB12621

> <DRUG_GROUPS>
investigational

> <GENERIC_NAME>
ST-101

$$$$
