
  Mrv1909 04232020312D          

 24 24  0  0  1  0            999 V2000
    0.0000    4.9499    0.0000 C   0  0  0  0  0  0  0  0  0  0  0  0
    0.7145    3.7125    0.0000 C   0  0  0  0  0  0  0  0  0  0  0  0
   -2.8579    4.9499    0.0000 C   0  0  0  0  0  0  0  0  0  0  0  0
   -1.4289    2.4749    0.0000 C   0  0  0  0  0  0  0  0  0  0  0  0
    0.7145   -0.4125    0.0000 C   0  0  0  0  0  0  0  0  0  0  0  0
    1.4289    0.0000    0.0000 C   0  0  0  0  0  0  0  0  0  0  0  0
    0.0000    0.0000    0.0000 C   0  0  0  0  0  0  0  0  0  0  0  0
    1.4289    0.8250    0.0000 C   0  0  0  0  0  0  0  0  0  0  0  0
    0.0000    0.8250    0.0000 C   0  0  0  0  0  0  0  0  0  0  0  0
   -1.4289    4.9499    0.0000 C   0  0  0  0  0  0  0  0  0  0  0  0
   -1.4289    5.7750    0.0000 C   0  0  0  0  0  0  0  0  0  0  0  0
   -0.7145    3.7125    0.0000 C   0  0  0  0  0  0  0  0  0  0  0  0
    0.7145    2.0625    0.0000 C   0  0  0  0  0  0  0  0  0  0  0  0
   -0.7145    4.5375    0.0000 C   0  0  0  0  0  0  0  0  0  0  0  0
    0.0000    3.3000    0.0000 C   0  0  2  0  0  0  0  0  0  0  0  0
   -2.8579    5.7750    0.0000 C   0  0  1  0  0  0  0  0  0  0  0  0
    0.7145    1.2374    0.0000 C   0  0  0  0  0  0  0  0  0  0  0  0
   -2.1434    6.1875    0.0000 C   0  0  1  0  0  0  0  0  0  0  0  0
    0.0000    2.4749    0.0000 C   0  0  2  0  0  0  0  0  0  0  0  0
   -3.5724    6.1875    0.0000 C   0  0  0  0  0  0  0  0  0  0  0  0
   -2.1434    7.0125    0.0000 N   0  0  0  0  0  0  0  0  0  0  0  0
   -4.2868    5.7750    0.0000 O   0  0  0  0  0  0  0  0  0  0  0  0
   -3.5724    7.0125    0.0000 O   0  0  0  0  0  0  0  0  0  0  0  0
   -0.7145    2.0625    0.0000 O   0  0  0  0  0  0  0  0  0  0  0  0
  6  5  2  0  0  0  0
  7  5  1  0  0  0  0
  8  6  1  0  0  0  0
  9  7  2  0  0  0  0
 11 10  2  0  0  0  0
 14  1  1  0  0  0  0
 14 10  1  0  0  0  0
 14 12  2  0  0  0  0
 15  2  1  1  0  0  0
 15 12  1  0  0  0  0
 16  3  1  6  0  0  0
 17  8  2  0  0  0  0
 17  9  1  0  0  0  0
 17 13  1  0  0  0  0
 18 11  1  0  0  0  0
 18 16  1  0  0  0  0
 19 13  1  0  0  0  0
 19 15  1  0  0  0  0
 20 16  1  0  0  0  0
 18 21  1  1  0  0  0
 22 20  2  0  0  0  0
 23 20  1  0  0  0  0
 24  4  1  0  0  0  0
 19 24  1  1  0  0  0
M  END
> <DATABASE_ID>
DB01850

> <DATABASE_NAME>
drugbank

> <SMILES>
CO[C@H](CC1=CC=CC=C1)[C@H](C)\C=C(/C)\C=C\[C@H](N)[C@H](C)C(O)=O

> <INCHI_IDENTIFIER>
InChI=1S/C20H29NO3/c1-14(10-11-18(21)16(3)20(22)23)12-15(2)19(24-4)13-17-8-6-5-7-9-17/h5-12,15-16,18-19H,13,21H2,1-4H3,(H,22,23)/b11-10+,14-12+/t15-,16+,18+,19-/m1/s1

> <INCHI_KEY>
HJVCHYDYCYBBQX-AWKNMOFVSA-N

> <FORMULA>
C20H29NO3

> <MOLECULAR_WEIGHT>
331.4492

> <EXACT_MASS>
331.214743799

> <JCHEM_ACCEPTOR_COUNT>
4

> <JCHEM_ATOM_COUNT>
53

> <JCHEM_AVERAGE_NEUTRAL_MICROSPECIES_CHARGE>
0.0010505240719904522

> <JCHEM_AVERAGE_POLARIZABILITY>
38.14916282828405

> <JCHEM_BIOAVAILABILITY>
1

> <JCHEM_DONOR_COUNT>
2

> <JCHEM_FORMAL_CHARGE>
0

> <JCHEM_GHOSE_FILTER>
1

> <JCHEM_IUPAC>
(2S,3S,4E,6E,8R,9R)-3-amino-9-methoxy-2,6,8-trimethyl-10-phenyldeca-4,6-dienoic acid

> <ALOGPS_LOGP>
0.71

> <JCHEM_LOGP>
1.4064528216177834

> <ALOGPS_LOGS>
-4.61

> <JCHEM_MDDR_LIKE_RULE>
0

> <JCHEM_NEUTRAL_CHARGE>
0

> <JCHEM_NUMBER_OF_RINGS>
1

> <JCHEM_PHYSIOLOGICAL_CHARGE>
0

> <JCHEM_PKA_STRONGEST_ACIDIC>
4.007927306128151

> <JCHEM_PKA_STRONGEST_BASIC>
10.009518149716884

> <JCHEM_POLAR_SURFACE_AREA>
72.55000000000001

> <JCHEM_REFRACTIVITY>
99.1746

> <JCHEM_ROTATABLE_BOND_COUNT>
9

> <JCHEM_RULE_OF_FIVE>
1

> <ALOGPS_SOLUBILITY>
8.13e-03 g/l

> <JCHEM_TRADITIONAL_IUPAC>
(4R,5S,6S,7R)-1,3-dibenzyl-5,6-dihydroxy-4,7-bis(phenoxymethyl)-1,3-diazepan-2-one

> <JCHEM_VEBER_RULE>
0

> <DRUGBANK_ID>
DB01850

> <SECONDARY_ACCESSION_NUMBERS>
EXPT02162

> <DRUG_GROUPS>
experimental

> <GENERIC_NAME>
(2S,3S,8S,9S)-3-amino-9-methoxy-2,6,8-trimethyl-10-phenyldeca-4,6-dienoic acid

$$$$
