
  Mrv1902 03061923062D          

 48 51  0  0  0  0            999 V2000
   -1.0660    2.8863    0.0000 C   0  0  2  0  0  0  0  0  0  0  0  0
   -1.0729    3.7285    0.0000 C   0  0  0  0  0  0  0  0  0  0  0  0
   -0.3490    3.3039    0.0000 O   0  0  0  0  0  0  0  0  0  0  0  0
   -1.0660    2.0581    0.0000 C   0  0  0  0  0  0  0  0  0  0  0  0
   -1.7828    3.3039    0.0000 C   0  0  0  0  0  0  0  0  0  0  0  0
   -0.3455    1.6508    0.0000 C   0  0  1  0  0  0  0  0  0  0  0  0
   -2.4964    2.8863    0.0000 C   0  0  1  0  0  0  0  0  0  0  0  0
   -1.7828    4.1253    0.0000 O   0  0  0  0  0  0  0  0  0  0  0  0
   -0.3455    0.8225    0.0000 C   0  0  1  0  0  0  0  0  0  0  0  0
    0.3645    2.0614    0.0000 C   0  0  0  0  0  0  0  0  0  0  0  0
   -2.4964    2.0581    0.0000 C   0  0  2  0  0  0  0  0  0  0  0  0
   -3.2134    3.3039    0.0000 C   0  0  0  0  0  0  0  0  0  0  0  0
   -1.0660    0.4083    0.0000 C   0  0  2  0  0  0  0  0  0  0  0  0
    0.3610    0.4083    0.0000 O   0  0  0  0  0  0  0  0  0  0  0  0
   -3.2134    1.6508    0.0000 C   0  0  2  0  0  0  0  0  0  0  0  0
   -1.0660   -0.4164    0.0000 C   0  0  2  0  0  0  0  0  0  0  0  0
   -1.7828    0.8225    0.0000 C   0  0  0  0  0  0  0  0  0  0  0  0
   -3.2134    0.8225    0.0000 C   0  0  2  0  0  0  0  0  0  0  0  0
   -3.9268    2.0614    0.0000 C   0  0  0  0  0  0  0  0  0  0  0  0
   -0.3455   -0.8274    0.0000 O   0  0  0  0  0  0  0  0  0  0  0  0
   -1.7828   -0.8274    0.0000 C   0  0  2  0  0  0  0  0  0  0  0  0
   -2.4964    0.4083    0.0000 O   0  0  0  0  0  0  0  0  0  0  0  0
   -3.9303    0.4048    0.0000 C   0  0  0  0  0  0  0  0  0  0  0  0
   -2.4964   -0.4164    0.0000 C   0  0  0  0  0  0  0  0  0  0  0  0
   -1.7828   -1.6521    0.0000 C   0  0  0  0  0  0  0  0  0  0  0  0
   -3.2134   -0.8274    0.0000 O   0  0  0  0  0  0  0  0  0  0  0  0
   -0.3471   -1.6521    0.0000 C   0  0  1  0  0  0  0  0  0  0  0  0
   -1.0681   -2.0671    0.0000 C   0  0  0  0  0  0  0  0  0  0  0  0
    0.3647   -2.0655    0.0000 O   0  0  0  0  0  0  0  0  0  0  0  0
   -1.0650   -2.8886    0.0000 C   0  0  1  0  0  0  0  0  0  0  0  0
    0.3647   -2.8888    0.0000 C   0  0  2  0  0  0  0  0  0  0  0  0
   -0.3561   -3.3038    0.0000 C   0  0  2  0  0  0  0  0  0  0  0  0
   -1.7781   -3.3030    0.0000 O   0  0  0  0  0  0  0  0  0  0  0  0
    1.0766   -3.3023    0.0000 C   0  0  0  0  0  0  0  0  0  0  0  0
   -0.3531   -4.1253    0.0000 O   0  0  0  0  0  0  0  0  0  0  0  0
   -2.4929   -2.8913    0.0000 C   0  0  0  0  0  0  0  0  0  0  0  0
    1.0766   -0.0018    0.0000 C   0  0  1  0  0  0  0  0  0  0  0  0
    1.7893    0.4121    0.0000 C   0  0  1  0  0  0  0  0  0  0  0  0
    1.0796   -0.8260    0.0000 O   0  0  0  0  0  0  0  0  0  0  0  0
    2.5050    0.0017    0.0000 C   0  0  2  0  0  0  0  0  0  0  0  0
    1.7837    1.2460    0.0000 O   0  0  0  0  0  0  0  0  0  0  0  0
    1.7922   -1.2346    0.0000 C   0  0  1  0  0  0  0  0  0  0  0  0
    2.5050   -0.8206    0.0000 C   0  0  0  0  0  0  0  0  0  0  0  0
    3.2176    0.4157    0.0000 N   0  0  0  0  0  0  0  0  0  0  0  0
    3.2086    1.2436    0.0000 C   0  0  0  0  0  0  0  0  0  0  0  0
    3.9303    0.0071    0.0000 C   0  0  0  0  0  0  0  0  0  0  0  0
    1.7945   -2.0594    0.0000 C   0  0  0  0  0  0  0  0  0  0  0  0
   -1.7822    1.6424    0.0000 O   0  0  0  0  0  0  0  0  0  0  0  0
  1  2  1  0  0  0  0
  1  3  1  1  0  0  0
  1  4  1  0  0  0  0
  1  5  1  0  0  0  0
  4  6  1  0  0  0  0
  5  7  1  0  0  0  0
  5  8  2  0  0  0  0
  6  9  1  0  0  0  0
  6 10  1  6  0  0  0
  7 11  1  0  0  0  0
  7 12  1  1  0  0  0
  9 13  1  0  0  0  0
  9 14  1  6  0  0  0
 11 15  1  0  0  0  0
 13 16  1  0  0  0  0
 13 17  1  6  0  0  0
 15 18  1  0  0  0  0
 15 19  1  6  0  0  0
 16 20  1  6  0  0  0
 16 21  1  0  0  0  0
 18 22  1  0  0  0  0
 18 23  1  6  0  0  0
 21 24  1  0  0  0  0
 21 25  1  1  0  0  0
 24 26  2  0  0  0  0
  2  3  1  0  0  0  0
 22 24  1  0  0  0  0
 27 28  1  0  0  0  0
 27 29  1  0  0  0  0
 28 30  1  0  0  0  0
 29 31  1  0  0  0  0
 30 32  1  0  0  0  0
 30 33  1  1  0  0  0
 31 34  1  1  0  0  0
 32 35  1  6  0  0  0
 33 36  1  0  0  0  0
 31 32  1  0  0  0  0
 27 20  1  6  0  0  0
 37 38  1  0  0  0  0
 37 39  1  0  0  0  0
 38 40  1  0  0  0  0
 38 41  1  6  0  0  0
 39 42  1  0  0  0  0
 40 43  1  0  0  0  0
 40 44  1  1  0  0  0
 44 45  1  0  0  0  0
 44 46  1  0  0  0  0
 42 43  1  0  0  0  0
 42 47  1  1  0  0  0
 37 14  1  1  0  0  0
 11 48  1  1  0  0  0
M  END
> <DATABASE_ID>
DB11442

> <DATABASE_NAME>
drugbank

> <SMILES>
CO[C@H]1C[C@H](O[C@H]2[C@H](C)[C@@H](O[C@@H]3O[C@H](C)C[C@@H]([C@H]3O)N(C)C)[C@@H](C)C[C@@]3(CO3)C(=O)[C@H](C)[C@@H](O)[C@@H](C)[C@@H](C)OC(=O)[C@@H]2C)O[C@@H](C)[C@@H]1O

> <INCHI_IDENTIFIER>
InChI=1S/C35H61NO12/c1-16-14-35(15-43-35)32(40)19(4)27(37)18(3)22(7)46-33(41)21(6)31(47-26-13-25(42-11)28(38)23(8)45-26)20(5)30(16)48-34-29(39)24(36(9)10)12-17(2)44-34/h16-31,34,37-39H,12-15H2,1-11H3/t16-,17+,18-,19+,20+,21+,22+,23-,24-,25-,26-,27-,28-,29+,30-,31-,34-,35+/m0/s1

> <INCHI_KEY>
RZPAKFUAFGMUPI-QESOVKLGSA-N

> <FORMULA>
C35H61NO12

> <MOLECULAR_WEIGHT>
687.868

> <EXACT_MASS>
687.419376408

> <JCHEM_ACCEPTOR_COUNT>
12

> <JCHEM_ATOM_COUNT>
109

> <JCHEM_AVERAGE_POLARIZABILITY>
73.86662087140436

> <JCHEM_BIOAVAILABILITY>
0

> <JCHEM_DONOR_COUNT>
3

> <JCHEM_FORMAL_CHARGE>
0

> <JCHEM_GHOSE_FILTER>
0

> <JCHEM_IUPAC>
(3R,5R,6S,7R,8R,11R,12S,13R,14S,15S)-14-{[(2S,3R,4S,6R)-4-(dimethylamino)-3-hydroxy-6-methyloxan-2-yl]oxy}-6-hydroxy-12-{[(2R,4S,5S,6S)-5-hydroxy-4-methoxy-6-methyloxan-2-yl]oxy}-5,7,8,11,13,15-hexamethyl-1,9-dioxaspiro[2.13]hexadecane-4,10-dione

> <ALOGPS_LOGP>
1.46

> <JCHEM_LOGP>
2.975138413666669

> <ALOGPS_LOGS>
-3.23

> <JCHEM_MDDR_LIKE_RULE>
1

> <JCHEM_NUMBER_OF_RINGS>
4

> <JCHEM_PHYSIOLOGICAL_CHARGE>
1

> <JCHEM_PKA>
13.338767048116424

> <JCHEM_PKA_STRONGEST_ACIDIC>
12.674957242517467

> <JCHEM_PKA_STRONGEST_BASIC>
9.002299295084537

> <JCHEM_POLAR_SURFACE_AREA>
162.68

> <JCHEM_REFRACTIVITY>
173.6925

> <JCHEM_ROTATABLE_BOND_COUNT>
6

> <JCHEM_RULE_OF_FIVE>
0

> <ALOGPS_SOLUBILITY>
4.07e-01 g/l

> <JCHEM_TRADITIONAL_IUPAC>
4-[(2S)-2-{[(3S)-1-{[1,1'-biphenyl]-4-ylmethyl}-2-oxoazepan-3-yl]carbamoyl}-2-acetamidoethyl]-2-formylphenoxyphosphonic acid

> <JCHEM_VEBER_RULE>
0

> <DRUGBANK_ID>
DB11442

> <DRUG_GROUPS>
vet_approved

> <GENERIC_NAME>
Oleandomycin

> <SYNONYMS>
Amimycin; Landomycin; Matromycin; Oleandomycin; Oleandomycine; Oleandomycinum; Romicil

> <SALTS>
Oleandomycin hydrochloride; Oleandomycin phosphate

$$$$
