
  Mrv1909 05262019192D          

 22 25  0  0  0  0            999 V2000
    1.0304    1.5493    0.0000 C   0  0  0  0  0  0  0  0  0  0  0  0
    1.0305    0.1204    0.0000 C   0  0  2  0  0  0  0  0  0  0  0  0
    1.8554    0.1203    0.0000 C   0  0  0  0  0  0  0  0  0  0  0  0
    2.2679    0.8348    0.0000 C   0  0  0  0  0  0  0  0  0  0  0  0
   -0.9819   -1.2879    0.0000 C   0  0  0  0  0  0  0  0  0  0  0  0
   -0.2674   -1.7005    0.0000 C   0  0  0  0  0  0  0  0  0  0  0  0
    1.8555    1.5493    0.0000 C   0  0  2  0  0  0  0  0  0  0  0  0
    2.2680    2.2638    0.0000 O   0  0  0  0  0  0  0  0  0  0  0  0
   -0.2673   -0.0504    0.0000 C   0  0  0  0  0  0  0  0  0  0  0  0
   -0.1206    0.7614    0.0000 O   0  0  0  0  0  0  0  0  0  0  0  0
    0.6180    0.8349    0.0000 C   0  0  1  0  0  0  0  0  0  0  0  0
    0.2055    1.5493    0.0000 H   0  0  0  0  0  0  0  0  0  0  0  0
   -0.9819   -0.4628    0.0000 C   0  0  0  0  0  0  0  0  0  0  0  0
    0.4471   -0.4628    0.0000 C   0  0  0  0  0  0  0  0  0  0  0  0
    0.4471   -1.2879    0.0000 C   0  0  0  0  0  0  0  0  0  0  0  0
    1.0921   -1.8023    0.0000 C   0  0  0  0  0  0  0  0  0  0  0  0
    2.2544   -0.8755    0.0000 C   0  0  0  0  0  0  0  0  0  0  0  0
    1.8964   -0.1322    0.0000 C   0  0  0  0  0  0  0  0  0  0  0  0
    1.8964   -1.6188    0.0000 N   0  0  0  0  0  0  0  0  0  0  0  0
    2.4108   -2.2638    0.0000 C   0  0  0  0  0  0  0  0  0  0  0  0
   -1.6963   -0.0505    0.0000 O   0  0  0  0  0  0  0  0  0  0  0  0
   -2.4108   -0.4629    0.0000 C   0  0  0  0  0  0  0  0  0  0  0  0
  1 11  1  0  0  0  0
  1  7  1  0  0  0  0
 11  2  1  0  0  0  0
  3  4  2  0  0  0  0
  4  7  1  0  0  0  0
  5  6  2  0  0  0  0
  5 13  1  0  0  0  0
  6 15  1  0  0  0  0
 14  9  1  0  0  0  0
  9 13  2  0  0  0  0
 14  2  1  0  0  0  0
  7  8  1  1  0  0  0
  9 10  1  0  0  0  0
 10 11  1  0  0  0  0
 11 12  1  6  0  0  0
 13 21  1  0  0  0  0
 15 16  1  0  0  0  0
 16 19  1  0  0  0  0
 19 17  1  0  0  0  0
 17 18  1  0  0  0  0
 19 20  1  0  0  0  0
 15 14  2  0  0  0  0
  3  2  1  0  0  0  0
  2 18  1  6  0  0  0
 21 22  1  0  0  0  0
M  END
> <DATABASE_ID>
DB00674

> <DATABASE_NAME>
drugbank

> <SMILES>
[H][C@]12C[C@@H](O)C=C[C@]11CCN(C)CC3=C1C(O2)=C(OC)C=C3

> <INCHI_IDENTIFIER>
InChI=1S/C17H21NO3/c1-18-8-7-17-6-5-12(19)9-14(17)21-16-13(20-2)4-3-11(10-18)15(16)17/h3-6,12,14,19H,7-10H2,1-2H3/t12-,14-,17-/m0/s1

> <INCHI_KEY>
ASUTZQLVASHGKV-JDFRZJQESA-N

> <FORMULA>
C17H21NO3

> <MOLECULAR_WEIGHT>
287.3535

> <EXACT_MASS>
287.152143543

> <JCHEM_ACCEPTOR_COUNT>
4

> <JCHEM_ATOM_COUNT>
42

> <JCHEM_AVERAGE_NEUTRAL_MICROSPECIES_CHARGE>
1.001319156772398

> <JCHEM_AVERAGE_POLARIZABILITY>
31.4971628606105

> <JCHEM_BIOAVAILABILITY>
1

> <JCHEM_DONOR_COUNT>
1

> <JCHEM_FORMAL_CHARGE>
0

> <JCHEM_GHOSE_FILTER>
1

> <JCHEM_IUPAC>
(1S,12S,14R)-9-methoxy-4-methyl-11-oxa-4-azatetracyclo[8.6.1.0^{1,12}.0^{6,17}]heptadeca-6(17),7,9,15-tetraen-14-ol

> <JCHEM_LOGP>
1.163042803666667

> <JCHEM_MDDR_LIKE_RULE>
0

> <JCHEM_NEUTRAL_CHARGE>
1

> <JCHEM_NUMBER_OF_RINGS>
4

> <JCHEM_PHYSIOLOGICAL_CHARGE>
1

> <JCHEM_PKA_STRONGEST_ACIDIC>
14.810376387658271

> <JCHEM_PKA_STRONGEST_BASIC>
8.57875742826793

> <JCHEM_POLAR_SURFACE_AREA>
41.93000000000001

> <JCHEM_REFRACTIVITY>
82.3049

> <JCHEM_ROTATABLE_BOND_COUNT>
1

> <JCHEM_RULE_OF_FIVE>
1

> <JCHEM_TRADITIONAL_IUPAC>
(1S,12S,14R)-9-methoxy-4-methyl-11-oxa-4-azatetracyclo[8.6.1.0^{1,12}.0^{6,17}]heptadeca-6(17),7,9,15-tetraen-14-ol

> <JCHEM_VEBER_RULE>
0

> <DRUGBANK_ID>
DB00674

> <SECONDARY_ACCESSION_NUMBERS>
APRD00206; EXPT01628

> <DRUG_GROUPS>
approved

> <GENERIC_NAME>
Galantamine

> <SYNONYMS>
(-)-Galanthamine; Galantamina; Galantamine; Galanthamine

> <PRODUCTS>
Apo-galantamine; Auro-galantamine ER; Galantamine; Galantamine ER; Galantamine Hydrobromide; Galantamine hydrobromide; Ipg-galantamine ER; Mar-galantamine ER; Mylan-galantamine ER; PMS-galantamine; PMS-galantamine ER; Pat-galantamine ER; Pendo-galantamine ER; Ratio-galantamine; Razadyne; Reminyl -(12mg); Reminyl -(4mg); Reminyl -(8mg); Reminyl ER; Sandoz Galantamine ER; Teva-galantamine ER

> <INTERNATIONAL_BRANDS>
Lycoremine; Nivalin; Reminyl

> <SALTS>
Galantamine hydrobromide

$$$$
