
  Mrv1909 05201915112D          

 30 35  0  0  0  0            999 V2000
    3.6705   -1.3465    0.0000 N   0  0  0  0  0  0  0  0  0  0  0  0
    3.4990   -0.5396    0.0000 C   0  0  0  0  0  0  0  0  0  0  0  0
    2.7845   -0.1271    0.0000 C   0  0  0  0  0  0  0  0  0  0  0  0
    2.7845    0.6979    0.0000 C   0  0  0  0  0  0  0  0  0  0  0  0
    3.4990    1.1104    0.0000 C   0  0  0  0  0  0  0  0  0  0  0  0
    4.2135    0.6979    0.0000 C   0  0  0  0  0  0  0  0  0  0  0  0
    4.2135   -0.1271    0.0000 C   0  0  0  0  0  0  0  0  0  0  0  0
    4.8266   -0.6791    0.0000 N   0  0  0  0  0  0  0  0  0  0  0  0
    4.4910   -1.4328    0.0000 C   0  0  0  0  0  0  0  0  0  0  0  0
    4.9035   -2.1472    0.0000 C   0  0  0  0  0  0  0  0  0  0  0  0
    5.7285   -2.1472    0.0000 C   0  0  0  0  0  0  0  0  0  0  0  0
    6.1410   -2.8617    0.0000 C   0  0  0  0  0  0  0  0  0  0  0  0
    5.7285   -3.5762    0.0000 N   0  0  0  0  0  0  0  0  0  0  0  0
    4.9035   -3.5762    0.0000 C   0  0  0  0  0  0  0  0  0  0  0  0
    4.4910   -2.8617    0.0000 C   0  0  0  0  0  0  0  0  0  0  0  0
    2.0701    1.1104    0.0000 C   0  0  0  0  0  0  0  0  0  0  0  0
    1.3556    0.6979    0.0000 C   0  0  0  0  0  0  0  0  0  0  0  0
    0.6411    1.1104    0.0000 C   0  0  0  0  0  0  0  0  0  0  0  0
    0.6411    1.9354    0.0000 C   0  0  0  0  0  0  0  0  0  0  0  0
    1.3556    2.3479    0.0000 C   0  0  0  0  0  0  0  0  0  0  0  0
    2.0701    1.9354    0.0000 C   0  0  0  0  0  0  0  0  0  0  0  0
   -0.1435    2.1904    0.0000 N   0  0  0  0  0  0  0  0  0  0  0  0
   -0.6284    1.5229    0.0000 C   0  0  0  0  0  0  0  0  0  0  0  0
   -0.1435    0.8555    0.0000 N   0  0  0  0  0  0  0  0  0  0  0  0
   -1.4534    1.5229    0.0000 C   0  0  0  0  0  0  0  0  0  0  0  0
   -1.8659    0.8085    0.0000 C   0  0  0  0  0  0  0  0  0  0  0  0
   -2.6909    0.8085    0.0000 C   0  0  0  0  0  0  0  0  0  0  0  0
   -3.1034    1.5229    0.0000 N   0  0  0  0  0  0  0  0  0  0  0  0
   -2.6909    2.2374    0.0000 C   0  0  0  0  0  0  0  0  0  0  0  0
   -1.8659    2.2374    0.0000 C   0  0  0  0  0  0  0  0  0  0  0  0
  1  2  1  0  0  0  0
  2  3  2  0  0  0  0
  3  4  1  0  0  0  0
  4  5  2  0  0  0  0
  5  6  1  0  0  0  0
  6  7  2  0  0  0  0
  2  7  1  0  0  0  0
  7  8  1  0  0  0  0
  8  9  2  0  0  0  0
  1  9  1  0  0  0  0
  9 10  1  0  0  0  0
 10 11  2  0  0  0  0
 11 12  1  0  0  0  0
 12 13  2  0  0  0  0
 13 14  1  0  0  0  0
 14 15  2  0  0  0  0
 10 15  1  0  0  0  0
  4 16  1  0  0  0  0
 16 17  2  0  0  0  0
 17 18  1  0  0  0  0
 18 19  2  0  0  0  0
 19 20  1  0  0  0  0
 20 21  2  0  0  0  0
 16 21  1  0  0  0  0
 19 22  1  0  0  0  0
 22 23  2  0  0  0  0
 23 24  1  0  0  0  0
 18 24  1  0  0  0  0
 23 25  1  0  0  0  0
 25 26  2  0  0  0  0
 26 27  1  0  0  0  0
 27 28  2  0  0  0  0
 28 29  1  0  0  0  0
 29 30  2  0  0  0  0
 25 30  1  0  0  0  0
M  END
> <DATABASE_ID>
DB15308

> <DATABASE_NAME>
drugbank

> <SMILES>
N1C2=CC(=CC=C2N=C1C1=CC=NC=C1)C1=CC2=C(C=C1)N=C(N2)C1=CC=NC=C1

> <INCHI_IDENTIFIER>
InChI=1S/C24H16N6/c1-3-19-21(29-23(27-19)15-5-9-25-10-6-15)13-17(1)18-2-4-20-22(14-18)30-24(28-20)16-7-11-26-12-8-16/h1-14H,(H,27,29)(H,28,30)

> <INCHI_KEY>
UHQFBTAJFNVZIV-UHFFFAOYSA-N

> <FORMULA>
C24H16N6

> <MOLECULAR_WEIGHT>
388.434

> <EXACT_MASS>
388.143644539

> <JCHEM_ACCEPTOR_COUNT>
4

> <JCHEM_ATOM_COUNT>
46

> <JCHEM_AVERAGE_POLARIZABILITY>
44.1843439957182

> <JCHEM_BIOAVAILABILITY>
1

> <JCHEM_DONOR_COUNT>
2

> <JCHEM_FORMAL_CHARGE>
0

> <JCHEM_GHOSE_FILTER>
0

> <JCHEM_IUPAC>
2-(pyridin-4-yl)-6-[2-(pyridin-4-yl)-1H-1,3-benzodiazol-6-yl]-1H-1,3-benzodiazole

> <ALOGPS_LOGP>
4.11

> <JCHEM_LOGP>
3.807183188666666

> <ALOGPS_LOGS>
-4.78

> <JCHEM_MDDR_LIKE_RULE>
0

> <JCHEM_NUMBER_OF_RINGS>
6

> <JCHEM_PHYSIOLOGICAL_CHARGE>
0

> <JCHEM_PKA>
11.576245862138844

> <JCHEM_PKA_STRONGEST_ACIDIC>
10.96901970827512

> <JCHEM_PKA_STRONGEST_BASIC>
5.41131230222191

> <JCHEM_POLAR_SURFACE_AREA>
83.14

> <JCHEM_REFRACTIVITY>
134.90460000000002

> <JCHEM_ROTATABLE_BOND_COUNT>
3

> <JCHEM_RULE_OF_FIVE>
1

> <ALOGPS_SOLUBILITY>
6.50e-03 g/l

> <JCHEM_TRADITIONAL_IUPAC>
(2R)-14-fluoro-2-methyl-6,9,10,19-tetraazapentacyclo[14.2.1.0^{2,6}.0^{8,18}.0^{12,17}]nonadeca-1(18),8,12(17),13,15-pentaen-11-one

> <JCHEM_VEBER_RULE>
0

> <DRUGBANK_ID>
DB15308

> <DRUG_GROUPS>
investigational

> <GENERIC_NAME>
Ridinilazole

> <SYNONYMS>
Ridinilazole

$$$$
