
  Mrv1572001261619122D          

 35 38  0  0  0  0            999 V2000
   -0.1443    0.0000    0.0000 C   0  0  2  0  0  0  0  0  0  0  0  0
   -0.1443   -0.8250    0.0000 N   0  0  0  0  0  0  0  0  0  0  0  0
    0.5981   -1.2375    0.0000 C   0  0  0  0  0  0  0  0  0  0  0  0
    1.2993   -0.8250    0.0000 C   0  0  0  0  0  0  0  0  0  0  0  0
    1.2993    0.0000    0.0000 C   0  0  0  0  0  0  0  0  0  0  0  0
    0.5981    0.4125    0.0000 S   0  0  0  0  0  0  0  0  0  0  0  0
   -0.9281    0.0000    0.0000 C   0  0  1  0  0  0  0  0  0  0  0  0
   -0.9281   -0.8250    0.0000 C   0  0  0  0  0  0  0  0  0  0  0  0
   -1.6706    0.4125    0.0000 N   0  0  0  0  0  0  0  0  0  0  0  0
   -2.3718    0.0000    0.0000 C   0  0  0  0  0  0  0  0  0  0  0  0
   -2.3718   -0.8250    0.0000 O   0  0  0  0  0  0  0  0  0  0  0  0
   -1.6706   -1.2375    0.0000 O   0  0  0  0  0  0  0  0  0  0  0  0
   -3.0731    0.4125    0.0000 C   0  0  0  0  0  0  0  0  0  0  0  0
    2.0006   -1.2375    0.0000 C   0  0  0  0  0  0  0  0  0  0  0  0
   -3.8156    0.0000    0.0000 C   0  0  0  0  0  0  0  0  0  0  0  0
   -0.1443    0.8250    0.0000 H   0  0  0  0  0  0  0  0  0  0  0  0
   -4.4756    0.4950    0.0000 C   0  0  0  0  0  0  0  0  0  0  0  0
   -5.1356    0.0000    0.0000 S   0  0  0  0  0  0  0  0  0  0  0  0
   -4.8881   -0.8250    0.0000 C   0  0  0  0  0  0  0  0  0  0  0  0
   -4.0631   -0.8250    0.0000 N   0  0  0  0  0  0  0  0  0  0  0  0
   -3.0731    1.2375    0.0000 N   0  0  0  0  0  0  0  0  0  0  0  0
    0.5981   -2.0625    0.0000 C   0  0  0  0  0  0  0  0  0  0  0  0
    1.2993   -2.4750    0.0000 O   0  0  0  0  0  0  0  0  0  0  0  0
   -0.1443   -2.4750    0.0000 O   0  0  0  0  0  0  0  0  0  0  0  0
    2.7018   -0.8250    0.0000 S   0  0  0  0  0  0  0  0  0  0  0  0
    3.4031   -1.2375    0.0000 C   0  0  0  0  0  0  0  0  0  0  0  0
    4.1043   -0.8250    0.0000 C   0  0  0  0  0  0  0  0  0  0  0  0
    4.1043    0.0000    0.0000 C   0  0  0  0  0  0  0  0  0  0  0  0
    4.8881   -1.0725    0.0000 O   0  0  0  0  0  0  0  0  0  0  0  0
    5.3831   -0.4125    0.0000 C   0  0  0  0  0  0  0  0  0  0  0  0
    4.8881    0.2475    0.0000 C   0  0  0  0  0  0  0  0  0  0  0  0
   -5.3831   -1.4850    0.0000 N   0  0  0  0  0  0  0  0  0  0  0  0
    3.4031   -2.0625    0.0000 O   0  0  0  0  0  0  0  0  0  0  0  0
   -2.3718    1.6500    0.0000 O   0  0  0  0  0  0  0  0  0  0  0  0
   -2.3718    2.4750    0.0000 C   0  0  0  0  0  0  0  0  0  0  0  0
  1  2  1  0  0  0  0
  2  3  1  0  0  0  0
  3  4  2  0  0  0  0
  4  5  1  0  0  0  0
  5  6  1  0  0  0  0
  1  6  1  0  0  0  0
  1  7  1  0  0  0  0
  7  8  1  0  0  0  0
  2  8  1  0  0  0  0
  7  9  1  1  0  0  0
  9 10  1  0  0  0  0
 10 11  2  0  0  0  0
  8 12  2  0  0  0  0
 10 13  1  0  0  0  0
  4 14  1  0  0  0  0
 13 15  1  0  0  0  0
  1 16  1  6  0  0  0
 15 17  2  0  0  0  0
 17 18  1  0  0  0  0
 18 19  1  0  0  0  0
 19 20  2  0  0  0  0
 15 20  1  0  0  0  0
 13 21  2  0  0  0  0
  3 22  1  0  0  0  0
 22 23  1  0  0  0  0
 22 24  2  0  0  0  0
 14 25  1  0  0  0  0
 25 26  1  0  0  0  0
 26 27  1  0  0  0  0
 27 28  2  0  0  0  0
 27 29  1  0  0  0  0
 29 30  1  0  0  0  0
 30 31  2  0  0  0  0
 28 31  1  0  0  0  0
 19 32  1  0  0  0  0
 26 33  2  0  0  0  0
 21 34  1  0  0  0  0
 34 35  1  0  0  0  0
M  END
> <DATABASE_ID>
DB11485

> <DATABASE_NAME>
drugbank

> <SMILES>
[H][C@]12SCC(CSC(=O)C3=CC=CO3)=C(N1C(=O)[C@H]2NC(=O)C(=N/OC)\C1=CSC(N)=N1)C(O)=O

> <INCHI_IDENTIFIER>
InChI=1S/C19H17N5O7S3/c1-30-23-11(9-7-34-19(20)21-9)14(25)22-12-15(26)24-13(17(27)28)8(5-32-16(12)24)6-33-18(29)10-3-2-4-31-10/h2-4,7,12,16H,5-6H2,1H3,(H2,20,21)(H,22,25)(H,27,28)/b23-11-/t12-,16-/m1/s1

> <INCHI_KEY>
ZBHXIWJRIFEVQY-IHMPYVIRSA-N

> <FORMULA>
C19H17N5O7S3

> <MOLECULAR_WEIGHT>
523.55

> <EXACT_MASS>
523.029011429

> <JCHEM_ACCEPTOR_COUNT>
9

> <JCHEM_ATOM_COUNT>
51

> <JCHEM_AVERAGE_POLARIZABILITY>
49.82596019385111

> <JCHEM_BIOAVAILABILITY>
1

> <JCHEM_DONOR_COUNT>
3

> <JCHEM_FORMAL_CHARGE>
0

> <JCHEM_GHOSE_FILTER>
0

> <JCHEM_IUPAC>
(6R,7R)-7-[(2Z)-2-(2-amino-1,3-thiazol-4-yl)-2-(methoxyimino)acetamido]-3-[(furan-2-carbonylsulfanyl)methyl]-8-oxo-5-thia-1-azabicyclo[4.2.0]oct-2-ene-2-carboxylic acid

> <ALOGPS_LOGP>
1.22

> <JCHEM_LOGP>
-0.42835950370902737

> <ALOGPS_LOGS>
-3.70

> <JCHEM_MDDR_LIKE_RULE>
1

> <JCHEM_NUMBER_OF_RINGS>
4

> <JCHEM_PHYSIOLOGICAL_CHARGE>
-1

> <JCHEM_PKA>
10.756717003917354

> <JCHEM_PKA_STRONGEST_ACIDIC>
2.833695394661705

> <JCHEM_PKA_STRONGEST_BASIC>
4.190835797704258

> <JCHEM_POLAR_SURFACE_AREA>
177.42

> <JCHEM_REFRACTIVITY>
124.51459999999997

> <JCHEM_ROTATABLE_BOND_COUNT>
9

> <JCHEM_RULE_OF_FIVE>
0

> <ALOGPS_SOLUBILITY>
1.05e-01 g/l

> <JCHEM_TRADITIONAL_IUPAC>
ceftiofur

> <JCHEM_VEBER_RULE>
0

> <DRUGBANK_ID>
DB11485

> <DRUG_GROUPS>
vet_approved

> <GENERIC_NAME>
Ceftiofur

> <SYNONYMS>
Ceftiofur; Ceftiofur crystalline free acid

> <SALTS>
Ceftiofur hydrochloride; Ceftiofur sodium

$$$$
