
  Mrv1909 01302015152D          

 71 70  0  0  0  0            999 V2000
   -6.7875    2.2687    0.0000 C   0  0  0  0  0  0  0  0  0  0  0  0
    8.2164    0.2062    0.0000 C   0  0  0  0  0  0  0  0  0  0  0  0
    3.2151    1.4437    0.0000 C   0  0  0  0  0  0  0  0  0  0  0  0
   -0.3571   -1.4437    0.0000 C   0  0  0  0  0  0  0  0  0  0  0  0
   -1.0716    1.4437    0.0000 C   0  0  0  0  0  0  0  0  0  0  0  0
    7.5019   -0.2062    0.0000 C   0  0  0  0  0  0  0  0  0  0  0  0
    4.6441   -1.0312    0.0000 C   0  0  0  0  0  0  0  0  0  0  0  0
    2.5006    1.0312    0.0000 C   0  0  0  0  0  0  0  0  0  0  0  0
    0.3572   -1.0312    0.0000 C   0  0  0  0  0  0  0  0  0  0  0  0
   -1.7861    1.0312    0.0000 C   0  0  0  0  0  0  0  0  0  0  0  0
    8.9309   -0.2062    0.0000 C   0  0  0  0  0  0  0  0  0  0  0  0
    3.2151    2.2687    0.0000 C   0  0  0  0  0  0  0  0  0  0  0  0
   -0.3571   -2.2687    0.0000 C   0  0  0  0  0  0  0  0  0  0  0  0
   -1.0716    2.2687    0.0000 C   0  0  0  0  0  0  0  0  0  0  0  0
   -8.9309    0.2062    0.0000 C   0  0  0  0  0  0  0  0  0  0  0  0
   -6.7875   -0.2062    0.0000 C   0  0  0  0  0  0  0  0  0  0  0  0
   -6.7875    1.4437    0.0000 C   0  0  0  0  0  0  0  0  0  0  0  0
   -9.6454   -0.2062    0.0000 C   0  0  1  0  0  0  0  0  0  0  0  0
    6.7875    0.2062    0.0000 C   0  0  2  0  0  0  0  0  0  0  0  0
    4.6441   -0.2062    0.0000 C   0  0  2  0  0  0  0  0  0  0  0  0
    2.5006    0.2062    0.0000 C   0  0  2  0  0  0  0  0  0  0  0  0
    0.3572   -0.2062    0.0000 C   0  0  2  0  0  0  0  0  0  0  0  0
   -1.7861    0.2062    0.0000 C   0  0  2  0  0  0  0  0  0  0  0  0
   -6.0729    0.2062    0.0000 C   0  0  2  0  0  0  0  0  0  0  0  0
    6.7875    1.0312    0.0000 C   0  0  0  0  0  0  0  0  0  0  0  0
    5.3585    0.2062    0.0000 C   0  0  0  0  0  0  0  0  0  0  0  0
    3.2151   -0.2062    0.0000 C   0  0  0  0  0  0  0  0  0  0  0  0
    1.0717    0.2062    0.0000 C   0  0  0  0  0  0  0  0  0  0  0  0
   -1.0716   -0.2062    0.0000 C   0  0  0  0  0  0  0  0  0  0  0  0
   -5.3584   -0.2062    0.0000 C   0  0  0  0  0  0  0  0  0  0  0  0
  -10.3597    0.2062    0.0000 C   0  0  0  0  0  0  0  0  0  0  0  0
   10.3598   -0.2062    0.0000 C   0  0  0  0  0  0  0  0  0  0  0  0
    3.9296    3.5062    0.0000 C   0  0  0  0  0  0  0  0  0  0  0  0
   -1.0716   -3.5062    0.0000 C   0  0  0  0  0  0  0  0  0  0  0  0
   -0.3571    3.5062    0.0000 C   0  0  0  0  0  0  0  0  0  0  0  0
   -9.6454   -1.0312    0.0000 N   0  0  0  0  0  0  0  0  0  0  0  0
    6.0730    1.4437    0.0000 N   0  0  0  0  0  0  0  0  0  0  0  0
   11.0743    0.2062    0.0000 N   0  0  0  0  0  0  0  0  0  0  0  0
   10.3598   -1.0312    0.0000 N   0  0  0  0  0  0  0  0  0  0  0  0
    3.2151    3.9187    0.0000 N   0  0  0  0  0  0  0  0  0  0  0  0
    4.6441    3.9187    0.0000 N   0  0  0  0  0  0  0  0  0  0  0  0
   -0.3571   -3.9187    0.0000 N   0  0  0  0  0  0  0  0  0  0  0  0
   -1.7861   -3.9187    0.0000 N   0  0  0  0  0  0  0  0  0  0  0  0
   -1.0716    3.9187    0.0000 N   0  0  0  0  0  0  0  0  0  0  0  0
    0.3572    3.9187    0.0000 N   0  0  0  0  0  0  0  0  0  0  0  0
    9.6454    0.2062    0.0000 N   0  0  0  0  0  0  0  0  0  0  0  0
    3.9296    2.6812    0.0000 N   0  0  0  0  0  0  0  0  0  0  0  0
   -1.0716   -2.6812    0.0000 N   0  0  0  0  0  0  0  0  0  0  0  0
   -0.3571    2.6812    0.0000 N   0  0  0  0  0  0  0  0  0  0  0  0
   -6.0729    1.0312    0.0000 N   0  0  0  0  0  0  0  0  0  0  0  0
    6.0730   -0.2062    0.0000 N   0  0  0  0  0  0  0  0  0  0  0  0
    3.9296    0.2062    0.0000 N   0  0  0  0  0  0  0  0  0  0  0  0
    1.7862   -0.2062    0.0000 N   0  0  0  0  0  0  0  0  0  0  0  0
   -0.3571    0.2062    0.0000 N   0  0  0  0  0  0  0  0  0  0  0  0
   -4.6440    0.2062    0.0000 N   0  0  0  0  0  0  0  0  0  0  0  0
   -7.5020    1.0312    0.0000 O   0  0  0  0  0  0  0  0  0  0  0  0
    7.5019    1.4437    0.0000 O   0  0  0  0  0  0  0  0  0  0  0  0
    5.3585    1.0312    0.0000 O   0  0  0  0  0  0  0  0  0  0  0  0
    3.2151   -1.0312    0.0000 O   0  0  0  0  0  0  0  0  0  0  0  0
    1.0717    1.0312    0.0000 O   0  0  0  0  0  0  0  0  0  0  0  0
   -1.0716   -1.0312    0.0000 O   0  0  0  0  0  0  0  0  0  0  0  0
   -5.3584   -1.0312    0.0000 O   0  0  0  0  0  0  0  0  0  0  0  0
  -11.0743   -0.2062    0.0000 O   0  0  0  0  0  0  0  0  0  0  0  0
  -10.3597    1.0312    0.0000 O   0  0  0  0  0  0  0  0  0  0  0  0
   -8.2164   -0.2062    0.0000 S   0  0  0  0  0  0  0  0  0  0  0  0
   -7.5020    0.2062    0.0000 S   0  0  0  0  0  0  0  0  0  0  0  0
   -3.9295   -0.2062    0.0000 C   0  0  1  0  0  0  0  0  0  0  0  0
   -3.2150    0.2062    0.0000 C   0  0  0  0  0  0  0  0  0  0  0  0
   -3.9295   -1.0312    0.0000 C   0  0  0  0  0  0  0  0  0  0  0  0
   -2.5006   -0.2062    0.0000 N   0  0  0  0  0  0  0  0  0  0  0  0
   -3.2150    1.0312    0.0000 O   0  0  0  0  0  0  0  0  0  0  0  0
  6  2  1  0  0  0  0
  8  3  1  0  0  0  0
  9  4  1  0  0  0  0
 10  5  1  0  0  0  0
 11  2  1  0  0  0  0
 12  3  1  0  0  0  0
 13  4  1  0  0  0  0
 14  5  1  0  0  0  0
 17  1  1  0  0  0  0
 18 15  1  0  0  0  0
 19  6  1  0  0  0  0
 20  7  1  0  0  0  0
 21  8  1  0  0  0  0
 22  9  1  0  0  0  0
 23 10  1  6  0  0  0
 24 16  1  0  0  0  0
 19 25  1  0  0  0  0
 20 26  1  0  0  0  0
 21 27  1  0  0  0  0
 22 28  1  0  0  0  0
 23 29  1  0  0  0  0
 24 30  1  0  0  0  0
 18 31  1  0  0  0  0
 18 36  1  6  0  0  0
 37 25  1  0  0  0  0
 38 32  2  0  0  0  0
 39 32  1  0  0  0  0
 40 33  2  0  0  0  0
 41 33  1  0  0  0  0
 42 34  2  0  0  0  0
 43 34  1  0  0  0  0
 44 35  2  0  0  0  0
 45 35  1  0  0  0  0
 46 11  1  0  0  0  0
 46 32  1  0  0  0  0
 47 12  1  0  0  0  0
 47 33  1  0  0  0  0
 48 13  1  0  0  0  0
 48 34  1  0  0  0  0
 49 14  1  0  0  0  0
 49 35  1  0  0  0  0
 50 17  1  0  0  0  0
 24 50  1  1  0  0  0
 19 51  1  1  0  0  0
 51 26  1  0  0  0  0
 20 52  1  1  0  0  0
 52 27  1  0  0  0  0
 21 53  1  6  0  0  0
 53 28  1  0  0  0  0
 22 54  1  1  0  0  0
 54 29  1  0  0  0  0
 55 30  1  0  0  0  0
 56 17  2  0  0  0  0
 57 25  2  0  0  0  0
 26 58  2  0  0  0  0
 27 59  2  0  0  0  0
 28 60  2  0  0  0  0
 29 61  2  0  0  0  0
 30 62  2  0  0  0  0
 63 31  2  0  0  0  0
 64 31  1  0  0  0  0
 65 15  1  0  0  0  0
 66 16  1  0  0  0  0
 66 65  1  0  0  0  0
 55 67  1  0  0  0  0
 67 68  1  0  0  0  0
 67 69  1  1  0  0  0
 68 70  1  0  0  0  0
 68 71  2  0  0  0  0
 70 23  1  0  0  0  0
M  END
> <DATABASE_ID>
DB12865

> <DATABASE_NAME>
drugbank

> <SMILES>
C[C@@H](NC(=O)[C@@H](CCCNC(N)=N)NC(=O)[C@@H](CCCNC(N)=N)NC(=O)[C@@H](CCCNC(N)=N)NC(=O)[C@@H](C)NC(=O)[C@@H](CSSC[C@H](N)C(O)=O)NC(C)=O)C(=O)N[C@H](CCCNC(N)=N)C(N)=O

> <INCHI_IDENTIFIER>
InChI=1S/C38H73N21O10S2/c1-18(28(62)56-22(27(40)61)8-4-12-49-35(41)42)53-30(64)23(9-5-13-50-36(43)44)58-32(66)25(11-7-15-52-38(47)48)59-31(65)24(10-6-14-51-37(45)46)57-29(63)19(2)54-33(67)26(55-20(3)60)17-71-70-16-21(39)34(68)69/h18-19,21-26H,4-17,39H2,1-3H3,(H2,40,61)(H,53,64)(H,54,67)(H,55,60)(H,56,62)(H,57,63)(H,58,66)(H,59,65)(H,68,69)(H4,41,42,49)(H4,43,44,50)(H4,45,46,51)(H4,47,48,52)/t18-,19-,21+,22-,23-,24-,25-,26-/m1/s1

> <INCHI_KEY>
ANIAZGVDEUQPRI-ZJQCGQFWSA-N

> <FORMULA>
C38H73N21O10S2

> <MOLECULAR_WEIGHT>
1048.26

> <EXACT_MASS>
1047.529069983

> <JCHEM_ACCEPTOR_COUNT>
23

> <JCHEM_ATOM_COUNT>
144

> <JCHEM_AVERAGE_NEUTRAL_MICROSPECIES_CHARGE>
3.9907740847277364

> <JCHEM_AVERAGE_POLARIZABILITY>
108.23004763531759

> <JCHEM_BIOAVAILABILITY>
0

> <JCHEM_DONOR_COUNT>
22

> <JCHEM_FORMAL_CHARGE>
0

> <JCHEM_GHOSE_FILTER>
0

> <JCHEM_IUPAC>
(2R)-2-amino-3-{[(2S)-2-{[(1R)-1-{[(1R)-4-carbamimidamido-1-{[(1R)-4-carbamimidamido-1-{[(1R)-4-carbamimidamido-1-{[(1R)-1-{[(1R)-4-carbamimidamido-1-carbamoylbutyl]carbamoyl}ethyl]carbamoyl}butyl]carbamoyl}butyl]carbamoyl}butyl]carbamoyl}ethyl]carbamoyl}-2-acetamidoethyl]disulfanyl}propanoic acid

> <ALOGPS_LOGP>
-3.35

> <JCHEM_LOGP>
-11.436233233227105

> <ALOGPS_LOGS>
-3.90

> <JCHEM_MDDR_LIKE_RULE>
0

> <JCHEM_NEUTRAL_CHARGE>
4

> <JCHEM_NUMBER_OF_RINGS>
0

> <JCHEM_PHYSIOLOGICAL_CHARGE>
4

> <JCHEM_PKA_STRONGEST_ACIDIC>
-1.338836015920784

> <JCHEM_PKA_STRONGEST_BASIC>
12.56791291965334

> <JCHEM_POLAR_SURFACE_AREA>
557.7099999999997

> <JCHEM_REFRACTIVITY>
303.6254000000001

> <JCHEM_ROTATABLE_BOND_COUNT>
36

> <JCHEM_RULE_OF_FIVE>
0

> <ALOGPS_SOLUBILITY>
1.32e-01 g/l

> <JCHEM_TRADITIONAL_IUPAC>
gabexate

> <JCHEM_VEBER_RULE>
0

> <DRUGBANK_ID>
DB12865

> <DRUG_GROUPS>
approved; investigational

> <GENERIC_NAME>
Etelcalcetide

> <SYNONYMS>
Etelcalcetida; Etelcalcetide; ételcalcétide; Etelcalcetidum; Velcalcetide

> <PRODUCTS>
Parsabiv

> <SALTS>
Etelcalcetide hydrochloride

$$$$
