
  Mrv1572004221603122D          

 25 28  0  0  0  0            999 V2000
    3.3523    1.1104    0.0000 C   0  0  0  0  0  0  0  0  0  0  0  0
    3.3523    1.9354    0.0000 C   0  0  0  0  0  0  0  0  0  0  0  0
    2.6378    0.6979    0.0000 C   0  0  0  0  0  0  0  0  0  0  0  0
    2.6378    2.3479    0.0000 C   0  0  0  0  0  0  0  0  0  0  0  0
    0.9894   -0.5656    0.0000 C   0  0  0  0  0  0  0  0  0  0  0  0
    2.2948    0.0156    0.0000 C   0  0  0  0  0  0  0  0  0  0  0  0
   -0.2902    0.8555    0.0000 C   0  0  0  0  0  0  0  0  0  0  0  0
    0.4243   -0.3820    0.0000 C   0  0  0  0  0  0  0  0  0  0  0  0
    1.3249   -1.3193    0.0000 C   0  0  0  0  0  0  0  0  0  0  0  0
    2.6303   -0.7381    0.0000 C   0  0  0  0  0  0  0  0  0  0  0  0
   -1.0047    0.4430    0.0000 C   0  0  0  0  0  0  0  0  0  0  0  0
   -0.2902   -0.7945    0.0000 C   0  0  0  0  0  0  0  0  0  0  0  0
    1.4743    0.1018    0.0000 C   0  0  0  0  0  0  0  0  0  0  0  0
    0.4243    0.4430    0.0000 C   0  0  0  0  0  0  0  0  0  0  0  0
    2.1454   -1.4055    0.0000 C   0  0  0  0  0  0  0  0  0  0  0  0
   -1.0047   -0.3820    0.0000 C   0  0  0  0  0  0  0  0  0  0  0  0
    1.9233    1.1104    0.0000 C   0  0  0  0  0  0  0  0  0  0  0  0
    1.9233    1.9354    0.0000 C   0  0  0  0  0  0  0  0  0  0  0  0
    1.1387    0.8555    0.0000 C   0  0  0  0  0  0  0  0  0  0  0  0
    2.4810   -2.1592    0.0000 O   0  0  0  0  0  0  0  0  0  0  0  0
   -1.7192   -0.7945    0.0000 O   0  0  0  0  0  0  0  0  0  0  0  0
    1.4743    2.9441    0.0000 O   0  0  0  0  0  0  0  0  0  0  0  0
    0.4243    2.6029    0.0000 O   0  0  0  0  0  0  0  0  0  0  0  0
    0.6538    1.5229    0.0000 O   0  0  0  0  0  0  0  0  0  0  0  0
    1.1387    2.1904    0.0000 S   0  0  0  0  0  0  0  0  0  0  0  0
  2  1  2  0  0  0  0
  3  1  1  0  0  0  0
  4  2  1  0  0  0  0
  9  5  1  0  0  0  0
 10  6  2  0  0  0  0
 11  7  1  0  0  0  0
 12  8  2  0  0  0  0
 13  5  2  0  0  0  0
 13  6  1  0  0  0  0
 14  7  2  0  0  0  0
 14  8  1  0  0  0  0
 15  9  2  0  0  0  0
 15 10  1  0  0  0  0
 16 11  2  0  0  0  0
 16 12  1  0  0  0  0
 17  3  2  0  0  0  0
 18  4  2  0  0  0  0
 18 17  1  0  0  0  0
 19 13  1  0  0  0  0
 19 14  1  0  0  0  0
 19 17  1  0  0  0  0
 20 15  1  0  0  0  0
 21 16  1  0  0  0  0
 24 19  1  0  0  0  0
 25 18  1  0  0  0  0
 25 22  2  0  0  0  0
 25 23  2  0  0  0  0
 25 24  1  0  0  0  0
M  END
> <DATABASE_ID>
DB13212

> <DATABASE_NAME>
drugbank

> <SMILES>
OC1=CC=C(C=C1)C1(OS(=O)(=O)C2=CC=CC=C12)C1=CC=C(O)C=C1

> <INCHI_IDENTIFIER>
InChI=1S/C19H14O5S/c20-15-9-5-13(6-10-15)19(14-7-11-16(21)12-8-14)17-3-1-2-4-18(17)25(22,23)24-19/h1-12,20-21H

> <INCHI_KEY>
BELBBZDIHDAJOR-UHFFFAOYSA-N

> <FORMULA>
C19H14O5S

> <MOLECULAR_WEIGHT>
354.38

> <EXACT_MASS>
354.056194725

> <JCHEM_ACCEPTOR_COUNT>
4

> <JCHEM_ATOM_COUNT>
39

> <JCHEM_AVERAGE_POLARIZABILITY>
34.899275171660136

> <JCHEM_BIOAVAILABILITY>
1

> <JCHEM_DONOR_COUNT>
2

> <JCHEM_FORMAL_CHARGE>
0

> <JCHEM_GHOSE_FILTER>
1

> <JCHEM_IUPAC>
3,3-bis(4-hydroxyphenyl)-3H-2,1λ⁶-benzoxathiole-1,1-dione

> <ALOGPS_LOGP>
3.15

> <JCHEM_LOGP>
4.108691931666667

> <ALOGPS_LOGS>
-4.29

> <JCHEM_MDDR_LIKE_RULE>
0

> <JCHEM_NUMBER_OF_RINGS>
4

> <JCHEM_PHYSIOLOGICAL_CHARGE>
0

> <JCHEM_PKA>
9.758438605780222

> <JCHEM_PKA_STRONGEST_ACIDIC>
9.156378592054773

> <JCHEM_PKA_STRONGEST_BASIC>
-5.959882676817899

> <JCHEM_POLAR_SURFACE_AREA>
83.83

> <JCHEM_REFRACTIVITY>
94.1168

> <JCHEM_ROTATABLE_BOND_COUNT>
2

> <JCHEM_RULE_OF_FIVE>
1

> <ALOGPS_SOLUBILITY>
1.80e-02 g/l

> <JCHEM_TRADITIONAL_IUPAC>
phenol red

> <JCHEM_VEBER_RULE>
0

> <DRUGBANK_ID>
DB13212

> <DRUG_GROUPS>
experimental

> <GENERIC_NAME>
Phenolsulfonphthalein

> <SYNONYMS>
Phenolsulfonphthalein

$$$$
