
  Mrv1652306031606052D          

 21 23  0  0  0  0            999 V2000
    6.4302    4.5375    0.0000 C   0  0  0  0  0  0  0  0  0  0  0  0
    4.2868    0.8250    0.0000 C   0  0  0  0  0  0  0  0  0  0  0  0
    0.7145    4.5375    0.0000 C   0  0  0  0  0  0  0  0  0  0  0  0
    5.7158    4.9500    0.0000 C   0  0  0  0  0  0  0  0  0  0  0  0
    6.4302    3.7125    0.0000 C   0  0  0  0  0  0  0  0  0  0  0  0
    5.0013    1.2375    0.0000 C   0  0  0  0  0  0  0  0  0  0  0  0
    3.5724    1.2375    0.0000 C   0  0  0  0  0  0  0  0  0  0  0  0
    0.7145    3.7125    0.0000 C   0  0  0  0  0  0  0  0  0  0  0  0
    1.4289    4.9500    0.0000 C   0  0  0  0  0  0  0  0  0  0  0  0
    5.0013    4.5375    0.0000 C   0  0  0  0  0  0  0  0  0  0  0  0
    5.7158    3.3000    0.0000 C   0  0  0  0  0  0  0  0  0  0  0  0
    5.0013    2.0625    0.0000 C   0  0  0  0  0  0  0  0  0  0  0  0
    3.5724    2.0625    0.0000 C   0  0  0  0  0  0  0  0  0  0  0  0
    3.5724    3.7125    0.0000 C   0  0  0  0  0  0  0  0  0  0  0  0
    1.4289    3.3000    0.0000 C   0  0  0  0  0  0  0  0  0  0  0  0
    2.1434    4.5375    0.0000 C   0  0  0  0  0  0  0  0  0  0  0  0
    2.8579    3.3000    0.0000 C   0  0  0  0  0  0  0  0  0  0  0  0
    5.0013    3.7125    0.0000 C   0  0  0  0  0  0  0  0  0  0  0  0
    4.2868    2.4750    0.0000 C   0  0  0  0  0  0  0  0  0  0  0  0
    4.2868    3.3000    0.0000 C   0  0  0  0  0  0  0  0  0  0  0  0
    2.1434    3.7125    0.0000 N   0  0  0  0  0  0  0  0  0  0  0  0
  4  1  2  0  0  0  0
  5  1  1  0  0  0  0
  6  2  2  0  0  0  0
  7  2  1  0  0  0  0
  8  3  1  0  0  0  0
  9  3  1  0  0  0  0
 10  4  1  0  0  0  0
 11  5  2  0  0  0  0
 12  6  1  0  0  0  0
 13  7  2  0  0  0  0
 15  8  1  0  0  0  0
 16  9  1  0  0  0  0
 17 14  1  0  0  0  0
 18 10  2  0  0  0  0
 18 11  1  0  0  0  0
 19 12  2  0  0  0  0
 19 13  1  0  0  0  0
 20 14  1  0  0  0  0
 20 18  1  0  0  0  0
 20 19  1  0  0  0  0
 21 15  1  0  0  0  0
 21 16  1  0  0  0  0
 21 17  1  0  0  0  0
M  END
> <DATABASE_ID>
DB13439

> <DATABASE_NAME>
drugbank

> <SMILES>
C(CN1CCCCC1)C(C1=CC=CC=C1)C1=CC=CC=C1

> <INCHI_IDENTIFIER>
InChI=1S/C20H25N/c1-4-10-18(11-5-1)20(19-12-6-2-7-13-19)14-17-21-15-8-3-9-16-21/h1-2,4-7,10-13,20H,3,8-9,14-17H2

> <INCHI_KEY>
JXJPYHDHJZJWRI-UHFFFAOYSA-N

> <FORMULA>
C20H25N

> <MOLECULAR_WEIGHT>
279.427

> <EXACT_MASS>
279.198699809

> <JCHEM_ACCEPTOR_COUNT>
1

> <JCHEM_ATOM_COUNT>
46

> <JCHEM_AVERAGE_POLARIZABILITY>
34.21099377317087

> <JCHEM_BIOAVAILABILITY>
1

> <JCHEM_DONOR_COUNT>
0

> <JCHEM_FORMAL_CHARGE>
0

> <JCHEM_GHOSE_FILTER>
1

> <JCHEM_IUPAC>
1-(3,3-diphenylpropyl)piperidine

> <ALOGPS_LOGP>
5.49

> <JCHEM_LOGP>
4.919061653666667

> <ALOGPS_LOGS>
-5.41

> <JCHEM_MDDR_LIKE_RULE>
0

> <JCHEM_NUMBER_OF_RINGS>
3

> <JCHEM_PHYSIOLOGICAL_CHARGE>
1

> <JCHEM_PKA_STRONGEST_BASIC>
9.84510300855746

> <JCHEM_POLAR_SURFACE_AREA>
3.24

> <JCHEM_REFRACTIVITY>
90.74229999999999

> <JCHEM_ROTATABLE_BOND_COUNT>
5

> <JCHEM_RULE_OF_FIVE>
1

> <ALOGPS_SOLUBILITY>
1.08e-03 g/l

> <JCHEM_TRADITIONAL_IUPAC>
fenpiprane

> <JCHEM_VEBER_RULE>
1

> <DRUGBANK_ID>
DB13439

> <DRUG_GROUPS>
experimental

> <GENERIC_NAME>
Fenpiprane

> <SYNONYMS>
Fenpiprane

$$$$
