
  Mrv1652306231722392D          

 18 19  0  0  0  0            999 V2000
   -3.5724   -0.4125    0.0000 C   0  0  0  0  0  0  0  0  0  0  0  0
   -2.8579    0.0000    0.0000 C   0  0  0  0  0  0  0  0  0  0  0  0
   -2.1434   -0.4125    0.0000 O   0  0  0  0  0  0  0  0  0  0  0  0
   -1.4289    0.0000    0.0000 C   0  0  0  0  0  0  0  0  0  0  0  0
   -1.4289    0.8250    0.0000 O   0  0  0  0  0  0  0  0  0  0  0  0
   -0.7145   -0.4125    0.0000 C   0  0  0  0  0  0  0  0  0  0  0  0
   -0.7145   -1.2375    0.0000 C   0  0  0  0  0  0  0  0  0  0  0  0
    0.0000   -1.6500    0.0000 N   0  3  0  0  0  0  0  0  0  0  0  0
    0.7145   -1.2375    0.0000 C   0  0  0  0  0  0  0  0  0  0  0  0
    0.7145   -0.4125    0.0000 N   0  0  0  0  0  0  0  0  0  0  0  0
    0.0000   -0.0000    0.0000 C   0  0  0  0  0  0  0  0  0  0  0  0
    0.0000    0.8250    0.0000 O   0  0  0  0  0  0  0  0  0  0  0  0
    1.4289   -0.0000    0.0000 C   0  0  0  0  0  0  0  0  0  0  0  0
    2.1434   -0.4125    0.0000 C   0  0  0  0  0  0  0  0  0  0  0  0
    2.1434   -1.2375    0.0000 C   0  0  0  0  0  0  0  0  0  0  0  0
    1.4289   -1.6500    0.0000 C   0  0  0  0  0  0  0  0  0  0  0  0
    1.4289    0.8250    0.0000 C   0  0  0  0  0  0  0  0  0  0  0  0
    0.0000   -2.4750    0.0000 C   0  0  0  0  0  0  0  0  0  0  0  0
  1  2  1  0  0  0  0
  2  3  1  0  0  0  0
  3  4  1  0  0  0  0
  4  5  2  0  0  0  0
  4  6  1  0  0  0  0
  6  7  2  0  0  0  0
  7  8  1  0  0  0  0
  8  9  2  0  0  0  0
  9 10  1  0  0  0  0
 10 11  1  0  0  0  0
  6 11  1  0  0  0  0
 11 12  2  0  0  0  0
 10 13  1  0  0  0  0
 13 14  1  0  0  0  0
 14 15  1  0  0  0  0
 15 16  1  0  0  0  0
  9 16  1  0  0  0  0
 13 17  1  0  0  0  0
  8 18  1  0  0  0  0
M  CHG  1   8   1
M  END
> <DATABASE_ID>
DB13289

> <DATABASE_NAME>
drugbank

> <SMILES>
CCOC(=O)C1=C[N+](C)=C2CCCC(C)N2C1=O

> <INCHI_IDENTIFIER>
InChI=1S/C13H19N2O3/c1-4-18-13(17)10-8-14(3)11-7-5-6-9(2)15(11)12(10)16/h8-9H,4-7H2,1-3H3/q+1

> <INCHI_KEY>
JOWRFSPJFXLGGY-UHFFFAOYSA-N

> <FORMULA>
C13H19N2O3

> <MOLECULAR_WEIGHT>
251.305

> <EXACT_MASS>
251.1390189

> <JCHEM_ACCEPTOR_COUNT>
2

> <JCHEM_ATOM_COUNT>
37

> <JCHEM_AVERAGE_POLARIZABILITY>
27.180314578870664

> <JCHEM_BIOAVAILABILITY>
1

> <JCHEM_DONOR_COUNT>
0

> <JCHEM_FORMAL_CHARGE>
1

> <JCHEM_GHOSE_FILTER>
0

> <JCHEM_IUPAC>
3-(ethoxycarbonyl)-1,6-dimethyl-4-oxo-4H,6H,7H,8H,9H-pyrido[1,2-a]pyrimidin-1-ium

> <ALOGPS_LOGP>
-1.19

> <JCHEM_LOGP>
-2.390449043138413

> <ALOGPS_LOGS>
-2.71

> <JCHEM_MDDR_LIKE_RULE>
0

> <JCHEM_NUMBER_OF_RINGS>
2

> <JCHEM_PHYSIOLOGICAL_CHARGE>
1

> <JCHEM_PKA_STRONGEST_BASIC>
-7.273761712564035

> <JCHEM_POLAR_SURFACE_AREA>
49.620000000000005

> <JCHEM_REFRACTIVITY>
77.86510000000001

> <JCHEM_ROTATABLE_BOND_COUNT>
3

> <JCHEM_RULE_OF_FIVE>
1

> <ALOGPS_SOLUBILITY>
5.54e-01 g/l

> <JCHEM_TRADITIONAL_IUPAC>
3-(ethoxycarbonyl)-1,6-dimethyl-4-oxo-6H,7H,8H,9H-pyrido[1,2-a]pyrimidin-1-ium

> <JCHEM_VEBER_RULE>
0

> <DRUGBANK_ID>
DB13289

> <DRUG_GROUPS>
experimental

> <GENERIC_NAME>
Rimazolium

$$$$
