
  Mrv1652306131722052D          

  2  1  0  0  0  0            999 V2000
    0.8250    0.0000    0.0000 O   0  0  0  0  0  0  0  0  0  0  0  0
    0.0000    0.0000    0.0000 Si  0  0  0  0  0  0  0  0  0  0  0  0
  1  2  1  0  0  0  0
M  END
> <DATABASE_ID>
DB11343

> <DATABASE_NAME>
drugbank

> <SMILES>
O[SiH3]

> <INCHI_IDENTIFIER>
InChI=1S/H4OSi/c1-2/h1H,2H3

> <INCHI_KEY>
SCPYDCQAZCOKTP-UHFFFAOYSA-N

> <FORMULA>
H4OSi

> <MOLECULAR_WEIGHT>
48.116

> <EXACT_MASS>
48.003141284

> <JCHEM_ACCEPTOR_COUNT>
1

> <JCHEM_ATOM_COUNT>
6

> <JCHEM_AVERAGE_POLARIZABILITY>
3.9372972748237154

> <JCHEM_BIOAVAILABILITY>
1

> <JCHEM_DONOR_COUNT>
1

> <JCHEM_FORMAL_CHARGE>
0

> <JCHEM_GHOSE_FILTER>
0

> <JCHEM_IUPAC>
silanol

> <JCHEM_LOGP>
-1.4691999999999998

> <JCHEM_MDDR_LIKE_RULE>
0

> <JCHEM_NUMBER_OF_RINGS>
0

> <JCHEM_PHYSIOLOGICAL_CHARGE>
0

> <JCHEM_PKA_STRONGEST_ACIDIC>
15.168055814789316

> <JCHEM_PKA_STRONGEST_BASIC>
-2.7252923866111516

> <JCHEM_POLAR_SURFACE_AREA>
20.23

> <JCHEM_REFRACTIVITY>
4.964600000000001

> <JCHEM_ROTATABLE_BOND_COUNT>
0

> <JCHEM_RULE_OF_FIVE>
1

> <JCHEM_TRADITIONAL_IUPAC>
silanol

> <JCHEM_VEBER_RULE>
1

> <DRUGBANK_ID>
DB11343

> <DRUG_GROUPS>
approved

> <GENERIC_NAME>
Silanol

> <PRODUCTS>
Sella Natural Volcanic Ash Mud Mask

$$$$
