
  Mrv1909 01012015142D          

 32 35  0  0  0  0            999 V2000
    0.3213    3.7183    0.0000 O   0  0  0  0  0  0  0  0  0  0  0  0
    1.2225    2.7217    0.0000 N   0  0  0  0  0  0  0  0  0  0  0  0
    0.5905    0.5414    0.0000 N   0  0  0  0  0  0  0  0  0  0  0  0
   -0.6469    2.9059    0.0000 N   0  0  0  0  0  0  0  0  0  0  0  0
    1.5260   -1.5210    0.0000 N   0  0  0  0  0  0  0  0  0  0  0  0
    0.5905    2.1914    0.0000 C   0  0  0  0  0  0  0  0  0  0  0  0
   -0.1239    1.7789    0.0000 C   0  0  0  0  0  0  0  0  0  0  0  0
    1.3049    1.7789    0.0000 C   0  0  0  0  0  0  0  0  0  0  0  0
   -0.1239    0.9539    0.0000 C   0  0  0  0  0  0  0  0  0  0  0  0
    1.3049    0.9539    0.0000 C   0  0  0  0  0  0  0  0  0  0  0  0
    1.9978    2.4396    0.0000 C   0  0  0  0  0  0  0  0  0  0  0  0
    1.0792    3.5342    0.0000 C   0  0  0  0  0  0  0  0  0  0  0  0
    2.6297    2.9699    0.0000 C   0  0  0  0  0  0  0  0  0  0  0  0
    1.7112    4.0645    0.0000 C   0  0  0  0  0  0  0  0  0  0  0  0
    0.1780    2.9059    0.0000 C   0  0  0  0  0  0  0  0  0  0  0  0
    2.4865    3.7824    0.0000 C   0  0  0  0  0  0  0  0  0  0  0  0
    0.5905   -0.2835    0.0000 C   0  0  0  0  0  0  0  0  0  0  0  0
   -0.1239   -0.6960    0.0000 C   0  0  0  0  0  0  0  0  0  0  0  0
   -0.1239   -1.5210    0.0000 C   0  0  0  0  0  0  0  0  0  0  0  0
   -0.1239   -2.3460    0.0000 C   0  0  0  0  0  0  0  0  0  0  0  0
   -0.9489   -1.5210    0.0000 C   0  0  0  0  0  0  0  0  0  0  0  0
    0.7010   -1.5210    0.0000 C   0  0  0  0  0  0  0  0  0  0  0  0
   -0.8383   -2.7585    0.0000 C   0  0  0  0  0  0  0  0  0  0  0  0
   -1.3614   -0.8065    0.0000 C   0  0  0  0  0  0  0  0  0  0  0  0
    0.5905   -2.7585    0.0000 C   0  0  0  0  0  0  0  0  0  0  0  0
   -1.3614   -2.2354    0.0000 C   0  0  0  0  0  0  0  0  0  0  0  0
   -0.8383   -3.5835    0.0000 C   0  0  0  0  0  0  0  0  0  0  0  0
   -2.1864   -0.8065    0.0000 C   0  0  0  0  0  0  0  0  0  0  0  0
    0.5905   -3.5835    0.0000 C   0  0  0  0  0  0  0  0  0  0  0  0
   -2.1864   -2.2354    0.0000 C   0  0  0  0  0  0  0  0  0  0  0  0
   -0.1239   -3.9960    0.0000 C   0  0  0  0  0  0  0  0  0  0  0  0
   -2.5989   -1.5210    0.0000 C   0  0  0  0  0  0  0  0  0  0  0  0
  1 15  2  0  0  0  0
  2  6  1  0  0  0  0
  2 11  1  0  0  0  0
  2 12  1  0  0  0  0
  3  9  1  0  0  0  0
  3 10  1  0  0  0  0
  3 17  1  0  0  0  0
  4 15  1  0  0  0  0
  5 22  3  0  0  0  0
  6  7  1  0  0  0  0
  6  8  1  0  0  0  0
  6 15  1  0  0  0  0
  7  9  1  0  0  0  0
  8 10  1  0  0  0  0
 11 13  1  0  0  0  0
 12 14  1  0  0  0  0
 13 16  1  0  0  0  0
 14 16  1  0  0  0  0
 17 18  1  0  0  0  0
 18 19  1  0  0  0  0
 19 20  1  0  0  0  0
 19 21  1  0  0  0  0
 19 22  1  0  0  0  0
 20 23  2  0  0  0  0
 20 25  1  0  0  0  0
 21 24  2  0  0  0  0
 21 26  1  0  0  0  0
 23 27  1  0  0  0  0
 24 28  1  0  0  0  0
 25 29  2  0  0  0  0
 26 30  2  0  0  0  0
 27 31  2  0  0  0  0
 28 32  2  0  0  0  0
 29 31  1  0  0  0  0
 30 32  1  0  0  0  0
M  END
> <DATABASE_ID>
DB12492

> <DATABASE_NAME>
drugbank

> <SMILES>
NC(=O)C1(CCN(CCC(C#N)(C2=CC=CC=C2)C2=CC=CC=C2)CC1)N1CCCCC1

> <INCHI_IDENTIFIER>
InChI=1S/C27H34N4O/c28-22-26(23-10-4-1-5-11-23,24-12-6-2-7-13-24)14-19-30-20-15-27(16-21-30,25(29)32)31-17-8-3-9-18-31/h1-2,4-7,10-13H,3,8-9,14-21H2,(H2,29,32)

> <INCHI_KEY>
IHEHEFLXQFOQJO-UHFFFAOYSA-N

> <FORMULA>
C27H34N4O

> <MOLECULAR_WEIGHT>
430.5851

> <EXACT_MASS>
430.27326173

> <JCHEM_ACCEPTOR_COUNT>
4

> <JCHEM_ATOM_COUNT>
66

> <JCHEM_AVERAGE_NEUTRAL_MICROSPECIES_CHARGE>
1.2160196748962138

> <JCHEM_AVERAGE_POLARIZABILITY>
49.45464851155796

> <JCHEM_BIOAVAILABILITY>
1

> <JCHEM_DONOR_COUNT>
1

> <JCHEM_FORMAL_CHARGE>
0

> <JCHEM_GHOSE_FILTER>
0

> <JCHEM_IUPAC>
1'-(3-cyano-3,3-diphenylpropyl)-[1,4'-bipiperidine]-4'-carboxamide

> <ALOGPS_LOGP>
3.71

> <JCHEM_LOGP>
3.394744209999999

> <ALOGPS_LOGS>
-4.63

> <JCHEM_MDDR_LIKE_RULE>
1

> <JCHEM_NEUTRAL_CHARGE>
1

> <JCHEM_NUMBER_OF_RINGS>
4

> <JCHEM_PHYSIOLOGICAL_CHARGE>
1

> <JCHEM_PKA_STRONGEST_ACIDIC>
15.715887311042005

> <JCHEM_PKA_STRONGEST_BASIC>
8.873902064825653

> <JCHEM_POLAR_SURFACE_AREA>
73.36000000000001

> <JCHEM_REFRACTIVITY>
139.806

> <JCHEM_ROTATABLE_BOND_COUNT>
7

> <JCHEM_RULE_OF_FIVE>
1

> <ALOGPS_SOLUBILITY>
9.98e-03 g/l

> <JCHEM_TRADITIONAL_IUPAC>
mizolastine

> <JCHEM_VEBER_RULE>
0

> <DRUGBANK_ID>
DB12492

> <DRUG_GROUPS>
approved; investigational

> <GENERIC_NAME>
Piritramide

> <SYNONYMS>
Piritramida; Piritramide; Piritramidum

> <INTERNATIONAL_BRANDS>
Dipidolor; Piridolan

$$$$
