
  Mrv1718007041820082D          

 32 34  0  0  0  0            999 V2000
   -1.5103    0.8299    0.0000 C   0  0  0  0  0  0  0  0  0  0  0  0
   -0.6873    0.8298    0.0000 C   0  0  0  0  0  0  0  0  0  0  0  0
   -1.8478   -0.6128    0.0000 C   0  0  0  0  0  0  0  0  0  0  0  0
   -2.0267    0.1873    0.0000 C   0  0  0  0  0  0  0  0  0  0  0  0
   -2.4535   -1.1786    0.0000 C   0  0  0  0  0  0  0  0  0  0  0  0
   -3.2370   -0.9363    0.0000 C   0  0  0  0  0  0  0  0  0  0  0  0
   -3.4193   -0.1315    0.0000 C   0  0  0  0  0  0  0  0  0  0  0  0
   -2.8180    0.4308    0.0000 C   0  0  0  0  0  0  0  0  0  0  0  0
   -1.1017   -0.9763    0.0000 N   0  0  0  0  0  0  0  0  0  0  0  0
   -1.1060   -1.8028    0.0000 C   0  0  0  0  0  0  0  0  0  0  0  0
    0.3242   -1.8057    0.0000 O   0  0  0  0  0  0  0  0  0  0  0  0
   -0.3889   -2.2180    0.0000 C   0  0  0  0  0  0  0  0  0  0  0  0
   -0.3933   -3.0443    0.0000 O   0  0  0  0  0  0  0  0  0  0  0  0
   -0.3592   -0.6183    0.0000 C   0  0  0  0  0  0  0  0  0  0  0  0
    0.2833   -1.1346    0.0000 O   0  0  0  0  0  0  0  0  0  0  0  0
   -0.1769    0.1877    0.0000 C   0  0  1  0  0  0  0  0  0  0  0  0
    0.5474    0.5765    0.0000 N   0  0  0  0  0  0  0  0  0  0  0  0
    1.2703    2.6499    0.0000 O   0  0  0  0  0  0  0  0  0  0  0  0
    1.2709    1.8213    0.0000 C   0  0  0  0  0  0  0  0  0  0  0  0
    1.9886    1.4150    0.0000 O   0  0  0  0  0  0  0  0  0  0  0  0
    2.7064    1.8319    0.0000 C   0  0  0  0  0  0  0  0  0  0  0  0
    3.4193    1.4198    0.0000 C   0  0  0  0  0  0  0  0  0  0  0  0
    0.5585    1.4045    0.0000 C   0  0  2  0  0  0  0  0  0  0  0  0
   -0.1556    1.8126    0.0000 C   0  0  0  0  0  0  0  0  0  0  0  0
   -0.8672    1.3957    0.0000 C   0  0  0  0  0  0  0  0  0  0  0  0
   -1.5866    1.8062    0.0000 C   0  0  0  0  0  0  0  0  0  0  0  0
   -2.3015    3.0443    0.0000 C   0  0  0  0  0  0  0  0  0  0  0  0
   -1.5895    2.6313    0.0000 C   0  0  0  0  0  0  0  0  0  0  0  0
   -2.2983    1.3891    0.0000 C   0  0  0  0  0  0  0  0  0  0  0  0
   -3.0176    1.7995    0.0000 C   0  0  0  0  0  0  0  0  0  0  0  0
   -3.0181    2.6298    0.0000 C   0  0  0  0  0  0  0  0  0  0  0  0
    0.5337   -0.2253    0.0000 H   0  0  0  0  0  0  0  0  0  0  0  0
  9  3  1  0  0  0  0
 14  9  1  0  0  0  0
  4  1  1  0  0  0  0
  1  2  1  0  0  0  0
  2 16  1  0  0  0  0
 16 14  1  0  0  0  0
  5  3  2  0  0  0  0
  4  3  1  0  0  0  0
  8  4  2  0  0  0  0
  5  6  1  0  0  0  0
  6  7  2  0  0  0  0
  7  8  1  0  0  0  0
  9 10  1  0  0  0  0
 10 12  1  0  0  0  0
 12 11  1  0  0  0  0
 12 13  2  0  0  0  0
 14 15  2  0  0  0  0
 16 17  1  6  0  0  0
 17 23  1  0  0  0  0
 23 19  1  0  0  0  0
 19 18  2  0  0  0  0
 19 20  1  0  0  0  0
 20 21  1  0  0  0  0
 21 22  1  0  0  0  0
 23 24  1  1  0  0  0
 24 25  1  0  0  0  0
 25 26  1  0  0  0  0
 28 26  2  0  0  0  0
 26 29  1  0  0  0  0
 27 28  1  0  0  0  0
 27 31  2  0  0  0  0
 29 30  2  0  0  0  0
 30 31  1  0  0  0  0
 16 32  1  1  0  0  0
M  END
> <DATABASE_ID>
DB00542

> <DATABASE_NAME>
drugbank

> <SMILES>
[H][C@@]1(CCC2=CC=CC=C2N(CC(O)=O)C1=O)N[C@@H](CCC1=CC=CC=C1)C(=O)OCC

> <INCHI_IDENTIFIER>
InChI=1S/C24H28N2O5/c1-2-31-24(30)20(14-12-17-8-4-3-5-9-17)25-19-15-13-18-10-6-7-11-21(18)26(23(19)29)16-22(27)28/h3-11,19-20,25H,2,12-16H2,1H3,(H,27,28)/t19-,20-/m0/s1

> <INCHI_KEY>
XPCFTKFZXHTYIP-PMACEKPBSA-N

> <FORMULA>
C24H28N2O5

> <MOLECULAR_WEIGHT>
424.4895

> <EXACT_MASS>
424.199822016

> <JCHEM_ACCEPTOR_COUNT>
5

> <JCHEM_ATOM_COUNT>
59

> <JCHEM_AVERAGE_POLARIZABILITY>
44.976843104597805

> <JCHEM_BIOAVAILABILITY>
1

> <JCHEM_DONOR_COUNT>
2

> <JCHEM_FORMAL_CHARGE>
0

> <JCHEM_GHOSE_FILTER>
1

> <JCHEM_IUPAC>
2-[(3S)-3-{[(2S)-1-ethoxy-1-oxo-4-phenylbutan-2-yl]amino}-2-oxo-2,3,4,5-tetrahydro-1H-1-benzazepin-1-yl]acetic acid

> <ALOGPS_LOGP>
1.14

> <JCHEM_LOGP>
1.5374391462736676

> <ALOGPS_LOGS>
-4.61

> <JCHEM_MDDR_LIKE_RULE>
1

> <JCHEM_NUMBER_OF_RINGS>
3

> <JCHEM_PHYSIOLOGICAL_CHARGE>
-1

> <JCHEM_PKA>
18.005407018196603

> <JCHEM_PKA_STRONGEST_ACIDIC>
3.5270801541778045

> <JCHEM_PKA_STRONGEST_BASIC>
5.359401274650192

> <JCHEM_POLAR_SURFACE_AREA>
95.94000000000001

> <JCHEM_REFRACTIVITY>
115.22790000000003

> <JCHEM_ROTATABLE_BOND_COUNT>
10

> <JCHEM_RULE_OF_FIVE>
1

> <ALOGPS_SOLUBILITY>
1.05e-02 g/l

> <JCHEM_TRADITIONAL_IUPAC>
benazepril

> <JCHEM_VEBER_RULE>
0

> <DRUGBANK_ID>
DB00542

> <SECONDARY_ACCESSION_NUMBERS>
APRD00063

> <DRUG_GROUPS>
approved; investigational

> <GENERIC_NAME>
Benazepril

> <SYNONYMS>
Bénazépril; Benazepril; Benazeprilum

> <PRODUCTS>
Amlobenz; Amlodipine Besylate and Benazepril HCL; Amlodipine Besylate and Benazepril Hydrochloride; Amlodipine and Benazepril Hydrochloride; Amlodipine besylate and Benazepril hydrochloride; Amlodipine besylate and benazepril hydrochloride; Amoldipine Benazepril HCl; Benazepril; Benazepril HCl; Benazepril Hydrochloride; Benazepril Hydrochloride and Hydrochlorothiazide; Benazepril and Hydrochlorothiazide; Benazepril hydrochloride; Benazepril hydrochloride and hydrochlorothiazide; Lotensin; Lotensin 10mg; Lotensin 20mg; Lotensin 5mg; Lotensin HCT; Lotrel; PMS-benazepril

> <INTERNATIONAL_BRANDS>
Briem; Cibacen; Cibacen WS; Cibacene

> <SALTS>
Benazepril hydrochloride

$$$$
