
  Mrv1909 05201914512D          

 29 32  0  0  0  0            999 V2000
    0.7145    2.0625    0.0000 O   0  0  0  0  0  0  0  0  0  0  0  0
    0.7145    1.2375    0.0000 C   0  0  0  0  0  0  0  0  0  0  0  0
    1.4289    0.8250    0.0000 O   0  0  0  0  0  0  0  0  0  0  0  0
    0.0000    0.8250    0.0000 C   0  0  0  0  0  0  0  0  0  0  0  0
    0.0000   -0.0000    0.0000 C   0  0  0  0  0  0  0  0  0  0  0  0
   -0.7145   -0.4125    0.0000 N   0  0  0  0  0  0  0  0  0  0  0  0
   -0.7145   -1.2375    0.0000 N   0  0  0  0  0  0  0  0  0  0  0  0
   -1.4289   -1.6500    0.0000 C   0  0  0  0  0  0  0  0  0  0  0  0
   -1.4289   -2.4750    0.0000 C   0  0  0  0  0  0  0  0  0  0  0  0
   -2.0964   -2.9599    0.0000 N   0  0  0  0  0  0  0  0  0  0  0  0
   -1.8414   -3.7445    0.0000 C   0  0  0  0  0  0  0  0  0  0  0  0
   -1.0164   -3.7445    0.0000 C   0  0  0  0  0  0  0  0  0  0  0  0
   -0.7615   -2.9599    0.0000 S   0  0  0  0  0  0  0  0  0  0  0  0
   -0.6039   -4.4590    0.0000 C   0  0  0  0  0  0  0  0  0  0  0  0
   -1.0164   -5.1735    0.0000 C   0  0  0  0  0  0  0  0  0  0  0  0
   -1.8414   -5.1735    0.0000 C   0  0  0  0  0  0  0  0  0  0  0  0
   -2.2539   -4.4590    0.0000 C   0  0  0  0  0  0  0  0  0  0  0  0
   -2.2539   -5.8880    0.0000 C   0  0  0  0  0  0  0  0  0  0  0  0
   -2.6664   -6.6024    0.0000 F   0  0  0  0  0  0  0  0  0  0  0  0
   -2.9684   -5.4755    0.0000 F   0  0  0  0  0  0  0  0  0  0  0  0
   -1.5395   -6.3005    0.0000 F   0  0  0  0  0  0  0  0  0  0  0  0
    0.0000   -1.6500    0.0000 C   0  0  0  0  0  0  0  0  0  0  0  0
    0.0000   -2.4750    0.0000 O   0  0  0  0  0  0  0  0  0  0  0  0
    0.7145   -1.2375    0.0000 C   0  0  0  0  0  0  0  0  0  0  0  0
    0.7145   -0.4125    0.0000 C   0  0  0  0  0  0  0  0  0  0  0  0
    1.4289   -0.0000    0.0000 N   0  0  0  0  0  0  0  0  0  0  0  0
    2.1434   -0.4125    0.0000 C   0  0  0  0  0  0  0  0  0  0  0  0
    2.1434   -1.2375    0.0000 C   0  0  0  0  0  0  0  0  0  0  0  0
    1.4289   -1.6500    0.0000 N   0  0  0  0  0  0  0  0  0  0  0  0
  1  2  1  0  0  0  0
  2  3  2  0  0  0  0
  2  4  1  0  0  0  0
  4  5  1  0  0  0  0
  5  6  2  0  0  0  0
  6  7  1  0  0  0  0
  7  8  1  0  0  0  0
  8  9  1  0  0  0  0
  9 10  2  0  0  0  0
 10 11  1  0  0  0  0
 11 12  2  0  0  0  0
 12 13  1  0  0  0  0
  9 13  1  0  0  0  0
 12 14  1  0  0  0  0
 14 15  2  0  0  0  0
 15 16  1  0  0  0  0
 16 17  2  0  0  0  0
 11 17  1  0  0  0  0
 16 18  1  0  0  0  0
 18 19  1  0  0  0  0
 18 20  1  0  0  0  0
 18 21  1  0  0  0  0
  7 22  1  0  0  0  0
 22 23  2  0  0  0  0
 22 24  1  0  0  0  0
 24 25  2  0  0  0  0
  5 25  1  0  0  0  0
 25 26  1  0  0  0  0
 26 27  2  0  0  0  0
 27 28  1  0  0  0  0
 28 29  2  0  0  0  0
 24 29  1  0  0  0  0
M  END
> <DATABASE_ID>
DB15121

> <DATABASE_NAME>
drugbank

> <SMILES>
OC(=O)CC1=NN(CC2=NC3=C(S2)C=CC(=C3)C(F)(F)F)C(=O)C2=C1N=CC=N2

> <INCHI_IDENTIFIER>
InChI=1S/C17H10F3N5O3S/c18-17(19,20)8-1-2-11-9(5-8)23-12(29-11)7-25-16(28)15-14(21-3-4-22-15)10(24-25)6-13(26)27/h1-5H,6-7H2,(H,26,27)

> <INCHI_KEY>
YRGPAXAVTDMKDK-UHFFFAOYSA-N

> <FORMULA>
C17H10F3N5O3S

> <MOLECULAR_WEIGHT>
421.35

> <EXACT_MASS>
421.045644865

> <JCHEM_ACCEPTOR_COUNT>
7

> <JCHEM_ATOM_COUNT>
39

> <JCHEM_AVERAGE_POLARIZABILITY>
36.25498228617841

> <JCHEM_BIOAVAILABILITY>
1

> <JCHEM_DONOR_COUNT>
1

> <JCHEM_FORMAL_CHARGE>
0

> <JCHEM_GHOSE_FILTER>
1

> <JCHEM_IUPAC>
2-(8-oxo-7-{[5-(trifluoromethyl)-1,3-benzothiazol-2-yl]methyl}-7H,8H-pyrazino[2,3-d]pyridazin-5-yl)acetic acid

> <ALOGPS_LOGP>
2.05

> <JCHEM_LOGP>
1.8892752201611014

> <ALOGPS_LOGS>
-4.97

> <JCHEM_MDDR_LIKE_RULE>
0

> <JCHEM_NUMBER_OF_RINGS>
4

> <JCHEM_PHYSIOLOGICAL_CHARGE>
-1

> <JCHEM_PKA_STRONGEST_ACIDIC>
3.5809373493547736

> <JCHEM_PKA_STRONGEST_BASIC>
2.273508825591088

> <JCHEM_POLAR_SURFACE_AREA>
108.63999999999999

> <JCHEM_REFRACTIVITY>
93.16329999999999

> <JCHEM_ROTATABLE_BOND_COUNT>
5

> <JCHEM_RULE_OF_FIVE>
1

> <ALOGPS_SOLUBILITY>
4.53e-03 g/l

> <JCHEM_TRADITIONAL_IUPAC>
(2R)-14-fluoro-2-methyl-6,9,10,19-tetraazapentacyclo[14.2.1.0^{2,6}.0^{8,18}.0^{12,17}]nonadeca-1(18),8,12(17),13,15-pentaen-11-one

> <JCHEM_VEBER_RULE>
0

> <DRUGBANK_ID>
DB15121

> <DRUG_GROUPS>
investigational

> <GENERIC_NAME>
AT-001

$$$$
