
  Mrv1652306231722412D          

 23 24  0  0  0  0            999 V2000
   -2.1434   -0.4125    0.0000 C   0  0  0  0  0  0  0  0  0  0  0  0
   -1.4289    0.0000    0.0000 C   0  0  0  0  0  0  0  0  0  0  0  0
   -0.7145   -0.4125    0.0000 C   0  0  0  0  0  0  0  0  0  0  0  0
   -0.7145   -1.2375    0.0000 C   0  0  0  0  0  0  0  0  0  0  0  0
    0.0000    0.0000    0.0000 C   0  0  0  0  0  0  0  0  0  0  0  0
    0.0000    0.8250    0.0000 C   0  0  0  0  0  0  0  0  0  0  0  0
    0.7145   -0.4125    0.0000 C   0  0  0  0  0  0  0  0  0  0  0  0
    1.4289    0.0000    0.0000 N   0  0  0  0  0  0  0  0  0  0  0  0
    2.1434   -0.4125    0.0000 C   0  0  0  0  0  0  0  0  0  0  0  0
    2.8579    0.0000    0.0000 C   0  0  0  0  0  0  0  0  0  0  0  0
    3.5724   -0.4125    0.0000 C   0  0  0  0  0  0  0  0  0  0  0  0
    3.5724   -1.2375    0.0000 C   0  0  0  0  0  0  0  0  0  0  0  0
    2.8579   -1.6500    0.0000 C   0  0  0  0  0  0  0  0  0  0  0  0
    2.1434   -1.2375    0.0000 C   0  0  0  0  0  0  0  0  0  0  0  0
    1.4289   -1.6500    0.0000 S   0  0  0  0  0  0  0  0  0  0  0  0
    1.9592   -2.2820    0.0000 O   0  0  0  0  0  0  0  0  0  0  0  0
    0.8986   -2.2820    0.0000 O   0  0  0  0  0  0  0  0  0  0  0  0
    0.7145   -1.2375    0.0000 N   0  0  0  0  0  0  0  0  0  0  0  0
    4.2868   -1.6500    0.0000 S   0  0  0  0  0  0  0  0  0  0  0  0
    5.0013   -2.0625    0.0000 O   0  0  0  0  0  0  0  0  0  0  0  0
    3.8743   -2.3645    0.0000 O   0  0  0  0  0  0  0  0  0  0  0  0
    4.6993   -0.9355    0.0000 N   0  0  0  0  0  0  0  0  0  0  0  0
    4.2868   -0.0000    0.0000 Cl  0  0  0  0  0  0  0  0  0  0  0  0
  1  2  1  0  0  0  0
  2  3  1  0  0  0  0
  3  4  1  0  0  0  0
  3  5  1  0  0  0  0
  5  6  1  0  0  0  0
  5  7  1  0  0  0  0
  7  8  1  0  0  0  0
  8  9  1  0  0  0  0
  9 10  2  0  0  0  0
 10 11  1  0  0  0  0
 11 12  2  0  0  0  0
 12 13  1  0  0  0  0
 13 14  2  0  0  0  0
  9 14  1  0  0  0  0
 14 15  1  0  0  0  0
 15 16  2  0  0  0  0
 15 17  2  0  0  0  0
 15 18  1  0  0  0  0
  7 18  1  0  0  0  0
 12 19  1  0  0  0  0
 19 20  2  0  0  0  0
 19 21  2  0  0  0  0
 19 22  1  0  0  0  0
 11 23  1  0  0  0  0
M  END
> <DATABASE_ID>
DB13430

> <DATABASE_NAME>
drugbank

> <SMILES>
CCC(C)C(C)C1NC2=CC(Cl)=C(C=C2S(=O)(=O)N1)S(N)(=O)=O

> <INCHI_IDENTIFIER>
InChI=1S/C13H20ClN3O4S2/c1-4-7(2)8(3)13-16-10-5-9(14)11(22(15,18)19)6-12(10)23(20,21)17-13/h5-8,13,16-17H,4H2,1-3H3,(H2,15,18,19)

> <INCHI_KEY>
KJLLKLRVCJAFRY-UHFFFAOYSA-N

> <FORMULA>
C13H20ClN3O4S2

> <MOLECULAR_WEIGHT>
381.89

> <EXACT_MASS>
381.0583762

> <JCHEM_ACCEPTOR_COUNT>
5

> <JCHEM_ATOM_COUNT>
43

> <JCHEM_AVERAGE_POLARIZABILITY>
37.5420029058202

> <JCHEM_BIOAVAILABILITY>
1

> <JCHEM_DONOR_COUNT>
3

> <JCHEM_FORMAL_CHARGE>
0

> <JCHEM_GHOSE_FILTER>
1

> <JCHEM_IUPAC>
6-chloro-3-(3-methylpentan-2-yl)-1,1-dioxo-3,4-dihydro-2H-1lambda6,2,4-benzothiadiazine-7-sulfonamide

> <ALOGPS_LOGP>
1.30

> <JCHEM_LOGP>
1.9462682210000009

> <ALOGPS_LOGS>
-3.07

> <JCHEM_MDDR_LIKE_RULE>
0

> <JCHEM_NUMBER_OF_RINGS>
2

> <JCHEM_PHYSIOLOGICAL_CHARGE>
0

> <JCHEM_PKA>
9.774953020540048

> <JCHEM_PKA_STRONGEST_ACIDIC>
9.0623398200547

> <JCHEM_PKA_STRONGEST_BASIC>
-2.558668091402951

> <JCHEM_POLAR_SURFACE_AREA>
118.36

> <JCHEM_REFRACTIVITY>
90.58769999999997

> <JCHEM_ROTATABLE_BOND_COUNT>
4

> <JCHEM_RULE_OF_FIVE>
1

> <ALOGPS_SOLUBILITY>
3.24e-01 g/l

> <JCHEM_TRADITIONAL_IUPAC>
6-chloro-3-(3-methylpentan-2-yl)-1,1-dioxo-3,4-dihydro-2H-1lambda6,2,4-benzothiadiazine-7-sulfonamide

> <JCHEM_VEBER_RULE>
0

> <DRUGBANK_ID>
DB13430

> <DRUG_GROUPS>
experimental

> <GENERIC_NAME>
Mebutizide

> <SYNONYMS>
Mebutizide

$$$$
