
  Mrv1718007111812312D          

  7  4  0  0  0  0            999 V2000
    1.2983    1.3523    0.0000 K   0  3  0  0  0  0  0  0  0  0  0  0
    1.2983   -1.3523    0.0000 K   0  3  0  0  0  0  0  0  0  0  0  0
    0.3516    0.0000    0.0000 O   0  5  0  0  0  0  0  0  0  0  0  0
   -1.2983    0.0000    0.0000 O   0  5  0  0  0  0  0  0  0  0  0  0
   -0.4733    0.8250    0.0000 O   0  0  0  0  0  0  0  0  0  0  0  0
   -0.4733    0.0000    0.0000 S   0  0  0  0  0  0  0  0  0  0  0  0
   -0.4733   -0.8250    0.0000 O   0  0  0  0  0  0  0  0  0  0  0  0
  6  3  1  0  0  0  0
  6  4  1  0  0  0  0
  6  5  2  0  0  0  0
  6  7  2  0  0  0  0
M  CHG  4   1   1   2   1   3  -1   4  -1
M  END
> <DATABASE_ID>
DB14499

> <DATABASE_NAME>
drugbank

> <SMILES>
[K+].[K+].[O-]S([O-])(=O)=O

> <INCHI_IDENTIFIER>
InChI=1S/2K.H2O4S/c;;1-5(2,3)4/h;;(H2,1,2,3,4)/q2*+1;/p-2

> <INCHI_KEY>
OTYBMLCTZGSZBG-UHFFFAOYSA-L

> <FORMULA>
K2O4S

> <MOLECULAR_WEIGHT>
174.259

> <EXACT_MASS>
173.8791429

> <JCHEM_ACCEPTOR_COUNT>
4

> <JCHEM_ATOM_COUNT>
7

> <JCHEM_AVERAGE_POLARIZABILITY>
5.805278247285029

> <JCHEM_BIOAVAILABILITY>
1

> <JCHEM_DONOR_COUNT>
0

> <JCHEM_FORMAL_CHARGE>
0

> <JCHEM_GHOSE_FILTER>
0

> <JCHEM_IUPAC>
dipotassium sulfate

> <JCHEM_LOGP>
-0.8415520233333333

> <JCHEM_MDDR_LIKE_RULE>
0

> <JCHEM_NUMBER_OF_RINGS>
0

> <JCHEM_PHYSIOLOGICAL_CHARGE>
-2

> <JCHEM_PKA>
1.8964254257138706

> <JCHEM_PKA_STRONGEST_ACIDIC>
-3.034349054191991

> <JCHEM_POLAR_SURFACE_AREA>
80.25999999999999

> <JCHEM_REFRACTIVITY>
11.5274

> <JCHEM_ROTATABLE_BOND_COUNT>
0

> <JCHEM_RULE_OF_FIVE>
1

> <JCHEM_TRADITIONAL_IUPAC>
potassium sulfate

> <JCHEM_VEBER_RULE>
0

> <DRUGBANK_ID>
DB14499

> <SECONDARY_ACCESSION_NUMBERS>
DBSALT001465

> <DRUG_GROUPS>
approved; investigational

> <GENERIC_NAME>
Potassium sulfate

> <SYNONYMS>
Dipotassium sulfate; Potasio sulfato; Potassium (as sulfate); Potassium sulfate; Potassium sulphate; Sulfato potasio; Sulfuric acid, dipotassium salt

> <PRODUCTS>
ColPrep Kit; Flex Capsules; Kanga Sport Vitamins B & C Plus Minerals; Mega Min Capsules; Mega Vitaminerals; Multiple Vitamins and Minerals Capsules; SUPREP Bowel Prep; Sodium Sulfate, Potassium Sulfate and Magnesium Sulfate; Sodium Sulfate, Potassium Sulfate, Magnesium Sulfate; Suclear

$$$$
