
  Mrv1909 12152018022D          

 34 38  0  0  1  0            999 V2000
   -3.5523   -1.8105    0.0000 C   0  0  0  0  0  0  0  0  0  0  0  0
   -3.0443   -1.1604    0.0000 C   0  0  0  0  0  0  0  0  0  0  0  0
   -2.3942   -1.6683    0.0000 C   0  0  0  0  0  0  0  0  0  0  0  0
   -3.6945   -0.6525    0.0000 O   0  0  0  0  0  0  0  0  0  0  0  0
   -2.5364   -0.5103    0.0000 C   0  0  0  0  0  0  0  0  0  0  0  0
   -2.8455    0.2547    0.0000 N   0  0  0  0  0  0  0  0  0  0  0  0
   -2.3376    0.9048    0.0000 C   0  0  0  0  0  0  0  0  0  0  0  0
   -1.5206    0.7899    0.0000 C   0  0  0  0  0  0  0  0  0  0  0  0
   -1.2115    0.0250    0.0000 N   0  0  0  0  0  0  0  0  0  0  0  0
   -1.7195   -0.6251    0.0000 C   0  0  0  0  0  0  0  0  0  0  0  0
   -1.0127    1.4401    0.0000 N   0  0  0  0  0  0  0  0  0  0  0  0
   -1.2401    2.2331    0.0000 C   0  0  0  0  0  0  0  0  0  0  0  0
   -0.5561    2.6944    0.0000 C   0  0  2  0  0  0  0  0  0  0  0  0
   -1.2557    3.1316    0.0000 C   0  0  0  0  0  0  0  0  0  0  0  0
   -1.2270    3.9561    0.0000 C   0  0  0  0  0  0  0  0  0  0  0  0
   -0.4985    4.3434    0.0000 C   0  0  0  0  0  0  0  0  0  0  0  0
    0.2011    3.9062    0.0000 C   0  0  2  0  0  0  0  0  0  0  0  0
    0.5102    4.6712    0.0000 C   0  0  0  0  0  0  0  0  0  0  0  0
    1.0081    3.7347    0.0000 C   0  0  0  0  0  0  0  0  0  0  0  0
    1.2630    2.9501    0.0000 N   0  0  0  0  0  0  0  0  0  0  0  0
    0.7781    2.2827    0.0000 C   0  0  0  0  0  0  0  0  0  0  0  0
    1.2630    1.6152    0.0000 N   0  0  0  0  0  0  0  0  0  0  0  0
    2.0477    1.8702    0.0000 C   0  0  0  0  0  0  0  0  0  0  0  0
    2.0477    2.6952    0.0000 C   0  0  0  0  0  0  0  0  0  0  0  0
    2.7621    3.1077    0.0000 C   0  0  0  0  0  0  0  0  0  0  0  0
    3.4766    2.6952    0.0000 C   0  0  0  0  0  0  0  0  0  0  0  0
    3.4766    1.8702    0.0000 C   0  0  0  0  0  0  0  0  0  0  0  0
    2.7621    1.4577    0.0000 C   0  0  0  0  0  0  0  0  0  0  0  0
    4.1911    3.1077    0.0000 C   0  0  0  0  0  0  0  0  0  0  0  0
    4.9055    3.5202    0.0000 N   0  0  0  0  0  0  0  0  0  0  0  0
    0.1723    3.0817    0.0000 C   0  0  0  0  0  0  0  0  0  0  0  0
    0.0940    2.1865    0.0000 O   0  0  0  0  0  0  0  0  0  0  0  0
   -0.1882    1.4113    0.0000 C   0  0  0  0  0  0  0  0  0  0  0  0
    0.2732    0.7273    0.0000 O   0  0  0  0  0  0  0  0  0  0  0  0
  1  2  1  0  0  0  0
  2  3  1  0  0  0  0
  2  4  1  0  0  0  0
  2  5  1  0  0  0  0
  5  6  2  0  0  0  0
  6  7  1  0  0  0  0
  7  8  2  0  0  0  0
  8  9  1  0  0  0  0
  9 10  2  0  0  0  0
  5 10  1  0  0  0  0
  8 11  1  0  0  0  0
 11 12  1  0  0  0  0
 13 12  1  0  0  0  0
 13 14  1  0  0  0  0
 14 15  1  0  0  0  0
 15 16  1  0  0  0  0
 17 16  1  0  0  0  0
 17 18  1  1  0  0  0
 17 19  1  6  0  0  0
 19 20  1  0  0  0  0
 20 21  1  0  0  0  0
 21 22  2  0  0  0  0
 22 23  1  0  0  0  0
 23 24  2  0  0  0  0
 20 24  1  0  0  0  0
 24 25  1  0  0  0  0
 25 26  2  0  0  0  0
 26 27  1  0  0  0  0
 27 28  2  0  0  0  0
 23 28  1  0  0  0  0
 26 29  1  0  0  0  0
 29 30  3  0  0  0  0
 17 31  1  0  0  0  0
 13 31  1  0  0  0  0
 13 32  1  1  0  0  0
 32 33  1  0  0  0  0
 11 33  1  0  0  0  0
 33 34  2  0  0  0  0
M  END
> <DATABASE_ID>
DB16033

> <DATABASE_NAME>
drugbank

> <SMILES>
CC(C)(O)C1=NC=C(N=C1)N1C[C@@]2(CCC[C@](C)(CN3C=NC4=C3C=C(C=C4)C#N)C2)OC1=O

> <INCHI_IDENTIFIER>
InChI=1S/C25H28N6O3/c1-23(2,33)20-11-28-21(12-27-20)31-15-25(34-22(31)32)8-4-7-24(3,13-25)14-30-16-29-18-6-5-17(10-26)9-19(18)30/h5-6,9,11-12,16,33H,4,7-8,13-15H2,1-3H3/t24-,25-/m0/s1

> <INCHI_KEY>
URCMKDJBULWNAI-DQEYMECFSA-N

> <FORMULA>
C25H28N6O3

> <MOLECULAR_WEIGHT>
460.538

> <EXACT_MASS>
460.222288786

> <JCHEM_ACCEPTOR_COUNT>
7

> <JCHEM_ATOM_COUNT>
62

> <JCHEM_AVERAGE_NEUTRAL_MICROSPECIES_CHARGE>
0.014369282538982812

> <JCHEM_AVERAGE_POLARIZABILITY>
48.62330348630553

> <JCHEM_BIOAVAILABILITY>
1

> <JCHEM_DONOR_COUNT>
1

> <JCHEM_FORMAL_CHARGE>
0

> <JCHEM_GHOSE_FILTER>
1

> <JCHEM_IUPAC>
1-{[(5S,7S)-3-[5-(2-hydroxypropan-2-yl)pyrazin-2-yl]-7-methyl-2-oxo-1-oxa-3-azaspiro[4.5]decan-7-yl]methyl}-1H-1,3-benzodiazole-6-carbonitrile

> <ALOGPS_LOGP>
2.57

> <JCHEM_LOGP>
2.884740998666667

> <ALOGPS_LOGS>
-3.70

> <JCHEM_MDDR_LIKE_RULE>
0

> <JCHEM_NEUTRAL_CHARGE>
0

> <JCHEM_NUMBER_OF_RINGS>
5

> <JCHEM_PHYSIOLOGICAL_CHARGE>
0

> <JCHEM_PKA_STRONGEST_ACIDIC>
13.715462017647248

> <JCHEM_PKA_STRONGEST_BASIC>
5.163722770236684

> <JCHEM_POLAR_SURFACE_AREA>
117.16000000000003

> <JCHEM_REFRACTIVITY>
124.21979999999999

> <JCHEM_ROTATABLE_BOND_COUNT>
4

> <JCHEM_RULE_OF_FIVE>
1

> <ALOGPS_SOLUBILITY>
9.29e-02 g/l

> <JCHEM_TRADITIONAL_IUPAC>
5-({4-[2-(3-methoxyphenyl)-2-oxoethoxy]phenyl}methyl)-1,3-thiazolidine-2,4-dione

> <JCHEM_VEBER_RULE>
0

> <DRUGBANK_ID>
DB16033

> <DRUG_GROUPS>
investigational

> <GENERIC_NAME>
GSK2798745

$$$$
