
  Mrv1652310211603462D          

  1  0  0  0  0  0            999 V2000
    0.0000    0.0000    0.0000 Si  0  0  0  0  0 15  0  0  0  0  0  0
M  END
> <DATABASE_ID>
DB12982

> <DATABASE_NAME>
drugbank

> <SMILES>
[Si]

> <INCHI_IDENTIFIER>
InChI=1S/Si

> <INCHI_KEY>
XUIMIQQOPSSXEZ-UHFFFAOYSA-N

> <FORMULA>
Si

> <MOLECULAR_WEIGHT>
28.085

> <EXACT_MASS>
27.976926535

> <JCHEM_ACCEPTOR_COUNT>
0

> <JCHEM_ATOM_COUNT>
1

> <JCHEM_AVERAGE_POLARIZABILITY>
1.7784

> <JCHEM_BIOAVAILABILITY>
1

> <JCHEM_DONOR_COUNT>
0

> <JCHEM_FORMAL_CHARGE>
0

> <JCHEM_GHOSE_FILTER>
0

> <JCHEM_IUPAC>
silicon

> <JCHEM_LOGP>
0.045

> <JCHEM_MDDR_LIKE_RULE>
0

> <JCHEM_NUMBER_OF_RINGS>
0

> <JCHEM_PHYSIOLOGICAL_CHARGE>
0

> <JCHEM_POLAR_SURFACE_AREA>
0.0

> <JCHEM_REFRACTIVITY>
0.0

> <JCHEM_ROTATABLE_BOND_COUNT>
0

> <JCHEM_RULE_OF_FIVE>
1

> <JCHEM_TRADITIONAL_IUPAC>
silicon

> <JCHEM_VEBER_RULE>
1

> <DRUGBANK_ID>
DB12982

> <DRUG_GROUPS>
approved; investigational

> <GENERIC_NAME>
Silicon

> <SYNONYMS>
silicio

> <PRODUCTS>
Actical Plus Calcium-magnesium-vitamin D3-silicon Chewable; Active Calcium Plus Magnesium, Vitamin D and Silicon; Advanced B & T Formula; Body Rox; C. Vit-min Formula; Calcium Complex High Grade; Calcium Magnesium Sulfur Silicon - Tab; Calcium With Mg Zn Mn Cu CR Si and Vit. C & D; Calcor; Calplus; Chelapro; Maxum Multi-vite; Multimineral Tablets; Multivitamins and Minerals Tablets; Osteo Formula Tab; Osteo Tablets; Osteoshield; Procosa II; Rocky Mountain Multiple Vit and Min Mega Tab; Snh Formula; Spectrum Performa Multivitamins and Minerals Tablets; Swical Extra-fort; Usana Calmag Plus Tablets - Tab; Usana Optimizer Actical Plus Calcium-magnesium-vitamin D3-silicon Tablets; Usana Procosa Tablets; Vegetal Silica 5:1

$$$$
