
  Mrv1718006271816002D          

 39 38  0  0  0  0            999 V2000
   12.8604    0.0000    0.0000 C   0  0  0  0  0  0  0  0  0  0  0  0
  -12.8604    0.0000    0.0000 C   0  0  0  0  0  0  0  0  0  0  0  0
    0.4125    0.7144    0.0000 C   0  0  0  0  0  0  0  0  0  0  0  0
   -0.4125   -0.7144    0.0000 C   0  0  0  0  0  0  0  0  0  0  0  0
   12.1460   -0.4125    0.0000 C   0  0  0  0  0  0  0  0  0  0  0  0
  -12.1460    0.4125    0.0000 C   0  0  0  0  0  0  0  0  0  0  0  0
   11.4315    0.0000    0.0000 C   0  0  0  0  0  0  0  0  0  0  0  0
  -11.4315    0.0000    0.0000 C   0  0  0  0  0  0  0  0  0  0  0  0
   10.7170   -0.4125    0.0000 C   0  0  0  0  0  0  0  0  0  0  0  0
  -10.7170    0.4125    0.0000 C   0  0  0  0  0  0  0  0  0  0  0  0
   10.0025    0.0000    0.0000 C   0  0  0  0  0  0  0  0  0  0  0  0
  -10.0025    0.0000    0.0000 C   0  0  0  0  0  0  0  0  0  0  0  0
    9.2881   -0.4125    0.0000 C   0  0  0  0  0  0  0  0  0  0  0  0
   -9.2881    0.4125    0.0000 C   0  0  0  0  0  0  0  0  0  0  0  0
    8.5736    0.0000    0.0000 C   0  0  0  0  0  0  0  0  0  0  0  0
   -8.5736    0.0000    0.0000 C   0  0  0  0  0  0  0  0  0  0  0  0
    7.8591   -0.4125    0.0000 C   0  0  0  0  0  0  0  0  0  0  0  0
   -7.8591    0.4125    0.0000 C   0  0  0  0  0  0  0  0  0  0  0  0
    7.1447    0.0000    0.0000 C   0  0  0  0  0  0  0  0  0  0  0  0
   -7.1447    0.0000    0.0000 C   0  0  0  0  0  0  0  0  0  0  0  0
    6.4302   -0.4125    0.0000 C   0  0  0  0  0  0  0  0  0  0  0  0
   -6.4302    0.4125    0.0000 C   0  0  0  0  0  0  0  0  0  0  0  0
    5.7157    0.0000    0.0000 C   0  0  0  0  0  0  0  0  0  0  0  0
   -5.7157    0.0000    0.0000 C   0  0  0  0  0  0  0  0  0  0  0  0
    5.0012   -0.4125    0.0000 C   0  0  0  0  0  0  0  0  0  0  0  0
   -5.0012    0.4125    0.0000 C   0  0  0  0  0  0  0  0  0  0  0  0
    4.2868    0.0000    0.0000 C   0  0  0  0  0  0  0  0  0  0  0  0
   -4.2868    0.0000    0.0000 C   0  0  0  0  0  0  0  0  0  0  0  0
    3.5723   -0.4125    0.0000 C   0  0  0  0  0  0  0  0  0  0  0  0
   -3.5723    0.4125    0.0000 C   0  0  0  0  0  0  0  0  0  0  0  0
    2.8578    0.0000    0.0000 C   0  0  0  0  0  0  0  0  0  0  0  0
   -2.8578    0.0000    0.0000 C   0  0  0  0  0  0  0  0  0  0  0  0
    2.1434   -0.4125    0.0000 C   0  0  0  0  0  0  0  0  0  0  0  0
   -2.1434    0.4125    0.0000 C   0  0  0  0  0  0  0  0  0  0  0  0
    1.4289    0.0000    0.0000 C   0  0  0  0  0  0  0  0  0  0  0  0
   -1.4289    0.0000    0.0000 C   0  0  0  0  0  0  0  0  0  0  0  0
    0.7144   -0.4125    0.0000 C   0  0  0  0  0  0  0  0  0  0  0  0
   -0.7144    0.4125    0.0000 C   0  0  0  0  0  0  0  0  0  0  0  0
    0.0000    0.0000    0.0000 N   0  3  0  0  0  0  0  0  0  0  0  0
  5  1  1  0  0  0  0
  6  2  1  0  0  0  0
  7  5  1  0  0  0  0
  8  6  1  0  0  0  0
  9  7  1  0  0  0  0
 10  8  1  0  0  0  0
 11  9  1  0  0  0  0
 12 10  1  0  0  0  0
 13 11  1  0  0  0  0
 14 12  1  0  0  0  0
 15 13  1  0  0  0  0
 16 14  1  0  0  0  0
 17 15  1  0  0  0  0
 18 16  1  0  0  0  0
 19 17  1  0  0  0  0
 20 18  1  0  0  0  0
 21 19  1  0  0  0  0
 22 20  1  0  0  0  0
 23 21  1  0  0  0  0
 24 22  1  0  0  0  0
 25 23  1  0  0  0  0
 26 24  1  0  0  0  0
 27 25  1  0  0  0  0
 28 26  1  0  0  0  0
 29 27  1  0  0  0  0
 30 28  1  0  0  0  0
 31 29  1  0  0  0  0
 32 30  1  0  0  0  0
 33 31  1  0  0  0  0
 34 32  1  0  0  0  0
 35 33  1  0  0  0  0
 36 34  1  0  0  0  0
 37 35  1  0  0  0  0
 38 36  1  0  0  0  0
 39  3  1  0  0  0  0
 39  4  1  0  0  0  0
 39 37  1  0  0  0  0
 39 38  1  0  0  0  0
M  CHG  1  39   1
M  END
> <DATABASE_ID>
DB14143

> <DATABASE_NAME>
drugbank

> <SMILES>
CCCCCCCCCCCCCCCCCC[N+](C)(C)CCCCCCCCCCCCCCCCCC

> <INCHI_IDENTIFIER>
InChI=1S/C38H80N/c1-5-7-9-11-13-15-17-19-21-23-25-27-29-31-33-35-37-39(3,4)38-36-34-32-30-28-26-24-22-20-18-16-14-12-10-8-6-2/h5-38H2,1-4H3/q+1

> <INCHI_KEY>
OGQYPPBGSLZBEG-UHFFFAOYSA-N

> <FORMULA>
C38H80N

> <MOLECULAR_WEIGHT>
551.064

> <EXACT_MASS>
550.628528

> <JCHEM_ACCEPTOR_COUNT>
0

> <JCHEM_ATOM_COUNT>
119

> <JCHEM_AVERAGE_POLARIZABILITY>
81.48954907447998

> <JCHEM_BIOAVAILABILITY>
0

> <JCHEM_DONOR_COUNT>
0

> <JCHEM_FORMAL_CHARGE>
1

> <JCHEM_GHOSE_FILTER>
0

> <JCHEM_IUPAC>
dimethyldioctadecylazanium

> <ALOGPS_LOGP>
8.28

> <JCHEM_LOGP>
11.123553498528256

> <ALOGPS_LOGS>
-8.26

> <JCHEM_MDDR_LIKE_RULE>
0

> <JCHEM_NUMBER_OF_RINGS>
0

> <JCHEM_PHYSIOLOGICAL_CHARGE>
1

> <JCHEM_POLAR_SURFACE_AREA>
0.0

> <JCHEM_REFRACTIVITY>
192.47689999999997

> <JCHEM_ROTATABLE_BOND_COUNT>
34

> <JCHEM_RULE_OF_FIVE>
0

> <ALOGPS_SOLUBILITY>
3.19e-06 g/l

> <JCHEM_TRADITIONAL_IUPAC>
dimethyldioctadecylazanium

> <JCHEM_VEBER_RULE>
0

> <DRUGBANK_ID>
DB14143

> <DRUG_GROUPS>
approved; experimental

> <GENERIC_NAME>
Distearyldimonium

> <SYNONYMS>
Dimethyldioctadecylammonium; Dimethyldistearylammonium; Dioctadecyldimethylammonium; Dioctadecyldimethylammonium ion; Distearyldimethylammonium

> <PRODUCTS>
Ageless Foundation 23

> <SALTS>
Distearyldimonium chloride

$$$$
