
  Mrv1909 12152018042D          

 74 87  0  0  1  0            999 V2000
    4.7017    4.7343    0.0000 H   0  0  0  0  0  0  0  0  0  0  0  0
    3.8837    4.8413    0.0000 C   0  0  2  0  0  0  0  0  0  0  0  0
    4.1651    4.0427    0.0000 O   0  0  0  0  0  0  0  0  0  0  0  0
    4.9932    4.1813    0.0000 C   0  0  0  0  0  0  0  0  0  0  0  0
    5.0696    5.0500    0.0000 C   0  0  0  0  0  0  0  0  0  0  0  0
    5.9085    5.2260    0.0000 C   0  0  0  0  0  0  0  0  0  0  0  0
    5.8422    6.0708    0.0000 C   0  0  0  0  0  0  0  0  0  0  0  0
    5.0406    6.4063    0.0000 C   0  0  1  0  0  0  0  0  0  0  0  0
    5.4940    7.1498    0.0000 N   0  0  0  0  0  0  0  0  0  0  0  0
    6.2696    7.4309    0.0000 C   0  0  0  0  0  0  0  0  0  0  0  0
    6.4140    8.2432    0.0000 C   0  0  0  0  0  0  0  0  0  0  0  0
    6.1329    9.0188    0.0000 C   0  0  0  0  0  0  0  0  0  0  0  0
    6.9451    8.8745    0.0000 C   0  0  0  0  0  0  0  0  0  0  0  0
    4.7101    7.4165    0.0000 C   0  0  0  0  0  0  0  0  0  0  0  0
    4.5318    6.5769    0.0000 C   0  0  0  0  0  0  0  0  0  0  0  0
    4.4194    5.6262    0.0000 C   0  0  1  0  0  0  0  0  0  0  0  0
    4.0339    6.4023    0.0000 C   0  0  1  0  0  0  0  0  0  0  0  0
    3.7173    5.7423    0.0000 C   0  0  0  0  0  0  0  0  0  0  0  0
    3.1468    5.2949    0.0000 C   0  0  0  0  0  0  0  0  0  0  0  0
    2.9721    4.6194    0.0000 C   0  0  2  0  0  0  0  0  0  0  0  0
    2.6061    3.8800    0.0000 O   0  0  0  0  0  0  0  0  0  0  0  0
    3.0635    3.1934    0.0000 C   0  0  0  0  0  0  0  0  0  0  0  0
    2.5891    5.4936    0.0000 C   0  0  2  0  0  0  0  0  0  0  0  0
    2.1053    4.8254    0.0000 H   0  0  0  0  0  0  0  0  0  0  0  0
    3.1051    6.2412    0.0000 C   0  0  0  0  0  0  0  0  0  0  0  0
    1.7679    5.5724    0.0000 C   0  0  2  0  0  0  0  0  0  0  0  0
    1.8467    6.3936    0.0000 C   0  0  0  0  0  0  0  0  0  0  0  0
    1.6891    4.7511    0.0000 O   0  0  0  0  0  0  0  0  0  0  0  0
    0.9467    5.6511    0.0000 C   0  0  0  0  0  0  0  0  0  0  0  0
    1.0254    6.4724    0.0000 C   0  0  0  0  0  0  0  0  0  0  0  0
    0.8679    4.8299    0.0000 C   0  0  0  0  0  0  0  0  0  0  0  0
    0.1254    5.7299    0.0000 C   0  0  0  0  0  0  0  0  0  0  0  0
    6.5586    4.6725    0.0000 C   0  0  0  0  0  0  0  0  0  0  0  0
    6.3832    3.8543    0.0000 C   0  0  0  0  0  0  0  0  0  0  0  0
    5.5970    3.5881    0.0000 C   0  0  0  0  0  0  0  0  0  0  0  0
    5.4129    2.7839    0.0000 O   0  0  0  0  0  0  0  0  0  0  0  0
    6.0173    2.2224    0.0000 C   0  0  0  0  0  0  0  0  0  0  0  0
    5.8332    1.4182    0.0000 C   0  0  0  0  0  0  0  0  0  0  0  0
    6.4376    0.8566    0.0000 O   0  0  0  0  0  0  0  0  0  0  0  0
    6.2535    0.0524    0.0000 C   0  0  0  0  0  0  0  0  0  0  0  0
    6.8456   -0.5293    0.0000 C   0  0  0  0  0  0  0  0  0  0  0  0
    6.6476   -1.3423    0.0000 C   0  0  0  0  0  0  0  0  0  0  0  0
    5.8214   -1.5578    0.0000 C   0  0  0  0  0  0  0  0  0  0  0  0
    5.3942   -2.2897    0.0000 C   0  0  0  0  0  0  0  0  0  0  0  0
    4.5264   -2.2429    0.0000 C   0  0  1  0  0  0  0  0  0  0  0  0
    4.6112   -3.1097    0.0000 N   0  0  0  0  0  0  0  0  0  0  0  0
    5.1873   -3.7003    0.0000 C   0  0  0  0  0  0  0  0  0  0  0  0
    4.9639   -4.4945    0.0000 C   0  0  0  0  0  0  0  0  0  0  0  0
    5.1675   -5.2939    0.0000 C   0  0  0  0  0  0  0  0  0  0  0  0
    4.3733   -5.0706    0.0000 C   0  0  0  0  0  0  0  0  0  0  0  0
    3.7894   -3.0088    0.0000 C   0  0  0  0  0  0  0  0  0  0  0  0
    3.9941   -2.1752    0.0000 C   0  0  0  0  0  0  0  0  0  0  0  0
    4.3065   -1.2703    0.0000 C   0  0  2  0  0  0  0  0  0  0  0  0
    5.1426   -1.0344    0.0000 C   0  0  0  0  0  0  0  0  0  0  0  0
    5.4518   -0.2190    0.0000 C   0  0  0  0  0  0  0  0  0  0  0  0
    4.7664    0.2661    0.0000 O   0  0  0  0  0  0  0  0  0  0  0  0
    4.1656   -0.3306    0.0000 C   0  0  1  0  0  0  0  0  0  0  0  0
    4.9487   -0.5901    0.0000 H   0  0  0  0  0  0  0  0  0  0  0  0
    3.4413    0.2658    0.0000 C   0  0  1  0  0  0  0  0  0  0  0  0
    3.3047   -0.4184    0.0000 C   0  0  0  0  0  0  0  0  0  0  0  0
    3.6238   -1.0694    0.0000 C   0  0  0  0  0  0  0  0  0  0  0  0
    3.6217   -1.8014    0.0000 C   0  0  1  0  0  0  0  0  0  0  0  0
    2.8556   -1.2523    0.0000 C   0  0  0  0  0  0  0  0  0  0  0  0
    2.7162   -0.3547    0.0000 C   0  0  2  0  0  0  0  0  0  0  0  0
    2.0774   -0.8767    0.0000 H   0  0  0  0  0  0  0  0  0  0  0  0
    1.9425   -0.0683    0.0000 C   0  0  2  0  0  0  0  0  0  0  0  0
    2.2289    0.7054    0.0000 C   0  0  0  0  0  0  0  0  0  0  0  0
    1.6561   -0.8420    0.0000 O   0  0  0  0  0  0  0  0  0  0  0  0
    1.1688    0.2180    0.0000 C   0  0  0  0  0  0  0  0  0  0  0  0
    1.4552    0.9917    0.0000 C   0  0  0  0  0  0  0  0  0  0  0  0
    0.8824   -0.5557    0.0000 C   0  0  0  0  0  0  0  0  0  0  0  0
    0.3951    0.5044    0.0000 C   0  0  0  0  0  0  0  0  0  0  0  0
    3.4335    1.0908    0.0000 O   0  0  0  0  0  0  0  0  0  0  0  0
    2.7151    1.4965    0.0000 C   0  0  0  0  0  0  0  0  0  0  0  0
  2  1  1  6  0  0  0
  2  3  1  0  0  0  0
  3  4  1  0  0  0  0
  4  5  2  0  0  0  0
  5  6  1  0  0  0  0
  6  7  1  0  0  0  0
  8  7  1  0  0  0  0
  8  9  1  6  0  0  0
  9 10  1  0  0  0  0
 10 11  1  0  0  0  0
 11 12  1  0  0  0  0
 12 13  1  0  0  0  0
 11 13  1  0  0  0  0
  9 14  1  0  0  0  0
 14 15  1  0  0  0  0
 16 15  1  0  0  0  0
  2 16  1  0  0  0  0
 16  5  1  1  0  0  0
 16 17  1  0  0  0  0
 17  8  1  0  0  0  0
 17 18  1  1  0  0  0
 18 19  1  0  0  0  0
 20 19  1  0  0  0  0
  2 20  1  0  0  0  0
 20 21  1  1  0  0  0
 21 22  1  0  0  0  0
 20 23  1  0  0  0  0
 23 24  1  6  0  0  0
 23 25  1  0  0  0  0
 17 25  1  0  0  0  0
 23 26  1  0  0  0  0
 26 27  1  0  0  0  0
 26 28  1  1  0  0  0
 26 29  1  6  0  0  0
 29 30  1  0  0  0  0
 29 31  1  0  0  0  0
 29 32  1  0  0  0  0
  6 33  2  0  0  0  0
 33 34  1  0  0  0  0
 34 35  2  0  0  0  0
  4 35  1  0  0  0  0
 35 36  1  0  0  0  0
 36 37  1  0  0  0  0
 37 38  1  0  0  0  0
 38 39  1  0  0  0  0
 39 40  1  0  0  0  0
 40 41  2  0  0  0  0
 41 42  1  0  0  0  0
 42 43  2  0  0  0  0
 43 44  1  0  0  0  0
 45 44  1  0  0  0  0
 45 46  1  1  0  0  0
 46 47  1  0  0  0  0
 47 48  1  0  0  0  0
 48 49  1  0  0  0  0
 49 50  1  0  0  0  0
 48 50  1  0  0  0  0
 46 51  1  0  0  0  0
 51 52  1  0  0  0  0
 53 52  1  0  0  0  0
 53 54  1  6  0  0  0
 43 54  1  0  0  0  0
 54 55  2  0  0  0  0
 40 55  1  0  0  0  0
 55 56  1  0  0  0  0
 57 56  1  0  0  0  0
 53 57  1  0  0  0  0
 57 58  1  1  0  0  0
 57 59  1  0  0  0  0
 59 60  1  0  0  0  0
 60 61  1  0  0  0  0
 62 61  1  6  0  0  0
 62 45  1  0  0  0  0
 53 62  1  0  0  0  0
 62 63  1  0  0  0  0
 64 63  1  0  0  0  0
 59 64  1  0  0  0  0
 64 65  1  1  0  0  0
 64 66  1  0  0  0  0
 66 67  1  0  0  0  0
 66 68  1  1  0  0  0
 66 69  1  6  0  0  0
 69 70  1  0  0  0  0
 69 71  1  0  0  0  0
 69 72  1  0  0  0  0
 59 73  1  6  0  0  0
 73 74  1  0  0  0  0
M  END
> <DATABASE_ID>
DB16072

> <DATABASE_NAME>
drugbank

> <SMILES>
[H][C@@]12OC3=C4C(C[C@H]5N(CC6CC6)CC[C@@]14[C@@]51CC[C@@]2(OC)[C@]([H])(C1)[C@](C)(O)C(C)(C)C)=CC=C3OCCOC1=CC=C2C[C@H]3N(CC4CC4)CC[C@]45C2=C1O[C@@]4([H])[C@]1(CC[C@@]35C[C@]1([H])[C@](C)(O)C(C)(C)C)OC

> <INCHI_IDENTIFIER>
InChI=1S/C60H84N2O8/c1-51(2,3)53(7,63)41-31-55-19-21-59(41,65-9)49-57(55)23-25-61(33-35-11-12-35)43(55)29-37-15-17-39(47(69-49)45(37)57)67-27-28-68-40-18-16-38-30-44-56-20-22-60(66-10,42(32-56)54(8,64)52(4,5)6)50-58(56,46(38)48(40)70-50)24-26-62(44)34-36-13-14-36/h15-18,35-36,41-44,49-50,63-64H,11-14,19-34H2,1-10H3/t41-,42-,43-,44-,49-,50-,53+,54+,55-,56-,57+,58+,59-,60-/m1/s1

> <INCHI_KEY>
LEQOVFCHMOTJKU-WJVXOHEGSA-N

> <FORMULA>
C60H84N2O8

> <MOLECULAR_WEIGHT>
961.338

> <EXACT_MASS>
960.622767673

> <JCHEM_ACCEPTOR_COUNT>
10

> <JCHEM_ATOM_COUNT>
154

> <JCHEM_AVERAGE_NEUTRAL_MICROSPECIES_CHARGE>
1.9965460126710477

> <JCHEM_AVERAGE_POLARIZABILITY>
111.69378122654075

> <JCHEM_BIOAVAILABILITY>
0

> <JCHEM_DONOR_COUNT>
2

> <JCHEM_FORMAL_CHARGE>
0

> <JCHEM_GHOSE_FILTER>
0

> <JCHEM_IUPAC>
(2S)-2-[(1S,2R,6S,14R,15R,16R)-3-(cyclopropylmethyl)-11-(2-{[(1S,2R,6S,14R,15R,16R)-3-(cyclopropylmethyl)-16-[(2S)-2-hydroxy-3,3-dimethylbutan-2-yl]-15-methoxy-13-oxa-3-azahexacyclo[13.2.2.1^{2,8}.0^{1,6}.0^{6,14}.0^{7,12}]icosa-7(12),8,10-trien-11-yl]oxy}ethoxy)-15-methoxy-13-oxa-3-azahexacyclo[13.2.2.1^{2,8}.0^{1,6}.0^{6,14}.0^{7,12}]icosa-7(12),8,10-trien-16-yl]-3,3-dimethylbutan-2-ol

> <ALOGPS_LOGP>
7.00

> <JCHEM_LOGP>
8.184421663333332

> <ALOGPS_LOGS>
-6.78

> <JCHEM_MDDR_LIKE_RULE>
1

> <JCHEM_NEUTRAL_CHARGE>
2

> <JCHEM_NUMBER_OF_RINGS>
14

> <JCHEM_PHYSIOLOGICAL_CHARGE>
2

> <JCHEM_PKA>
14.599013211649142

> <JCHEM_PKA_STRONGEST_ACIDIC>
13.996984802043672

> <JCHEM_PKA_STRONGEST_BASIC>
10.159618927024042

> <JCHEM_POLAR_SURFACE_AREA>
102.32000000000002

> <JCHEM_REFRACTIVITY>
270.5202

> <JCHEM_ROTATABLE_BOND_COUNT>
15

> <JCHEM_RULE_OF_FIVE>
0

> <ALOGPS_SOLUBILITY>
1.59e-04 g/l

> <JCHEM_TRADITIONAL_IUPAC>
5-({4-[2-(3-methoxyphenyl)-2-oxoethoxy]phenyl}methyl)-1,3-thiazolidine-2,4-dione

> <JCHEM_VEBER_RULE>
0

> <DRUGBANK_ID>
DB16072

> <DRUG_GROUPS>
investigational

> <GENERIC_NAME>
ORP-101

> <SYNONYMS>
Buprenorphine dimer

$$$$
