
  Mrv1572001261616592D          

 30 31  0  0  0  0            999 V2000
    4.2868    7.4250    0.0000 C   0  0  0  0  0  0  0  0  0  0  0  0
   10.7171    4.5375    0.0000 C   0  0  0  0  0  0  0  0  0  0  0  0
   16.4328    9.4875    0.0000 C   0  0  0  0  0  0  0  0  0  0  0  0
    5.0013    7.0125    0.0000 C   0  0  0  0  0  0  0  0  0  0  0  0
   11.4315    4.9500    0.0000 C   0  0  0  0  0  0  0  0  0  0  0  0
   16.4328    8.6625    0.0000 C   0  0  0  0  0  0  0  0  0  0  0  0
    5.7158    7.4250    0.0000 C   0  0  0  0  0  0  0  0  0  0  0  0
    6.4302    7.0125    0.0000 C   0  0  0  0  0  0  0  0  0  0  0  0
    7.1447    7.4250    0.0000 C   0  0  0  0  0  0  0  0  0  0  0  0
    7.8592    7.0125    0.0000 C   0  0  0  0  0  0  0  0  0  0  0  0
    8.5737    7.4250    0.0000 C   0  0  0  0  0  0  0  0  0  0  0  0
    9.2881    7.0125    0.0000 C   0  0  0  0  0  0  0  0  0  0  0  0
   10.0026    7.4250    0.0000 C   0  0  0  0  0  0  0  0  0  0  0  0
   10.7171    7.0125    0.0000 C   0  0  0  0  0  0  0  0  0  0  0  0
   12.8605    7.4250    0.0000 C   0  0  0  0  0  0  0  0  0  0  0  0
   12.8605    5.7750    0.0000 C   0  0  0  0  0  0  0  0  0  0  0  0
   15.0039    6.1875    0.0000 C   0  0  0  0  0  0  0  0  0  0  0  0
   13.5749    7.0125    0.0000 C   0  0  0  0  0  0  0  0  0  0  0  0
   15.0039    7.0125    0.0000 C   0  0  0  0  0  0  0  0  0  0  0  0
   13.5749    6.1875    0.0000 C   0  0  0  0  0  0  0  0  0  0  0  0
   12.1460    7.0125    0.0000 C   0  0  0  0  0  0  0  0  0  0  0  0
   12.1460    6.1875    0.0000 C   0  0  0  0  0  0  0  0  0  0  0  0
   14.2894    7.4250    0.0000 C   0  0  0  0  0  0  0  0  0  0  0  0
   15.7184    7.4250    0.0000 C   0  0  0  0  0  0  0  0  0  0  0  0
   14.2894    5.7750    0.0000 N   0  0  0  0  0  0  0  0  0  0  0  0
   14.2894    8.2500    0.0000 O   0  0  0  0  0  0  0  0  0  0  0  0
   16.4328    7.0125    0.0000 O   0  0  0  0  0  0  0  0  0  0  0  0
   11.4315    5.7750    0.0000 O   0  0  0  0  0  0  0  0  0  0  0  0
   15.7184    8.2500    0.0000 O   0  0  0  0  0  0  0  0  0  0  0  0
   11.4315    7.4250    0.0000 O   0  0  0  0  0  0  0  0  0  0  0  0
  4  1  1  0  0  0  0
  5  2  1  0  0  0  0
  6  3  1  0  0  0  0
  7  4  1  0  0  0  0
  8  7  1  0  0  0  0
  9  8  1  0  0  0  0
 10  9  1  0  0  0  0
 11 10  1  0  0  0  0
 12 11  1  0  0  0  0
 13 12  1  0  0  0  0
 14 13  1  0  0  0  0
 18 15  2  0  0  0  0
 19 17  2  0  0  0  0
 20 16  2  0  0  0  0
 20 18  1  0  0  0  0
 21 15  1  0  0  0  0
 22 16  1  0  0  0  0
 22 21  2  0  0  0  0
 23 18  1  0  0  0  0
 23 19  1  0  0  0  0
 24 19  1  0  0  0  0
 25 17  1  0  0  0  0
 25 20  1  0  0  0  0
 26 23  2  0  0  0  0
 27 24  2  0  0  0  0
 28  5  1  0  0  0  0
 28 22  1  0  0  0  0
 29  6  1  0  0  0  0
 29 24  1  0  0  0  0
 30 14  1  0  0  0  0
 30 21  1  0  0  0  0
M  END
> <DATABASE_ID>
DB11394

> <DATABASE_NAME>
drugbank

> <SMILES>
CCCCCCCCCCOC1=C(OCC)C=C2NC=C(C(=O)OCC)C(=O)C2=C1

> <INCHI_IDENTIFIER>
InChI=1S/C24H35NO5/c1-4-7-8-9-10-11-12-13-14-30-21-15-18-20(16-22(21)28-5-2)25-17-19(23(18)26)24(27)29-6-3/h15-17H,4-14H2,1-3H3,(H,25,26)

> <INCHI_KEY>
JHAYEQICABJSTP-UHFFFAOYSA-N

> <FORMULA>
C24H35NO5

> <MOLECULAR_WEIGHT>
417.546

> <EXACT_MASS>
417.251523231

> <JCHEM_ACCEPTOR_COUNT>
5

> <JCHEM_ATOM_COUNT>
65

> <JCHEM_AVERAGE_POLARIZABILITY>
49.91033719962111

> <JCHEM_BIOAVAILABILITY>
0

> <JCHEM_DONOR_COUNT>
1

> <JCHEM_FORMAL_CHARGE>
0

> <JCHEM_GHOSE_FILTER>
0

> <JCHEM_IUPAC>
ethyl 6-(decyloxy)-7-ethoxy-4-oxo-1,4-dihydroquinoline-3-carboxylate

> <ALOGPS_LOGP>
6.00

> <JCHEM_LOGP>
6.305984812666667

> <ALOGPS_LOGS>
-5.79

> <JCHEM_MDDR_LIKE_RULE>
0

> <JCHEM_NUMBER_OF_RINGS>
2

> <JCHEM_PHYSIOLOGICAL_CHARGE>
-1

> <JCHEM_PKA_STRONGEST_ACIDIC>
5.949059218136014

> <JCHEM_PKA_STRONGEST_BASIC>
-1.5495571959389691

> <JCHEM_POLAR_SURFACE_AREA>
73.86000000000001

> <JCHEM_REFRACTIVITY>
119.76529999999995

> <JCHEM_ROTATABLE_BOND_COUNT>
15

> <JCHEM_RULE_OF_FIVE>
0

> <ALOGPS_SOLUBILITY>
6.79e-04 g/l

> <JCHEM_TRADITIONAL_IUPAC>
decoquinate

> <JCHEM_VEBER_RULE>
0

> <DRUGBANK_ID>
DB11394

> <DRUG_GROUPS>
experimental; vet_approved

> <GENERIC_NAME>
Decoquinate

> <SYNONYMS>
Decoquinate; Decoquinato; Decoquinatum

> <INTERNATIONAL_BRANDS>
Deccox

$$$$
