
  Mrv1572004221605062D          

 16 18  0  0  0  0            999 V2000
    4.3164   -0.1105    0.0000 C   0  0  0  0  0  0  0  0  0  0  0  0
    1.0164   -0.1105    0.0000 C   0  0  0  0  0  0  0  0  0  0  0  0
    3.4914   -0.1105    0.0000 C   0  0  0  0  0  0  0  0  0  0  0  0
    1.8414   -0.1105    0.0000 C   0  0  0  0  0  0  0  0  0  0  0  0
    4.7289   -0.8250    0.0000 C   0  0  0  0  0  0  0  0  0  0  0  0
    0.6039   -0.8250    0.0000 C   0  0  0  0  0  0  0  0  0  0  0  0
    3.0789   -0.8250    0.0000 C   0  0  0  0  0  0  0  0  0  0  0  0
    2.2539   -0.8250    0.0000 C   0  0  0  0  0  0  0  0  0  0  0  0
    3.4914   -1.5395    0.0000 C   0  0  0  0  0  0  0  0  0  0  0  0
    1.8414   -1.5395    0.0000 C   0  0  0  0  0  0  0  0  0  0  0  0
    3.0789   -2.2539    0.0000 C   0  0  0  0  0  0  0  0  0  0  0  0
    2.2539   -2.2539    0.0000 C   0  0  0  0  0  0  0  0  0  0  0  0
    4.3164   -1.5395    0.0000 N   0  0  0  0  0  0  0  0  0  0  0  0
    1.0164   -1.5395    0.0000 N   0  0  0  0  0  0  0  0  0  0  0  0
    3.4914   -2.9684    0.0000 O   0  0  0  0  0  0  0  0  0  0  0  0
    1.8414   -2.9684    0.0000 O   0  0  0  0  0  0  0  0  0  0  0  0
  3  1  2  0  0  0  0
  4  2  2  0  0  0  0
  5  1  1  0  0  0  0
  6  2  1  0  0  0  0
  7  3  1  0  0  0  0
  8  4  1  0  0  0  0
  8  7  1  0  0  0  0
  9  7  2  0  0  0  0
 10  8  2  0  0  0  0
 11  9  1  0  0  0  0
 12 10  1  0  0  0  0
 12 11  1  0  0  0  0
 13  5  2  0  0  0  0
 13  9  1  0  0  0  0
 14  6  2  0  0  0  0
 14 10  1  0  0  0  0
 15 11  2  0  0  0  0
 16 12  2  0  0  0  0
M  END
> <DATABASE_ID>
DB13469

> <DATABASE_NAME>
drugbank

> <SMILES>
O=C1C(=O)C2=C(C=CC=N2)C2=C1N=CC=C2

> <INCHI_IDENTIFIER>
InChI=1S/C12H6N2O2/c15-11-9-7(3-1-5-13-9)8-4-2-6-14-10(8)12(11)16/h1-6H

> <INCHI_KEY>
VLPADTBFADIFKG-UHFFFAOYSA-N

> <FORMULA>
C12H6N2O2

> <MOLECULAR_WEIGHT>
210.192

> <EXACT_MASS>
210.042927441

> <JCHEM_ACCEPTOR_COUNT>
4

> <JCHEM_ATOM_COUNT>
22

> <JCHEM_AVERAGE_POLARIZABILITY>
20.11414571066844

> <JCHEM_BIOAVAILABILITY>
1

> <JCHEM_DONOR_COUNT>
0

> <JCHEM_FORMAL_CHARGE>
0

> <JCHEM_GHOSE_FILTER>
1

> <JCHEM_IUPAC>
5,6-dihydro-4,7-phenanthroline-5,6-dione

> <ALOGPS_LOGP>
1.03

> <JCHEM_LOGP>
1.255061872

> <ALOGPS_LOGS>
-2.09

> <JCHEM_MDDR_LIKE_RULE>
0

> <JCHEM_NUMBER_OF_RINGS>
3

> <JCHEM_PHYSIOLOGICAL_CHARGE>
0

> <JCHEM_PKA_STRONGEST_BASIC>
1.690877967841131

> <JCHEM_POLAR_SURFACE_AREA>
59.92

> <JCHEM_REFRACTIVITY>
56.0932

> <JCHEM_ROTATABLE_BOND_COUNT>
0

> <JCHEM_RULE_OF_FIVE>
1

> <ALOGPS_SOLUBILITY>
1.72e+00 g/l

> <JCHEM_TRADITIONAL_IUPAC>
phanquinone

> <JCHEM_VEBER_RULE>
0

> <DRUGBANK_ID>
DB13469

> <DRUG_GROUPS>
experimental

> <GENERIC_NAME>
Phanquinone

> <SYNONYMS>
fanquinona; Phanquinone; Phanquone

$$$$
