
  Mrv1909 02232022382D          

 21 24  0  0  0  0            999 V2000
    1.5086   -0.1073    0.0000 C   0  0  1  0  0  0  0  0  0  0  0  0
    0.7942   -0.5198    0.0000 C   0  0  0  0  0  0  0  0  0  0  0  0
    1.5086    0.7177    0.0000 C   0  0  2  0  0  0  0  0  0  0  0  0
    2.2933   -0.3621    0.0000 C   0  0  0  0  0  0  0  0  0  0  0  0
    0.0797   -0.1073    0.0000 C   0  0  0  0  0  0  0  0  0  0  0  0
    0.7942   -1.3448    0.0000 C   0  0  0  0  0  0  0  0  0  0  0  0
    0.7942    1.1302    0.0000 C   0  0  0  0  0  0  0  0  0  0  0  0
    2.2933    0.9726    0.0000 C   0  0  0  0  0  0  0  0  0  0  0  0
    1.5949    1.5382    0.0000 C   0  0  0  0  0  0  0  0  0  0  0  0
    2.7782    0.3052    0.0000 C   0  0  0  0  0  0  0  0  0  0  0  0
   -0.6347   -0.5198    0.0000 C   0  0  0  0  0  0  0  0  0  0  0  0
    0.0797    0.7177    0.0000 C   0  0  0  0  0  0  0  0  0  0  0  0
    0.0797   -1.7573    0.0000 C   0  0  0  0  0  0  0  0  0  0  0  0
    2.5482    1.7573    0.0000 O   0  0  0  0  0  0  0  0  0  0  0  0
   -0.6347   -1.3448    0.0000 C   0  0  0  0  0  0  0  0  0  0  0  0
   -1.3491   -0.1073    0.0000 C   0  0  0  0  0  0  0  0  0  0  0  0
   -1.3491   -1.7573    0.0000 C   0  0  0  0  0  0  0  0  0  0  0  0
   -2.0637   -0.5198    0.0000 C   0  0  0  0  0  0  0  0  0  0  0  0
   -2.0637   -1.3448    0.0000 C   0  0  0  0  0  0  0  0  0  0  0  0
   -2.7782   -1.7573    0.0000 O   0  0  0  0  0  0  0  0  0  0  0  0
    1.5949   -0.9278    0.0000 H   0  0  0  0  0  0  0  0  0  0  0  0
  1  2  1  0  0  0  0
  1  3  1  0  0  0  0
  1  4  1  0  0  0  0
  2  5  2  0  0  0  0
  2  6  1  0  0  0  0
  3  7  1  0  0  0  0
  3  8  1  0  0  0  0
  3  9  1  1  0  0  0
  4 10  1  0  0  0  0
  5 11  1  0  0  0  0
  5 12  1  0  0  0  0
  6 13  2  0  0  0  0
  8 14  2  0  0  0  0
 11 15  2  0  0  0  0
 11 16  1  0  0  0  0
 15 17  1  0  0  0  0
 16 18  2  0  0  0  0
 17 19  2  0  0  0  0
 19 20  1  0  0  0  0
  7 12  1  0  0  0  0
  8 10  1  0  0  0  0
 13 15  1  0  0  0  0
 18 19  1  0  0  0  0
  1 21  1  6  0  0  0
M  END
> <DATABASE_ID>
DB03515

> <DATABASE_NAME>
drugbank

> <SMILES>
[H][C@@]12CCC(=O)[C@@]1(C)CCC1=C2C=CC2=C1C=CC(O)=C2

> <INCHI_IDENTIFIER>
InChI=1S/C18H18O2/c1-18-9-8-14-13-5-3-12(19)10-11(13)2-4-15(14)16(18)6-7-17(18)20/h2-5,10,16,19H,6-9H2,1H3/t16-,18-/m0/s1

> <INCHI_KEY>
PDRGHUMCVRDZLQ-WMZOPIPTSA-N

> <FORMULA>
C18H18O2

> <MOLECULAR_WEIGHT>
266.3343

> <EXACT_MASS>
266.13067982

> <JCHEM_ACCEPTOR_COUNT>
2

> <JCHEM_ATOM_COUNT>
38

> <JCHEM_AVERAGE_NEUTRAL_MICROSPECIES_CHARGE>
-0.0016611049445623585

> <JCHEM_AVERAGE_POLARIZABILITY>
30.102782243770612

> <JCHEM_BIOAVAILABILITY>
1

> <JCHEM_DONOR_COUNT>
1

> <JCHEM_FORMAL_CHARGE>
0

> <JCHEM_GHOSE_FILTER>
1

> <JCHEM_IUPAC>
(3aS,11aS)-7-hydroxy-11a-methyl-1H,2H,3H,3aH,10H,11H,11aH-cyclopenta[a]phenanthren-1-one

> <ALOGPS_LOGP>
4.32

> <JCHEM_LOGP>
4.299056170666667

> <ALOGPS_LOGS>
-4.71

> <JCHEM_MDDR_LIKE_RULE>
0

> <JCHEM_NEUTRAL_CHARGE>
0

> <JCHEM_NUMBER_OF_RINGS>
4

> <JCHEM_PHYSIOLOGICAL_CHARGE>
0

> <JCHEM_PKA_STRONGEST_ACIDIC>
9.778880920471414

> <JCHEM_PKA_STRONGEST_BASIC>
-5.497017869942498

> <JCHEM_POLAR_SURFACE_AREA>
37.3

> <JCHEM_REFRACTIVITY>
79.03559999999999

> <JCHEM_ROTATABLE_BOND_COUNT>
0

> <JCHEM_RULE_OF_FIVE>
1

> <ALOGPS_SOLUBILITY>
5.20e-03 g/l

> <JCHEM_TRADITIONAL_IUPAC>
2-methoxy-4-vinyl-phenol

> <JCHEM_VEBER_RULE>
1

> <DRUGBANK_ID>
DB03515

> <SECONDARY_ACCESSION_NUMBERS>
EXPT01356

> <DRUG_GROUPS>
experimental

> <GENERIC_NAME>
Equilenin

> <SYNONYMS>
3-Hydroxyestra-1,3,5(10),6,8-pentaen-17-one; Equilenina

$$$$
