
  Mrv1909 11281915232D          

 60 64  0  0  0  0            999 V2000
   -2.2361   -2.7660    0.0000 C   0  0  0  0  0  0  0  0  0  0  0  0
   -1.5687   -3.2510    0.0000 C   0  0  0  0  0  0  0  0  0  0  0  0
   -0.7841   -2.9959    0.0000 C   0  0  0  0  0  0  0  0  0  0  0  0
   -2.9506   -1.5285    0.0000 C   0  0  0  0  0  0  0  0  0  0  0  0
   -2.2361   -1.9411    0.0000 C   0  0  0  0  0  0  0  0  0  0  0  0
   -2.6486   -4.0355    0.0000 C   0  0  0  0  0  0  0  0  0  0  0  0
   -2.9036   -3.2510    0.0000 C   0  0  0  0  0  0  0  0  0  0  0  0
   -1.8236   -4.0355    0.0000 N   0  0  0  0  0  0  0  0  0  0  0  0
   -3.2007   -4.6487    0.0000 C   0  0  0  0  0  0  0  0  0  0  0  0
   -3.7106   -3.0795    0.0000 C   0  0  0  0  0  0  0  0  0  0  0  0
   -4.0076   -4.4771    0.0000 C   0  0  0  0  0  0  0  0  0  0  0  0
   -4.2626   -3.6926    0.0000 C   0  0  0  0  0  0  0  0  0  0  0  0
   -5.0696   -3.5210    0.0000 O   0  0  0  0  0  0  0  0  0  0  0  0
   -5.6216   -4.1340    0.0000 C   0  0  0  0  0  0  0  0  0  0  0  0
   -2.9506   -0.7036    0.0000 O   0  0  0  0  0  0  0  0  0  0  0  0
   -3.6651   -1.9411    0.0000 O   0  0  0  0  0  0  0  0  0  0  0  0
   -1.4124   -4.7347    0.0000 C   0  0  0  0  0  0  0  0  0  0  0  0
   -0.5875   -4.7458    0.0000 C   0  0  0  0  0  0  0  0  0  0  0  0
   -0.1846   -5.4657    0.0000 C   0  0  0  0  0  0  0  0  0  0  0  0
    0.6402   -5.4767    0.0000 C   0  0  0  0  0  0  0  0  0  0  0  0
    1.0623   -4.7678    0.0000 C   0  0  0  0  0  0  0  0  0  0  0  0
    0.6593   -4.0478    0.0000 C   0  0  0  0  0  0  0  0  0  0  0  0
   -0.1655   -4.0369    0.0000 C   0  0  0  0  0  0  0  0  0  0  0  0
    1.8872   -4.7787    0.0000 Cl  0  0  0  0  0  0  0  0  0  0  0  0
   -1.8344   -5.4435    0.0000 O   0  0  0  0  0  0  0  0  0  0  0  0
   -3.6664   -0.2982    0.0000 C   0  0  0  0  0  0  0  0  0  0  0  0
   -3.6664    0.5266    0.0000 C   0  0  0  0  0  0  0  0  0  0  0  0
   -2.9519    0.9392    0.0000 N   0  0  0  0  0  0  0  0  0  0  0  0
   -2.2375    0.5266    0.0000 C   0  0  0  0  0  0  0  0  0  0  0  0
   -1.5230    0.9392    0.0000 C   0  0  0  0  0  0  0  0  0  0  0  0
   -1.5230    1.7642    0.0000 N   0  0  0  0  0  0  0  0  0  0  0  0
   -2.2375    2.1767    0.0000 C   0  0  0  0  0  0  0  0  0  0  0  0
   -2.9519    1.7642    0.0000 C   0  0  0  0  0  0  0  0  0  0  0  0
   -0.8085    2.1767    0.0000 C   0  0  0  0  0  0  0  0  0  0  0  0
   -0.8085    3.0017    0.0000 C   0  0  0  0  0  0  0  0  0  0  0  0
   -0.0940    3.4142    0.0000 C   0  0  0  0  0  0  0  0  0  0  0  0
   -0.0940    4.2391    0.0000 O   0  0  0  0  0  0  0  0  0  0  0  0
    0.6203    4.6517    0.0000 C   0  0  0  0  0  0  0  0  0  0  0  0
    1.3348    4.2391    0.0000 C   0  0  0  0  0  0  0  0  0  0  0  0
    2.0493    4.6517    0.0000 C   0  0  0  0  0  0  0  0  0  0  0  0
    2.7637    4.2391    0.0000 C   0  0  0  0  0  0  0  0  0  0  0  0
    3.4782    4.6517    0.0000 C   0  0  0  0  0  0  0  0  0  0  0  0
    4.1927    4.2391    0.0000 N   0  0  0  0  0  0  0  0  0  0  0  0
    4.9072    4.6517    0.0000 C   0  0  0  0  0  0  0  0  0  0  0  0
    5.6216    4.2391    0.0000 C   0  0  0  0  0  0  0  0  0  0  0  0
    0.6203    5.4767    0.0000 O   0  0  0  0  0  0  0  0  0  0  0  0
    2.7637    3.4142    0.0000 N   0  0  0  0  0  0  0  0  0  0  0  0
    2.0493    3.0017    0.0000 C   0  0  0  0  0  0  0  0  0  0  0  0
    2.0493    2.1767    0.0000 C   0  0  0  0  0  0  0  0  0  0  0  0
    1.3348    1.7642    0.0000 C   0  0  0  0  0  0  0  0  0  0  0  0
    1.3348    0.9392    0.0000 C   0  0  0  0  0  0  0  0  0  0  0  0
    2.0493    0.5266    0.0000 C   0  0  0  0  0  0  0  0  0  0  0  0
    2.7637    0.9392    0.0000 C   0  0  0  0  0  0  0  0  0  0  0  0
    2.7637    1.7642    0.0000 C   0  0  0  0  0  0  0  0  0  0  0  0
    1.3348    3.4142    0.0000 O   0  0  0  0  0  0  0  0  0  0  0  0
    3.4782    5.4767    0.0000 O   0  0  0  0  0  0  0  0  0  0  0  0
    4.1927    3.4142    0.0000 C   0  0  0  0  0  0  0  0  0  0  0  0
    4.9072    3.0017    0.0000 C   0  0  0  0  0  0  0  0  0  0  0  0
    4.9072    2.1767    0.0000 C   0  0  0  0  0  0  0  0  0  0  0  0
    5.6195    3.4130    0.0000 C   0  0  0  0  0  0  0  0  0  0  0  0
  9 11  2  0  0  0  0
 10 12  2  0  0  0  0
 12 13  1  0  0  0  0
 13 14  1  0  0  0  0
 11 12  1  0  0  0  0
  4  5  1  0  0  0  0
  4 15  1  0  0  0  0
  5  1  1  0  0  0  0
  1  2  2  0  0  0  0
  2  3  1  0  0  0  0
  6  7  2  0  0  0  0
  6  8  1  0  0  0  0
  6  9  1  0  0  0  0
  7  1  1  0  0  0  0
  7 10  1  0  0  0  0
  8  2  1  0  0  0  0
  4 16  2  0  0  0  0
  8 17  1  0  0  0  0
 17 18  1  0  0  0  0
 18 19  2  0  0  0  0
 19 20  1  0  0  0  0
 20 21  2  0  0  0  0
 21 22  1  0  0  0  0
 22 23  2  0  0  0  0
 18 23  1  0  0  0  0
 21 24  1  0  0  0  0
 17 25  2  0  0  0  0
 15 26  1  0  0  0  0
 35 36  1  0  0  0  0
 36 37  1  0  0  0  0
 37 38  1  0  0  0  0
 38 39  1  0  0  0  0
 39 40  1  0  0  0  0
 40 41  1  0  0  0  0
 41 42  1  0  0  0  0
 42 43  1  0  0  0  0
 43 44  1  0  0  0  0
 44 45  1  0  0  0  0
 38 46  2  0  0  0  0
 41 47  1  0  0  0  0
 47 48  1  0  0  0  0
 48 49  1  0  0  0  0
 49 50  2  0  0  0  0
 50 51  1  0  0  0  0
 51 52  2  0  0  0  0
 52 53  1  0  0  0  0
 53 54  2  0  0  0  0
 54 49  1  0  0  0  0
 48 55  2  0  0  0  0
 42 56  2  0  0  0  0
 26 27  1  0  0  0  0
 43 57  1  0  0  0  0
 57 58  1  0  0  0  0
 27 28  1  0  0  0  0
 58 59  1  0  0  0  0
 28 29  1  0  0  0  0
 29 30  1  0  0  0  0
 30 31  1  0  0  0  0
 31 32  1  0  0  0  0
 32 33  1  0  0  0  0
 33 28  1  0  0  0  0
 31 34  1  0  0  0  0
 34 35  1  0  0  0  0
 45 60  1  0  0  0  0
M  END
> <DATABASE_ID>
DB13527

> <DATABASE_NAME>
drugbank

> <SMILES>
CCCN(CCC)C(=O)C(CCC(=O)OCCCN1CCN(CCOC(=O)CC2=C(C)N(C(=O)C3=CC=C(Cl)C=C3)C3=C2C=C(OC)C=C3)CC1)NC(=O)C1=CC=CC=C1

> <INCHI_IDENTIFIER>
InChI=1S/C46H58ClN5O8/c1-5-21-51(22-6-2)46(57)40(48-44(55)34-11-8-7-9-12-34)18-20-42(53)59-29-10-23-49-24-26-50(27-25-49)28-30-60-43(54)32-38-33(3)52(41-19-17-37(58-4)31-39(38)41)45(56)35-13-15-36(47)16-14-35/h7-9,11-17,19,31,40H,5-6,10,18,20-30,32H2,1-4H3,(H,48,55)

> <INCHI_KEY>
PTXGHCGBYMQQIG-UHFFFAOYSA-N

> <FORMULA>
C46H58ClN5O8

> <MOLECULAR_WEIGHT>
844.45

> <EXACT_MASS>
843.3973915

> <JCHEM_ACCEPTOR_COUNT>
8

> <JCHEM_ATOM_COUNT>
118

> <JCHEM_AVERAGE_POLARIZABILITY>
94.74804341132968

> <JCHEM_BIOAVAILABILITY>
0

> <JCHEM_DONOR_COUNT>
1

> <JCHEM_FORMAL_CHARGE>
0

> <JCHEM_GHOSE_FILTER>
0

> <JCHEM_IUPAC>
3-{4-[2-({2-[1-(4-chlorobenzoyl)-5-methoxy-2-methyl-1H-indol-3-yl]acetyl}oxy)ethyl]piperazin-1-yl}propyl 4-(dipropylcarbamoyl)-4-(phenylformamido)butanoate

> <ALOGPS_LOGP>
5.94

> <JCHEM_LOGP>
5.715890627333334

> <ALOGPS_LOGS>
-5.86

> <JCHEM_MDDR_LIKE_RULE>
1

> <JCHEM_NUMBER_OF_RINGS>
5

> <JCHEM_PHYSIOLOGICAL_CHARGE>
1

> <JCHEM_PKA>
17.968180143854756

> <JCHEM_PKA_STRONGEST_ACIDIC>
15.041126032645112

> <JCHEM_PKA_STRONGEST_BASIC>
7.804396769410955

> <JCHEM_POLAR_SURFACE_AREA>
139.72

> <JCHEM_REFRACTIVITY>
232.8772

> <JCHEM_ROTATABLE_BOND_COUNT>
23

> <JCHEM_RULE_OF_FIVE>
0

> <ALOGPS_SOLUBILITY>
1.16e-03 g/l

> <JCHEM_TRADITIONAL_IUPAC>
iodoxamate meglumine

> <JCHEM_VEBER_RULE>
0

> <DRUGBANK_ID>
DB13527

> <DRUG_GROUPS>
experimental

> <GENERIC_NAME>
Proglumetacin

> <SYNONYMS>
Proglumetacin; Proglumetacina; Proglum√©tacine

$$$$
