
  Mrv1718003261822162D          

 67 66  0  0  0  0            999 V2000
  -12.5032    2.2539    0.0000 C   0  0  0  0  0  0  0  0  0  0  0  0
  -11.7887    3.4914    0.0000 C   0  0  0  0  0  0  0  0  0  0  0  0
   12.5032    2.6664    0.0000 C   0  0  0  0  0  0  0  0  0  0  0  0
   11.7887    1.4289    0.0000 C   0  0  0  0  0  0  0  0  0  0  0  0
   -8.9308    3.4914    0.0000 C   0  0  0  0  0  0  0  0  0  0  0  0
    8.9308    1.4289    0.0000 C   0  0  0  0  0  0  0  0  0  0  0  0
   -6.0730    3.4914    0.0000 C   0  0  0  0  0  0  0  0  0  0  0  0
    6.0730    1.4289    0.0000 C   0  0  0  0  0  0  0  0  0  0  0  0
   -3.2151    3.4914    0.0000 C   0  0  0  0  0  0  0  0  0  0  0  0
    3.2151    1.4289    0.0000 C   0  0  0  0  0  0  0  0  0  0  0  0
  -10.3598    2.6664    0.0000 C   0  0  0  0  0  0  0  0  0  0  0  0
   10.3598    2.2539    0.0000 C   0  0  0  0  0  0  0  0  0  0  0  0
   -7.5019    2.6664    0.0000 C   0  0  0  0  0  0  0  0  0  0  0  0
    7.5019    2.2539    0.0000 C   0  0  0  0  0  0  0  0  0  0  0  0
   -4.6440    2.6664    0.0000 C   0  0  0  0  0  0  0  0  0  0  0  0
    4.6440    2.2539    0.0000 C   0  0  0  0  0  0  0  0  0  0  0  0
  -11.0742    2.2539    0.0000 C   0  0  0  0  0  0  0  0  0  0  0  0
   11.0742    2.6664    0.0000 C   0  0  0  0  0  0  0  0  0  0  0  0
   -9.6453    2.2539    0.0000 C   0  0  0  0  0  0  0  0  0  0  0  0
    9.6453    2.6664    0.0000 C   0  0  0  0  0  0  0  0  0  0  0  0
   -8.2164    2.2539    0.0000 C   0  0  0  0  0  0  0  0  0  0  0  0
    8.2164    2.6664    0.0000 C   0  0  0  0  0  0  0  0  0  0  0  0
   -6.7874    2.2539    0.0000 C   0  0  0  0  0  0  0  0  0  0  0  0
    6.7874    2.6664    0.0000 C   0  0  0  0  0  0  0  0  0  0  0  0
   -5.3585    2.2539    0.0000 C   0  0  0  0  0  0  0  0  0  0  0  0
    5.3585    2.6664    0.0000 C   0  0  0  0  0  0  0  0  0  0  0  0
   -3.9295    2.2539    0.0000 C   0  0  0  0  0  0  0  0  0  0  0  0
    3.9295    2.6664    0.0000 C   0  0  0  0  0  0  0  0  0  0  0  0
   -2.5006    2.2539    0.0000 C   0  0  0  0  0  0  0  0  0  0  0  0
    2.5006    2.6664    0.0000 C   0  0  0  0  0  0  0  0  0  0  0  0
   -1.7861    2.6664    0.0000 C   0  0  0  0  0  0  0  0  0  0  0  0
    1.7861    2.2539    0.0000 C   0  0  0  0  0  0  0  0  0  0  0  0
    2.3092   -1.9519    0.0000 C   0  0  0  0  0  0  0  0  0  0  0  0
    2.3092   -0.5230    0.0000 C   0  0  0  0  0  0  0  0  0  0  0  0
   -0.3572    2.6664    0.0000 C   0  0  0  0  0  0  0  0  0  0  0  0
    0.3572    1.4289    0.0000 C   0  0  0  0  0  0  0  0  0  0  0  0
  -11.7887    2.6664    0.0000 C   0  0  0  0  0  0  0  0  0  0  0  0
   11.7887    2.2539    0.0000 C   0  0  0  0  0  0  0  0  0  0  0  0
   -8.9308    2.6664    0.0000 C   0  0  0  0  0  0  0  0  0  0  0  0
    8.9308    2.2539    0.0000 C   0  0  0  0  0  0  0  0  0  0  0  0
   -6.0730    2.6664    0.0000 C   0  0  2  0  0  0  0  0  0  0  0  0
    6.0730    2.2539    0.0000 C   0  0  2  0  0  0  0  0  0  0  0  0
   -3.2151    2.6664    0.0000 C   0  0  2  0  0  0  0  0  0  0  0  0
    3.2151    2.2539    0.0000 C   0  0  2  0  0  0  0  0  0  0  0  0
    1.8967   -1.2375    0.0000 C   0  0  2  0  0  0  0  0  0  0  0  0
    0.3572    2.2539    0.0000 C   0  0  1  0  0  0  0  0  0  0  0  0
    1.0717   -1.2375    0.0000 O   0  0  0  0  0  0  0  0  0  0  0  0
    1.0717   -1.8414    0.0000 O   0  5  0  0  0  0  0  0  0  0  0  0
    1.0717   -3.4914    0.0000 O   0  5  0  0  0  0  0  0  0  0  0  0
    0.2467   -2.6664    0.0000 O   0  0  0  0  0  0  0  0  0  0  0  0
    0.2467    0.1914    0.0000 O   0  0  0  0  0  0  0  0  0  0  0  0
    1.0717   -0.6335    0.0000 O   0  0  0  0  0  0  0  0  0  0  0  0
   -1.0717    2.2539    0.0000 O   0  0  0  0  0  0  0  0  0  0  0  0
    1.0717    2.6664    0.0000 O   0  0  0  0  0  0  0  0  0  0  0  0
    1.8967   -2.6664    0.0000 O   0  0  0  0  0  0  0  0  0  0  0  0
    1.8967    0.1914    0.0000 O   0  0  0  0  0  0  0  0  0  0  0  0
    1.0717    1.0164    0.0000 O   0  0  0  0  0  0  0  0  0  0  0  0
    1.0717   -2.6664    0.0000 P   0  0  0  0  0  0  0  0  0  0  0  0
    1.0717    0.1914    0.0000 P   0  0  0  0  0  0  0  0  0  0  0  0
   -9.6453    3.0789    0.0000 H   0  0  0  0  0  0  0  0  0  0  0  0
    9.6453    1.8414    0.0000 H   0  0  0  0  0  0  0  0  0  0  0  0
   -6.7874    3.0789    0.0000 H   0  0  0  0  0  0  0  0  0  0  0  0
    6.7874    1.8414    0.0000 H   0  0  0  0  0  0  0  0  0  0  0  0
   -3.9295    3.0789    0.0000 H   0  0  0  0  0  0  0  0  0  0  0  0
    3.9295    1.8414    0.0000 H   0  0  0  0  0  0  0  0  0  0  0  0
    2.7217   -1.2375    0.0000 H   0  0  0  0  0  0  0  0  0  0  0  0
   -0.3572    1.8414    0.0000 H   0  0  0  0  0  0  0  0  0  0  0  0
 17 11  1  0  0  0  0
 18 12  1  0  0  0  0
 19 11  1  0  0  0  0
 20 12  1  0  0  0  0
 21 13  1  0  0  0  0
 22 14  1  0  0  0  0
 23 13  1  0  0  0  0
 24 14  1  0  0  0  0
 25 15  1  0  0  0  0
 26 16  1  0  0  0  0
 27 15  1  0  0  0  0
 28 16  1  0  0  0  0
 31 29  1  0  0  0  0
 32 30  1  0  0  0  0
 37  1  1  0  0  0  0
 37  2  1  0  0  0  0
 37 17  1  0  0  0  0
 38  3  1  0  0  0  0
 38  4  1  0  0  0  0
 38 18  1  0  0  0  0
 39  5  1  0  0  0  0
 39 19  1  0  0  0  0
 39 21  1  0  0  0  0
 40  6  1  0  0  0  0
 40 20  1  0  0  0  0
 40 22  1  0  0  0  0
 41  7  1  0  0  0  0
 41 23  1  0  0  0  0
 41 25  1  0  0  0  0
 42  8  1  0  0  0  0
 42 24  1  0  0  0  0
 42 26  1  0  0  0  0
 43  9  1  0  0  0  0
 43 27  1  0  0  0  0
 43 29  1  0  0  0  0
 44 10  1  0  0  0  0
 44 28  1  0  0  0  0
 44 30  1  0  0  0  0
 45 33  1  0  0  0  0
 45 34  1  0  0  0  0
 46 35  1  0  0  0  0
 46 36  1  0  0  0  0
 45 47  1  0  0  0  0
 53 31  1  0  0  0  0
 53 35  1  0  0  0  0
 54 32  1  0  0  0  0
 46 54  1  0  0  0  0
 55 33  1  0  0  0  0
 56 34  1  0  0  0  0
 57 36  1  0  0  0  0
 58 48  1  0  0  0  0
 58 49  1  0  0  0  0
 58 50  2  0  0  0  0
 58 55  1  0  0  0  0
 59 51  1  0  0  0  0
 59 52  2  0  0  0  0
 59 56  1  0  0  0  0
 59 57  1  0  0  0  0
 60 39  1  0  0  0  0
 61 40  1  0  0  0  0
 41 62  1  6  0  0  0
 42 63  1  6  0  0  0
 43 64  1  6  0  0  0
 44 65  1  6  0  0  0
 45 66  1  6  0  0  0
 46 67  1  1  0  0  0
M  CHG  2  48  -1  49  -1
M  END
> <DATABASE_ID>
DB02293

> <DATABASE_NAME>
drugbank

> <SMILES>
[H]C(C)(CCCC(C)C)CCC[C@@]([H])(C)CCC[C@@]([H])(C)CCOC[C@@]([H])(COP(O)(=O)OC[C@]([H])(O)COP([O-])([O-])=O)OCC[C@]([H])(C)CCC[C@]([H])(C)CCCC([H])(C)CCCC(C)C

> <INCHI_IDENTIFIER>
InChI=1S/C46H96O11P2/c1-37(2)17-11-19-39(5)21-13-23-41(7)25-15-27-43(9)29-31-53-35-46(36-57-59(51,52)56-34-45(47)33-55-58(48,49)50)54-32-30-44(10)28-16-26-42(8)24-14-22-40(6)20-12-18-38(3)4/h37-47H,11-36H2,1-10H3,(H,51,52)(H2,48,49,50)/p-2/t39?,40?,41-,42-,43-,44-,45-,46+/m1/s1

> <INCHI_KEY>
TZXJQSKPTCRGCA-VZSPAKCESA-L

> <FORMULA>
C46H94O11P2

> <MOLECULAR_WEIGHT>
885.1795

> <EXACT_MASS>
884.627136874

> <JCHEM_ACCEPTOR_COUNT>
8

> <JCHEM_ATOM_COUNT>
153

> <JCHEM_AVERAGE_POLARIZABILITY>
104.75404233730171

> <JCHEM_BIOAVAILABILITY>
0

> <JCHEM_DONOR_COUNT>
2

> <JCHEM_FORMAL_CHARGE>
-2

> <JCHEM_GHOSE_FILTER>
0

> <JCHEM_IUPAC>
(3R,7R)-1-{[(2S)-1-({hydroxy[(2R)-2-hydroxy-3-(phosphonooxy)propoxy]phosphoryl}oxy)-3-{[(3R,7R)-3,7,11,15-tetramethylhexadecyl]oxy}propan-2-yl]oxy}-3,7,11,15-tetramethylhexadecane

> <ALOGPS_LOGP>
7.75

> <JCHEM_LOGP>
13.871229450666663

> <ALOGPS_LOGS>
-6.52

> <JCHEM_MDDR_LIKE_RULE>
0

> <JCHEM_NUMBER_OF_RINGS>
0

> <JCHEM_PHYSIOLOGICAL_CHARGE>
-3

> <JCHEM_PKA>
2.0403469773893814

> <JCHEM_PKA_STRONGEST_ACIDIC>
1.3549390132040564

> <JCHEM_PKA_STRONGEST_BASIC>
-3.410499386299403

> <JCHEM_POLAR_SURFACE_AREA>
166.86999999999995

> <JCHEM_REFRACTIVITY>
240.81800000000007

> <JCHEM_ROTATABLE_BOND_COUNT>
42

> <JCHEM_RULE_OF_FIVE>
0

> <ALOGPS_SOLUBILITY>
2.77e-04 g/l

> <JCHEM_TRADITIONAL_IUPAC>
(3R,7R)-1-{[(2S)-1-{[hydroxy((2R)-2-hydroxy-3-(phosphonooxy)propoxy)phosphoryl]oxy}-3-{[(3R,7R)-3,7,11,15-tetramethylhexadecyl]oxy}propan-2-yl]oxy}-3,7,11,15-tetramethylhexadecane

> <JCHEM_VEBER_RULE>
0

> <DRUGBANK_ID>
DB02293

> <SECONDARY_ACCESSION_NUMBERS>
EXPT01993

> <DRUG_GROUPS>
experimental

> <GENERIC_NAME>
(2S)-2,3-bis{[(3R,7R)-3,7,11,15-tetramethylhexadecyl]oxy}propyl (2R)-2-hydroxy-3-[(hydroxyphosphinato)oxy]propyl phosphate

$$$$
