
  Mrv1718001221817172D          

 53 55  0  0  0  0            999 V2000
    0.8218    0.9646    0.0000 C   0  0  0  0  0  0  0  0  0  0  0  0
    2.9654    2.3041    0.0000 N   0  3  0  0  0  0  0  0  0  0  0  0
    0.0985    0.5124    0.0000 C   0  0  0  0  0  0  0  0  0  0  0  0
    2.2419    1.8520    0.0000 C   0  0  0  0  0  0  0  0  0  0  0  0
    1.5553    0.5659    0.0000 C   0  0  0  0  0  0  0  0  0  0  0  0
    0.7851    1.7985    0.0000 C   0  0  0  0  0  0  0  0  0  0  0  0
    1.4816    2.2337    0.0000 C   0  0  0  0  0  0  0  0  0  0  0  0
    2.2519    1.0013    0.0000 C   0  0  0  0  0  0  0  0  0  0  0  0
   -0.6348    0.9110    0.0000 C   0  0  0  0  0  0  0  0  0  0  0  0
    0.1520   -0.3481    0.0000 C   0  0  0  0  0  0  0  0  0  0  0  0
   -2.0851    1.6813    0.0000 C   0  0  0  0  0  0  0  0  0  0  0  0
    0.2255   -2.0160    0.0000 C   0  0  0  0  0  0  0  0  0  0  0  0
   -2.8621    2.0900    0.0000 N   0  0  0  0  0  0  0  0  0  0  0  0
    0.8855   -0.7467    0.0000 C   0  0  0  0  0  0  0  0  0  0  0  0
   -1.3315    0.4755    0.0000 C   0  0  0  0  0  0  0  0  0  0  0  0
   -0.5446   -0.7835    0.0000 C   0  0  0  0  0  0  0  0  0  0  0  0
   -0.6549    1.7181    0.0000 C   0  0  0  0  0  0  0  0  0  0  0  0
   -2.0751    0.8306    0.0000 C   0  0  0  0  0  0  0  0  0  0  0  0
   -0.5347   -1.6343    0.0000 C   0  0  0  0  0  0  0  0  0  0  0  0
   -1.3884    2.1167    0.0000 C   0  0  0  0  0  0  0  0  0  0  0  0
    0.9222   -1.5807    0.0000 C   0  0  0  0  0  0  0  0  0  0  0  0
    0.2255   -2.8422    0.0000 S   0  0  0  0  0  0  0  0  0  0  0  0
   -0.4838   -3.2535    0.0000 O   0  5  0  0  0  0  0  0  0  0  0  0
    1.0505   -2.8421    0.0000 O   0  0  0  0  0  0  0  0  0  0  0  0
    0.6317   -3.5603    0.0000 O   0  0  0  0  0  0  0  0  0  0  0  0
   -2.8944    2.9109    0.0000 C   0  0  0  0  0  0  0  0  0  0  0  0
   -2.1997    3.3493    0.0000 C   0  0  0  0  0  0  0  0  0  0  0  0
   -3.5568    1.6515    0.0000 C   0  0  0  0  0  0  0  0  0  0  0  0
   -4.2903    2.0500    0.0000 C   0  0  0  0  0  0  0  0  0  0  0  0
   -5.7404    2.8204    0.0000 C   0  0  0  0  0  0  0  0  0  0  0  0
   -4.9868    1.6147    0.0000 C   0  0  0  0  0  0  0  0  0  0  0  0
   -4.3103    2.8572    0.0000 C   0  0  0  0  0  0  0  0  0  0  0  0
   -5.7305    1.9698    0.0000 C   0  0  0  0  0  0  0  0  0  0  0  0
   -5.0438    3.2557    0.0000 C   0  0  0  0  0  0  0  0  0  0  0  0
   -6.4442    1.5535    0.0000 S   0  0  0  0  0  0  0  0  0  0  0  0
   -7.1568    1.9593    0.0000 O   0  5  0  0  0  0  0  0  0  0  0  0
   -6.0285    0.8410    0.0000 O   0  0  0  0  0  0  0  0  0  0  0  0
   -6.8599    0.8410    0.0000 O   0  0  0  0  0  0  0  0  0  0  0  0
    3.6907    1.9184    0.0000 C   0  0  0  0  0  0  0  0  0  0  0  0
    2.9366    3.1251    0.0000 C   0  0  0  0  0  0  0  0  0  0  0  0
    3.6333    3.5603    0.0000 C   0  0  0  0  0  0  0  0  0  0  0  0
    4.4242    2.3170    0.0000 C   0  0  0  0  0  0  0  0  0  0  0  0
    5.8743    3.0873    0.0000 C   0  0  0  0  0  0  0  0  0  0  0  0
    5.1207    1.8816    0.0000 C   0  0  0  0  0  0  0  0  0  0  0  0
    4.4441    3.1241    0.0000 C   0  0  0  0  0  0  0  0  0  0  0  0
    5.8644    2.2366    0.0000 C   0  0  0  0  0  0  0  0  0  0  0  0
    5.1776    3.5228    0.0000 C   0  0  0  0  0  0  0  0  0  0  0  0
    6.5781    1.8205    0.0000 S   0  0  0  0  0  0  0  0  0  0  0  0
    7.2907    2.2263    0.0000 O   0  5  0  0  0  0  0  0  0  0  0  0
    6.1624    1.1079    0.0000 O   0  0  0  0  0  0  0  0  0  0  0  0
    6.9938    1.1079    0.0000 O   0  0  0  0  0  0  0  0  0  0  0  0
   -8.1802    1.4227    0.0000 Na  0  3  0  0  0  0  0  0  0  0  0  0
    8.1802    1.7196    0.0000 Na  0  3  0  0  0  0  0  0  0  0  0  0
  3  1  2  0  0  0  0
  5  1  1  0  0  0  0
  6  1  1  0  0  0  0
  4  2  2  0  0  0  0
  9  3  1  0  0  0  0
 10  3  1  0  0  0  0
  7  4  1  0  0  0  0
  8  4  1  0  0  0  0
  8  5  2  0  0  0  0
  7  6  2  0  0  0  0
 15  9  2  0  0  0  0
 17  9  1  0  0  0  0
 14 10  2  0  0  0  0
 16 10  1  0  0  0  0
 20 11  1  0  0  0  0
 13 11  1  0  0  0  0
 18 11  2  0  0  0  0
 19 12  1  0  0  0  0
 21 12  2  0  0  0  0
 21 14  1  0  0  0  0
 18 15  1  0  0  0  0
 19 16  2  0  0  0  0
 20 17  2  0  0  0  0
 12 22  1  0  0  0  0
 22 23  1  0  0  0  0
 22 24  2  0  0  0  0
 22 25  2  0  0  0  0
 13 26  1  0  0  0  0
 26 27  1  0  0  0  0
 13 28  1  0  0  0  0
 29 28  1  0  0  0  0
 31 29  2  0  0  0  0
 32 29  1  0  0  0  0
 34 30  1  0  0  0  0
 33 30  2  0  0  0  0
 33 31  1  0  0  0  0
 34 32  2  0  0  0  0
 33 35  1  0  0  0  0
 35 36  1  0  0  0  0
 35 37  2  0  0  0  0
 35 38  2  0  0  0  0
  2 39  1  0  0  0  0
  2 40  1  0  0  0  0
 40 41  1  0  0  0  0
 42 39  1  0  0  0  0
 44 42  2  0  0  0  0
 45 42  1  0  0  0  0
 47 43  1  0  0  0  0
 46 43  2  0  0  0  0
 46 44  1  0  0  0  0
 47 45  2  0  0  0  0
 46 48  1  0  0  0  0
 48 49  1  0  0  0  0
 48 50  2  0  0  0  0
 48 51  2  0  0  0  0
M  CHG  6   2   1  23  -1  36  -1  49  -1  52   1  53   1
M  END
> <DATABASE_ID>
DB11183

> <DATABASE_NAME>
drugbank

> <SMILES>
[Na+].[Na+].CCN(CC1=CC(=CC=C1)S([O-])(=O)=O)C1=CC=C(C=C1)C(C1=CC=C(C=C1)S([O-])(=O)=O)=C1C=CC(C=C1)=[N+](CC)CC1=CC(=CC=C1)S([O-])(=O)=O

> <INCHI_IDENTIFIER>
InChI=1S/C37H36N2O9S3.2Na/c1-3-38(25-27-7-5-9-35(23-27)50(43,44)45)32-17-11-29(12-18-32)37(31-15-21-34(22-16-31)49(40,41)42)30-13-19-33(20-14-30)39(4-2)26-28-8-6-10-36(24-28)51(46,47)48;;/h5-24H,3-4,25-26H2,1-2H3,(H2-,40,41,42,43,44,45,46,47,48);;/q;2*+1/p-2

> <INCHI_KEY>
DGOBMKYRQHEFGQ-UHFFFAOYSA-L

> <FORMULA>
C37H34N2Na2O9S3

> <MOLECULAR_WEIGHT>
792.848

> <EXACT_MASS>
792.122182116

> <JCHEM_ACCEPTOR_COUNT>
10

> <JCHEM_ATOM_COUNT>
87

> <JCHEM_AVERAGE_POLARIZABILITY>
77.17807177507143

> <JCHEM_BIOAVAILABILITY>
0

> <JCHEM_DONOR_COUNT>
0

> <JCHEM_FORMAL_CHARGE>
0

> <JCHEM_GHOSE_FILTER>
0

> <JCHEM_IUPAC>
disodium 4-[(4-{ethyl[(3-sulfophenyl)methyl]amino}phenyl)[(1Z,4Z)-4-{ethyl[(3-sulfophenyl)methyl]iminiumyl}cyclohexa-2,5-dien-1-ylidene]methyl]benzene-1-sulfonate

> <ALOGPS_LOGP>
2.08

> <JCHEM_LOGP>
2.6766303596989505

> <ALOGPS_LOGS>
-7.04

> <JCHEM_MDDR_LIKE_RULE>
1

> <JCHEM_NUMBER_OF_RINGS>
5

> <JCHEM_PHYSIOLOGICAL_CHARGE>
-2

> <JCHEM_PKA>
-1.812584035770307

> <JCHEM_PKA_STRONGEST_ACIDIC>
-2.3332389413559573

> <JCHEM_PKA_STRONGEST_BASIC>
3.5212411479153674

> <JCHEM_POLAR_SURFACE_AREA>
177.84999999999997

> <JCHEM_REFRACTIVITY>
218.80009999999996

> <JCHEM_ROTATABLE_BOND_COUNT>
12

> <JCHEM_RULE_OF_FIVE>
0

> <ALOGPS_SOLUBILITY>
7.65e-05 g/l

> <JCHEM_TRADITIONAL_IUPAC>
disodium 4-[(4-{ethyl[(3-sulfophenyl)methyl]amino}phenyl)[(1Z,4Z)-4-{ethyl[(3-sulfophenyl)methyl]iminio}cyclohexa-2,5-dien-1-ylidene]methyl]benzenesulfonate

> <JCHEM_VEBER_RULE>
0

> <DRUGBANK_ID>
DB11183

> <DRUG_GROUPS>
approved; experimental

> <GENERIC_NAME>
Light green SF yellowish

> <SYNONYMS>
A F Green No.2; A.F. Green No. 2; Acid Brilliant Green SF; Acid green; Acid green 5; Acid Green A; C.I. Acid Green 5; Lichtgruen; Light Green G; Light Green SF; Wool Brilliant Green SF

> <PRODUCTS>
GreenGlo

$$$$
