
  Mrv1572004221603222D          

 17 18  0  0  0  0            999 V2000
   -1.4604    1.7103    0.0000 C   0  0  0  0  0  0  0  0  0  0  0  0
    1.3556   -2.3479    0.0000 C   0  0  0  0  0  0  0  0  0  0  0  0
    2.7845    0.1271    0.0000 C   0  0  0  0  0  0  0  0  0  0  0  0
   -0.3984    0.7541    0.0000 C   0  0  0  0  0  0  0  0  0  0  0  0
   -0.6284   -0.6979    0.0000 C   0  0  0  0  0  0  0  0  0  0  0  0
   -1.2054    0.9256    0.0000 C   0  0  0  0  0  0  0  0  0  0  0  0
    0.6411   -0.2854    0.0000 C   0  0  0  0  0  0  0  0  0  0  0  0
    0.6411   -1.1104    0.0000 C   0  0  0  0  0  0  0  0  0  0  0  0
    1.3556    0.1271    0.0000 C   0  0  0  0  0  0  0  0  0  0  0  0
    2.0701   -1.1104    0.0000 C   0  0  0  0  0  0  0  0  0  0  0  0
   -0.1435   -1.3654    0.0000 N   0  0  0  0  0  0  0  0  0  0  0  0
    1.3556   -1.5229    0.0000 N   0  0  0  0  0  0  0  0  0  0  0  0
    2.0701   -0.2854    0.0000 N   0  0  0  0  0  0  0  0  0  0  0  0
   -0.1435   -0.0305    0.0000 N   0  0  0  0  0  0  0  0  0  0  0  0
   -1.7575    0.3126    0.0000 O   0  0  0  0  0  0  0  0  0  0  0  0
    1.3556    0.9521    0.0000 O   0  0  0  0  0  0  0  0  0  0  0  0
    2.7845   -1.5229    0.0000 O   0  0  0  0  0  0  0  0  0  0  0  0
  6  1  1  0  0  0  0
  6  4  1  0  0  0  0
  8  7  2  0  0  0  0
  9  7  1  0  0  0  0
 11  5  2  0  0  0  0
 11  8  1  0  0  0  0
 12  2  1  0  0  0  0
 12  8  1  0  0  0  0
 12 10  1  0  0  0  0
 13  3  1  0  0  0  0
 13  9  1  0  0  0  0
 13 10  1  0  0  0  0
 14  4  1  0  0  0  0
 14  5  1  0  0  0  0
 14  7  1  0  0  0  0
 15  6  1  0  0  0  0
 16  9  2  0  0  0  0
 17 10  2  0  0  0  0
M  END
> <DATABASE_ID>
DB13449

> <DATABASE_NAME>
drugbank

> <SMILES>
CC(O)CN1C=NC2=C1C(=O)N(C)C(=O)N2C

> <INCHI_IDENTIFIER>
InChI=1S/C10H14N4O3/c1-6(15)4-14-5-11-8-7(14)9(16)13(3)10(17)12(8)2/h5-6,15H,4H2,1-3H3

> <INCHI_KEY>
KYHQZNGJUGFTGR-UHFFFAOYSA-N

> <FORMULA>
C10H14N4O3

> <MOLECULAR_WEIGHT>
238.247

> <EXACT_MASS>
238.106590327

> <JCHEM_ACCEPTOR_COUNT>
4

> <JCHEM_ATOM_COUNT>
31

> <JCHEM_AVERAGE_POLARIZABILITY>
23.658873348795655

> <JCHEM_BIOAVAILABILITY>
1

> <JCHEM_DONOR_COUNT>
1

> <JCHEM_FORMAL_CHARGE>
0

> <JCHEM_GHOSE_FILTER>
0

> <JCHEM_IUPAC>
7-(2-hydroxypropyl)-1,3-dimethyl-2,3,6,7-tetrahydro-1H-purine-2,6-dione

> <ALOGPS_LOGP>
-0.27

> <JCHEM_LOGP>
-0.8191725790000001

> <ALOGPS_LOGS>
-1.21

> <JCHEM_MDDR_LIKE_RULE>
0

> <JCHEM_NUMBER_OF_RINGS>
2

> <JCHEM_PHYSIOLOGICAL_CHARGE>
0

> <JCHEM_PKA_STRONGEST_ACIDIC>
15.169721554503408

> <JCHEM_PKA_STRONGEST_BASIC>
-0.9729750715108242

> <JCHEM_POLAR_SURFACE_AREA>
78.67

> <JCHEM_REFRACTIVITY>
60.5423

> <JCHEM_ROTATABLE_BOND_COUNT>
2

> <JCHEM_RULE_OF_FIVE>
1

> <ALOGPS_SOLUBILITY>
1.46e+01 g/l

> <JCHEM_TRADITIONAL_IUPAC>
proxyphylline

> <JCHEM_VEBER_RULE>
0

> <DRUGBANK_ID>
DB13449

> <DRUG_GROUPS>
experimental

> <GENERIC_NAME>
Proxyphylline

> <SYNONYMS>
Proxyphylline

$$$$
