
  Mrv1902 03061922442D          

 43 46  0  0  0  0            999 V2000
   -5.8951    2.3043    0.0000 O   0  0  0  0  0  0  0  0  0  0  0  0
   -3.9791    0.0290    0.0000 C   0  0  0  0  0  0  0  0  0  0  0  0
   -4.7327   -0.3064    0.0000 C   0  0  0  0  0  0  0  0  0  0  0  0
   -5.4001    0.1784    0.0000 C   0  0  0  0  0  0  0  0  0  0  0  0
   -5.3139    0.9988    0.0000 C   0  0  0  0  0  0  0  0  0  0  0  0
   -4.5602    1.3344    0.0000 C   0  0  0  0  0  0  0  0  0  0  0  0
   -3.8928    0.8495    0.0000 C   0  0  0  0  0  0  0  0  0  0  0  0
   -6.8213    0.3278    0.0000 P   0  0  0  0  0  0  0  0  0  0  0  0
   -7.4887    0.8127    0.0000 O   0  0  0  0  0  0  0  0  0  0  0  0
   -7.3062   -0.3396    0.0000 O   0  0  0  0  0  0  0  0  0  0  0  0
   -6.3363    0.9952    0.0000 O   0  0  0  0  0  0  0  0  0  0  0  0
   -3.1391    1.1851    0.0000 C   0  0  0  0  0  0  0  0  0  0  0  0
   -2.4717    0.7002    0.0000 C   0  0  1  0  0  0  0  0  0  0  0  0
   -1.7180    1.0357    0.0000 C   0  0  0  0  0  0  0  0  0  0  0  0
   -1.0505    0.5508    0.0000 N   0  0  0  0  0  0  0  0  0  0  0  0
   -2.5579   -0.1202    0.0000 N   0  0  0  0  0  0  0  0  0  0  0  0
   -1.8905   -0.6052    0.0000 C   0  0  0  0  0  0  0  0  0  0  0  0
   -1.1368   -0.2696    0.0000 C   0  0  0  0  0  0  0  0  0  0  0  0
   -1.9767   -1.4257    0.0000 O   0  0  0  0  0  0  0  0  0  0  0  0
   -1.6318    1.8562    0.0000 O   0  0  0  0  0  0  0  0  0  0  0  0
   -0.2969    0.8863    0.0000 C   0  0  1  0  0  0  0  0  0  0  0  0
   -0.2722    1.7110    0.0000 C   0  0  0  0  0  0  0  0  0  0  0  0
    0.3878    2.2058    0.0000 C   0  0  0  0  0  0  0  0  0  0  0  0
    1.1862    1.9983    0.0000 C   0  0  0  0  0  0  0  0  0  0  0  0
    1.5218    1.2446    0.0000 C   0  0  0  0  0  0  0  0  0  0  0  0
    1.1418    0.5123    0.0000 N   0  0  0  0  0  0  0  0  0  0  0  0
    0.3324    0.3529    0.0000 C   0  0  0  0  0  0  0  0  0  0  0  0
    1.6367   -0.1477    0.0000 C   0  0  0  0  0  0  0  0  0  0  0  0
    2.4558   -0.0492    0.0000 C   0  0  0  0  0  0  0  0  0  0  0  0
    0.1248   -0.4455    0.0000 O   0  0  0  0  0  0  0  0  0  0  0  0
   -6.1538   -0.1571    0.0000 O   0  0  0  0  0  0  0  0  0  0  0  0
    2.7800    0.7093    0.0000 C   0  0  0  0  0  0  0  0  0  0  0  0
    3.5991    0.8078    0.0000 C   0  0  0  0  0  0  0  0  0  0  0  0
    4.0939    0.1477    0.0000 C   0  0  0  0  0  0  0  0  0  0  0  0
    3.7697   -0.6108    0.0000 C   0  0  0  0  0  0  0  0  0  0  0  0
    2.9506   -0.7093    0.0000 C   0  0  0  0  0  0  0  0  0  0  0  0
    4.9130    0.2462    0.0000 C   0  0  0  0  0  0  0  0  0  0  0  0
    5.2373    1.0049    0.0000 C   0  0  0  0  0  0  0  0  0  0  0  0
    6.0564    1.1033    0.0000 C   0  0  0  0  0  0  0  0  0  0  0  0
    6.5512    0.4432    0.0000 C   0  0  0  0  0  0  0  0  0  0  0  0
    6.2270   -0.3153    0.0000 C   0  0  0  0  0  0  0  0  0  0  0  0
    5.4079   -0.4138    0.0000 C   0  0  0  0  0  0  0  0  0  0  0  0
   -5.9814    1.4838    0.0000 C   0  0  0  0  0  0  0  0  0  0  0  0
 43  1  2  0  0  0  0
  2  3  1  0  0  0  0
  2  7  2  0  0  0  0
  3  4  2  0  0  0  0
  4  5  1  0  0  0  0
  4 31  1  0  0  0  0
  5  6  2  0  0  0  0
  5 43  1  0  0  0  0
  6  7  1  0  0  0  0
 12  7  1  0  0  0  0
  9  8  2  0  0  0  0
 10  8  1  0  0  0  0
 11  8  1  0  0  0  0
 31  8  1  0  0  0  0
 12 13  1  0  0  0  0
 13 14  1  0  0  0  0
 13 16  1  1  0  0  0
 14 15  1  0  0  0  0
 14 20  2  0  0  0  0
 21 15  1  1  0  0  0
 17 16  1  0  0  0  0
 17 18  1  0  0  0  0
 17 19  2  0  0  0  0
 21 22  1  0  0  0  0
 21 27  1  0  0  0  0
 22 23  1  0  0  0  0
 23 24  1  0  0  0  0
 24 25  1  0  0  0  0
 25 26  1  0  0  0  0
 27 26  1  0  0  0  0
 28 26  1  0  0  0  0
 27 30  2  0  0  0  0
 28 29  1  0  0  0  0
 29 32  1  0  0  0  0
 29 36  2  0  0  0  0
 32 33  2  0  0  0  0
 33 34  1  0  0  0  0
 34 35  2  0  0  0  0
 34 37  1  0  0  0  0
 35 36  1  0  0  0  0
 37 38  1  0  0  0  0
 37 42  2  0  0  0  0
 38 39  2  0  0  0  0
 39 40  1  0  0  0  0
 40 41  2  0  0  0  0
 41 42  1  0  0  0  0
M  END
> <DATABASE_ID>
DB01678

> <DATABASE_NAME>
drugbank

> <SMILES>
CC(=O)N[C@@H](CC1=CC=C(OP(O)(O)=O)C(C=O)=C1)C(=O)N[C@H]1CCCCN(CC2=CC=C(C=C2)C2=CC=CC=C2)C1=O

> <INCHI_IDENTIFIER>
InChI=1S/C31H34N3O8P/c1-21(36)32-28(18-23-12-15-29(26(17-23)20-35)42-43(39,40)41)30(37)33-27-9-5-6-16-34(31(27)38)19-22-10-13-25(14-11-22)24-7-3-2-4-8-24/h2-4,7-8,10-15,17,20,27-28H,5-6,9,16,18-19H2,1H3,(H,32,36)(H,33,37)(H2,39,40,41)/t27-,28-/m0/s1

> <INCHI_KEY>
SAFPHFWYRLLBFO-NSOVKSMOSA-N

> <FORMULA>
C31H34N3O8P

> <MOLECULAR_WEIGHT>
607.5907

> <EXACT_MASS>
607.208351591

> <JCHEM_ACCEPTOR_COUNT>
7

> <JCHEM_ATOM_COUNT>
77

> <JCHEM_AVERAGE_POLARIZABILITY>
61.86449380429292

> <JCHEM_BIOAVAILABILITY>
0

> <JCHEM_DONOR_COUNT>
4

> <JCHEM_FORMAL_CHARGE>
0

> <JCHEM_GHOSE_FILTER>
0

> <JCHEM_IUPAC>
{4-[(2S)-2-{[(3S)-1-({[1,1'-biphenyl]-4-yl}methyl)-2-oxoazepan-3-yl]carbamoyl}-2-acetamidoethyl]-2-formylphenoxy}phosphonic acid

> <ALOGPS_LOGP>
2.34

> <JCHEM_LOGP>
2.620680709999999

> <ALOGPS_LOGS>
-5.91

> <JCHEM_MDDR_LIKE_RULE>
1

> <JCHEM_NUMBER_OF_RINGS>
4

> <JCHEM_PHYSIOLOGICAL_CHARGE>
-2

> <JCHEM_PKA>
6.720292524008952

> <JCHEM_PKA_STRONGEST_ACIDIC>
1.754425425290971

> <JCHEM_PKA_STRONGEST_BASIC>
-1.9362670418226207

> <JCHEM_POLAR_SURFACE_AREA>
162.34

> <JCHEM_REFRACTIVITY>
160.05309999999992

> <JCHEM_ROTATABLE_BOND_COUNT>
11

> <JCHEM_RULE_OF_FIVE>
0

> <ALOGPS_SOLUBILITY>
7.44e-04 g/l

> <JCHEM_TRADITIONAL_IUPAC>
4-[(2S)-2-{[(3S)-1-{[1,1'-biphenyl]-4-ylmethyl}-2-oxoazepan-3-yl]carbamoyl}-2-acetamidoethyl]-2-formylphenoxyphosphonic acid

> <JCHEM_VEBER_RULE>
0

> <DRUGBANK_ID>
DB01678

> <SECONDARY_ACCESSION_NUMBERS>
EXPT00280

> <DRUG_GROUPS>
experimental

> <GENERIC_NAME>
RU84687

> <SYNONYMS>
N-acetyl-N-[1-(1,1'-biphenyl-4-ylmethyl)-2-oxoazepan-3-yl]-3-formyl-O-phosphonotyrosinamide

$$$$
