
  Mrv1909 11212217232D          

  9  8  0  0  1  0            999 V2000
    1.7605    1.8414    0.0000 C   0  0  0  0  0  0  0  0  0  0  0  0
    2.4750    1.4289    0.0000 S   0  0  0  0  0  0  0  0  0  0  0  0
    3.1895    1.8414    0.0000 C   0  0  0  0  0  0  0  0  0  0  0  0
    3.9039    1.4289    0.0000 C   0  0  0  0  0  0  0  0  0  0  0  0
    4.6184    1.8414    0.0000 C   0  0  2  0  0  0  0  0  0  0  0  0
    4.6184    2.6664    0.0000 N   0  0  0  0  0  0  0  0  0  0  0  0
    5.3329    1.4289    0.0000 C   0  0  0  0  0  0  0  0  0  0  0  0
    6.0474    1.8414    0.0000 O   0  0  0  0  0  0  0  0  0  0  0  0
    5.3329    0.6039    0.0000 O   0  0  0  0  0  0  0  0  0  0  0  0
  1  2  1  0  0  0  0
  2  3  1  0  0  0  0
  3  4  1  0  0  0  0
  5  4  1  0  0  0  0
  5  6  1  6  0  0  0
  5  7  1  0  0  0  0
  7  8  1  0  0  0  0
  7  9  2  0  0  0  0
M  ISO  1   1  11
M  END
> <DATABASE_ID>
DB17147

> <DATABASE_NAME>
drugbank

> <SMILES>
[11CH3]SCC[C@H](N)C(O)=O

> <INCHI_IDENTIFIER>
InChI=1S/C5H11NO2S/c1-9-3-2-4(6)5(7)8/h4H,2-3,6H2,1H3,(H,7,8)/t4-/m0/s1/i1-1

> <INCHI_KEY>
FFEARJCKVFRZRR-JJZBXVGDSA-N

> <FORMULA>
C5H11NO2S

> <MOLECULAR_WEIGHT>
148.21

> <EXACT_MASS>
148.06248359

> <JCHEM_ACCEPTOR_COUNT>
3

> <JCHEM_ATOM_COUNT>
20

> <JCHEM_AVERAGE_NEUTRAL_MICROSPECIES_CHARGE>
-0.0031015409585700704

> <JCHEM_AVERAGE_POLARIZABILITY>
15.537609058624898

> <JCHEM_BIOAVAILABILITY>
1

> <JCHEM_DONOR_COUNT>
2

> <JCHEM_FORMAL_CHARGE>
0

> <JCHEM_GHOSE_FILTER>
0

> <JCHEM_IUPAC>
(2S)-2-amino-4-[(11C)methylsulfanyl]butanoic acid

> <ALOGPS_LOGP>
-1.85

> <JCHEM_LOGP>
-2.189326616871282

> <ALOGPS_LOGS>
-0.80

> <JCHEM_MDDR_LIKE_RULE>
0

> <JCHEM_NEUTRAL_CHARGE>
0

> <JCHEM_NUMBER_OF_RINGS>
0

> <JCHEM_PHYSIOLOGICAL_CHARGE>
0

> <JCHEM_PKA_STRONGEST_ACIDIC>
2.5319210041042344

> <JCHEM_PKA_STRONGEST_BASIC>
9.502323343916569

> <JCHEM_POLAR_SURFACE_AREA>
63.32

> <JCHEM_REFRACTIVITY>
37.586000000000006

> <JCHEM_ROTATABLE_BOND_COUNT>
4

> <JCHEM_RULE_OF_FIVE>
1

> <ALOGPS_SOLUBILITY>
2.39e+01 g/l

> <JCHEM_TRADITIONAL_IUPAC>
{3-[(3R)-3-({[2-chloro-3-(trifluoromethyl)phenyl]methyl}(2,2-diphenylethyl)amino)butoxy]phenyl}acetic acid

> <JCHEM_VEBER_RULE>
0

> <DRUGBANK_ID>
DB17147

> <DRUG_GROUPS>
investigational

> <GENERIC_NAME>
Methionine C-11

> <SYNONYMS>
11c-methionine; 2-Amino-4-[11C]methylsulfanyl-butanoic acid, l-[S methyl[11C]methionine; L-(s-methyl-11c)methionine; L-11c-methylmethionine; L-methionine ((11c)methyl); Methionine (11c)

$$$$
