
  Mrv1909 02212020012D          

 38 42  0  0  0  0            999 V2000
    1.4907    0.0617    0.0000 C   0  0  1  0  0  0  0  0  0  0  0  0
    0.7061   -0.1931    0.0000 C   0  0  2  0  0  0  0  0  0  0  0  0
    1.9756   -0.6055    0.0000 C   0  0  1  0  0  0  0  0  0  0  0  0
    1.9756    0.7292    0.0000 O   0  0  0  0  0  0  0  0  0  0  0  0
    1.4044    0.8822    0.0000 C   0  0  0  0  0  0  0  0  0  0  0  0
    0.7061   -1.0181    0.0000 C   0  0  1  0  0  0  0  0  0  0  0  0
   -0.0083    0.2194    0.0000 C   0  0  0  0  0  0  0  0  0  0  0  0
    0.6918    0.6363    0.0000 C   0  0  0  0  0  0  0  0  0  0  0  0
    1.4907   -1.2730    0.0000 C   0  0  0  0  0  0  0  0  0  0  0  0
    2.7602   -0.3506    0.0000 O   0  0  0  0  0  0  0  0  0  0  0  0
    2.7602    0.4743    0.0000 C   0  0  0  0  0  0  0  0  0  0  0  0
   -0.0083   -1.4305    0.0000 C   0  0  1  0  0  0  0  0  0  0  0  0
   -0.7228   -0.1931    0.0000 C   0  0  1  0  0  0  0  0  0  0  0  0
    2.9318    1.2813    0.0000 C   0  0  0  0  0  0  0  0  0  0  0  0
    3.5807    0.3880    0.0000 C   0  0  0  0  0  0  0  0  0  0  0  0
   -0.7228   -1.0181    0.0000 C   0  0  2  0  0  0  0  0  0  0  0  0
   -0.0083   -2.2556    0.0000 C   0  0  0  0  0  0  0  0  0  0  0  0
   -1.4373    0.2194    0.0000 O   0  0  0  0  0  0  0  0  0  0  0  0
   -1.4373   -1.4305    0.0000 C   0  0  2  0  0  0  0  0  0  0  0  0
   -0.7185   -1.9082    0.0000 F   0  0  0  0  0  0  0  0  0  0  0  0
   -0.7228   -2.6681    0.0000 C   0  0  1  0  0  0  0  0  0  0  0  0
   -1.4373   -2.2556    0.0000 C   0  0  0  0  0  0  0  0  0  0  0  0
   -2.1517   -1.0181    0.0000 C   0  0  0  0  0  0  0  0  0  0  0  0
   -1.4730   -0.6283    0.0000 C   0  0  0  0  0  0  0  0  0  0  0  0
   -0.7228   -3.4931    0.0000 F   0  0  0  0  0  0  0  0  0  0  0  0
   -2.1517   -2.6681    0.0000 C   0  0  0  0  0  0  0  0  0  0  0  0
   -2.8662   -1.4305    0.0000 C   0  0  0  0  0  0  0  0  0  0  0  0
   -2.8662   -2.2556    0.0000 C   0  0  0  0  0  0  0  0  0  0  0  0
   -3.5807   -2.6681    0.0000 O   0  0  0  0  0  0  0  0  0  0  0  0
    0.7923   -1.8385    0.0000 H   0  0  0  0  0  0  0  0  0  0  0  0
    0.7914    1.4342    0.0000 O   0  0  0  0  0  0  0  0  0  0  0  0
    2.0719    1.3672    0.0000 C   0  0  0  0  0  0  0  0  0  0  0  0
    1.9856    2.1876    0.0000 O   0  0  0  0  0  0  0  0  0  0  0  0
    2.6531    2.6726    0.0000 C   0  0  0  0  0  0  0  0  0  0  0  0
    2.5669    3.4931    0.0000 O   0  0  0  0  0  0  0  0  0  0  0  0
    3.4068    2.3371    0.0000 C   0  0  0  0  0  0  0  0  0  0  0  0
   -0.0490   -0.6302    0.0000 H   0  0  0  0  0  0  0  0  0  0  0  0
    2.3881   -1.3201    0.0000 H   0  0  0  0  0  0  0  0  0  0  0  0
  2  8  1  1  0  0  0
  3  9  1  0  0  0  0
  3 10  1  6  0  0  0
  4 11  1  0  0  0  0
  6 12  1  0  0  0  0
  7 13  1  0  0  0  0
 11 14  1  0  0  0  0
 11 15  1  0  0  0  0
 12 16  1  0  0  0  0
 12 17  1  0  0  0  0
 13 18  1  1  0  0  0
 16 19  1  0  0  0  0
 16 20  1  6  0  0  0
 17 21  1  0  0  0  0
 19 22  1  0  0  0  0
 19 23  1  0  0  0  0
 19 24  1  1  0  0  0
 21 25  1  6  0  0  0
 22 26  2  0  0  0  0
 23 27  2  0  0  0  0
 26 28  1  0  0  0  0
 28 29  2  0  0  0  0
  6  9  1  0  0  0  0
 10 11  1  0  0  0  0
 13 16  1  0  0  0  0
 21 22  1  0  0  0  0
 27 28  1  0  0  0  0
  6 30  1  6  0  0  0
  5 31  2  0  0  0  0
  1  2  1  0  0  0  0
  5 32  1  0  0  0  0
  1  3  1  0  0  0  0
 32 33  1  0  0  0  0
  1  4  1  6  0  0  0
 33 34  1  0  0  0  0
  1  5  1  1  0  0  0
 34 35  2  0  0  0  0
  2  6  1  0  0  0  0
 34 36  1  0  0  0  0
  2  7  1  0  0  0  0
 12 37  1  1  0  0  0
  3 38  1  1  0  0  0
M  END
> <DATABASE_ID>
DB01047

> <DATABASE_NAME>
drugbank

> <SMILES>
[H][C@@]12C[C@@]3([H])[C@]4([H])C[C@H](F)C5=CC(=O)C=C[C@]5(C)[C@@]4(F)[C@@H](O)C[C@]3(C)[C@@]1(OC(C)(C)O2)C(=O)COC(C)=O

> <INCHI_IDENTIFIER>
InChI=1S/C26H32F2O7/c1-13(29)33-12-20(32)26-21(34-22(2,3)35-26)10-15-16-9-18(27)17-8-14(30)6-7-23(17,4)25(16,28)19(31)11-24(15,26)5/h6-8,15-16,18-19,21,31H,9-12H2,1-5H3/t15-,16-,18-,19-,21+,23-,24-,25-,26+/m0/s1

> <INCHI_KEY>
WJOHZNCJWYWUJD-IUGZLZTKSA-N

> <FORMULA>
C26H32F2O7

> <MOLECULAR_WEIGHT>
494.5249

> <EXACT_MASS>
494.211609788

> <JCHEM_ACCEPTOR_COUNT>
6

> <JCHEM_ATOM_COUNT>
67

> <JCHEM_AVERAGE_NEUTRAL_MICROSPECIES_CHARGE>
-2.729008878908873e-07

> <JCHEM_AVERAGE_POLARIZABILITY>
48.972019521752635

> <JCHEM_BIOAVAILABILITY>
1

> <JCHEM_DONOR_COUNT>
1

> <JCHEM_FORMAL_CHARGE>
0

> <JCHEM_GHOSE_FILTER>
0

> <JCHEM_IUPAC>
2-[(1S,2S,4R,8S,9S,11S,12R,13S,19S)-12,19-difluoro-11-hydroxy-6,6,9,13-tetramethyl-16-oxo-5,7-dioxapentacyclo[10.8.0.0^{2,9}.0^{4,8}.0^{13,18}]icosa-14,17-dien-8-yl]-2-oxoethyl acetate

> <ALOGPS_LOGP>
2.93

> <JCHEM_LOGP>
2.0455239793333324

> <ALOGPS_LOGS>
-4.47

> <JCHEM_MDDR_LIKE_RULE>
0

> <JCHEM_NEUTRAL_CHARGE>
0

> <JCHEM_NUMBER_OF_RINGS>
5

> <JCHEM_PHYSIOLOGICAL_CHARGE>
0

> <JCHEM_PKA>
14.72324523726617

> <JCHEM_PKA_STRONGEST_ACIDIC>
13.600004673824001

> <JCHEM_PKA_STRONGEST_BASIC>
-3.393571821166639

> <JCHEM_POLAR_SURFACE_AREA>
99.13

> <JCHEM_REFRACTIVITY>
120.5647

> <JCHEM_ROTATABLE_BOND_COUNT>
4

> <JCHEM_RULE_OF_FIVE>
1

> <ALOGPS_SOLUBILITY>
1.68e-02 g/l

> <JCHEM_TRADITIONAL_IUPAC>
nasonex

> <JCHEM_VEBER_RULE>
0

> <DRUGBANK_ID>
DB01047

> <SECONDARY_ACCESSION_NUMBERS>
APRD00978

> <DRUG_GROUPS>
approved; investigational

> <GENERIC_NAME>
Fluocinonide

> <SYNONYMS>
Fluocinonida; Fluocinonide; Fluocinonido; Fluocinonidum

> <PRODUCTS>
Flumethovix; Fluocinol Pak; Fluocinonide; Fluocinonide 0.05% / Hyaluronic Acid Sodium Salt 0.5% / Niacinamide 4%; Fluocinonide Cream; Fluocinonide Cream (Emulsified Base); Fluocinonide Gel; Fluocinonide Micro; Fluopar; Fluovix Plus; Fluoxiv; Hexicinide; Lidecomb Cream; Lidemol; Lidemol 0.05%; Lidex; Lidex Cream Mild 0.01%; Lidex Ointment Mild 0.01%; Lidex Ont 0.05%; Lidex-E; Lyderm Cream 0.05%; Lyderm Gel 0.05%; Lyderm Ointment 0.05%; Lydonide Cream 0.05%; Lydonide Emollient Cream 0.05%; Lydonide Ointment 0.05%; Tiamol Cream 0.05%; Topactin Cream 0.05% U.S.P.; Topactin Emollient Cream 0.05%; Topsyn 0.05%; Vanos

> <INTERNATIONAL_BRANDS>
Fluonex; Lonide; Lyderm; Metosyn; Topsymin; Topsyn

$$$$
