
  Mrv1652306231722402D          

 24 25  0  0  0  0            999 V2000
    4.2059    2.1730    0.0000 C   0  0  0  0  0  0  0  0  0  0  0  0
    3.7934    2.8875    0.0000 C   0  0  0  0  0  0  0  0  0  0  0  0
    3.3809    3.6020    0.0000 C   0  0  0  0  0  0  0  0  0  0  0  0
    3.0789    2.4750    0.0000 C   0  0  0  0  0  0  0  0  0  0  0  0
    3.0789    1.6500    0.0000 O   0  0  0  0  0  0  0  0  0  0  0  0
    2.3645    1.2375    0.0000 C   0  0  0  0  0  0  0  0  0  0  0  0
    1.6500    1.6500    0.0000 O   0  0  0  0  0  0  0  0  0  0  0  0
    2.3645    0.4125    0.0000 C   0  0  0  0  0  0  0  0  0  0  0  0
    2.3645   -0.4125    0.0000 C   0  0  0  0  0  0  0  0  0  0  0  0
    3.0789   -0.8250    0.0000 C   0  0  0  0  0  0  0  0  0  0  0  0
    3.0789   -1.6500    0.0000 C   0  0  0  0  0  0  0  0  0  0  0  0
    2.3645   -2.0625    0.0000 C   0  0  0  0  0  0  0  0  0  0  0  0
    1.6500   -1.6500    0.0000 C   0  0  0  0  0  0  0  0  0  0  0  0
    1.6500   -0.8250    0.0000 C   0  0  0  0  0  0  0  0  0  0  0  0
    3.1895    0.4125    0.0000 C   0  0  0  0  0  0  0  0  0  0  0  0
    3.6020    1.1270    0.0000 C   0  0  0  0  0  0  0  0  0  0  0  0
    4.4270    1.1270    0.0000 C   0  0  0  0  0  0  0  0  0  0  0  0
    4.8395    0.4125    0.0000 C   0  0  0  0  0  0  0  0  0  0  0  0
    4.4270   -0.3020    0.0000 C   0  0  0  0  0  0  0  0  0  0  0  0
    3.6020   -0.3020    0.0000 C   0  0  0  0  0  0  0  0  0  0  0  0
    1.5395    0.4125    0.0000 O   0  0  0  0  0  0  0  0  0  0  0  0
    4.5079    3.3000    0.0000 N   0  0  0  0  0  0  0  0  0  0  0  0
    4.5079    4.1250    0.0000 C   0  0  0  0  0  0  0  0  0  0  0  0
    5.2224    2.8875    0.0000 C   0  0  0  0  0  0  0  0  0  0  0  0
  1  2  1  0  0  0  0
  2  3  1  0  0  0  0
  2  4  1  0  0  0  0
  4  5  1  0  0  0  0
  5  6  1  0  0  0  0
  6  7  2  0  0  0  0
  6  8  1  0  0  0  0
  8  9  1  0  0  0  0
  9 10  2  0  0  0  0
 10 11  1  0  0  0  0
 11 12  2  0  0  0  0
 12 13  1  0  0  0  0
 13 14  2  0  0  0  0
  9 14  1  0  0  0  0
  8 15  1  0  0  0  0
 15 16  2  0  0  0  0
 16 17  1  0  0  0  0
 17 18  2  0  0  0  0
 18 19  1  0  0  0  0
 19 20  2  0  0  0  0
 15 20  1  0  0  0  0
  8 21  1  0  0  0  0
  2 22  1  0  0  0  0
 22 23  1  0  0  0  0
 22 24  1  0  0  0  0
M  END
> <DATABASE_ID>
DB13380

> <DATABASE_NAME>
drugbank

> <SMILES>
CN(C)C(C)(C)COC(=O)C(O)(C1=CC=CC=C1)C1=CC=CC=C1

> <INCHI_IDENTIFIER>
InChI=1S/C20H25NO3/c1-19(2,21(3)4)15-24-18(22)20(23,16-11-7-5-8-12-16)17-13-9-6-10-14-17/h5-14,23H,15H2,1-4H3

> <INCHI_KEY>
GUONSMXZEYTWML-UHFFFAOYSA-N

> <FORMULA>
C20H25NO3

> <MOLECULAR_WEIGHT>
327.424

> <EXACT_MASS>
327.183443669

> <JCHEM_ACCEPTOR_COUNT>
3

> <JCHEM_ATOM_COUNT>
49

> <JCHEM_AVERAGE_POLARIZABILITY>
35.891497264053015

> <JCHEM_BIOAVAILABILITY>
1

> <JCHEM_DONOR_COUNT>
1

> <JCHEM_FORMAL_CHARGE>
0

> <JCHEM_GHOSE_FILTER>
1

> <JCHEM_IUPAC>
2-(dimethylamino)-2-methylpropyl 2-hydroxy-2,2-diphenylacetate

> <ALOGPS_LOGP>
3.27

> <JCHEM_LOGP>
3.4192373593333327

> <ALOGPS_LOGS>
-3.42

> <JCHEM_MDDR_LIKE_RULE>
0

> <JCHEM_NUMBER_OF_RINGS>
2

> <JCHEM_PHYSIOLOGICAL_CHARGE>
1

> <JCHEM_PKA_STRONGEST_ACIDIC>
11.05403602532874

> <JCHEM_PKA_STRONGEST_BASIC>
8.994054560196986

> <JCHEM_POLAR_SURFACE_AREA>
49.77

> <JCHEM_REFRACTIVITY>
95.32730000000001

> <JCHEM_ROTATABLE_BOND_COUNT>
7

> <JCHEM_RULE_OF_FIVE>
1

> <ALOGPS_SOLUBILITY>
1.25e-01 g/l

> <JCHEM_TRADITIONAL_IUPAC>
2-(dimethylamino)-2-methylpropyl hydroxydiphenylacetate

> <JCHEM_VEBER_RULE>
0

> <DRUGBANK_ID>
DB13380

> <DRUG_GROUPS>
experimental

> <GENERIC_NAME>
Difemerine

> <SYNONYMS>
Difemerine

$$$$
