
  Mrv1909 05212117402D          

140150  0  0  1  0            999 V2000
   -5.7473   -3.9196    0.0000 C   0  0  0  0  0  0  0  0  0  0  0  0
   -4.9117   -3.4387    0.0000 C   0  0  0  0  0  0  0  0  0  0  0  0
   -4.9117   -2.4769    0.0000 O   0  0  0  0  0  0  0  0  0  0  0  0
   -4.0823   -3.9196    0.0000 C   0  0  0  0  0  0  0  0  0  0  0  0
   -3.2677   -3.4387    0.0000 C   0  0  0  0  0  0  0  0  0  0  0  0
   -2.4230   -3.9196    0.0000 C   0  0  1  0  0  0  0  0  0  0  0  0
   -2.4230   -4.8753    0.0000 C   0  0  0  0  0  0  0  0  0  0  0  0
   -3.2677   -5.3502    0.0000 C   0  0  2  0  0  0  0  0  0  0  0  0
   -3.2677   -6.7479    0.0000 O   0  0  0  0  0  0  0  0  0  0  0  0
   -4.0792   -7.2288    0.0000 C   0  0  1  0  0  0  0  0  0  0  0  0
   -3.2495   -7.7066    0.0000 H   0  0  0  0  0  0  0  0  0  0  0  0
   -4.0792   -8.1725    0.0000 C   0  0  0  0  0  0  0  0  0  0  0  0
   -4.8818   -8.6955    0.0000 C   0  0  2  0  0  0  0  0  0  0  0  0
   -4.8818   -9.5942    0.0000 N   0  0  0  0  0  0  0  0  0  0  0  0
   -5.7354   -8.2205    0.0000 C   0  0  2  0  0  0  0  0  0  0  0  0
   -6.4838   -8.7136    0.0000 O   0  0  0  0  0  0  0  0  0  0  0  0
   -5.7354   -7.2677    0.0000 C   0  0  2  0  0  0  0  0  0  0  0  0
   -6.4387   -6.9343    0.0000 C   0  0  0  0  0  0  0  0  0  0  0  0
   -4.9179   -6.7690    0.0000 O   0  0  0  0  0  0  0  0  0  0  0  0
   -4.0823   -4.8753    0.0000 C   0  0  0  0  0  0  0  0  0  0  0  0
   -4.9117   -5.3502    0.0000 C   0  0  0  0  0  0  0  0  0  0  0  0
   -4.7468   -6.2856    0.0000 O   0  0  0  0  0  0  0  0  0  0  0  0
   -5.7473   -4.8753    0.0000 C   0  0  0  0  0  0  0  0  0  0  0  0
   -6.5800   -5.3593    0.0000 C   0  0  0  0  0  0  0  0  0  0  0  0
   -7.4095   -4.8664    0.0000 C   0  0  0  0  0  0  0  0  0  0  0  0
   -8.2541   -5.3412    0.0000 C   0  0  0  0  0  0  0  0  0  0  0  0
   -8.2541   -6.3090    0.0000 O   0  0  0  0  0  0  0  0  0  0  0  0
   -9.0746   -6.7870    0.0000 C   0  0  0  0  0  0  0  0  0  0  0  0
   -9.0746   -4.8753    0.0000 C   0  0  0  0  0  0  0  0  0  0  0  0
   -9.0746   -3.9196    0.0000 C   0  0  0  0  0  0  0  0  0  0  0  0
   -8.2541   -3.4387    0.0000 C   0  0  0  0  0  0  0  0  0  0  0  0
   -7.4095   -3.9015    0.0000 C   0  0  0  0  0  0  0  0  0  0  0  0
   -6.5888   -3.4477    0.0000 C   0  0  0  0  0  0  0  0  0  0  0  0
   -6.5888   -2.4769    0.0000 O   0  0  0  0  0  0  0  0  0  0  0  0
   -6.5800   -6.3090    0.0000 O   0  0  0  0  0  0  0  0  0  0  0  0
   -1.4012   -4.3884    0.0000 O   0  0  0  0  0  0  0  0  0  0  0  0
   -1.9361   -2.9246    0.0000 C   0  0  0  0  0  0  0  0  0  0  0  0
   -0.9953   -2.9246    0.0000 C   0  0  0  0  0  0  0  0  0  0  0  0
   -0.5110   -2.0859    0.0000 O   0  0  0  0  0  0  0  0  0  0  0  0
    0.4574   -2.0859    0.0000 C   0  0  0  0  0  0  0  0  0  0  0  0
    0.9416   -1.2471    0.0000 C   0  0  0  0  0  0  0  0  0  0  0  0
    0.4574   -0.4085    0.0000 C   0  0  0  0  0  0  0  0  0  0  0  0
    0.9416    0.4301    0.0000 C   0  0  0  0  0  0  0  0  0  0  0  0
    0.4574    1.2690    0.0000 C   0  0  0  0  0  0  0  0  0  0  0  0
    0.9416    2.1077    0.0000 N   0  0  0  0  0  0  0  0  0  0  0  0
   -0.5110    1.2690    0.0000 O   0  0  0  0  0  0  0  0  0  0  0  0
    0.9416   -2.9246    0.0000 O   0  0  0  0  0  0  0  0  0  0  0  0
   -2.6365   -2.2244    0.0000 O   0  0  0  0  0  0  0  0  0  0  0  0
    0.4574    2.9464    0.0000 C   0  0  0  0  0  0  0  0  0  0  0  0
    0.4575    4.6239    0.0000 C   0  0  0  0  0  0  0  0  0  0  0  0
    0.9620    5.4626    0.0000 C   0  0  0  0  0  0  0  0  0  0  0  0
    0.9620    6.4455    0.0000 C   0  0  1  0  0  0  0  0  0  0  0  0
    0.2955    6.8178    0.0000 N   0  0  0  0  0  0  0  0  0  0  0  0
   -2.9856    9.0522    0.0000 H   0  0  0  0  0  0  0  0  0  0  0  0
   -2.0658    9.0797    0.0000 H   0  0  0  0  0  0  0  0  0  0  0  0
    0.6646    9.5942    0.0000 H   0  0  0  0  0  0  0  0  0  0  0  0
   -7.2719    8.6708    0.0000 N   0  0  0  0  0  0  0  0  0  0  0  0
   -7.2993    5.9314    0.0000 O   0  0  0  0  0  0  0  0  0  0  0  0
   -7.2993    6.6065    0.0000 C   0  0  0  0  0  0  0  0  0  0  0  0
   -8.3881    6.5964    0.0000 N   0  0  0  0  0  0  0  0  0  0  0  0
   -7.8577    6.9841    0.0000 C   0  0  1  0  0  0  0  0  0  0  0  0
   -7.8577    7.6609    0.0000 C   0  0  0  0  0  0  0  0  0  0  0  0
   -7.2719    7.9984    0.0000 C   0  0  0  0  0  0  0  0  0  0  0  0
   -6.6346    7.7842    0.0000 C   0  0  0  0  0  0  0  0  0  0  0  0
   -6.6235    8.8721    0.0000 C   0  0  0  0  0  0  0  0  0  0  0  0
   -6.2340    8.3240    0.0000 N   0  0  0  0  0  0  0  0  0  0  0  0
   -5.6608    6.6006    0.0000 N   0  0  0  0  0  0  0  0  0  0  0  0
   -5.1980    6.9390    0.0000 C   0  0  2  0  0  0  0  0  0  0  0  0
   -4.7106    6.0202    0.0000 O   0  0  0  0  0  0  0  0  0  0  0  0
   -4.7106    6.6095    0.0000 C   0  0  0  0  0  0  0  0  0  0  0  0
   -5.1980    7.5298    0.0000 C   0  0  0  0  0  0  0  0  0  0  0  0
   -4.1213    7.6920    0.0000 C   0  0  0  0  0  0  0  0  0  0  0  0
   -4.6899    7.8254    0.0000 C   0  0  0  0  0  0  0  0  0  0  0  0
   -3.8182    8.1964    0.0000 N   0  0  0  0  0  0  0  0  0  0  0  0
   -4.7432    8.4093    0.0000 C   0  0  0  0  0  0  0  0  0  0  0  0
   -4.2037    8.6389    0.0000 C   0  0  0  0  0  0  0  0  0  0  0  0
   -4.1339    9.2209    0.0000 C   0  0  0  0  0  0  0  0  0  0  0  0
   -4.6059    9.5719    0.0000 C   0  0  0  0  0  0  0  0  0  0  0  0
   -5.1454    9.3421    0.0000 C   0  0  0  0  0  0  0  0  0  0  0  0
   -5.2102    8.7628    0.0000 C   0  0  0  0  0  0  0  0  0  0  0  0
   -3.2452    6.5999    0.0000 N   0  0  0  0  0  0  0  0  0  0  0  0
   -2.6988    6.9993    0.0000 C   0  0  2  0  0  0  0  0  0  0  0  0
   -2.1233    5.9148    0.0000 O   0  0  0  0  0  0  0  0  0  0  0  0
   -2.1233    6.6103    0.0000 C   0  0  0  0  0  0  0  0  0  0  0  0
   -2.6988    7.6967    0.0000 C   0  0  0  0  0  0  0  0  0  0  0  0
   -2.0984    8.0430    0.0000 O   0  0  0  0  0  0  0  0  0  0  0  0
   -1.5252    6.6011    0.0000 N   0  0  0  0  0  0  0  0  0  0  0  0
   -1.1115    6.9036    0.0000 C   0  0  2  0  0  0  0  0  0  0  0  0
   -0.6759    6.0824    0.0000 O   0  0  0  0  0  0  0  0  0  0  0  0
   -0.6759    6.6091    0.0000 C   0  0  0  0  0  0  0  0  0  0  0  0
   -1.1115    7.4319    0.0000 C   0  0  0  0  0  0  0  0  0  0  0  0
   -0.6574    8.2204    0.0000 C   0  0  0  0  0  0  0  0  0  0  0  0
   -0.6574    7.6958    0.0000 C   0  0  0  0  0  0  0  0  0  0  0  0
   -0.2031    7.4336    0.0000 C   0  0  0  0  0  0  0  0  0  0  0  0
    0.2511    7.6958    0.0000 C   0  0  0  0  0  0  0  0  0  0  0  0
    0.2511    8.2204    0.0000 C   0  0  0  0  0  0  0  0  0  0  0  0
   -0.2031    8.4829    0.0000 C   0  0  0  0  0  0  0  0  0  0  0  0
    0.7054    8.4829    0.0000 O   0  0  0  0  0  0  0  0  0  0  0  0
   12.1693    6.6528    0.0000 N   0  0  0  0  0  0  0  0  0  0  0  0
    2.6691    6.6323    0.0000 N   0  0  0  0  0  0  0  0  0  0  0  0
    3.2182    7.0336    0.0000 C   0  0  2  0  0  0  0  0  0  0  0  0
    3.7962    5.9437    0.0000 O   0  0  0  0  0  0  0  0  0  0  0  0
    3.7962    6.6428    0.0000 C   0  0  0  0  0  0  0  0  0  0  0  0
    3.2182    7.7344    0.0000 C   0  0  0  0  0  0  0  0  0  0  0  0
    3.8215    8.0824    0.0000 C   0  0  0  0  0  0  0  0  0  0  0  0
    3.8215    8.7785    0.0000 C   0  0  0  0  0  0  0  0  0  0  0  0
    4.4242    7.7340    0.0000 C   0  0  0  0  0  0  0  0  0  0  0  0
    4.9972    6.6370    0.0000 N   0  0  0  0  0  0  0  0  0  0  0  0
    6.6876    8.6737    0.0000 C   0  0  0  0  0  0  0  0  0  0  0  0
    6.6876    9.1726    0.0000 N   0  0  0  0  0  0  0  0  0  0  0  0
    7.1195    8.4240    0.0000 N   0  0  0  0  0  0  0  0  0  0  0  0
    6.2527    8.4079    0.0000 N   0  0  0  0  0  0  0  0  0  0  0  0
    5.3907    6.9247    0.0000 C   0  0  1  0  0  0  0  0  0  0  0  0
    5.8050    6.1436    0.0000 O   0  0  0  0  0  0  0  0  0  0  0  0
    5.3907    7.4269    0.0000 C   0  0  0  0  0  0  0  0  0  0  0  0
    5.8230    7.6763    0.0000 C   0  0  0  0  0  0  0  0  0  0  0  0
    5.8230    8.1751    0.0000 C   0  0  0  0  0  0  0  0  0  0  0  0
    9.3187    6.6470    0.0000 C   0  0  0  0  0  0  0  0  0  0  0  0
    8.7527    7.0270    0.0000 C   0  0  2  0  0  0  0  0  0  0  0  0
    8.7527    7.7147    0.0000 C   0  0  0  0  0  0  0  0  0  0  0  0
    8.0214    7.8218    0.0000 C   0  0  0  0  0  0  0  0  0  0  0  0
    7.6925    7.1590    0.0000 C   0  0  0  0  0  0  0  0  0  0  0  0
    8.2193    6.6346    0.0000 N   0  0  0  0  0  0  0  0  0  0  0  0
    9.3187    5.9645    0.0000 O   0  0  0  0  0  0  0  0  0  0  0  0
    9.8917    6.6346    0.0000 N   0  0  0  0  0  0  0  0  0  0  0  0
   10.5398    7.1082    0.0000 C   0  0  0  0  0  0  0  0  0  0  0  0
   11.2253    5.8220    0.0000 O   0  0  0  0  0  0  0  0  0  0  0  0
   11.2222    6.6470    0.0000 C   0  0  0  0  0  0  0  0  0  0  0  0
    5.8050    6.6446    0.0000 C   0  0  0  0  0  0  0  0  0  0  0  0
    0.9416    3.7851    0.0000 C   0  0  0  0  0  0  0  0  0  0  0  0
    1.7013    6.8898    0.0000 C   0  0  0  0  0  0  0  0  0  0  0  0
    1.7013    7.5747    0.0000 O   0  0  0  0  0  0  0  0  0  0  0  0
  -11.1298    7.8157    0.0000 C   0  0  0  0  0  0  0  0  0  0  0  0
  -10.3046    7.8157    0.0000 C   0  0  0  0  0  0  0  0  0  0  0  0
  -10.0496    7.0310    0.0000 C   0  0  2  0  0  0  0  0  0  0  0  0
  -10.7170    6.5461    0.0000 N   0  0  0  0  0  0  0  0  0  0  0  0
  -11.3846    7.0310    0.0000 C   0  0  0  0  0  0  0  0  0  0  0  0
   -9.2013    7.2216    0.0000 C   0  0  0  0  0  0  0  0  0  0  0  0
   -8.8388    8.0060    0.0000 O   0  0  0  0  0  0  0  0  0  0  0  0
  -12.1693    6.7762    0.0000 O   0  0  0  0  0  0  0  0  0  0  0  0
 63 57  1  0  0  0  0
 57 65  1  0  0  0  0
 59 58  2  0  0  0  0
 61 59  1  0  0  0  0
 60 61  1  0  0  0  0
 61 62  1  1  0  0  0
 62 63  1  0  0  0  0
 64 63  2  0  0  0  0
 66 64  1  0  0  0  0
 65 66  2  0  0  0  0
 67 68  1  0  0  0  0
 68 71  1  1  0  0  0
 68 70  1  0  0  0  0
 70 69  2  0  0  0  0
 71 73  1  0  0  0  0
 72 73  2  0  0  0  0
 74 72  1  0  0  0  0
 73 75  1  0  0  0  0
 76 74  1  0  0  0  0
 80 75  1  0  0  0  0
 75 76  2  0  0  0  0
 76 77  1  0  0  0  0
 77 78  2  0  0  0  0
 78 79  1  0  0  0  0
 79 80  2  0  0  0  0
 81 82  1  0  0  0  0
 82 84  1  0  0  0  0
 82 85  1  1  0  0  0
 84 83  2  0  0  0  0
 85 86  1  0  0  0  0
 87 88  1  0  0  0  0
 88 91  1  1  0  0  0
 88 90  1  0  0  0  0
 90 89  2  0  0  0  0
 91 93  1  0  0  0  0
 97 92  1  0  0  0  0
 92 93  2  0  0  0  0
 93 94  1  0  0  0  0
 94 95  2  0  0  0  0
 95 96  1  0  0  0  0
 96 98  1  0  0  0  0
 96 97  2  0  0  0  0
100101  1  0  0  0  0
101104  1  1  0  0  0
101103  1  0  0  0  0
103102  2  0  0  0  0
104105  1  0  0  0  0
105107  1  0  0  0  0
105106  1  0  0  0  0
108113  1  0  0  0  0
109111  2  0  0  0  0
109110  1  0  0  0  0
112109  1  0  0  0  0
117112  1  0  0  0  0
113115  1  1  0  0  0
113129  1  0  0  0  0
129114  2  0  0  0  0
115116  1  0  0  0  0
116117  1  0  0  0  0
118124  2  0  0  0  0
119118  1  0  0  0  0
123119  1  0  0  0  0
119120  1  1  0  0  0
121120  1  0  0  0  0
122121  1  0  0  0  0
122123  1  0  0  0  0
125126  1  0  0  0  0
126128  1  0  0  0  0
128127  2  0  0  0  0
  2  1  1  0  0  0  0
  3  2  1  0  0  0  0
  4  2  2  0  0  0  0
  5  4  1  0  0  0  0
  6  5  1  0  0  0  0
  6  7  1  0  0  0  0
  7  8  1  0  0  0  0
  8  9  1  6  0  0  0
 10  9  1  0  0  0  0
 10 11  1  6  0  0  0
 12 10  1  0  0  0  0
 13 12  1  0  0  0  0
 13 14  1  6  0  0  0
 15 13  1  0  0  0  0
 15 16  1  6  0  0  0
 17 15  1  0  0  0  0
 17 18  1  6  0  0  0
 17 19  1  0  0  0  0
 19 10  1  0  0  0  0
  8 20  1  0  0  0  0
 20  4  1  0  0  0  0
 21 20  2  0  0  0  0
 22 21  1  0  0  0  0
 21 23  1  0  0  0  0
 24 23  1  0  0  0  0
 25 24  1  0  0  0  0
 26 25  2  0  0  0  0
 27 26  1  0  0  0  0
 28 27  1  0  0  0  0
 29 26  1  0  0  0  0
 30 29  2  0  0  0  0
 30 31  1  0  0  0  0
 31 32  2  0  0  0  0
 32 33  1  0  0  0  0
 34 33  2  0  0  0  0
 33  1  1  0  0  0  0
 25 32  1  0  0  0  0
 35 24  2  0  0  0  0
 23  1  2  0  0  0  0
  6 36  1  6  0  0  0
  6 37  1  0  0  0  0
 38 37  1  0  0  0  0
 39 38  1  0  0  0  0
 39 40  1  0  0  0  0
 40 41  1  0  0  0  0
 41 42  1  0  0  0  0
 42 43  1  0  0  0  0
 43 44  1  0  0  0  0
 44 45  1  0  0  0  0
 44 46  2  0  0  0  0
 40 47  2  0  0  0  0
 48 37  2  0  0  0  0
 45 49  1  0  0  0  0
 49130  1  0  0  0  0
130 50  1  0  0  0  0
 50 51  1  0  0  0  0
 51 52  1  0  0  0  0
 52 53  1  1  0  0  0
 52131  1  0  0  0  0
131132  2  0  0  0  0
 74 54  1  0  0  0  0
 67 59  1  0  0  0  0
 86 55  1  0  0  0  0
 81 70  1  0  0  0  0
 98 56  1  0  0  0  0
 87 84  1  0  0  0  0
108103  1  0  0  0  0
129123  1  0  0  0  0
128 99  1  0  0  0  0
125118  1  0  0  0  0
131100  1  0  0  0  0
 90 53  1  0  0  0  0
133134  1  0  0  0  0
134135  1  0  0  0  0
135136  1  0  0  0  0
137136  1  0  0  0  0
133137  1  0  0  0  0
135138  1  1  0  0  0
138139  2  0  0  0  0
137140  2  0  0  0  0
138 60  1  0  0  0  0
M  STY  8   1 SUP   2 SUP   3 SUP   4 SUP   5 SUP   6 SUP   7 SUP   8 SUP
M  STY  3   9 SUP  10 SUP  11 SUP
M  SAL   1  1  54
M  SBL   1  1 130
M  SMT   1 H
M  SAP   1  1  54  74  1
M  SDS EXP  1   1
M  SAL   2  1  55
M  SBL   2  1 132
M  SMT   2 H
M  SAP   2  1  55  86  1
M  SDS EXP  1   2
M  SAL   3  1  56
M  SBL   3  1 134
M  SMT   3 H
M  SAP   3  1  56  98  1
M  SDS EXP  1   3
M  SAL   4 10  57  58  59  60  61  62  63  64  65  66
M  SBL   4  2 131 150
M  SMT   4 H
M  SAP   4  2  59  67  1  60 138  2
M  SDS EXP  1   4
M  SAL   5 14  67  68  69  70  71  72  73  74  75  76  77  78  79  80
M  SBL   5  3 131 133 130
M  SMT   5 W
M  SAP   5  3  67  59  1  70  81  2  74  54  3
M  SDS EXP  1   5
M  SAL   6  6  81  82  83  84  85  86
M  SBL   6  3 133 135 132
M  SMT   6 S
M  SAP   6  3  81  70  1  84  87  2  86  55  3
M  SDS EXP  1   6
M  SAL   7 12  87  88  89  90  91  92  93  94  95  96  97  98
M  SBL   7  3 135 141 134
M  SMT   7 Y
M  SAP   7  3  87  84  1  90  53  2  98  56  3
M  SDS EXP  1   7
M  SAL   8  8 100 101 102 103 104 105 106 107
M  SBL   8  2 140 136
M  SMT   8 L
M  SAP   8  2 100 131  1 103 108  2
M  SDS EXP  1   8
M  SAL   9 11 108 109 110 111 112 113 114 115 116 117 129
M  SBL   9  2 136 137
M  SMT   9 R
M  SAP   9  2 108 103  1 129 123  2
M  SDS EXP  1   9
M  SAL  10  7 118 119 120 121 122 123 124
M  SBL  10  2 139 137
M  SMT  10 P
M  SAP  10  2 118 125  1 123 129  2
M  SDS EXP  1  10
M  SAL  11  4 125 126 127 128
M  SBL  11  2 139 138
M  SMT  11 G
M  SAP  11  2 125 118  1 128  99  2
M  SDS EXP  1  11
M  END
> <DATABASE_ID>
DB12755

> <DATABASE_NAME>
drugbank

> <SMILES>
[H]OC[C@H](NC(=O)[C@H](CC1=CN([H])C2=C1C=CC=C2)NC(=O)[C@H](CC1=CN=CN1)NC(=O)[C@@H]1CCC(=O)N1)C(=O)N[C@@H](CC1=CC=C(O[H])C=C1)C(=O)N[C@H](CCCCNC(=O)CCCC(=O)OCC(=O)[C@@]1(O)C[C@H](O[C@@]2([H])C[C@H](N)[C@H](O)[C@H](C)O2)C2=C(O)C3=C(C(O)=C2C1)C(=O)C1=CC=CC(OC)=C1C3=O)C(=O)N[C@@H](CC(C)C)C(=O)N[C@@H](CCCNC(N)=N)C(=O)N1CCC[C@H]1C(=O)NCC(N)=O

> <INCHI_IDENTIFIER>
InChI=1S/C91H117N19O26/c1-44(2)31-58(83(125)104-57(17-11-29-98-90(94)95)89(131)110-30-12-18-63(110)88(130)100-40-67(93)114)105-81(123)55(16-7-8-28-97-68(115)20-10-21-70(117)134-42-66(113)91(132)36-52-73(65(37-91)136-71-35-53(92)76(118)45(3)135-71)80(122)75-74(78(52)120)77(119)51-14-9-19-64(133-4)72(51)79(75)121)103-84(126)59(32-46-22-24-49(112)25-23-46)106-87(129)62(41-111)109-85(127)60(33-47-38-99-54-15-6-5-13-50(47)54)107-86(128)61(34-48-39-96-43-101-48)108-82(124)56-26-27-69(116)102-56/h5-6,9,13-15,19,22-25,38-39,43-45,53,55-63,65,71,76,99,111-112,118,120,122,132H,7-8,10-12,16-18,20-21,26-37,40-42,92H2,1-4H3,(H2,93,114)(H,96,101)(H,97,115)(H,100,130)(H,102,116)(H,103,126)(H,104,125)(H,105,123)(H,106,129)(H,107,128)(H,108,124)(H,109,127)(H4,94,95,98)/t45-,53-,55+,56-,57-,58-,59-,60-,61-,62-,63-,65-,71-,76+,91-/m0/s1

> <INCHI_KEY>
OOUACICUAVTCEC-LZHWUUGESA-N

> <FORMULA>
C91H117N19O26

> <MOLECULAR_WEIGHT>
1893.044

> <EXACT_MASS>
1891.841714963

> <JCHEM_ACCEPTOR_COUNT>
30

> <JCHEM_ATOM_COUNT>
253

> <JCHEM_AVERAGE_NEUTRAL_MICROSPECIES_CHARGE>
3.2222799170903342

> <JCHEM_AVERAGE_POLARIZABILITY>
196.17304478954844

> <JCHEM_BIOAVAILABILITY>
0

> <JCHEM_DONOR_COUNT>
23

> <JCHEM_FORMAL_CHARGE>
0

> <JCHEM_GHOSE_FILTER>
0

> <JCHEM_IUPAC>
2-[(2S,4S)-4-{[(2R,4S,5S,6S)-4-amino-5-hydroxy-6-methyloxan-2-yl]oxy}-2,5,12-trihydroxy-7-methoxy-6,11-dioxo-1,2,3,4,6,11-hexahydrotetracen-2-yl]-2-oxoethyl 4-{[(5R)-5-{[(1S)-1-{[(2S)-5-carbamimidamido-1-[(2S)-2-[(carbamoylmethyl)carbamoyl]pyrrolidin-1-yl]-1-oxopentan-2-yl]carbamoyl}-3-methylbutyl]carbamoyl}-5-[(2S)-2-[(2S)-3-hydroxy-2-[(2S)-2-[(2S)-3-(1H-imidazol-5-yl)-2-{[(2S)-5-oxopyrrolidin-2-yl]formamido}propanamido]-3-(1H-indol-3-yl)propanamido]propanamido]-3-(4-hydroxyphenyl)propanamido]pentyl]carbamoyl}butanoate

> <ALOGPS_LOGP>
0.58

> <JCHEM_LOGP>
-4.114706980629198

> <ALOGPS_LOGS>
-4.61

> <JCHEM_MDDR_LIKE_RULE>
1

> <JCHEM_NEUTRAL_CHARGE>
3

> <JCHEM_NUMBER_OF_RINGS>
11

> <JCHEM_PHYSIOLOGICAL_CHARGE>
2

> <JCHEM_PKA>
9.164217066523207

> <JCHEM_PKA_STRONGEST_ACIDIC>
8.017602456979901

> <JCHEM_PKA_STRONGEST_BASIC>
11.97432076290165

> <JCHEM_POLAR_SURFACE_AREA>
713.3700000000001

> <JCHEM_REFRACTIVITY>
490.64380000000017

> <JCHEM_ROTATABLE_BOND_COUNT>
47

> <JCHEM_RULE_OF_FIVE>
0

> <ALOGPS_SOLUBILITY>
4.63e-02 g/l

> <JCHEM_TRADITIONAL_IUPAC>
zoptarelin doxorubicin

> <JCHEM_VEBER_RULE>
0

> <DRUGBANK_ID>
DB12755

> <DRUG_GROUPS>
investigational

> <GENERIC_NAME>
Zoptarelin doxorubicin

> <SYNONYMS>
Zoptarelin doxorubicin

> <SALTS>
Zoptarelin doxorubicin acetate

$$$$
