
  Mrv1572004221603192D          

 13 13  0  0  0  0            999 V2000
    6.4302    0.4125    0.0000 C   0  0  0  0  0  0  0  0  0  0  0  0
    7.1447    2.4750    0.0000 C   0  0  0  0  0  0  0  0  0  0  0  0
    6.4302    2.8875    0.0000 C   0  0  0  0  0  0  0  0  0  0  0  0
    7.1447    1.6500    0.0000 C   0  0  0  0  0  0  0  0  0  0  0  0
    5.7158    2.4750    0.0000 C   0  0  0  0  0  0  0  0  0  0  0  0
    2.8579    1.6500    0.0000 C   0  0  0  0  0  0  0  0  0  0  0  0
    4.2868    1.6500    0.0000 C   0  0  0  0  0  0  0  0  0  0  0  0
    6.4302    1.2375    0.0000 C   0  0  0  0  0  0  0  0  0  0  0  0
    3.5724    1.2375    0.0000 C   0  0  0  0  0  0  0  0  0  0  0  0
    5.7158    1.6500    0.0000 C   0  0  0  0  0  0  0  0  0  0  0  0
    2.1434    1.2375    0.0000 O   0  0  0  0  0  0  0  0  0  0  0  0
    3.5724    0.4125    0.0000 O   0  0  0  0  0  0  0  0  0  0  0  0
    5.0013    1.2375    0.0000 O   0  0  0  0  0  0  0  0  0  0  0  0
  3  2  2  0  0  0  0
  4  2  1  0  0  0  0
  5  3  1  0  0  0  0
  8  1  1  0  0  0  0
  8  4  2  0  0  0  0
  9  6  1  0  0  0  0
  9  7  1  0  0  0  0
 10  5  2  0  0  0  0
 10  8  1  0  0  0  0
 11  6  1  0  0  0  0
 12  9  1  0  0  0  0
 13  7  1  0  0  0  0
 13 10  1  0  0  0  0
M  END
> <DATABASE_ID>
DB13583

> <DATABASE_NAME>
drugbank

> <SMILES>
CC1=CC=CC=C1OCC(O)CO

> <INCHI_IDENTIFIER>
InChI=1S/C10H14O3/c1-8-4-2-3-5-10(8)13-7-9(12)6-11/h2-5,9,11-12H,6-7H2,1H3

> <INCHI_KEY>
JWDYCNIAQWPBHD-UHFFFAOYSA-N

> <FORMULA>
C10H14O3

> <MOLECULAR_WEIGHT>
182.219

> <EXACT_MASS>
182.094294311

> <JCHEM_ACCEPTOR_COUNT>
3

> <JCHEM_ATOM_COUNT>
27

> <JCHEM_AVERAGE_POLARIZABILITY>
19.69502877157406

> <JCHEM_BIOAVAILABILITY>
1

> <JCHEM_DONOR_COUNT>
2

> <JCHEM_FORMAL_CHARGE>
0

> <JCHEM_GHOSE_FILTER>
1

> <JCHEM_IUPAC>
3-(2-methylphenoxy)propane-1,2-diol

> <ALOGPS_LOGP>
0.96

> <JCHEM_LOGP>
1.0085589856666668

> <ALOGPS_LOGS>
-0.94

> <JCHEM_MDDR_LIKE_RULE>
0

> <JCHEM_NUMBER_OF_RINGS>
1

> <JCHEM_PHYSIOLOGICAL_CHARGE>
0

> <JCHEM_PKA>
15.562423820861877

> <JCHEM_PKA_STRONGEST_ACIDIC>
13.6242909228943

> <JCHEM_PKA_STRONGEST_BASIC>
-2.9686165284655273

> <JCHEM_POLAR_SURFACE_AREA>
49.69

> <JCHEM_REFRACTIVITY>
49.81720000000001

> <JCHEM_ROTATABLE_BOND_COUNT>
4

> <JCHEM_RULE_OF_FIVE>
1

> <ALOGPS_SOLUBILITY>
2.08e+01 g/l

> <JCHEM_TRADITIONAL_IUPAC>
mephenesin

> <JCHEM_VEBER_RULE>
0

> <DRUGBANK_ID>
DB13583

> <DRUG_GROUPS>
approved

> <GENERIC_NAME>
Mephenesin

> <SYNONYMS>
Mephenesin

> <PRODUCTS>
Decontractyl Baume

$$$$
