
  Mrv1533007131514012D          

 36 37  0  0  0  0            999 V2000
    9.2881   11.9625    0.0000 C   0  0  0  0  0  0  0  0  0  0  0  0
   10.0026   10.7250    0.0000 C   0  0  0  0  0  0  0  0  0  0  0  0
    8.5737    8.2500    0.0000 C   0  0  0  0  0  0  0  0  0  0  0  0
    7.1447    5.7750    0.0000 C   0  0  0  0  0  0  0  0  0  0  0  0
    5.7158    3.3000    0.0000 C   0  0  0  0  0  0  0  0  0  0  0  0
    4.2868    0.8250    0.0000 C   0  0  0  0  0  0  0  0  0  0  0  0
    0.7145    1.2375    0.0000 C   0  0  0  0  0  0  0  0  0  0  0  0
    0.7145    2.0625    0.0000 C   0  0  0  0  0  0  0  0  0  0  0  0
    8.5737    9.9000    0.0000 C   0  0  0  0  0  0  0  0  0  0  0  0
    7.1447    7.4250    0.0000 C   0  0  0  0  0  0  0  0  0  0  0  0
    5.7158    4.9500    0.0000 C   0  0  0  0  0  0  0  0  0  0  0  0
    8.5737   10.7250    0.0000 C   0  0  0  0  0  0  0  0  0  0  0  0
    7.8592    9.4875    0.0000 C   0  0  0  0  0  0  0  0  0  0  0  0
    7.1447    8.2500    0.0000 C   0  0  0  0  0  0  0  0  0  0  0  0
    6.4302    7.0125    0.0000 C   0  0  0  0  0  0  0  0  0  0  0  0
    5.7158    5.7750    0.0000 C   0  0  0  0  0  0  0  0  0  0  0  0
    5.0013    4.5375    0.0000 C   0  0  0  0  0  0  0  0  0  0  0  0
    1.4289    0.8250    0.0000 C   0  0  0  0  0  0  0  0  0  0  0  0
    1.4289    2.4750    0.0000 C   0  0  0  0  0  0  0  0  0  0  0  0
    4.2868    3.3000    0.0000 C   0  0  0  0  0  0  0  0  0  0  0  0
    4.2868    2.4750    0.0000 C   0  0  0  0  0  0  0  0  0  0  0  0
    9.2881   11.1375    0.0000 C   0  0  0  0  0  0  0  0  0  0  0  0
    7.8592    8.6625    0.0000 C   0  0  0  0  0  0  0  0  0  0  0  0
    6.4302    6.1875    0.0000 C   0  0  0  0  0  0  0  0  0  0  0  0
    5.0013    3.7125    0.0000 C   0  0  0  0  0  0  0  0  0  0  0  0
    3.5724    1.2375    0.0000 C   0  0  0  0  0  0  0  0  0  0  0  0
    3.5724    2.0625    0.0000 C   0  0  0  0  0  0  0  0  0  0  0  0
    2.1434    1.2375    0.0000 C   0  0  0  0  0  0  0  0  0  0  0  0
    2.1434    2.0625    0.0000 C   0  0  0  0  0  0  0  0  0  0  0  0
    2.8579    0.8250    0.0000 C   0  0  0  0  0  0  0  0  0  0  0  0
    2.8579    2.4750    0.0000 C   0  0  0  0  0  0  0  0  0  0  0  0
    2.8579    0.0000    0.0000 O   0  0  0  0  0  0  0  0  0  0  0  0
    2.8579    3.3000    0.0000 O   0  0  0  0  0  0  0  0  0  0  0  0
    6.4302    8.6625    0.0000 H   0  0  0  0  0  0  0  0  0  0  0  0
    5.0013    6.1875    0.0000 H   0  0  0  0  0  0  0  0  0  0  0  0
    3.5724    3.7125    0.0000 H   0  0  0  0  0  0  0  0  0  0  0  0
  8  7  2  0  0  0  0
 12  9  1  0  0  0  0
 13  9  1  0  0  0  0
 14 10  1  0  0  0  0
 15 10  1  0  0  0  0
 16 11  1  0  0  0  0
 17 11  1  0  0  0  0
 18  7  1  0  0  0  0
 19  8  1  0  0  0  0
 21 20  1  0  0  0  0
 22  1  1  0  0  0  0
 22  2  1  0  0  0  0
 22 12  2  0  0  0  0
 23  3  1  0  0  0  0
 23 13  1  0  0  0  0
 23 14  2  0  0  0  0
 24  4  1  0  0  0  0
 24 15  1  0  0  0  0
 24 16  2  0  0  0  0
 25  5  1  0  0  0  0
 25 17  1  0  0  0  0
 25 20  2  0  0  0  0
 26  6  1  0  0  0  0
 27 21  1  0  0  0  0
 27 26  2  0  0  0  0
 28 18  2  0  0  0  0
 29 19  2  0  0  0  0
 29 28  1  0  0  0  0
 30 26  1  0  0  0  0
 30 28  1  0  0  0  0
 31 27  1  0  0  0  0
 31 29  1  0  0  0  0
 32 30  2  0  0  0  0
 33 31  2  0  0  0  0
 34 14  1  0  0  0  0
 35 16  1  0  0  0  0
 36 20  1  0  0  0  0
M  END
> <DATABASE_ID>
DB12148

> <DATABASE_NAME>
drugbank

> <SMILES>
[H]\C(CC\C(C)=C(/[H])CC\C(C)=C(/[H])CC1=C(C)C(=O)C2=CC=CC=C2C1=O)=C(\C)CCC=C(C)C

> <INCHI_IDENTIFIER>
InChI=1S/C31H40O2/c1-22(2)12-9-13-23(3)14-10-15-24(4)16-11-17-25(5)20-21-27-26(6)30(32)28-18-7-8-19-29(28)31(27)33/h7-8,12,14,16,18-20H,9-11,13,15,17,21H2,1-6H3/b23-14+,24-16+,25-20+

> <INCHI_KEY>
DKHGMERMDICWDU-GHDNBGIDSA-N

> <FORMULA>
C31H40O2

> <MOLECULAR_WEIGHT>
444.659

> <EXACT_MASS>
444.302830528

> <JCHEM_ACCEPTOR_COUNT>
2

> <JCHEM_ATOM_COUNT>
73

> <JCHEM_AVERAGE_POLARIZABILITY>
54.92492997785129

> <JCHEM_BIOAVAILABILITY>
0

> <JCHEM_DONOR_COUNT>
0

> <JCHEM_FORMAL_CHARGE>
0

> <JCHEM_GHOSE_FILTER>
0

> <JCHEM_IUPAC>
2-methyl-3-[(2E,6E,10E)-3,7,11,15-tetramethylhexadeca-2,6,10,14-tetraen-1-yl]-1,4-dihydronaphthalene-1,4-dione

> <ALOGPS_LOGP>
7.24

> <JCHEM_LOGP>
8.479707364333333

> <ALOGPS_LOGS>
-5.96

> <JCHEM_MDDR_LIKE_RULE>
0

> <JCHEM_NUMBER_OF_RINGS>
2

> <JCHEM_PHYSIOLOGICAL_CHARGE>
0

> <JCHEM_PKA_STRONGEST_BASIC>
-7.224343414413889

> <JCHEM_POLAR_SURFACE_AREA>
34.14

> <JCHEM_REFRACTIVITY>
145.50680000000003

> <JCHEM_ROTATABLE_BOND_COUNT>
11

> <JCHEM_RULE_OF_FIVE>
0

> <ALOGPS_SOLUBILITY>
4.89e-04 g/l

> <JCHEM_TRADITIONAL_IUPAC>
menatetrenone

> <JCHEM_VEBER_RULE>
0

> <DRUGBANK_ID>
DB12148

> <DRUG_GROUPS>
investigational

> <GENERIC_NAME>
Menatetrenone

> <SYNONYMS>
menatetrenona; Menatetrenone

$$$$
