
  Mrv1718002101814292D          

 18 21  0  0  0  0            999 V2000
    2.4493    0.9376    0.0000 C   0  0  0  0  0  0  0  0  0  0  0  0
   -2.3513   -0.2818    0.0000 C   0  0  0  0  0  0  0  0  0  0  0  0
    2.8839    0.2363    0.0000 C   0  0  0  0  0  0  0  0  0  0  0  0
   -2.8839   -0.9118    0.0000 C   0  0  0  0  0  0  0  0  0  0  0  0
    0.3655    1.5873    0.0000 C   0  0  0  0  0  0  0  0  0  0  0  0
    1.6693   -0.5163    0.0000 C   0  0  0  0  0  0  0  0  0  0  0  0
    1.2347    0.1848    0.0000 C   0  0  0  0  0  0  0  0  0  0  0  0
    1.6247    0.9118    0.0000 C   0  0  0  0  0  0  0  0  0  0  0  0
   -1.5875   -0.5936    0.0000 C   0  0  0  0  0  0  0  0  0  0  0  0
   -0.0244    0.8603    0.0000 C   0  0  0  0  0  0  0  0  0  0  0  0
    0.4101    0.1590    0.0000 C   0  0  0  0  0  0  0  0  0  0  0  0
   -0.8862   -0.1590    0.0000 C   0  0  0  0  0  0  0  0  0  0  0  0
    1.1901    1.6131    0.0000 N   0  0  0  0  0  0  0  0  0  0  0  0
   -0.8257    0.6636    0.0000 N   0  0  0  0  0  0  0  0  0  0  0  0
   -0.1224   -0.4709    0.0000 N   0  0  0  0  0  0  0  0  0  0  0  0
   -1.6480   -1.4164    0.0000 N   0  0  0  0  0  0  0  0  0  0  0  0
    2.4939   -0.4906    0.0000 O   0  0  0  0  0  0  0  0  0  0  0  0
   -2.4493   -1.6131    0.0000 O   0  0  0  0  0  0  0  0  0  0  0  0
  3  1  1  0  0  0  0
  4  2  2  0  0  0  0
  7  6  1  0  0  0  0
  8  1  1  0  0  0  0
  8  7  2  0  0  0  0
  9  2  1  0  0  0  0
 10  5  1  0  0  0  0
 11  7  1  0  0  0  0
 11 10  2  0  0  0  0
 12  9  1  0  0  0  0
 13  5  2  0  0  0  0
 13  8  1  0  0  0  0
 14 10  1  0  0  0  0
 14 12  1  0  0  0  0
 15 11  1  0  0  0  0
 15 12  2  0  0  0  0
 16  9  2  0  0  0  0
 17  3  1  0  0  0  0
 17  6  1  0  0  0  0
 18  4  1  0  0  0  0
 18 16  1  0  0  0  0
M  END
> <DATABASE_ID>
DB06504

> <DATABASE_NAME>
drugbank

> <SMILES>
C1CC2=C(CO1)C1=C(NC(=N1)C1=NOC=C1)C=N2

> <INCHI_IDENTIFIER>
InChI=1S/C12H10N4O2/c1-3-17-6-7-8(1)13-5-10-11(7)15-12(14-10)9-2-4-18-16-9/h2,4-5H,1,3,6H2,(H,14,15)

> <INCHI_KEY>
ITPFSYAYHHPKRT-UHFFFAOYSA-N

> <FORMULA>
C12H10N4O2

> <MOLECULAR_WEIGHT>
242.238

> <EXACT_MASS>
242.080375578

> <JCHEM_ACCEPTOR_COUNT>
4

> <JCHEM_ATOM_COUNT>
28

> <JCHEM_AVERAGE_POLARIZABILITY>
24.547389596697887

> <JCHEM_BIOAVAILABILITY>
1

> <JCHEM_DONOR_COUNT>
1

> <JCHEM_FORMAL_CHARGE>
0

> <JCHEM_GHOSE_FILTER>
1

> <JCHEM_IUPAC>
4-(1,2-oxazol-3-yl)-12-oxa-3,5,8-triazatricyclo[7.4.0.0^{2,6}]trideca-1(9),2(6),3,7-tetraene

> <ALOGPS_LOGP>
1.43

> <JCHEM_LOGP>
0.7624862109999997

> <ALOGPS_LOGS>
-2.39

> <JCHEM_MDDR_LIKE_RULE>
0

> <JCHEM_NUMBER_OF_RINGS>
4

> <JCHEM_PHYSIOLOGICAL_CHARGE>
0

> <JCHEM_PKA_STRONGEST_ACIDIC>
8.745783869885736

> <JCHEM_PKA_STRONGEST_BASIC>
4.678306166932229

> <JCHEM_POLAR_SURFACE_AREA>
76.83

> <JCHEM_REFRACTIVITY>
73.2821

> <JCHEM_ROTATABLE_BOND_COUNT>
1

> <JCHEM_RULE_OF_FIVE>
1

> <ALOGPS_SOLUBILITY>
9.77e-01 g/l

> <JCHEM_TRADITIONAL_IUPAC>
4-(1,2-oxazol-3-yl)-12-oxa-3,5,8-triazatricyclo[7.4.0.0^{2,6}]trideca-1(9),2(6),3,7-tetraene

> <JCHEM_VEBER_RULE>
0

> <DRUGBANK_ID>
DB06504

> <DRUG_GROUPS>
investigational

> <GENERIC_NAME>
S-8510

$$$$
