
  Mrv1909 11142221202D          

 70 78  0  0  1  0            999 V2000
    7.7973   -1.4576    0.0000 H   0  0  0  0  0  0  0  0  0  0  0  0
    7.9311   -2.2716    0.0000 C   0  0  1  0  0  0  0  0  0  0  0  0
    8.6640   -1.8929    0.0000 C   0  0  0  0  0  0  0  0  0  0  0  0
    9.2507   -2.4728    0.0000 C   0  0  1  0  0  0  0  0  0  0  0  0
    9.7040   -3.1621    0.0000 H   0  0  0  0  0  0  0  0  0  0  0  0
   10.0743   -2.4249    0.0000 C   0  0  2  0  0  0  0  0  0  0  0  0
    9.6210   -1.7356    0.0000 H   0  0  0  0  0  0  0  0  0  0  0  0
   10.4446   -1.6877    0.0000 C   0  0  0  0  0  0  0  0  0  0  0  0
   11.2682   -1.6397    0.0000 C   0  0  0  0  0  0  0  0  0  0  0  0
   11.7215   -2.3290    0.0000 C   0  0  0  0  0  0  0  0  0  0  0  0
   12.5451   -2.2811    0.0000 C   0  0  0  0  0  0  0  0  0  0  0  0
   12.9984   -2.9704    0.0000 C   0  0  2  0  0  0  0  0  0  0  0  0
   12.6282   -3.7076    0.0000 C   0  0  0  0  0  0  0  0  0  0  0  0
   11.8046   -3.7555    0.0000 C   0  0  0  0  0  0  0  0  0  0  0  0
   11.3512   -3.0662    0.0000 C   0  0  1  0  0  0  0  0  0  0  0  0
   10.9810   -3.8035    0.0000 C   0  0  0  0  0  0  0  0  0  0  0  0
   10.5276   -3.1142    0.0000 C   0  0  1  0  0  0  0  0  0  0  0  0
   10.8979   -2.3769    0.0000 H   0  0  0  0  0  0  0  0  0  0  0  0
   10.1573   -3.8514    0.0000 C   0  0  0  0  0  0  0  0  0  0  0  0
    9.3337   -3.8994    0.0000 C   0  0  0  0  0  0  0  0  0  0  0  0
    8.8804   -3.2101    0.0000 C   0  0  1  0  0  0  0  0  0  0  0  0
    8.4351   -3.9046    0.0000 C   0  0  0  0  0  0  0  0  0  0  0  0
    8.0648   -3.0857    0.0000 C   0  0  1  0  0  0  0  0  0  0  0  0
    7.3276   -2.7154    0.0000 H   0  0  0  0  0  0  0  0  0  0  0  0
    7.3319   -3.4645    0.0000 C   0  0  2  0  0  0  0  0  0  0  0  0
    7.2076   -4.2801    0.0000 C   0  0  0  0  0  0  0  0  0  0  0  0
    6.7452   -2.8845    0.0000 C   0  0  2  0  0  0  0  0  0  0  0  0
    6.4540   -3.6564    0.0000 C   0  0  0  0  0  0  0  0  0  0  0  0
    5.6399   -3.7902    0.0000 C   0  0  0  0  0  0  0  0  0  0  0  0
    5.1170   -3.1521    0.0000 C   0  0  1  0  0  0  0  0  0  0  0  0
    4.3030   -3.2858    0.0000 C   0  0  0  0  0  0  0  0  0  0  0  0
    5.4082   -2.3802    0.0000 C   0  0  0  0  0  0  0  0  0  0  0  0
    6.2223   -2.2464    0.0000 N   0  0  0  0  0  0  0  0  0  0  0  0
    7.1155   -2.1473    0.0000 O   0  0  0  0  0  0  0  0  0  0  0  0
   13.8221   -2.9224    0.0000 O   0  0  0  0  0  0  0  0  0  0  0  0
   14.1923   -2.1852    0.0000 C   0  0  2  0  0  0  0  0  0  0  0  0
   14.6457   -2.8745    0.0000 H   0  0  0  0  0  0  0  0  0  0  0  0
   13.7390   -1.4959    0.0000 O   0  0  0  0  0  0  0  0  0  0  0  0
   14.1093   -0.7587    0.0000 C   0  0  2  0  0  0  0  0  0  0  0  0
   13.6560   -0.0694    0.0000 C   0  0  0  0  0  0  0  0  0  0  0  0
   14.0263    0.6679    0.0000 O   0  0  0  0  0  0  0  0  0  0  0  0
   14.9329   -0.7107    0.0000 C   0  0  2  0  0  0  0  0  0  0  0  0
   15.3032    0.0265    0.0000 O   0  0  0  0  0  0  0  0  0  0  0  0
   15.3862   -1.4000    0.0000 C   0  0  2  0  0  0  0  0  0  0  0  0
   16.2098   -1.3521    0.0000 O   0  0  0  0  0  0  0  0  0  0  0  0
   16.5801   -0.6148    0.0000 C   0  0  2  0  0  0  0  0  0  0  0  0
   17.0334   -1.3041    0.0000 H   0  0  0  0  0  0  0  0  0  0  0  0
   16.1268    0.0745    0.0000 O   0  0  0  0  0  0  0  0  0  0  0  0
   16.4971    0.8117    0.0000 C   0  0  2  0  0  0  0  0  0  0  0  0
   16.0438    1.5010    0.0000 C   0  0  0  0  0  0  0  0  0  0  0  0
   15.2202    1.4530    0.0000 O   0  0  0  0  0  0  0  0  0  0  0  0
   17.3207    0.8596    0.0000 C   0  0  1  0  0  0  0  0  0  0  0  0
   17.6910    1.5969    0.0000 O   0  0  0  0  0  0  0  0  0  0  0  0
   17.7740    0.1703    0.0000 C   0  0  2  0  0  0  0  0  0  0  0  0
   18.5976    0.2183    0.0000 O   0  0  0  0  0  0  0  0  0  0  0  0
   17.4037   -0.5669    0.0000 C   0  0  1  0  0  0  0  0  0  0  0  0
   17.8570   -1.2562    0.0000 O   0  0  0  0  0  0  0  0  0  0  0  0
   15.0159   -2.1372    0.0000 C   0  0  1  0  0  0  0  0  0  0  0  0
   15.4693   -2.8265    0.0000 O   0  0  0  0  0  0  0  0  0  0  0  0
   15.0990   -3.5638    0.0000 C   0  0  2  0  0  0  0  0  0  0  0  0
   15.9226   -3.5158    0.0000 H   0  0  0  0  0  0  0  0  0  0  0  0
   14.2754   -3.6117    0.0000 O   0  0  0  0  0  0  0  0  0  0  0  0
   13.9051   -4.3489    0.0000 C   0  0  1  0  0  0  0  0  0  0  0  0
   13.0815   -4.3969    0.0000 C   0  0  0  0  0  0  0  0  0  0  0  0
   14.3584   -5.0382    0.0000 C   0  0  2  0  0  0  0  0  0  0  0  0
   13.9881   -5.7755    0.0000 O   0  0  0  0  0  0  0  0  0  0  0  0
   15.1820   -4.9903    0.0000 C   0  0  1  0  0  0  0  0  0  0  0  0
   15.6353   -5.6796    0.0000 O   0  0  0  0  0  0  0  0  0  0  0  0
   15.5523   -4.2531    0.0000 C   0  0  1  0  0  0  0  0  0  0  0  0
   16.3759   -4.2051    0.0000 O   0  0  0  0  0  0  0  0  0  0  0  0
  2  1  1  6  0  0  0
  2  3  1  0  0  0  0
  4  3  1  0  0  0  0
  4  5  1  6  0  0  0
  4  6  1  0  0  0  0
  6  7  1  1  0  0  0
  6  8  1  0  0  0  0
  8  9  1  0  0  0  0
  9 10  2  0  0  0  0
 10 11  1  0  0  0  0
 12 11  1  0  0  0  0
 12 13  1  0  0  0  0
 13 14  1  0  0  0  0
 15 14  1  0  0  0  0
 15 10  1  0  0  0  0
 15 16  1  1  0  0  0
 17 15  1  0  0  0  0
  6 17  1  0  0  0  0
 17 18  1  6  0  0  0
 17 19  1  0  0  0  0
 19 20  1  0  0  0  0
 21 20  1  0  0  0  0
 21  4  1  0  0  0  0
 21 22  1  1  0  0  0
 23 21  1  0  0  0  0
 23  2  1  0  0  0  0
 23 24  1  6  0  0  0
 23 25  1  0  0  0  0
 25 26  1  6  0  0  0
 25 27  1  0  0  0  0
 27 28  1  0  0  0  0
 28 29  1  0  0  0  0
 30 29  1  0  0  0  0
 30 31  1  1  0  0  0
 30 32  1  0  0  0  0
 32 33  1  0  0  0  0
 27 33  1  0  0  0  0
 27 34  1  1  0  0  0
  2 34  1  0  0  0  0
 12 35  1  1  0  0  0
 36 35  1  0  0  0  0
 36 37  1  1  0  0  0
 36 38  1  0  0  0  0
 39 38  1  0  0  0  0
 39 40  1  6  0  0  0
 40 41  1  0  0  0  0
 42 39  1  0  0  0  0
 42 43  1  6  0  0  0
 42 44  1  0  0  0  0
 44 45  1  6  0  0  0
 46 45  1  0  0  0  0
 46 47  1  1  0  0  0
 46 48  1  0  0  0  0
 49 48  1  0  0  0  0
 49 50  1  6  0  0  0
 50 51  1  0  0  0  0
 52 49  1  0  0  0  0
 52 53  1  1  0  0  0
 52 54  1  0  0  0  0
 54 55  1  6  0  0  0
 54 56  1  0  0  0  0
 56 46  1  0  0  0  0
 56 57  1  1  0  0  0
 44 58  1  0  0  0  0
 58 36  1  0  0  0  0
 58 59  1  1  0  0  0
 60 59  1  0  0  0  0
 60 61  1  6  0  0  0
 60 62  1  0  0  0  0
 63 62  1  0  0  0  0
 63 64  1  6  0  0  0
 65 63  1  0  0  0  0
 65 66  1  1  0  0  0
 65 67  1  0  0  0  0
 67 68  1  6  0  0  0
 67 69  1  0  0  0  0
 69 60  1  0  0  0  0
 69 70  1  6  0  0  0
M  END
> <DATABASE_ID>
DB17103

> <DATABASE_NAME>
drugbank

> <SMILES>
[H][C@]12C[C@@]3([H])[C@]4([H])CC=C5C[C@H](CC[C@]5(C)[C@@]4([H])CC[C@]3(C)[C@@]1([H])[C@H](C)[C@@]1(CC[C@@H](C)CN1)O2)O[C@]1([H])O[C@H](CO)[C@H](O)[C@H](O[C@]2([H])O[C@H](CO)[C@@H](O)[C@H](O)[C@H]2O)[C@H]1O[C@]1([H])O[C@@H](C)[C@H](O)[C@@H](O)[C@H]1O

> <INCHI_IDENTIFIER>
InChI=1S/C45H73NO16/c1-19-8-13-45(46-16-19)20(2)30-27(62-45)15-26-24-7-6-22-14-23(9-11-43(22,4)25(24)10-12-44(26,30)5)57-42-39(61-40-36(54)34(52)31(49)21(3)56-40)38(33(51)29(18-48)59-42)60-41-37(55)35(53)32(50)28(17-47)58-41/h6,19-21,23-42,46-55H,7-18H2,1-5H3/t19-,20+,21+,23+,24-,25+,26+,27+,28-,29-,30+,31+,32-,33+,34-,35+,36-,37-,38+,39-,40+,41+,42-,43+,44+,45-/m1/s1

> <INCHI_KEY>
QCTMYNGDIBTNSK-XEAAVONHSA-N

> <FORMULA>
C45H73NO16

> <MOLECULAR_WEIGHT>
884.07

> <EXACT_MASS>
883.492935275

> <JCHEM_ACCEPTOR_COUNT>
17

> <JCHEM_ATOM_COUNT>
135

> <JCHEM_AVERAGE_NEUTRAL_MICROSPECIES_CHARGE>
0.9971056930292501

> <JCHEM_AVERAGE_POLARIZABILITY>
95.90354130698512

> <JCHEM_BIOAVAILABILITY>
0

> <JCHEM_DONOR_COUNT>
10

> <JCHEM_FORMAL_CHARGE>
0

> <JCHEM_GHOSE_FILTER>
0

> <JCHEM_IUPAC>
(2S,3R,4S,5S,6R)-2-{[(2R,3S,4S,5R,6R)-3-hydroxy-2-(hydroxymethyl)-6-[(1S,2S,4S,5'R,6R,7S,8R,9S,12S,13R,16S)-5',7,9,13-tetramethyl-5-oxaspiro[pentacyclo[10.8.0.0^{2,9}.0^{4,8}.0^{13,18}]icosane-6,2'-piperidin]-18-eneoxy]-5-{[(2S,3R,4R,5R,6S)-3,4,5-trihydroxy-6-methyloxan-2-yl]oxy}oxan-4-yl]oxy}-6-(hydroxymethyl)oxane-3,4,5-triol

> <ALOGPS_LOGP>
0.90

> <JCHEM_LOGP>
0.34428057700000136

> <ALOGPS_LOGS>
-3.33

> <JCHEM_MDDR_LIKE_RULE>
1

> <JCHEM_NEUTRAL_CHARGE>
1

> <JCHEM_NUMBER_OF_RINGS>
9

> <JCHEM_PHYSIOLOGICAL_CHARGE>
1

> <JCHEM_PKA>
12.377992072817506

> <JCHEM_PKA_STRONGEST_ACIDIC>
11.886873840918451

> <JCHEM_PKA_STRONGEST_BASIC>
9.539684949012674

> <JCHEM_POLAR_SURFACE_AREA>
258.71

> <JCHEM_REFRACTIVITY>
217.64300000000006

> <JCHEM_ROTATABLE_BOND_COUNT>
8

> <JCHEM_RULE_OF_FIVE>
0

> <ALOGPS_SOLUBILITY>
4.10e-01 g/l

> <JCHEM_TRADITIONAL_IUPAC>
6-(6-chloropyridin-2-yl)-N2,N4-bis[(2R)-1,1,1-trifluoropropan-2-yl]-1,3,5-triazine-2,4-diamine

> <JCHEM_VEBER_RULE>
0

> <DRUGBANK_ID>
DB17103

> <DRUG_GROUPS>
investigational

> <GENERIC_NAME>
Solasonine

> <SYNONYMS>
alpha-Solasonine; Purapurine; Solasonin; Tomatine solaradixine

$$$$
