
  Mrv1909 09142219082D          

 22 23  0  0  0  0            999 V2000
    0.8212    5.1777    0.0000 C   0  0  0  0  0  0  0  0  0  0  0  0
    0.1067    4.7652    0.0000 C   0  0  0  0  0  0  0  0  0  0  0  0
   -0.3058    5.4797    0.0000 C   0  0  0  0  0  0  0  0  0  0  0  0
    0.5192    4.0507    0.0000 C   0  0  0  0  0  0  0  0  0  0  0  0
   -0.6078    4.3527    0.0000 C   0  0  0  0  0  0  0  0  0  0  0  0
   -0.6078    3.5277    0.0000 C   0  0  0  0  0  0  0  0  0  0  0  0
   -1.3222    3.1152    0.0000 C   0  0  0  0  0  0  0  0  0  0  0  0
   -2.0367    3.5277    0.0000 C   0  0  0  0  0  0  0  0  0  0  0  0
   -2.0367    4.3527    0.0000 C   0  0  0  0  0  0  0  0  0  0  0  0
   -1.3222    4.7652    0.0000 C   0  0  0  0  0  0  0  0  0  0  0  0
   -1.3222    5.5902    0.0000 O   0  0  0  0  0  0  0  0  0  0  0  0
   -2.7512    4.7652    0.0000 C   0  0  0  0  0  0  0  0  0  0  0  0
   -3.4656    5.1777    0.0000 C   0  0  0  0  0  0  0  0  0  0  0  0
   -2.3387    5.4797    0.0000 C   0  0  0  0  0  0  0  0  0  0  0  0
   -3.1637    4.0507    0.0000 C   0  0  0  0  0  0  0  0  0  0  0  0
   -1.3222    2.2902    0.0000 C   0  0  0  0  0  0  0  0  0  0  0  0
   -0.6548    1.8053    0.0000 C   0  0  0  0  0  0  0  0  0  0  0  0
   -0.9097    1.0206    0.0000 S   0  0  0  0  0  0  0  0  0  0  0  0
   -1.7347    1.0206    0.0000 C   0  0  0  0  0  0  0  0  0  0  0  0
   -2.2197    0.3532    0.0000 C   0  0  0  0  0  0  0  0  0  0  0  0
   -1.8841   -0.4005    0.0000 N   0  0  0  0  0  0  0  0  0  0  0  0
   -1.9897    1.8053    0.0000 N   0  0  0  0  0  0  0  0  0  0  0  0
  1  2  1  0  0  0  0
  2  3  1  0  0  0  0
  2  4  1  0  0  0  0
  2  5  1  0  0  0  0
  5  6  2  0  0  0  0
  6  7  1  0  0  0  0
  7  8  2  0  0  0  0
  8  9  1  0  0  0  0
  9 10  2  0  0  0  0
  5 10  1  0  0  0  0
 10 11  1  0  0  0  0
  9 12  1  0  0  0  0
 12 13  1  0  0  0  0
 12 14  1  0  0  0  0
 12 15  1  0  0  0  0
  7 16  1  0  0  0  0
 16 17  2  0  0  0  0
 17 18  1  0  0  0  0
 18 19  1  0  0  0  0
 19 20  1  0  0  0  0
 20 21  1  0  0  0  0
 19 22  2  0  0  0  0
 16 22  1  0  0  0  0
M  END
> <DATABASE_ID>
DB16950

> <DATABASE_NAME>
drugbank

> <SMILES>
CC(C)(C)C1=CC(=CC(=C1O)C(C)(C)C)C1=CSC(CN)=N1

> <INCHI_IDENTIFIER>
InChI=1S/C18H26N2OS/c1-17(2,3)12-7-11(14-10-22-15(9-19)20-14)8-13(16(12)21)18(4,5)6/h7-8,10,21H,9,19H2,1-6H3

> <INCHI_KEY>
HAQOEWGSBVQDHB-UHFFFAOYSA-N

> <FORMULA>
C18H26N2OS

> <MOLECULAR_WEIGHT>
318.48

> <EXACT_MASS>
318.176584639

> <JCHEM_ACCEPTOR_COUNT>
3

> <JCHEM_ATOM_COUNT>
48

> <JCHEM_AVERAGE_NEUTRAL_MICROSPECIES_CHARGE>
0.8400616828046076

> <JCHEM_AVERAGE_POLARIZABILITY>
37.4116872213385

> <JCHEM_BIOAVAILABILITY>
1

> <JCHEM_DONOR_COUNT>
2

> <JCHEM_FORMAL_CHARGE>
0

> <JCHEM_GHOSE_FILTER>
1

> <JCHEM_IUPAC>
4-[2-(aminomethyl)-1,3-thiazol-4-yl]-2,6-di-tert-butylphenol

> <ALOGPS_LOGP>
4.72

> <JCHEM_LOGP>
4.650596391666667

> <ALOGPS_LOGS>
-4.95

> <JCHEM_MDDR_LIKE_RULE>
0

> <JCHEM_NEUTRAL_CHARGE>
1

> <JCHEM_NUMBER_OF_RINGS>
2

> <JCHEM_PHYSIOLOGICAL_CHARGE>
1

> <JCHEM_PKA_STRONGEST_ACIDIC>
10.728726209189436

> <JCHEM_PKA_STRONGEST_BASIC>
7.720962697073907

> <JCHEM_POLAR_SURFACE_AREA>
59.14

> <JCHEM_REFRACTIVITY>
93.1437

> <JCHEM_ROTATABLE_BOND_COUNT>
4

> <JCHEM_RULE_OF_FIVE>
1

> <ALOGPS_SOLUBILITY>
3.54e-03 g/l

> <JCHEM_TRADITIONAL_IUPAC>
6-cyclopropaneamido-N-[hydroxy(2H2)methyl]-4-{[2-methoxy-3-(1-methyl-1,2,4-triazol-3-yl)phenyl]amino}pyridazine-3-carboxamide

> <JCHEM_VEBER_RULE>
0

> <DRUGBANK_ID>
DB16950

> <DRUG_GROUPS>
experimental; investigational

> <GENERIC_NAME>
BN-82451

> <SYNONYMS>
4-(2-(aminomethyl)-1,3-thiazol-4-yl)-2,6-di(tert-butyl)phenol; Phenol, 4-(2-(aminomethyl)-4-thiazolyl)-2,6-bis(1,1-dimethylethyl)-

> <SALTS>
BN-82451 hydrochloride

$$$$
