
  Mrv1652310211604492D          

 27 30  0  0  0  0            999 V2000
   -1.4087   -5.6992    0.0000 C   0  0  0  0  0  0  0  0  0  0  0  0
   -1.8212   -4.9848    0.0000 C   0  0  0  0  0  0  0  0  0  0  0  0
   -1.4087   -4.2703    0.0000 C   0  0  0  0  0  0  0  0  0  0  0  0
   -0.5837   -4.2703    0.0000 C   0  0  0  0  0  0  0  0  0  0  0  0
   -0.1712   -3.5558    0.0000 C   0  0  0  0  0  0  0  0  0  0  0  0
   -1.8212   -3.5558    0.0000 C   0  0  0  0  0  0  0  0  0  0  0  0
   -1.4087   -2.8414    0.0000 C   0  0  0  0  0  0  0  0  0  0  0  0
   -1.8212   -2.1269    0.0000 C   0  0  0  0  0  0  0  0  0  0  0  0
   -1.4087   -1.4124    0.0000 C   0  0  0  0  0  0  0  0  0  0  0  0
   -0.5837   -1.4124    0.0000 C   0  0  0  0  0  0  0  0  0  0  0  0
   -0.1712   -2.1269    0.0000 C   0  0  0  0  0  0  0  0  0  0  0  0
   -0.5837   -2.8414    0.0000 C   0  0  0  0  0  0  0  0  0  0  0  0
   -0.1712   -0.6979    0.0000 N   0  0  0  0  0  0  0  0  0  0  0  0
    0.6538   -0.6979    0.0000 C   0  0  0  0  0  0  0  0  0  0  0  0
    1.1387   -0.0305    0.0000 N   0  0  0  0  0  0  0  0  0  0  0  0
    1.9233   -0.2854    0.0000 C   0  0  0  0  0  0  0  0  0  0  0  0
    2.6378    0.1271    0.0000 C   0  0  0  0  0  0  0  0  0  0  0  0
    3.3523   -0.2854    0.0000 C   0  0  0  0  0  0  0  0  0  0  0  0
    3.3523   -1.1104    0.0000 C   0  0  0  0  0  0  0  0  0  0  0  0
    2.6378   -1.5229    0.0000 C   0  0  0  0  0  0  0  0  0  0  0  0
    1.9233   -1.1104    0.0000 C   0  0  0  0  0  0  0  0  0  0  0  0
    1.1387   -1.3654    0.0000 S   0  0  0  0  0  0  0  0  0  0  0  0
   -2.6462   -3.5558    0.0000 N   0  0  0  0  0  0  0  0  0  0  0  0
   -3.1311   -4.2233    0.0000 C   0  0  0  0  0  0  0  0  0  0  0  0
   -3.9157   -3.9683    0.0000 N   0  0  0  0  0  0  0  0  0  0  0  0
   -3.9157   -3.1433    0.0000 C   0  0  0  0  0  0  0  0  0  0  0  0
   -3.1311   -2.8884    0.0000 N   0  0  0  0  0  0  0  0  0  0  0  0
  1  2  1  0  0  0  0
  2  3  1  0  0  0  0
  3  4  1  0  0  0  0
  4  5  1  0  0  0  0
  3  6  1  0  0  0  0
  6  7  1  0  0  0  0
  7  8  2  0  0  0  0
  8  9  1  0  0  0  0
  9 10  2  0  0  0  0
 10 11  1  0  0  0  0
 11 12  2  0  0  0  0
  7 12  1  0  0  0  0
 10 13  1  0  0  0  0
 13 14  1  0  0  0  0
 14 15  2  0  0  0  0
 15 16  1  0  0  0  0
 16 17  2  0  0  0  0
 17 18  1  0  0  0  0
 18 19  2  0  0  0  0
 19 20  1  0  0  0  0
 20 21  2  0  0  0  0
 16 21  1  0  0  0  0
 21 22  1  0  0  0  0
 14 22  1  0  0  0  0
  6 23  1  0  0  0  0
 23 24  1  0  0  0  0
 24 25  2  0  0  0  0
 25 26  1  0  0  0  0
 26 27  2  0  0  0  0
 23 27  1  0  0  0  0
M  END
> <DATABASE_ID>
DB13083

> <DATABASE_NAME>
drugbank

> <SMILES>
CCC(CC)C(N1C=NC=N1)C1=CC=C(NC2=NC3=CC=CC=C3S2)C=C1

> <INCHI_IDENTIFIER>
InChI=1S/C21H23N5S/c1-3-15(4-2)20(26-14-22-13-23-26)16-9-11-17(12-10-16)24-21-25-18-7-5-6-8-19(18)27-21/h5-15,20H,3-4H2,1-2H3,(H,24,25)

> <INCHI_KEY>
SNFYYXUGUBUECJ-UHFFFAOYSA-N

> <FORMULA>
C21H23N5S

> <MOLECULAR_WEIGHT>
377.51

> <EXACT_MASS>
377.167416935

> <JCHEM_ACCEPTOR_COUNT>
4

> <JCHEM_ATOM_COUNT>
50

> <JCHEM_AVERAGE_POLARIZABILITY>
41.779446625868786

> <JCHEM_BIOAVAILABILITY>
1

> <JCHEM_DONOR_COUNT>
1

> <JCHEM_FORMAL_CHARGE>
0

> <JCHEM_GHOSE_FILTER>
0

> <JCHEM_IUPAC>
N-{4-[2-ethyl-1-(1H-1,2,4-triazol-1-yl)butyl]phenyl}-1,3-benzothiazol-2-amine

> <ALOGPS_LOGP>
5.10

> <JCHEM_LOGP>
5.896668655000001

> <ALOGPS_LOGS>
-4.41

> <JCHEM_MDDR_LIKE_RULE>
1

> <JCHEM_NUMBER_OF_RINGS>
4

> <JCHEM_PHYSIOLOGICAL_CHARGE>
0

> <JCHEM_PKA_STRONGEST_ACIDIC>
13.112877960338299

> <JCHEM_PKA_STRONGEST_BASIC>
2.7611318991469944

> <JCHEM_POLAR_SURFACE_AREA>
55.63

> <JCHEM_REFRACTIVITY>
120.39470000000001

> <JCHEM_ROTATABLE_BOND_COUNT>
7

> <JCHEM_RULE_OF_FIVE>
0

> <ALOGPS_SOLUBILITY>
1.45e-02 g/l

> <JCHEM_TRADITIONAL_IUPAC>
talarozole

> <JCHEM_VEBER_RULE>
0

> <DRUGBANK_ID>
DB13083

> <SECONDARY_ACCESSION_NUMBERS>
DB05681

> <DRUG_GROUPS>
investigational

> <GENERIC_NAME>
Talarozole

> <SYNONYMS>
Talarozole

$$$$
