
  Mrv1572004221606182D          

 20 21  0  0  0  0            999 V2000
   -5.0013    1.2375    0.0000 C   0  0  0  0  0  0  0  0  0  0  0  0
   -0.7145    2.0625    0.0000 C   0  0  0  0  0  0  0  0  0  0  0  0
    0.0000    2.4750    0.0000 C   0  0  0  0  0  0  0  0  0  0  0  0
   -1.4289    2.4750    0.0000 C   0  0  0  0  0  0  0  0  0  0  0  0
    0.0000    3.3000    0.0000 C   0  0  0  0  0  0  0  0  0  0  0  0
   -3.5724    3.7125    0.0000 C   0  0  0  0  0  0  0  0  0  0  0  0
   -2.8579    2.4750    0.0000 C   0  0  0  0  0  0  0  0  0  0  0  0
   -4.2868    3.3000    0.0000 C   0  0  0  0  0  0  0  0  0  0  0  0
   -3.5724    2.0625    0.0000 C   0  0  0  0  0  0  0  0  0  0  0  0
   -2.1434    3.7125    0.0000 C   0  0  0  0  0  0  0  0  0  0  0  0
   -5.0013    2.0625    0.0000 C   0  0  0  0  0  0  0  0  0  0  0  0
   -2.8579    3.3000    0.0000 C   0  0  0  0  0  0  0  0  0  0  0  0
   -4.2868    2.4750    0.0000 C   0  0  0  0  0  0  0  0  0  0  0  0
   -1.4289    3.3000    0.0000 C   0  0  0  0  0  0  0  0  0  0  0  0
   -0.7145    3.7125    0.0000 C   0  0  0  0  0  0  0  0  0  0  0  0
   -5.7158    2.4750    0.0000 C   0  0  0  0  0  0  0  0  0  0  0  0
   -0.7145    4.5375    0.0000 O   0  0  0  0  0  0  0  0  0  0  0  0
   -6.4302    2.0625    0.0000 O   0  0  0  0  0  0  0  0  0  0  0  0
   -5.7158    3.3000    0.0000 O   0  0  0  0  0  0  0  0  0  0  0  0
   -2.1434    4.5375    0.0000 H   0  0  0  0  0  0  0  0  0  0  0  0
  3  2  1  0  0  0  0
  4  2  1  0  0  0  0
  5  3  1  0  0  0  0
  8  6  1  0  0  0  0
  9  7  2  0  0  0  0
 11  1  1  0  0  0  0
 12  6  2  0  0  0  0
 12  7  1  0  0  0  0
 12 10  1  0  0  0  0
 13  8  2  0  0  0  0
 13  9  1  0  0  0  0
 13 11  1  0  0  0  0
 14  4  1  0  0  0  0
 14 10  2  0  0  0  0
 15  5  1  0  0  0  0
 15 14  1  0  0  0  0
 16 11  1  0  0  0  0
 17 15  2  0  0  0  0
 18 16  2  0  0  0  0
 19 16  1  0  0  0  0
 20 10  1  0  0  0  0
M  END
> <DATABASE_ID>
DB12150

> <DATABASE_NAME>
drugbank

> <SMILES>
[H]\C(C1=CC=C(C=C1)C(C)C(O)=O)=C1\CCCCC1=O

> <INCHI_IDENTIFIER>
InChI=1S/C16H18O3/c1-11(16(18)19)13-8-6-12(7-9-13)10-14-4-2-3-5-15(14)17/h6-11H,2-5H2,1H3,(H,18,19)/b14-10+

> <INCHI_KEY>
AUZUGWXLBGZUPP-GXDHUFHOSA-N

> <FORMULA>
C16H18O3

> <MOLECULAR_WEIGHT>
258.317

> <EXACT_MASS>
258.12559444

> <JCHEM_ACCEPTOR_COUNT>
3

> <JCHEM_ATOM_COUNT>
37

> <JCHEM_AVERAGE_POLARIZABILITY>
28.63102961586552

> <JCHEM_BIOAVAILABILITY>
1

> <JCHEM_DONOR_COUNT>
1

> <JCHEM_FORMAL_CHARGE>
0

> <JCHEM_GHOSE_FILTER>
1

> <JCHEM_IUPAC>
2-(4-{[(1E)-2-oxocyclohexylidene]methyl}phenyl)propanoic acid

> <ALOGPS_LOGP>
3.38

> <JCHEM_LOGP>
3.7233754490000006

> <ALOGPS_LOGS>
-4.25

> <JCHEM_MDDR_LIKE_RULE>
0

> <JCHEM_NUMBER_OF_RINGS>
2

> <JCHEM_PHYSIOLOGICAL_CHARGE>
-1

> <JCHEM_PKA_STRONGEST_ACIDIC>
4.108057909968915

> <JCHEM_PKA_STRONGEST_BASIC>
-4.9409350470742925

> <JCHEM_POLAR_SURFACE_AREA>
54.370000000000005

> <JCHEM_REFRACTIVITY>
74.2759

> <JCHEM_ROTATABLE_BOND_COUNT>
3

> <JCHEM_RULE_OF_FIVE>
1

> <ALOGPS_SOLUBILITY>
1.47e-02 g/l

> <JCHEM_TRADITIONAL_IUPAC>
pelubiprofen

> <JCHEM_VEBER_RULE>
0

> <DRUGBANK_ID>
DB12150

> <DRUG_GROUPS>
investigational

> <GENERIC_NAME>
Pelubiprofen

> <SYNONYMS>
Pelubiprofen

$$$$
