
  Mrv1909 05201914382D          

 22 24  0  0  0  0            999 V2000
   -2.2841   -0.5532    0.0000 C   0  0  0  0  0  0  0  0  0  0  0  0
   -1.5612   -0.1557    0.0000 C   0  0  0  0  0  0  0  0  0  0  0  0
   -0.8555   -0.5829    0.0000 O   0  0  0  0  0  0  0  0  0  0  0  0
   -0.1326   -0.1854    0.0000 C   0  0  0  0  0  0  0  0  0  0  0  0
   -0.1154    0.6394    0.0000 O   0  0  0  0  0  0  0  0  0  0  0  0
    0.5732   -0.6127    0.0000 C   0  0  0  0  0  0  0  0  0  0  0  0
    1.3337   -0.2928    0.0000 C   0  0  0  0  0  0  0  0  0  0  0  0
    1.4857    0.5180    0.0000 C   0  0  0  0  0  0  0  0  0  0  0  0
    2.2145    0.9047    0.0000 N   0  0  0  0  0  0  0  0  0  0  0  0
    2.1823    1.7291    0.0000 C   0  0  0  0  0  0  0  0  0  0  0  0
    2.9712    0.5760    0.0000 C   0  0  0  0  0  0  0  0  0  0  0  0
    3.5956    1.1152    0.0000 O   0  0  0  0  0  0  0  0  0  0  0  0
    3.1860   -0.2205    0.0000 C   0  0  0  0  0  0  0  0  0  0  0  0
    4.0060   -0.3115    0.0000 C   0  0  0  0  0  0  0  0  0  0  0  0
    4.4948    0.3531    0.0000 I   0  0  0  0  0  0  0  0  0  0  0  0
    4.3371   -1.0671    0.0000 C   0  0  0  0  0  0  0  0  0  0  0  0
    3.8483   -1.7317    0.0000 C   0  0  0  0  0  0  0  0  0  0  0  0
    3.0283   -1.6407    0.0000 C   0  0  0  0  0  0  0  0  0  0  0  0
    2.6972   -0.8851    0.0000 C   0  0  0  0  0  0  0  0  0  0  0  0
    1.8728   -0.9173    0.0000 N   0  0  0  0  0  0  0  0  0  0  0  0
    1.4456   -1.6230    0.0000 C   0  0  0  0  0  0  0  0  0  0  0  0
    0.6423   -1.4348    0.0000 N   0  0  0  0  0  0  0  0  0  0  0  0
  1  2  1  0  0  0  0
  2  3  1  0  0  0  0
  3  4  1  0  0  0  0
  4  5  2  0  0  0  0
  4  6  1  0  0  0  0
  6  7  2  0  0  0  0
  7  8  1  0  0  0  0
  8  9  1  0  0  0  0
  9 10  1  0  0  0  0
  9 11  1  0  0  0  0
 11 12  2  0  0  0  0
 11 13  1  0  0  0  0
 13 14  2  0  0  0  0
 14 15  1  0  0  0  0
 14 16  1  0  0  0  0
 16 17  2  0  0  0  0
 17 18  1  0  0  0  0
 18 19  2  0  0  0  0
 13 19  1  0  0  0  0
 19 20  1  0  0  0  0
  7 20  1  0  0  0  0
 20 21  1  0  0  0  0
 21 22  2  0  0  0  0
  6 22  1  0  0  0  0
M  END
> <DATABASE_ID>
DB14971

> <DATABASE_NAME>
drugbank

> <SMILES>
CCOC(=O)C1=C2CN(C)C(=O)C3=C(I)C=CC=C3N2C=N1

> <INCHI_IDENTIFIER>
InChI=1S/C15H14IN3O3/c1-3-22-15(21)13-11-7-18(2)14(20)12-9(16)5-4-6-10(12)19(11)8-17-13/h4-6,8H,3,7H2,1-2H3

> <INCHI_KEY>
FRIZVHMAECRUBR-UHFFFAOYSA-N

> <FORMULA>
C15H14IN3O3

> <MOLECULAR_WEIGHT>
411.199

> <EXACT_MASS>
411.00799

> <JCHEM_ACCEPTOR_COUNT>
3

> <JCHEM_ATOM_COUNT>
36

> <JCHEM_AVERAGE_POLARIZABILITY>
35.096041010464276

> <JCHEM_BIOAVAILABILITY>
1

> <JCHEM_DONOR_COUNT>
0

> <JCHEM_FORMAL_CHARGE>
0

> <JCHEM_GHOSE_FILTER>
1

> <JCHEM_IUPAC>
ethyl 11-iodo-8-methyl-9-oxo-2,4,8-triazatricyclo[8.4.0.0^{2,6}]tetradeca-1(14),3,5,10,12-pentaene-5-carboxylate

> <ALOGPS_LOGP>
1.68

> <JCHEM_LOGP>
2.1807108806666675

> <ALOGPS_LOGS>
-3.18

> <JCHEM_MDDR_LIKE_RULE>
0

> <JCHEM_NUMBER_OF_RINGS>
3

> <JCHEM_PHYSIOLOGICAL_CHARGE>
0

> <JCHEM_PKA_STRONGEST_BASIC>
2.86276069923705

> <JCHEM_POLAR_SURFACE_AREA>
64.43

> <JCHEM_REFRACTIVITY>
101.0747

> <JCHEM_ROTATABLE_BOND_COUNT>
3

> <JCHEM_RULE_OF_FIVE>
1

> <ALOGPS_SOLUBILITY>
2.74e-01 g/l

> <JCHEM_TRADITIONAL_IUPAC>
(2R)-14-fluoro-2-methyl-6,9,10,19-tetraazapentacyclo[14.2.1.0^{2,6}.0^{8,18}.0^{12,17}]nonadeca-1(18),8,12(17),13,15-pentaen-11-one

> <JCHEM_VEBER_RULE>
0

> <DRUGBANK_ID>
DB14971

> <DRUG_GROUPS>
investigational

> <GENERIC_NAME>
Iomazenil

$$$$
