
  Mrv1533004161503582D          

  7  7  0  0  0  0            999 V2000
    0.5678    1.9393    0.0000 O   0  0  0  0  0  0  0  0  0  0  0  0
    0.5678    1.1143    0.0000 C   0  0  0  0  0  0  0  0  0  0  0  0
    1.2352    0.6294    0.0000 C   0  0  0  0  0  0  0  0  0  0  0  0
    0.9803   -0.1553    0.0000 C   0  0  0  0  0  0  0  0  0  0  0  0
    0.1553   -0.1553    0.0000 C   0  0  0  0  0  0  0  0  0  0  0  0
   -0.3297   -0.8227    0.0000 O   0  0  0  0  0  0  0  0  0  0  0  0
   -0.0997    0.6294    0.0000 N   0  0  0  0  0  0  0  0  0  0  0  0
  1  2  2  0  0  0  0
  2  3  1  0  0  0  0
  3  4  1  0  0  0  0
  4  5  1  0  0  0  0
  5  6  2  0  0  0  0
  5  7  1  0  0  0  0
  2  7  1  0  0  0  0
M  END
> <DATABASE_ID>
DB13376

> <DATABASE_NAME>
drugbank

> <SMILES>
O=C1CCC(=O)N1

> <INCHI_IDENTIFIER>
InChI=1S/C4H5NO2/c6-3-1-2-4(7)5-3/h1-2H2,(H,5,6,7)

> <INCHI_KEY>
KZNICNPSHKQLFF-UHFFFAOYSA-N

> <FORMULA>
C4H5NO2

> <MOLECULAR_WEIGHT>
99.089

> <EXACT_MASS>
99.032028405

> <JCHEM_ACCEPTOR_COUNT>
2

> <JCHEM_ATOM_COUNT>
12

> <JCHEM_AVERAGE_POLARIZABILITY>
8.81956663751815

> <JCHEM_BIOAVAILABILITY>
1

> <JCHEM_DONOR_COUNT>
1

> <JCHEM_FORMAL_CHARGE>
0

> <JCHEM_GHOSE_FILTER>
0

> <JCHEM_IUPAC>
pyrrolidine-2,5-dione

> <ALOGPS_LOGP>
-0.90

> <JCHEM_LOGP>
-0.993471561

> <ALOGPS_LOGS>
0.36

> <JCHEM_MDDR_LIKE_RULE>
0

> <JCHEM_NUMBER_OF_RINGS>
1

> <JCHEM_PHYSIOLOGICAL_CHARGE>
0

> <JCHEM_PKA_STRONGEST_ACIDIC>
9.896563297180688

> <JCHEM_PKA_STRONGEST_BASIC>
-7.226714232018063

> <JCHEM_POLAR_SURFACE_AREA>
46.17

> <JCHEM_REFRACTIVITY>
22.2814

> <JCHEM_ROTATABLE_BOND_COUNT>
0

> <JCHEM_RULE_OF_FIVE>
1

> <ALOGPS_SOLUBILITY>
2.28e+02 g/l

> <JCHEM_TRADITIONAL_IUPAC>
succinimide

> <JCHEM_VEBER_RULE>
0

> <DRUGBANK_ID>
DB13376

> <DRUG_GROUPS>
experimental

> <GENERIC_NAME>
Succinimide

$$$$
