
  Mrv1909 12181922072D          

 48 53  0  0  0  0            999 V2000
   -4.3012    2.2166    0.0000 C   0  0  0  0  0  0  0  0  0  0  0  0
   -3.4806    2.2166    0.0000 C   0  0  0  0  0  0  0  0  0  0  0  0
   -4.7163    1.5092    0.0000 C   0  0  0  0  0  0  0  0  0  0  0  0
   -3.0656    1.5092    0.0000 C   0  0  0  0  0  0  0  0  0  0  0  0
   -4.3012    0.7923    0.0000 C   0  0  0  0  0  0  0  0  0  0  0  0
   -3.4806    0.7923    0.0000 C   0  0  0  0  0  0  0  0  0  0  0  0
   -4.5560    0.0000    0.0000 C   0  0  0  0  0  0  0  0  0  0  0  0
   -3.8862   -0.4810    0.0000 C   0  0  2  0  0  0  0  0  0  0  0  0
   -3.2260    0.0000    0.0000 C   0  0  1  0  0  0  0  0  0  0  0  0
   -3.8862   -1.1790    0.0000 O   0  0  0  0  0  0  0  0  0  0  0  0
   -2.4996   -0.3961    0.0000 N   0  0  0  0  0  0  0  0  0  0  0  0
   -1.7922    0.0282    0.0000 C   0  0  0  0  0  0  0  0  0  0  0  0
   -1.0658   -0.3773    0.0000 C   0  0  1  0  0  0  0  0  0  0  0  0
   -0.3584    0.0471    0.0000 C   0  0  2  0  0  0  0  0  0  0  0  0
    0.3584   -0.3489    0.0000 C   0  0  1  0  0  0  0  0  0  0  0  0
    1.0658    0.0754    0.0000 C   0  0  2  0  0  0  0  0  0  0  0  0
    1.7922   -0.3301    0.0000 C   0  0  0  0  0  0  0  0  0  0  0  0
    2.4996    0.0943    0.0000 N   0  0  0  0  0  0  0  0  0  0  0  0
    3.2260   -0.3112    0.0000 C   0  0  2  0  0  0  0  0  0  0  0  0
   -1.7922    0.7451    0.0000 O   0  0  0  0  0  0  0  0  0  0  0  0
   -1.0564   -1.1319    0.0000 C   0  0  0  0  0  0  0  0  0  0  0  0
   -1.5752   -1.5470    0.0000 C   0  0  0  0  0  0  0  0  0  0  0  0
   -1.5752   -2.1318    0.0000 C   0  0  0  0  0  0  0  0  0  0  0  0
   -0.8583   -2.5468    0.0000 C   0  0  0  0  0  0  0  0  0  0  0  0
   -0.8583   -3.3674    0.0000 C   0  0  0  0  0  0  0  0  0  0  0  0
   -1.5752   -3.7825    0.0000 C   0  0  0  0  0  0  0  0  0  0  0  0
   -2.2920   -2.5468    0.0000 C   0  0  0  0  0  0  0  0  0  0  0  0
   -2.2920   -3.3674    0.0000 C   0  0  0  0  0  0  0  0  0  0  0  0
   -0.3489    0.7923    0.0000 O   0  0  0  0  0  0  0  0  0  0  0  0
    0.3678   -1.1508    0.0000 O   0  0  0  0  0  0  0  0  0  0  0  0
    1.0753    0.8394    0.0000 C   0  0  0  0  0  0  0  0  0  0  0  0
    1.8393    1.3299    0.0000 C   0  0  0  0  0  0  0  0  0  0  0  0
    1.8393    2.1222    0.0000 C   0  0  0  0  0  0  0  0  0  0  0  0
    2.5562    3.3674    0.0000 C   0  0  0  0  0  0  0  0  0  0  0  0
    2.5562    2.5373    0.0000 C   0  0  0  0  0  0  0  0  0  0  0  0
    1.8393    3.7825    0.0000 C   0  0  0  0  0  0  0  0  0  0  0  0
    1.1224    3.3674    0.0000 C   0  0  0  0  0  0  0  0  0  0  0  0
    1.1224    2.5373    0.0000 C   0  0  0  0  0  0  0  0  0  0  0  0
    1.7922   -1.1224    0.0000 O   0  0  0  0  0  0  0  0  0  0  0  0
    3.8957    0.1791    0.0000 C   0  0  1  0  0  0  0  0  0  0  0  0
    3.4806   -1.0942    0.0000 C   0  0  0  0  0  0  0  0  0  0  0  0
    4.5560   -0.3112    0.0000 C   0  0  0  0  0  0  0  0  0  0  0  0
    4.3012   -1.0942    0.0000 C   0  0  0  0  0  0  0  0  0  0  0  0
    3.8862    0.9337    0.0000 O   0  0  0  0  0  0  0  0  0  0  0  0
    3.0656   -1.8111    0.0000 C   0  0  0  0  0  0  0  0  0  0  0  0
    3.4806   -2.5280    0.0000 C   0  0  0  0  0  0  0  0  0  0  0  0
    4.3012   -2.5280    0.0000 C   0  0  0  0  0  0  0  0  0  0  0  0
    4.7163   -1.8111    0.0000 C   0  0  0  0  0  0  0  0  0  0  0  0
  1  2  1  0  0  0  0
  1  3  2  0  0  0  0
  2  4  2  0  0  0  0
  3  5  1  0  0  0  0
  4  6  1  0  0  0  0
  5  6  2  0  0  0  0
  5  7  1  0  0  0  0
  6  9  1  0  0  0  0
  7  8  1  0  0  0  0
  8  9  1  0  0  0  0
  8 10  1  6  0  0  0
  9 11  1  6  0  0  0
 11 12  1  0  0  0  0
 12 13  1  0  0  0  0
 12 20  2  0  0  0  0
 13 14  1  0  0  0  0
 13 21  1  1  0  0  0
 14 15  1  0  0  0  0
 14 29  1  1  0  0  0
 15 16  1  0  0  0  0
 15 30  1  1  0  0  0
 16 17  1  0  0  0  0
 16 31  1  1  0  0  0
 17 18  1  0  0  0  0
 17 39  2  0  0  0  0
 19 18  1  6  0  0  0
 19 40  1  0  0  0  0
 19 41  1  0  0  0  0
 21 22  1  0  0  0  0
 22 23  1  0  0  0  0
 23 24  2  0  0  0  0
 23 27  1  0  0  0  0
 24 25  1  0  0  0  0
 25 26  2  0  0  0  0
 26 28  1  0  0  0  0
 27 28  2  0  0  0  0
 31 32  1  0  0  0  0
 32 33  1  0  0  0  0
 33 35  2  0  0  0  0
 33 38  1  0  0  0  0
 34 35  1  0  0  0  0
 34 36  2  0  0  0  0
 36 37  1  0  0  0  0
 37 38  2  0  0  0  0
 40 42  1  0  0  0  0
 40 44  1  6  0  0  0
 41 45  1  0  0  0  0
 41 43  2  0  0  0  0
 42 43  1  0  0  0  0
 43 48  1  0  0  0  0
 45 46  2  0  0  0  0
 46 47  1  0  0  0  0
 47 48  2  0  0  0  0
M  END
> <DATABASE_ID>
DB02704

> <DATABASE_NAME>
drugbank

> <SMILES>
O[C@@H]([C@H](O)[C@@H](CCC1=CC=CC=C1)C(=O)N[C@@H]1[C@H](O)CC2=C1C=CC=C2)[C@@H](CCC1=CC=CC=C1)C(=O)N[C@@H]1[C@H](O)CC2=C1C=CC=C2

> <INCHI_IDENTIFIER>
InChI=1S/C40H44N2O6/c43-33-23-27-15-7-9-17-29(27)35(33)41-39(47)31(21-19-25-11-3-1-4-12-25)37(45)38(46)32(22-20-26-13-5-2-6-14-26)40(48)42-36-30-18-10-8-16-28(30)24-34(36)44/h1-18,31-38,43-46H,19-24H2,(H,41,47)(H,42,48)/t31-,32-,33-,34-,35+,36+,37-,38-/m1/s1

> <INCHI_KEY>
GQKBYZPVKVXMJL-LAFNQVRVSA-N

> <FORMULA>
C40H44N2O6

> <MOLECULAR_WEIGHT>
648.7872

> <EXACT_MASS>
648.31993715

> <JCHEM_ACCEPTOR_COUNT>
6

> <JCHEM_ATOM_COUNT>
92

> <JCHEM_AVERAGE_NEUTRAL_MICROSPECIES_CHARGE>
-5.416678561759275e-06

> <JCHEM_AVERAGE_POLARIZABILITY>
71.97704231340853

> <JCHEM_BIOAVAILABILITY>
0

> <JCHEM_DONOR_COUNT>
6

> <JCHEM_FORMAL_CHARGE>
0

> <JCHEM_GHOSE_FILTER>
0

> <JCHEM_IUPAC>
(2R,3R,4R,5R)-3,4-dihydroxy-N,N'-bis[(1S,2R)-2-hydroxy-2,3-dihydro-1H-inden-1-yl]-2,5-bis(2-phenylethyl)hexanediamide

> <ALOGPS_LOGP>
3.31

> <JCHEM_LOGP>
4.693756718

> <ALOGPS_LOGS>
-5.02

> <JCHEM_MDDR_LIKE_RULE>
1

> <JCHEM_NEUTRAL_CHARGE>
0

> <JCHEM_NUMBER_OF_RINGS>
6

> <JCHEM_PHYSIOLOGICAL_CHARGE>
0

> <JCHEM_PKA>
13.005747793706634

> <JCHEM_PKA_STRONGEST_ACIDIC>
12.499658934894825

> <JCHEM_PKA_STRONGEST_BASIC>
-0.7497955405640855

> <JCHEM_POLAR_SURFACE_AREA>
139.12

> <JCHEM_REFRACTIVITY>
183.75259999999994

> <JCHEM_ROTATABLE_BOND_COUNT>
13

> <JCHEM_RULE_OF_FIVE>
0

> <ALOGPS_SOLUBILITY>
6.21e-03 g/l

> <JCHEM_TRADITIONAL_IUPAC>
doravirine

> <JCHEM_VEBER_RULE>
0

> <DRUGBANK_ID>
DB02704

> <SECONDARY_ACCESSION_NUMBERS>
EXPT00717

> <DRUG_GROUPS>
experimental

> <GENERIC_NAME>
(2R,3R,4R,5R)-3,4-Dihydroxy-N,N'-bis[(1S,2R)-2-hydroxy-2,3-dihydro-1H-inden-1-yl]-2,5-bis(2-phenylethyl)hexanediamide

> <SYNONYMS>
Diol-Based HIV-1 protease inhibitor 4

$$$$
