
  Mrv1652310201623272D          

 60 64  0  0  1  0            999 V2000
   -1.0005   -0.1579    0.0000 C   0  0  0  0  0  0  0  0  0  0  0  0
   -0.2905    0.2621    0.0000 C   0  0  0  0  0  0  0  0  0  0  0  0
    0.4580   -0.2059    0.0000 C   0  0  0  0  0  0  0  0  0  0  0  0
    1.0196   -0.8801    0.0000 C   0  0  2  0  0  0  0  0  0  0  0  0
    1.8664   -1.0360    0.0000 C   0  0  0  0  0  0  0  0  0  0  0  0
    2.0533   -1.8396    0.0000 O   0  0  0  0  0  0  0  0  0  0  0  0
    2.5371   -0.5373    0.0000 C   0  0  2  0  0  0  0  0  0  0  0  0
    3.2006   -1.0276    0.0000 C   0  0  2  0  0  0  0  0  0  0  0  0
    3.9570   -0.6982    0.0000 C   0  0  0  0  0  0  0  0  0  0  0  0
    4.0498    0.1216    0.0000 C   0  0  2  0  0  0  0  0  0  0  0  0
    3.3864    0.6119    0.0000 C   0  0  2  0  0  0  0  0  0  0  0  0
    2.6300    0.2825    0.0000 C   0  0  1  0  0  0  0  0  0  0  0  0
    2.0708    0.9469    0.0000 C   0  0  1  0  0  0  0  0  0  0  0  0
    1.2057    1.0937    0.0000 C   0  0  1  0  0  0  0  0  0  0  0  0
    0.8765    0.4182    0.0000 C   0  0  0  0  0  0  0  0  0  0  0  0
    1.6935    0.3034    0.0000 C   0  0  0  0  0  0  0  0  0  0  0  0
    1.3864   -0.2305    0.0000 C   0  0  0  0  0  0  0  0  0  0  0  0
    0.4250    1.5055    0.0000 C   0  0  0  0  0  0  0  0  0  0  0  0
   -0.3386    1.1173    0.0000 C   0  0  2  0  0  0  0  0  0  0  0  0
   -1.0537    1.5288    0.0000 O   0  0  0  0  0  0  0  0  0  0  0  0
   -1.7675    1.1152    0.0000 C   0  0  0  0  0  0  0  0  0  0  0  0
   -1.7663    0.2902    0.0000 O   0  0  0  0  0  0  0  0  0  0  0  0
   -2.4826    1.5267    0.0000 C   0  0  1  0  0  0  0  0  0  0  0  0
   -3.1965    1.1131    0.0000 C   0  0  2  0  0  0  0  0  0  0  0  0
   -3.1953    0.2881    0.0000 C   0  0  0  0  0  0  0  0  0  0  0  0
   -4.0203    0.2869    0.0000 C   0  0  0  0  0  0  0  0  0  0  0  0
   -2.3703    0.2893    0.0000 C   0  0  0  0  0  0  0  0  0  0  0  0
   -3.1940   -0.5369    0.0000 C   0  0  0  0  0  0  0  0  0  0  0  0
   -3.9115    1.5246    0.0000 N   0  0  0  0  0  0  0  0  0  0  0  0
   -4.6254    1.1110    0.0000 C   0  0  0  0  0  0  0  0  0  0  0  0
   -4.6242    0.2860    0.0000 O   0  0  0  0  0  0  0  0  0  0  0  0
   -5.3405    1.5225    0.0000 O   0  0  0  0  0  0  0  0  0  0  0  0
   -6.0544    1.1089    0.0000 C   0  0  0  0  0  0  0  0  0  0  0  0
   -6.7682    0.6954    0.0000 C   0  0  0  0  0  0  0  0  0  0  0  0
   -5.6408    0.3951    0.0000 C   0  0  0  0  0  0  0  0  0  0  0  0
   -6.4679    1.8228    0.0000 C   0  0  0  0  0  0  0  0  0  0  0  0
   -2.4838    2.3517    0.0000 O   0  0  0  0  0  0  0  0  0  0  0  0
    1.4705    1.8750    0.0000 O   0  0  0  0  0  0  0  0  0  0  0  0
    2.4805    1.6630    0.0000 O   0  0  0  0  0  0  0  0  0  0  0  0
    2.0652    2.3758    0.0000 C   0  0  0  0  0  0  0  0  0  0  0  0
    1.2402    2.3726    0.0000 O   0  0  0  0  0  0  0  0  0  0  0  0
    2.4749    3.0919    0.0000 C   0  0  0  0  0  0  0  0  0  0  0  0
    2.0595    3.8048    0.0000 C   0  0  0  0  0  0  0  0  0  0  0  0
    2.4692    4.5208    0.0000 C   0  0  0  0  0  0  0  0  0  0  0  0
    3.2942    4.5241    0.0000 C   0  0  0  0  0  0  0  0  0  0  0  0
    3.7095    3.8113    0.0000 C   0  0  0  0  0  0  0  0  0  0  0  0
    3.2999    3.0952    0.0000 C   0  0  0  0  0  0  0  0  0  0  0  0
    3.8767    1.2754    0.0000 C   0  0  0  0  0  0  0  0  0  0  0  0
    4.5402    0.7851    0.0000 O   0  0  0  0  0  0  0  0  0  0  0  0
    2.8724    1.2572    0.0000 O   0  0  0  0  0  0  0  0  0  0  0  0
    3.1743    2.0250    0.0000 C   0  0  0  0  0  0  0  0  0  0  0  0
    2.6603    2.6703    0.0000 O   0  0  0  0  0  0  0  0  0  0  0  0
    3.9901    2.1475    0.0000 O   0  0  0  0  0  0  0  0  0  0  0  0
    4.2920    2.9152    0.0000 C   0  0  0  0  0  0  0  0  0  0  0  0
    3.1077   -1.8474    0.0000 O   0  0  0  0  0  0  0  0  0  0  0  0
    2.5383   -1.3623    0.0000 C   0  0  0  0  0  0  0  0  0  0  0  0
    0.6032   -1.5922    0.0000 O   0  0  0  0  0  0  0  0  0  0  0  0
    1.0117   -2.3090    0.0000 C   0  0  0  0  0  0  0  0  0  0  0  0
    1.8366   -2.3136    0.0000 O   0  0  0  0  0  0  0  0  0  0  0  0
    0.5952   -3.0211    0.0000 C   0  0  0  0  0  0  0  0  0  0  0  0
  1  2  1  0  0  0  0
  2  3  2  0  0  0  0
  3  4  1  0  0  0  0
  4  5  1  0  0  0  0
  5  6  2  0  0  0  0
  5  7  1  0  0  0  0
  7  8  1  0  0  0  0
  8  9  1  0  0  0  0
  9 10  1  0  0  0  0
 10 11  1  0  0  0  0
 12 11  1  6  0  0  0
  7 12  1  0  0  0  0
 12 13  1  0  0  0  0
 13 14  1  0  0  0  0
 14 15  1  0  0  0  0
  3 15  1  0  0  0  0
 15 16  1  0  0  0  0
 15 17  1  0  0  0  0
 14 18  1  0  0  0  0
 18 19  1  0  0  0  0
  2 19  1  0  0  0  0
 19 20  1  1  0  0  0
 20 21  1  0  0  0  0
 21 22  2  0  0  0  0
 21 23  1  0  0  0  0
 23 24  1  0  0  0  0
 24 25  1  0  0  0  0
 25 26  1  0  0  0  0
 25 27  1  0  0  0  0
 25 28  1  0  0  0  0
 24 29  1  6  0  0  0
 29 30  1  0  0  0  0
 30 31  2  0  0  0  0
 30 32  1  0  0  0  0
 32 33  1  0  0  0  0
 33 34  1  0  0  0  0
 33 35  1  0  0  0  0
 33 36  1  0  0  0  0
 23 37  1  1  0  0  0
 14 38  1  6  0  0  0
 13 39  1  1  0  0  0
 39 40  1  0  0  0  0
 40 41  2  0  0  0  0
 40 42  1  0  0  0  0
 42 43  2  0  0  0  0
 43 44  1  0  0  0  0
 44 45  2  0  0  0  0
 45 46  1  0  0  0  0
 46 47  2  0  0  0  0
 42 47  1  0  0  0  0
 11 48  1  0  0  0  0
 48 49  1  0  0  0  0
 10 49  1  6  0  0  0
 11 50  1  1  0  0  0
 50 51  1  0  0  0  0
 51 52  2  0  0  0  0
 51 53  1  0  0  0  0
 53 54  1  0  0  0  0
  8 55  1  6  0  0  0
  7 56  1  6  0  0  0
  4 57  1  6  0  0  0
 57 58  1  0  0  0  0
 58 59  2  0  0  0  0
 58 60  1  0  0  0  0
M  END
> <DATABASE_ID>
DB12144

> <DATABASE_NAME>
drugbank

> <SMILES>
COC(=O)O[C@@]12CO[C@@H]1C[C@H](O)[C@]1(C)[C@@H]2[C@H](OC(=O)C2=CC=CC=C2)[C@]2(O)C[C@H](OC(=O)[C@H](O)[C@@H](NC(=O)OC(C)(C)C)C(C)(C)C)C(C)=C([C@@H](OC(C)=O)C1=O)C2(C)C

> <INCHI_IDENTIFIER>
InChI=1S/C43H59NO16/c1-21-24(57-35(50)28(47)31(38(3,4)5)44-36(51)59-39(6,7)8)19-43(53)33(58-34(49)23-16-14-13-15-17-23)30-41(11,32(48)29(56-22(2)45)27(21)40(43,9)10)25(46)18-26-42(30,20-55-26)60-37(52)54-12/h13-17,24-26,28-31,33,46-47,53H,18-20H2,1-12H3,(H,44,51)/t24-,25-,26+,28+,29+,30-,31+,33-,41+,42-,43+/m0/s1

> <INCHI_KEY>
AHXICHPPXIGCBN-GPWPDEGDSA-N

> <FORMULA>
C43H59NO16

> <MOLECULAR_WEIGHT>
845.936

> <EXACT_MASS>
845.383384824

> <JCHEM_ACCEPTOR_COUNT>
11

> <JCHEM_ATOM_COUNT>
119

> <JCHEM_AVERAGE_POLARIZABILITY>
86.51246526725555

> <JCHEM_BIOAVAILABILITY>
0

> <JCHEM_DONOR_COUNT>
4

> <JCHEM_FORMAL_CHARGE>
0

> <JCHEM_GHOSE_FILTER>
0

> <JCHEM_IUPAC>
(1S,2S,3R,4S,7R,9S,10S,12R,15S)-12-(acetyloxy)-15-{[(2R,3S)-3-{[(tert-butoxy)carbonyl]amino}-2-hydroxy-4,4-dimethylpentanoyl]oxy}-1,9-dihydroxy-4-[(methoxycarbonyl)oxy]-10,14,17,17-tetramethyl-11-oxo-6-oxatetracyclo[11.3.1.0^{3,10}.0^{4,7}]heptadec-13-en-2-yl benzoate

> <ALOGPS_LOGP>
3.00

> <JCHEM_LOGP>
3.8750384099999975

> <ALOGPS_LOGS>
-4.78

> <JCHEM_MDDR_LIKE_RULE>
1

> <JCHEM_NUMBER_OF_RINGS>
5

> <JCHEM_PHYSIOLOGICAL_CHARGE>
0

> <JCHEM_PKA>
12.068747022059723

> <JCHEM_PKA_STRONGEST_ACIDIC>
10.47530238669725

> <JCHEM_PKA_STRONGEST_BASIC>
-3.0481656746521235

> <JCHEM_POLAR_SURFACE_AREA>
239.74999999999994

> <JCHEM_REFRACTIVITY>
208.20649999999998

> <JCHEM_ROTATABLE_BOND_COUNT>
16

> <JCHEM_RULE_OF_FIVE>
0

> <ALOGPS_SOLUBILITY>
1.39e-02 g/l

> <JCHEM_TRADITIONAL_IUPAC>
(1S,2S,3R,4S,7R,9S,10S,12R,15S)-12-(acetyloxy)-15-{[(2R,3S)-3-[(tert-butoxycarbonyl)amino]-2-hydroxy-4,4-dimethylpentanoyl]oxy}-1,9-dihydroxy-4-[(methoxycarbonyl)oxy]-10,14,17,17-tetramethyl-11-oxo-6-oxatetracyclo[11.3.1.0^{3,10}.0^{4,7}]heptadec-13-en-2-yl benzoate

> <JCHEM_VEBER_RULE>
0

> <DRUGBANK_ID>
DB12144

> <DRUG_GROUPS>
investigational

> <GENERIC_NAME>
BMS-275183

$$$$
