
  Mrv1652310201623072D          

 37 41  0  0  1  0            999 V2000
    1.3895   -1.8497    0.0000 C   0  0  0  0  0  0  0  0  0  0  0  0
    1.7494   -2.5921    0.0000 C   0  0  2  0  0  0  0  0  0  0  0  0
    2.2812   -1.9614    0.0000 C   0  0  0  0  0  0  0  0  0  0  0  0
    3.0934   -2.1066    0.0000 C   0  0  1  0  0  0  0  0  0  0  0  0
    3.3737   -2.8825    0.0000 C   0  0  0  0  0  0  0  0  0  0  0  0
    4.1858   -3.0277    0.0000 C   0  0  0  0  0  0  0  0  0  0  0  0
    4.7176   -2.3970    0.0000 C   0  0  0  0  0  0  0  0  0  0  0  0
    5.5297   -2.5422    0.0000 C   0  0  0  0  0  0  0  0  0  0  0  0
    5.8100   -3.3182    0.0000 C   0  0  0  0  0  0  0  0  0  0  0  0
    6.6221   -3.4634    0.0000 O   0  0  0  0  0  0  0  0  0  0  0  0
    5.2782   -3.9489    0.0000 C   0  0  0  0  0  0  0  0  0  0  0  0
    4.4661   -3.8037    0.0000 C   0  0  0  0  0  0  0  0  0  0  0  0
    3.9343   -4.4344    0.0000 C   0  0  0  0  0  0  0  0  0  0  0  0
    3.1221   -4.2891    0.0000 C   0  0  0  0  0  0  0  0  0  0  0  0
    2.8418   -3.5132    0.0000 C   0  0  1  0  0  0  0  0  0  0  0  0
    2.0297   -3.3680    0.0000 C   0  0  2  0  0  0  0  0  0  0  0  0
    1.3784   -3.8744    0.0000 C   0  0  0  0  0  0  0  0  0  0  0  0
    0.6955   -3.4114    0.0000 C   0  0  0  0  0  0  0  0  0  0  0  0
    0.9249   -2.6189    0.0000 C   0  0  1  0  0  0  0  0  0  0  0  0
    0.1640   -2.3000    0.0000 C   0  0  0  0  0  0  0  0  0  0  0  0
   -0.5969   -1.9811    0.0000 C   0  0  0  0  0  0  0  0  0  0  0  0
   -1.3578   -1.6623    0.0000 F   0  0  0  0  0  0  0  0  0  0  0  0
   -0.2780   -1.2203    0.0000 F   0  0  0  0  0  0  0  0  0  0  0  0
   -0.9158   -2.7420    0.0000 F   0  0  0  0  0  0  0  0  0  0  0  0
    0.4828   -1.5391    0.0000 F   0  0  0  0  0  0  0  0  0  0  0  0
   -0.1549   -3.0609    0.0000 F   0  0  0  0  0  0  0  0  0  0  0  0
    0.8035   -1.8029    0.0000 O   0  0  0  0  0  0  0  0  0  0  0  0
    3.6252   -1.4759    0.0000 C   0  0  0  0  0  0  0  0  0  0  0  0
    3.3449   -0.7000    0.0000 C   0  0  0  0  0  0  0  0  0  0  0  0
    3.8767   -0.0692    0.0000 C   0  0  0  0  0  0  0  0  0  0  0  0
    4.6888   -0.2145    0.0000 C   0  0  0  0  0  0  0  0  0  0  0  0
    4.9691   -0.9904    0.0000 C   0  0  0  0  0  0  0  0  0  0  0  0
    4.4373   -1.6211    0.0000 C   0  0  0  0  0  0  0  0  0  0  0  0
    5.2206    0.4162    0.0000 S   0  0  0  0  0  0  0  0  0  0  0  0
    5.7525    1.0470    0.0000 O   0  0  0  0  0  0  0  0  0  0  0  0
    5.8513   -0.1156    0.0000 O   0  0  0  0  0  0  0  0  0  0  0  0
    4.5899    0.9481    0.0000 C   0  0  0  0  0  0  0  0  0  0  0  0
  2  1  1  6  0  0  0
  2  3  1  0  0  0  0
  3  4  1  0  0  0  0
  4  5  1  0  0  0  0
  5  6  2  0  0  0  0
  6  7  1  0  0  0  0
  7  8  1  0  0  0  0
  8  9  1  0  0  0  0
  9 10  2  0  0  0  0
  9 11  1  0  0  0  0
 11 12  2  0  0  0  0
  6 12  1  0  0  0  0
 12 13  1  0  0  0  0
 13 14  1  0  0  0  0
 15 14  1  1  0  0  0
  5 15  1  0  0  0  0
 15 16  1  0  0  0  0
  2 16  1  0  0  0  0
 16 17  1  6  0  0  0
 17 18  1  0  0  0  0
 18 19  1  0  0  0  0
  2 19  1  0  0  0  0
 19 20  1  1  0  0  0
 20 21  1  0  0  0  0
 21 22  1  0  0  0  0
 21 23  1  0  0  0  0
 21 24  1  0  0  0  0
 20 25  1  0  0  0  0
 20 26  1  0  0  0  0
 19 27  1  6  0  0  0
  4 28  1  6  0  0  0
 28 29  2  0  0  0  0
 29 30  1  0  0  0  0
 30 31  2  0  0  0  0
 31 32  1  0  0  0  0
 32 33  2  0  0  0  0
 28 33  1  0  0  0  0
 31 34  1  0  0  0  0
 34 35  2  0  0  0  0
 34 36  2  0  0  0  0
 34 37  1  0  0  0  0
M  END
> <DATABASE_ID>
DB11971

> <DATABASE_NAME>
drugbank

> <SMILES>
C[C@]12C[C@H](C3=CC=C(C=C3)S(C)(=O)=O)C3=C4CCC(=O)C=C4CC[C@H]3[C@@H]1CC[C@@]2(O)C(F)(F)C(F)(F)F

> <INCHI_IDENTIFIER>
InChI=1S/C27H29F5O4S/c1-24-14-21(15-3-7-18(8-4-15)37(2,35)36)23-19-10-6-17(33)13-16(19)5-9-20(23)22(24)11-12-25(24,34)26(28,29)27(30,31)32/h3-4,7-8,13,20-22,34H,5-6,9-12,14H2,1-2H3/t20-,21+,22-,24-,25-/m0/s1

> <INCHI_KEY>
JUFWQQVHQFDUOD-ANRPBIDPSA-N

> <FORMULA>
C27H29F5O4S

> <MOLECULAR_WEIGHT>
544.58

> <EXACT_MASS>
544.170671403

> <JCHEM_ACCEPTOR_COUNT>
4

> <JCHEM_ATOM_COUNT>
66

> <JCHEM_AVERAGE_POLARIZABILITY>
51.14836500597521

> <JCHEM_BIOAVAILABILITY>
1

> <JCHEM_DONOR_COUNT>
1

> <JCHEM_FORMAL_CHARGE>
0

> <JCHEM_GHOSE_FILTER>
0

> <JCHEM_IUPAC>
(10S,11S,14S,15S,17R)-14-hydroxy-17-(4-methanesulfonylphenyl)-15-methyl-14-(1,1,2,2,2-pentafluoroethyl)tetracyclo[8.7.0.0^{2,7}.0^{11,15}]heptadeca-1,6-dien-5-one

> <ALOGPS_LOGP>
4.13

> <JCHEM_LOGP>
4.456778148000001

> <ALOGPS_LOGS>
-4.49

> <JCHEM_MDDR_LIKE_RULE>
0

> <JCHEM_NUMBER_OF_RINGS>
5

> <JCHEM_PHYSIOLOGICAL_CHARGE>
0

> <JCHEM_PKA>
18.942899506025398

> <JCHEM_PKA_STRONGEST_ACIDIC>
11.806229606496792

> <JCHEM_PKA_STRONGEST_BASIC>
-4.195755156209263

> <JCHEM_POLAR_SURFACE_AREA>
71.44

> <JCHEM_REFRACTIVITY>
129.193

> <JCHEM_ROTATABLE_BOND_COUNT>
4

> <JCHEM_RULE_OF_FIVE>
0

> <ALOGPS_SOLUBILITY>
1.75e-02 g/l

> <JCHEM_TRADITIONAL_IUPAC>
(10S,11S,14S,15S,17R)-14-hydroxy-17-(4-methanesulfonylphenyl)-15-methyl-14-(1,1,2,2,2-pentafluoroethyl)tetracyclo[8.7.0.0^{2,7}.0^{11,15}]heptadeca-1,6-dien-5-one

> <JCHEM_VEBER_RULE>
0

> <DRUGBANK_ID>
DB11971

> <DRUG_GROUPS>
investigational

> <GENERIC_NAME>
Vilaprisan

> <SYNONYMS>
Vilaprisan

$$$$
