
  Mrv1909 05201914362D          

 27 31  0  0  0  0            999 V2000
    4.9035   -2.1472    0.0000 N   0  0  0  0  0  0  0  0  0  0  0  0
    4.4910   -1.4328    0.0000 C   0  0  0  0  0  0  0  0  0  0  0  0
    3.6705   -1.3465    0.0000 N   0  0  0  0  0  0  0  0  0  0  0  0
    3.4990   -0.5396    0.0000 C   0  0  0  0  0  0  0  0  0  0  0  0
    2.7845   -0.1271    0.0000 C   0  0  0  0  0  0  0  0  0  0  0  0
    2.7845    0.6979    0.0000 C   0  0  0  0  0  0  0  0  0  0  0  0
    3.4990    1.1104    0.0000 C   0  0  0  0  0  0  0  0  0  0  0  0
    4.2135    0.6979    0.0000 C   0  0  0  0  0  0  0  0  0  0  0  0
    4.2135   -0.1271    0.0000 C   0  0  0  0  0  0  0  0  0  0  0  0
    4.8266   -0.6791    0.0000 O   0  0  0  0  0  0  0  0  0  0  0  0
    2.0701    1.1104    0.0000 C   0  0  0  0  0  0  0  0  0  0  0  0
    1.3556    0.6979    0.0000 C   0  0  0  0  0  0  0  0  0  0  0  0
    0.6411    1.1104    0.0000 N   0  0  0  0  0  0  0  0  0  0  0  0
   -0.1435    0.8555    0.0000 C   0  0  0  0  0  0  0  0  0  0  0  0
   -0.6284    1.5229    0.0000 C   0  0  0  0  0  0  0  0  0  0  0  0
   -0.1435    2.1904    0.0000 N   0  0  0  0  0  0  0  0  0  0  0  0
    0.6411    1.9354    0.0000 C   0  0  0  0  0  0  0  0  0  0  0  0
    1.3556    2.3479    0.0000 C   0  0  0  0  0  0  0  0  0  0  0  0
    2.0701    1.9354    0.0000 C   0  0  0  0  0  0  0  0  0  0  0  0
   -0.3984    0.0709    0.0000 C   0  0  0  0  0  0  0  0  0  0  0  0
    0.1536   -0.5422    0.0000 O   0  0  0  0  0  0  0  0  0  0  0  0
   -1.2054   -0.1006    0.0000 N   0  0  0  0  0  0  0  0  0  0  0  0
   -1.4604   -0.8853    0.0000 C   0  0  0  0  0  0  0  0  0  0  0  0
   -2.2673   -1.0568    0.0000 C   0  0  0  0  0  0  0  0  0  0  0  0
   -2.8194   -0.4437    0.0000 O   0  0  0  0  0  0  0  0  0  0  0  0
   -2.5644    0.3409    0.0000 C   0  0  0  0  0  0  0  0  0  0  0  0
   -1.7575    0.5124    0.0000 C   0  0  0  0  0  0  0  0  0  0  0  0
  1  2  1  0  0  0  0
  2  3  2  0  0  0  0
  3  4  1  0  0  0  0
  4  5  2  0  0  0  0
  5  6  1  0  0  0  0
  6  7  2  0  0  0  0
  7  8  1  0  0  0  0
  8  9  2  0  0  0  0
  4  9  1  0  0  0  0
  9 10  1  0  0  0  0
  2 10  1  0  0  0  0
  6 11  1  0  0  0  0
 11 12  2  0  0  0  0
 12 13  1  0  0  0  0
 13 14  1  0  0  0  0
 14 15  2  0  0  0  0
 15 16  1  0  0  0  0
 16 17  2  0  0  0  0
 13 17  1  0  0  0  0
 17 18  1  0  0  0  0
 18 19  2  0  0  0  0
 11 19  1  0  0  0  0
 14 20  1  0  0  0  0
 20 21  2  0  0  0  0
 20 22  1  0  0  0  0
 22 23  1  0  0  0  0
 23 24  1  0  0  0  0
 24 25  1  0  0  0  0
 25 26  1  0  0  0  0
 26 27  1  0  0  0  0
 22 27  1  0  0  0  0
M  END
> <DATABASE_ID>
DB14935

> <DATABASE_NAME>
drugbank

> <SMILES>
NC1=NC2=CC(=CC=C2O1)C1=CN2C(C=C1)=NC=C2C(=O)N1CCOCC1

> <INCHI_IDENTIFIER>
InChI=1S/C19H17N5O3/c20-19-22-14-9-12(1-3-16(14)27-19)13-2-4-17-21-10-15(24(17)11-13)18(25)23-5-7-26-8-6-23/h1-4,9-11H,5-8H2,(H2,20,22)

> <INCHI_KEY>
BLGWHBSBBJNKJO-UHFFFAOYSA-N

> <FORMULA>
C19H17N5O3

> <MOLECULAR_WEIGHT>
363.377

> <EXACT_MASS>
363.133139427

> <JCHEM_ACCEPTOR_COUNT>
5

> <JCHEM_ATOM_COUNT>
44

> <JCHEM_AVERAGE_POLARIZABILITY>
38.710215747209304

> <JCHEM_BIOAVAILABILITY>
1

> <JCHEM_DONOR_COUNT>
1

> <JCHEM_FORMAL_CHARGE>
0

> <JCHEM_GHOSE_FILTER>
1

> <JCHEM_IUPAC>
5-[3-(morpholine-4-carbonyl)imidazo[1,2-a]pyridin-6-yl]-1,3-benzoxazol-2-amine

> <ALOGPS_LOGP>
1.78

> <JCHEM_LOGP>
0.6082115256666663

> <ALOGPS_LOGS>
-3.10

> <JCHEM_MDDR_LIKE_RULE>
0

> <JCHEM_NUMBER_OF_RINGS>
5

> <JCHEM_PHYSIOLOGICAL_CHARGE>
0

> <JCHEM_PKA_STRONGEST_ACIDIC>
13.86156031754985

> <JCHEM_PKA_STRONGEST_BASIC>
4.579231859695019

> <JCHEM_POLAR_SURFACE_AREA>
98.88999999999999

> <JCHEM_REFRACTIVITY>
99.73519999999998

> <JCHEM_ROTATABLE_BOND_COUNT>
2

> <JCHEM_RULE_OF_FIVE>
1

> <ALOGPS_SOLUBILITY>
2.88e-01 g/l

> <JCHEM_TRADITIONAL_IUPAC>
(2R)-14-fluoro-2-methyl-6,9,10,19-tetraazapentacyclo[14.2.1.0^{2,6}.0^{8,18}.0^{12,17}]nonadeca-1(18),8,12(17),13,15-pentaen-11-one

> <JCHEM_VEBER_RULE>
0

> <DRUGBANK_ID>
DB14935

> <DRUG_GROUPS>
investigational

> <GENERIC_NAME>
Serabelisib

> <SYNONYMS>
Serabelisib

$$$$
