
  Mrv1652310211600522D          

 63 70  0  0  1  0            999 V2000
   -0.3161    2.2083    0.0000 C   0  0  0  0  0  0  0  0  0  0  0  0
    0.5089    2.2083    0.0000 C   0  0  0  0  0  0  0  0  0  0  0  0
    0.9214    1.4939    0.0000 C   0  0  0  0  0  0  0  0  0  0  0  0
    0.5089    0.7794    0.0000 C   0  0  0  0  0  0  0  0  0  0  0  0
   -0.3161    0.7794    0.0000 C   0  0  0  0  0  0  0  0  0  0  0  0
   -0.7286    1.4939    0.0000 C   0  0  0  0  0  0  0  0  0  0  0  0
   -1.5536    1.4939    0.0000 C   0  0  0  0  0  0  0  0  0  0  0  0
   -1.9661    2.2083    0.0000 O   0  0  0  0  0  0  0  0  0  0  0  0
   -1.9661    0.7794    0.0000 N   0  0  0  0  0  0  0  0  0  0  0  0
   -2.7911    0.7794    0.0000 C   0  0  0  0  0  0  0  0  0  0  0  0
   -3.2036    0.0649    0.0000 C   0  0  0  0  0  0  0  0  0  0  0  0
   -4.0286    0.0649    0.0000 N   0  0  0  0  0  0  0  0  0  0  0  0
   -4.4411   -0.6495    0.0000 C   0  0  0  0  0  0  0  0  0  0  0  0
   -4.0286   -1.3640    0.0000 S   0  0  0  0  0  0  0  0  0  0  0  0
   -5.2661   -0.6495    0.0000 N   0  0  0  0  0  0  0  0  0  0  0  0
   -5.6786   -1.3640    0.0000 C   0  0  0  0  0  0  0  0  0  0  0  0
   -6.5036   -1.3640    0.0000 C   0  0  0  0  0  0  0  0  0  0  0  0
   -6.9161   -2.0785    0.0000 C   0  0  0  0  0  0  0  0  0  0  0  0
   -6.5036   -2.7930    0.0000 C   0  0  0  0  0  0  0  0  0  0  0  0
   -5.6786   -2.7930    0.0000 C   0  0  0  0  0  0  0  0  0  0  0  0
   -5.2661   -2.0785    0.0000 C   0  0  0  0  0  0  0  0  0  0  0  0
   -5.4237   -3.5776    0.0000 C   0  0  0  0  0  0  0  0  0  0  0  0
   -4.6390   -3.8325    0.0000 O   0  0  0  0  0  0  0  0  0  0  0  0
   -6.0911   -4.0625    0.0000 O   0  0  0  0  0  0  0  0  0  0  0  0
   -6.7585   -3.5776    0.0000 C   0  0  0  0  0  0  0  0  0  0  0  0
   -7.3716   -3.0255    0.0000 C   0  0  0  0  0  0  0  0  0  0  0  0
   -7.2001   -2.2186    0.0000 C   0  0  0  0  0  0  0  0  0  0  0  0
   -7.8132   -1.6665    0.0000 C   0  0  0  0  0  0  0  0  0  0  0  0
   -8.5978   -1.9215    0.0000 C   0  0  0  0  0  0  0  0  0  0  0  0
   -8.7693   -2.7285    0.0000 C   0  0  0  0  0  0  0  0  0  0  0  0
   -8.1562   -3.2805    0.0000 C   0  0  0  0  0  0  0  0  0  0  0  0
   -8.3278   -4.0875    0.0000 O   0  0  0  0  0  0  0  0  0  0  0  0
   -7.7147   -4.6395    0.0000 C   0  0  0  0  0  0  0  0  0  0  0  0
   -6.9301   -4.3846    0.0000 C   0  0  0  0  0  0  0  0  0  0  0  0
   -6.3170   -4.9366    0.0000 C   0  0  0  0  0  0  0  0  0  0  0  0
   -6.4885   -5.7436    0.0000 C   0  0  0  0  0  0  0  0  0  0  0  0
   -7.2731   -5.9985    0.0000 C   0  0  0  0  0  0  0  0  0  0  0  0
   -7.8862   -5.4465    0.0000 C   0  0  0  0  0  0  0  0  0  0  0  0
   -7.4446   -6.8055    0.0000 O   0  0  0  0  0  0  0  0  0  0  0  0
   -9.2109   -1.3694    0.0000 O   0  0  0  0  0  0  0  0  0  0  0  0
   -1.5536    0.0649    0.0000 C   0  0  1  0  0  0  0  0  0  0  0  0
   -0.7286    0.0649    0.0000 C   0  0  0  0  0  0  0  0  0  0  0  0
   -0.3161   -0.6495    0.0000 C   0  0  0  0  0  0  0  0  0  0  0  0
    0.5089   -0.6495    0.0000 C   0  0  0  0  0  0  0  0  0  0  0  0
    0.9214    0.0649    0.0000 O   0  0  0  0  0  0  0  0  0  0  0  0
    0.9214   -1.3640    0.0000 N   0  0  0  0  0  0  0  0  0  0  0  0
   -1.9661   -0.6495    0.0000 C   0  0  0  0  0  0  0  0  0  0  0  0
   -1.5536   -1.3640    0.0000 O   0  0  0  0  0  0  0  0  0  0  0  0
   -2.7911   -0.6495    0.0000 O   0  0  0  0  0  0  0  0  0  0  0  0
    1.7464    1.4939    0.0000 N   0  0  0  0  0  0  0  0  0  0  0  0
    2.1589    2.2083    0.0000 C   0  0  0  0  0  0  0  0  0  0  0  0
    2.9839    2.2083    0.0000 C   0  0  0  0  0  0  0  0  0  0  0  0
    3.3964    1.4939    0.0000 C   0  0  0  0  0  0  0  0  0  0  0  0
    4.2214    1.4939    0.0000 N   0  0  0  0  0  0  0  0  0  0  0  0
    4.6339    2.2083    0.0000 C   0  0  0  0  0  0  0  0  0  0  0  0
    4.2214    2.9228    0.0000 C   0  0  0  0  0  0  0  0  0  0  0  0
    3.3964    2.9228    0.0000 N   0  0  0  0  0  0  0  0  0  0  0  0
    4.6339    3.6373    0.0000 C   0  0  0  0  0  0  0  0  0  0  0  0
    4.2214    4.3518    0.0000 O   0  0  0  0  0  0  0  0  0  0  0  0
    5.4589    3.6373    0.0000 N   0  0  0  0  0  0  0  0  0  0  0  0
    5.8714    2.9228    0.0000 C   0  0  0  0  0  0  0  0  0  0  0  0
    5.4589    2.2083    0.0000 N   0  0  0  0  0  0  0  0  0  0  0  0
    6.6964    2.9228    0.0000 N   0  0  0  0  0  0  0  0  0  0  0  0
  1  2  2  0  0  0  0
  2  3  1  0  0  0  0
  3  4  2  0  0  0  0
  4  5  1  0  0  0  0
  5  6  2  0  0  0  0
  1  6  1  0  0  0  0
  6  7  1  0  0  0  0
  7  8  2  0  0  0  0
  7  9  1  0  0  0  0
  9 10  1  0  0  0  0
 10 11  1  0  0  0  0
 11 12  1  0  0  0  0
 12 13  1  0  0  0  0
 13 14  2  0  0  0  0
 13 15  1  0  0  0  0
 15 16  1  0  0  0  0
 16 17  2  0  0  0  0
 17 18  1  0  0  0  0
 18 19  2  0  0  0  0
 19 20  1  0  0  0  0
 20 21  2  0  0  0  0
 16 21  1  0  0  0  0
 20 22  1  0  0  0  0
 22 23  2  0  0  0  0
 22 24  1  0  0  0  0
 24 25  1  0  0  0  0
 19 25  1  0  0  0  0
 25 26  1  0  0  0  0
 26 27  2  0  0  0  0
 27 28  1  0  0  0  0
 28 29  2  0  0  0  0
 29 30  1  0  0  0  0
 30 31  2  0  0  0  0
 26 31  1  0  0  0  0
 31 32  1  0  0  0  0
 32 33  1  0  0  0  0
 33 34  2  0  0  0  0
 25 34  1  0  0  0  0
 34 35  1  0  0  0  0
 35 36  2  0  0  0  0
 36 37  1  0  0  0  0
 37 38  2  0  0  0  0
 33 38  1  0  0  0  0
 37 39  1  0  0  0  0
 29 40  1  0  0  0  0
 41  9  1  1  0  0  0
 41 42  1  0  0  0  0
 42 43  1  0  0  0  0
 43 44  1  0  0  0  0
 44 45  2  0  0  0  0
 44 46  1  0  0  0  0
 41 47  1  0  0  0  0
 47 48  2  0  0  0  0
 47 49  1  0  0  0  0
  3 50  1  0  0  0  0
 50 51  1  0  0  0  0
 51 52  1  0  0  0  0
 52 53  2  0  0  0  0
 53 54  1  0  0  0  0
 54 55  2  0  0  0  0
 55 56  1  0  0  0  0
 56 57  2  0  0  0  0
 52 57  1  0  0  0  0
 56 58  1  0  0  0  0
 58 59  2  0  0  0  0
 58 60  1  0  0  0  0
 60 61  1  0  0  0  0
 61 62  2  0  0  0  0
 55 62  1  0  0  0  0
 61 63  1  0  0  0  0
M  END
> <DATABASE_ID>
DB12559

> <DATABASE_NAME>
drugbank

> <SMILES>
NC(=O)CC[C@H](N(CCNC(=S)NC1=CC=C2C(=C1)C(=O)OC21C2=CC=C(O)C=C2OC2=C1C=CC(O)=C2)C(=O)C1=CC=C(NCC2=CN=C3N=C(N)NC(=O)C3=N2)C=C1)C(O)=O

> <INCHI_IDENTIFIER>
InChI=1S/C42H36N10O10S/c43-33(55)12-11-30(38(58)59)52(37(57)20-1-3-21(4-2-20)46-18-23-19-47-35-34(48-23)36(56)51-40(44)50-35)14-13-45-41(63)49-22-5-8-27-26(15-22)39(60)62-42(27)28-9-6-24(53)16-31(28)61-32-17-25(54)7-10-29(32)42/h1-10,15-17,19,30,46,53-54H,11-14,18H2,(H2,43,55)(H,58,59)(H2,45,49,63)(H3,44,47,50,51,56)/t30-/m0/s1

> <INCHI_KEY>
ZMTAPBHUSYTHBY-PMERELPUSA-N

> <FORMULA>
C42H36N10O10S

> <MOLECULAR_WEIGHT>
872.87

> <EXACT_MASS>
872.233658573

> <JCHEM_ACCEPTOR_COUNT>
13

> <JCHEM_ATOM_COUNT>
99

> <JCHEM_AVERAGE_POLARIZABILITY>
88.10660198777283

> <JCHEM_BIOAVAILABILITY>
0

> <JCHEM_DONOR_COUNT>
9

> <JCHEM_FORMAL_CHARGE>
0

> <JCHEM_GHOSE_FILTER>
0

> <JCHEM_IUPAC>
(2S)-2-[1-(4-{[(2-amino-4-oxo-3,4-dihydropteridin-6-yl)methyl]amino}phenyl)-N-{2-[({3',6'-dihydroxy-3-oxo-3H-spiro[2-benzofuran-1,9'-xanthene]-5-yl}carbamothioyl)amino]ethyl}formamido]-4-carbamoylbutanoic acid

> <ALOGPS_LOGP>
2.95

> <JCHEM_LOGP>
2.0606047864572616

> <ALOGPS_LOGS>
-4.40

> <JCHEM_MDDR_LIKE_RULE>
1

> <JCHEM_NUMBER_OF_RINGS>
8

> <JCHEM_PHYSIOLOGICAL_CHARGE>
-1

> <JCHEM_PKA>
8.696426447079379

> <JCHEM_PKA_STRONGEST_ACIDIC>
3.6334841050674753

> <JCHEM_PKA_STRONGEST_BASIC>
2.1195800745892712

> <JCHEM_POLAR_SURFACE_AREA>
306.03999999999996

> <JCHEM_REFRACTIVITY>
233.8419000000001

> <JCHEM_ROTATABLE_BOND_COUNT>
13

> <JCHEM_RULE_OF_FIVE>
0

> <ALOGPS_SOLUBILITY>
3.45e-02 g/l

> <JCHEM_TRADITIONAL_IUPAC>
(2S)-2-[1-(4-{[(2-amino-4-oxo-3H-pteridin-6-yl)methyl]amino}phenyl)-N-{2-[({3',6'-dihydroxy-3-oxospiro[2-benzofuran-1,9'-xanthene]-5-yl}carbamothioyl)amino]ethyl}formamido]-4-carbamoylbutanoic acid

> <JCHEM_VEBER_RULE>
0

> <DRUGBANK_ID>
DB12559

> <DRUG_GROUPS>
investigational

> <GENERIC_NAME>
EC-17

> <SYNONYMS>
EC17 (Folate-FITC); Folate-FITC; Folate-fluorescein conjugate

$$$$
