
  Mrv1652306231722412D          

 22 25  0  0  1  0            999 V2000
    1.3895   -1.8497    0.0000 C   0  0  0  0  0  0  0  0  0  0  0  0
    1.7494   -2.5921    0.0000 C   0  0  2  0  0  0  0  0  0  0  0  0
    2.2812   -1.9614    0.0000 C   0  0  0  0  0  0  0  0  0  0  0  0
    3.0934   -2.1066    0.0000 C   0  0  0  0  0  0  0  0  0  0  0  0
    3.3737   -2.8825    0.0000 C   0  0  2  0  0  0  0  0  0  0  0  0
    4.1858   -3.0277    0.0000 C   0  0  0  0  0  0  0  0  0  0  0  0
    4.7176   -2.3970    0.0000 C   0  0  0  0  0  0  0  0  0  0  0  0
    5.5297   -2.5422    0.0000 C   0  0  0  0  0  0  0  0  0  0  0  0
    5.8100   -3.3182    0.0000 C   0  0  0  0  0  0  0  0  0  0  0  0
    5.2782   -3.9489    0.0000 C   0  0  0  0  0  0  0  0  0  0  0  0
    4.4661   -3.8037    0.0000 C   0  0  0  0  0  0  0  0  0  0  0  0
    3.9343   -4.4344    0.0000 C   0  0  0  0  0  0  0  0  0  0  0  0
    3.1221   -4.2891    0.0000 C   0  0  0  0  0  0  0  0  0  0  0  0
    2.8418   -3.5132    0.0000 C   0  0  1  0  0  0  0  0  0  0  0  0
    2.0297   -3.3680    0.0000 C   0  0  2  0  0  0  0  0  0  0  0  0
    1.3784   -3.8744    0.0000 C   0  0  0  0  0  0  0  0  0  0  0  0
    0.6955   -3.4114    0.0000 C   0  0  2  0  0  0  0  0  0  0  0  0
    0.9249   -2.6189    0.0000 C   0  0  1  0  0  0  0  0  0  0  0  0
    0.4185   -1.9676    0.0000 O   0  0  0  0  0  0  0  0  0  0  0  0
   -0.0804   -3.6917    0.0000 O   0  0  0  0  0  0  0  0  0  0  0  0
    6.6221   -3.4634    0.0000 O   0  0  0  0  0  0  0  0  0  0  0  0
    7.1540   -2.8327    0.0000 C   0  0  0  0  0  0  0  0  0  0  0  0
  2  1  1  6  0  0  0
  2  3  1  0  0  0  0
  3  4  1  0  0  0  0
  5  4  1  6  0  0  0
  5  6  1  0  0  0  0
  6  7  2  0  0  0  0
  7  8  1  0  0  0  0
  8  9  2  0  0  0  0
  9 10  1  0  0  0  0
 10 11  2  0  0  0  0
  6 11  1  0  0  0  0
 11 12  1  0  0  0  0
 12 13  1  0  0  0  0
 14 13  1  1  0  0  0
  5 14  1  0  0  0  0
 14 15  1  0  0  0  0
  2 15  1  0  0  0  0
 15 16  1  6  0  0  0
 16 17  1  0  0  0  0
 17 18  1  0  0  0  0
  2 18  1  0  0  0  0
 18 19  1  1  0  0  0
 17 20  1  1  0  0  0
  9 21  1  0  0  0  0
 21 22  1  0  0  0  0
M  END
> <DATABASE_ID>
DB13386

> <DATABASE_NAME>
drugbank

> <SMILES>
COC1=CC=C2[C@H]3CC[C@]4(C)[C@H](O)[C@H](O)C[C@H]4[C@@H]3CCC2=C1

> <INCHI_IDENTIFIER>
InChI=1S/C19H26O3/c1-19-8-7-14-13-6-4-12(22-2)9-11(13)3-5-15(14)16(19)10-17(20)18(19)21/h4,6,9,14-18,20-21H,3,5,7-8,10H2,1-2H3/t14-,15-,16+,17-,18-,19+/m1/s1

> <INCHI_KEY>
UHQGCIIQUZBJAE-RRQVMCLOSA-N

> <FORMULA>
C19H26O3

> <MOLECULAR_WEIGHT>
302.414

> <EXACT_MASS>
302.188194697

> <JCHEM_ACCEPTOR_COUNT>
3

> <JCHEM_ATOM_COUNT>
48

> <JCHEM_AVERAGE_POLARIZABILITY>
35.01761589734162

> <JCHEM_BIOAVAILABILITY>
1

> <JCHEM_DONOR_COUNT>
2

> <JCHEM_FORMAL_CHARGE>
0

> <JCHEM_GHOSE_FILTER>
1

> <JCHEM_IUPAC>
(1S,10R,11S,13R,14S,15S)-5-methoxy-15-methyltetracyclo[8.7.0.0^{2,7}.0^{11,15}]heptadeca-2,4,6-triene-13,14-diol

> <ALOGPS_LOGP>
2.85

> <JCHEM_LOGP>
2.816491777333334

> <ALOGPS_LOGS>
-4.32

> <JCHEM_MDDR_LIKE_RULE>
0

> <JCHEM_NUMBER_OF_RINGS>
4

> <JCHEM_PHYSIOLOGICAL_CHARGE>
0

> <JCHEM_PKA>
15.159245141399648

> <JCHEM_PKA_STRONGEST_ACIDIC>
13.623882653380488

> <JCHEM_PKA_STRONGEST_BASIC>
-3.15653538815926

> <JCHEM_POLAR_SURFACE_AREA>
49.69

> <JCHEM_REFRACTIVITY>
85.74849999999998

> <JCHEM_ROTATABLE_BOND_COUNT>
1

> <JCHEM_RULE_OF_FIVE>
1

> <ALOGPS_SOLUBILITY>
1.43e-02 g/l

> <JCHEM_TRADITIONAL_IUPAC>
(1S,10R,11S,13R,14S,15S)-5-methoxy-15-methyltetracyclo[8.7.0.0^{2,7}.0^{11,15}]heptadeca-2,4,6-triene-13,14-diol

> <JCHEM_VEBER_RULE>
0

> <DRUGBANK_ID>
DB13386

> <DRUG_GROUPS>
experimental

> <GENERIC_NAME>
Epimestrol

> <SYNONYMS>
Epimestrol

$$$$
