
  Mrv1909 01012019132D          

166175  0  0  0  0            999 V2000
    2.2228    2.1157    0.0000 O   0  0  0  0  0  0  0  0  0  0  0  0
    3.8029   -0.2946    0.0000 O   0  0  0  0  0  0  0  0  0  0  0  0
    1.3926    2.8655    0.0000 O   0  0  0  0  0  0  0  0  0  0  0  0
    3.4547   -1.0445    0.0000 O   0  0  0  0  0  0  0  0  0  0  0  0
    1.0712    0.1607    0.0000 O   0  0  0  0  0  0  0  0  0  0  0  0
    0.0000    5.4902    0.0000 O   0  0  0  0  0  0  0  0  0  0  0  0
    1.6336   -3.3744    0.0000 O   0  0  0  0  0  0  0  0  0  0  0  0
   -2.6781    4.2046    0.0000 O   0  0  0  0  0  0  0  0  0  0  0  0
    3.9100   -5.3027    0.0000 O   0  0  0  0  0  0  0  0  0  0  0  0
   -4.0707    6.8025    0.0000 O   0  0  0  0  0  0  0  0  0  0  0  0
    4.3921   -5.9723    0.0000 O   0  0  0  0  0  0  0  0  0  0  0  0
    6.9900   -7.1239    0.0000 O   0  0  0  0  0  0  0  0  0  0  0  0
   -6.7489    5.5169    0.0000 O   0  0  0  0  0  0  0  0  0  0  0  0
    6.6418   -7.8737    0.0000 O   0  0  0  0  0  0  0  0  0  0  0  0
   -3.5618    8.3825    0.0000 O   0  0  0  0  0  0  0  0  0  0  0  0
   -8.1415    8.1415    0.0000 O   0  0  0  0  0  0  0  0  0  0  0  0
   -4.9010    8.8111    0.0000 O   0  0  0  0  0  0  0  0  0  0  0  0
    7.1238   -8.5432    0.0000 O   0  0  0  0  0  0  0  0  0  0  0  0
   -8.6771    8.7575    0.0000 O   0  0  0  0  0  0  0  0  0  0  0  0
  -11.1411   10.4180    0.0000 O   0  0  0  0  0  0  0  0  0  0  0  0
   -7.2578    3.9636    0.0000 O   0  0  0  0  0  0  0  0  0  0  0  0
   -8.5968    4.3921    0.0000 O   0  0  0  0  0  0  0  0  0  0  0  0
    7.9540   -8.4629    0.0000 O   0  0  0  0  0  0  0  0  0  0  0  0
  -10.9268   13.3907    0.0000 O   0  0  0  0  0  0  0  0  0  0  0  0
   -9.5609   12.9355    0.0000 O   0  0  0  0  0  0  0  0  0  0  0  0
    8.8914  -13.3907    0.0000 O   0  0  0  0  0  0  0  0  0  0  0  0
    8.3022   -7.7131    0.0000 O   0  0  0  0  0  0  0  0  0  0  0  0
   13.0158   -9.3735    0.0000 O   0  0  0  0  0  0  0  0  0  0  0  0
    3.0798    3.2672    0.0000 N   0  0  0  0  0  0  0  0  0  0  0  0
    3.6422    1.1248    0.0000 N   0  0  0  0  0  0  0  0  0  0  0  0
    1.0980    4.2582    0.0000 N   0  0  0  0  0  0  0  0  0  0  0  0
    2.1693   -0.4552    0.0000 N   0  0  0  0  0  0  0  0  0  0  0  0
    2.7851   -2.5442    0.0000 N   0  0  0  0  0  0  0  0  0  0  0  0
   -1.0445    4.5260    0.0000 N   0  0  0  0  0  0  0  0  0  0  0  0
    0.2410    1.3123    0.0000 N   0  0  0  0  0  0  0  0  0  0  0  0
    3.7493   -3.8833    0.0000 N   0  0  0  0  0  0  0  0  0  0  0  0
    0.0000   -3.5619    0.0000 N   0  0  0  0  0  0  0  0  0  0  0  0
   -2.9726    5.5973    0.0000 N   0  0  0  0  0  0  0  0  0  0  0  0
    5.5437   -5.1152    0.0000 N   0  0  0  0  0  0  0  0  0  0  0  0
   -1.3123   -2.9727    0.0000 N   0  0  0  0  0  0  0  0  0  0  0  0
    0.7767    7.8469    0.0000 N   0  0  0  0  0  0  0  0  0  0  0  0
   -1.1516   -4.3921    0.0000 N   0  0  0  0  0  0  0  0  0  0  0  0
    7.4185   -3.0798    0.0000 N   0  0  0  0  0  0  0  0  0  0  0  0
   -5.1152    5.8651    0.0000 N   0  0  0  0  0  0  0  0  0  0  0  0
    5.3563   -7.3114    0.0000 N   0  0  0  0  0  0  0  0  0  0  0  0
   -7.0436    6.9097    0.0000 N   0  0  0  0  0  0  0  0  0  0  0  0
    5.9722   -9.3735    0.0000 N   0  0  0  0  0  0  0  0  0  0  0  0
   -9.1860    7.2042    0.0000 N   0  0  0  0  0  0  0  0  0  0  0  0
  -10.0431    9.2128    0.0000 N   0  0  0  0  0  0  0  0  0  0  0  0
    3.4547  -10.5251    0.0000 N   0  0  0  0  0  0  0  0  0  0  0  0
    8.1147   -9.8823    0.0000 N   0  0  0  0  0  0  0  0  0  0  0  0
  -10.8197    5.5169    0.0000 N   0  0  0  0  0  0  0  0  0  0  0  0
  -10.0698   11.3821    0.0000 N   0  0  0  0  0  0  0  0  0  0  0  0
    9.5877   -8.3022    0.0000 N   0  0  0  0  0  0  0  0  0  0  0  0
   10.2573   -6.8025    0.0000 N   0  0  0  0  0  0  0  0  0  0  0  0
    3.6422    1.9550    0.0000 C   0  0  1  0  0  0  0  0  0  0  0  0
    4.4456    2.2229    0.0000 C   0  0  0  0  0  0  0  0  0  0  0  0
    2.4639    3.8029    0.0000 C   0  0  1  0  0  0  0  0  0  0  0  0
    4.9278    1.5533    0.0000 C   0  0  0  0  0  0  0  0  0  0  0  0
    4.4456    0.8838    0.0000 C   0  0  0  0  0  0  0  0  0  0  0  0
    2.9726    2.4371    0.0000 C   0  0  0  0  0  0  0  0  0  0  0  0
    3.7761    3.6690    0.0000 C   0  0  0  0  0  0  0  0  0  0  0  0
    2.7851    4.5796    0.0000 C   0  0  0  0  0  0  0  0  0  0  0  0
    3.6154    4.4725    0.0000 C   0  0  0  0  0  0  0  0  0  0  0  0
    3.3208    0.3749    0.0000 C   0  0  0  0  0  0  0  0  0  0  0  0
    1.6604    3.6422    0.0000 C   0  0  0  0  0  0  0  0  0  0  0  0
    2.4907    0.2946    0.0000 C   0  0  2  0  0  0  0  0  0  0  0  0
    2.4103    1.1248    0.0000 C   0  0  0  0  0  0  0  0  0  0  0  0
    1.6604    1.4462    0.0000 C   0  0  0  0  0  0  0  0  0  0  0  0
    0.2945    4.0975    0.0000 C   0  0  0  0  0  0  0  0  0  0  0  0
    2.6513   -1.1248    0.0000 C   0  0  0  0  0  0  0  0  0  0  0  0
    2.3032   -1.8747    0.0000 C   0  0  2  0  0  0  0  0  0  0  0  0
    1.4729   -1.9550    0.0000 C   0  0  0  0  0  0  0  0  0  0  0  0
    0.9909    0.9641    0.0000 C   0  0  0  0  0  0  0  0  0  0  0  0
   -0.2410    4.7135    0.0000 C   0  0  0  0  0  0  0  0  0  0  0  0
    1.1516   -2.7048    0.0000 C   0  0  0  0  0  0  0  0  0  0  0  0
    2.4639   -3.2940    0.0000 C   0  0  0  0  0  0  0  0  0  0  0  0
    2.9458   -3.9636    0.0000 C   0  0  2  0  0  0  0  0  0  0  0  0
   -1.6069    5.1420    0.0000 C   0  0  1  0  0  0  0  0  0  0  0  0
    0.3213   -2.7852    0.0000 C   0  0  0  0  0  0  0  0  0  0  0  0
    2.5978   -4.7135    0.0000 C   0  0  2  0  0  0  0  0  0  0  0  0
   -1.3391    5.9187    0.0000 C   0  0  0  0  0  0  0  0  0  0  0  0
    3.0798   -5.3831    0.0000 C   0  0  0  0  0  0  0  0  0  0  0  0
   -2.4103    4.9813    0.0000 C   0  0  0  0  0  0  0  0  0  0  0  0
   -0.5356    6.1061    0.0000 C   0  0  0  0  0  0  0  0  0  0  0  0
    1.7676   -4.7938    0.0000 C   0  0  0  0  0  0  0  0  0  0  0  0
    4.2314   -4.5528    0.0000 C   0  0  0  0  0  0  0  0  0  0  0  0
   -0.2946    6.8828    0.0000 C   0  0  0  0  0  0  0  0  0  0  0  0
    2.7316   -6.1330    0.0000 C   0  0  0  0  0  0  0  0  0  0  0  0
    5.0616   -4.4725    0.0000 C   0  0  2  0  0  0  0  0  0  0  0  0
   -0.8302   -3.6422    0.0000 C   0  0  0  0  0  0  0  0  0  0  0  0
    0.5088    7.0435    0.0000 C   0  0  0  0  0  0  0  0  0  0  0  0
    5.3830   -3.6958    0.0000 C   0  0  0  0  0  0  0  0  0  0  0  0
   -3.7761    5.4099    0.0000 C   0  0  0  0  0  0  0  0  0  0  0  0
    6.2133   -3.6154    0.0000 C   0  0  0  0  0  0  0  0  0  0  0  0
   -4.3117    6.0258    0.0000 C   0  0  0  0  0  0  0  0  0  0  0  0
    5.1955   -5.8919    0.0000 C   0  0  0  0  0  0  0  0  0  0  0  0
    6.7489   -4.2314    0.0000 C   0  0  0  0  0  0  0  0  0  0  0  0
    6.6150   -2.9191    0.0000 C   0  0  0  0  0  0  0  0  0  0  0  0
    5.6777   -6.5347    0.0000 C   0  0  2  0  0  0  0  0  0  0  0  0
    7.4988   -3.9100    0.0000 C   0  0  0  0  0  0  0  0  0  0  0  0
   -5.6777    6.4811    0.0000 C   0  0  1  0  0  0  0  0  0  0  0  0
    6.6686   -5.0617    0.0000 C   0  0  0  0  0  0  0  0  0  0  0  0
    6.5079   -6.4543    0.0000 C   0  0  0  0  0  0  0  0  0  0  0  0
    8.1683   -4.3921    0.0000 C   0  0  0  0  0  0  0  0  0  0  0  0
   -5.4098    7.2578    0.0000 C   0  0  0  0  0  0  0  0  0  0  0  0
    7.3381   -5.5437    0.0000 C   0  0  0  0  0  0  0  0  0  0  0  0
    8.0879   -5.1956    0.0000 C   0  0  0  0  0  0  0  0  0  0  0  0
   -6.4811    6.2936    0.0000 C   0  0  0  0  0  0  0  0  0  0  0  0
    5.8383   -7.9540    0.0000 C   0  0  0  0  0  0  0  0  0  0  0  0
    5.4902   -8.7307    0.0000 C   0  0  2  0  0  0  0  0  0  0  0  0
   -4.6064    7.4185    0.0000 C   0  0  0  0  0  0  0  0  0  0  0  0
   -7.8469    6.7490    0.0000 C   0  0  1  0  0  0  0  0  0  0  0  0
    4.6867   -8.8111    0.0000 C   0  0  0  0  0  0  0  0  0  0  0  0
   -8.0879    5.9723    0.0000 C   0  0  0  0  0  0  0  0  0  0  0  0
    4.3385   -9.5610    0.0000 C   0  0  0  0  0  0  0  0  0  0  0  0
   -9.7484    7.7934    0.0000 C   0  0  1  0  0  0  0  0  0  0  0  0
   -8.3826    7.3649    0.0000 C   0  0  0  0  0  0  0  0  0  0  0  0
   -8.9718   10.1502    0.0000 C   0  0  2  0  0  0  0  0  0  0  0  0
   -9.7752    9.9895    0.0000 C   0  0  1  0  0  0  0  0  0  0  0  0
   -4.3654    8.2219    0.0000 C   0  0  0  0  0  0  0  0  0  0  0  0
  -10.5519    7.6327    0.0000 C   0  0  0  0  0  0  0  0  0  0  0  0
    6.8025   -9.2931    0.0000 C   0  0  0  0  0  0  0  0  0  0  0  0
    4.7403  -10.2573    0.0000 C   0  0  0  0  0  0  0  0  0  0  0  0
   -9.4806    8.5968    0.0000 C   0  0  0  0  0  0  0  0  0  0  0  0
   -7.5524    5.3563    0.0000 C   0  0  0  0  0  0  0  0  0  0  0  0
   -8.7307   10.9269    0.0000 C   0  0  0  0  0  0  0  0  0  0  0  0
    7.2845   -9.9627    0.0000 C   0  0  2  0  0  0  0  0  0  0  0  0
  -10.8197    6.8560    0.0000 C   0  0  0  0  0  0  0  0  0  0  0  0
    3.5350   -9.7217    0.0000 C   0  0  0  0  0  0  0  0  0  0  0  0
   -8.4361    9.5342    0.0000 C   0  0  0  0  0  0  0  0  0  0  0  0
    4.2046  -10.8733    0.0000 C   0  0  0  0  0  0  0  0  0  0  0  0
  -10.3376   10.6054    0.0000 C   0  0  0  0  0  0  0  0  0  0  0  0
  -11.5964    6.5883    0.0000 C   0  0  0  0  0  0  0  0  0  0  0  0
    6.9364  -10.7126    0.0000 C   0  0  0  0  0  0  0  0  0  0  0  0
   -7.9273   11.1143    0.0000 C   0  0  0  0  0  0  0  0  0  0  0  0
    5.5437  -10.4447    0.0000 C   0  0  0  0  0  0  0  0  0  0  0  0
  -10.3376    6.1865    0.0000 C   0  0  0  0  0  0  0  0  0  0  0  0
  -11.5964    5.7848    0.0000 C   0  0  0  0  0  0  0  0  0  0  0  0
   -7.7934    4.5796    0.0000 C   0  0  0  0  0  0  0  0  0  0  0  0
    4.4456  -11.6500    0.0000 C   0  0  0  0  0  0  0  0  0  0  0  0
    7.4185  -11.3821    0.0000 C   0  0  0  0  0  0  0  0  0  0  0  0
  -12.2928    7.0167    0.0000 C   0  0  0  0  0  0  0  0  0  0  0  0
    5.8115  -11.2214    0.0000 C   0  0  0  0  0  0  0  0  0  0  0  0
    8.4361   -9.1324    0.0000 C   0  0  0  0  0  0  0  0  0  0  0  0
    5.2491  -11.8374    0.0000 C   0  0  0  0  0  0  0  0  0  0  0  0
  -12.2928    5.3563    0.0000 C   0  0  0  0  0  0  0  0  0  0  0  0
    9.2664   -9.0521    0.0000 C   0  0  2  0  0  0  0  0  0  0  0  0
  -10.6323   11.9981    0.0000 C   0  0  0  0  0  0  0  0  0  0  0  0
  -13.0158    6.5883    0.0000 C   0  0  0  0  0  0  0  0  0  0  0  0
  -13.0158    5.7848    0.0000 C   0  0  0  0  0  0  0  0  0  0  0  0
    9.7484   -9.7217    0.0000 C   0  0  0  0  0  0  0  0  0  0  0  0
    8.2486  -11.3018    0.0000 C   0  0  0  0  0  0  0  0  0  0  0  0
    7.0971  -12.1320    0.0000 C   0  0  0  0  0  0  0  0  0  0  0  0
  -10.3644   12.7748    0.0000 C   0  0  0  0  0  0  0  0  0  0  0  0
    8.7307  -11.9713    0.0000 C   0  0  0  0  0  0  0  0  0  0  0  0
    7.5792  -12.8016    0.0000 C   0  0  0  0  0  0  0  0  0  0  0  0
   10.5519   -9.6413    0.0000 C   0  0  0  0  0  0  0  0  0  0  0  0
    8.3825  -12.7212    0.0000 C   0  0  0  0  0  0  0  0  0  0  0  0
    9.1057   -7.6327    0.0000 C   0  0  0  0  0  0  0  0  0  0  0  0
   11.0339  -10.3109    0.0000 C   0  0  0  0  0  0  0  0  0  0  0  0
   10.9000   -8.8646    0.0000 C   0  0  0  0  0  0  0  0  0  0  0  0
    9.4538   -6.8828    0.0000 C   0  0  0  0  0  0  0  0  0  0  0  0
   11.8642  -10.2037    0.0000 C   0  0  0  0  0  0  0  0  0  0  0  0
   11.7303   -8.7843    0.0000 C   0  0  0  0  0  0  0  0  0  0  0  0
   12.2123   -9.4538    0.0000 C   0  0  0  0  0  0  0  0  0  0  0  0
  1 61  2  0  0  0  0
  2 65  2  0  0  0  0
  3 66  2  0  0  0  0
  4 71  2  0  0  0  0
  5 74  2  0  0  0  0
  6 75  2  0  0  0  0
  7 77  2  0  0  0  0
  8 84  2  0  0  0  0
  9 87  2  0  0  0  0
 10 96  2  0  0  0  0
 11 97  2  0  0  0  0
 12104  1  0  0  0  0
 13109  2  0  0  0  0
 14110  2  0  0  0  0
 15121  1  0  0  0  0
 16118  2  0  0  0  0
 17121  2  0  0  0  0
 18123  2  0  0  0  0
 19125  2  0  0  0  0
 20133  2  0  0  0  0
 21140  1  0  0  0  0
 22140  2  0  0  0  0
 23145  2  0  0  0  0
 24155  1  0  0  0  0
 25155  2  0  0  0  0
 26159  1  0  0  0  0
 27160  2  0  0  0  0
 28166  1  0  0  0  0
 29 58  1  0  0  0  0
 29 61  1  0  0  0  0
 29 62  1  0  0  0  0
 30 56  1  0  0  0  0
 30 60  1  0  0  0  0
 30 65  1  0  0  0  0
 31 66  1  0  0  0  0
 31 70  1  0  0  0  0
 32 67  1  0  0  0  0
 32 71  1  0  0  0  0
 33 72  1  0  0  0  0
 33 77  1  0  0  0  0
 34 75  1  0  0  0  0
 34 79  1  0  0  0  0
 35 74  1  0  0  0  0
 78 36  1  1  0  0  0
 36 87  1  0  0  0  0
 37 80  1  0  0  0  0
 37 91  1  0  0  0  0
 38 84  1  0  0  0  0
 38 94  1  0  0  0  0
 39 90  1  0  0  0  0
 39 97  1  0  0  0  0
 40 91  1  0  0  0  0
 41 92  1  0  0  0  0
 42 91  2  0  0  0  0
 43 99  1  0  0  0  0
 43101  1  0  0  0  0
 44 96  1  0  0  0  0
 44102  1  0  0  0  0
 45100  1  0  0  0  0
 45110  1  0  0  0  0
 46109  1  0  0  0  0
 46113  1  0  0  0  0
 47111  1  0  0  0  0
 47123  1  0  0  0  0
 48117  1  0  0  0  0
 48118  1  0  0  0  0
120 49  1  6  0  0  0
 49125  1  0  0  0  0
 50130  1  0  0  0  0
 50132  1  0  0  0  0
 51128  1  0  0  0  0
 51145  1  0  0  0  0
 52138  1  0  0  0  0
 52139  1  0  0  0  0
 53133  1  0  0  0  0
 53149  1  0  0  0  0
 54148  1  0  0  0  0
 54160  1  0  0  0  0
 55163  1  0  0  0  0
 56 57  1  0  0  0  0
 56 61  1  6  0  0  0
 57 59  1  0  0  0  0
 58 63  1  0  0  0  0
 58 66  1  6  0  0  0
 59 60  1  0  0  0  0
 62 64  1  0  0  0  0
 63 64  1  0  0  0  0
 65 67  1  0  0  0  0
 67 68  1  1  0  0  0
 68 69  1  0  0  0  0
 69 74  1  0  0  0  0
 70 75  1  0  0  0  0
 71 72  1  0  0  0  0
 72 73  1  1  0  0  0
 73 76  1  0  0  0  0
 76 80  1  0  0  0  0
 77 78  1  0  0  0  0
 78 81  1  0  0  0  0
 79 82  1  6  0  0  0
 79 84  1  0  0  0  0
 81 83  1  0  0  0  0
 81 86  1  6  0  0  0
 82 85  1  0  0  0  0
 83 89  1  0  0  0  0
 85 88  1  0  0  0  0
 87 90  1  0  0  0  0
 88 92  1  0  0  0  0
 90 93  1  6  0  0  0
 93 95  1  0  0  0  0
 94 96  1  0  0  0  0
 95 98  1  0  0  0  0
 95 99  2  0  0  0  0
 97100  1  0  0  0  0
 98101  2  0  0  0  0
 98103  1  0  0  0  0
100104  1  6  0  0  0
101105  1  0  0  0  0
102106  1  6  0  0  0
102109  1  0  0  0  0
103107  2  0  0  0  0
105108  2  0  0  0  0
106112  1  0  0  0  0
107108  1  0  0  0  0
110111  1  0  0  0  0
111114  1  1  0  0  0
112121  1  0  0  0  0
113115  1  1  0  0  0
113118  1  0  0  0  0
114116  1  0  0  0  0
115126  1  0  0  0  0
116124  1  0  0  0  0
116130  2  0  0  0  0
117122  1  1  0  0  0
117125  1  0  0  0  0
119120  1  0  0  0  0
119127  1  0  0  0  0
119131  1  6  0  0  0
120133  1  0  0  0  0
122129  1  0  0  0  0
123128  1  0  0  0  0
124132  2  0  0  0  0
124137  1  0  0  0  0
126140  1  0  0  0  0
127136  1  0  0  0  0
128135  1  1  0  0  0
129134  1  0  0  0  0
129138  2  0  0  0  0
132141  1  0  0  0  0
134139  2  0  0  0  0
134143  1  0  0  0  0
135142  1  0  0  0  0
137144  2  0  0  0  0
139147  1  0  0  0  0
141146  2  0  0  0  0
142153  2  0  0  0  0
142154  1  0  0  0  0
143150  2  0  0  0  0
144146  1  0  0  0  0
145148  1  0  0  0  0
147151  2  0  0  0  0
148152  1  1  0  0  0
149155  1  0  0  0  0
150151  1  0  0  0  0
152158  1  0  0  0  0
153156  1  0  0  0  0
154157  2  0  0  0  0
156159  2  0  0  0  0
157159  1  0  0  0  0
158161  2  0  0  0  0
158162  1  0  0  0  0
160163  1  0  0  0  0
161164  1  0  0  0  0
162165  2  0  0  0  0
164166  2  0  0  0  0
165166  1  0  0  0  0
M  END
> <DATABASE_ID>
DB15272

> <DATABASE_NAME>
drugbank

> <SMILES>
CC[C@H](C)[C@H](NC(=O)[C@H](CC1=CNC2=C1C=CC=C2)NC(=O)[C@H](CCC(O)=O)NC(=O)[C@H](CCC(O)=O)NC(=O)CNC(=O)[C@H](CCCCN)NC(=O)CNC(=O)[C@@H]1CCCN1C(=O)[C@@H]1CCCN1C(=O)[C@H](CCC(N)=O)NC(=O)[C@H](CCCNC(N)=N)NC(=O)[C@@H](NC(=O)[C@H](CC1=CNC2=C1C=CC=C2)NC(=O)[C@H](CO)NC(=O)[C@H](CC1=CNC2=C1C=CC=C2)NC(=O)[C@H](CC1=CC=C(O)C=C1)NC(=O)[C@H](CC1=CC=C(O)C=C1)NC(=O)CN)[C@@H](C)CC)C(=O)NCC(O)=O

> <INCHI_IDENTIFIER>
InChI=1S/C111H149N27O28/c1-5-59(3)94(107(163)123-57-93(150)151)135-103(159)82(49-64-53-119-72-22-11-8-19-69(64)72)131-99(155)77(38-41-92(148)149)127-98(154)76(37-40-91(146)147)125-89(144)55-121-96(152)74(24-13-14-42-112)124-90(145)56-122-106(162)85-26-16-44-137(85)110(166)86-27-17-45-138(86)109(165)78(36-39-87(114)142)129-97(153)75(25-15-43-117-111(115)116)128-108(164)95(60(4)6-2)136-104(160)83(50-65-54-120-73-23-12-9-20-70(65)73)133-105(161)84(58-139)134-102(158)81(48-63-52-118-71-21-10-7-18-68(63)71)132-101(157)80(47-62-30-34-67(141)35-31-62)130-100(156)79(126-88(143)51-113)46-61-28-32-66(140)33-29-61/h7-12,18-23,28-35,52-54,59-60,74-86,94-95,118-120,139-141H,5-6,13-17,24-27,36-51,55-58,112-113H2,1-4H3,(H2,114,142)(H,121,152)(H,122,162)(H,123,163)(H,124,145)(H,125,144)(H,126,143)(H,127,154)(H,128,164)(H,129,153)(H,130,156)(H,131,155)(H,132,157)(H,133,161)(H,134,158)(H,135,159)(H,136,160)(H,146,147)(H,148,149)(H,150,151)(H4,115,116,117)/t59-,60-,74-,75-,76-,77-,78-,79-,80-,81-,82-,83-,84-,85-,86-,94-,95-/m0/s1

> <INCHI_KEY>
VXXZQHUWZSRPAM-CDJUQFLLSA-N

> <FORMULA>
C111H149N27O28

> <MOLECULAR_WEIGHT>
2309.574

> <EXACT_MASS>
2308.106537266

> <JCHEM_ACCEPTOR_COUNT>
33

> <JCHEM_ATOM_COUNT>
315

> <JCHEM_AVERAGE_NEUTRAL_MICROSPECIES_CHARGE>
-0.1386639999047754

> <JCHEM_AVERAGE_POLARIZABILITY>
242.59127318586008

> <JCHEM_BIOAVAILABILITY>
0

> <JCHEM_DONOR_COUNT>
31

> <JCHEM_FORMAL_CHARGE>
0

> <JCHEM_GHOSE_FILTER>
0

> <JCHEM_IUPAC>
(4S)-4-[(2S)-2-{2-[(2S)-6-amino-2-(2-{[(2S)-1-[(2S)-1-[(2S)-2-[(2S)-2-[(2S,3S)-2-[(2S)-2-[(2S)-2-[(2S)-2-[(2S)-2-[(2S)-2-(2-aminoacetamido)-3-(4-hydroxyphenyl)propanamido]-3-(4-hydroxyphenyl)propanamido]-3-(1H-indol-3-yl)propanamido]-3-hydroxypropanamido]-3-(1H-indol-3-yl)propanamido]-3-methylpentanamido]-5-carbamimidamidopentanamido]-4-carbamoylbutanoyl]pyrrolidine-2-carbonyl]pyrrolidin-2-yl]formamido}acetamido)hexanamido]acetamido}-4-carboxybutanamido]-4-{[(1S)-1-{[(1S,2S)-1-[(carboxymethyl)carbamoyl]-2-methylbutyl]carbamoyl}-2-(1H-indol-3-yl)ethyl]carbamoyl}butanoic acid

> <ALOGPS_LOGP>
-0.60

> <JCHEM_LOGP>
-11.45336309247671

> <ALOGPS_LOGS>
-5.16

> <JCHEM_MDDR_LIKE_RULE>
1

> <JCHEM_NEUTRAL_CHARGE>
0

> <JCHEM_NUMBER_OF_RINGS>
10

> <JCHEM_PHYSIOLOGICAL_CHARGE>
0

> <JCHEM_PKA>
3.593168024216609

> <JCHEM_PKA_STRONGEST_ACIDIC>
3.1114015746944683

> <JCHEM_PKA_STRONGEST_BASIC>
11.894484187962336

> <JCHEM_POLAR_SURFACE_AREA>
883.2099999999994

> <JCHEM_REFRACTIVITY>
603.2376999999996

> <JCHEM_ROTATABLE_BOND_COUNT>
67

> <JCHEM_RULE_OF_FIVE>
0

> <ALOGPS_SOLUBILITY>
1.60e-02 g/l

> <JCHEM_TRADITIONAL_IUPAC>
leuprorelin

> <JCHEM_VEBER_RULE>
0

> <DRUGBANK_ID>
DB15272

> <DRUG_GROUPS>
investigational

> <GENERIC_NAME>
Edratide

> <SYNONYMS>
Edratide

$$$$
