
  Mrv1909 01142022412D          

 80 86  0  0  0  0            999 V2000
    5.3198    1.0717    0.0000 C   0  0  0  0  0  0  0  0  0  0  0  0
    6.1448    1.0717    0.0000 O   0  0  0  0  0  0  0  0  0  0  0  0
    4.9073    1.7862    0.0000 N   0  0  0  0  0  0  0  0  0  0  0  0
    4.9073    0.3572    0.0000 C   0  0  2  0  0  0  0  0  0  0  0  0
    5.3198   -0.3571    0.0000 C   0  0  0  0  0  0  0  0  0  0  0  0
    4.9073   -1.0716    0.0000 C   0  0  0  0  0  0  0  0  0  0  0  0
    5.2429   -1.8253    0.0000 C   0  0  0  0  0  0  0  0  0  0  0  0
    4.6298   -2.3773    0.0000 N   0  0  0  0  0  0  0  0  0  0  0  0
    3.9154   -1.9648    0.0000 C   0  0  0  0  0  0  0  0  0  0  0  0
    3.1307   -2.2198    0.0000 C   0  0  0  0  0  0  0  0  0  0  0  0
    2.5176   -1.6677    0.0000 C   0  0  0  0  0  0  0  0  0  0  0  0
    2.6892   -0.8607    0.0000 C   0  0  0  0  0  0  0  0  0  0  0  0
    3.4738   -0.6058    0.0000 C   0  0  0  0  0  0  0  0  0  0  0  0
    4.0869   -1.1578    0.0000 C   0  0  0  0  0  0  0  0  0  0  0  0
    4.0824    0.3572    0.0000 N   0  0  0  0  0  0  0  0  0  0  0  0
    3.6699    1.0717    0.0000 C   0  0  0  0  0  0  0  0  0  0  0  0
    4.0824    1.7862    0.0000 O   0  0  0  0  0  0  0  0  0  0  0  0
    2.8449    1.0717    0.0000 C   0  0  2  0  0  0  0  0  0  0  0  0
    2.4324    0.3572    0.0000 C   0  0  0  0  0  0  0  0  0  0  0  0
    1.6074    0.3572    0.0000 S   0  0  0  0  0  0  0  0  0  0  0  0
    2.4324    1.7862    0.0000 N   0  0  0  0  0  0  0  0  0  0  0  0
    1.6074    1.7862    0.0000 C   0  0  0  0  0  0  0  0  0  0  0  0
    1.1949    1.0717    0.0000 O   0  0  0  0  0  0  0  0  0  0  0  0
    1.1949    2.5006    0.0000 C   0  0  2  0  0  0  0  0  0  0  0  0
    1.6074    3.2151    0.0000 C   0  0  0  0  0  0  0  0  0  0  0  0
    2.4324    3.2151    0.0000 C   0  0  0  0  0  0  0  0  0  0  0  0
    1.1949    3.9296    0.0000 C   0  0  0  0  0  0  0  0  0  0  0  0
    0.3699    2.5006    0.0000 N   0  0  0  0  0  0  0  0  0  0  0  0
   -0.0425    3.2151    0.0000 C   0  0  0  0  0  0  0  0  0  0  0  0
    0.3699    3.9296    0.0000 O   0  0  0  0  0  0  0  0  0  0  0  0
   -0.8675    3.2151    0.0000 C   0  0  2  0  0  0  0  0  0  0  0  0
   -1.2800    3.9296    0.0000 C   0  0  0  0  0  0  0  0  0  0  0  0
   -2.1050    3.9296    0.0000 C   0  0  0  0  0  0  0  0  0  0  0  0
   -2.5175    4.6441    0.0000 C   0  0  0  0  0  0  0  0  0  0  0  0
   -3.3425    4.6441    0.0000 C   0  0  0  0  0  0  0  0  0  0  0  0
   -3.7550    5.3585    0.0000 N   0  0  0  0  0  0  0  0  0  0  0  0
   -1.2800    2.5006    0.0000 N   0  0  0  0  0  0  0  0  0  0  0  0
   -2.1050    2.5006    0.0000 C   0  0  0  0  0  0  0  0  0  0  0  0
   -2.5175    3.2151    0.0000 O   0  0  0  0  0  0  0  0  0  0  0  0
   -2.5175    1.7862    0.0000 C   0  0  1  0  0  0  0  0  0  0  0  0
   -3.3425    1.7862    0.0000 C   0  0  0  0  0  0  0  0  0  0  0  0
   -3.7550    2.5006    0.0000 C   0  0  0  0  0  0  0  0  0  0  0  0
   -3.4195    3.2543    0.0000 C   0  0  0  0  0  0  0  0  0  0  0  0
   -4.0326    3.8064    0.0000 N   0  0  0  0  0  0  0  0  0  0  0  0
   -4.7470    3.3939    0.0000 C   0  0  0  0  0  0  0  0  0  0  0  0
   -5.5317    3.6488    0.0000 C   0  0  0  0  0  0  0  0  0  0  0  0
   -6.1448    3.0968    0.0000 C   0  0  0  0  0  0  0  0  0  0  0  0
   -5.9732    2.2898    0.0000 C   0  0  0  0  0  0  0  0  0  0  0  0
   -5.1886    2.0349    0.0000 C   0  0  0  0  0  0  0  0  0  0  0  0
   -4.5755    2.5869    0.0000 C   0  0  0  0  0  0  0  0  0  0  0  0
   -2.1050    1.0717    0.0000 N   0  0  0  0  0  0  0  0  0  0  0  0
   -2.5175    0.3572    0.0000 C   0  0  0  0  0  0  0  0  0  0  0  0
   -3.3425    0.3572    0.0000 O   0  0  0  0  0  0  0  0  0  0  0  0
   -2.1050   -0.3571    0.0000 C   0  0  2  0  0  0  0  0  0  0  0  0
   -2.7650   -1.5003    0.0000 C   0  0  0  0  0  0  0  0  0  0  0  0
   -2.3525   -2.2148    0.0000 C   0  0  0  0  0  0  0  0  0  0  0  0
   -1.5275   -2.2148    0.0000 C   0  0  0  0  0  0  0  0  0  0  0  0
   -1.1150   -2.9292    0.0000 C   0  0  0  0  0  0  0  0  0  0  0  0
   -1.5275   -3.6438    0.0000 C   0  0  0  0  0  0  0  0  0  0  0  0
   -1.1150   -4.3582    0.0000 O   0  0  0  0  0  0  0  0  0  0  0  0
   -2.3525   -3.6438    0.0000 C   0  0  0  0  0  0  0  0  0  0  0  0
   -2.7650   -2.9292    0.0000 C   0  0  0  0  0  0  0  0  0  0  0  0
   -1.2800   -0.3571    0.0000 N   0  0  0  0  0  0  0  0  0  0  0  0
   -0.8675   -1.0716    0.0000 C   0  0  0  0  0  0  0  0  0  0  0  0
   -1.2800   -1.7861    0.0000 O   0  0  0  0  0  0  0  0  0  0  0  0
   -0.0425   -1.0716    0.0000 C   0  0  2  0  0  0  0  0  0  0  0  0
    0.3699   -0.3571    0.0000 C   0  0  0  0  0  0  0  0  0  0  0  0
    1.1949   -0.3571    0.0000 S   0  0  0  0  0  0  0  0  0  0  0  0
    0.3699   -1.7861    0.0000 N   0  0  0  0  0  0  0  0  0  0  0  0
    1.1949   -1.7861    0.0000 C   0  0  0  0  0  0  0  0  0  0  0  0
    1.6074   -1.0716    0.0000 O   0  0  0  0  0  0  0  0  0  0  0  0
    1.6074   -2.5005    0.0000 C   0  0  2  0  0  0  0  0  0  0  0  0
    2.4324   -2.5005    0.0000 N   0  0  0  0  0  0  0  0  0  0  0  0
    1.1949   -3.2150    0.0000 C   0  0  0  0  0  0  0  0  0  0  0  0
    1.6074   -3.9295    0.0000 C   0  0  0  0  0  0  0  0  0  0  0  0
    1.1949   -4.6440    0.0000 C   0  0  0  0  0  0  0  0  0  0  0  0
    1.6074   -5.3585    0.0000 C   0  0  0  0  0  0  0  0  0  0  0  0
    2.4324   -5.3585    0.0000 C   0  0  0  0  0  0  0  0  0  0  0  0
    2.8449   -4.6440    0.0000 C   0  0  0  0  0  0  0  0  0  0  0  0
    2.4324   -3.9295    0.0000 C   0  0  0  0  0  0  0  0  0  0  0  0
  1  2  2  0  0  0  0
  1  3  1  0  0  0  0
  1  4  1  0  0  0  0
  4  5  1  0  0  0  0
  5  6  1  0  0  0  0
  6  7  2  0  0  0  0
  7  8  1  0  0  0  0
  8  9  1  0  0  0  0
  9 10  2  0  0  0  0
 10 11  1  0  0  0  0
 11 12  2  0  0  0  0
 12 13  1  0  0  0  0
 13 14  2  0  0  0  0
  6 14  1  0  0  0  0
  9 14  1  0  0  0  0
  4 15  1  6  0  0  0
 15 16  1  0  0  0  0
 16 17  2  0  0  0  0
 18 16  1  6  0  0  0
 18 19  1  0  0  0  0
 19 20  1  0  0  0  0
 18 21  1  0  0  0  0
 21 22  1  0  0  0  0
 22 23  2  0  0  0  0
 22 24  1  0  0  0  0
 24 25  1  1  0  0  0
 25 26  1  0  0  0  0
 25 27  1  0  0  0  0
 24 28  1  0  0  0  0
 28 29  1  0  0  0  0
 29 30  2  0  0  0  0
 29 31  1  0  0  0  0
 31 32  1  1  0  0  0
 32 33  1  0  0  0  0
 33 34  1  0  0  0  0
 34 35  1  0  0  0  0
 35 36  1  0  0  0  0
 31 37  1  0  0  0  0
 37 38  1  0  0  0  0
 38 39  2  0  0  0  0
 38 40  1  0  0  0  0
 40 41  1  6  0  0  0
 41 42  1  0  0  0  0
 42 43  2  0  0  0  0
 43 44  1  0  0  0  0
 44 45  1  0  0  0  0
 45 46  2  0  0  0  0
 46 47  1  0  0  0  0
 47 48  2  0  0  0  0
 48 49  1  0  0  0  0
 49 50  2  0  0  0  0
 42 50  1  0  0  0  0
 45 50  1  0  0  0  0
 40 51  1  0  0  0  0
 51 52  1  0  0  0  0
 52 53  2  0  0  0  0
 52 54  1  0  0  0  0
 54 55  1  1  0  0  0
 55 56  1  0  0  0  0
 56 57  2  0  0  0  0
 57 58  1  0  0  0  0
 58 59  2  0  0  0  0
 59 60  1  0  0  0  0
 59 61  1  0  0  0  0
 61 62  2  0  0  0  0
 56 62  1  0  0  0  0
 54 63  1  0  0  0  0
 63 64  1  0  0  0  0
 64 65  2  0  0  0  0
 64 66  1  0  0  0  0
 66 67  1  0  0  0  0
 67 68  1  0  0  0  0
 66 69  1  6  0  0  0
 69 70  1  0  0  0  0
 70 71  2  0  0  0  0
 70 72  1  0  0  0  0
 72 73  1  6  0  0  0
 72 74  1  0  0  0  0
 74 75  1  0  0  0  0
 75 76  1  0  0  0  0
 76 77  2  0  0  0  0
 77 78  1  0  0  0  0
 78 79  2  0  0  0  0
 79 80  1  0  0  0  0
 75 80  2  0  0  0  0
 20 68  1  0  0  0  0
M  END
> <DATABASE_ID>
DB04894

> <DATABASE_NAME>
drugbank

> <SMILES>
CC(C)[C@@H]1NC(=O)[C@H](CCCCN)NC(=O)[C@@H](CC2=CNC3=CC=CC=C23)NC(=O)[C@H](CC2=CC=C(O)C=C2)NC(=O)[C@H](CSSC[C@H](NC1=O)C(=O)N[C@@H](CC1=CNC2=CC=CC=C12)C(N)=O)NC(=O)[C@H](N)CC1=CC=CC=C1

> <INCHI_IDENTIFIER>
InChI=1S/C57H70N12O9S2/c1-32(2)49-57(78)68-48(55(76)64-44(50(60)71)26-35-28-61-41-16-8-6-14-38(35)41)31-80-79-30-47(67-51(72)40(59)24-33-12-4-3-5-13-33)56(77)65-45(25-34-19-21-37(70)22-20-34)53(74)66-46(27-36-29-62-42-17-9-7-15-39(36)42)54(75)63-43(52(73)69-49)18-10-11-23-58/h3-9,12-17,19-22,28-29,32,40,43-49,61-62,70H,10-11,18,23-27,30-31,58-59H2,1-2H3,(H2,60,71)(H,63,75)(H,64,76)(H,65,77)(H,66,74)(H,67,72)(H,68,78)(H,69,73)/t40-,43+,44+,45+,46-,47+,48+,49+/m1/s1

> <INCHI_KEY>
SWXOGPJRIDTIRL-DOUNNPEJSA-N

> <FORMULA>
C57H70N12O9S2

> <MOLECULAR_WEIGHT>
1131.38

> <EXACT_MASS>
1130.48301423

> <JCHEM_ACCEPTOR_COUNT>
11

> <JCHEM_ATOM_COUNT>
150

> <JCHEM_AVERAGE_NEUTRAL_MICROSPECIES_CHARGE>
1.8314998688684216

> <JCHEM_AVERAGE_POLARIZABILITY>
118.21756003509365

> <JCHEM_BIOAVAILABILITY>
0

> <JCHEM_DONOR_COUNT>
13

> <JCHEM_FORMAL_CHARGE>
0

> <JCHEM_GHOSE_FILTER>
0

> <JCHEM_IUPAC>
(2R)-2-amino-N-[(4R,7S,10S,13R,16S,19R)-10-(4-aminobutyl)-4-{[(1S)-1-carbamoyl-2-(1H-indol-3-yl)ethyl]carbamoyl}-16-[(4-hydroxyphenyl)methyl]-13-[(1H-indol-3-yl)methyl]-6,9,12,15,18-pentaoxo-7-(propan-2-yl)-1,2-dithia-5,8,11,14,17-pentaazacycloicosan-19-yl]-3-phenylpropanamide

> <ALOGPS_LOGP>
2.69

> <JCHEM_LOGP>
1.066672329575462

> <ALOGPS_LOGS>
-5.45

> <JCHEM_MDDR_LIKE_RULE>
1

> <JCHEM_NEUTRAL_CHARGE>
2

> <JCHEM_NUMBER_OF_RINGS>
7

> <JCHEM_PHYSIOLOGICAL_CHARGE>
2

> <JCHEM_PKA>
11.54160361360001

> <JCHEM_PKA_STRONGEST_ACIDIC>
9.427938893203558

> <JCHEM_PKA_STRONGEST_BASIC>
10.262826863479464

> <JCHEM_POLAR_SURFACE_AREA>
350.6399999999999

> <JCHEM_REFRACTIVITY>
306.2162000000001

> <JCHEM_ROTATABLE_BOND_COUNT>
18

> <JCHEM_RULE_OF_FIVE>
0

> <ALOGPS_SOLUBILITY>
4.01e-03 g/l

> <JCHEM_TRADITIONAL_IUPAC>
olcegepant

> <JCHEM_VEBER_RULE>
0

> <DRUGBANK_ID>
DB04894

> <DRUG_GROUPS>
experimental; investigational

> <GENERIC_NAME>
Vapreotide

> <SYNONYMS>
Vapreotida; Vapreotide; Vapreotidum

> <INTERNATIONAL_BRANDS>
Octastatin; Sanvar; Sanvar IR

> <SALTS>
Vapreotide acetate

$$$$
