
  Mrv1652310201623482D          

 28 30  0  0  1  0            999 V2000
    1.2375   -2.3645    0.0000 C   0  0  0  0  0  0  0  0  0  0  0  0
    0.4125   -2.3645    0.0000 C   0  0  0  0  0  0  0  0  0  0  0  0
    0.0000   -3.0789    0.0000 C   0  0  0  0  0  0  0  0  0  0  0  0
    0.0000   -1.6500    0.0000 C   0  0  2  0  0  0  0  0  0  0  0  0
    0.7145   -1.2375    0.0000 C   0  0  0  0  0  0  0  0  0  0  0  0
    0.7145   -0.4125    0.0000 C   0  0  0  0  0  0  0  0  0  0  0  0
    1.4289    0.0000    0.0000 C   0  0  0  0  0  0  0  0  0  0  0  0
    2.1434   -0.4125    0.0000 C   0  0  0  0  0  0  0  0  0  0  0  0
    2.8579    0.0000    0.0000 C   0  0  0  0  0  0  0  0  0  0  0  0
    3.5724   -0.4125    0.0000 C   0  0  0  0  0  0  0  0  0  0  0  0
    3.5724   -1.2375    0.0000 C   0  0  0  0  0  0  0  0  0  0  0  0
    2.8579   -1.6500    0.0000 C   0  0  0  0  0  0  0  0  0  0  0  0
    2.1434   -1.2375    0.0000 C   0  0  0  0  0  0  0  0  0  0  0  0
    1.4289   -1.6500    0.0000 C   0  0  0  0  0  0  0  0  0  0  0  0
    4.2868   -1.6500    0.0000 O   0  0  0  0  0  0  0  0  0  0  0  0
    5.0013   -1.2375    0.0000 C   0  0  0  0  0  0  0  0  0  0  0  0
    5.0013   -0.4125    0.0000 F   0  0  0  0  0  0  0  0  0  0  0  0
    5.7158   -1.6500    0.0000 F   0  0  0  0  0  0  0  0  0  0  0  0
    4.2868   -0.0000    0.0000 O   0  0  0  0  0  0  0  0  0  0  0  0
    4.2868    0.8250    0.0000 C   0  0  0  0  0  0  0  0  0  0  0  0
    3.5724    1.2375    0.0000 F   0  0  0  0  0  0  0  0  0  0  0  0
    5.0013    1.2375    0.0000 F   0  0  0  0  0  0  0  0  0  0  0  0
   -0.4125   -0.9355    0.0000 C   0  0  0  0  0  0  0  0  0  0  0  0
   -0.0769   -0.1819    0.0000 C   0  0  0  0  0  0  0  0  0  0  0  0
   -0.6900    0.3702    0.0000 N   0  0  0  0  0  0  0  0  0  0  0  0
   -1.4045   -0.0423    0.0000 N   0  0  0  0  0  0  0  0  0  0  0  0
   -1.2330   -0.8493    0.0000 N   0  0  0  0  0  0  0  0  0  0  0  0
   -0.7145   -2.0625    0.0000 O   0  0  0  0  0  0  0  0  0  0  0  0
  1  2  1  0  0  0  0
  2  3  1  0  0  0  0
  2  4  1  0  0  0  0
  4  5  1  0  0  0  0
  5  6  2  0  0  0  0
  6  7  1  0  0  0  0
  7  8  2  0  0  0  0
  8  9  1  0  0  0  0
  9 10  2  0  0  0  0
 10 11  1  0  0  0  0
 11 12  2  0  0  0  0
 12 13  1  0  0  0  0
  8 13  1  0  0  0  0
 13 14  2  0  0  0  0
  5 14  1  0  0  0  0
 11 15  1  0  0  0  0
 15 16  1  0  0  0  0
 16 17  1  0  0  0  0
 16 18  1  0  0  0  0
 10 19  1  0  0  0  0
 19 20  1  0  0  0  0
 20 21  1  0  0  0  0
 20 22  1  0  0  0  0
  4 23  1  1  0  0  0
 23 24  2  0  0  0  0
 24 25  1  0  0  0  0
 25 26  2  0  0  0  0
 26 27  1  0  0  0  0
 23 27  1  0  0  0  0
  4 28  1  6  0  0  0
M  END
> <DATABASE_ID>
DB12275

> <DATABASE_NAME>
drugbank

> <SMILES>
CC(C)[C@@](O)(C1=CN=NN1)C1=CC=C2C=C(OC(F)F)C(OC(F)F)=CC2=C1

> <INCHI_IDENTIFIER>
InChI=1S/C18H17F4N3O3/c1-9(2)18(26,15-8-23-25-24-15)12-4-3-10-6-13(27-16(19)20)14(28-17(21)22)7-11(10)5-12/h3-9,16-17,26H,1-2H3,(H,23,24,25)/t18-/m0/s1

> <INCHI_KEY>
ZBRAJOQFSNYJMF-SFHVURJKSA-N

> <FORMULA>
C18H17F4N3O3

> <MOLECULAR_WEIGHT>
399.346

> <EXACT_MASS>
399.120604071

> <JCHEM_ACCEPTOR_COUNT>
5

> <JCHEM_ATOM_COUNT>
45

> <JCHEM_AVERAGE_POLARIZABILITY>
35.52685920968882

> <JCHEM_BIOAVAILABILITY>
1

> <JCHEM_DONOR_COUNT>
2

> <JCHEM_FORMAL_CHARGE>
0

> <JCHEM_GHOSE_FILTER>
1

> <JCHEM_IUPAC>
(1S)-1-[6,7-bis(difluoromethoxy)naphthalen-2-yl]-2-methyl-1-(1H-1,2,3-triazol-5-yl)propan-1-ol

> <ALOGPS_LOGP>
3.29

> <JCHEM_LOGP>
4.390448507333334

> <ALOGPS_LOGS>
-3.94

> <JCHEM_MDDR_LIKE_RULE>
1

> <JCHEM_NUMBER_OF_RINGS>
3

> <JCHEM_PHYSIOLOGICAL_CHARGE>
0

> <JCHEM_PKA>
13.336719913144396

> <JCHEM_PKA_STRONGEST_ACIDIC>
7.999562666257939

> <JCHEM_PKA_STRONGEST_BASIC>
0.39607127863450187

> <JCHEM_POLAR_SURFACE_AREA>
80.26

> <JCHEM_REFRACTIVITY>
92.30780000000004

> <JCHEM_ROTATABLE_BOND_COUNT>
7

> <JCHEM_RULE_OF_FIVE>
1

> <ALOGPS_SOLUBILITY>
4.63e-02 g/l

> <JCHEM_TRADITIONAL_IUPAC>
(1S)-1-[6,7-bis(difluoromethoxy)naphthalen-2-yl]-2-methyl-1-(3H-1,2,3-triazol-4-yl)propan-1-ol

> <JCHEM_VEBER_RULE>
0

> <DRUGBANK_ID>
DB12275

> <DRUG_GROUPS>
investigational

> <GENERIC_NAME>
Seviteronel

> <SYNONYMS>
Seviteronel

$$$$
