
  Mrv1718001051815272D          

 17 19  0  0  0  0            999 V2000
    0.2122   -2.0569    0.0000 C   0  0  0  0  0  0  0  0  0  0  0  0
    0.0407   -1.2500    0.0000 C   0  0  0  0  0  0  0  0  0  0  0  0
    0.6538   -0.6979    0.0000 C   0  0  0  0  0  0  0  0  0  0  0  0
    1.1387   -0.0305    0.0000 C   0  0  0  0  0  0  0  0  0  0  0  0
    1.9233   -0.2854    0.0000 C   0  0  0  0  0  0  0  0  0  0  0  0
    2.6378    0.1271    0.0000 C   0  0  0  0  0  0  0  0  0  0  0  0
    3.3523   -0.2854    0.0000 C   0  0  0  0  0  0  0  0  0  0  0  0
    3.3523   -1.1104    0.0000 C   0  0  0  0  0  0  0  0  0  0  0  0
    2.6378   -1.5229    0.0000 C   0  0  0  0  0  0  0  0  0  0  0  0
    1.9233   -1.1104    0.0000 C   0  0  0  0  0  0  0  0  0  0  0  0
    1.1387   -1.3654    0.0000 C   0  0  0  0  0  0  0  0  0  0  0  0
    4.0668   -1.5229    0.0000 F   0  0  0  0  0  0  0  0  0  0  0  0
    0.0407   -0.1459    0.0000 C   0  0  0  0  0  0  0  0  0  0  0  0
   -0.7663   -0.3174    0.0000 C   0  0  0  0  0  0  0  0  0  0  0  0
   -1.1788    0.3970    0.0000 N   0  0  0  0  0  0  0  0  0  0  0  0
   -0.6267    1.0101    0.0000 C   0  0  0  0  0  0  0  0  0  0  0  0
    0.1269    0.6746    0.0000 N   0  0  0  0  0  0  0  0  0  0  0  0
  1  2  1  0  0  0  0
  2  3  1  0  0  0  0
  3  4  1  0  0  0  0
  4  5  1  0  0  0  0
  5  6  2  0  0  0  0
  6  7  1  0  0  0  0
  7  8  2  0  0  0  0
  8  9  1  0  0  0  0
  9 10  2  0  0  0  0
  5 10  1  0  0  0  0
 10 11  1  0  0  0  0
  3 11  1  0  0  0  0
  8 12  1  0  0  0  0
  3 13  1  0  0  0  0
 13 14  2  0  0  0  0
 14 15  1  0  0  0  0
 15 16  1  0  0  0  0
 16 17  2  0  0  0  0
 13 17  1  0  0  0  0
M  END
> <DATABASE_ID>
DB06585

> <DATABASE_NAME>
drugbank

> <SMILES>
CCC1(CC2=CC=C(F)C=C2C1)C1=CNC=N1

> <INCHI_IDENTIFIER>
InChI=1S/C14H15FN2/c1-2-14(13-8-16-9-17-13)6-10-3-4-12(15)5-11(10)7-14/h3-5,8-9H,2,6-7H2,1H3,(H,16,17)

> <INCHI_KEY>
KXSUAWAUCNFBQJ-UHFFFAOYSA-N

> <FORMULA>
C14H15FN2

> <MOLECULAR_WEIGHT>
230.286

> <EXACT_MASS>
230.121926654

> <JCHEM_ACCEPTOR_COUNT>
1

> <JCHEM_ATOM_COUNT>
32

> <JCHEM_AVERAGE_POLARIZABILITY>
24.62697725576972

> <JCHEM_BIOAVAILABILITY>
1

> <JCHEM_DONOR_COUNT>
1

> <JCHEM_FORMAL_CHARGE>
0

> <JCHEM_GHOSE_FILTER>
1

> <JCHEM_IUPAC>
4-(2-ethyl-5-fluoro-2,3-dihydro-1H-inden-2-yl)-1H-imidazole

> <ALOGPS_LOGP>
3.56

> <JCHEM_LOGP>
3.55645245

> <ALOGPS_LOGS>
-3.22

> <JCHEM_MDDR_LIKE_RULE>
0

> <JCHEM_NUMBER_OF_RINGS>
3

> <JCHEM_PHYSIOLOGICAL_CHARGE>
0

> <JCHEM_PKA_STRONGEST_ACIDIC>
14.346763616891309

> <JCHEM_PKA_STRONGEST_BASIC>
6.566050690382232

> <JCHEM_POLAR_SURFACE_AREA>
28.68

> <JCHEM_REFRACTIVITY>
65.4581

> <JCHEM_ROTATABLE_BOND_COUNT>
2

> <JCHEM_RULE_OF_FIVE>
1

> <ALOGPS_SOLUBILITY>
1.39e-01 g/l

> <JCHEM_TRADITIONAL_IUPAC>
fipamezole

> <JCHEM_VEBER_RULE>
1

> <DRUGBANK_ID>
DB06585

> <DRUG_GROUPS>
investigational

> <GENERIC_NAME>
Fipamezole

> <SYNONYMS>
Fipamezole

$$$$
