
  Mrv1652310211601342D          

 57 63  0  0  1  0            999 V2000
   -8.2024   -3.2525    0.0000 C   0  0  0  0  0  0  0  0  0  0  0  0
   -8.0465   -2.4423    0.0000 C   0  0  0  0  0  0  0  0  0  0  0  0
   -7.2669   -2.1723    0.0000 C   0  0  0  0  0  0  0  0  0  0  0  0
   -6.6433   -2.7124    0.0000 C   0  0  0  0  0  0  0  0  0  0  0  0
   -6.7992   -3.5225    0.0000 C   0  0  0  0  0  0  0  0  0  0  0  0
   -7.5788   -3.7926    0.0000 C   0  0  0  0  0  0  0  0  0  0  0  0
   -5.8637   -2.4423    0.0000 C   0  0  0  0  0  0  0  0  0  0  0  0
   -5.7078   -1.6322    0.0000 C   0  0  1  0  0  0  0  0  0  0  0  0
   -6.3315   -1.0921    0.0000 C   0  0  0  0  0  0  0  0  0  0  0  0
   -6.1756   -0.2820    0.0000 O   0  0  0  0  0  0  0  0  0  0  0  0
   -7.1110   -1.3622    0.0000 N   0  0  0  0  0  0  0  0  0  0  0  0
   -7.7347   -0.8221    0.0000 C   0  0  0  0  0  0  0  0  0  0  0  0
   -8.1360   -0.1012    0.0000 C   0  0  0  0  0  0  0  0  0  0  0  0
   -8.9609   -0.0884    0.0000 C   0  0  0  0  0  0  0  0  0  0  0  0
   -9.3845   -0.7963    0.0000 N   0  0  0  0  0  0  0  0  0  0  0  0
   -8.9832   -1.5172    0.0000 C   0  0  0  0  0  0  0  0  0  0  0  0
   -8.1583   -1.5300    0.0000 C   0  0  0  0  0  0  0  0  0  0  0  0
   -7.0945   -0.3017    0.0000 C   0  0  0  0  0  0  0  0  0  0  0  0
   -7.2251    0.5129    0.0000 O   0  0  0  0  0  0  0  0  0  0  0  0
   -6.4034    0.1489    0.0000 N   0  0  0  0  0  0  0  0  0  0  0  0
   -4.9283   -1.3622    0.0000 N   0  0  0  0  0  0  0  0  0  0  0  0
   -4.3046   -1.9022    0.0000 C   0  0  0  0  0  0  0  0  0  0  0  0
   -4.4605   -2.7124    0.0000 O   0  0  0  0  0  0  0  0  0  0  0  0
   -3.5251   -1.6322    0.0000 C   0  0  1  0  0  0  0  0  0  0  0  0
   -3.3692   -0.8221    0.0000 C   0  0  0  0  0  0  0  0  0  0  0  0
   -3.9928   -0.2820    0.0000 C   0  0  0  0  0  0  0  0  0  0  0  0
   -4.7963   -0.4691    0.0000 C   0  0  0  0  0  0  0  0  0  0  0  0
   -5.2225    0.2373    0.0000 N   0  0  0  0  0  0  0  0  0  0  0  0
   -4.6825    0.8610    0.0000 C   0  0  0  0  0  0  0  0  0  0  0  0
   -3.9224    0.5400    0.0000 C   0  0  0  0  0  0  0  0  0  0  0  0
   -3.2645    1.0377    0.0000 C   0  0  0  0  0  0  0  0  0  0  0  0
   -3.3666    1.8564    0.0000 C   0  0  0  0  0  0  0  0  0  0  0  0
   -4.1266    2.1773    0.0000 C   0  0  0  0  0  0  0  0  0  0  0  0
   -4.7845    1.6796    0.0000 C   0  0  0  0  0  0  0  0  0  0  0  0
   -2.9014   -2.1723    0.0000 N   0  0  0  0  0  0  0  0  0  0  0  0
   -2.1219   -1.9022    0.0000 C   0  0  0  0  0  0  0  0  0  0  0  0
   -1.9660   -1.0921    0.0000 O   0  0  0  0  0  0  0  0  0  0  0  0
   -1.4983   -2.4423    0.0000 C   0  0  1  0  0  0  0  0  0  0  0  0
   -1.6542   -3.2525    0.0000 C   0  0  0  0  0  0  0  0  0  0  0  0
   -1.0305   -3.7926    0.0000 C   0  0  0  0  0  0  0  0  0  0  0  0
   -1.1009   -4.6145    0.0000 C   0  0  0  0  0  0  0  0  0  0  0  0
   -0.3409   -4.9355    0.0000 S   0  0  0  0  0  0  0  0  0  0  0  0
    0.1992   -4.3118    0.0000 C   0  0  0  0  0  0  0  0  0  0  0  0
   -0.2270   -3.6055    0.0000 C   0  0  0  0  0  0  0  0  0  0  0  0
    0.1716   -2.8832    0.0000 C   0  0  0  0  0  0  0  0  0  0  0  0
    0.9965   -2.8672    0.0000 C   0  0  0  0  0  0  0  0  0  0  0  0
    1.4227   -3.5736    0.0000 C   0  0  0  0  0  0  0  0  0  0  0  0
    1.0241   -4.2959    0.0000 C   0  0  0  0  0  0  0  0  0  0  0  0
   -0.7187   -2.1723    0.0000 N   0  0  0  0  0  0  0  0  0  0  0  0
   -0.5628   -1.3622    0.0000 C   0  0  0  0  0  0  0  0  0  0  0  0
   -1.1864   -0.8221    0.0000 O   0  0  0  0  0  0  0  0  0  0  0  0
    0.2168   -1.0921    0.0000 C   0  0  0  0  0  0  0  0  0  0  0  0
    0.3727   -0.2820    0.0000 C   0  0  0  0  0  0  0  0  0  0  0  0
    1.1522   -0.0119    0.0000 C   0  0  0  0  0  0  0  0  0  0  0  0
    1.7759   -0.5520    0.0000 N   0  0  0  0  0  0  0  0  0  0  0  0
    1.6200   -1.3622    0.0000 C   0  0  0  0  0  0  0  0  0  0  0  0
    0.8404   -1.6322    0.0000 C   0  0  0  0  0  0  0  0  0  0  0  0
  1  2  2  0  0  0  0
  2  3  1  0  0  0  0
  3  4  2  0  0  0  0
  4  5  1  0  0  0  0
  5  6  2  0  0  0  0
  1  6  1  0  0  0  0
  4  7  1  0  0  0  0
  7  8  1  0  0  0  0
  8  9  1  0  0  0  0
  9 10  2  0  0  0  0
  9 11  1  0  0  0  0
 11 12  1  0  0  0  0
 12 13  1  0  0  0  0
 13 14  1  0  0  0  0
 14 15  1  0  0  0  0
 15 16  1  0  0  0  0
 16 17  1  0  0  0  0
 12 17  1  0  0  0  0
 12 18  1  0  0  0  0
 18 19  2  0  0  0  0
 18 20  1  0  0  0  0
  8 21  1  1  0  0  0
 21 22  1  0  0  0  0
 22 23  2  0  0  0  0
 22 24  1  0  0  0  0
 24 25  1  0  0  0  0
 25 26  1  0  0  0  0
 26 27  2  0  0  0  0
 27 28  1  0  0  0  0
 28 29  1  0  0  0  0
 29 30  1  0  0  0  0
 26 30  1  0  0  0  0
 30 31  2  0  0  0  0
 31 32  1  0  0  0  0
 32 33  2  0  0  0  0
 33 34  1  0  0  0  0
 29 34  2  0  0  0  0
 24 35  1  1  0  0  0
 35 36  1  0  0  0  0
 36 37  2  0  0  0  0
 36 38  1  0  0  0  0
 38 39  1  0  0  0  0
 39 40  1  0  0  0  0
 40 41  2  0  0  0  0
 41 42  1  0  0  0  0
 42 43  1  0  0  0  0
 43 44  1  0  0  0  0
 40 44  1  0  0  0  0
 44 45  2  0  0  0  0
 45 46  1  0  0  0  0
 46 47  2  0  0  0  0
 47 48  1  0  0  0  0
 43 48  2  0  0  0  0
 38 49  1  6  0  0  0
 49 50  1  0  0  0  0
 50 51  2  0  0  0  0
 50 52  1  0  0  0  0
 52 53  1  0  0  0  0
 53 54  1  0  0  0  0
 54 55  1  0  0  0  0
 55 56  1  0  0  0  0
 56 57  1  0  0  0  0
 52 57  1  0  0  0  0
M  END
> <DATABASE_ID>
DB12678

> <DATABASE_NAME>
drugbank

> <SMILES>
NC(=O)C1(CCNCC1)NC(=O)[C@H](CC1=CC=CC=C1)NC(=O)[C@@H](CC1=CNC2=CC=CC=C12)NC(=O)[C@@H](CC1=CSC2=CC=CC=C12)NC(=O)C1CCNCC1

> <INCHI_IDENTIFIER>
InChI=1S/C43H50N8O5S/c44-42(56)43(16-20-46-21-17-43)51-41(55)34(22-27-8-2-1-3-9-27)49-39(53)35(23-29-25-47-33-12-6-4-10-31(29)33)50-40(54)36(48-38(52)28-14-18-45-19-15-28)24-30-26-57-37-13-7-5-11-32(30)37/h1-13,25-26,28,34-36,45-47H,14-24H2,(H2,44,56)(H,48,52)(H,49,53)(H,50,54)(H,51,55)/t34-,35+,36+/m0/s1

> <INCHI_KEY>
KUBPNVYPKPWGRJ-LIVOIKKVSA-N

> <FORMULA>
C43H50N8O5S

> <MOLECULAR_WEIGHT>
790.98

> <EXACT_MASS>
790.362487916

> <JCHEM_ACCEPTOR_COUNT>
7

> <JCHEM_ATOM_COUNT>
107

> <JCHEM_AVERAGE_POLARIZABILITY>
84.58243002754708

> <JCHEM_BIOAVAILABILITY>
0

> <JCHEM_DONOR_COUNT>
8

> <JCHEM_FORMAL_CHARGE>
0

> <JCHEM_GHOSE_FILTER>
0

> <JCHEM_IUPAC>
4-[(2S)-2-[(2R)-2-[(2R)-3-(1-benzothiophen-3-yl)-2-[(piperidin-4-yl)formamido]propanamido]-3-(1H-indol-3-yl)propanamido]-3-phenylpropanamido]piperidine-4-carboxamide

> <ALOGPS_LOGP>
2.82

> <JCHEM_LOGP>
2.174120558999998

> <ALOGPS_LOGS>
-5.80

> <JCHEM_MDDR_LIKE_RULE>
1

> <JCHEM_NUMBER_OF_RINGS>
7

> <JCHEM_PHYSIOLOGICAL_CHARGE>
2

> <JCHEM_PKA>
12.423737833918665

> <JCHEM_PKA_STRONGEST_ACIDIC>
11.849233504808492

> <JCHEM_PKA_STRONGEST_BASIC>
10.313905468116582

> <JCHEM_POLAR_SURFACE_AREA>
199.33999999999997

> <JCHEM_REFRACTIVITY>
218.07299999999998

> <JCHEM_ROTATABLE_BOND_COUNT>
15

> <JCHEM_RULE_OF_FIVE>
0

> <ALOGPS_SOLUBILITY>
1.26e-03 g/l

> <JCHEM_TRADITIONAL_IUPAC>
4-[(2S)-2-[(2R)-2-[(2R)-3-(1-benzothiophen-3-yl)-2-(piperidin-4-ylformamido)propanamido]-3-(1H-indol-3-yl)propanamido]-3-phenylpropanamido]piperidine-4-carboxamide

> <JCHEM_VEBER_RULE>
0

> <DRUGBANK_ID>
DB12678

> <DRUG_GROUPS>
investigational

> <GENERIC_NAME>
Relamorelin

> <SYNONYMS>
Relamorelin

$$$$
