
  Mrv1718009011819432D          

 35 38  0  0  0  0            999 V2000
   -5.7158    9.0750    0.0000 C   0  0  0  0  0  0  0  0  0  0  0  0
   -5.0013    9.4875    0.0000 C   0  0  0  0  0  0  0  0  0  0  0  0
   -4.2868    9.0750    0.0000 C   0  0  0  0  0  0  0  0  0  0  0  0
   -3.5724    9.4875    0.0000 C   0  0  0  0  0  0  0  0  0  0  0  0
   -2.8579    9.0750    0.0000 C   0  0  0  0  0  0  0  0  0  0  0  0
   -2.1434    9.4875    0.0000 C   0  0  0  0  0  0  0  0  0  0  0  0
   -1.4289    9.0750    0.0000 C   0  0  0  0  0  0  0  0  0  0  0  0
   -1.4289    8.2500    0.0000 O   0  0  0  0  0  0  0  0  0  0  0  0
   -0.7145    9.4875    0.0000 O   0  0  0  0  0  0  0  0  0  0  0  0
    0.0000    9.0750    0.0000 C   0  0  0  0  0  0  0  0  0  0  0  0
    0.7145    9.4875    0.0000 C   0  0  0  0  0  0  0  0  0  0  0  0
    1.4289    9.0750    0.0000 N   0  0  0  0  0  0  0  0  0  0  0  0
    2.1434    9.4875    0.0000 C   0  0  0  0  0  0  0  0  0  0  0  0
    2.8579    9.0750    0.0000 C   0  0  0  0  0  0  0  0  0  0  0  0
    2.8579    8.2500    0.0000 N   0  0  0  0  0  0  0  0  0  0  0  0
    2.1434    7.8375    0.0000 C   0  0  0  0  0  0  0  0  0  0  0  0
    1.4289    8.2500    0.0000 C   0  0  0  0  0  0  0  0  0  0  0  0
    3.5724    7.8375    0.0000 C   0  0  0  0  0  0  0  0  0  0  0  0
    4.2868    8.2500    0.0000 C   0  0  0  0  0  0  0  0  0  0  0  0
    5.0013    7.8375    0.0000 C   0  0  0  0  0  0  0  0  0  0  0  0
    5.7158    8.2500    0.0000 N   0  0  0  0  0  0  0  0  0  0  0  0
    6.4302    7.8375    0.0000 C   0  0  0  0  0  0  0  0  0  0  0  0
    6.4302    7.0125    0.0000 C   0  0  0  0  0  0  0  0  0  0  0  0
    7.1447    6.6000    0.0000 C   0  0  0  0  0  0  0  0  0  0  0  0
    7.8592    7.0125    0.0000 C   0  0  0  0  0  0  0  0  0  0  0  0
    7.8592    7.8375    0.0000 C   0  0  0  0  0  0  0  0  0  0  0  0
    7.1447    8.2500    0.0000 C   0  0  0  0  0  0  0  0  0  0  0  0
    7.1447    9.0750    0.0000 S   0  0  0  0  0  0  0  0  0  0  0  0
    6.4302    9.4875    0.0000 C   0  0  0  0  0  0  0  0  0  0  0  0
    5.7158    9.0750    0.0000 C   0  0  0  0  0  0  0  0  0  0  0  0
    5.0013    9.4875    0.0000 C   0  0  0  0  0  0  0  0  0  0  0  0
    5.0013   10.3125    0.0000 C   0  0  0  0  0  0  0  0  0  0  0  0
    5.7158   10.7250    0.0000 C   0  0  0  0  0  0  0  0  0  0  0  0
    6.4302   10.3125    0.0000 C   0  0  0  0  0  0  0  0  0  0  0  0
    4.2868   10.7250    0.0000 Cl  0  0  0  0  0  0  0  0  0  0  0  0
  1  2  1  0  0  0  0
  2  3  1  0  0  0  0
  3  4  1  0  0  0  0
  4  5  1  0  0  0  0
  5  6  1  0  0  0  0
  6  7  1  0  0  0  0
  7  8  2  0  0  0  0
  7  9  1  0  0  0  0
  9 10  1  0  0  0  0
 10 11  1  0  0  0  0
 11 12  1  0  0  0  0
 12 13  1  0  0  0  0
 13 14  1  0  0  0  0
 14 15  1  0  0  0  0
 15 16  1  0  0  0  0
 16 17  1  0  0  0  0
 12 17  1  0  0  0  0
 15 18  1  0  0  0  0
 18 19  1  0  0  0  0
 19 20  1  0  0  0  0
 20 21  1  0  0  0  0
 21 22  1  0  0  0  0
 22 23  2  0  0  0  0
 23 24  1  0  0  0  0
 24 25  2  0  0  0  0
 25 26  1  0  0  0  0
 26 27  2  0  0  0  0
 22 27  1  0  0  0  0
 27 28  1  0  0  0  0
 28 29  1  0  0  0  0
 29 30  2  0  0  0  0
 21 30  1  0  0  0  0
 30 31  1  0  0  0  0
 31 32  2  0  0  0  0
 32 33  1  0  0  0  0
 33 34  2  0  0  0  0
 29 34  1  0  0  0  0
 32 35  1  0  0  0  0
M  END
> <DATABASE_ID>
DB14651

> <DATABASE_NAME>
drugbank

> <SMILES>
CCCCCCC(=O)OCCN1CCN(CCCN2C3=CC=CC=C3SC3=C2C=C(Cl)C=C3)CC1

> <INCHI_IDENTIFIER>
InChI=1S/C28H38ClN3O2S/c1-2-3-4-5-11-28(33)34-21-20-31-18-16-30(17-19-31)14-8-15-32-24-9-6-7-10-26(24)35-27-13-12-23(29)22-25(27)32/h6-7,9-10,12-13,22H,2-5,8,11,14-21H2,1H3

> <INCHI_KEY>
PWEGQJCIAMJJHC-UHFFFAOYSA-N

> <FORMULA>
C28H38ClN3O2S

> <MOLECULAR_WEIGHT>
516.14

> <EXACT_MASS>
515.2373263

> <JCHEM_ACCEPTOR_COUNT>
4

> <JCHEM_ATOM_COUNT>
73

> <JCHEM_AVERAGE_POLARIZABILITY>
59.95411913257328

> <JCHEM_BIOAVAILABILITY>
0

> <JCHEM_DONOR_COUNT>
0

> <JCHEM_FORMAL_CHARGE>
0

> <JCHEM_GHOSE_FILTER>
0

> <JCHEM_IUPAC>
2-{4-[3-(2-chloro-10H-phenothiazin-10-yl)propyl]piperazin-1-yl}ethyl heptanoate

> <ALOGPS_LOGP>
6.41

> <JCHEM_LOGP>
6.611953726666665

> <ALOGPS_LOGS>
-5.97

> <JCHEM_MDDR_LIKE_RULE>
1

> <JCHEM_NUMBER_OF_RINGS>
4

> <JCHEM_PHYSIOLOGICAL_CHARGE>
1

> <JCHEM_PKA_STRONGEST_BASIC>
7.478595184617965

> <JCHEM_POLAR_SURFACE_AREA>
36.02

> <JCHEM_REFRACTIVITY>
148.28109999999995

> <JCHEM_ROTATABLE_BOND_COUNT>
13

> <JCHEM_RULE_OF_FIVE>
0

> <ALOGPS_SOLUBILITY>
5.57e-04 g/l

> <JCHEM_TRADITIONAL_IUPAC>
2-{4-[3-(2-chlorophenothiazin-10-yl)propyl]piperazin-1-yl}ethyl heptanoate

> <JCHEM_VEBER_RULE>
0

> <DRUGBANK_ID>
DB14651

> <SECONDARY_ACCESSION_NUMBERS>
DBSALT000936

> <DRUG_GROUPS>
experimental

> <GENERIC_NAME>
Perphenazine enanthate

> <SYNONYMS>
Perphenazine enantate

$$$$
