
  Mrv1652310201622392D          

 16 15  0  0  1  0            999 V2000
    1.6500   -2.8579    0.0000 C   0  0  0  0  0  0  0  0  0  0  0  0
    1.2375   -2.1434    0.0000 S   0  0  0  0  0  0  0  0  0  0  0  0
    1.9520   -1.7309    0.0000 O   0  0  0  0  0  0  0  0  0  0  0  0
    0.5230   -2.5559    0.0000 O   0  0  0  0  0  0  0  0  0  0  0  0
    0.8250   -1.4289    0.0000 O   0  0  0  0  0  0  0  0  0  0  0  0
    1.2375   -0.7145    0.0000 C   0  0  0  0  0  0  0  0  0  0  0  0
    0.8250    0.0000    0.0000 C   0  0  1  0  0  0  0  0  0  0  0  0
    1.2375    0.7145    0.0000 C   0  0  2  0  0  0  0  0  0  0  0  0
    0.8250    1.4289    0.0000 C   0  0  0  0  0  0  0  0  0  0  0  0
    1.2375    2.1434    0.0000 O   0  0  0  0  0  0  0  0  0  0  0  0
    0.8250    2.8579    0.0000 S   0  0  0  0  0  0  0  0  0  0  0  0
    0.4125    3.5724    0.0000 O   0  0  0  0  0  0  0  0  0  0  0  0
    1.5395    3.2704    0.0000 O   0  0  0  0  0  0  0  0  0  0  0  0
    0.1105    2.4454    0.0000 C   0  0  0  0  0  0  0  0  0  0  0  0
    2.0625    0.7145    0.0000 O   0  0  0  0  0  0  0  0  0  0  0  0
    0.0000    0.0000    0.0000 O   0  0  0  0  0  0  0  0  0  0  0  0
  1  2  1  0  0  0  0
  2  3  2  0  0  0  0
  2  4  2  0  0  0  0
  2  5  1  0  0  0  0
  5  6  1  0  0  0  0
  6  7  1  0  0  0  0
  7  8  1  0  0  0  0
  8  9  1  0  0  0  0
  9 10  1  0  0  0  0
 10 11  1  0  0  0  0
 11 12  2  0  0  0  0
 11 13  2  0  0  0  0
 11 14  1  0  0  0  0
  8 15  1  6  0  0  0
  7 16  1  6  0  0  0
M  END
> <DATABASE_ID>
DB11678

> <DATABASE_NAME>
drugbank

> <SMILES>
CS(=O)(=O)OC[C@H](O)[C@@H](O)COS(C)(=O)=O

> <INCHI_IDENTIFIER>
InChI=1S/C6H14O8S2/c1-15(9,10)13-3-5(7)6(8)4-14-16(2,11)12/h5-8H,3-4H2,1-2H3/t5-,6-/m0/s1

> <INCHI_KEY>
YCPOZVAOBBQLRI-WDSKDSINSA-N

> <FORMULA>
C6H14O8S2

> <MOLECULAR_WEIGHT>
278.29

> <EXACT_MASS>
278.013009759

> <JCHEM_ACCEPTOR_COUNT>
6

> <JCHEM_ATOM_COUNT>
30

> <JCHEM_AVERAGE_POLARIZABILITY>
24.928094015033032

> <JCHEM_BIOAVAILABILITY>
1

> <JCHEM_DONOR_COUNT>
2

> <JCHEM_FORMAL_CHARGE>
0

> <JCHEM_GHOSE_FILTER>
0

> <JCHEM_IUPAC>
(2S,3S)-2,3-dihydroxy-4-(methanesulfonyloxy)butyl methanesulfonate

> <ALOGPS_LOGP>
-1.53

> <JCHEM_LOGP>
-2.5970205199999996

> <ALOGPS_LOGS>
-1.21

> <JCHEM_MDDR_LIKE_RULE>
0

> <JCHEM_NUMBER_OF_RINGS>
0

> <JCHEM_PHYSIOLOGICAL_CHARGE>
0

> <JCHEM_PKA>
14.42764061572851

> <JCHEM_PKA_STRONGEST_ACIDIC>
12.989807576484225

> <JCHEM_PKA_STRONGEST_BASIC>
-3.5463876459423735

> <JCHEM_POLAR_SURFACE_AREA>
127.20000000000002

> <JCHEM_REFRACTIVITY>
51.983599999999996

> <JCHEM_ROTATABLE_BOND_COUNT>
7

> <JCHEM_RULE_OF_FIVE>
1

> <ALOGPS_SOLUBILITY>
1.70e+01 g/l

> <JCHEM_TRADITIONAL_IUPAC>
treosulphan

> <JCHEM_VEBER_RULE>
0

> <DRUGBANK_ID>
DB11678

> <DRUG_GROUPS>
approved; investigational

> <GENERIC_NAME>
Treosulfan

> <SYNONYMS>
DIHYDROXYBUSULFAN; OVASTAT; Treosulfan

> <PRODUCTS>
Trecondi; Trecondyv

$$$$
