
  Mrv1909 01172002212D          

 27 30  0  0  0  0            999 V2000
    0.7231   -1.0619    0.0000 C   0  0  1  0  0  0  0  0  0  0  0  0
    0.0105   -0.6462    0.0000 C   0  0  0  0  0  0  0  0  0  0  0  0
   -0.3109   -1.8514    0.0000 C   0  0  0  0  0  0  0  0  0  0  0  0
    1.4357   -0.6462    0.0000 C   0  0  0  0  0  0  0  0  0  0  0  0
    0.7196   -1.8828    0.0000 C   0  0  0  0  0  0  0  0  0  0  0  0
   -0.7021   -1.0584    0.0000 C   0  0  0  0  0  0  0  0  0  0  0  0
    0.0105    0.1780    0.0000 C   0  0  0  0  0  0  0  0  0  0  0  0
   -0.3073   -2.6793    0.0000 C   0  0  0  0  0  0  0  0  0  0  0  0
   -1.0234   -1.4392    0.0000 C   0  0  0  0  0  0  0  0  0  0  0  0
    2.1483   -1.0654    0.0000 N   0  0  0  0  0  0  0  0  0  0  0  0
    1.4357    0.1746    0.0000 O   0  0  0  0  0  0  0  0  0  0  0  0
    1.4288   -2.2950    0.0000 C   0  0  0  0  0  0  0  0  0  0  0  0
   -1.4112   -0.6497    0.0000 C   0  0  0  0  0  0  0  0  0  0  0  0
   -0.7055    0.5903    0.0000 C   0  0  0  0  0  0  0  0  0  0  0  0
   -1.0234   -3.0880    0.0000 C   0  0  0  0  0  0  0  0  0  0  0  0
   -1.7326   -1.8549    0.0000 C   0  0  0  0  0  0  0  0  0  0  0  0
    2.1449   -1.8864    0.0000 C   0  0  0  0  0  0  0  0  0  0  0  0
   -1.4112    0.1746    0.0000 N   0  0  0  0  0  0  0  0  0  0  0  0
   -1.7361   -2.6828    0.0000 C   0  0  0  0  0  0  0  0  0  0  0  0
    2.8575   -2.3020    0.0000 O   0  0  0  0  0  0  0  0  0  0  0  0
   -2.1274    0.5833    0.0000 C   0  0  0  0  0  0  0  0  0  0  0  0
   -2.1274    1.4182    0.0000 C   0  0  0  0  0  0  0  0  0  0  0  0
   -1.4042    1.8374    0.0000 C   0  0  0  0  0  0  0  0  0  0  0  0
   -2.8505    1.8304    0.0000 C   0  0  0  0  0  0  0  0  0  0  0  0
   -1.4077    2.6723    0.0000 C   0  0  0  0  0  0  0  0  0  0  0  0
   -2.8575    2.6618    0.0000 C   0  0  0  0  0  0  0  0  0  0  0  0
   -2.1308    3.0880    0.0000 C   0  0  0  0  0  0  0  0  0  0  0  0
  1  2  1  0  0  0  0
  1  3  1  6  0  0  0
  1  4  1  0  0  0  0
  1  5  1  0  0  0  0
  2  6  1  0  0  0  0
  2  7  1  0  0  0  0
  3  8  1  0  0  0  0
  3  9  2  0  0  0  0
  4 10  1  0  0  0  0
  4 11  2  0  0  0  0
  5 12  1  0  0  0  0
  6 13  1  0  0  0  0
  7 14  1  0  0  0  0
  8 15  2  0  0  0  0
  9 16  1  0  0  0  0
 10 17  1  0  0  0  0
 13 18  1  0  0  0  0
 15 19  1  0  0  0  0
 17 20  2  0  0  0  0
 18 21  1  0  0  0  0
 21 22  1  0  0  0  0
 22 23  2  0  0  0  0
 22 24  1  0  0  0  0
 23 25  1  0  0  0  0
 24 26  2  0  0  0  0
 25 27  2  0  0  0  0
 12 17  1  0  0  0  0
 14 18  1  0  0  0  0
 16 19  2  0  0  0  0
 26 27  1  0  0  0  0
M  END
> <DATABASE_ID>
DB08997

> <DATABASE_NAME>
drugbank

> <SMILES>
O=C1CC[C@@](C2CCN(CC3=CC=CC=C3)CC2)(C(=O)N1)C1=CC=CC=C1

> <INCHI_IDENTIFIER>
InChI=1S/C23H26N2O2/c26-21-11-14-23(22(27)24-21,19-9-5-2-6-10-19)20-12-15-25(16-13-20)17-18-7-3-1-4-8-18/h1-10,20H,11-17H2,(H,24,26,27)/t23-/m1/s1

> <INCHI_KEY>
LQQIVYSCPWCSSD-HSZRJFAPSA-N

> <FORMULA>
C23H26N2O2

> <MOLECULAR_WEIGHT>
362.4647

> <EXACT_MASS>
362.199428086

> <JCHEM_ACCEPTOR_COUNT>
3

> <JCHEM_ATOM_COUNT>
53

> <JCHEM_AVERAGE_NEUTRAL_MICROSPECIES_CHARGE>
0.9784301835195395

> <JCHEM_AVERAGE_POLARIZABILITY>
40.51678226907438

> <JCHEM_BIOAVAILABILITY>
1

> <JCHEM_DONOR_COUNT>
1

> <JCHEM_FORMAL_CHARGE>
0

> <JCHEM_GHOSE_FILTER>
1

> <JCHEM_IUPAC>
(3S)-1'-benzyl-3-phenyl-[3,4'-bipiperidine]-2,6-dione

> <ALOGPS_LOGP>
3.54

> <JCHEM_LOGP>
3.3830662353333327

> <ALOGPS_LOGS>
-4.89

> <JCHEM_MDDR_LIKE_RULE>
0

> <JCHEM_NEUTRAL_CHARGE>
1

> <JCHEM_NUMBER_OF_RINGS>
4

> <JCHEM_PHYSIOLOGICAL_CHARGE>
1

> <JCHEM_PKA_STRONGEST_ACIDIC>
11.68951715187842

> <JCHEM_PKA_STRONGEST_BASIC>
8.657104590532573

> <JCHEM_POLAR_SURFACE_AREA>
49.410000000000004

> <JCHEM_REFRACTIVITY>
106.34

> <JCHEM_ROTATABLE_BOND_COUNT>
4

> <JCHEM_RULE_OF_FIVE>
1

> <ALOGPS_SOLUBILITY>
4.69e-03 g/l

> <JCHEM_TRADITIONAL_IUPAC>
edaglitazone

> <JCHEM_VEBER_RULE>
0

> <DRUGBANK_ID>
DB08997

> <DRUG_GROUPS>
withdrawn

> <GENERIC_NAME>
Dexetimide

> <SYNONYMS>
Dexetimida; Dexetimide; Dexetimidum

> <INTERNATIONAL_BRANDS>
Tremblex

> <SALTS>
Dexetimide hydrochloride

$$$$
