
  Mrv1572004221606572D          

 38 41  0  0  0  0            999 V2000
   -0.1876    1.5150    0.0000 C   0  0  0  0  0  0  0  0  0  0  0  0
    7.8592   -2.8875    0.0000 C   0  0  0  0  0  0  0  0  0  0  0  0
   -4.4816    2.8687    0.0000 C   0  0  0  0  0  0  0  0  0  0  0  0
   -4.1461    2.1150    0.0000 C   0  0  0  0  0  0  0  0  0  0  0  0
   -3.9967    3.5361    0.0000 C   0  0  0  0  0  0  0  0  0  0  0  0
   -3.3256    2.0288    0.0000 C   0  0  0  0  0  0  0  0  0  0  0  0
   -3.1762    3.4499    0.0000 C   0  0  0  0  0  0  0  0  0  0  0  0
    3.5724    2.8875    0.0000 C   0  0  0  0  0  0  0  0  0  0  0  0
    2.8579    1.6500    0.0000 C   0  0  0  0  0  0  0  0  0  0  0  0
    2.8579    3.3000    0.0000 C   0  0  0  0  0  0  0  0  0  0  0  0
    2.1434    2.0625    0.0000 C   0  0  0  0  0  0  0  0  0  0  0  0
    7.1447   -0.8250    0.0000 C   0  0  0  0  0  0  0  0  0  0  0  0
    6.4302   -2.0625    0.0000 C   0  0  0  0  0  0  0  0  0  0  0  0
    6.4302   -0.4125    0.0000 C   0  0  0  0  0  0  0  0  0  0  0  0
    5.7158   -1.6500    0.0000 C   0  0  0  0  0  0  0  0  0  0  0  0
   -0.0000    3.3000    0.0000 C   0  0  0  0  0  0  0  0  0  0  0  0
    0.7145    2.8875    0.0000 C   0  0  0  0  0  0  0  0  0  0  0  0
    4.2868    1.6500    0.0000 C   0  0  0  0  0  0  0  0  0  0  0  0
    3.5724    0.4125    0.0000 C   0  0  0  0  0  0  0  0  0  0  0  0
   -0.8007    2.0670    0.0000 C   0  0  0  0  0  0  0  0  0  0  0  0
    3.5724    2.0625    0.0000 C   0  0  0  0  0  0  0  0  0  0  0  0
   -2.8407    2.6962    0.0000 C   0  0  0  0  0  0  0  0  0  0  0  0
    7.1447   -1.6500    0.0000 C   0  0  0  0  0  0  0  0  0  0  0  0
    2.1434    2.8875    0.0000 C   0  0  0  0  0  0  0  0  0  0  0  0
    5.7158   -0.8250    0.0000 C   0  0  0  0  0  0  0  0  0  0  0  0
   -0.7145    2.8875    0.0000 C   0  0  0  0  0  0  0  0  0  0  0  0
    3.5724   -0.4125    0.0000 C   0  0  0  0  0  0  0  0  0  0  0  0
   -2.0202    2.6100    0.0000 C   0  0  0  0  0  0  0  0  0  0  0  0
    5.0013    0.4125    0.0000 C   0  0  0  0  0  0  0  0  0  0  0  0
   -1.4681    3.2231    0.0000 N   0  0  0  0  0  0  0  0  0  0  0  0
    4.2868    0.8250    0.0000 N   0  0  0  0  0  0  0  0  0  0  0  0
    4.2868   -0.8250    0.0000 O   0  0  0  0  0  0  0  0  0  0  0  0
    2.8579   -0.8250    0.0000 O   0  0  0  0  0  0  0  0  0  0  0  0
    5.7158    0.8250    0.0000 O   0  0  0  0  0  0  0  0  0  0  0  0
    7.8592   -2.0625    0.0000 O   0  0  0  0  0  0  0  0  0  0  0  0
    1.4289    3.3000    0.0000 O   0  0  0  0  0  0  0  0  0  0  0  0
   -1.6077    1.8955    0.0000 O   0  0  0  0  0  0  0  0  0  0  0  0
    5.0013   -0.4125    0.0000 O   0  0  0  0  0  0  0  0  0  0  0  0
  4  3  2  0  0  0  0
  5  3  1  0  0  0  0
  6  4  1  0  0  0  0
  7  5  2  0  0  0  0
 10  8  1  0  0  0  0
 11  9  2  0  0  0  0
 14 12  1  0  0  0  0
 15 13  2  0  0  0  0
 17 16  1  0  0  0  0
 20  1  1  0  0  0  0
 21  8  2  0  0  0  0
 21  9  1  0  0  0  0
 21 18  1  0  0  0  0
 22  6  2  0  0  0  0
 22  7  1  0  0  0  0
 23 12  2  0  0  0  0
 23 13  1  0  0  0  0
 24 10  2  0  0  0  0
 24 11  1  0  0  0  0
 25 14  2  0  0  0  0
 25 15  1  0  0  0  0
 26 16  1  0  0  0  0
 26 20  2  0  0  0  0
 27 19  1  0  0  0  0
 28 22  1  0  0  0  0
 30 26  1  0  0  0  0
 30 28  2  0  0  0  0
 31 18  1  0  0  0  0
 31 19  1  0  0  0  0
 31 29  1  0  0  0  0
 32 27  2  0  0  0  0
 33 27  1  0  0  0  0
 34 29  2  0  0  0  0
 35  2  1  0  0  0  0
 35 23  1  0  0  0  0
 36 17  1  0  0  0  0
 36 24  1  0  0  0  0
 37 20  1  0  0  0  0
 37 28  1  0  0  0  0
 38 25  1  0  0  0  0
 38 29  1  0  0  0  0
M  END
> <DATABASE_ID>
DB06510

> <DATABASE_NAME>
drugbank

> <SMILES>
COC1=CC=C(OC(=O)N(CC(O)=O)CC2=CC=C(OCCC3=C(C)OC(=N3)C3=CC=CC=C3)C=C2)C=C1

> <INCHI_IDENTIFIER>
InChI=1S/C29H28N2O7/c1-20-26(30-28(37-20)22-6-4-3-5-7-22)16-17-36-24-10-8-21(9-11-24)18-31(19-27(32)33)29(34)38-25-14-12-23(35-2)13-15-25/h3-15H,16-19H2,1-2H3,(H,32,33)

> <INCHI_KEY>
IRLWJILLXJGJTD-UHFFFAOYSA-N

> <FORMULA>
C29H28N2O7

> <MOLECULAR_WEIGHT>
516.55

> <EXACT_MASS>
516.18965125

> <JCHEM_ACCEPTOR_COUNT>
6

> <JCHEM_ATOM_COUNT>
66

> <JCHEM_AVERAGE_POLARIZABILITY>
54.85324869081978

> <JCHEM_BIOAVAILABILITY>
0

> <JCHEM_DONOR_COUNT>
1

> <JCHEM_FORMAL_CHARGE>
0

> <JCHEM_GHOSE_FILTER>
0

> <JCHEM_IUPAC>
2-{[(4-methoxyphenoxy)carbonyl]({4-[2-(5-methyl-2-phenyl-1,3-oxazol-4-yl)ethoxy]phenyl}methyl)amino}acetic acid

> <ALOGPS_LOGP>
5.04

> <JCHEM_LOGP>
4.790607983333334

> <ALOGPS_LOGS>
-4.60

> <JCHEM_MDDR_LIKE_RULE>
1

> <JCHEM_NUMBER_OF_RINGS>
4

> <JCHEM_PHYSIOLOGICAL_CHARGE>
-1

> <JCHEM_PKA_STRONGEST_ACIDIC>
3.185523196585518

> <JCHEM_PKA_STRONGEST_BASIC>
0.9306294815795827

> <JCHEM_POLAR_SURFACE_AREA>
111.33000000000001

> <JCHEM_REFRACTIVITY>
149.0346

> <JCHEM_ROTATABLE_BOND_COUNT>
12

> <JCHEM_RULE_OF_FIVE>
0

> <ALOGPS_SOLUBILITY>
1.29e-02 g/l

> <JCHEM_TRADITIONAL_IUPAC>
muraglitazar

> <JCHEM_VEBER_RULE>
0

> <DRUGBANK_ID>
DB06510

> <DRUG_GROUPS>
investigational

> <GENERIC_NAME>
Muraglitazar

> <SYNONYMS>
Muraglitazar

$$$$
