
  Mrv1909 02092017072D          

 39 43  0  0  0  0            999 V2000
   -1.0976    0.2405    0.0000 C   0  0  0  0  0  0  0  0  0  0  0  0
   -0.3114    0.0361    0.0000 O   0  0  0  0  0  0  0  0  0  0  0  0
   -1.7041   -0.3280    0.0000 N   0  0  0  0  0  0  0  0  0  0  0  0
   -1.2757    1.0646    0.0000 N   0  0  0  0  0  0  0  0  0  0  0  0
   -3.1694   -0.5619    0.0000 N   0  0  0  0  0  0  0  0  0  0  0  0
   -3.8186   -0.0807    0.0000 N   0  0  0  0  0  0  0  0  0  0  0  0
   -2.7705    0.7037    0.0000 C   0  0  0  0  0  0  0  0  0  0  0  0
   -3.5633    0.7037    0.0000 C   0  0  0  0  0  0  0  0  0  0  0  0
   -2.4887   -0.0725    0.0000 C   0  0  0  0  0  0  0  0  0  0  0  0
   -4.0791    1.3597    0.0000 C   0  0  0  0  0  0  0  0  0  0  0  0
   -2.4425   -1.8130    0.0000 C   0  0  0  0  0  0  0  0  0  0  0  0
   -3.1447   -1.3812    0.0000 C   0  0  0  0  0  0  0  0  0  0  0  0
   -3.8748   -1.8179    0.0000 C   0  0  0  0  0  0  0  0  0  0  0  0
   -3.8501   -2.6370    0.0000 C   0  0  0  0  0  0  0  0  0  0  0  0
   -3.1216   -3.0441    0.0000 C   0  0  0  0  0  0  0  0  0  0  0  0
   -2.4179   -2.6321    0.0000 C   0  0  0  0  0  0  0  0  0  0  0  0
   -3.1232   -3.8880    0.0000 C   0  0  0  0  0  0  0  0  0  0  0  0
    0.0642    1.3794    0.0000 C   0  0  0  0  0  0  0  0  0  0  0  0
    0.6707    1.9480    0.0000 C   0  0  0  0  0  0  0  0  0  0  0  0
    0.2686    0.5801    0.0000 C   0  0  0  0  0  0  0  0  0  0  0  0
    1.4552    1.6926    0.0000 C   0  0  0  0  0  0  0  0  0  0  0  0
    0.5174    2.7458    0.0000 C   0  0  0  0  0  0  0  0  0  0  0  0
   -0.6956    1.6085    0.0000 C   0  0  0  0  0  0  0  0  0  0  0  0
   -0.8735    2.4326    0.0000 C   0  0  0  0  0  0  0  0  0  0  0  0
   -0.2422    2.9748    0.0000 C   0  0  0  0  0  0  0  0  0  0  0  0
    1.6596    0.8932    0.0000 C   0  0  0  0  0  0  0  0  0  0  0  0
    1.0531    0.3246    0.0000 C   0  0  0  0  0  0  0  0  0  0  0  0
    1.1487    3.2880    0.0000 O   0  0  0  0  0  0  0  0  0  0  0  0
    1.9333    3.0325    0.0000 C   0  0  0  0  0  0  0  0  0  0  0  0
    2.5134    3.5763    0.0000 C   0  0  0  0  0  0  0  0  0  0  0  0
    3.3243    3.3456    0.0000 N   0  0  0  0  0  0  0  0  0  0  0  0
    4.8934    2.8348    0.0000 O   0  0  0  0  0  0  0  0  0  0  0  0
    3.9555    3.8880    0.0000 C   0  0  0  0  0  0  0  0  0  0  0  0
    3.5024    2.5216    0.0000 C   0  0  0  0  0  0  0  0  0  0  0  0
    4.2868    2.2662    0.0000 C   0  0  0  0  0  0  0  0  0  0  0  0
    4.7136    3.6077    0.0000 C   0  0  0  0  0  0  0  0  0  0  0  0
   -3.7735    2.1233    0.0000 C   0  0  0  0  0  0  0  0  0  0  0  0
   -4.8934    1.2426    0.0000 C   0  0  0  0  0  0  0  0  0  0  0  0
   -4.6608    1.9413    0.0000 C   0  0  0  0  0  0  0  0  0  0  0  0
  2  1  2  0  0  0  0
  3  1  1  0  0  0  0
  4  1  1  0  0  0  0
  9  3  1  0  0  0  0
 23  4  1  0  0  0  0
  6  5  1  0  0  0  0
  9  5  1  0  0  0  0
 12  5  1  0  0  0  0
  8  6  2  0  0  0  0
  8  7  1  0  0  0  0
  9  7  2  0  0  0  0
 10  8  1  0  0  0  0
 16 11  2  0  0  0  0
 12 11  1  0  0  0  0
 13 12  2  0  0  0  0
 14 13  1  0  0  0  0
 15 14  2  0  0  0  0
 16 15  1  0  0  0  0
 17 15  1  0  0  0  0
 19 18  2  0  0  0  0
 20 18  1  0  0  0  0
 23 18  1  0  0  0  0
 21 19  1  0  0  0  0
 22 19  1  0  0  0  0
 27 20  2  0  0  0  0
 26 21  2  0  0  0  0
 25 22  2  0  0  0  0
 28 22  1  0  0  0  0
 24 23  2  0  0  0  0
 25 24  1  0  0  0  0
 27 26  1  0  0  0  0
 29 28  1  0  0  0  0
 30 29  1  0  0  0  0
 31 30  1  0  0  0  0
 33 31  1  0  0  0  0
 34 31  1  0  0  0  0
 35 32  1  0  0  0  0
 36 32  1  0  0  0  0
 36 33  1  0  0  0  0
 35 34  1  0  0  0  0
 10 37  1  0  0  0  0
 10 38  1  0  0  0  0
 10 39  1  0  0  0  0
M  END
> <DATABASE_ID>
DB03044

> <DATABASE_NAME>
drugbank

> <SMILES>
CC1=CC=C(C=C1)N1N=C(C=C1NC(=O)NC1=CC=C(OCCN2CCOCC2)C2=C1C=CC=C2)C(C)(C)C

> <INCHI_IDENTIFIER>
InChI=1S/C31H37N5O3/c1-22-9-11-23(12-10-22)36-29(21-28(34-36)31(2,3)4)33-30(37)32-26-13-14-27(25-8-6-5-7-24(25)26)39-20-17-35-15-18-38-19-16-35/h5-14,21H,15-20H2,1-4H3,(H2,32,33,37)

> <INCHI_KEY>
MVCOAUNKQVWQHZ-UHFFFAOYSA-N

> <FORMULA>
C31H37N5O3

> <MOLECULAR_WEIGHT>
527.6572

> <EXACT_MASS>
527.289640075

> <JCHEM_ACCEPTOR_COUNT>
5

> <JCHEM_ATOM_COUNT>
76

> <JCHEM_AVERAGE_NEUTRAL_MICROSPECIES_CHARGE>
0.3771808839673709

> <JCHEM_AVERAGE_POLARIZABILITY>
59.68542213479973

> <JCHEM_BIOAVAILABILITY>
0

> <JCHEM_DONOR_COUNT>
2

> <JCHEM_FORMAL_CHARGE>
0

> <JCHEM_GHOSE_FILTER>
0

> <JCHEM_IUPAC>
3-[3-tert-butyl-1-(4-methylphenyl)-1H-pyrazol-5-yl]-1-{4-[2-(morpholin-4-yl)ethoxy]naphthalen-1-yl}urea

> <ALOGPS_LOGP>
5.32

> <JCHEM_LOGP>
6.370042223333334

> <ALOGPS_LOGS>
-5.15

> <JCHEM_MDDR_LIKE_RULE>
1

> <JCHEM_NEUTRAL_CHARGE>
1

> <JCHEM_NUMBER_OF_RINGS>
5

> <JCHEM_PHYSIOLOGICAL_CHARGE>
0

> <JCHEM_PKA>
18.87807592516731

> <JCHEM_PKA_STRONGEST_ACIDIC>
11.322262878625999

> <JCHEM_PKA_STRONGEST_BASIC>
6.782266725743871

> <JCHEM_POLAR_SURFACE_AREA>
80.65

> <JCHEM_REFRACTIVITY>
157.00989999999996

> <JCHEM_ROTATABLE_BOND_COUNT>
8

> <JCHEM_RULE_OF_FIVE>
0

> <ALOGPS_SOLUBILITY>
3.75e-03 g/l

> <JCHEM_TRADITIONAL_IUPAC>
6-(2,6-dichlorophenyl)-2-{[3-(hydroxymethyl)phenyl]amino}-8-methylpyrido[2,3-d]pyrimidin-7-one

> <JCHEM_VEBER_RULE>
0

> <DRUGBANK_ID>
DB03044

> <SECONDARY_ACCESSION_NUMBERS>
EXPT00616

> <DRUG_GROUPS>
investigational

> <GENERIC_NAME>
Doramapimod

> <SYNONYMS>
Doramapimod

$$$$
