
  Mrv1652310201623032D          

 31 33  0  0  0  0            999 V2000
    5.7158    0.8250    0.0000 C   0  0  0  0  0  0  0  0  0  0  0  0
    5.7158   -0.0000    0.0000 C   0  0  0  0  0  0  0  0  0  0  0  0
    5.0013   -0.4125    0.0000 N   0  0  0  0  0  0  0  0  0  0  0  0
    4.2868   -0.0000    0.0000 C   0  0  0  0  0  0  0  0  0  0  0  0
    4.2868    0.8250    0.0000 C   0  0  0  0  0  0  0  0  0  0  0  0
    5.0013    1.2375    0.0000 N   0  0  0  0  0  0  0  0  0  0  0  0
    3.5724   -0.4125    0.0000 N   0  0  0  0  0  0  0  0  0  0  0  0
    2.8579   -0.0000    0.0000 N   0  0  0  0  0  0  0  0  0  0  0  0
    2.1434   -0.4125    0.0000 C   0  0  0  0  0  0  0  0  0  0  0  0
    2.1434   -1.2375    0.0000 O   0  0  0  0  0  0  0  0  0  0  0  0
    1.4289   -0.0000    0.0000 C   0  0  0  0  0  0  0  0  0  0  0  0
    0.7145   -0.4125    0.0000 C   0  0  0  0  0  0  0  0  0  0  0  0
    0.7145   -1.2375    0.0000 N   0  0  0  0  0  0  0  0  0  0  0  0
    1.3819   -1.7224    0.0000 C   0  0  0  0  0  0  0  0  0  0  0  0
    1.1270   -2.5070    0.0000 N   0  0  0  0  0  0  0  0  0  0  0  0
    0.3020   -2.5070    0.0000 C   0  0  0  0  0  0  0  0  0  0  0  0
    0.0470   -1.7224    0.0000 N   0  0  0  0  0  0  0  0  0  0  0  0
   -0.1830   -3.1745    0.0000 C   0  0  0  0  0  0  0  0  0  0  0  0
    0.1526   -3.9282    0.0000 C   0  0  0  0  0  0  0  0  0  0  0  0
   -0.3323   -4.5956    0.0000 C   0  0  0  0  0  0  0  0  0  0  0  0
   -1.1528   -4.5094    0.0000 C   0  0  0  0  0  0  0  0  0  0  0  0
   -1.4884   -3.7557    0.0000 C   0  0  0  0  0  0  0  0  0  0  0  0
   -1.0034   -3.0882    0.0000 C   0  0  0  0  0  0  0  0  0  0  0  0
   -2.3088   -3.6695    0.0000 C   0  0  0  0  0  0  0  0  0  0  0  0
   -3.1293   -3.5832    0.0000 F   0  0  0  0  0  0  0  0  0  0  0  0
   -2.2226   -2.8490    0.0000 F   0  0  0  0  0  0  0  0  0  0  0  0
   -2.3951   -4.4899    0.0000 F   0  0  0  0  0  0  0  0  0  0  0  0
    0.0032   -5.3493    0.0000 C   0  0  0  0  0  0  0  0  0  0  0  0
    0.3388   -6.1029    0.0000 F   0  0  0  0  0  0  0  0  0  0  0  0
   -0.7504   -5.6848    0.0000 F   0  0  0  0  0  0  0  0  0  0  0  0
    0.7569   -5.0137    0.0000 F   0  0  0  0  0  0  0  0  0  0  0  0
  1  2  2  0  0  0  0
  2  3  1  0  0  0  0
  3  4  2  0  0  0  0
  4  5  1  0  0  0  0
  5  6  2  0  0  0  0
  1  6  1  0  0  0  0
  4  7  1  0  0  0  0
  7  8  1  0  0  0  0
  8  9  1  0  0  0  0
  9 10  2  0  0  0  0
  9 11  1  0  0  0  0
 11 12  2  0  0  0  0
 12 13  1  0  0  0  0
 13 14  1  0  0  0  0
 14 15  2  0  0  0  0
 15 16  1  0  0  0  0
 16 17  2  0  0  0  0
 13 17  1  0  0  0  0
 16 18  1  0  0  0  0
 18 19  2  0  0  0  0
 19 20  1  0  0  0  0
 20 21  2  0  0  0  0
 21 22  1  0  0  0  0
 22 23  2  0  0  0  0
 18 23  1  0  0  0  0
 22 24  1  0  0  0  0
 24 25  1  0  0  0  0
 24 26  1  0  0  0  0
 24 27  1  0  0  0  0
 20 28  1  0  0  0  0
 28 29  1  0  0  0  0
 28 30  1  0  0  0  0
 28 31  1  0  0  0  0
M  END
> <DATABASE_ID>
DB11942

> <DATABASE_NAME>
drugbank

> <SMILES>
FC(F)(F)C1=CC(=CC(=C1)C1=NN(\C=C/C(=O)NNC2=NC=CN=C2)C=N1)C(F)(F)F

> <INCHI_IDENTIFIER>
InChI=1S/C17H11F6N7O/c18-16(19,20)11-5-10(6-12(7-11)17(21,22)23)15-26-9-30(29-15)4-1-14(31)28-27-13-8-24-2-3-25-13/h1-9H,(H,25,27)(H,28,31)/b4-1-

> <INCHI_KEY>
DEVSOMFAQLZNKR-RJRFIUFISA-N

> <FORMULA>
C17H11F6N7O

> <MOLECULAR_WEIGHT>
443.313

> <EXACT_MASS>
443.09292698

> <JCHEM_ACCEPTOR_COUNT>
6

> <JCHEM_ATOM_COUNT>
42

> <JCHEM_AVERAGE_POLARIZABILITY>
35.607587965581615

> <JCHEM_BIOAVAILABILITY>
1

> <JCHEM_DONOR_COUNT>
2

> <JCHEM_FORMAL_CHARGE>
0

> <JCHEM_GHOSE_FILTER>
1

> <JCHEM_IUPAC>
(2Z)-3-{3-[3,5-bis(trifluoromethyl)phenyl]-1H-1,2,4-triazol-1-yl}-N'-(pyrazin-2-yl)prop-2-enehydrazide

> <ALOGPS_LOGP>
2.85

> <JCHEM_LOGP>
3.0748144716666665

> <ALOGPS_LOGS>
-4.90

> <JCHEM_MDDR_LIKE_RULE>
1

> <JCHEM_NUMBER_OF_RINGS>
3

> <JCHEM_PHYSIOLOGICAL_CHARGE>
0

> <JCHEM_PKA>
15.950288031022154

> <JCHEM_PKA_STRONGEST_ACIDIC>
12.182111849408605

> <JCHEM_PKA_STRONGEST_BASIC>
1.3404857838702748

> <JCHEM_POLAR_SURFACE_AREA>
97.62

> <JCHEM_REFRACTIVITY>
120.00430000000003

> <JCHEM_ROTATABLE_BOND_COUNT>
7

> <JCHEM_RULE_OF_FIVE>
1

> <ALOGPS_SOLUBILITY>
5.55e-03 g/l

> <JCHEM_TRADITIONAL_IUPAC>
(2Z)-3-{3-[3,5-bis(trifluoromethyl)phenyl]-1,2,4-triazol-1-yl}-N'-(pyrazin-2-yl)prop-2-enehydrazide

> <JCHEM_VEBER_RULE>
0

> <DRUGBANK_ID>
DB11942

> <DRUG_GROUPS>
approved; investigational

> <GENERIC_NAME>
Selinexor

> <SYNONYMS>
Selinexor

> <PRODUCTS>
Nexpovio; Xpovio

$$$$
