
  Mrv1652310201622492D          

 26 28  0  0  1  0            999 V2000
   -3.1507   -2.7163    0.0000 C   0  0  0  0  0  0  0  0  0  0  0  0
   -3.6239   -2.0405    0.0000 C   0  0  0  0  0  0  0  0  0  0  0  0
   -4.4458   -2.1124    0.0000 C   0  0  0  0  0  0  0  0  0  0  0  0
   -4.7944   -2.8601    0.0000 C   0  0  0  0  0  0  0  0  0  0  0  0
   -5.6163   -2.9320    0.0000 O   0  0  0  0  0  0  0  0  0  0  0  0
   -4.3212   -3.5359    0.0000 O   0  0  0  0  0  0  0  0  0  0  0  0
   -3.2753   -1.2928    0.0000 C   0  0  0  0  0  0  0  0  0  0  0  0
   -2.4534   -1.2209    0.0000 C   0  0  0  0  0  0  0  0  0  0  0  0
   -2.1047   -0.4732    0.0000 C   0  0  2  0  0  0  0  0  0  0  0  0
   -2.1766    0.3487    0.0000 C   0  0  0  0  0  0  0  0  0  0  0  0
   -1.4289    0.0000    0.0000 C   0  0  1  0  0  0  0  0  0  0  0  0
   -0.7970    0.5303    0.0000 C   0  0  0  0  0  0  0  0  0  0  0  0
   -0.7145   -0.4125    0.0000 C   0  0  0  0  0  0  0  0  0  0  0  0
   -0.7145   -1.2375    0.0000 C   0  0  0  0  0  0  0  0  0  0  0  0
    0.0000   -1.6500    0.0000 C   0  0  0  0  0  0  0  0  0  0  0  0
    0.7145   -1.2375    0.0000 C   0  0  0  0  0  0  0  0  0  0  0  0
    0.7145   -0.4125    0.0000 C   0  0  0  0  0  0  0  0  0  0  0  0
    0.0000   -0.0000    0.0000 C   0  0  0  0  0  0  0  0  0  0  0  0
    1.4289   -0.0000    0.0000 C   0  0  0  0  0  0  0  0  0  0  0  0
    2.1434   -0.4125    0.0000 C   0  0  0  0  0  0  0  0  0  0  0  0
    2.1434   -1.2375    0.0000 C   0  0  0  0  0  0  0  0  0  0  0  0
    1.4289   -1.6500    0.0000 C   0  0  0  0  0  0  0  0  0  0  0  0
    1.8163   -2.3784    0.0000 C   0  0  0  0  0  0  0  0  0  0  0  0
    1.0416   -2.3784    0.0000 C   0  0  0  0  0  0  0  0  0  0  0  0
    1.0416    0.7284    0.0000 C   0  0  0  0  0  0  0  0  0  0  0  0
    1.8163    0.7284    0.0000 C   0  0  0  0  0  0  0  0  0  0  0  0
  1  2  1  0  0  0  0
  2  3  2  0  0  0  0
  3  4  1  0  0  0  0
  4  5  2  0  0  0  0
  4  6  1  0  0  0  0
  2  7  1  0  0  0  0
  7  8  2  0  0  0  0
  9  8  1  6  0  0  0
  9 10  1  0  0  0  0
 10 11  1  0  0  0  0
  9 11  1  0  0  0  0
 11 12  1  1  0  0  0
 11 13  1  6  0  0  0
 13 14  2  0  0  0  0
 14 15  1  0  0  0  0
 15 16  2  0  0  0  0
 16 17  1  0  0  0  0
 17 18  2  0  0  0  0
 13 18  1  0  0  0  0
 17 19  1  0  0  0  0
 19 20  1  0  0  0  0
 20 21  1  0  0  0  0
 21 22  1  0  0  0  0
 16 22  1  0  0  0  0
 22 23  1  0  0  0  0
 22 24  1  0  0  0  0
 19 25  1  0  0  0  0
 19 26  1  0  0  0  0
M  END
> <DATABASE_ID>
DB11806

> <DATABASE_NAME>
drugbank

> <SMILES>
C\C(\C=C\[C@@H]1C[C@]1(C)C1=CC=C2C(=C1)C(C)(C)CCC2(C)C)=C/C(O)=O

> <INCHI_IDENTIFIER>
InChI=1S/C24H32O2/c1-16(13-21(25)26)7-8-18-15-24(18,6)17-9-10-19-20(14-17)23(4,5)12-11-22(19,2)3/h7-10,13-14,18H,11-12,15H2,1-6H3,(H,25,26)/b8-7+,16-13+/t18-,24-/m1/s1

> <INCHI_KEY>
BOOOLEGQBVUTKC-NVQSDHBMSA-N

> <FORMULA>
C24H32O2

> <MOLECULAR_WEIGHT>
352.518

> <EXACT_MASS>
352.24023027

> <JCHEM_ACCEPTOR_COUNT>
2

> <JCHEM_ATOM_COUNT>
58

> <JCHEM_AVERAGE_POLARIZABILITY>
41.36981177751967

> <JCHEM_BIOAVAILABILITY>
1

> <JCHEM_DONOR_COUNT>
1

> <JCHEM_FORMAL_CHARGE>
0

> <JCHEM_GHOSE_FILTER>
0

> <JCHEM_IUPAC>
(2E,4E)-3-methyl-5-[(1S,2S)-2-methyl-2-(5,5,8,8-tetramethyl-5,6,7,8-tetrahydronaphthalen-2-yl)cyclopropyl]penta-2,4-dienoic acid

> <ALOGPS_LOGP>
6.78

> <JCHEM_LOGP>
6.305277918666668

> <ALOGPS_LOGS>
-6.53

> <JCHEM_MDDR_LIKE_RULE>
0

> <JCHEM_NUMBER_OF_RINGS>
3

> <JCHEM_PHYSIOLOGICAL_CHARGE>
-1

> <JCHEM_PKA_STRONGEST_ACIDIC>
4.831451709177959

> <JCHEM_POLAR_SURFACE_AREA>
37.3

> <JCHEM_REFRACTIVITY>
109.56119999999999

> <JCHEM_ROTATABLE_BOND_COUNT>
4

> <JCHEM_RULE_OF_FIVE>
0

> <ALOGPS_SOLUBILITY>
1.04e-04 g/l

> <JCHEM_TRADITIONAL_IUPAC>
(2E,4E)-3-methyl-5-[(1S,2S)-2-methyl-2-(5,5,8,8-tetramethyl-6,7-dihydronaphthalen-2-yl)cyclopropyl]penta-2,4-dienoic acid

> <JCHEM_VEBER_RULE>
1

> <DRUGBANK_ID>
DB11806

> <DRUG_GROUPS>
investigational

> <GENERIC_NAME>
VTP-194204

$$$$
