
  Mrv1652310211600292D          

 28 30  0  0  1  0            999 V2000
    2.1665   -1.4675    0.0000 C   0  0  0  0  0  0  0  0  0  0  0  0
    1.3819   -1.7224    0.0000 N   0  0  0  0  0  0  0  0  0  0  0  0
    1.1270   -2.5070    0.0000 C   0  0  0  0  0  0  0  0  0  0  0  0
    1.6119   -3.1745    0.0000 O   0  0  0  0  0  0  0  0  0  0  0  0
    0.3020   -2.5070    0.0000 N   0  0  0  0  0  0  0  0  0  0  0  0
    0.0470   -1.7224    0.0000 C   0  0  0  0  0  0  0  0  0  0  0  0
   -0.7376   -1.4675    0.0000 O   0  0  0  0  0  0  0  0  0  0  0  0
    0.7145   -1.2375    0.0000 C   0  0  2  0  0  0  0  0  0  0  0  0
    0.3095   -0.5187    0.0000 C   0  0  0  0  0  0  0  0  0  0  0  0
   -0.5155   -0.5101    0.0000 O   0  0  0  0  0  0  0  0  0  0  0  0
    1.1195   -0.5187    0.0000 C   0  0  0  0  0  0  0  0  0  0  0  0
    0.6995    0.1914    0.0000 C   0  0  0  0  0  0  0  0  0  0  0  0
    1.1045    0.9101    0.0000 C   0  0  0  0  0  0  0  0  0  0  0  0
    1.9295    0.9188    0.0000 C   0  0  0  0  0  0  0  0  0  0  0  0
    2.3494    0.2086    0.0000 C   0  0  0  0  0  0  0  0  0  0  0  0
    1.9444   -0.5101    0.0000 C   0  0  0  0  0  0  0  0  0  0  0  0
   -0.1830   -3.1745    0.0000 C   0  0  0  0  0  0  0  0  0  0  0  0
    0.1526   -3.9282    0.0000 C   0  0  0  0  0  0  0  0  0  0  0  0
   -0.3323   -4.5956    0.0000 C   0  0  0  0  0  0  0  0  0  0  0  0
   -1.1528   -4.5094    0.0000 C   0  0  0  0  0  0  0  0  0  0  0  0
   -1.4884   -3.7557    0.0000 C   0  0  0  0  0  0  0  0  0  0  0  0
   -1.0034   -3.0882    0.0000 C   0  0  0  0  0  0  0  0  0  0  0  0
   -2.3088   -3.6695    0.0000 C   0  0  0  0  0  0  0  0  0  0  0  0
   -3.1293   -3.5832    0.0000 F   0  0  0  0  0  0  0  0  0  0  0  0
   -2.2226   -2.8490    0.0000 F   0  0  0  0  0  0  0  0  0  0  0  0
   -2.3951   -4.4899    0.0000 F   0  0  0  0  0  0  0  0  0  0  0  0
   -1.6377   -5.1768    0.0000 C   0  0  0  0  0  0  0  0  0  0  0  0
   -2.1226   -5.8442    0.0000 N   0  0  0  0  0  0  0  0  0  0  0  0
  1  2  1  0  0  0  0
  2  3  1  0  0  0  0
  3  4  2  0  0  0  0
  3  5  1  0  0  0  0
  5  6  1  0  0  0  0
  6  7  2  0  0  0  0
  6  8  1  0  0  0  0
  2  8  1  0  0  0  0
  8  9  1  6  0  0  0
  9 10  1  0  0  0  0
  8 11  1  1  0  0  0
 11 12  2  0  0  0  0
 12 13  1  0  0  0  0
 13 14  2  0  0  0  0
 14 15  1  0  0  0  0
 15 16  2  0  0  0  0
 11 16  1  0  0  0  0
  5 17  1  0  0  0  0
 17 18  2  0  0  0  0
 18 19  1  0  0  0  0
 19 20  2  0  0  0  0
 20 21  1  0  0  0  0
 21 22  2  0  0  0  0
 17 22  1  0  0  0  0
 21 23  1  0  0  0  0
 23 24  1  0  0  0  0
 23 25  1  0  0  0  0
 23 26  1  0  0  0  0
 20 27  1  0  0  0  0
 27 28  3  0  0  0  0
M  END
> <DATABASE_ID>
DB12461

> <DATABASE_NAME>
drugbank

> <SMILES>
CN1C(=O)N(C(=O)[C@@]1(CO)C1=CC=CC=C1)C1=CC=C(C#N)C(=C1)C(F)(F)F

> <INCHI_IDENTIFIER>
InChI=1S/C19H14F3N3O3/c1-24-17(28)25(14-8-7-12(10-23)15(9-14)19(20,21)22)16(27)18(24,11-26)13-5-3-2-4-6-13/h2-9,26H,11H2,1H3/t18-/m1/s1

> <INCHI_KEY>
VAJGULUVTFDTAS-GOSISDBHSA-N

> <FORMULA>
C19H14F3N3O3

> <MOLECULAR_WEIGHT>
389.334

> <EXACT_MASS>
389.098725812

> <JCHEM_ACCEPTOR_COUNT>
4

> <JCHEM_ATOM_COUNT>
42

> <JCHEM_AVERAGE_POLARIZABILITY>
35.331992401551545

> <JCHEM_BIOAVAILABILITY>
1

> <JCHEM_DONOR_COUNT>
1

> <JCHEM_FORMAL_CHARGE>
0

> <JCHEM_GHOSE_FILTER>
1

> <JCHEM_IUPAC>
4-[(4S)-4-(hydroxymethyl)-3-methyl-2,5-dioxo-4-phenylimidazolidin-1-yl]-2-(trifluoromethyl)benzonitrile

> <ALOGPS_LOGP>
2.48

> <JCHEM_LOGP>
2.7113201066666663

> <ALOGPS_LOGS>
-4.87

> <JCHEM_MDDR_LIKE_RULE>
0

> <JCHEM_NUMBER_OF_RINGS>
3

> <JCHEM_PHYSIOLOGICAL_CHARGE>
0

> <JCHEM_PKA_STRONGEST_ACIDIC>
14.443662784268657

> <JCHEM_PKA_STRONGEST_BASIC>
-3.0421418981608888

> <JCHEM_POLAR_SURFACE_AREA>
84.64000000000001

> <JCHEM_REFRACTIVITY>
92.92730000000003

> <JCHEM_ROTATABLE_BOND_COUNT>
4

> <JCHEM_RULE_OF_FIVE>
1

> <ALOGPS_SOLUBILITY>
5.22e-03 g/l

> <JCHEM_TRADITIONAL_IUPAC>
4-[(4S)-4-(hydroxymethyl)-3-methyl-2,5-dioxo-4-phenylimidazolidin-1-yl]-2-(trifluoromethyl)benzonitrile

> <JCHEM_VEBER_RULE>
0

> <DRUGBANK_ID>
DB12461

> <DRUG_GROUPS>
investigational

> <GENERIC_NAME>
GLPG-0492

$$$$
