
  Mrv1909 11211903002D          

 51 53  0  0  0  0            999 V2000
   -1.4193    4.0972    0.0000 C   0  0  0  0  0  0  0  0  0  0  0  0
   -0.7062    4.5167    0.0000 C   0  0  0  0  0  0  0  0  0  0  0  0
    0.0069    4.0972    0.0000 C   0  0  0  0  0  0  0  0  0  0  0  0
    0.0069    3.2721    0.0000 C   0  0  0  0  0  0  0  0  0  0  0  0
   -0.7062    2.8666    0.0000 C   0  0  0  0  0  0  0  0  0  0  0  0
   -1.4193    3.2721    0.0000 C   0  0  0  0  0  0  0  0  0  0  0  0
   -2.1325    2.8666    0.0000 C   0  0  0  0  0  0  0  0  0  0  0  0
   -2.8457    3.2862    0.0000 O   0  0  0  0  0  0  0  0  0  0  0  0
   -2.1325    2.0415    0.0000 N   0  0  0  0  0  0  0  0  0  0  0  0
   -2.8457    1.6361    0.0000 C   0  0  2  0  0  0  0  0  0  0  0  0
   -2.8457    0.8250    0.0000 C   0  0  0  0  0  0  0  0  0  0  0  0
   -2.1465    0.4055    0.0000 C   0  0  0  0  0  0  0  0  0  0  0  0
   -2.1465   -0.4195    0.0000 C   0  0  0  0  0  0  0  0  0  0  0  0
   -2.8596   -0.8250    0.0000 O   0  0  0  0  0  0  0  0  0  0  0  0
   -1.4333   -0.8250    0.0000 N   0  0  0  0  0  0  0  0  0  0  0  0
   -1.4333   -1.6501    0.0000 C   0  0  0  0  0  0  0  0  0  0  0  0
   -0.7201   -2.0695    0.0000 C   0  0  1  0  0  0  0  0  0  0  0  0
   -0.7341   -2.8807    0.0000 C   0  0  0  0  0  0  0  0  0  0  0  0
   -1.4473   -3.3001    0.0000 O   0  0  0  0  0  0  0  0  0  0  0  0
   -0.0210   -3.3001    0.0000 N   0  0  0  0  0  0  0  0  0  0  0  0
   -0.0210   -4.1252    0.0000 C   0  0  1  0  0  0  0  0  0  0  0  0
    0.6921   -4.5307    0.0000 C   0  0  0  0  0  0  0  0  0  0  0  0
    1.4053   -4.1252    0.0000 C   0  0  0  0  0  0  0  0  0  0  0  0
    1.4053   -3.3001    0.0000 O   0  0  0  0  0  0  0  0  0  0  0  0
    2.1186   -4.5307    0.0000 O   0  0  0  0  0  0  0  0  0  0  0  0
   -0.7341   -4.5307    0.0000 C   0  0  0  0  0  0  0  0  0  0  0  0
   -1.4473   -4.1112    0.0000 O   0  0  0  0  0  0  0  0  0  0  0  0
   -0.7341   -5.3558    0.0000 N   0  0  0  0  0  0  0  0  0  0  0  0
   -1.4473   -5.7613    0.0000 C   0  0  1  0  0  0  0  0  0  0  0  0
   -1.4473   -6.5723    0.0000 C   0  0  0  0  0  0  0  0  0  0  0  0
   -0.7341   -6.9919    0.0000 S   0  0  0  0  0  0  0  0  0  0  0  0
   -2.1605   -5.3417    0.0000 C   0  0  0  0  0  0  0  0  0  0  0  0
   -2.1605   -4.5167    0.0000 O   0  0  0  0  0  0  0  0  0  0  0  0
   -2.8737   -5.7473    0.0000 O   0  0  0  0  0  0  0  0  0  0  0  0
   -0.0070   -1.6501    0.0000 N   0  0  0  0  0  0  0  0  0  0  0  0
   -3.5589    2.0556    0.0000 C   0  0  0  0  0  0  0  0  0  0  0  0
   -3.5589    2.8807    0.0000 O   0  0  0  0  0  0  0  0  0  0  0  0
   -4.2720    1.6501    0.0000 O   0  0  0  0  0  0  0  0  0  0  0  0
    0.7201    4.5167    0.0000 N   0  0  0  0  0  0  0  0  0  0  0  0
    0.7201    5.3417    0.0000 C   0  0  0  0  0  0  0  0  0  0  0  0
    1.4193    5.7473    0.0000 C   0  0  0  0  0  0  0  0  0  0  0  0
    1.4193    6.5723    0.0000 C   0  0  0  0  0  0  0  0  0  0  0  0
    2.1325    6.9919    0.0000 N   0  0  0  0  0  0  0  0  0  0  0  0
    2.8457    6.5723    0.0000 C   0  0  0  0  0  0  0  0  0  0  0  0
    3.5589    6.9919    0.0000 N   0  0  0  0  0  0  0  0  0  0  0  0
    4.2720    6.5723    0.0000 C   0  0  0  0  0  0  0  0  0  0  0  0
    4.2720    5.7473    0.0000 N   0  0  0  0  0  0  0  0  0  0  0  0
    3.5589    5.3417    0.0000 C   0  0  0  0  0  0  0  0  0  0  0  0
    3.5589    4.5167    0.0000 O   0  0  0  0  0  0  0  0  0  0  0  0
    2.8457    5.7473    0.0000 C   0  0  0  0  0  0  0  0  0  0  0  0
    2.1325    5.3417    0.0000 N   0  0  0  0  0  0  0  0  0  0  0  0
  1  2  1  0  0  0  0
  1  6  2  0  0  0  0
  2  3  2  0  0  0  0
  3  4  1  0  0  0  0
  3 39  1  0  0  0  0
  4  5  2  0  0  0  0
  5  6  1  0  0  0  0
  6  7  1  0  0  0  0
  7  8  2  0  0  0  0
  7  9  1  0  0  0  0
  9 10  1  0  0  0  0
 10 11  1  6  0  0  0
 10 36  1  0  0  0  0
 11 12  1  0  0  0  0
 12 13  1  0  0  0  0
 13 14  2  0  0  0  0
 13 15  1  0  0  0  0
 15 16  1  0  0  0  0
 16 17  1  0  0  0  0
 17 18  1  0  0  0  0
 17 35  1  6  0  0  0
 18 19  2  0  0  0  0
 18 20  1  0  0  0  0
 20 21  1  0  0  0  0
 21 22  1  1  0  0  0
 21 26  1  0  0  0  0
 22 23  1  0  0  0  0
 23 24  2  0  0  0  0
 23 25  1  0  0  0  0
 26 27  2  0  0  0  0
 26 28  1  0  0  0  0
 28 29  1  0  0  0  0
 29 30  1  1  0  0  0
 29 32  1  0  0  0  0
 30 31  1  0  0  0  0
 32 33  2  0  0  0  0
 32 34  1  0  0  0  0
 36 37  2  0  0  0  0
 36 38  1  0  0  0  0
 39 40  1  0  0  0  0
 40 41  1  0  0  0  0
 41 42  2  0  0  0  0
 41 51  1  0  0  0  0
 42 43  1  0  0  0  0
 43 44  1  0  0  0  0
 44 45  2  0  0  0  0
 44 50  1  0  0  0  0
 45 46  1  0  0  0  0
 46 47  2  0  0  0  0
 47 48  1  0  0  0  0
 48 49  2  0  0  0  0
 48 50  1  0  0  0  0
 50 51  2  0  0  0  0
M  END
> <DATABASE_ID>
DB11810

> <DATABASE_NAME>
drugbank

> <SMILES>
N[C@@H](CNC(=O)CC[C@@H](NC(=O)C1=CC=C(NCC2=CNC3=NC=NC(=O)C3=N2)C=C1)C(O)=O)C(=O)N[C@@H](CC(O)=O)C(=O)N[C@@H](CS)C(O)=O

> <INCHI_IDENTIFIER>
InChI=1S/C29H34N10O11S/c30-16(25(44)38-18(7-21(41)42)26(45)39-19(11-51)29(49)50)10-32-20(40)6-5-17(28(47)48)37-24(43)13-1-3-14(4-2-13)31-8-15-9-33-23-22(36-15)27(46)35-12-34-23/h1-4,9,12,16-19,31,51H,5-8,10-11,30H2,(H,32,40)(H,37,43)(H,38,44)(H,39,45)(H,41,42)(H,47,48)(H,49,50)(H,33,34,35,46)/t16-,17+,18-,19-/m0/s1

> <INCHI_KEY>
YZSIZVRFVQKMJU-RDGPPVDQSA-N

> <FORMULA>
C29H34N10O11S

> <MOLECULAR_WEIGHT>
730.71

> <EXACT_MASS>
730.212923129

> <JCHEM_ACCEPTOR_COUNT>
17

> <JCHEM_ATOM_COUNT>
85

> <JCHEM_AVERAGE_POLARIZABILITY>
69.50301082730576

> <JCHEM_BIOAVAILABILITY>
0

> <JCHEM_DONOR_COUNT>
11

> <JCHEM_FORMAL_CHARGE>
0

> <JCHEM_GHOSE_FILTER>
0

> <JCHEM_IUPAC>
(2R)-4-{[(2S)-2-amino-2-{[(1S)-2-carboxy-1-{[(1R)-1-carboxy-2-sulfanylethyl]carbamoyl}ethyl]carbamoyl}ethyl]carbamoyl}-2-[(4-{[(4-oxo-4,8-dihydropteridin-6-yl)methyl]amino}phenyl)formamido]butanoic acid

> <ALOGPS_LOGP>
-1.11

> <JCHEM_LOGP>
-6.934639907051024

> <ALOGPS_LOGS>
-4.02

> <JCHEM_MDDR_LIKE_RULE>
1

> <JCHEM_NUMBER_OF_RINGS>
3

> <JCHEM_PHYSIOLOGICAL_CHARGE>
-2

> <JCHEM_PKA>
3.382678422803476

> <JCHEM_PKA_STRONGEST_ACIDIC>
2.8657097005538064

> <JCHEM_PKA_STRONGEST_BASIC>
7.103697081400904

> <JCHEM_POLAR_SURFACE_AREA>
332.53

> <JCHEM_REFRACTIVITY>
176.3301

> <JCHEM_ROTATABLE_BOND_COUNT>
19

> <JCHEM_RULE_OF_FIVE>
0

> <ALOGPS_SOLUBILITY>
6.97e-02 g/l

> <JCHEM_TRADITIONAL_IUPAC>
4-{[2-amino-2-({2-carboxy-1-[(1-carboxy-2-sulfanylethyl)carbamoyl]ethyl}carbamoyl)ethyl]carbamoyl}-2-[(4-{[(4-oxo-1H-pteridin-6-yl)methyl]amino}phenyl)formamido]butanoic acid

> <JCHEM_VEBER_RULE>
0

> <DRUGBANK_ID>
DB11810

> <DRUG_GROUPS>
investigational

> <GENERIC_NAME>
Etarfolatide

$$$$
