
  Mrv1909 12152018182D          

 60 60  0  0  1  0            999 V2000
    6.8373  -12.2836    0.0000 C   0  0  0  0  0  0  0  0  0  0  0  0
    6.6627  -13.0899    0.0000 C   0  0  1  0  0  0  0  0  0  0  0  0
    7.2737  -13.6442    0.0000 O   0  0  0  0  0  0  0  0  0  0  0  0
    5.8772  -13.3418    0.0000 C   0  0  2  0  0  0  0  0  0  0  0  0
    5.7026  -14.1482    0.0000 N   0  0  0  0  0  0  0  0  0  0  0  0
    6.3136  -14.7025    0.0000 C   0  0  0  0  0  0  0  0  0  0  0  0
    7.0992  -14.4505    0.0000 O   0  0  0  0  0  0  0  0  0  0  0  0
    6.1390  -15.5088    0.0000 C   0  0  2  0  0  0  0  0  0  0  0  0
    6.7500  -16.0632    0.0000 C   0  0  0  0  0  0  0  0  0  0  0  0
    7.5356  -15.8112    0.0000 C   0  0  0  0  0  0  0  0  0  0  0  0
    7.7102  -15.0049    0.0000 C   0  0  0  0  0  0  0  0  0  0  0  0
    8.4958  -14.7529    0.0000 C   0  0  0  0  0  0  0  0  0  0  0  0
    9.1068  -15.3072    0.0000 C   0  0  0  0  0  0  0  0  0  0  0  0
    9.8923  -15.0553    0.0000 O   0  0  0  0  0  0  0  0  0  0  0  0
    8.9322  -16.1136    0.0000 C   0  0  0  0  0  0  0  0  0  0  0  0
    8.1466  -16.3655    0.0000 C   0  0  0  0  0  0  0  0  0  0  0  0
    5.3534  -15.7608    0.0000 N   0  0  0  0  0  0  0  0  0  0  0  0
    4.7424  -15.2065    0.0000 C   0  0  0  0  0  0  0  0  0  0  0  0
    4.9170  -14.4001    0.0000 O   0  0  0  0  0  0  0  0  0  0  0  0
    3.9569  -15.4584    0.0000 C   0  0  2  0  0  0  0  0  0  0  0  0
    3.7823  -16.2647    0.0000 C   0  0  0  0  0  0  0  0  0  0  0  0
    4.3933  -16.8191    0.0000 C   0  0  0  0  0  0  0  0  0  0  0  0
    5.1789  -16.5671    0.0000 N   0  0  0  0  0  0  0  0  0  0  0  0
    4.2187  -17.6254    0.0000 O   0  0  0  0  0  0  0  0  0  0  0  0
    3.3459  -14.9041    0.0000 N   0  0  0  0  0  0  0  0  0  0  0  0
    2.5603  -15.1561    0.0000 C   0  0  0  0  0  0  0  0  0  0  0  0
    2.3857  -15.9624    0.0000 O   0  0  0  0  0  0  0  0  0  0  0  0
    1.9493  -14.6017    0.0000 C   0  0  1  0  0  0  0  0  0  0  0  0
    1.1637  -14.8537    0.0000 N   0  0  0  0  0  0  0  0  0  0  0  0
    0.5527  -14.2993    0.0000 C   0  0  0  0  0  0  0  0  0  0  0  0
    0.7273  -13.4930    0.0000 O   0  0  0  0  0  0  0  0  0  0  0  0
   -0.2329  -14.5513    0.0000 C   0  0  1  0  0  0  0  0  0  0  0  0
   -0.8439  -13.9970    0.0000 N   0  0  0  0  0  0  0  0  0  0  0  0
   -1.6295  -14.2490    0.0000 C   0  0  0  0  0  0  0  0  0  0  0  0
   -1.8041  -15.0553    0.0000 O   0  0  0  0  0  0  0  0  0  0  0  0
   -2.2405  -13.6946    0.0000 C   0  0  1  0  0  0  0  0  0  0  0  0
   -3.0261  -13.9466    0.0000 N   0  0  0  0  0  0  0  0  0  0  0  0
   -3.6371  -13.3922    0.0000 C   0  0  0  0  0  0  0  0  0  0  0  0
   -3.4625  -12.5859    0.0000 O   0  0  0  0  0  0  0  0  0  0  0  0
   -4.4226  -13.6442    0.0000 C   0  0  2  0  0  0  0  0  0  0  0  0
   -4.5972  -14.4505    0.0000 C   0  0  0  0  0  0  0  0  0  0  0  0
   -5.3828  -14.7025    0.0000 O   0  0  0  0  0  0  0  0  0  0  0  0
   -5.0337  -13.0899    0.0000 N   0  0  0  0  0  0  0  0  0  0  0  0
   -5.8192  -13.3418    0.0000 C   0  0  0  0  0  0  0  0  0  0  0  0
   -5.9938  -14.1482    0.0000 O   0  0  0  0  0  0  0  0  0  0  0  0
   -6.4302  -12.7875    0.0000 C   0  0  1  0  0  0  0  0  0  0  0  0
   -7.2158  -13.0395    0.0000 C   0  0  0  0  0  0  0  0  0  0  0  0
   -6.2557  -11.9812    0.0000 N   0  0  0  0  0  0  0  0  0  0  0  0
   -2.0659  -12.8883    0.0000 C   0  0  1  0  0  0  0  0  0  0  0  0
   -2.6769  -12.3339    0.0000 C   0  0  0  0  0  0  0  0  0  0  0  0
   -1.2803  -12.6363    0.0000 O   0  0  0  0  0  0  0  0  0  0  0  0
   -0.4075  -15.3576    0.0000 C   0  0  1  0  0  0  0  0  0  0  0  0
   -1.1930  -15.6096    0.0000 C   0  0  0  0  0  0  0  0  0  0  0  0
    0.2035  -15.9120    0.0000 O   0  0  0  0  0  0  0  0  0  0  0  0
    2.1238  -13.7954    0.0000 C   0  0  1  0  0  0  0  0  0  0  0  0
    1.5128  -13.2411    0.0000 C   0  0  0  0  0  0  0  0  0  0  0  0
    2.9094  -13.5434    0.0000 O   0  0  0  0  0  0  0  0  0  0  0  0
    5.2662  -12.7875    0.0000 C   0  0  0  0  0  0  0  0  0  0  0  0
    4.4806  -13.0395    0.0000 N   0  0  0  0  0  0  0  0  0  0  0  0
    5.4407  -11.9812    0.0000 O   0  0  0  0  0  0  0  0  0  0  0  0
  2  1  1  0  0  0  0
  2  3  1  1  0  0  0
  2  4  1  0  0  0  0
  4  5  1  6  0  0  0
  5  6  1  0  0  0  0
  6  7  2  0  0  0  0
  8  6  1  0  0  0  0
  8  9  1  0  0  0  0
  9 10  1  0  0  0  0
 10 11  2  0  0  0  0
 11 12  1  0  0  0  0
 12 13  2  0  0  0  0
 13 14  1  0  0  0  0
 13 15  1  0  0  0  0
 15 16  2  0  0  0  0
 10 16  1  0  0  0  0
  8 17  1  6  0  0  0
 17 18  1  0  0  0  0
 18 19  2  0  0  0  0
 20 18  1  0  0  0  0
 20 21  1  0  0  0  0
 21 22  1  0  0  0  0
 22 23  1  0  0  0  0
 22 24  2  0  0  0  0
 20 25  1  6  0  0  0
 25 26  1  0  0  0  0
 26 27  2  0  0  0  0
 28 26  1  0  0  0  0
 28 29  1  1  0  0  0
 29 30  1  0  0  0  0
 30 31  2  0  0  0  0
 32 30  1  0  0  0  0
 32 33  1  6  0  0  0
 33 34  1  0  0  0  0
 34 35  2  0  0  0  0
 36 34  1  0  0  0  0
 36 37  1  1  0  0  0
 37 38  1  0  0  0  0
 38 39  2  0  0  0  0
 40 38  1  0  0  0  0
 40 41  1  0  0  0  0
 41 42  1  0  0  0  0
 40 43  1  6  0  0  0
 43 44  1  0  0  0  0
 44 45  2  0  0  0  0
 46 44  1  0  0  0  0
 46 47  1  0  0  0  0
 46 48  1  1  0  0  0
 36 49  1  0  0  0  0
 49 50  1  0  0  0  0
 49 51  1  1  0  0  0
 32 52  1  0  0  0  0
 52 53  1  0  0  0  0
 52 54  1  6  0  0  0
 28 55  1  0  0  0  0
 55 56  1  0  0  0  0
 55 57  1  1  0  0  0
  4 58  1  0  0  0  0
 58 59  1  0  0  0  0
 58 60  2  0  0  0  0
M  END
> <DATABASE_ID>
DB16290

> <DATABASE_NAME>
drugbank

> <SMILES>
C[C@@H](O)[C@H](NC(=O)[C@H](CC1=CC=C(O)C=C1)NC(=O)[C@H](CC(N)=O)NC(=O)[C@@H](NC(=O)[C@@H](NC(=O)[C@@H](NC(=O)[C@H](CO)NC(=O)[C@@H](C)N)[C@@H](C)O)[C@@H](C)O)[C@@H](C)O)C(N)=O

> <INCHI_IDENTIFIER>
InChI=1S/C35H56N10O15/c1-13(36)29(54)41-22(12-46)32(57)43-26(16(4)49)34(59)45-27(17(5)50)35(60)44-25(15(3)48)33(58)40-21(11-23(37)52)30(55)39-20(10-18-6-8-19(51)9-7-18)31(56)42-24(14(2)47)28(38)53/h6-9,13-17,20-22,24-27,46-51H,10-12,36H2,1-5H3,(H2,37,52)(H2,38,53)(H,39,55)(H,40,58)(H,41,54)(H,42,56)(H,43,57)(H,44,60)(H,45,59)/t13-,14-,15-,16-,17-,20+,21+,22+,24+,25+,26+,27+/m1/s1

> <INCHI_KEY>
AKWRNBWMGFUAMF-ZESMOPTKSA-N

> <FORMULA>
C35H56N10O15

> <MOLECULAR_WEIGHT>
856.888

> <EXACT_MASS>
856.392661143

> <JCHEM_ACCEPTOR_COUNT>
16

> <JCHEM_ATOM_COUNT>
116

> <JCHEM_AVERAGE_NEUTRAL_MICROSPECIES_CHARGE>
0.9210519989721514

> <JCHEM_AVERAGE_POLARIZABILITY>
83.65893857998196

> <JCHEM_BIOAVAILABILITY>
0

> <JCHEM_DONOR_COUNT>
16

> <JCHEM_FORMAL_CHARGE>
0

> <JCHEM_GHOSE_FILTER>
0

> <JCHEM_IUPAC>
(2S)-2-[(2S,3R)-2-[(2S,3R)-2-[(2S,3R)-2-[(2S)-2-[(2R)-2-aminopropanamido]-3-hydroxypropanamido]-3-hydroxybutanamido]-3-hydroxybutanamido]-3-hydroxybutanamido]-N-[(1S)-1-{[(1S,2R)-1-carbamoyl-2-hydroxypropyl]carbamoyl}-2-(4-hydroxyphenyl)ethyl]butanediamide

> <ALOGPS_LOGP>
-1.91

> <JCHEM_LOGP>
-8.974842248413934

> <ALOGPS_LOGS>
-3.31

> <JCHEM_MDDR_LIKE_RULE>
0

> <JCHEM_NEUTRAL_CHARGE>
1

> <JCHEM_NUMBER_OF_RINGS>
1

> <JCHEM_PHYSIOLOGICAL_CHARGE>
1

> <JCHEM_PKA>
11.112820938137103

> <JCHEM_PKA_STRONGEST_ACIDIC>
9.508133717601941

> <JCHEM_PKA_STRONGEST_BASIC>
8.070731230941696

> <JCHEM_POLAR_SURFACE_AREA>
437.28

> <JCHEM_REFRACTIVITY>
203.25250000000003

> <JCHEM_ROTATABLE_BOND_COUNT>
24

> <JCHEM_RULE_OF_FIVE>
0

> <ALOGPS_SOLUBILITY>
4.19e-01 g/l

> <JCHEM_TRADITIONAL_IUPAC>
5-({4-[2-(3-methoxyphenyl)-2-oxoethoxy]phenyl}methyl)-1,3-thiazolidine-2,4-dione

> <JCHEM_VEBER_RULE>
0

> <DRUGBANK_ID>
DB16290

> <DRUG_GROUPS>
investigational

> <GENERIC_NAME>
DAPTA

> <SYNONYMS>
Adaptavir; Peptide t amide, 1(d-ala)

$$$$
