
  Mrv1909 05122115192D          

107112  0  0  1  0            999 V2000
    4.1250    2.5006    0.0000 C   0  0  0  0  0  0  0  0  0  0  0  0
    4.5375    3.2151    0.0000 C   0  0  0  0  0  0  0  0  0  0  0  0
    5.3625    3.2151    0.0000 C   0  0  0  0  0  0  0  0  0  0  0  0
    5.7750    3.9296    0.0000 C   0  0  0  0  0  0  0  0  0  0  0  0
    6.6000    3.9296    0.0000 C   0  0  0  0  0  0  0  0  0  0  0  0
    7.0125    4.6441    0.0000 C   0  0  0  0  0  0  0  0  0  0  0  0
    7.8375    4.6441    0.0000 C   0  0  0  0  0  0  0  0  0  0  0  0
    8.2500    5.3586    0.0000 C   0  0  0  0  0  0  0  0  0  0  0  0
    9.0750    5.3586    0.0000 C   0  0  0  0  0  0  0  0  0  0  0  0
    9.4875    6.0731    0.0000 C   0  0  0  0  0  0  0  0  0  0  0  0
   10.3125    6.0731    0.0000 C   0  0  0  0  0  0  0  0  0  0  0  0
   10.7250    6.7875    0.0000 C   0  0  0  0  0  0  0  0  0  0  0  0
    3.3000    2.5006    0.0000 C   0  0  0  0  0  0  0  0  0  0  0  0
    2.8875    1.7862    0.0000 C   0  0  0  0  0  0  0  0  0  0  0  0
    2.0625    1.7862    0.0000 C   0  0  0  0  0  0  0  0  0  0  0  0
    1.6500    1.0717    0.0000 C   0  0  1  0  0  0  0  0  0  0  0  0
    2.0625    0.3572    0.0000 O   0  0  0  0  0  0  0  0  0  0  0  0
    0.8250    1.0717    0.0000 C   0  0  1  0  0  0  0  0  0  0  0  0
    0.4125    1.7862    0.0000 N   0  0  0  0  0  0  0  0  0  0  0  0
   -0.4124    1.7862    0.0000 C   0  0  0  0  0  0  0  0  0  0  0  0
   -0.8249    1.0717    0.0000 O   0  0  0  0  0  0  0  0  0  0  0  0
   -0.8249    2.5006    0.0000 C   0  0  0  0  0  0  0  0  0  0  0  0
   -1.6499    2.5006    0.0000 C   0  0  0  0  0  0  0  0  0  0  0  0
   -2.0624    3.2151    0.0000 C   0  0  0  0  0  0  0  0  0  0  0  0
   -2.8874    3.2151    0.0000 C   0  0  0  0  0  0  0  0  0  0  0  0
   -3.2999    3.9296    0.0000 C   0  0  0  0  0  0  0  0  0  0  0  0
   -4.1249    3.9296    0.0000 C   0  0  0  0  0  0  0  0  0  0  0  0
   -4.5374    4.6441    0.0000 C   0  0  0  0  0  0  0  0  0  0  0  0
   -5.3625    4.6441    0.0000 C   0  0  0  0  0  0  0  0  0  0  0  0
   -5.7749    5.3585    0.0000 C   0  0  0  0  0  0  0  0  0  0  0  0
   -6.5999    5.3585    0.0000 C   0  0  0  0  0  0  0  0  0  0  0  0
   -7.0125    6.0730    0.0000 C   0  0  0  0  0  0  0  0  0  0  0  0
   -7.8375    6.0730    0.0000 C   0  0  0  0  0  0  0  0  0  0  0  0
   -8.2499    6.7874    0.0000 C   0  0  0  0  0  0  0  0  0  0  0  0
   -9.0750    6.7874    0.0000 C   0  0  0  0  0  0  0  0  0  0  0  0
   -9.4875    7.5019    0.0000 C   0  0  0  0  0  0  0  0  0  0  0  0
  -10.3125    7.5019    0.0000 C   0  0  0  0  0  0  0  0  0  0  0  0
  -10.7249    8.2164    0.0000 C   0  0  0  0  0  0  0  0  0  0  0  0
    0.4125    0.3572    0.0000 C   0  0  0  0  0  0  0  0  0  0  0  0
   -0.4124    0.3572    0.0000 O   0  0  0  0  0  0  0  0  0  0  0  0
   -0.8249   -0.3571    0.0000 C   0  0  2  0  0  0  0  0  0  0  0  0
   -0.4124   -1.0716    0.0000 O   0  0  0  0  0  0  0  0  0  0  0  0
   -0.8249   -1.7861    0.0000 C   0  0  2  0  0  0  0  0  0  0  0  0
   -0.4124   -2.5005    0.0000 C   0  0  0  0  0  0  0  0  0  0  0  0
    0.4125   -2.5005    0.0000 O   0  0  0  0  0  0  0  0  0  0  0  0
   -1.6499   -1.7861    0.0000 C   0  0  1  0  0  0  0  0  0  0  0  0
   -2.0624   -2.5006    0.0000 O   0  0  0  0  0  0  0  0  0  0  0  0
   -2.8874   -2.5006    0.0000 C   0  0  2  0  0  0  0  0  0  0  0  0
   -3.2999   -1.7861    0.0000 O   0  0  0  0  0  0  0  0  0  0  0  0
   -4.1249   -1.7861    0.0000 C   0  0  2  0  0  0  0  0  0  0  0  0
   -4.5374   -1.0716    0.0000 C   0  0  0  0  0  0  0  0  0  0  0  0
   -4.1249   -0.3572    0.0000 O   0  0  0  0  0  0  0  0  0  0  0  0
   -4.5374   -2.5006    0.0000 C   0  0  2  0  0  0  0  0  0  0  0  0
   -5.3624   -2.5006    0.0000 O   0  0  0  0  0  0  0  0  0  0  0  0
   -5.6446   -1.7253    0.0000 C   0  0  2  0  0  0  0  0  0  0  0  0
   -5.1143   -1.0933    0.0000 O   0  0  0  0  0  0  0  0  0  0  0  0
   -5.3964   -0.3181    0.0000 C   0  0  2  0  0  0  0  0  0  0  0  0
   -4.8661    0.3138    0.0000 C   0  0  0  0  0  0  0  0  0  0  0  0
   -4.0537    0.1705    0.0000 O   0  0  0  0  0  0  0  0  0  0  0  0
   -6.2089   -0.1748    0.0000 C   0  0  2  0  0  0  0  0  0  0  0  0
   -6.4911    0.6003    0.0000 O   0  0  0  0  0  0  0  0  0  0  0  0
   -6.7392   -0.8068    0.0000 C   0  0  2  0  0  0  0  0  0  0  0  0
   -7.5517   -0.6635    0.0000 O   0  0  0  0  0  0  0  0  0  0  0  0
   -7.8339    0.1116    0.0000 C   0  0  2  0  0  0  0  0  0  0  0  0
   -7.3036    0.7436    0.0000 O   0  0  0  0  0  0  0  0  0  0  0  0
   -7.5857    1.5188    0.0000 C   0  0  2  0  0  0  0  0  0  0  0  0
   -7.0554    2.1508    0.0000 C   0  0  0  0  0  0  0  0  0  0  0  0
   -7.3376    2.9261    0.0000 O   0  0  0  0  0  0  0  0  0  0  0  0
   -8.3982    1.6621    0.0000 C   0  0  2  0  0  0  0  0  0  0  0  0
   -8.6804    2.4374    0.0000 O   0  0  0  0  0  0  0  0  0  0  0  0
   -8.9286    1.0301    0.0000 C   0  0  2  0  0  0  0  0  0  0  0  0
   -9.7411    1.1734    0.0000 O   0  0  0  0  0  0  0  0  0  0  0  0
   -8.6463    0.2548    0.0000 C   0  0  1  0  0  0  0  0  0  0  0  0
   -9.1768   -0.3770    0.0000 O   0  0  0  0  0  0  0  0  0  0  0  0
   -6.4570   -1.5821    0.0000 C   0  0  1  0  0  0  0  0  0  0  0  0
   -6.9873   -2.2141    0.0000 N   0  0  0  0  0  0  0  0  0  0  0  0
   -7.7998   -2.0708    0.0000 C   0  0  0  0  0  0  0  0  0  0  0  0
   -8.3301   -2.7028    0.0000 O   0  0  0  0  0  0  0  0  0  0  0  0
   -8.0820   -1.2955    0.0000 C   0  0  0  0  0  0  0  0  0  0  0  0
   -4.1249   -3.2150    0.0000 C   0  0  2  0  0  0  0  0  0  0  0  0
   -4.5374   -3.9295    0.0000 O   0  0  0  0  0  0  0  0  0  0  0  0
   -4.1249   -4.6440    0.0000 C   0  0  2  0  0  0  0  0  0  0  0  0
   -3.7124   -5.3584    0.0000 C   0  0  0  0  0  0  0  0  0  0  0  0
   -4.1249   -6.0729    0.0000 C   0  0  2  0  0  0  0  0  0  0  0  0
   -3.7124   -6.7874    0.0000 O   0  0  0  0  0  0  0  0  0  0  0  0
   -4.9499   -6.0729    0.0000 C   0  0  1  0  0  0  0  0  0  0  0  0
   -5.3624   -6.7874    0.0000 N   0  0  0  0  0  0  0  0  0  0  0  0
   -4.9499   -7.5019    0.0000 C   0  0  0  0  0  0  0  0  0  0  0  0
   -5.3624   -8.2164    0.0000 O   0  0  0  0  0  0  0  0  0  0  0  0
   -4.1249   -7.5019    0.0000 C   0  0  0  0  0  0  0  0  0  0  0  0
   -5.3624   -5.3584    0.0000 C   0  0  2  0  0  0  0  0  0  0  0  0
   -5.9944   -5.8887    0.0000 C   0  0  2  0  0  0  0  0  0  0  0  0
   -6.0694   -6.7449    0.0000 O   0  0  0  0  0  0  0  0  0  0  0  0
   -6.7697   -5.6066    0.0000 C   0  0  1  0  0  0  0  0  0  0  0  0
   -7.4016   -6.1369    0.0000 C   0  0  0  0  0  0  0  0  0  0  0  0
   -8.1769   -5.8547    0.0000 O   0  0  0  0  0  0  0  0  0  0  0  0
   -6.9129   -4.7941    0.0000 O   0  0  0  0  0  0  0  0  0  0  0  0
   -5.9944   -4.8281    0.0000 H   0  0  0  0  0  0  0  0  0  0  0  0
   -4.9499   -4.6440    0.0000 O   0  0  0  0  0  0  0  0  0  0  0  0
   -3.2999   -4.6440    0.0000 C   0  0  0  0  0  0  0  0  0  0  0  0
   -2.8874   -3.9295    0.0000 O   0  0  0  0  0  0  0  0  0  0  0  0
   -3.2999   -3.2150    0.0000 C   0  0  1  0  0  0  0  0  0  0  0  0
   -2.8874   -5.3584    0.0000 O   0  0  0  0  0  0  0  0  0  0  0  0
   -2.0624   -1.0716    0.0000 C   0  0  2  0  0  0  0  0  0  0  0  0
   -2.8874   -1.0716    0.0000 O   0  0  0  0  0  0  0  0  0  0  0  0
   -1.6499   -0.3572    0.0000 C   0  0  1  0  0  0  0  0  0  0  0  0
   -2.0624    0.3572    0.0000 O   0  0  0  0  0  0  0  0  0  0  0  0
  1  2  1  0  0  0  0
  2  3  1  0  0  0  0
  3  4  1  0  0  0  0
  4  5  1  0  0  0  0
  5  6  1  0  0  0  0
  6  7  1  0  0  0  0
  7  8  1  0  0  0  0
  8  9  1  0  0  0  0
  9 10  1  0  0  0  0
 10 11  1  0  0  0  0
 11 12  1  0  0  0  0
 13  1  1  0  0  0  0
 14 13  1  0  0  0  0
 15 14  2  0  0  0  0
 16 15  1  0  0  0  0
 16 17  1  1  0  0  0
 18 16  1  0  0  0  0
 18 19  1  6  0  0  0
 19 20  1  0  0  0  0
 20 21  2  0  0  0  0
 20 22  1  0  0  0  0
 22 23  1  0  0  0  0
 23 24  1  0  0  0  0
 24 25  1  0  0  0  0
 25 26  1  0  0  0  0
 26 27  1  0  0  0  0
 27 28  1  0  0  0  0
 28 29  1  0  0  0  0
 29 30  1  0  0  0  0
 30 31  1  0  0  0  0
 31 32  1  0  0  0  0
 32 33  1  0  0  0  0
 33 34  1  0  0  0  0
 34 35  1  0  0  0  0
 35 36  1  0  0  0  0
 36 37  1  0  0  0  0
 37 38  1  0  0  0  0
 39 18  1  0  0  0  0
 40 39  1  0  0  0  0
 41 40  1  6  0  0  0
 41 42  1  0  0  0  0
 42 43  1  0  0  0  0
 43 44  1  6  0  0  0
 44 45  1  0  0  0  0
 43 46  1  0  0  0  0
 46 47  1  1  0  0  0
 48 47  1  1  0  0  0
 48 49  1  0  0  0  0
 49 50  1  0  0  0  0
 50 51  1  1  0  0  0
 51 52  1  0  0  0  0
 50 53  1  0  0  0  0
 53 54  1  1  0  0  0
 55 54  1  1  0  0  0
 55 56  1  0  0  0  0
 56 57  1  0  0  0  0
 57 58  1  1  0  0  0
 58 59  1  0  0  0  0
 57 60  1  0  0  0  0
 60 61  1  1  0  0  0
 62 60  1  0  0  0  0
 62 63  1  1  0  0  0
 64 63  1  1  0  0  0
 64 65  1  0  0  0  0
 65 66  1  0  0  0  0
 66 67  1  1  0  0  0
 67 68  1  0  0  0  0
 66 69  1  0  0  0  0
 69 70  1  1  0  0  0
 71 69  1  0  0  0  0
 71 72  1  1  0  0  0
 71 73  1  0  0  0  0
 73 64  1  0  0  0  0
 73 74  1  6  0  0  0
 62 75  1  0  0  0  0
 75 55  1  0  0  0  0
 75 76  1  6  0  0  0
 76 77  1  0  0  0  0
 77 78  2  0  0  0  0
 77 79  1  0  0  0  0
 80 53  1  0  0  0  0
 80 81  1  1  0  0  0
 82 81  1  6  0  0  0
 83 82  1  0  0  0  0
 84 83  1  0  0  0  0
 84 85  1  6  0  0  0
 86 84  1  0  0  0  0
 86 87  1  1  0  0  0
 87 88  1  0  0  0  0
 88 89  2  0  0  0  0
 88 90  1  0  0  0  0
 91 86  1  0  0  0  0
 91 92  1  0  0  0  0
 92 93  1  6  0  0  0
 92 94  1  0  0  0  0
 94 95  1  0  0  0  0
 95 96  1  0  0  0  0
 94 97  1  1  0  0  0
 91 98  1  1  0  0  0
 99 91  1  0  0  0  0
 99 82  1  0  0  0  0
 82100  1  0  0  0  0
100101  1  0  0  0  0
102101  1  6  0  0  0
 80102  1  0  0  0  0
102 48  1  0  0  0  0
100103  2  0  0  0  0
104 46  1  0  0  0  0
104105  1  6  0  0  0
104106  1  0  0  0  0
106 41  1  0  0  0  0
106107  1  1  0  0  0
M  END
> <DATABASE_ID>
DB12351

> <DATABASE_NAME>
drugbank

> <SMILES>
[H][C@]1(O[C@@]2(C[C@H](O)[C@H]1NC(C)=O)O[C@H]1[C@@H](O[C@@H]3O[C@H](CO)[C@H](O)[C@H](O[C@@H]4O[C@H](CO)[C@H](O)[C@H](O)[C@H]4O)[C@H]3NC(C)=O)[C@@H](CO)O[C@@H](O[C@H]3[C@H](O)[C@@H](O)[C@H](OC[C@H](NC(=O)CCCCCCCCCCCCCCCCC)[C@H](O)\C=C\CCCCCCCCCCCCC)O[C@@H]3CO)[C@@H]1OC2=O)[C@H](O)[C@H](O)CO

> <INCHI_IDENTIFIER>
InChI=1S/C73H129N3O30/c1-5-7-9-11-13-15-17-19-20-22-24-26-28-30-32-34-52(87)76-44(45(84)33-31-29-27-25-23-21-18-16-14-12-10-8-6-2)41-96-69-61(94)59(92)62(50(39-80)99-69)101-71-67-66(106-73(72(95)104-67)35-46(85)53(74-42(3)82)65(105-73)55(88)47(86)36-77)63(51(40-81)100-71)102-68-54(75-43(4)83)64(57(90)49(38-79)97-68)103-70-60(93)58(91)56(89)48(37-78)98-70/h31,33,44-51,53-71,77-81,84-86,88-94H,5-30,32,34-41H2,1-4H3,(H,74,82)(H,75,83)(H,76,87)/b33-31+/t44-,45+,46-,47+,48+,49+,50+,51+,53+,54+,55+,56-,57-,58-,59+,60+,61+,62+,63-,64+,65+,66-,67+,68-,69+,70-,71-,73-/m0/s1

> <INCHI_KEY>
WVHBJHLTCHODOA-MYYVOHNDSA-N

> <FORMULA>
C73H129N3O30

> <MOLECULAR_WEIGHT>
1528.826

> <EXACT_MASS>
1527.866089766

> <JCHEM_ACCEPTOR_COUNT>
29

> <JCHEM_ATOM_COUNT>
235

> <JCHEM_AVERAGE_NEUTRAL_MICROSPECIES_CHARGE>
0.20619577837402045

> <JCHEM_AVERAGE_POLARIZABILITY>
168.86194743591568

> <JCHEM_BIOAVAILABILITY>
0

> <JCHEM_DONOR_COUNT>
18

> <JCHEM_FORMAL_CHARGE>
0

> <JCHEM_GHOSE_FILTER>
0

> <JCHEM_IUPAC>
N-[(2S,3R,4E)-1-{[(2R,3R,4R,5S,6R)-5-[(2S,4S,4'aR,5R,5'S,6R,7'R,8'S,8'aS)-5-acetamido-8'-{[(2S,3R,4R,5R,6R)-3-acetamido-5-hydroxy-6-(hydroxymethyl)-4-{[(2R,3R,4S,5R,6R)-3,4,5-trihydroxy-6-(hydroxymethyl)oxan-2-yl]oxy}oxan-2-yl]oxy}-4-hydroxy-7'-(hydroxymethyl)-6-[(1R,2R)-1,2,3-trihydroxypropyl]-hexahydrospiro[oxane-2,2'-pyrano[3,4-b][1,4]dioxin]-3'-oneoxy]-3,4-dihydroxy-6-(hydroxymethyl)oxan-2-yl]oxy}-3-hydroxyoctadec-4-en-2-yl]octadecanamide

> <ALOGPS_LOGP>
2.65

> <JCHEM_LOGP>
2.645351875333329

> <ALOGPS_LOGS>
-3.96

> <JCHEM_MDDR_LIKE_RULE>
1

> <JCHEM_NEUTRAL_CHARGE>
0

> <JCHEM_NUMBER_OF_RINGS>
6

> <JCHEM_PHYSIOLOGICAL_CHARGE>
0

> <JCHEM_PKA>
12.040755364874279

> <JCHEM_PKA_STRONGEST_ACIDIC>
11.599876914023644

> <JCHEM_PKA_STRONGEST_BASIC>
-3.640900582525046

> <JCHEM_POLAR_SURFACE_AREA>
509.3500000000001

> <JCHEM_REFRACTIVITY>
372.5112999999998

> <JCHEM_ROTATABLE_BOND_COUNT>
49

> <JCHEM_RULE_OF_FIVE>
0

> <ALOGPS_SOLUBILITY>
1.67e-01 g/l

> <JCHEM_TRADITIONAL_IUPAC>
siagoside

> <JCHEM_VEBER_RULE>
0

> <DRUGBANK_ID>
DB12351

> <DRUG_GROUPS>
investigational

> <GENERIC_NAME>
Siagoside

> <SYNONYMS>
Ganglioside GM1 lactone; Siagoside; Siagosido; Siagosidum

> <INTERNATIONAL_BRANDS>
Sygen

$$$$
