
  Mrv1652310201623212D          

 20 21  0  0  1  0            999 V2000
   -0.1712   -2.1269    0.0000 C   0  0  0  0  0  0  0  0  0  0  0  0
   -0.5837   -1.4124    0.0000 C   0  0  2  0  0  0  0  0  0  0  0  0
   -0.1712   -0.6979    0.0000 C   0  0  1  0  0  0  0  0  0  0  0  0
    0.6538   -0.6979    0.0000 C   0  0  0  0  0  0  0  0  0  0  0  0
    1.1387   -0.0305    0.0000 N   0  0  0  0  0  0  0  0  0  0  0  0
    1.9233   -0.2854    0.0000 C   0  0  0  0  0  0  0  0  0  0  0  0
    2.6378    0.1271    0.0000 C   0  0  0  0  0  0  0  0  0  0  0  0
    3.3523   -0.2854    0.0000 C   0  0  0  0  0  0  0  0  0  0  0  0
    3.3523   -1.1104    0.0000 C   0  0  0  0  0  0  0  0  0  0  0  0
    2.6378   -1.5229    0.0000 C   0  0  0  0  0  0  0  0  0  0  0  0
    1.9233   -1.1104    0.0000 C   0  0  0  0  0  0  0  0  0  0  0  0
    1.1387   -1.3654    0.0000 N   0  0  0  0  0  0  0  0  0  0  0  0
    4.0668    0.1271    0.0000 C   0  0  0  0  0  0  0  0  0  0  0  0
    4.7812    0.5396    0.0000 C   0  0  0  0  0  0  0  0  0  0  0  0
    3.6543    0.8415    0.0000 C   0  0  0  0  0  0  0  0  0  0  0  0
    4.4793   -0.5874    0.0000 C   0  0  0  0  0  0  0  0  0  0  0  0
   -0.5837    0.0165    0.0000 N   0  0  0  0  0  0  0  0  0  0  0  0
   -1.4087   -1.4124    0.0000 C   0  0  0  0  0  0  0  0  0  0  0  0
   -1.8212   -2.1269    0.0000 O   0  0  0  0  0  0  0  0  0  0  0  0
   -1.8212   -0.6979    0.0000 N   0  0  0  0  0  0  0  0  0  0  0  0
  2  1  1  1  0  0  0
  2  3  1  0  0  0  0
  3  4  1  0  0  0  0
  4  5  1  0  0  0  0
  5  6  1  0  0  0  0
  6  7  2  0  0  0  0
  7  8  1  0  0  0  0
  8  9  2  0  0  0  0
  9 10  1  0  0  0  0
 10 11  2  0  0  0  0
  6 11  1  0  0  0  0
 11 12  1  0  0  0  0
  4 12  2  0  0  0  0
  8 13  1  0  0  0  0
 13 14  1  0  0  0  0
 13 15  1  0  0  0  0
 13 16  1  0  0  0  0
  3 17  1  6  0  0  0
  2 18  1  0  0  0  0
 18 19  2  0  0  0  0
 18 20  1  0  0  0  0
M  END
> <DATABASE_ID>
DB12106

> <DATABASE_NAME>
drugbank

> <SMILES>
C[C@H]([C@H](N)C1=NC2=CC=C(C=C2N1)C(C)(C)C)C(N)=O

> <INCHI_IDENTIFIER>
InChI=1S/C15H22N4O/c1-8(13(17)20)12(16)14-18-10-6-5-9(15(2,3)4)7-11(10)19-14/h5-8,12H,16H2,1-4H3,(H2,17,20)(H,18,19)/t8-,12+/m1/s1

> <INCHI_KEY>
APWZIFIAVVFPNT-PELKAZGASA-N

> <FORMULA>
C15H22N4O

> <MOLECULAR_WEIGHT>
274.368

> <EXACT_MASS>
274.179361344

> <JCHEM_ACCEPTOR_COUNT>
3

> <JCHEM_ATOM_COUNT>
42

> <JCHEM_AVERAGE_POLARIZABILITY>
31.481014352103404

> <JCHEM_BIOAVAILABILITY>
1

> <JCHEM_DONOR_COUNT>
3

> <JCHEM_FORMAL_CHARGE>
0

> <JCHEM_GHOSE_FILTER>
1

> <JCHEM_IUPAC>
(2R,3S)-3-amino-3-(6-tert-butyl-1H-1,3-benzodiazol-2-yl)-2-methylpropanamide

> <ALOGPS_LOGP>
2.02

> <JCHEM_LOGP>
1.666491154666667

> <ALOGPS_LOGS>
-3.64

> <JCHEM_MDDR_LIKE_RULE>
0

> <JCHEM_NUMBER_OF_RINGS>
2

> <JCHEM_PHYSIOLOGICAL_CHARGE>
1

> <JCHEM_PKA>
16.11577917867015

> <JCHEM_PKA_STRONGEST_ACIDIC>
11.524074992383747

> <JCHEM_PKA_STRONGEST_BASIC>
7.1710962708419395

> <JCHEM_POLAR_SURFACE_AREA>
97.79

> <JCHEM_REFRACTIVITY>
78.36079999999998

> <JCHEM_ROTATABLE_BOND_COUNT>
4

> <JCHEM_RULE_OF_FIVE>
1

> <ALOGPS_SOLUBILITY>
6.32e-02 g/l

> <JCHEM_TRADITIONAL_IUPAC>
(2R,3S)-3-amino-3-(5-tert-butyl-3H-1,3-benzodiazol-2-yl)-2-methylpropanamide

> <JCHEM_VEBER_RULE>
0

> <DRUGBANK_ID>
DB12106

> <DRUG_GROUPS>
investigational

> <GENERIC_NAME>
PF-06305591

$$$$
