
  Mrv1909 07102021182D          

 12 13  0  0  0  0            999 V2000
    0.6411   -0.2854    0.0000 C   0  0  0  0  0  0  0  0  0  0  0  0
    0.6411   -1.1104    0.0000 C   0  0  0  0  0  0  0  0  0  0  0  0
    1.3556    0.1271    0.0000 C   0  0  0  0  0  0  0  0  0  0  0  0
   -0.6284   -0.6979    0.0000 C   0  0  0  0  0  0  0  0  0  0  0  0
    2.0701   -1.1104    0.0000 C   0  0  0  0  0  0  0  0  0  0  0  0
   -0.1435   -0.0305    0.0000 N   0  0  0  0  0  0  0  0  0  0  0  0
   -0.1435   -1.3654    0.0000 N   0  0  0  0  0  0  0  0  0  0  0  0
    1.3556   -1.5229    0.0000 N   0  0  0  0  0  0  0  0  0  0  0  0
    2.0701   -0.2854    0.0000 N   0  0  0  0  0  0  0  0  0  0  0  0
    1.3556    0.9521    0.0000 O   0  0  0  0  0  0  0  0  0  0  0  0
   -1.4534   -0.6979    0.0000 O   0  0  0  0  0  0  0  0  0  0  0  0
    2.7845   -1.5229    0.0000 O   0  0  0  0  0  0  0  0  0  0  0  0
  2  1  2  0  0  0  0
  3  1  1  0  0  0  0
  6  1  1  0  0  0  0
  6  4  2  0  0  0  0
  7  2  1  0  0  0  0
  7  4  1  0  0  0  0
  8  2  1  0  0  0  0
  8  5  2  0  0  0  0
  9  3  2  0  0  0  0
  9  5  1  0  0  0  0
 10  3  1  0  0  0  0
 11  4  1  0  0  0  0
 12  5  1  0  0  0  0
M  END
> <DATABASE_ID>
DB08844

> <DATABASE_NAME>
drugbank

> <SMILES>
OC1=NC2=C(N1)N=C(O)N=C2O

> <INCHI_IDENTIFIER>
InChI=1S/C5H4N4O3/c10-3-1-2(7-4(11)6-1)8-5(12)9-3/h(H4,6,7,8,9,10,11,12)

> <INCHI_KEY>
LEHOTFFKMJEONL-UHFFFAOYSA-N

> <FORMULA>
C5H4N4O3

> <MOLECULAR_WEIGHT>
168.1103

> <EXACT_MASS>
168.028340014

> <JCHEM_ACCEPTOR_COUNT>
6

> <JCHEM_ATOM_COUNT>
16

> <JCHEM_AVERAGE_NEUTRAL_MICROSPECIES_CHARGE>
-0.06309736228440616

> <JCHEM_AVERAGE_POLARIZABILITY>
14.10202728080728

> <JCHEM_BIOAVAILABILITY>
1

> <JCHEM_DONOR_COUNT>
4

> <JCHEM_FORMAL_CHARGE>
0

> <JCHEM_GHOSE_FILTER>
0

> <JCHEM_IUPAC>
9H-purine-2,6,8-triol

> <ALOGPS_LOGP>
-0.41

> <JCHEM_LOGP>
0.750253286

> <ALOGPS_LOGS>
-1.24

> <JCHEM_MDDR_LIKE_RULE>
0

> <JCHEM_NEUTRAL_CHARGE>
0

> <JCHEM_NUMBER_OF_RINGS>
2

> <JCHEM_PHYSIOLOGICAL_CHARGE>
0

> <JCHEM_PKA>
11.573513870892901

> <JCHEM_PKA_STRONGEST_ACIDIC>
8.171910955442918

> <JCHEM_PKA_STRONGEST_BASIC>
-1.8048803731107579

> <JCHEM_POLAR_SURFACE_AREA>
115.15

> <JCHEM_REFRACTIVITY>
37.26089999999999

> <JCHEM_ROTATABLE_BOND_COUNT>
0

> <JCHEM_RULE_OF_FIVE>
1

> <ALOGPS_SOLUBILITY>
9.61e+00 g/l

> <JCHEM_TRADITIONAL_IUPAC>
ergosterol

> <JCHEM_VEBER_RULE>
0

> <DRUGBANK_ID>
DB08844

> <SECONDARY_ACCESSION_NUMBERS>
DB01696; EXPT03202

> <DRUG_GROUPS>
investigational

> <GENERIC_NAME>
Uric acid

> <SYNONYMS>
2,6,8-trihydroxypurine; 2,6,8-trioxopurine; 2,6,8-trioxypurine; 7,9-dihydro-1H-purine-2,6,8(3H)-trione; Lithic acid; Purine-2,6,8(1H,3H,9H)-trione; Urate; Uricum acidum

$$$$
