
  Mrv1909 11191922152D          

 24 26  0  0  0  0            999 V2000
    1.8253    0.0314    0.0000 C   0  0  0  0  0  0  0  0  0  0  0  0
    1.1978    0.4751    0.0000 N   0  0  0  0  0  0  0  0  0  0  0  0
    2.5568    0.5756    0.0000 C   0  0  0  0  0  0  0  0  0  0  0  0
    1.9050   -0.8110    0.0000 N   0  0  0  0  0  0  0  0  0  0  0  0
    0.4316    0.2221    0.0000 C   0  0  2  0  0  0  0  0  0  0  0  0
    1.4821    1.3002    0.0000 C   0  0  0  0  0  0  0  0  0  0  0  0
    2.3383    1.2969    0.0000 N   0  0  0  0  0  0  0  0  0  0  0  0
    3.3021    0.2429    0.0000 C   0  0  0  0  0  0  0  0  0  0  0  0
    2.6918   -1.1541    0.0000 C   0  0  0  0  0  0  0  0  0  0  0  0
   -0.2409    0.7317    0.0000 O   0  0  0  0  0  0  0  0  0  0  0  0
    0.1751   -0.5196    0.0000 C   0  0  0  0  0  0  0  0  0  0  0  0
    3.3957   -0.6376    0.0000 N   0  0  0  0  0  0  0  0  0  0  0  0
    3.9608    0.7351    0.0000 O   0  0  0  0  0  0  0  0  0  0  0  0
    2.7822   -1.9758    0.0000 N   0  0  0  0  0  0  0  0  0  0  0  0
   -0.8996    0.2567    0.0000 C   0  0  1  0  0  0  0  0  0  0  0  0
   -0.6430   -0.5196    0.0000 C   0  0  1  0  0  0  0  0  0  0  0  0
   -1.6830    0.5167    0.0000 C   0  0  0  0  0  0  0  0  0  0  0  0
   -0.9100   -1.2999    0.0000 O   0  0  0  0  0  0  0  0  0  0  0  0
   -2.3036   -0.0379    0.0000 O   0  0  0  0  0  0  0  0  0  0  0  0
   -3.1322   -0.0379    0.0000 P   0  0  0  0  0  0  0  0  0  0  0  0
   -3.9608   -0.0379    0.0000 O   0  0  0  0  0  0  0  0  0  0  0  0
   -3.1357   -0.8664    0.0000 O   0  0  0  0  0  0  0  0  0  0  0  0
   -3.1357    0.7906    0.0000 O   0  0  0  0  0  0  0  0  0  0  0  0
    1.0024    1.9758    0.0000 O   0  0  0  0  0  0  0  0  0  0  0  0
  1  2  1  0  0  0  0
  1  3  2  0  0  0  0
  1  4  1  0  0  0  0
  5  2  1  1  0  0  0
  2  6  1  0  0  0  0
  3  7  1  0  0  0  0
  3  8  1  0  0  0  0
  4  9  2  0  0  0  0
  5 10  1  0  0  0  0
  5 11  1  0  0  0  0
  8 12  1  0  0  0  0
  8 13  2  0  0  0  0
  9 14  1  0  0  0  0
 10 15  1  0  0  0  0
 11 16  1  0  0  0  0
 15 17  1  1  0  0  0
 16 18  1  6  0  0  0
 17 19  1  0  0  0  0
 19 20  1  0  0  0  0
 20 21  1  0  0  0  0
 20 22  1  0  0  0  0
 20 23  2  0  0  0  0
  6  7  1  0  0  0  0
  9 12  1  0  0  0  0
 15 16  1  0  0  0  0
  6 24  2  0  0  0  0
M  END
> <DATABASE_ID>
DB02023

> <DATABASE_NAME>
drugbank

> <SMILES>
NC1=NC2=C(NC(=O)N2[C@H]2C[C@H](O)[C@@H](COP(O)(O)=O)O2)C(=O)N1

> <INCHI_IDENTIFIER>
InChI=1S/C10H14N5O8P/c11-9-13-7-6(8(17)14-9)12-10(18)15(7)5-1-3(16)4(23-5)2-22-24(19,20)21/h3-5,16H,1-2H2,(H,12,18)(H2,19,20,21)(H3,11,13,14,17)/t3-,4+,5+/m0/s1

> <INCHI_KEY>
AQIVLFLYHYFRKU-VPENINKCSA-N

> <FORMULA>
C10H14N5O8P

> <MOLECULAR_WEIGHT>
363.2206

> <EXACT_MASS>
363.057998961

> <JCHEM_ACCEPTOR_COUNT>
11

> <JCHEM_ATOM_COUNT>
38

> <JCHEM_AVERAGE_POLARIZABILITY>
30.457682069874423

> <JCHEM_BIOAVAILABILITY>
0

> <JCHEM_DONOR_COUNT>
7

> <JCHEM_FORMAL_CHARGE>
0

> <JCHEM_GHOSE_FILTER>
0

> <JCHEM_IUPAC>
{[(2R,3S,5R)-5-(6,8-dihydroxy-2-imino-3,9-dihydro-2H-purin-9-yl)-3-hydroxyoxolan-2-yl]methoxy}phosphonic acid

> <ALOGPS_LOGP>
-1.77

> <JCHEM_LOGP>
-4.239302513546046

> <ALOGPS_LOGS>
-1.74

> <JCHEM_MDDR_LIKE_RULE>
0

> <JCHEM_NUMBER_OF_RINGS>
3

> <JCHEM_PHYSIOLOGICAL_CHARGE>
-2

> <JCHEM_PKA>
1.2293734533210627

> <JCHEM_PKA_STRONGEST_ACIDIC>
-5.730598555294005

> <JCHEM_PKA_STRONGEST_BASIC>
21.848380934868292

> <JCHEM_POLAR_SURFACE_AREA>
202.73999999999998

> <JCHEM_REFRACTIVITY>
86.01859999999999

> <JCHEM_ROTATABLE_BOND_COUNT>
4

> <JCHEM_RULE_OF_FIVE>
0

> <ALOGPS_SOLUBILITY>
6.61e+00 g/l

> <JCHEM_TRADITIONAL_IUPAC>
2lambda5-triaz-1-en-2-yn-1-ide hydrate diiron

> <JCHEM_VEBER_RULE>
0

> <DRUGBANK_ID>
DB02023

> <SECONDARY_ACCESSION_NUMBERS>
EXPT01532

> <DRUG_GROUPS>
experimental

> <GENERIC_NAME>
8-oxo-dGMP

> <SYNONYMS>
2'-deoxy-7,8-dihydro-8-oxo-5'-guanylic acid; 2'-deoxy-7,8-dihydro-8-oxoguanosine 5'-monophosphate; 8-hydroxydeoxyguanosine 5'-monophosphate; 8-OH-Dgmp; 8-oxo-2'-deoxyguanosine-5'-monophosphate

$$$$
