
  Mrv1652310201623452D          

 22 22  0  0  1  0            999 V2000
    1.2352    0.6294    0.0000 C   0  0  0  0  0  0  0  0  0  0  0  0
    0.9803   -0.1553    0.0000 C   0  0  0  0  0  0  0  0  0  0  0  0
    0.1553   -0.1553    0.0000 C   0  0  0  0  0  0  0  0  0  0  0  0
   -0.0997    0.6294    0.0000 S   0  0  0  0  0  0  0  0  0  0  0  0
    0.5678    1.1143    0.0000 C   0  0  0  0  0  0  0  0  0  0  0  0
    0.5678    1.9393    0.0000 S   0  0  0  0  0  0  0  0  0  0  0  0
   -0.2572    1.9393    0.0000 O   0  0  0  0  0  0  0  0  0  0  0  0
    1.3928    1.9393    0.0000 O   0  0  0  0  0  0  0  0  0  0  0  0
    0.5678    2.7643    0.0000 N   0  0  0  0  0  0  0  0  0  0  0  0
    1.2822    3.1768    0.0000 C   0  0  2  0  0  0  0  0  0  0  0  0
    1.9967    2.7643    0.0000 C   0  0  0  0  0  0  0  0  0  0  0  0
    1.9967    1.9393    0.0000 O   0  0  0  0  0  0  0  0  0  0  0  0
    1.2822    4.0018    0.0000 C   0  0  0  0  0  0  0  0  0  0  0  0
    1.9967    4.4143    0.0000 C   0  0  0  0  0  0  0  0  0  0  0  0
    2.7112    4.8268    0.0000 F   0  0  0  0  0  0  0  0  0  0  0  0
    1.5842    5.1288    0.0000 F   0  0  0  0  0  0  0  0  0  0  0  0
    2.4092    3.6998    0.0000 F   0  0  0  0  0  0  0  0  0  0  0  0
    0.5678    4.4143    0.0000 C   0  0  0  0  0  0  0  0  0  0  0  0
   -0.1467    4.8268    0.0000 F   0  0  0  0  0  0  0  0  0  0  0  0
    0.9803    5.1288    0.0000 F   0  0  0  0  0  0  0  0  0  0  0  0
    0.1553    3.6998    0.0000 F   0  0  0  0  0  0  0  0  0  0  0  0
   -0.3297   -0.8227    0.0000 Cl  0  0  0  0  0  0  0  0  0  0  0  0
  1  2  1  0  0  0  0
  2  3  2  0  0  0  0
  3  4  1  0  0  0  0
  4  5  1  0  0  0  0
  1  5  2  0  0  0  0
  5  6  1  0  0  0  0
  6  7  2  0  0  0  0
  6  8  2  0  0  0  0
  6  9  1  0  0  0  0
 10  9  1  1  0  0  0
 10 11  1  0  0  0  0
 11 12  1  0  0  0  0
 10 13  1  0  0  0  0
 13 14  1  0  0  0  0
 14 15  1  0  0  0  0
 14 16  1  0  0  0  0
 14 17  1  0  0  0  0
 13 18  1  0  0  0  0
 18 19  1  0  0  0  0
 18 20  1  0  0  0  0
 18 21  1  0  0  0  0
  3 22  1  0  0  0  0
M  END
> <DATABASE_ID>
DB12263

> <DATABASE_NAME>
drugbank

> <SMILES>
OC[C@@H](NS(=O)(=O)C1=CC=C(Cl)S1)C(C(F)(F)F)C(F)(F)F

> <INCHI_IDENTIFIER>
InChI=1S/C9H8ClF6NO3S2/c10-5-1-2-6(21-5)22(19,20)17-4(3-18)7(8(11,12)13)9(14,15)16/h1-2,4,7,17-18H,3H2/t4-/m1/s1

> <INCHI_KEY>
PSXOKXJMVRSARX-SCSAIBSYSA-N

> <FORMULA>
C9H8ClF6NO3S2

> <MOLECULAR_WEIGHT>
391.73

> <EXACT_MASS>
390.9538321

> <JCHEM_ACCEPTOR_COUNT>
3

> <JCHEM_ATOM_COUNT>
30

> <JCHEM_AVERAGE_POLARIZABILITY>
27.600172153637892

> <JCHEM_BIOAVAILABILITY>
1

> <JCHEM_DONOR_COUNT>
2

> <JCHEM_FORMAL_CHARGE>
0

> <JCHEM_GHOSE_FILTER>
1

> <JCHEM_IUPAC>
5-chloro-N-[(2S)-4,4,4-trifluoro-1-hydroxy-3-(trifluoromethyl)butan-2-yl]thiophene-2-sulfonamide

> <ALOGPS_LOGP>
3.12

> <JCHEM_LOGP>
2.4240317573333336

> <ALOGPS_LOGS>
-3.23

> <JCHEM_MDDR_LIKE_RULE>
0

> <JCHEM_NUMBER_OF_RINGS>
1

> <JCHEM_PHYSIOLOGICAL_CHARGE>
-1

> <JCHEM_PKA>
14.915995248417087

> <JCHEM_PKA_STRONGEST_ACIDIC>
6.9916267192657715

> <JCHEM_PKA_STRONGEST_BASIC>
-2.7852059028848304

> <JCHEM_POLAR_SURFACE_AREA>
66.4

> <JCHEM_REFRACTIVITY>
64.7631

> <JCHEM_ROTATABLE_BOND_COUNT>
6

> <JCHEM_RULE_OF_FIVE>
1

> <ALOGPS_SOLUBILITY>
2.30e-01 g/l

> <JCHEM_TRADITIONAL_IUPAC>
5-chloro-N-[(2S)-4,4,4-trifluoro-1-hydroxy-3-(trifluoromethyl)butan-2-yl]thiophene-2-sulfonamide

> <JCHEM_VEBER_RULE>
0

> <DRUGBANK_ID>
DB12263

> <DRUG_GROUPS>
investigational

> <GENERIC_NAME>
Begacestat

> <SYNONYMS>
Begacestat

$$$$
