
  Mrv1652306131721582D          

 13  8  0  0  0  0            999 V2000
    0.0000    0.0000    0.0000 O   0  0  0  0  0  0  0  0  0  0  0  0
    2.3571    0.0000    0.0000 O   0  0  0  0  0  0  0  0  0  0  0  0
   -0.1748   -4.4270    0.0000 O   0  5  0  0  0  0  0  0  0  0  0  0
   -0.1748   -3.6020    0.0000 Si  0  0  0  0  0  0  0  0  0  0  0  0
   -0.9998   -3.6020    0.0000 O   0  5  0  0  0  0  0  0  0  0  0  0
    0.6502   -3.6020    0.0000 O   0  5  0  0  0  0  0  0  0  0  0  0
   -0.1748   -2.7770    0.0000 O   0  0  0  0  0  0  0  0  0  0  0  0
    0.5397   -2.3645    0.0000 Si  0  0  0  0  0  0  0  0  0  0  0  0
    1.2542   -1.9520    0.0000 O   0  5  0  0  0  0  0  0  0  0  0  0
    0.1272   -1.6500    0.0000 O   0  5  0  0  0  0  0  0  0  0  0  0
    0.9522   -3.0789    0.0000 O   0  5  0  0  0  0  0  0  0  0  0  0
   -0.1748   -5.2520    0.0000 Al  0  1  0  0  0  0  0  0  0  0  0  0
   -1.8248   -3.6020    0.0000 Al  0  1  0  0  0  0  0  0  0  0  0  0
  3  4  1  0  0  0  0
  4  5  1  0  0  0  0
  4  6  1  0  0  0  0
  4  7  1  0  0  0  0
  7  8  1  0  0  0  0
  8  9  1  0  0  0  0
  8 10  1  0  0  0  0
  8 11  1  0  0  0  0
M  CHG  8   3  -1   5  -1   6  -1   9  -1  10  -1  11  -1  12   3  13   3
M  END
> <DATABASE_ID>
DB01575

> <DATABASE_NAME>
drugbank

> <SMILES>
O.O.[Al+3].[Al+3].[O-][Si]([O-])([O-])O[Si]([O-])([O-])[O-]

> <INCHI_IDENTIFIER>
InChI=1S/2Al.O7Si2.2H2O/c;;1-8(2,3)7-9(4,5)6;;/h;;;2*1H2/q2*+3;-6;;

> <INCHI_KEY>
KGOIAFZMMLWXLM-UHFFFAOYSA-N

> <FORMULA>
Al2H4O9Si2

> <MOLECULAR_WEIGHT>
258.156

> <EXACT_MASS>
257.9024618

> <JCHEM_ACCEPTOR_COUNT>
7

> <JCHEM_ATOM_COUNT>
17

> <JCHEM_AVERAGE_POLARIZABILITY>
9.456914515829578

> <JCHEM_BIOAVAILABILITY>
1

> <JCHEM_DONOR_COUNT>
0

> <JCHEM_FORMAL_CHARGE>
0

> <JCHEM_GHOSE_FILTER>
0

> <JCHEM_IUPAC>
dialuminium(3+) ion [(trioxidosilyl)oxy]silanetris(olate) dihydrate

> <JCHEM_LOGP>
-3.8579999999999988

> <JCHEM_MDDR_LIKE_RULE>
0

> <JCHEM_NUMBER_OF_RINGS>
0

> <JCHEM_PHYSIOLOGICAL_CHARGE>
0

> <JCHEM_PKA>
8.89034414443609

> <JCHEM_PKA_STRONGEST_ACIDIC>
8.235861978134684

> <JCHEM_PKA_STRONGEST_BASIC>
-4.724927294362415

> <JCHEM_POLAR_SURFACE_AREA>
147.59

> <JCHEM_REFRACTIVITY>
10.0076

> <JCHEM_ROTATABLE_BOND_COUNT>
2

> <JCHEM_RULE_OF_FIVE>
1

> <JCHEM_TRADITIONAL_IUPAC>
dialuminium(3+) ion disilicate dihydrate

> <JCHEM_VEBER_RULE>
0

> <DRUGBANK_ID>
DB01575

> <DRUG_GROUPS>
approved

> <GENERIC_NAME>
Kaolin

> <SYNONYMS>
Kaolin; Kaolin, light

> <PRODUCTS>
Body Scrub; Diaret Liq; Diarex; Donnagel Liq; Donnagel-MB Sus; Donnagel-PG Liq; Dr Pore Tightening GLACIAL CLAY FACIAL MASK; Dr Pore Tightening PINK CLAY FACIAL MASK; Druide Biolove for Diaper Rash; Gold Bond Baby Cornstarch Plus; Kaolin Mixture W Pectin Nf; Kaolin Pectin Sus; Kaolin and Pectin Susp; Lil Goats Petite Chevre Fragrance free; Lil Goats Petite Chevre Original; Look At Me Mud Face Mask Mini Pack Aloe; Look At Me Mud Face Mask Mini Pack Green Tea; Look At Me Mud Face Mask Mini Pack Lotus; Look At Me Mud Face Mask Mini Pack Pomegranate; Medicated Cornstarch Baby Powder; Mefactory Pig Collagen 1step Piggy Nose Pack; Poison Ivy/Oak; Pore Tightening Pearl Clay Mask; Pranicura; Pranicura 5; Pranicura II; Preferred Plus Medicated Baby; Protective Cream; QYO QYO Tangerine Bright Moist Peeling Pack; Sonatural Facial Design Deep Black Clay Mask; Sonatural Facial Design Pink Mud Mask; Sonatural The Pure Pore Tensing Carbonic Bubble Pop Clay Mask; W Lab ALL CLEAR MINT PACK

$$$$
