
  Mrv1909 12152018162D          

 39 44  0  0  1  0            999 V2000
    3.1508    0.8481    0.0000 H   0  0  0  0  0  0  0  0  0  0  0  0
    3.6826    0.2174    0.0000 C   0  0  2  0  0  0  0  0  0  0  0  0
    4.3340   -0.2889    0.0000 C   0  0  0  0  0  0  0  0  0  0  0  0
    5.0168    0.1741    0.0000 C   0  0  0  0  0  0  0  0  0  0  0  0
    4.7875    0.9666    0.0000 C   0  0  2  0  0  0  0  0  0  0  0  0
    5.2939    1.6179    0.0000 C   0  0  0  0  0  0  0  0  0  0  0  0
    4.9830    2.3821    0.0000 O   0  0  0  0  0  0  0  0  0  0  0  0
    6.1111    1.5050    0.0000 N   0  0  0  0  0  0  0  0  0  0  0  0
    6.6175    2.1564    0.0000 C   0  0  0  0  0  0  0  0  0  0  0  0
    7.4347    2.0435    0.0000 C   0  0  0  0  0  0  0  0  0  0  0  0
    7.8238    1.3160    0.0000 N   0  0  0  0  0  0  0  0  0  0  0  0
    8.6359    1.4612    0.0000 C   0  0  0  0  0  0  0  0  0  0  0  0
    8.7487    2.2785    0.0000 C   0  0  0  0  0  0  0  0  0  0  0  0
    8.0064    2.6383    0.0000 N   0  0  0  0  0  0  0  0  0  0  0  0
    9.5129    2.5894    0.0000 C   0  0  0  0  0  0  0  0  0  0  0  0
   10.1643    2.0830    0.0000 C   0  0  0  0  0  0  0  0  0  0  0  0
   10.0514    1.2658    0.0000 C   0  0  0  0  0  0  0  0  0  0  0  0
    9.2872    0.9549    0.0000 N   0  0  0  0  0  0  0  0  0  0  0  0
    3.9629    0.9934    0.0000 C   0  0  2  0  0  0  0  0  0  0  0  0
    4.3228    1.7357    0.0000 C   0  0  0  0  0  0  0  0  0  0  0  0
    3.4311    1.6241    0.0000 C   0  0  0  0  0  0  0  0  0  0  0  0
    2.6190    1.4789    0.0000 C   0  0  0  0  0  0  0  0  0  0  0  0
    2.3387    0.7029    0.0000 C   0  0  1  0  0  0  0  0  0  0  0  0
    2.0584   -0.0730    0.0000 H   0  0  0  0  0  0  0  0  0  0  0  0
    2.8705    0.0722    0.0000 C   0  0  1  0  0  0  0  0  0  0  0  0
    3.4023   -0.5585    0.0000 H   0  0  0  0  0  0  0  0  0  0  0  0
    2.5902   -0.7037    0.0000 C   0  0  0  0  0  0  0  0  0  0  0  0
    1.7781   -0.8489    0.0000 C   0  0  0  0  0  0  0  0  0  0  0  0
    1.2463   -0.2182    0.0000 C   0  0  1  0  0  0  0  0  0  0  0  0
    0.7145    0.4125    0.0000 H   0  0  0  0  0  0  0  0  0  0  0  0
    0.4342   -0.3634    0.0000 N   0  0  0  0  0  0  0  0  0  0  0  0
    0.1539   -1.1393    0.0000 C   0  0  0  0  0  0  0  0  0  0  0  0
   -0.0976    0.2673    0.0000 C   0  0  0  0  0  0  0  0  0  0  0  0
   -0.9098    0.1221    0.0000 O   0  0  0  0  0  0  0  0  0  0  0  0
    0.1827    1.0432    0.0000 C   0  0  0  0  0  0  0  0  0  0  0  0
   -0.3492    1.6739    0.0000 F   0  0  0  0  0  0  0  0  0  0  0  0
    0.9948    1.1884    0.0000 C   0  0  0  0  0  0  0  0  0  0  0  0
    1.5266    0.5577    0.0000 C   0  0  2  0  0  0  0  0  0  0  0  0
    1.8069    1.3336    0.0000 C   0  0  0  0  0  0  0  0  0  0  0  0
  2  1  1  6  0  0  0
  2  3  1  0  0  0  0
  3  4  1  0  0  0  0
  5  4  1  0  0  0  0
  5  6  1  1  0  0  0
  6  7  2  0  0  0  0
  6  8  1  0  0  0  0
  8  9  1  0  0  0  0
  9 10  1  0  0  0  0
 10 11  2  0  0  0  0
 11 12  1  0  0  0  0
 12 13  2  0  0  0  0
 13 14  1  0  0  0  0
 10 14  1  0  0  0  0
 13 15  1  0  0  0  0
 15 16  2  0  0  0  0
 16 17  1  0  0  0  0
 17 18  2  0  0  0  0
 12 18  1  0  0  0  0
 19  5  1  0  0  0  0
  2 19  1  0  0  0  0
 19 20  1  1  0  0  0
 19 21  1  0  0  0  0
 21 22  1  0  0  0  0
 23 22  1  0  0  0  0
 23 24  1  6  0  0  0
 25 23  1  0  0  0  0
  2 25  1  0  0  0  0
 25 26  1  1  0  0  0
 25 27  1  0  0  0  0
 27 28  1  0  0  0  0
 29 28  1  0  0  0  0
 29 30  1  6  0  0  0
 29 31  1  0  0  0  0
 31 32  1  0  0  0  0
 31 33  1  0  0  0  0
 33 34  2  0  0  0  0
 33 35  1  0  0  0  0
 35 36  1  0  0  0  0
 35 37  2  0  0  0  0
 38 37  1  0  0  0  0
 23 38  1  0  0  0  0
 38 29  1  0  0  0  0
 38 39  1  1  0  0  0
M  END
> <DATABASE_ID>
DB16244

> <DATABASE_NAME>
drugbank

> <SMILES>
[H][C@@]12CC[C@H](C(=O)NCC3=NC4=C(N3)C=CC=N4)[C@@]1(C)CC[C@@]1([H])[C@@]2([H])CC[C@@]2([H])N(C)C(=O)C(F)=C[C@]12C

> <INCHI_IDENTIFIER>
InChI=1S/C27H34FN5O2/c1-26-11-10-17-15(6-9-21-27(17,2)13-19(28)25(35)33(21)3)16(26)7-8-18(26)24(34)30-14-22-31-20-5-4-12-29-23(20)32-22/h4-5,12-13,15-18,21H,6-11,14H2,1-3H3,(H,30,34)(H,29,31,32)/t15-,16-,17-,18+,21+,26-,27+/m0/s1

> <INCHI_KEY>
GBEUKTWTUSPHEE-JWJWXJQQSA-N

> <FORMULA>
C27H34FN5O2

> <MOLECULAR_WEIGHT>
479.6

> <EXACT_MASS>
479.269653518

> <JCHEM_ACCEPTOR_COUNT>
4

> <JCHEM_ATOM_COUNT>
69

> <JCHEM_AVERAGE_NEUTRAL_MICROSPECIES_CHARGE>
-0.0013646217713777899

> <JCHEM_AVERAGE_POLARIZABILITY>
52.307305416906964

> <JCHEM_BIOAVAILABILITY>
1

> <JCHEM_DONOR_COUNT>
2

> <JCHEM_FORMAL_CHARGE>
0

> <JCHEM_GHOSE_FILTER>
0

> <JCHEM_IUPAC>
(4aS,4bS,6aS,7S,9aS,9bS,11aR)-3-fluoro-N-({1H-imidazo[4,5-b]pyridin-2-yl}methyl)-1,4a,6a-trimethyl-2-oxo-1H,2H,4aH,4bH,5H,6H,6aH,7H,8H,9H,9aH,9bH,10H,11H,11aH-indeno[5,4-f]quinoline-7-carboxamide

> <ALOGPS_LOGP>
3.82

> <JCHEM_LOGP>
2.3620678969999993

> <ALOGPS_LOGS>
-4.78

> <JCHEM_MDDR_LIKE_RULE>
0

> <JCHEM_NEUTRAL_CHARGE>
0

> <JCHEM_NUMBER_OF_RINGS>
6

> <JCHEM_PHYSIOLOGICAL_CHARGE>
0

> <JCHEM_PKA>
14.518246607445215

> <JCHEM_PKA_STRONGEST_ACIDIC>
9.843916989215918

> <JCHEM_PKA_STRONGEST_BASIC>
2.823602859942003

> <JCHEM_POLAR_SURFACE_AREA>
90.97999999999999

> <JCHEM_REFRACTIVITY>
131.75599999999997

> <JCHEM_ROTATABLE_BOND_COUNT>
3

> <JCHEM_RULE_OF_FIVE>
1

> <ALOGPS_SOLUBILITY>
7.90e-03 g/l

> <JCHEM_TRADITIONAL_IUPAC>
2-methoxy-4-[(1E)-3-[4-(nitrooxy)butoxy]-3-oxoprop-1-en-1-yl]phenyl (4R)-4-[(1R,3aS,3bR,4S,5aS,7R,9aS,9bS,11aR)-4,7-dihydroxy-9a,11a-dimethyl-tetradecahydro-1H-cyclopenta[a]phenanthren-1-yl]pentanoate

> <JCHEM_VEBER_RULE>
0

> <DRUGBANK_ID>
DB16244

> <DRUG_GROUPS>
investigational

> <GENERIC_NAME>
MK-0773

$$$$
