
  Mrv1909 02092016352D          

 16 16  0  0  0  0            999 V2000
    0.0000    0.6187    0.0000 C   0  0  0  0  0  0  0  0  0  0  0  0
    0.0000   -0.2062    0.0000 C   0  0  0  0  0  0  0  0  0  0  0  0
   -0.7145   -0.6187    0.0000 C   0  0  0  0  0  0  0  0  0  0  0  0
   -1.4290   -0.2062    0.0000 C   0  0  0  0  0  0  0  0  0  0  0  0
   -1.4290    0.6187    0.0000 C   0  0  0  0  0  0  0  0  0  0  0  0
   -0.7145    1.0313    0.0000 C   0  0  0  0  0  0  0  0  0  0  0  0
   -2.1435   -0.6187    0.0000 O   0  0  0  0  0  0  0  0  0  0  0  0
   -2.1435    1.0313    0.0000 O   0  0  0  0  0  0  0  0  0  0  0  0
    0.7145    1.0313    0.0000 C   0  0  0  0  0  0  0  0  0  0  0  0
   -2.8581    0.6187    0.0000 C   0  0  0  0  0  0  0  0  0  0  0  0
    1.4290    0.6187    0.0000 C   0  0  0  0  0  0  0  0  0  0  0  0
    2.1435    1.0313    0.0000 C   0  0  0  0  0  0  0  0  0  0  0  0
    2.1435    1.8563    0.0000 O   0  0  0  0  0  0  0  0  0  0  0  0
    2.8581    0.6187    0.0000 O   0  0  0  0  0  0  0  0  0  0  0  0
   -0.7145   -1.4438    0.0000 O   0  0  0  0  0  0  0  0  0  0  0  0
    0.0000   -1.8563    0.0000 C   0  0  0  0  0  0  0  0  0  0  0  0
  1  9  1  0  0  0  0
  2  1  1  0  0  0  0
  3  2  2  0  0  0  0
  3 15  1  0  0  0  0
  3  4  1  0  0  0  0
  4  7  1  0  0  0  0
  4  5  2  0  0  0  0
  5  8  1  0  0  0  0
  5  6  1  0  0  0  0
  1  6  2  0  0  0  0
  8 10  1  0  0  0  0
  9 11  2  0  0  0  0
 11 12  1  0  0  0  0
 12 13  2  0  0  0  0
 12 14  1  0  0  0  0
 15 16  1  0  0  0  0
M  END
> <DATABASE_ID>
DB08587

> <DATABASE_NAME>
drugbank

> <SMILES>
COC1=CC(\C=C\C(O)=O)=CC(OC)=C1O

> <INCHI_IDENTIFIER>
InChI=1S/C11H12O5/c1-15-8-5-7(3-4-10(12)13)6-9(16-2)11(8)14/h3-6,14H,1-2H3,(H,12,13)/b4-3+

> <INCHI_KEY>
PCMORTLOPMLEFB-ONEGZZNKSA-N

> <FORMULA>
C11H12O5

> <MOLECULAR_WEIGHT>
224.21

> <EXACT_MASS>
224.068473494

> <JCHEM_ACCEPTOR_COUNT>
5

> <JCHEM_ATOM_COUNT>
28

> <JCHEM_AVERAGE_NEUTRAL_MICROSPECIES_CHARGE>
-1.0036547879564428

> <JCHEM_AVERAGE_POLARIZABILITY>
22.323224439789968

> <JCHEM_BIOAVAILABILITY>
1

> <JCHEM_DONOR_COUNT>
2

> <JCHEM_FORMAL_CHARGE>
0

> <JCHEM_GHOSE_FILTER>
1

> <JCHEM_IUPAC>
(2E)-3-(4-hydroxy-3,5-dimethoxyphenyl)prop-2-enoic acid

> <ALOGPS_LOGP>
1.63

> <JCHEM_LOGP>
1.5171784069999998

> <ALOGPS_LOGS>
-2.55

> <JCHEM_MDDR_LIKE_RULE>
0

> <JCHEM_NEUTRAL_CHARGE>
-1

> <JCHEM_NUMBER_OF_RINGS>
1

> <JCHEM_PHYSIOLOGICAL_CHARGE>
-1

> <JCHEM_PKA>
9.405617871808966

> <JCHEM_PKA_STRONGEST_ACIDIC>
3.414650379012406

> <JCHEM_PKA_STRONGEST_BASIC>
-4.6047167103077165

> <JCHEM_POLAR_SURFACE_AREA>
75.99000000000001

> <JCHEM_REFRACTIVITY>
57.967200000000005

> <JCHEM_ROTATABLE_BOND_COUNT>
4

> <JCHEM_RULE_OF_FIVE>
1

> <ALOGPS_SOLUBILITY>
6.31e-01 g/l

> <JCHEM_TRADITIONAL_IUPAC>
6-(2,6-dichlorophenyl)-2-{[3-(hydroxymethyl)phenyl]amino}-8-methylpyrido[2,3-d]pyrimidin-7-one

> <JCHEM_VEBER_RULE>
0

> <DRUGBANK_ID>
DB08587

> <DRUG_GROUPS>
experimental

> <GENERIC_NAME>
Sinapic acid

> <SYNONYMS>
(E)-3-(4-Hydroxy-3,5-dimethoxyphenyl)-2-propenoic acid; Sinapinate; Sinapinic acid; trans-sinapic acid

$$$$
