
  Mrv1718007031813372D          

 10 10  0  0  0  0            999 V2000
   -1.4288    0.8250    0.0000 C   0  0  0  0  0  0  0  0  0  0  0  0
   -2.1433    0.4125    0.0000 C   0  0  0  0  0  0  0  0  0  0  0  0
   -2.1433   -0.4124    0.0000 C   0  0  0  0  0  0  0  0  0  0  0  0
   -1.4288   -0.8250    0.0000 C   0  0  0  0  0  0  0  0  0  0  0  0
   -0.7144   -0.4124    0.0000 C   0  0  0  0  0  0  0  0  0  0  0  0
   -0.7144    0.4125    0.0000 C   0  0  0  0  0  0  0  0  0  0  0  0
    0.0000    0.8250    0.0000 C   0  0  0  0  0  0  0  0  0  0  0  0
    0.7145    0.4125    0.0000 C   0  0  0  0  0  0  0  0  0  0  0  0
    1.4290    0.8250    0.0000 C   0  0  0  0  0  0  0  0  0  0  0  0
    2.1433    0.4125    0.0000 O   0  0  0  0  0  0  0  0  0  0  0  0
  1  2  1  0  0  0  0
  2  3  2  0  0  0  0
  3  4  1  0  0  0  0
  4  5  2  0  0  0  0
  5  6  1  0  0  0  0
  1  6  2  0  0  0  0
  6  7  1  0  0  0  0
  7  8  2  0  0  0  0
  8  9  1  0  0  0  0
  9 10  2  0  0  0  0
M  END
> <DATABASE_ID>
DB14184

> <DATABASE_NAME>
drugbank

> <SMILES>
O=C\C=C\C1=CC=CC=C1

> <INCHI_IDENTIFIER>
InChI=1S/C9H8O/c10-8-4-7-9-5-2-1-3-6-9/h1-8H/b7-4+

> <INCHI_KEY>
KJPRLNWUNMBNBZ-QPJJXVBHSA-N

> <FORMULA>
C9H8O

> <MOLECULAR_WEIGHT>
132.1592

> <EXACT_MASS>
132.057514878

> <JCHEM_ACCEPTOR_COUNT>
1

> <JCHEM_ATOM_COUNT>
18

> <JCHEM_AVERAGE_POLARIZABILITY>
14.476246951483136

> <JCHEM_BIOAVAILABILITY>
1

> <JCHEM_DONOR_COUNT>
0

> <JCHEM_FORMAL_CHARGE>
0

> <JCHEM_GHOSE_FILTER>
0

> <JCHEM_IUPAC>
(2E)-3-phenylprop-2-enal

> <ALOGPS_LOGP>
2.00

> <JCHEM_LOGP>
1.9774700076666665

> <ALOGPS_LOGS>
-2.51

> <JCHEM_MDDR_LIKE_RULE>
0

> <JCHEM_NUMBER_OF_RINGS>
1

> <JCHEM_PHYSIOLOGICAL_CHARGE>
0

> <JCHEM_PKA_STRONGEST_BASIC>
-4.439447314621728

> <JCHEM_POLAR_SURFACE_AREA>
17.07

> <JCHEM_REFRACTIVITY>
42.1345

> <JCHEM_ROTATABLE_BOND_COUNT>
2

> <JCHEM_RULE_OF_FIVE>
1

> <ALOGPS_SOLUBILITY>
4.09e-01 g/l

> <JCHEM_TRADITIONAL_IUPAC>
cinnamal

> <JCHEM_VEBER_RULE>
1

> <DRUGBANK_ID>
DB14184

> <DRUG_GROUPS>
approved; experimental

> <GENERIC_NAME>
Cinnamaldehyde

> <SYNONYMS>
(3E)-3-phenylprop-2-enal; (E)-3-Phenyl-2-propenal; (E)-3-Phenyl-propenal; (E)-3-Phenylpropenal; 3-phenylacrylaldehyde; Cinnamal; Cinnamaldehyde; trans-Cinnamaldehyde; trans-Cinnamic aldehyde; Zimtaldehyde

> <PRODUCTS>
Dso Dressing; T.R.U.E. Test Thin-Layer Rapid Use Patch Test

$$$$
