
  Mrv1902 04101920292D          

 28 27  0  0  0  0            999 V2000
    0.3593   -0.0501    0.0000 C   0  0  0  0  0  0  0  0  0  0  0  0
    1.0746   -0.4612    0.0000 C   0  0  0  0  0  0  0  0  0  0  0  0
   -0.3558   -0.4612    0.0000 C   0  0  0  0  0  0  0  0  0  0  0  0
    0.3593    0.7757    0.0000 S   0  0  0  0  0  0  0  0  0  0  0  0
    1.7863   -0.0501    0.0000 O   0  0  0  0  0  0  0  0  0  0  0  0
    1.0746   -1.2870    0.0000 O   0  0  0  0  0  0  0  0  0  0  0  0
   -1.0710   -0.0501    0.0000 C   0  0  0  0  0  0  0  0  0  0  0  0
    0.3594    1.6982    0.0000 O   0  0  0  0  0  0  0  0  0  0  0  0
   -0.4767    0.7410    0.0000 O   0  0  0  0  0  0  0  0  0  0  0  0
    1.2335    0.7444    0.0000 O   0  0  0  0  0  0  0  0  0  0  0  0
    2.4981   -0.4612    0.0000 C   0  0  0  0  0  0  0  0  0  0  0  0
   -1.7863   -0.4612    0.0000 O   0  0  0  0  0  0  0  0  0  0  0  0
   -1.0710    0.7757    0.0000 O   0  0  0  0  0  0  0  0  0  0  0  0
    3.2134   -0.0501    0.0000 C   0  0  0  0  0  0  0  0  0  0  0  0
   -2.4980   -0.0501    0.0000 C   0  0  0  0  0  0  0  0  0  0  0  0
    3.9286   -0.4612    0.0000 C   0  0  0  0  0  0  0  0  0  0  0  0
    3.2134    0.7757    0.0000 C   0  0  0  0  0  0  0  0  0  0  0  0
   -3.2132   -0.4612    0.0000 C   0  0  0  0  0  0  0  0  0  0  0  0
    4.6438   -0.0501    0.0000 C   0  0  0  0  0  0  0  0  0  0  0  0
    3.9286    1.1903    0.0000 C   0  0  0  0  0  0  0  0  0  0  0  0
   -3.9285   -0.0501    0.0000 C   0  0  0  0  0  0  0  0  0  0  0  0
   -3.2132   -1.2870    0.0000 C   0  0  0  0  0  0  0  0  0  0  0  0
    5.3591   -0.4612    0.0000 C   0  0  0  0  0  0  0  0  0  0  0  0
   -4.6403   -0.4612    0.0000 C   0  0  0  0  0  0  0  0  0  0  0  0
   -3.9285   -1.6982    0.0000 C   0  0  0  0  0  0  0  0  0  0  0  0
    6.0742   -0.0501    0.0000 C   0  0  0  0  0  0  0  0  0  0  0  0
   -5.3589   -0.0501    0.0000 C   0  0  0  0  0  0  0  0  0  0  0  0
   -6.0742   -0.4612    0.0000 C   0  0  0  0  0  0  0  0  0  0  0  0
  1  2  1  0  0  0  0
  1  3  1  0  0  0  0
  1  4  1  0  0  0  0
  2  5  1  0  0  0  0
  2  6  2  0  0  0  0
  3  7  1  0  0  0  0
  4  8  1  0  0  0  0
  4  9  2  0  0  0  0
  4 10  2  0  0  0  0
  5 11  1  0  0  0  0
  7 12  1  0  0  0  0
  7 13  2  0  0  0  0
 11 14  1  0  0  0  0
 12 15  1  0  0  0  0
 14 16  1  0  0  0  0
 14 17  1  0  0  0  0
 15 18  1  0  0  0  0
 16 19  1  0  0  0  0
 17 20  1  0  0  0  0
 18 21  1  0  0  0  0
 18 22  1  0  0  0  0
 19 23  1  0  0  0  0
 21 24  1  0  0  0  0
 22 25  1  0  0  0  0
 23 26  1  0  0  0  0
 24 27  1  0  0  0  0
 27 28  1  0  0  0  0
M  END
> <DATABASE_ID>
DB11089

> <DATABASE_NAME>
drugbank

> <SMILES>
CCCCC(CC)COC(=O)CC(C(=O)OCC(CC)CCCC)S(O)(=O)=O

> <INCHI_IDENTIFIER>
InChI=1S/C20H38O7S/c1-5-9-11-16(7-3)14-26-19(21)13-18(28(23,24)25)20(22)27-15-17(8-4)12-10-6-2/h16-18H,5-15H2,1-4H3,(H,23,24,25)

> <INCHI_KEY>
HNSDLXPSAYFUHK-UHFFFAOYSA-N

> <FORMULA>
C20H38O7S

> <MOLECULAR_WEIGHT>
422.577

> <EXACT_MASS>
422.23382426

> <JCHEM_ACCEPTOR_COUNT>
5

> <JCHEM_ATOM_COUNT>
66

> <JCHEM_AVERAGE_POLARIZABILITY>
46.81681449387095

> <JCHEM_BIOAVAILABILITY>
0

> <JCHEM_DONOR_COUNT>
1

> <JCHEM_FORMAL_CHARGE>
0

> <JCHEM_GHOSE_FILTER>
1

> <JCHEM_IUPAC>
1,4-bis[(2-ethylhexyl)oxy]-1,4-dioxobutane-2-sulfonic acid

> <ALOGPS_LOGP>
2.48

> <JCHEM_LOGP>
5.238073508666665

> <ALOGPS_LOGS>
-5.02

> <JCHEM_MDDR_LIKE_RULE>
0

> <JCHEM_NUMBER_OF_RINGS>
0

> <JCHEM_PHYSIOLOGICAL_CHARGE>
-1

> <JCHEM_PKA_STRONGEST_ACIDIC>
-0.7477153828297401

> <JCHEM_PKA_STRONGEST_BASIC>
-6.867863301885317

> <JCHEM_POLAR_SURFACE_AREA>
106.97

> <JCHEM_REFRACTIVITY>
107.35139999999997

> <JCHEM_ROTATABLE_BOND_COUNT>
18

> <JCHEM_RULE_OF_FIVE>
0

> <ALOGPS_SOLUBILITY>
4.02e-03 g/l

> <JCHEM_TRADITIONAL_IUPAC>
DOSS

> <JCHEM_VEBER_RULE>
0

> <DRUGBANK_ID>
DB11089

> <DRUG_GROUPS>
approved

> <GENERIC_NAME>
Docusate

> <SYNONYMS>
Dioctyl sulfosuccinate; Docusate hydrogen

> <PRODUCTS>
2 In 1laxative Stool Softener and Stiulant Laxative; Acidobyl; Ag-docusate Sodium; Albert Docusate; Alta-docusate Sodium; Apo-docusate Calcium; Apo-docusate Sodium; Basic Care Stool Softener; Betr stool softener; BioFerr 90; CAREALL Senna-S Laxative; CVS Adult Enema; CVS Health Stool Softener; CVS Health Stool Softener Clear; CVS Kids Mini Enema; CVS Mini Enema; CVS Stool Softener Fruit Punch; Calax Cap 240mg; Calcium Docuphen Cap; CitraNatal 90 DHA; CitraNatal Assure; CitraNatal Bloom; CitraNatal Bloom DHA; CitraNatal DHA; CitraNatal Harmony; CitraNatal Harmony 3.0; CitraNatal Rx; Colace; Colace + Stimulant Laxative; Colace Cap 100mg; Colace Capsules; Colace Clear; Colace Drops; Colace Kit; Colace Syrup; Colistat; Colistat Plus; Complete-RF Prenatal; Correctol Laxative Tab; Correctol Stool Softener 100mg/cap; DOCUSATE SODIUM 100mg; DOCUSATE SODIUM 100mg Two-Tone; DOK Plus; Diocto; Dioctyl Cap 100mg; Doc Q Lace; DocQLace; DocQLax; Docu; Docu Liquid; DocuSol; DocuSol Kids; DocuSol Plus; Docuprene; Docusate Calcium; Docusate Calcium 240 mg sodium free; Docusate Calcium Cap 240mg; Docusate Calcium Cap 240mg USP; Docusate Calcium stool softener; Docusate Mini Enema; Docusate Plus Senna; Docusate Sennosides; Docusate Sod/Senna; Docusate Sodium; Docusate Sodium - Sennosides; Docusate Sodium - Stool Softener Laxative; Docusate Sodium 250mg; Docusate Sodium 50 Mg Liquid Gels; Docusate Sodium 50 mg; Docusate Sodium Cap 100mg USP; Docusate Sodium Capsule 100mg USP; Docusate Sodium Capsules; Docusate Sodium Capsules USP 100 mg; Docusate Sodium Capsules USP 100mg; Docusate Sodium Capsules, USP 100mg; Docusate Sodium Liquid; Docusate Sodium Odan; Docusate Sodium Stool Softener; Docusate Sodium Syrup 4mg/ml; Docusate Sodium Syrup USP; Docusate Sodium With Sennosides; Docusate Sodium and Senna; Docusate Sodium with Sennosides; Docusate Sodium, Extra Strength 250 mg; Docusate Sodium, Sennosides; Docusate calcium; Docusate sodium and Sennosides; Docusen; Docuzen; Dok; Dok Extra Strength Stool Softener; Dom-docusate Sodium; Dosolax; Doss Tab; Doxate-C Cap 240mg USP; Doxate-S Cap 100mg USP; Doxidan Capsules; Dqzate Stool Softener; Drug Mart Stool Softener plus Stimulant Laxative; Drug Mart Vegetable Laxative plus Stool Softener; DulcoEase; DulcoEase Pink; Dulcocomfort Stool Softener; Dulcolax; Dulcolax Pink Stool Softener; Dulcolax Stool Softener; Dyrax-Q Tab; E-Vac Plus; ENEMEEZ Plus; EX-lax Gentle Strength; EX-lax Light Formula Lax W Stool Soften Tab; EX-lax Stool Softener - Tab 100 mg; Enemeez; Enemeez Stool Softener; Euro-docusate C; Extra Strength Stool Softener; Extra Strength Stool Softener Laxative; Extra-Virt Plus DHA; Family Wellness Stool Softener; FeRiva FA; FeRivaFA; Feel Well PLUS; FerraPlus 90; Ferralet 90; Fleet; Focalgin 90 DHA; Focalgin CA; Focalgin DSS; Folcal DHA; Folcaps Care One; Folet DHA; Folet One; Folivane-PRx DHA; Foltabs Prenatal; Foltabs Prenatal Plus DHA; Gentlax S; Gentle Relief Stool Softner; Gentle Stool Softener; Gentle Stool softener; GeriCare Docusate Sodium Liquid; Good Neighbor Pharmacy Stool Softener; Good Neighbor Stool Softener; Good Neighbor Stool Softener laxative; Good Sense Stool Softener; H E B Stool Softener laxative; HEB Stool Softener; Harris Teeter Stool Softener; Health Mart Stool Softener; Health Sense Docusil; Healthy Accents Stool Softener; INATAL Ultra; Inatal Advance; Iron; Jamp Docusate S Oblong; Jamp Docusate Sodium 250mg Softgels; Jamp-docusate Calcium; Jamp-docusate Sodium; Jamp-senna S; Kao Tin; Kao- Tin; Lax-A Soft; Laxa-basic 100; Laxacin; Laxagel Cap 100mg; Laxatif De Sene Et Docusate De Sodium; Laxative; Laxative Docusate Sodium with Senna; Laxative Gentle; Laxative Plus Softener; Laxative Stool Softener; Laxative and Stool Softener; Leader Stool Softener; Leader Stool Softener plus Stimulant Laxative; M-docusate Calcium; M-docusate Sodium 100 mg; MAJOR DOK Docusate Sodium; MaxFe; Medi-laxx Rx Stool Softener and Laxative; Medi-laxx Stool Softener and Laxative; Natalvirt 90dha; Natalvirt Ca; Natalvirt FLT; Natural Laxative Plus Stool Softener; Natural Vegetable Laxative with Stool Softener; Nexa Plus; Nexa Select; Nexa Select Rx Prenatal Vitamin with Plant-Based DHA; Non-Habit Forming Stool Softener; Novo-docusate; Novo-docusate Calcium; Nra-docusate Sodium; Opus Docusate Sodium; PHL-docusate Sodium; PMS Docusate-calcium Cap 240mg USP; PMS-docusate Sodium; PMS-docusate Sodium Drops 10mg/ml; PNV Ferrous Fumarate Docusate Folic Acid; Pedia-Lax; Peri-Colace; Phillips Stool Softener Bulk Docusate; Phillips' Gelcaps; Plus Pharma Senna Plus Standardized Senna Concentrate 8.6 mg and Docusate Sodium 50 mg Each; PlusPHARMA Stool Softener; Pnv Ob DHA; PreFol-DHA; PreNatal 19; PreNexa; PreNexa premier; PreQue 10; Prenaissance; Prenaissance Plus; Prenatal Vitamin No 53 Iron Fum Folic Acid Docusate CA DHA; Prenate Pixie; Promolaxin; Purgasol; Quality Choice Stool Softener; Quality Choice Stool Softener laxative; Ratio-docusate Sodium; Re Ob 90 DHA; Regulex Cap 100mg; Regulex D Cap; Reserve Docusate De Sodium Sodium Docusate; Rite Aid Stool Softener; SENNA LEAF and DOCUSATE SODIUM; STOOL SOFTENER Extra Strength; Sandoz Docusate Sodium; Sandoz Senna S; Sankaijo; Se-Natal; Se-Natal 19; Selax 250 Cap 250mg; Selax Cap 100mg; Selax Syr 20mg/5ml USP; Senexon-S; Senna Docusate; Senna Laxative and Docusate Sodium Tablets; Senna Laxative plus Stool Softener; Senna Plus; Senna Plus Standardized Senna Concentrate 8.6 mg and Docusate Sodium 50 mg Each; Senna S; Senna S Dual Action; Senna S Laxative; Senna S Orange; Senna S Stool Softener with Laxative; Senna S. Tablets; Senna Time S; Senna and Docusate Sodium; Senna plus; Senna- S; Senna-Doc; Senna-S; Senna-S Laxative; Senna-S Laxative With Stool Softener; Senna-plus; Senna-s; Senna/Docusate Sodium; SennaLax-S; Sennosides With Docusate Sodium; Sennosides and Docusate Sodium; Sennosides, Docusate Sodium; Sennosides, Docusate sodium; Sennosides,Docusate sodium; Senokot S; Senokot-S; ShopRite Stool Softener; Signature Care Stool Softener; Silace; Silace Syr 20mg/5ml; Sirop Docusate De Sodium U.S.P. 4mg/ml; Sirop Docusate De Sodium USP 20mg/5ml; Soflax; Soflax C; Soflax Capsules 100mg; Soflax Dps 10mg/ml; Soflax Pediatric Drops; Soflax Syrup 4mg/ml; Sool Softener Laxative; Stimulant Laxative Plus Stool Softener; Stimulant laxative plus stool softener; Stool Softener; Stool Softener DC Laxative; Stool Softener Docusate Sodium; Stool Softener Docusate Sodium 50 mg; Stool Softener Extra Strength; Stool Softener Extra strength; Stool Softener Gentle; Stool Softener Gentle Relief; Stool Softener Laxative; Stool Softener Laxative Extra Strength; Stool Softener Laxative Plus Stimulant; Stool Softener Liquid; Stool Softener Liquid Gels; Stool Softener Maximum Strength; Stool Softener Plus Laxative; Stool Softener Plus Stimulant; Stool Softener Plus Stimulant Laxative; Stool Softener Regular Strength; Stool Softener Stimulant laxative; Stool Softener Syrup; Stool Softener With Stimulant Laxative; Stool Softener and Laxative; Stool Softener and Stimulant Laxative; Stool Softener easy and gentle; Stool Softener plus Laxative; Stool Softener plus Stimulant Laxative; Stool Softener plus stimulant Laxative; Stool Softener plus stimulant laxative; Stool Softener with Laxative; Stool Softener with Stimulant Laxative; Stool Softener with laxative; Stool Softener-stimulant Laxative; Stool Softening Senna Laxative; Stool Softner; Surfak 240mg Capsules; Surfak Stool Softener; TL-Care DHA; TL-Select; TL-Select DHA; Taro-docusate; Taron-prex Prenatal; Teva-docusate Calcium; Teva-docusate Sodium; Thrivite 19; Tl-hem 150; Topcare Stool Softener; Topcare Stool Softener laxative; TriAdvance; Tricare Prenatal DHA One; Tricare Prenatal DHA One Rx Multivitamin; Trinatal GT; Trinatal Ultra; Triveen-PRx RNF; UltimateCare ONE NF; Up and up stool softener; VP CH Plus; VP CH Ultra; Vacuant; Vacuant Plus; Vegetable Laxative and Stool Softner; VemaVite-PRx 2 with Fish-Based DHA; Vinacal; Virt Vite GT; Virt-Advance; Virt-Select PRENATAL/POSTNATAL; Virt-Tabs; VirtPrex; Vitafol Fe Plus; Vp-CH-pnv; Walgreens Stool Softener Fruit Punch; Winco Stool Softener; Women's Laxative Tablets; Zatean-CH; healthy mama MOVE IT ALONG

> <INTERNATIONAL_BRANDS>
Audinorm; Clear ear; Colace; Correctol; Dialose; Docusol; Docusol 100; Doxinate; Dulcoease; Rectalad enema; Surfak

> <SALTS>
Docusate calcium; Docusate potassium; Docusate sodium

$$$$
