
  Mrv1909 05201915212D          

 39 44  0  0  1  0            999 V2000
    7.6221    1.9904    0.0000 C   0  0  0  0  0  0  0  0  0  0  0  0
    7.3671    2.7750    0.0000 C   0  0  2  0  0  0  0  0  0  0  0  0
    7.9192    3.3881    0.0000 C   0  0  0  0  0  0  0  0  0  0  0  0
    8.7262    3.2166    0.0000 N   0  0  0  0  0  0  0  0  0  0  0  0
    9.2782    3.8296    0.0000 C   0  0  0  0  0  0  0  0  0  0  0  0
   10.0852    3.6581    0.0000 C   0  0  0  0  0  0  0  0  0  0  0  0
   10.3401    2.8735    0.0000 O   0  0  0  0  0  0  0  0  0  0  0  0
    9.7881    2.2604    0.0000 C   0  0  0  0  0  0  0  0  0  0  0  0
    8.9811    2.4319    0.0000 C   0  0  0  0  0  0  0  0  0  0  0  0
    6.5602    2.9465    0.0000 N   0  0  0  0  0  0  0  0  0  0  0  0
    6.2246    3.7002    0.0000 C   0  0  0  0  0  0  0  0  0  0  0  0
    6.6371    4.4147    0.0000 N   0  0  0  0  0  0  0  0  0  0  0  0
    6.2246    5.1291    0.0000 C   0  0  0  0  0  0  0  0  0  0  0  0
    5.3996    5.1291    0.0000 N   0  0  0  0  0  0  0  0  0  0  0  0
    6.6371    5.8436    0.0000 O   0  0  0  0  0  0  0  0  0  0  0  0
    5.4041    3.6140    0.0000 N   0  0  0  0  0  0  0  0  0  0  0  0
    5.2326    2.8070    0.0000 C   0  0  0  0  0  0  0  0  0  0  0  0
    5.9471    2.3945    0.0000 C   0  0  0  0  0  0  0  0  0  0  0  0
    5.9471    1.5695    0.0000 C   0  0  0  0  0  0  0  0  0  0  0  0
    5.2326    1.1570    0.0000 C   0  0  0  0  0  0  0  0  0  0  0  0
    4.5181    1.5695    0.0000 C   0  0  0  0  0  0  0  0  0  0  0  0
    3.8037    1.1570    0.0000 C   0  0  0  0  0  0  0  0  0  0  0  0
    3.8037    0.3320    0.0000 C   0  0  0  0  0  0  0  0  0  0  0  0
    4.5470   -0.0260    0.0000 C   0  0  0  0  0  0  0  0  0  0  0  0
    5.1517    0.5352    0.0000 C   0  0  0  0  0  0  0  0  0  0  0  0
    5.9401    0.2920    0.0000 C   0  0  0  0  0  0  0  0  0  0  0  0
    6.1237   -0.5123    0.0000 C   0  0  0  0  0  0  0  0  0  0  0  0
    5.5189   -1.0735    0.0000 C   0  0  0  0  0  0  0  0  0  0  0  0
    4.7305   -0.8303    0.0000 C   0  0  0  0  0  0  0  0  0  0  0  0
    4.2162   -1.4753    0.0000 C   0  0  0  0  0  0  0  0  0  0  0  0
    3.3912   -1.4753    0.0000 O   0  0  0  0  0  0  0  0  0  0  0  0
    2.8768   -0.8303    0.0000 C   0  0  0  0  0  0  0  0  0  0  0  0
    2.0884   -1.0735    0.0000 C   0  0  0  0  0  0  0  0  0  0  0  0
    1.4837   -0.5123    0.0000 C   0  0  0  0  0  0  0  0  0  0  0  0
    0.6953   -0.7555    0.0000 F   0  0  0  0  0  0  0  0  0  0  0  0
    1.6673    0.2920    0.0000 C   0  0  0  0  0  0  0  0  0  0  0  0
    2.4556    0.5352    0.0000 C   0  0  0  0  0  0  0  0  0  0  0  0
    3.0604   -0.0260    0.0000 C   0  0  0  0  0  0  0  0  0  0  0  0
    4.5181    2.3945    0.0000 C   0  0  0  0  0  0  0  0  0  0  0  0
  2  1  1  1  0  0  0
  2  3  1  0  0  0  0
  3  4  1  0  0  0  0
  4  5  1  0  0  0  0
  5  6  1  0  0  0  0
  6  7  1  0  0  0  0
  7  8  1  0  0  0  0
  8  9  1  0  0  0  0
  4  9  1  0  0  0  0
  2 10  1  0  0  0  0
 10 11  1  0  0  0  0
 11 12  1  0  0  0  0
 12 13  1  0  0  0  0
 13 14  1  0  0  0  0
 13 15  2  0  0  0  0
 11 16  2  0  0  0  0
 16 17  1  0  0  0  0
 17 18  2  0  0  0  0
 10 18  1  0  0  0  0
 18 19  1  0  0  0  0
 19 20  2  0  0  0  0
 20 21  1  0  0  0  0
 21 22  1  0  0  0  0
 22 23  2  0  0  0  0
 23 24  1  0  0  0  0
 24 25  2  0  0  0  0
 25 26  1  0  0  0  0
 26 27  2  0  0  0  0
 27 28  1  0  0  0  0
 28 29  2  0  0  0  0
 24 29  1  0  0  0  0
 29 30  1  0  0  0  0
 30 31  1  0  0  0  0
 31 32  1  0  0  0  0
 32 33  2  0  0  0  0
 33 34  1  0  0  0  0
 34 35  1  0  0  0  0
 34 36  2  0  0  0  0
 36 37  1  0  0  0  0
 37 38  2  0  0  0  0
 23 38  1  0  0  0  0
 32 38  1  0  0  0  0
 21 39  2  0  0  0  0
 17 39  1  0  0  0  0
M  END
> <DATABASE_ID>
DB15367

> <DATABASE_NAME>
drugbank

> <SMILES>
C[C@H](CN1CCOCC1)N1C(NC(N)=O)=NC2=C1C=CC(\C=C1/C3=CC=CC=C3COC3=CC(F)=CC=C13)=C2

> <INCHI_IDENTIFIER>
InChI=1S/C30H30FN5O3/c1-19(17-35-10-12-38-13-11-35)36-27-9-6-20(15-26(27)33-30(36)34-29(32)37)14-25-23-5-3-2-4-21(23)18-39-28-16-22(31)7-8-24(25)28/h2-9,14-16,19H,10-13,17-18H2,1H3,(H3,32,33,34,37)/b25-14+/t19-/m1/s1

> <INCHI_KEY>
YPCLDHGBEKZGEB-RUDKWAFVSA-N

> <FORMULA>
C30H30FN5O3

> <MOLECULAR_WEIGHT>
527.6

> <EXACT_MASS>
527.233268009

> <JCHEM_ACCEPTOR_COUNT>
5

> <JCHEM_ATOM_COUNT>
69

> <JCHEM_AVERAGE_POLARIZABILITY>
55.40188437299936

> <JCHEM_BIOAVAILABILITY>
1

> <JCHEM_DONOR_COUNT>
2

> <JCHEM_FORMAL_CHARGE>
0

> <JCHEM_GHOSE_FILTER>
0

> <JCHEM_IUPAC>
(5-{[(2E)-6-fluoro-9-oxatricyclo[9.4.0.0^{3,8}]pentadeca-1(15),3,5,7,11,13-hexaen-2-ylidene]methyl}-1-[(2R)-1-(morpholin-4-yl)propan-2-yl]-1H-1,3-benzodiazol-2-yl)urea

> <ALOGPS_LOGP>
4.23

> <JCHEM_LOGP>
4.690590354390154

> <ALOGPS_LOGS>
-4.90

> <JCHEM_MDDR_LIKE_RULE>
0

> <JCHEM_NUMBER_OF_RINGS>
6

> <JCHEM_PHYSIOLOGICAL_CHARGE>
1

> <JCHEM_PKA_STRONGEST_ACIDIC>
8.72442987137694

> <JCHEM_PKA_STRONGEST_BASIC>
6.9135083544921345

> <JCHEM_POLAR_SURFACE_AREA>
94.64000000000001

> <JCHEM_REFRACTIVITY>
158.63229999999993

> <JCHEM_ROTATABLE_BOND_COUNT>
5

> <JCHEM_RULE_OF_FIVE>
0

> <ALOGPS_SOLUBILITY>
6.66e-03 g/l

> <JCHEM_TRADITIONAL_IUPAC>
(2R)-14-fluoro-2-methyl-6,9,10,19-tetraazapentacyclo[14.2.1.0^{2,6}.0^{8,18}.0^{12,17}]nonadeca-1(18),8,12(17),13,15-pentaen-11-one

> <JCHEM_VEBER_RULE>
0

> <DRUGBANK_ID>
DB15367

> <DRUG_GROUPS>
investigational

> <GENERIC_NAME>
LY-2623091

$$$$
