
  Mrv1909 07152219352D          

 23 26  0  0  1  0            999 V2000
    0.6603   -0.7352    0.0000 N   0  0  0  0  0  0  0  0  0  0  0  0
    0.1821   -0.0007    0.0000 C   0  0  2  0  0  0  0  0  0  0  0  0
    0.7054    1.4523    0.0000 C   0  0  0  0  0  0  0  0  0  0  0  0
    0.7487    0.6284    0.0000 C   0  0  1  0  0  0  0  0  0  0  0  0
   -0.6949   -0.0466    0.0000 C   0  0  0  0  0  0  0  0  0  0  0  0
    0.2615   -1.5155    0.0000 C   0  0  0  0  0  0  0  0  0  0  0  0
   -0.0209    1.8406    0.0000 C   0  0  0  0  0  0  0  0  0  0  0  0
   -1.0937   -0.8271    0.0000 C   0  0  1  0  0  0  0  0  0  0  0  0
   -0.6155   -1.5615    0.0000 C   0  0  1  0  0  0  0  0  0  0  0  0
   -0.0847   -0.5876    0.0000 C   0  0  0  0  0  0  0  0  0  0  0  0
    0.6737    3.0762    0.0000 N   0  0  0  0  0  0  0  0  0  0  0  0
   -0.0368    2.6526    0.0000 C   0  0  0  0  0  0  0  0  0  0  0  0
   -1.0142   -2.3419    0.0000 C   0  0  0  0  0  0  0  0  0  0  0  0
   -0.3928   -1.0656    0.0000 C   0  0  0  0  0  0  0  0  0  0  0  0
   -0.5361   -3.0762    0.0000 C   0  0  0  0  0  0  0  0  0  0  0  0
    1.4743    0.2579    0.0000 O   0  0  0  0  0  0  0  0  0  0  0  0
    1.3963    2.6788    0.0000 C   0  0  0  0  0  0  0  0  0  0  0  0
    1.4123    1.8625    0.0000 C   0  0  0  0  0  0  0  0  0  0  0  0
   -0.7361    1.4167    0.0000 C   0  0  0  0  0  0  0  0  0  0  0  0
   -0.7681    3.0452    0.0000 C   0  0  0  0  0  0  0  0  0  0  0  0
   -1.4581    1.8053    0.0000 C   0  0  0  0  0  0  0  0  0  0  0  0
   -1.4743    2.6217    0.0000 C   0  0  0  0  0  0  0  0  0  0  0  0
   -0.2959    0.7336    0.0000 H   0  0  0  0  0  0  0  0  0  0  0  0
  2  1  1  0  0  0  0
  3  4  1  0  0  0  0
  4  2  1  0  0  0  0
  5  2  1  0  0  0  0
  6  1  1  0  0  0  0
  7  3  2  0  0  0  0
  8 14  1  1  0  0  0
  9  6  1  0  0  0  0
  1 10  1  0  0  0  0
 11 17  1  0  0  0  0
 12  7  1  0  0  0  0
  9 13  1  6  0  0  0
 14 10  1  0  0  0  0
 15 13  2  0  0  0  0
  4 16  1  1  0  0  0
 17 18  2  0  0  0  0
 18  3  1  0  0  0  0
 19  7  1  0  0  0  0
 20 12  1  0  0  0  0
 21 19  2  0  0  0  0
 22 21  1  0  0  0  0
  2 23  1  6  0  0  0
  9  8  1  0  0  0  0
  5  8  1  0  0  0  0
 12 11  2  0  0  0  0
 20 22  2  0  0  0  0
M  END
> <DATABASE_ID>
DB16831

> <DATABASE_NAME>
drugbank

> <SMILES>
[H][C@]1(C[C@@H]2CCN1C[C@@H]2C=C)[C@H](O)C1=C2C=CC=CC2=NC=C1

> <INCHI_IDENTIFIER>
InChI=1S/C19H22N2O/c1-2-13-12-21-10-8-14(13)11-18(21)19(22)16-7-9-20-17-6-4-3-5-15(16)17/h2-7,9,13-14,18-19,22H,1,8,10-12H2/t13-,14-,18-,19+/m0/s1

> <INCHI_KEY>
KMPWYEUPVWOPIM-KODHJQJWSA-N

> <FORMULA>
C19H22N2O

> <MOLECULAR_WEIGHT>
294.398

> <EXACT_MASS>
294.173213336

> <JCHEM_ACCEPTOR_COUNT>
3

> <JCHEM_ATOM_COUNT>
44

> <JCHEM_AVERAGE_NEUTRAL_MICROSPECIES_CHARGE>
2.000073939917312

> <JCHEM_AVERAGE_POLARIZABILITY>
32.85986350357793

> <JCHEM_BIOAVAILABILITY>
1

> <JCHEM_DONOR_COUNT>
1

> <JCHEM_FORMAL_CHARGE>
0

> <JCHEM_GHOSE_FILTER>
1

> <JCHEM_IUPAC>
(R)-[(2S,4S,5R)-5-ethenyl-1-azabicyclo[2.2.2]octan-2-yl](quinolin-4-yl)methanol

> <ALOGPS_LOGP>
3.20

> <JCHEM_LOGP>
2.6711352163333344

> <ALOGPS_LOGS>
-2.89

> <JCHEM_MDDR_LIKE_RULE>
0

> <JCHEM_NEUTRAL_CHARGE>
1

> <JCHEM_NUMBER_OF_RINGS>
4

> <JCHEM_PHYSIOLOGICAL_CHARGE>
1

> <JCHEM_PKA_STRONGEST_ACIDIC>
13.877315843243736

> <JCHEM_PKA_STRONGEST_BASIC>
9.146374717755835

> <JCHEM_POLAR_SURFACE_AREA>
36.36

> <JCHEM_REFRACTIVITY>
88.23040000000002

> <JCHEM_ROTATABLE_BOND_COUNT>
3

> <JCHEM_RULE_OF_FIVE>
1

> <ALOGPS_SOLUBILITY>
3.81e-01 g/l

> <JCHEM_TRADITIONAL_IUPAC>
cinchonidine

> <JCHEM_VEBER_RULE>
1

> <DRUGBANK_ID>
DB16831

> <DRUG_GROUPS>
investigational

> <GENERIC_NAME>
Cinchonidine

> <SYNONYMS>
Alpha-quinidine; Cinchovatine; Quinine bisulfate impurity B; Quinine hydrochloride impurity B; Quinine sulfate impurity B

$$$$
