
  Mrv1909 03042017202D          

 54 60  0  0  0  0            999 V2000
   -3.4401   -3.9147    0.0000 C   0  0  0  0  0  0  0  0  0  0  0  0
   -2.7255   -3.5022    0.0000 C   0  0  0  0  0  0  0  0  0  0  0  0
   -2.0110   -3.9147    0.0000 C   0  0  0  0  0  0  0  0  0  0  0  0
   -2.7255   -2.6771    0.0000 C   0  0  0  0  0  0  0  0  0  0  0  0
   -2.0110   -2.2647    0.0000 N   0  0  0  0  0  0  0  0  0  0  0  0
   -2.0110   -1.4396    0.0000 C   0  0  0  0  0  0  0  0  0  0  0  0
   -2.7255   -1.0271    0.0000 C   0  0  1  0  0  0  0  0  0  0  0  0
   -3.4401   -1.4396    0.0000 O   0  0  0  0  0  0  0  0  0  0  0  0
   -2.7255   -0.2020    0.0000 C   0  0  2  0  0  0  0  0  0  0  0  0
   -3.4401    0.2103    0.0000 C   0  0  0  0  0  0  0  0  0  0  0  0
   -4.1545   -0.2020    0.0000 C   0  0  0  0  0  0  0  0  0  0  0  0
   -4.8691    0.2103    0.0000 C   0  0  0  0  0  0  0  0  0  0  0  0
   -5.5835   -0.2020    0.0000 C   0  0  0  0  0  0  0  0  0  0  0  0
   -5.5835   -1.0271    0.0000 C   0  0  0  0  0  0  0  0  0  0  0  0
   -4.8691   -1.4396    0.0000 C   0  0  0  0  0  0  0  0  0  0  0  0
   -4.1545   -1.0271    0.0000 C   0  0  0  0  0  0  0  0  0  0  0  0
   -2.0110    0.2104    0.0000 N   0  0  0  0  0  0  0  0  0  0  0  0
   -2.0110    1.0355    0.0000 C   0  0  0  0  0  0  0  0  0  0  0  0
   -2.7255    1.4479    0.0000 O   0  0  0  0  0  0  0  0  0  0  0  0
   -1.2966    1.4479    0.0000 O   0  0  0  0  0  0  0  0  0  0  0  0
   -1.2966    2.2730    0.0000 C   0  0  2  0  0  0  0  0  0  0  0  0
   -0.6291    2.7578    0.0000 C   0  0  1  0  0  0  0  0  0  0  0  0
   -0.8841    3.5425    0.0000 C   0  0  1  0  0  0  0  0  0  0  0  0
   -1.7090    3.5425    0.0000 O   0  0  0  0  0  0  0  0  0  0  0  0
   -1.9640    2.7578    0.0000 C   0  0  0  0  0  0  0  0  0  0  0  0
   -0.2166    4.0275    0.0000 O   0  0  0  0  0  0  0  0  0  0  0  0
    0.4507    3.5425    0.0000 C   0  0  0  0  0  0  0  0  0  0  0  0
    0.1958    2.7578    0.0000 C   0  0  0  0  0  0  0  0  0  0  0  0
   -1.1390    4.3271    0.0000 H   0  0  0  0  0  0  0  0  0  0  0  0
   -0.3742    1.9732    0.0000 H   0  0  0  0  0  0  0  0  0  0  0  0
   -1.2966   -2.6771    0.0000 S   0  0  0  0  0  0  0  0  0  0  0  0
   -0.8841   -1.9625    0.0000 O   0  0  0  0  0  0  0  0  0  0  0  0
   -1.7090   -3.3917    0.0000 O   0  0  0  0  0  0  0  0  0  0  0  0
   -0.5820   -3.0896    0.0000 C   0  0  0  0  0  0  0  0  0  0  0  0
    0.1323   -2.6771    0.0000 C   0  0  0  0  0  0  0  0  0  0  0  0
    0.8468   -3.0896    0.0000 C   0  0  0  0  0  0  0  0  0  0  0  0
    0.8468   -3.9147    0.0000 C   0  0  0  0  0  0  0  0  0  0  0  0
    0.1323   -4.3271    0.0000 C   0  0  0  0  0  0  0  0  0  0  0  0
   -0.5820   -3.9147    0.0000 C   0  0  0  0  0  0  0  0  0  0  0  0
    1.6314   -4.1695    0.0000 N   0  0  0  0  0  0  0  0  0  0  0  0
    2.1164   -3.5022    0.0000 C   0  0  0  0  0  0  0  0  0  0  0  0
    2.9414   -3.5022    0.0000 N   0  0  0  0  0  0  0  0  0  0  0  0
    3.3539   -2.7876    0.0000 C   0  0  0  0  0  0  0  0  0  0  0  0
    4.1789   -2.7876    0.0000 C   0  0  0  0  0  0  0  0  0  0  0  0
    4.5915   -2.0732    0.0000 C   0  0  0  0  0  0  0  0  0  0  0  0
    4.1789   -1.3586    0.0000 N   0  0  0  0  0  0  0  0  0  0  0  0
    3.3539   -1.3586    0.0000 C   0  0  0  0  0  0  0  0  0  0  0  0
    2.9414   -2.0732    0.0000 C   0  0  0  0  0  0  0  0  0  0  0  0
    4.5915   -0.6441    0.0000 C   0  0  0  0  0  0  0  0  0  0  0  0
    5.4120   -0.5579    0.0000 C   0  0  0  0  0  0  0  0  0  0  0  0
    5.5835    0.2490    0.0000 C   0  0  0  0  0  0  0  0  0  0  0  0
    4.8691    0.6614    0.0000 C   0  0  0  0  0  0  0  0  0  0  0  0
    4.2559    0.1094    0.0000 C   0  0  0  0  0  0  0  0  0  0  0  0
    1.6314   -2.8347    0.0000 S   0  0  0  0  0  0  0  0  0  0  0  0
  1  2  1  0  0  0  0
  2  3  1  0  0  0  0
  2  4  1  0  0  0  0
  4  5  1  0  0  0  0
  5  6  1  0  0  0  0
  6  7  1  0  0  0  0
  7  8  1  1  0  0  0
  7  9  1  0  0  0  0
  9 10  1  6  0  0  0
 10 11  1  0  0  0  0
 11 12  1  0  0  0  0
 13 12  2  0  0  0  0
 14 13  1  0  0  0  0
 15 14  2  0  0  0  0
 16 15  1  0  0  0  0
 11 16  2  0  0  0  0
  9 17  1  0  0  0  0
 17 18  1  0  0  0  0
 18 19  2  0  0  0  0
 18 20  1  0  0  0  0
 21 20  1  1  0  0  0
 21 22  1  0  0  0  0
 23 22  1  0  0  0  0
 24 23  1  0  0  0  0
 25 24  1  0  0  0  0
 21 25  1  0  0  0  0
 23 26  1  0  0  0  0
 26 27  1  0  0  0  0
 27 28  1  0  0  0  0
 28 22  1  0  0  0  0
 23 29  1  6  0  0  0
 22 30  1  6  0  0  0
  5 31  1  0  0  0  0
 31 32  2  0  0  0  0
 31 33  2  0  0  0  0
 31 34  1  0  0  0  0
 34 35  1  0  0  0  0
 36 35  2  0  0  0  0
 37 36  1  0  0  0  0
 38 37  2  0  0  0  0
 39 38  1  0  0  0  0
 34 39  2  0  0  0  0
 37 40  1  0  0  0  0
 40 41  2  0  0  0  0
 41 42  1  0  0  0  0
 42 43  1  0  0  0  0
 43 44  1  0  0  0  0
 45 44  1  0  0  0  0
 46 45  1  0  0  0  0
 47 46  1  0  0  0  0
 48 47  1  0  0  0  0
 43 48  1  0  0  0  0
 46 49  1  0  0  0  0
 49 50  1  0  0  0  0
 51 50  1  0  0  0  0
 52 51  1  0  0  0  0
 53 52  1  0  0  0  0
 49 53  1  0  0  0  0
 41 54  1  0  0  0  0
 54 36  1  0  0  0  0
M  END
> <DATABASE_ID>
DB15623

> <DATABASE_NAME>
drugbank

> <SMILES>
[H][C@@]12CCO[C@]1([H])OC[C@@H]2OC(=O)N[C@@H](CC1=CC=CC=C1)[C@H](O)CN(CC(C)C)S(=O)(=O)C1=CC=C2N=C(NC3CCN(CC3)C3CCCC3)SC2=C1

> <INCHI_IDENTIFIER>
InChI=1S/C38H53N5O7S2/c1-25(2)22-43(23-33(44)32(20-26-8-4-3-5-9-26)41-38(45)50-34-24-49-36-30(34)16-19-48-36)52(46,47)29-12-13-31-35(21-29)51-37(40-31)39-27-14-17-42(18-15-27)28-10-6-7-11-28/h3-5,8-9,12-13,21,25,27-28,30,32-34,36,44H,6-7,10-11,14-20,22-24H2,1-2H3,(H,39,40)(H,41,45)/t30-,32-,33+,34-,36+/m0/s1

> <INCHI_KEY>
JQUNFHFWXCXPRK-AMMMHQJVSA-N

> <FORMULA>
C38H53N5O7S2

> <MOLECULAR_WEIGHT>
755.987

> <EXACT_MASS>
755.338640455

> <JCHEM_ACCEPTOR_COUNT>
9

> <JCHEM_ATOM_COUNT>
105

> <JCHEM_AVERAGE_NEUTRAL_MICROSPECIES_CHARGE>
0.9905861339197642

> <JCHEM_AVERAGE_POLARIZABILITY>
80.08965308024473

> <JCHEM_BIOAVAILABILITY>
0

> <JCHEM_DONOR_COUNT>
3

> <JCHEM_FORMAL_CHARGE>
0

> <JCHEM_GHOSE_FILTER>
0

> <JCHEM_IUPAC>
(3R,3aS,6aR)-hexahydrofuro[2,3-b]furan-3-yl N-[(2S,3R)-3-hydroxy-4-[N-(2-methylpropyl)2-[(1-cyclopentylpiperidin-4-yl)amino]-1,3-benzothiazole-6-sulfonamido]-1-phenylbutan-2-yl]carbamate

> <ALOGPS_LOGP>
4.50

> <JCHEM_LOGP>
5.3245056356666645

> <ALOGPS_LOGS>
-5.14

> <JCHEM_MDDR_LIKE_RULE>
1

> <JCHEM_NEUTRAL_CHARGE>
1

> <JCHEM_NUMBER_OF_RINGS>
7

> <JCHEM_PHYSIOLOGICAL_CHARGE>
1

> <JCHEM_PKA>
14.124750998687153

> <JCHEM_PKA_STRONGEST_ACIDIC>
13.463871041619209

> <JCHEM_PKA_STRONGEST_BASIC>
9.019604833975718

> <JCHEM_POLAR_SURFACE_AREA>
142.56

> <JCHEM_REFRACTIVITY>
200.24229999999991

> <JCHEM_ROTATABLE_BOND_COUNT>
14

> <JCHEM_RULE_OF_FIVE>
0

> <ALOGPS_SOLUBILITY>
5.44e-03 g/l

> <JCHEM_TRADITIONAL_IUPAC>
6-bromo-4-[(dimethylamino)methyl]-3-(ethoxycarbonyl)-2-[(phenylsulfanyl)methyl]-1H-indol-5-yl sulfate

> <JCHEM_VEBER_RULE>
0

> <DRUGBANK_ID>
DB15623

> <DRUG_GROUPS>
investigational

> <GENERIC_NAME>
TMC-310911

$$$$
