
  Mrv1718006051818522D          

  1  0  0  0  0  0            999 V2000
    0.0000    0.0000    0.0000 K   0  3  0  0  0  0  0  0  0  0  0  0
M  CHG  1   1   1
M  END
> <DATABASE_ID>
DB01345

> <DATABASE_NAME>
drugbank

> <SMILES>
[K+]

> <INCHI_IDENTIFIER>
InChI=1S/K/q+1

> <INCHI_KEY>
NPYPAHLBTDXSSS-UHFFFAOYSA-N

> <FORMULA>
K

> <MOLECULAR_WEIGHT>
39.0983

> <EXACT_MASS>
38.963706861

> <JCHEM_ACCEPTOR_COUNT>
0

> <JCHEM_ATOM_COUNT>
1

> <JCHEM_AVERAGE_POLARIZABILITY>
1.7784

> <JCHEM_BIOAVAILABILITY>
1

> <JCHEM_DONOR_COUNT>
0

> <JCHEM_FORMAL_CHARGE>
1

> <JCHEM_GHOSE_FILTER>
0

> <JCHEM_IUPAC>
potassium(1+) ion

> <JCHEM_LOGP>
0.2

> <JCHEM_MDDR_LIKE_RULE>
0

> <JCHEM_NUMBER_OF_RINGS>
0

> <JCHEM_PHYSIOLOGICAL_CHARGE>
1

> <JCHEM_PKA>
3.55

> <JCHEM_PKA_STRONGEST_ACIDIC>
3.09

> <JCHEM_POLAR_SURFACE_AREA>
0.0

> <JCHEM_REFRACTIVITY>
0.0

> <JCHEM_ROTATABLE_BOND_COUNT>
0

> <JCHEM_RULE_OF_FIVE>
1

> <JCHEM_TRADITIONAL_IUPAC>
potassium(1+) ion

> <JCHEM_VEBER_RULE>
1

> <DRUGBANK_ID>
DB01345

> <DRUG_GROUPS>
approved; investigational

> <GENERIC_NAME>
Potassium cation

> <SYNONYMS>
Potassium (ion); Potassium ion; potassium(1+); potassium(1+) ion; potassium(I) cation

> <PRODUCTS>
Rurina; Telom-X-gene

$$$$
