
  Mrv1652310201623412D          

 32 35  0  0  1  0            999 V2000
   -7.5572    4.0145    0.0000 C   0  0  0  0  0  0  0  0  0  0  0  0
   -7.5572    3.1895    0.0000 C   0  0  0  0  0  0  0  0  0  0  0  0
   -8.2717    2.7770    0.0000 C   0  0  0  0  0  0  0  0  0  0  0  0
   -8.9862    3.1895    0.0000 C   0  0  0  0  0  0  0  0  0  0  0  0
   -8.9862    4.0145    0.0000 C   0  0  0  0  0  0  0  0  0  0  0  0
   -8.2717    4.4270    0.0000 C   0  0  0  0  0  0  0  0  0  0  0  0
   -8.2717    5.2520    0.0000 C   0  0  0  0  0  0  0  0  0  0  0  0
   -8.9862    5.6645    0.0000 C   0  0  0  0  0  0  0  0  0  0  0  0
   -9.7006    5.2520    0.0000 C   0  0  0  0  0  0  0  0  0  0  0  0
  -10.4151    5.6645    0.0000 C   0  0  0  0  0  0  0  0  0  0  0  0
  -10.4151    6.4895    0.0000 C   0  0  0  0  0  0  0  0  0  0  0  0
   -9.7006    6.9020    0.0000 C   0  0  0  0  0  0  0  0  0  0  0  0
   -8.9862    6.4895    0.0000 C   0  0  0  0  0  0  0  0  0  0  0  0
   -8.2717    6.9020    0.0000 Cl  0  0  0  0  0  0  0  0  0  0  0  0
  -11.1296    5.2520    0.0000 C   0  0  1  0  0  0  0  0  0  0  0  0
  -11.1296    4.4270    0.0000 C   0  0  1  0  0  0  0  0  0  0  0  0
  -11.8440    4.0145    0.0000 C   0  0  2  0  0  0  0  0  0  0  0  0
  -12.5585    4.4270    0.0000 C   0  0  1  0  0  0  0  0  0  0  0  0
  -12.5585    5.2520    0.0000 C   0  0  2  0  0  0  0  0  0  0  0  0
  -11.8440    5.6645    0.0000 O   0  0  0  0  0  0  0  0  0  0  0  0
  -13.2730    5.6645    0.0000 C   0  0  0  0  0  0  0  0  0  0  0  0
  -13.9874    5.2520    0.0000 O   0  0  0  0  0  0  0  0  0  0  0  0
  -13.2730    4.0145    0.0000 O   0  0  0  0  0  0  0  0  0  0  0  0
  -11.8440    3.1895    0.0000 O   0  0  0  0  0  0  0  0  0  0  0  0
  -10.4151    4.0145    0.0000 O   0  0  0  0  0  0  0  0  0  0  0  0
   -8.2717    1.9520    0.0000 O   0  0  0  0  0  0  0  0  0  0  0  0
   -7.5572    1.5395    0.0000 C   0  0  0  0  0  0  0  0  0  0  0  0
   -7.5572    0.7145    0.0000 C   0  0  0  0  0  0  0  0  0  0  0  0
   -6.8427    0.3020    0.0000 O   0  0  0  0  0  0  0  0  0  0  0  0
   -6.8427   -0.5230    0.0000 C   0  0  0  0  0  0  0  0  0  0  0  0
   -6.4302   -1.2375    0.0000 C   0  0  0  0  0  0  0  0  0  0  0  0
   -7.2552   -1.2375    0.0000 C   0  0  0  0  0  0  0  0  0  0  0  0
  1  2  2  0  0  0  0
  2  3  1  0  0  0  0
  3  4  2  0  0  0  0
  4  5  1  0  0  0  0
  5  6  2  0  0  0  0
  1  6  1  0  0  0  0
  6  7  1  0  0  0  0
  7  8  1  0  0  0  0
  8  9  2  0  0  0  0
  9 10  1  0  0  0  0
 10 11  2  0  0  0  0
 11 12  1  0  0  0  0
 12 13  2  0  0  0  0
  8 13  1  0  0  0  0
 13 14  1  0  0  0  0
 15 10  1  1  0  0  0
 15 16  1  0  0  0  0
 16 17  1  0  0  0  0
 17 18  1  0  0  0  0
 18 19  1  0  0  0  0
 19 20  1  0  0  0  0
 15 20  1  0  0  0  0
 19 21  1  1  0  0  0
 21 22  1  0  0  0  0
 18 23  1  6  0  0  0
 17 24  1  1  0  0  0
 16 25  1  6  0  0  0
  3 26  1  0  0  0  0
 26 27  1  0  0  0  0
 27 28  1  0  0  0  0
 28 29  1  0  0  0  0
 29 30  1  0  0  0  0
 30 31  1  0  0  0  0
 31 32  1  0  0  0  0
 30 32  1  0  0  0  0
M  END
> <DATABASE_ID>
DB12236

> <DATABASE_NAME>
drugbank

> <SMILES>
OC[C@H]1O[C@H]([C@H](O)[C@@H](O)[C@@H]1O)C1=CC=C(Cl)C(CC2=CC=C(OCCOC3CC3)C=C2)=C1

> <INCHI_IDENTIFIER>
InChI=1S/C24H29ClO7/c25-19-8-3-15(24-23(29)22(28)21(27)20(13-26)32-24)12-16(19)11-14-1-4-17(5-2-14)30-9-10-31-18-6-7-18/h1-5,8,12,18,20-24,26-29H,6-7,9-11,13H2/t20-,21-,22+,23-,24+/m1/s1

> <INCHI_KEY>
BTCRKOKVYTVOLU-SJSRKZJXSA-N

> <FORMULA>
C24H29ClO7

> <MOLECULAR_WEIGHT>
464.94

> <EXACT_MASS>
464.160181

> <JCHEM_ACCEPTOR_COUNT>
7

> <JCHEM_ATOM_COUNT>
61

> <JCHEM_AVERAGE_POLARIZABILITY>
49.378595793933144

> <JCHEM_BIOAVAILABILITY>
1

> <JCHEM_DONOR_COUNT>
4

> <JCHEM_FORMAL_CHARGE>
0

> <JCHEM_GHOSE_FILTER>
1

> <JCHEM_IUPAC>
(2S,3R,4R,5S,6R)-2-(4-chloro-3-{[4-(2-cyclopropoxyethoxy)phenyl]methyl}phenyl)-6-(hydroxymethyl)oxane-3,4,5-triol

> <ALOGPS_LOGP>
2.33

> <JCHEM_LOGP>
2.172681377

> <ALOGPS_LOGS>
-3.92

> <JCHEM_MDDR_LIKE_RULE>
1

> <JCHEM_NUMBER_OF_RINGS>
4

> <JCHEM_PHYSIOLOGICAL_CHARGE>
0

> <JCHEM_PKA>
13.45675723636684

> <JCHEM_PKA_STRONGEST_ACIDIC>
12.567882383749815

> <JCHEM_PKA_STRONGEST_BASIC>
-2.979190369034347

> <JCHEM_POLAR_SURFACE_AREA>
108.61000000000001

> <JCHEM_REFRACTIVITY>
118.43619999999996

> <JCHEM_ROTATABLE_BOND_COUNT>
9

> <JCHEM_RULE_OF_FIVE>
1

> <ALOGPS_SOLUBILITY>
5.65e-02 g/l

> <JCHEM_TRADITIONAL_IUPAC>
(2S,3R,4R,5S,6R)-2-(4-chloro-3-{[4-(2-cyclopropoxyethoxy)phenyl]methyl}phenyl)-6-(hydroxymethyl)oxane-3,4,5-triol

> <JCHEM_VEBER_RULE>
0

> <DRUGBANK_ID>
DB12236

> <DRUG_GROUPS>
investigational

> <GENERIC_NAME>
Bexagliflozin

> <SYNONYMS>
Bexagliflozin

$$$$
