
  Mrv1652306231722412D          

 24 27  0  0  1  0            999 V2000
    1.3895   -1.8497    0.0000 C   0  0  0  0  0  0  0  0  0  0  0  0
    1.7494   -2.5921    0.0000 C   0  0  2  0  0  0  0  0  0  0  0  0
    2.2812   -1.9614    0.0000 C   0  0  0  0  0  0  0  0  0  0  0  0
    3.0934   -2.1066    0.0000 C   0  0  1  0  0  0  0  0  0  0  0  0
    3.3737   -2.8825    0.0000 C   0  0  2  0  0  0  0  0  0  0  0  0
    4.1858   -3.0277    0.0000 C   0  0  0  0  0  0  0  0  0  0  0  0
    4.7176   -2.3970    0.0000 C   0  0  0  0  0  0  0  0  0  0  0  0
    5.5297   -2.5422    0.0000 C   0  0  0  0  0  0  0  0  0  0  0  0
    5.8100   -3.3182    0.0000 C   0  0  0  0  0  0  0  0  0  0  0  0
    5.2782   -3.9489    0.0000 C   0  0  0  0  0  0  0  0  0  0  0  0
    4.4661   -3.8037    0.0000 C   0  0  0  0  0  0  0  0  0  0  0  0
    3.9343   -4.4344    0.0000 C   0  0  0  0  0  0  0  0  0  0  0  0
    3.1221   -4.2891    0.0000 C   0  0  0  0  0  0  0  0  0  0  0  0
    2.8418   -3.5132    0.0000 C   0  0  1  0  0  0  0  0  0  0  0  0
    2.0297   -3.3680    0.0000 C   0  0  2  0  0  0  0  0  0  0  0  0
    1.3784   -3.8744    0.0000 C   0  0  0  0  0  0  0  0  0  0  0  0
    0.6955   -3.4114    0.0000 C   0  0  0  0  0  0  0  0  0  0  0  0
    0.9249   -2.6189    0.0000 C   0  0  1  0  0  0  0  0  0  0  0  0
    0.1640   -2.3000    0.0000 C   0  0  0  0  0  0  0  0  0  0  0  0
   -0.5969   -1.9811    0.0000 C   0  0  0  0  0  0  0  0  0  0  0  0
    0.8035   -1.8029    0.0000 O   0  0  0  0  0  0  0  0  0  0  0  0
    6.6221   -3.4634    0.0000 O   0  0  0  0  0  0  0  0  0  0  0  0
    3.6252   -1.4759    0.0000 O   0  0  0  0  0  0  0  0  0  0  0  0
    4.4373   -1.6211    0.0000 C   0  0  0  0  0  0  0  0  0  0  0  0
  2  1  1  6  0  0  0
  2  3  1  0  0  0  0
  3  4  1  0  0  0  0
  4  5  1  0  0  0  0
  5  6  1  6  0  0  0
  6  7  2  0  0  0  0
  7  8  1  0  0  0  0
  8  9  2  0  0  0  0
  9 10  1  0  0  0  0
 10 11  2  0  0  0  0
  6 11  1  0  0  0  0
 11 12  1  0  0  0  0
 12 13  1  0  0  0  0
 14 13  1  1  0  0  0
  5 14  1  0  0  0  0
 14 15  1  0  0  0  0
  2 15  1  0  0  0  0
 15 16  1  6  0  0  0
 16 17  1  0  0  0  0
 17 18  1  0  0  0  0
  2 18  1  0  0  0  0
 18 19  1  1  0  0  0
 19 20  3  0  0  0  0
 18 21  1  6  0  0  0
  9 22  1  0  0  0  0
  4 23  1  6  0  0  0
 23 24  1  0  0  0  0
M  END
> <DATABASE_ID>
DB13418

> <DATABASE_NAME>
drugbank

> <SMILES>
CO[C@H]1C[C@@]2(C)[C@@H](CC[C@@]2(O)C#C)[C@@H]2CCC3=CC(O)=CC=C3[C@@H]12

> <INCHI_IDENTIFIER>
InChI=1S/C21H26O3/c1-4-21(23)10-9-17-16-7-5-13-11-14(22)6-8-15(13)19(16)18(24-3)12-20(17,21)2/h1,6,8,11,16-19,22-23H,5,7,9-10,12H2,2-3H3/t16-,17-,18-,19+,20-,21-/m0/s1

> <INCHI_KEY>
MTMZZIPTQITGCY-OLGWUGKESA-N

> <FORMULA>
C21H26O3

> <MOLECULAR_WEIGHT>
326.436

> <EXACT_MASS>
326.188194697

> <JCHEM_ACCEPTOR_COUNT>
3

> <JCHEM_ATOM_COUNT>
50

> <JCHEM_AVERAGE_POLARIZABILITY>
37.06470686802417

> <JCHEM_BIOAVAILABILITY>
1

> <JCHEM_DONOR_COUNT>
2

> <JCHEM_FORMAL_CHARGE>
0

> <JCHEM_GHOSE_FILTER>
1

> <JCHEM_IUPAC>
(1S,10S,11S,14R,15S,17S)-14-ethynyl-17-methoxy-15-methyltetracyclo[8.7.0.0^{2,7}.0^{11,15}]heptadeca-2,4,6-triene-5,14-diol

> <ALOGPS_LOGP>
2.84

> <JCHEM_LOGP>
3.231714794666667

> <ALOGPS_LOGS>
-4.55

> <JCHEM_MDDR_LIKE_RULE>
0

> <JCHEM_NUMBER_OF_RINGS>
4

> <JCHEM_PHYSIOLOGICAL_CHARGE>
0

> <JCHEM_PKA>
12.896435490115532

> <JCHEM_PKA_STRONGEST_ACIDIC>
10.210306004592573

> <JCHEM_PKA_STRONGEST_BASIC>
-3.719291652786837

> <JCHEM_POLAR_SURFACE_AREA>
49.69

> <JCHEM_REFRACTIVITY>
93.7182

> <JCHEM_ROTATABLE_BOND_COUNT>
1

> <JCHEM_RULE_OF_FIVE>
1

> <ALOGPS_SOLUBILITY>
9.28e-03 g/l

> <JCHEM_TRADITIONAL_IUPAC>
(1S,10S,11S,14R,15S,17S)-14-ethynyl-17-methoxy-15-methyltetracyclo[8.7.0.0^{2,7}.0^{11,15}]heptadeca-2,4,6-triene-5,14-diol

> <JCHEM_VEBER_RULE>
0

> <DRUGBANK_ID>
DB13418

> <DRUG_GROUPS>
experimental

> <GENERIC_NAME>
Moxestrol

> <SYNONYMS>
Moxestrol

$$$$
