
  Mrv1909 02282022132D          

 15 15  0  0  0  0            999 V2000
   -0.7145    0.4125    0.0000 C   0  0  0  0  0  0  0  0  0  0  0  0
   -1.4290    0.0000    0.0000 C   0  0  0  0  0  0  0  0  0  0  0  0
    0.0000    0.0000    0.0000 C   0  0  0  0  0  0  0  0  0  0  0  0
   -1.4290   -0.8250    0.0000 C   0  0  0  0  0  0  0  0  0  0  0  0
    0.0000   -0.8250    0.0000 C   0  0  0  0  0  0  0  0  0  0  0  0
   -0.7145   -1.2374    0.0000 C   0  0  0  0  0  0  0  0  0  0  0  0
    0.7144    0.4125    0.0000 C   0  0  0  0  0  0  0  0  0  0  0  0
    1.4289    0.0000    0.0000 C   0  0  0  0  0  0  0  0  0  0  0  0
    2.1433    0.4124    0.0000 C   0  0  0  0  0  0  0  0  0  0  0  0
    2.8579    0.0000    0.0000 O   0  0  0  0  0  0  0  0  0  0  0  0
    2.1433    1.2374    0.0000 O   0  0  0  0  0  0  0  0  0  0  0  0
   -2.1435    0.4125    0.0000 O   0  0  0  0  0  0  0  0  0  0  0  0
   -2.1434   -1.2374    0.0000 O   0  0  0  0  0  0  0  0  0  0  0  0
   -2.1435    1.2375    0.0000 C   0  0  0  0  0  0  0  0  0  0  0  0
   -2.8579   -0.8250    0.0000 C   0  0  0  0  0  0  0  0  0  0  0  0
  2  1  1  0  0  0  0
  3  1  2  0  0  0  0
  4  2  2  0  0  0  0
  5  3  1  0  0  0  0
  6  4  1  0  0  0  0
  6  5  2  0  0  0  0
  3  7  1  0  0  0  0
  7  8  1  0  0  0  0
  8  9  1  0  0  0  0
  9 10  1  0  0  0  0
  9 11  2  0  0  0  0
  2 12  1  0  0  0  0
  4 13  1  0  0  0  0
 12 14  1  0  0  0  0
 13 15  1  0  0  0  0
M  END
> <DATABASE_ID>
DB04208

> <DATABASE_NAME>
drugbank

> <SMILES>
COC1=C(OC)C=C(CCC(O)=O)C=C1

> <INCHI_IDENTIFIER>
InChI=1S/C11H14O4/c1-14-9-5-3-8(4-6-11(12)13)7-10(9)15-2/h3,5,7H,4,6H2,1-2H3,(H,12,13)

> <INCHI_KEY>
LHHKQWQTBCTDQM-UHFFFAOYSA-N

> <FORMULA>
C11H14O4

> <MOLECULAR_WEIGHT>
210.2265

> <EXACT_MASS>
210.089208936

> <JCHEM_ACCEPTOR_COUNT>
4

> <JCHEM_ATOM_COUNT>
29

> <JCHEM_AVERAGE_NEUTRAL_MICROSPECIES_CHARGE>
-0.9988759463559826

> <JCHEM_AVERAGE_POLARIZABILITY>
21.92245823576497

> <JCHEM_BIOAVAILABILITY>
1

> <JCHEM_DONOR_COUNT>
1

> <JCHEM_FORMAL_CHARGE>
0

> <JCHEM_GHOSE_FILTER>
1

> <JCHEM_IUPAC>
3-(3,4-dimethoxyphenyl)propanoic acid

> <ALOGPS_LOGP>
1.84

> <JCHEM_LOGP>
1.7402202390000001

> <ALOGPS_LOGS>
-2.49

> <JCHEM_MDDR_LIKE_RULE>
0

> <JCHEM_NEUTRAL_CHARGE>
-1

> <JCHEM_NUMBER_OF_RINGS>
1

> <JCHEM_PHYSIOLOGICAL_CHARGE>
-1

> <JCHEM_PKA_STRONGEST_ACIDIC>
4.05127548403869

> <JCHEM_PKA_STRONGEST_BASIC>
-4.592337728059554

> <JCHEM_POLAR_SURFACE_AREA>
55.760000000000005

> <JCHEM_REFRACTIVITY>
54.893

> <JCHEM_ROTATABLE_BOND_COUNT>
5

> <JCHEM_RULE_OF_FIVE>
1

> <ALOGPS_SOLUBILITY>
6.82e-01 g/l

> <JCHEM_TRADITIONAL_IUPAC>
L-saccharopine

> <JCHEM_VEBER_RULE>
0

> <DRUGBANK_ID>
DB04208

> <SECONDARY_ACCESSION_NUMBERS>
EXPT02225

> <DRUG_GROUPS>
experimental

> <GENERIC_NAME>
3-(3,4-dimethoxyphenyl)propanoic acid

> <SYNONYMS>
3-(3,4-dimethoxyphenyl)propionic acid; 3,4-dimethoxy-α-β-dihydrocinnamic acid

$$$$
