
  Mrv1572010161515482D          

 22 24  0  0  0  0            999 V2000
   -0.6506    0.1198    0.0000 N   0  0  0  0  0  0  0  0  0  0  0  0
    2.1921    1.7415    0.0000 N   0  0  0  0  0  0  0  0  0  0  0  0
   -0.6506    1.4476    0.0000 C   0  0  0  0  0  0  0  0  0  0  0  0
   -0.1692    0.7837    0.0000 C   0  0  0  0  0  0  0  0  0  0  0  0
    0.0175    1.9314    0.0000 C   0  0  0  0  0  0  0  0  0  0  0  0
   -1.4313    1.1963    0.0000 C   0  0  0  0  0  0  0  0  0  0  0  0
   -1.4313    0.3712    0.0000 C   0  0  0  0  0  0  0  0  0  0  0  0
   -0.9042    2.2327    0.0000 C   0  0  0  0  0  0  0  0  0  0  0  0
    0.7706    1.5946    0.0000 C   0  0  0  0  0  0  0  0  0  0  0  0
   -2.1458    1.6087    0.0000 C   0  0  0  0  0  0  0  0  0  0  0  0
   -0.3944   -0.6643    0.0000 C   0  0  0  0  0  0  0  0  0  0  0  0
   -2.1458   -0.0412    0.0000 C   0  0  0  0  0  0  0  0  0  0  0  0
    1.4389    2.0783    0.0000 C   0  0  0  0  0  0  0  0  0  0  0  0
   -2.8604    1.1963    0.0000 C   0  0  0  0  0  0  0  0  0  0  0  0
   -2.8604    0.3712    0.0000 C   0  0  0  0  0  0  0  0  0  0  0  0
    0.4128   -0.8344    0.0000 C   0  0  0  0  0  0  0  0  0  0  0  0
   -0.9454   -1.2784    0.0000 C   0  0  0  0  0  0  0  0  0  0  0  0
    0.6691   -1.6187    0.0000 C   0  0  0  0  0  0  0  0  0  0  0  0
   -0.6890   -2.0626    0.0000 C   0  0  0  0  0  0  0  0  0  0  0  0
    0.1182   -2.2327    0.0000 C   0  0  0  0  0  0  0  0  0  0  0  0
    2.8604    2.2253    0.0000 C   0  0  0  0  0  0  0  0  0  0  0  0
    2.2448    1.2327    0.0000 H   0  0  0  0  0  0  0  0  0  0  0  0
  1  4  1  0  0  0  0
  1  7  1  0  0  0  0
  1 11  1  0  0  0  0
  2 13  1  0  0  0  0
  2 21  1  0  0  0  0
  2 22  1  0  0  0  0
  3  4  1  0  0  0  0
  3  5  1  0  0  0  0
  3  6  1  0  0  0  0
  3  8  1  0  0  0  0
  5  9  1  0  0  0  0
  6  7  1  0  0  0  0
  6 10  2  0  0  0  0
  7 12  2  0  0  0  0
  9 13  1  0  0  0  0
 10 14  1  0  0  0  0
 11 16  2  0  0  0  0
 11 17  1  0  0  0  0
 12 15  1  0  0  0  0
 14 15  2  0  0  0  0
 16 18  1  0  0  0  0
 17 19  2  0  0  0  0
 18 20  2  0  0  0  0
 19 20  1  0  0  0  0
M  END
> <DATABASE_ID>
DB09189

> <DATABASE_NAME>
drugbank

> <SMILES>
[H]N(C)CCCC1(C)CN(C2=CC=CC=C12)C1=CC=CC=C1

> <INCHI_IDENTIFIER>
InChI=1S/C19H24N2/c1-19(13-8-14-20-2)15-21(16-9-4-3-5-10-16)18-12-7-6-11-17(18)19/h3-7,9-12,20H,8,13-15H2,1-2H3

> <INCHI_KEY>
YFAIJBZEDDOCAN-UHFFFAOYSA-N

> <FORMULA>
C19H24N2

> <MOLECULAR_WEIGHT>
280.415

> <EXACT_MASS>
280.193948781

> <JCHEM_ACCEPTOR_COUNT>
2

> <JCHEM_ATOM_COUNT>
45

> <JCHEM_AVERAGE_POLARIZABILITY>
33.96926761282789

> <JCHEM_BIOAVAILABILITY>
1

> <JCHEM_DONOR_COUNT>
1

> <JCHEM_FORMAL_CHARGE>
0

> <JCHEM_GHOSE_FILTER>
1

> <JCHEM_IUPAC>
methyl[3-(3-methyl-1-phenyl-2,3-dihydro-1H-indol-3-yl)propyl]amine

> <ALOGPS_LOGP>
4.38

> <JCHEM_LOGP>
4.1978671499999995

> <ALOGPS_LOGS>
-4.08

> <JCHEM_MDDR_LIKE_RULE>
0

> <JCHEM_NUMBER_OF_RINGS>
3

> <JCHEM_PHYSIOLOGICAL_CHARGE>
1

> <JCHEM_PKA_STRONGEST_BASIC>
10.543253159644873

> <JCHEM_POLAR_SURFACE_AREA>
15.27

> <JCHEM_REFRACTIVITY>
89.18300000000002

> <JCHEM_ROTATABLE_BOND_COUNT>
5

> <JCHEM_RULE_OF_FIVE>
1

> <ALOGPS_SOLUBILITY>
2.36e-02 g/l

> <JCHEM_TRADITIONAL_IUPAC>
daledalin

> <JCHEM_VEBER_RULE>
1

> <DRUGBANK_ID>
DB09189

> <DRUG_GROUPS>
experimental

> <GENERIC_NAME>
Daledalin

> <SYNONYMS>
Daledalin

$$$$
