
  Mrv1652310211600002D          

 14 14  0  0  1  0            999 V2000
    0.7145   -0.4125    0.0000 C   0  0  0  0  0  0  0  0  0  0  0  0
   -0.0000    0.0000    0.0000 C   0  0  0  0  0  0  0  0  0  0  0  0
   -0.0000    0.8250    0.0000 C   0  0  0  0  0  0  0  0  0  0  0  0
    0.7145    1.2375    0.0000 C   0  0  0  0  0  0  0  0  0  0  0  0
    1.4289    0.8250    0.0000 C   0  0  0  0  0  0  0  0  0  0  0  0
    1.4289    0.0000    0.0000 C   0  0  0  0  0  0  0  0  0  0  0  0
    2.1434    1.2375    0.0000 C   0  0  1  0  0  0  0  0  0  0  0  0
    2.8579    0.8250    0.0000 C   0  0  0  0  0  0  0  0  0  0  0  0
    3.5724    1.2375    0.0000 O   0  0  0  0  0  0  0  0  0  0  0  0
    4.2868    0.8250    0.0000 C   0  0  0  0  0  0  0  0  0  0  0  0
    5.0013    1.2375    0.0000 O   0  0  0  0  0  0  0  0  0  0  0  0
    4.2868    0.0000    0.0000 N   0  0  0  0  0  0  0  0  0  0  0  0
    2.1434    2.0625    0.0000 O   0  0  0  0  0  0  0  0  0  0  0  0
    0.7145    2.0625    0.0000 Cl  0  0  0  0  0  0  0  0  0  0  0  0
  1  2  2  0  0  0  0
  2  3  1  0  0  0  0
  3  4  2  0  0  0  0
  4  5  1  0  0  0  0
  5  6  2  0  0  0  0
  1  6  1  0  0  0  0
  5  7  1  0  0  0  0
  7  8  1  0  0  0  0
  8  9  1  0  0  0  0
  9 10  1  0  0  0  0
 10 11  2  0  0  0  0
 10 12  1  0  0  0  0
  7 13  1  6  0  0  0
  4 14  1  0  0  0  0
M  END
> <DATABASE_ID>
DB12338

> <DATABASE_NAME>
drugbank

> <SMILES>
NC(=O)OC[C@@H](O)C1=CC=CC=C1Cl

> <INCHI_IDENTIFIER>
InChI=1S/C9H10ClNO3/c10-7-4-2-1-3-6(7)8(12)5-14-9(11)13/h1-4,8,12H,5H2,(H2,11,13)/t8-/m1/s1

> <INCHI_KEY>
OLBWFRRUHYQABZ-MRVPVSSYSA-N

> <FORMULA>
C9H10ClNO3

> <MOLECULAR_WEIGHT>
215.63

> <EXACT_MASS>
215.0349209

> <JCHEM_ACCEPTOR_COUNT>
2

> <JCHEM_ATOM_COUNT>
24

> <JCHEM_AVERAGE_POLARIZABILITY>
20.381770078331616

> <JCHEM_BIOAVAILABILITY>
1

> <JCHEM_DONOR_COUNT>
2

> <JCHEM_FORMAL_CHARGE>
0

> <JCHEM_GHOSE_FILTER>
1

> <JCHEM_IUPAC>
(2S)-2-(2-chlorophenyl)-2-hydroxyethyl carbamate

> <ALOGPS_LOGP>
0.94

> <JCHEM_LOGP>
1.287185659666667

> <ALOGPS_LOGS>
-2.00

> <JCHEM_MDDR_LIKE_RULE>
0

> <JCHEM_NUMBER_OF_RINGS>
1

> <JCHEM_PHYSIOLOGICAL_CHARGE>
0

> <JCHEM_PKA>
14.819541021486444

> <JCHEM_PKA_STRONGEST_ACIDIC>
13.425775207868238

> <JCHEM_PKA_STRONGEST_BASIC>
-3.474814054632615

> <JCHEM_POLAR_SURFACE_AREA>
72.55

> <JCHEM_REFRACTIVITY>
51.4694

> <JCHEM_ROTATABLE_BOND_COUNT>
4

> <JCHEM_RULE_OF_FIVE>
1

> <ALOGPS_SOLUBILITY>
2.15e+00 g/l

> <JCHEM_TRADITIONAL_IUPAC>
carisbamate

> <JCHEM_VEBER_RULE>
0

> <DRUGBANK_ID>
DB12338

> <DRUG_GROUPS>
investigational

> <GENERIC_NAME>
Carisbamate

> <SYNONYMS>
Carisbamate

$$$$
