
  Mrv1909 11282222362D          

 25 26  0  0  1  0            999 V2000
    2.8579   -0.0000    0.0000 N   0  0  0  0  0  0  0  0  0  0  0  0
    2.8579   -0.8250    0.0000 C   0  0  1  0  0  0  0  0  0  0  0  0
    2.1434   -1.2375    0.0000 C   0  0  0  0  0  0  0  0  0  0  0  0
    1.4289   -0.8250    0.0000 C   0  0  0  0  0  0  0  0  0  0  0  0
    1.4289   -0.0000    0.0000 O   0  0  0  0  0  0  0  0  0  0  0  0
    0.7145   -1.2375    0.0000 N   0  0  0  0  0  0  0  0  0  0  0  0
    0.0000   -0.8250    0.0000 C   0  0  0  0  0  0  0  0  0  0  0  0
   -0.7145   -1.2375    0.0000 N   0  0  0  0  0  0  0  0  0  0  0  0
   -1.4289   -0.8250    0.0000 C   0  0  0  0  0  0  0  0  0  0  0  0
   -2.1434   -1.2375    0.0000 O   0  0  0  0  0  0  0  0  0  0  0  0
   -1.4289   -0.0000    0.0000 N   0  0  0  0  0  0  0  0  0  0  0  0
   -0.7145    0.4125    0.0000 C   0  0  0  0  0  0  0  0  0  0  0  0
    0.0000   -0.0000    0.0000 C   0  0  0  0  0  0  0  0  0  0  0  0
   -2.1434    0.4125    0.0000 C   0  0  2  0  0  0  0  0  0  0  0  0
   -2.8971    0.0769    0.0000 O   0  0  0  0  0  0  0  0  0  0  0  0
   -3.4491    0.6900    0.0000 C   0  0  2  0  0  0  0  0  0  0  0  0
   -4.2696    0.6038    0.0000 C   0  0  0  0  0  0  0  0  0  0  0  0
   -4.7545    1.2712    0.0000 O   0  0  0  0  0  0  0  0  0  0  0  0
   -3.0366    1.4045    0.0000 C   0  0  1  0  0  0  0  0  0  0  0  0
   -3.3722    2.1582    0.0000 O   0  0  0  0  0  0  0  0  0  0  0  0
   -2.2296    1.2330    0.0000 C   0  0  2  0  0  0  0  0  0  0  0  0
   -1.6166    1.7850    0.0000 O   0  0  0  0  0  0  0  0  0  0  0  0
    3.5724   -1.2375    0.0000 C   0  0  0  0  0  0  0  0  0  0  0  0
    4.2868   -0.8250    0.0000 O   0  0  0  0  0  0  0  0  0  0  0  0
    3.5724   -2.0625    0.0000 O   0  0  0  0  0  0  0  0  0  0  0  0
  2  1  1  6  0  0  0
  2  3  1  0  0  0  0
  3  4  1  0  0  0  0
  4  5  2  0  0  0  0
  4  6  1  0  0  0  0
  6  7  1  0  0  0  0
  7  8  2  0  0  0  0
  8  9  1  0  0  0  0
  9 10  2  0  0  0  0
  9 11  1  0  0  0  0
 11 12  1  0  0  0  0
 12 13  2  0  0  0  0
  7 13  1  0  0  0  0
 14 11  1  6  0  0  0
 14 15  1  0  0  0  0
 16 15  1  0  0  0  0
 16 17  1  6  0  0  0
 17 18  1  0  0  0  0
 19 16  1  0  0  0  0
 19 20  1  1  0  0  0
 19 21  1  0  0  0  0
 21 14  1  0  0  0  0
 21 22  1  6  0  0  0
  2 23  1  0  0  0  0
 23 24  1  0  0  0  0
 23 25  2  0  0  0  0
M  END
> <DATABASE_ID>
DB17226

> <DATABASE_NAME>
drugbank

> <SMILES>
N[C@@H](CC(=O)NC1=NC(=O)N(C=C1)[C@@H]1O[C@H](CO)[C@@H](O)[C@@H]1O)C(O)=O

> <INCHI_IDENTIFIER>
InChI=1S/C13H18N4O8/c14-5(12(22)23)3-8(19)15-7-1-2-17(13(24)16-7)11-10(21)9(20)6(4-18)25-11/h1-2,5-6,9-11,18,20-21H,3-4,14H2,(H,22,23)(H,15,16,19,24)/t5-,6+,9+,10-,11+/m0/s1

> <INCHI_KEY>
PVPJTBAEAQVTPN-HRAQMCAYSA-N

> <FORMULA>
C13H18N4O8

> <MOLECULAR_WEIGHT>
358.307

> <EXACT_MASS>
358.112463556

> <JCHEM_ACCEPTOR_COUNT>
10

> <JCHEM_ATOM_COUNT>
43

> <JCHEM_AVERAGE_NEUTRAL_MICROSPECIES_CHARGE>
-0.03571204559321186

> <JCHEM_AVERAGE_POLARIZABILITY>
33.45678349450723

> <JCHEM_BIOAVAILABILITY>
1

> <JCHEM_DONOR_COUNT>
6

> <JCHEM_FORMAL_CHARGE>
0

> <JCHEM_GHOSE_FILTER>
0

> <JCHEM_IUPAC>
(2S)-2-amino-3-({1-[(2R,3S,4S,5R)-3,4-dihydroxy-5-(hydroxymethyl)oxolan-2-yl]-2-oxo-1,2-dihydropyrimidin-4-yl}carbamoyl)propanoic acid

> <ALOGPS_LOGP>
-2.58

> <JCHEM_LOGP>
-6.126141552575329

> <ALOGPS_LOGS>
-1.72

> <JCHEM_MDDR_LIKE_RULE>
0

> <JCHEM_NEUTRAL_CHARGE>
0

> <JCHEM_NUMBER_OF_RINGS>
2

> <JCHEM_PHYSIOLOGICAL_CHARGE>
0

> <JCHEM_PKA>
11.14284132274713

> <JCHEM_PKA_STRONGEST_ACIDIC>
1.7121964772066163

> <JCHEM_PKA_STRONGEST_BASIC>
8.431864301326948

> <JCHEM_POLAR_SURFACE_AREA>
195.01

> <JCHEM_REFRACTIVITY>
77.8776

> <JCHEM_ROTATABLE_BOND_COUNT>
6

> <JCHEM_RULE_OF_FIVE>
0

> <ALOGPS_SOLUBILITY>
6.84e+00 g/l

> <JCHEM_TRADITIONAL_IUPAC>
(1S,2S,3R,4S,7R,9S,10S,12R,15S)-4,12-bis(acetyloxy)-9-{[(2,3-dihydroxypropoxy)carbonyl]oxy}-1-hydroxy-15-{[(2R,3S)-2-hydroxy-3-phenyl-3-(phenylformamido)propanoyl]oxy}-10,14,17,17-tetramethyl-11-oxo-6-oxatetracyclo[11.3.1.0^{3,10}.0^{4,7}]heptadec-13-en-2-yl benzoate

> <JCHEM_VEBER_RULE>
0

> <DRUGBANK_ID>
DB17226

> <DRUG_GROUPS>
investigational

> <GENERIC_NAME>
Aspacytarabine

> <SYNONYMS>
Astarabine; L-asparagine, n-(1-.beta.-d-arabinofuranosyl-1,2-dihydro-2-oxo-4-pyrimidinyl)-; N4-(1-.beta.-d-arabinofuranosyl-2-oxo-1,2-dihydropyrimidin-4-yl)-l-asparagine

$$$$
