
  Mrv1718009031810312D          

 35 38  0  0  0  0            999 V2000
   -2.6874   -4.2616    0.0000 Cl  0  0  0  0  0  0  0  0  0  0  0  0
   -1.4499    0.9607    0.0000 O   0  5  0  0  0  0  0  0  0  0  0  0
   -0.6249   -2.1181    0.0000 O   0  0  0  0  0  0  0  0  0  0  0  0
   -0.8163    1.6752    0.0000 O   0  0  0  0  0  0  0  0  0  0  0  0
   -1.0374    0.2463    0.0000 N   0  3  0  0  0  0  0  0  0  0  0  0
   -0.6322    2.7197    0.0000 N   0  0  0  0  0  0  0  0  0  0  0  0
   -1.0374   -1.4037    0.0000 C   0  0  0  0  0  0  0  0  0  0  0  0
   -0.3229   -0.1661    0.0000 C   0  0  0  0  0  0  0  0  0  0  0  0
   -1.7519   -0.1661    0.0000 C   0  0  0  0  0  0  0  0  0  0  0  0
   -0.3229   -0.9912    0.0000 C   0  0  0  0  0  0  0  0  0  0  0  0
   -1.7519   -0.9912    0.0000 C   0  0  0  0  0  0  0  0  0  0  0  0
   -0.6249    0.9607    0.0000 C   0  0  0  0  0  0  0  0  0  0  0  0
    0.2000    0.9607    0.0000 C   0  0  0  0  0  0  0  0  0  0  0  0
    0.6125    1.6752    0.0000 C   0  0  0  0  0  0  0  0  0  0  0  0
   -1.4499   -2.1181    0.0000 C   0  0  0  0  0  0  0  0  0  0  0  0
    1.0250    2.3897    0.0000 C   0  0  0  0  0  0  0  0  0  0  0  0
    1.3270    1.2627    0.0000 C   0  0  0  0  0  0  0  0  0  0  0  0
   -0.1018    2.0877    0.0000 C   0  0  0  0  0  0  0  0  0  0  0  0
   -2.2749   -2.1181    0.0000 C   0  0  0  0  0  0  0  0  0  0  0  0
   -1.0374   -2.8327    0.0000 C   0  0  0  0  0  0  0  0  0  0  0  0
    1.3270    0.4377    0.0000 C   0  0  0  0  0  0  0  0  0  0  0  0
    1.8501    2.3897    0.0000 C   0  0  0  0  0  0  0  0  0  0  0  0
    2.0415    1.6752    0.0000 C   0  0  0  0  0  0  0  0  0  0  0  0
    0.6125    3.1042    0.0000 C   0  0  0  0  0  0  0  0  0  0  0  0
   -2.6874   -2.8327    0.0000 C   0  0  0  0  0  0  0  0  0  0  0  0
   -1.4499   -3.5472    0.0000 C   0  0  0  0  0  0  0  0  0  0  0  0
   -2.2749   -3.5472    0.0000 C   0  0  0  0  0  0  0  0  0  0  0  0
    2.2626    3.1042    0.0000 C   0  0  0  0  0  0  0  0  0  0  0  0
    2.0415    0.0252    0.0000 C   0  0  0  0  0  0  0  0  0  0  0  0
    1.0250    3.8187    0.0000 C   0  0  0  0  0  0  0  0  0  0  0  0
    2.7560    1.2627    0.0000 C   0  0  0  0  0  0  0  0  0  0  0  0
   -1.4446    2.5764    0.0000 C   0  0  0  0  0  0  0  0  0  0  0  0
   -0.3500    3.4950    0.0000 C   0  0  0  0  0  0  0  0  0  0  0  0
    1.8501    3.8187    0.0000 C   0  0  0  0  0  0  0  0  0  0  0  0
    2.7560    0.4377    0.0000 C   0  0  0  0  0  0  0  0  0  0  0  0
  1 27  1  0  0  0  0
  2  5  1  0  0  0  0
  3  7  1  0  0  0  0
  4 18  2  0  0  0  0
  5  8  1  0  0  0  0
  5  9  1  0  0  0  0
  5 12  1  0  0  0  0
  6 18  1  0  0  0  0
  6 32  1  0  0  0  0
  6 33  1  0  0  0  0
  7 10  1  0  0  0  0
  7 11  1  0  0  0  0
  7 15  1  0  0  0  0
  8 10  1  0  0  0  0
  9 11  1  0  0  0  0
 12 13  1  0  0  0  0
 13 14  1  0  0  0  0
 14 16  1  0  0  0  0
 14 17  1  0  0  0  0
 14 18  1  0  0  0  0
 15 19  2  0  0  0  0
 15 20  1  0  0  0  0
 16 22  2  0  0  0  0
 16 24  1  0  0  0  0
 17 21  2  0  0  0  0
 17 23  1  0  0  0  0
 19 25  1  0  0  0  0
 20 26  2  0  0  0  0
 21 29  1  0  0  0  0
 22 28  1  0  0  0  0
 23 31  2  0  0  0  0
 24 30  2  0  0  0  0
 25 27  2  0  0  0  0
 26 27  1  0  0  0  0
 28 34  2  0  0  0  0
 29 35  2  0  0  0  0
 30 34  1  0  0  0  0
 31 35  1  0  0  0  0
M  CHG  2   2  -1   5   1
M  END
> <DATABASE_ID>
DB14661

> <DATABASE_NAME>
drugbank

> <SMILES>
CN(C)C(=O)C(CC[N+]1([O-])CCC(O)(CC1)C1=CC=C(Cl)C=C1)(C1=CC=CC=C1)C1=CC=CC=C1

> <INCHI_IDENTIFIER>
InChI=1S/C29H33ClN2O3/c1-31(2)27(33)29(24-9-5-3-6-10-24,25-11-7-4-8-12-25)19-22-32(35)20-17-28(34,18-21-32)23-13-15-26(30)16-14-23/h3-16,34H,17-22H2,1-2H3

> <INCHI_KEY>
KXVSBTJVTUVNPM-UHFFFAOYSA-N

> <FORMULA>
C29H33ClN2O3

> <MOLECULAR_WEIGHT>
493.04

> <EXACT_MASS>
492.2179706

> <JCHEM_ACCEPTOR_COUNT>
3

> <JCHEM_ATOM_COUNT>
68

> <JCHEM_AVERAGE_POLARIZABILITY>
53.82935286311855

> <JCHEM_BIOAVAILABILITY>
1

> <JCHEM_DONOR_COUNT>
1

> <JCHEM_FORMAL_CHARGE>
0

> <JCHEM_GHOSE_FILTER>
0

> <JCHEM_IUPAC>
4-(4-chlorophenyl)-1-[3-(dimethylcarbamoyl)-3,3-diphenylpropyl]-4-hydroxypiperidin-1-ium-1-olate

> <ALOGPS_LOGP>
3.56

> <JCHEM_LOGP>
3.6468156753333334

> <ALOGPS_LOGS>
-6.35

> <JCHEM_MDDR_LIKE_RULE>
1

> <JCHEM_NUMBER_OF_RINGS>
4

> <JCHEM_PHYSIOLOGICAL_CHARGE>
0

> <JCHEM_PKA_STRONGEST_ACIDIC>
13.661169057218636

> <JCHEM_PKA_STRONGEST_BASIC>
4.010321924246174

> <JCHEM_POLAR_SURFACE_AREA>
63.6

> <JCHEM_REFRACTIVITY>
141.36390000000003

> <JCHEM_ROTATABLE_BOND_COUNT>
7

> <JCHEM_RULE_OF_FIVE>
1

> <ALOGPS_SOLUBILITY>
2.21e-04 g/l

> <JCHEM_TRADITIONAL_IUPAC>
4-(4-chlorophenyl)-1-[3-(dimethylcarbamoyl)-3,3-diphenylpropyl]-4-hydroxypiperidin-1-ium-1-olate

> <JCHEM_VEBER_RULE>
0

> <DRUGBANK_ID>
DB14661

> <SECONDARY_ACCESSION_NUMBERS>
DBSALT001714

> <DRUG_GROUPS>
experimental

> <GENERIC_NAME>
Loperamide oxide

> <SYNONYMS>
Loperamide oxide; Loperamide oxide anhydrous

$$$$
