
  Mrv1909 11262022192D          

  3  2  0  0  0  0            999 V2000
   -0.7149   -0.2069    0.0000 I   0  0  0  0  0  0  0  0  0  0  0  0
    0.0000    0.2069    0.0000 Zn  0  0  0  0  0  0  0  0  0  0  0  0
    0.7149   -0.2028    0.0000 I   0  0  0  0  0  0  0  0  0  0  0  0
  1  2  1  0  0  0  0
  2  3  1  0  0  0  0
M  END
> <DATABASE_ID>
DB15961

> <DATABASE_NAME>
drugbank

> <SMILES>
I[Zn]I

> <INCHI_IDENTIFIER>
InChI=1S/2HI.Zn/h2*1H;/q;;+2/p-2

> <INCHI_KEY>
UAYWVJHJZHQCIE-UHFFFAOYSA-L

> <FORMULA>
I2Zn

> <MOLECULAR_WEIGHT>
319.19

> <EXACT_MASS>
317.73808

> <JCHEM_ACCEPTOR_COUNT>
0

> <JCHEM_ATOM_COUNT>
3

> <JCHEM_AVERAGE_NEUTRAL_MICROSPECIES_CHARGE>
0.0

> <JCHEM_AVERAGE_POLARIZABILITY>
12.84129186628665

> <JCHEM_BIOAVAILABILITY>
1

> <JCHEM_DONOR_COUNT>
0

> <JCHEM_FORMAL_CHARGE>
0

> <JCHEM_GHOSE_FILTER>
0

> <JCHEM_IUPAC>
diiodozinc

> <JCHEM_LOGP>
1.1172

> <JCHEM_MDDR_LIKE_RULE>
0

> <JCHEM_NEUTRAL_CHARGE>
0

> <JCHEM_NUMBER_OF_RINGS>
0

> <JCHEM_PHYSIOLOGICAL_CHARGE>
0

> <JCHEM_POLAR_SURFACE_AREA>
0.0

> <JCHEM_REFRACTIVITY>
26.6816

> <JCHEM_ROTATABLE_BOND_COUNT>
0

> <JCHEM_RULE_OF_FIVE>
1

> <JCHEM_TRADITIONAL_IUPAC>
stearyl alcohol

> <JCHEM_VEBER_RULE>
1

> <DRUGBANK_ID>
DB15961

> <DRUG_GROUPS>
experimental

> <GENERIC_NAME>
Zinc iodide

> <SYNONYMS>
Diiodozinc; Zinc diiodide

$$$$
