
  Mrv1909 08061917342D          

  7  7  0  0  0  0            999 V2000
    0.0000   -1.2376    0.0000 C   0  0  0  0  0  0  0  0  0  0  0  0
    0.7145   -0.8251    0.0000 C   0  0  0  0  0  0  0  0  0  0  0  0
   -0.7145   -0.8251    0.0000 C   0  0  0  0  0  0  0  0  0  0  0  0
    0.7145    0.0000    0.0000 C   0  0  0  0  0  0  0  0  0  0  0  0
   -0.7145    0.0000    0.0000 C   0  0  0  0  0  0  0  0  0  0  0  0
    0.0000    0.4125    0.0000 C   0  0  0  0  0  0  0  0  0  0  0  0
    0.0000    1.2376    0.0000 N   0  0  0  0  0  0  0  0  0  0  0  0
  2  1  2  0  0  0  0
  3  1  1  0  0  0  0
  4  2  1  0  0  0  0
  5  3  2  0  0  0  0
  6  4  2  0  0  0  0
  6  5  1  0  0  0  0
  7  6  1  0  0  0  0
M  END
> <DATABASE_ID>
DB06728

> <DATABASE_NAME>
drugbank

> <SMILES>
NC1=CC=CC=C1

> <INCHI_IDENTIFIER>
InChI=1S/C6H7N/c7-6-4-2-1-3-5-6/h1-5H,7H2

> <INCHI_KEY>
PAYRUJLWNCNPSJ-UHFFFAOYSA-N

> <FORMULA>
C6H7N

> <MOLECULAR_WEIGHT>
93.1265

> <EXACT_MASS>
93.057849229

> <JCHEM_ACCEPTOR_COUNT>
1

> <JCHEM_ATOM_COUNT>
14

> <JCHEM_AVERAGE_POLARIZABILITY>
10.285464630322043

> <JCHEM_BIOAVAILABILITY>
1

> <JCHEM_DONOR_COUNT>
1

> <JCHEM_FORMAL_CHARGE>
0

> <JCHEM_GHOSE_FILTER>
0

> <JCHEM_IUPAC>
aniline

> <ALOGPS_LOGP>
0.89

> <JCHEM_LOGP>
1.1443198620000001

> <ALOGPS_LOGS>
-0.71

> <JCHEM_MDDR_LIKE_RULE>
0

> <JCHEM_NUMBER_OF_RINGS>
1

> <JCHEM_PHYSIOLOGICAL_CHARGE>
0

> <JCHEM_PKA_STRONGEST_BASIC>
4.641818038580084

> <JCHEM_POLAR_SURFACE_AREA>
26.02

> <JCHEM_REFRACTIVITY>
30.758399999999998

> <JCHEM_ROTATABLE_BOND_COUNT>
0

> <JCHEM_RULE_OF_FIVE>
1

> <ALOGPS_SOLUBILITY>
1.80e+01 g/l

> <JCHEM_TRADITIONAL_IUPAC>
2-amino-6-imino-5-(2-phenyldiazen-1-yl)-1H-pyridin-3-ol

> <JCHEM_VEBER_RULE>
1

> <DRUGBANK_ID>
DB06728

> <DRUG_GROUPS>
experimental

> <GENERIC_NAME>
Aniline

> <SYNONYMS>
Aminobenzene; Aminophen; Anilin; Anilina; Aniline; Aniline oil; Anilinum; Benzenamine; Benzeneamine; Fentanyl impurity F; Huile d'aniline; Kyanol; Phenylamine; Trimethoprim specified impurity K

> <SALTS>
Aniline acetate; Aniline hydrobromide; Aniline hydrochloride

$$$$
