
  Mrv1718003251815152D          

 40 41  0  0  1  0            999 V2000
    7.1843   -5.3678    0.0000 C   0  0  0  0  0  0  0  0  0  0  0  0
    7.8987   -6.6053    0.0000 C   0  0  0  0  0  0  0  0  0  0  0  0
   10.7566   -6.6053    0.0000 C   0  0  0  0  0  0  0  0  0  0  0  0
   13.6145   -6.6053    0.0000 C   0  0  0  0  0  0  0  0  0  0  0  0
   18.9438   -3.1680    0.0000 C   0  0  0  0  0  0  0  0  0  0  0  0
   17.3189   -3.4545    0.0000 C   0  0  0  0  0  0  0  0  0  0  0  0
   19.4401   -5.9825    0.0000 C   0  0  0  0  0  0  0  0  0  0  0  0
   15.9421   -6.4123    0.0000 C   0  0  0  0  0  0  0  0  0  0  0  0
    9.3277   -5.7803    0.0000 C   0  0  0  0  0  0  0  0  0  0  0  0
   12.1856   -5.7803    0.0000 C   0  0  0  0  0  0  0  0  0  0  0  0
   15.0435   -5.7803    0.0000 C   0  0  0  0  0  0  0  0  0  0  0  0
    8.6132   -5.3678    0.0000 C   0  0  0  0  0  0  0  0  0  0  0  0
   10.0422   -5.3678    0.0000 C   0  0  0  0  0  0  0  0  0  0  0  0
   11.4711   -5.3678    0.0000 C   0  0  0  0  0  0  0  0  0  0  0  0
   12.9000   -5.3678    0.0000 C   0  0  0  0  0  0  0  0  0  0  0  0
   14.3290   -5.3678    0.0000 C   0  0  0  0  0  0  0  0  0  0  0  0
   21.3812   -2.7382    0.0000 C   0  0  0  0  0  0  0  0  0  0  0  0
   21.0991   -3.5135    0.0000 C   0  0  0  0  0  0  0  0  0  0  0  0
   17.8152   -6.2690    0.0000 C   0  0  0  0  0  0  0  0  0  0  0  0
   15.7579   -5.3678    0.0000 C   0  0  0  0  0  0  0  0  0  0  0  0
   17.0027   -6.4123    0.0000 C   0  0  0  0  0  0  0  0  0  0  0  0
    7.8987   -5.7803    0.0000 C   0  0  0  0  0  0  0  0  0  0  0  0
   10.7566   -5.7803    0.0000 C   0  0  2  0  0  0  0  0  0  0  0  0
   13.6145   -5.7803    0.0000 C   0  0  2  0  0  0  0  0  0  0  0  0
   18.6617   -3.9433    0.0000 C   0  0  0  0  0  0  0  0  0  0  0  0
   17.8492   -4.0865    0.0000 C   0  0  0  0  0  0  0  0  0  0  0  0
   18.9098   -5.3505    0.0000 C   0  0  0  0  0  0  0  0  0  0  0  0
   18.0973   -5.4938    0.0000 C   0  0  0  0  0  0  0  0  0  0  0  0
   22.1937   -2.5950    0.0000 C   0  0  0  0  0  0  0  0  0  0  0  0
   20.2866   -3.6567    0.0000 C   0  0  0  0  0  0  0  0  0  0  0  0
   19.1920   -4.5753    0.0000 C   0  0  0  0  0  0  0  0  0  0  0  0
   17.5670   -4.8618    0.0000 C   0  0  0  0  0  0  0  0  0  0  0  0
   16.4724   -5.7803    0.0000 C   0  0  1  0  0  0  0  0  0  0  0  0
   22.4759   -1.8197    0.0000 O   0  0  0  0  0  0  0  0  0  0  0  0
   22.7240   -3.2270    0.0000 O   0  0  0  0  0  0  0  0  0  0  0  0
   19.7563   -3.0248    0.0000 O   0  0  0  0  0  0  0  0  0  0  0  0
   20.0044   -4.4320    0.0000 O   0  0  0  0  0  0  0  0  0  0  0  0
   16.7546   -5.0050    0.0000 O   0  0  0  0  0  0  0  0  0  0  0  0
   10.0422   -6.1928    0.0000 H   0  0  0  0  0  0  0  0  0  0  0  0
   12.9000   -6.1928    0.0000 H   0  0  0  0  0  0  0  0  0  0  0  0
 12  9  1  0  0  0  0
 13  9  1  0  0  0  0
 14 10  1  0  0  0  0
 15 10  1  0  0  0  0
 16 11  1  0  0  0  0
 18 17  1  0  0  0  0
 20 11  1  0  0  0  0
 21 19  1  0  0  0  0
 22  1  1  0  0  0  0
 22  2  1  0  0  0  0
 22 12  1  0  0  0  0
 23  3  1  6  0  0  0
 23 13  1  0  0  0  0
 23 14  1  0  0  0  0
 24  4  1  6  0  0  0
 24 15  1  0  0  0  0
 24 16  1  0  0  0  0
 25  5  1  0  0  0  0
 26  6  1  0  0  0  0
 26 25  1  0  0  0  0
 27  7  1  0  0  0  0
 28 19  1  0  0  0  0
 28 27  2  0  0  0  0
 29 17  1  0  0  0  0
 30 18  1  0  0  0  0
 31 25  2  0  0  0  0
 31 27  1  0  0  0  0
 32 26  2  0  0  0  0
 32 28  1  0  0  0  0
 33  8  1  6  0  0  0
 33 20  1  1  0  0  0
 33 21  1  0  0  0  0
 34 29  2  0  0  0  0
 35 29  1  0  0  0  0
 36 30  2  0  0  0  0
 37 30  1  0  0  0  0
 37 31  1  0  0  0  0
 38 32  1  0  0  0  0
 38 33  1  0  0  0  0
 23 39  1  1  0  0  0
 24 40  1  1  0  0  0
M  END
> <DATABASE_ID>
DB14001

> <DATABASE_NAME>
drugbank

> <SMILES>
[H][C@@](C)(CCCC(C)C)CCC[C@@]([H])(C)CCC[C@]1(C)CCC2=C(C)C(OC(=O)CCC(O)=O)=C(C)C(C)=C2O1

> <INCHI_IDENTIFIER>
InChI=1S/C33H54O5/c1-22(2)12-9-13-23(3)14-10-15-24(4)16-11-20-33(8)21-19-28-27(7)31(25(5)26(6)32(28)38-33)37-30(36)18-17-29(34)35/h22-24H,9-21H2,1-8H3,(H,34,35)/t23-,24-,33-/m1/s1

> <INCHI_KEY>
IELOKBJPULMYRW-NJQVLOCASA-N

> <FORMULA>
C33H54O5

> <MOLECULAR_WEIGHT>
530.79

> <EXACT_MASS>
530.397124839

> <JCHEM_ACCEPTOR_COUNT>
4

> <JCHEM_ATOM_COUNT>
92

> <JCHEM_AVERAGE_POLARIZABILITY>
65.99399868129242

> <JCHEM_BIOAVAILABILITY>
0

> <JCHEM_DONOR_COUNT>
1

> <JCHEM_FORMAL_CHARGE>
0

> <JCHEM_GHOSE_FILTER>
0

> <JCHEM_IUPAC>
4-oxo-4-{[(2R)-2,5,7,8-tetramethyl-2-[(4R,8R)-4,8,12-trimethyltridecyl]-3,4-dihydro-2H-1-benzopyran-6-yl]oxy}butanoic acid

> <ALOGPS_LOGP>
7.96

> <JCHEM_LOGP>
10.243406303

> <ALOGPS_LOGS>
-7.65

> <JCHEM_MDDR_LIKE_RULE>
0

> <JCHEM_NUMBER_OF_RINGS>
2

> <JCHEM_PHYSIOLOGICAL_CHARGE>
-1

> <JCHEM_PKA_STRONGEST_ACIDIC>
3.995219750428804

> <JCHEM_PKA_STRONGEST_BASIC>
-4.857008797012035

> <JCHEM_POLAR_SURFACE_AREA>
72.83

> <JCHEM_REFRACTIVITY>
155.41889999999998

> <JCHEM_ROTATABLE_BOND_COUNT>
17

> <JCHEM_RULE_OF_FIVE>
0

> <ALOGPS_SOLUBILITY>
1.18e-05 g/l

> <JCHEM_TRADITIONAL_IUPAC>
4-oxo-4-{[(2R)-2,5,7,8-tetramethyl-2-[(4R,8R)-4,8,12-trimethyltridecyl]-3,4-dihydro-1-benzopyran-6-yl]oxy}butanoic acid

> <JCHEM_VEBER_RULE>
0

> <DRUGBANK_ID>
DB14001

> <SECONDARY_ACCESSION_NUMBERS>
DBSALT001494

> <DRUG_GROUPS>
approved; nutraceutical; vet_approved

> <GENERIC_NAME>
alpha-Tocopherol succinate

> <SYNONYMS>
(+)-alpha-Tocopheryl succinate; alpha-Tocopheryl acid succinate; alpha-Tocopheryl succinate; alpha-Vitamin E succinate; d-alpha-Tocopherol acid succinate; Tocopheryl acid succinate,D-alpha; Vitamin E hemisuccinate; Vitamin E succinate

> <PRODUCTS>
Acti-succinate Caplet 400unit; Avon Vitadvance Multi-kids Complete; B.E.T. Complex; Body Rox; C.H.V. Formula; C.R.D.-force; Cavan Heme OB; Chewable Vitamin E 200 I.U.; Chewable Vitamin E 400 I.U.; Children Choice Multivit Chewable Tab; Children Choice Multivitamin W Iron Chew Tab; Children's Chewable Multivitamins With Minerals; Children's Chewable Multivitamins and Minerals; Children's Chewable Tab; Children's Chewable With Iron; Children's Multivitamins; Children's Multivitamins With Iron; Co-q10 and Vitamin E; Corvita; Corvite; Corvite Free; Dayavite; Defense Caplets; Derma-force; Dialyvite 3000; Dialyvite 5000; Dialyvite Supreme D; Dry Form Vitamin E 400iu With Selenium 100mcg; E Plex 1000 Mega Strength; E Plex 200 Regular Strength; E Plex 400 Extra Strength; E Plex 600 Ultra Strength; E.S.T. Complex; Elite OB Prenatal Multivitamin; Enzogenol; Floriva Plus; Folic Acid Plus; For Men; Formula 14 Dietary Supplement; Formula Fe-vitamin and Mineral Tab; Formula Ma-vitamin E & Zinc Tab; Formula O; Formula O.C.; Gynedyn Tab; HemeNatal OB; HemeNatal OB plus DHA; Henkel's Vitamin E and Selenium Cap; Hyper E Tab; Imm Formula Cap; Itabs Plus; L.I.P. Complex; Leritone Junior; M-Vegmax22; Master Key Multi Vitamin Multi Mineral Formula 2; Maximum Once A Day; Mega Balance; Mega-vim 75 With Beta-carotene - Tablets; Men's; Men's 50+; Men's Multi Master Formula; Multi Vitamin Drops with Fluoride; Multi Vitamin Drops with Fluoride and Iron; Multi-Vitamin Drops with Fluoride and Iron; Multi-Vitamin Fluoride Drops; Multi-Vitamin Fluoride and Iron Drops; Multi-Vitamin with Fluoride; Multi-actin; Multivitamin & Minerals (iron Free); Multivitamin & Multimineral; Multra Plex; Multra With Iron; N.E.U. Complex; Ni-C-E-LE Plus; Nutrilite Double X; OB Complete Prenatal; Oncovite; Poly-Vitamin with Fluoride; PreQue 10; Prefera OB plus DHA; PreferaOB; PreferaOB plus DHA; R.E.S. Complex; Revit Multi-vitamins and Minerals; Revit Plus Cap; Right Choice A.M. Multi Formula - Caplet; Selen-E-400 Tab; Selenium Plus; Selenium With E Tab; Selenium-E-400; Somavit Brand Vitamins and Minerals Complex; Strovite One Caplets; Super Multi; Super-cell; Swiss Total One; Tricare Prenatal 2-part Daily Prenatal Vitamin System; Tricare Prenatal Quick Dissolve; Ultimate OB DHA; V & M Vitamin and Mineral Supplement; Vita Day Tab; Vitamin E + 3 (extra Strength); Vitamin E + 3 Extra Strength With Zinc; Vitamin E 400 Iu; Vitamin E 400 Iu With Selenium, Vitamin C & Manganese; Vitamin E Cap 400iu; Vitamin E Dietary Supplement; Vitamine E 400 Ui and Selenium 50; Vp-heme Ob; Vp-heme Ob DHA; Webber Vitamin E Liq 77unit/ml Water Sol; Webber Vitamin E Succ Cap 400unit(dri Caps); Women's Formula

$$$$
