
  Mrv1652310211600302D          

 16 17  0  0  1  0            999 V2000
    2.0367    1.1759    0.0000 C   0  0  0  0  0  0  0  0  0  0  0  0
    2.0367    2.0009    0.0000 C   0  0  0  0  0  0  0  0  0  0  0  0
    2.7512    2.4134    0.0000 C   0  0  0  0  0  0  0  0  0  0  0  0
    3.4656    2.0009    0.0000 N   0  0  0  0  0  0  0  0  0  0  0  0
    3.4656    1.1759    0.0000 C   0  0  0  0  0  0  0  0  0  0  0  0
    4.1801    0.7634    0.0000 O   0  0  0  0  0  0  0  0  0  0  0  0
    2.7512    0.7634    0.0000 N   0  0  0  0  0  0  0  0  0  0  0  0
    2.7512   -0.0616    0.0000 C   0  0  1  0  0  0  0  0  0  0  0  0
    3.4186   -0.5465    0.0000 C   0  0  0  0  0  0  0  0  0  0  0  0
    3.1637   -1.3312    0.0000 C   0  0  0  0  0  0  0  0  0  0  0  0
    2.3387   -1.3312    0.0000 C   0  0  2  0  0  0  0  0  0  0  0  0
    2.0837   -0.5465    0.0000 O   0  0  0  0  0  0  0  0  0  0  0  0
    1.8538   -1.9986    0.0000 C   0  0  0  0  0  0  0  0  0  0  0  0
    2.1893   -2.7523    0.0000 O   0  0  0  0  0  0  0  0  0  0  0  0
    2.7512    3.2384    0.0000 N   0  0  0  0  0  0  0  0  0  0  0  0
    1.3222    2.4134    0.0000 F   0  0  0  0  0  0  0  0  0  0  0  0
  1  2  2  0  0  0  0
  2  3  1  0  0  0  0
  3  4  2  0  0  0  0
  4  5  1  0  0  0  0
  5  6  2  0  0  0  0
  5  7  1  0  0  0  0
  1  7  1  0  0  0  0
  8  7  1  1  0  0  0
  8  9  1  0  0  0  0
  9 10  2  0  0  0  0
 10 11  1  0  0  0  0
 11 12  1  0  0  0  0
  8 12  1  0  0  0  0
 11 13  1  1  0  0  0
 13 14  1  0  0  0  0
  3 15  1  0  0  0  0
  2 16  1  0  0  0  0
M  END
> <DATABASE_ID>
DB12470

> <DATABASE_NAME>
drugbank

> <SMILES>
NC1=NC(=O)N(C=C1F)[C@@H]1O[C@H](CO)C=C1

> <INCHI_IDENTIFIER>
InChI=1S/C9H10FN3O3/c10-6-3-13(9(15)12-8(6)11)7-2-1-5(4-14)16-7/h1-3,5,7,14H,4H2,(H2,11,12,15)/t5-,7+/m0/s1

> <INCHI_KEY>
HSBKFSPNDWWPSL-CAHLUQPWSA-N

> <FORMULA>
C9H10FN3O3

> <MOLECULAR_WEIGHT>
227.195

> <EXACT_MASS>
227.070619357

> <JCHEM_ACCEPTOR_COUNT>
5

> <JCHEM_ATOM_COUNT>
26

> <JCHEM_AVERAGE_POLARIZABILITY>
20.02642558764938

> <JCHEM_BIOAVAILABILITY>
1

> <JCHEM_DONOR_COUNT>
2

> <JCHEM_FORMAL_CHARGE>
0

> <JCHEM_GHOSE_FILTER>
0

> <JCHEM_IUPAC>
4-amino-5-fluoro-1-[(2R,5S)-5-(hydroxymethyl)-2,5-dihydrofuran-2-yl]-1,2-dihydropyrimidin-2-one

> <ALOGPS_LOGP>
-0.89

> <JCHEM_LOGP>
-0.810188817

> <ALOGPS_LOGS>
-2.34

> <JCHEM_MDDR_LIKE_RULE>
0

> <JCHEM_NUMBER_OF_RINGS>
2

> <JCHEM_PHYSIOLOGICAL_CHARGE>
0

> <JCHEM_PKA>
18.681463595946166

> <JCHEM_PKA_STRONGEST_ACIDIC>
14.63081945273074

> <JCHEM_PKA_STRONGEST_BASIC>
-2.960262663964256

> <JCHEM_POLAR_SURFACE_AREA>
88.15

> <JCHEM_REFRACTIVITY>
53.1413

> <JCHEM_ROTATABLE_BOND_COUNT>
2

> <JCHEM_RULE_OF_FIVE>
1

> <ALOGPS_SOLUBILITY>
1.04e+00 g/l

> <JCHEM_TRADITIONAL_IUPAC>
dexelvucitabine

> <JCHEM_VEBER_RULE>
0

> <DRUGBANK_ID>
DB12470

> <DRUG_GROUPS>
investigational

> <GENERIC_NAME>
Dexelvucitabine

> <SYNONYMS>
Dexelvucitabine

$$$$
