
  Mrv1652310211605022D          

 38 39  0  0  0  0            999 V2000
    7.8592  -15.2625    0.0000 C   0  0  0  0  0  0  0  0  0  0  0  0
    8.5737  -14.8500    0.0000 C   0  0  0  0  0  0  0  0  0  0  0  0
    9.2881  -15.2625    0.0000 C   0  0  0  0  0  0  0  0  0  0  0  0
   10.0026  -14.8500    0.0000 C   0  0  0  0  0  0  0  0  0  0  0  0
   10.7171  -15.2625    0.0000 C   0  0  0  0  0  0  0  0  0  0  0  0
   11.4315  -14.8500    0.0000 C   0  0  0  0  0  0  0  0  0  0  0  0
   12.1460  -15.2625    0.0000 C   0  0  0  0  0  0  0  0  0  0  0  0
   12.8605  -14.8500    0.0000 C   0  0  0  0  0  0  0  0  0  0  0  0
   13.5749  -15.2625    0.0000 C   0  0  0  0  0  0  0  0  0  0  0  0
   14.2894  -14.8500    0.0000 C   0  0  0  0  0  0  0  0  0  0  0  0
   15.0039  -15.2625    0.0000 C   0  0  0  0  0  0  0  0  0  0  0  0
   15.7184  -14.8500    0.0000 C   0  0  0  0  0  0  0  0  0  0  0  0
   16.4328  -15.2625    0.0000 N   0  0  0  0  0  0  0  0  0  0  0  0
   17.1473  -14.8500    0.0000 C   0  0  0  0  0  0  0  0  0  0  0  0
   17.8618  -15.2625    0.0000 C   0  0  0  0  0  0  0  0  0  0  0  0
   18.5762  -14.8500    0.0000 C   0  0  0  0  0  0  0  0  0  0  0  0
   19.2907  -15.2625    0.0000 C   0  0  0  0  0  0  0  0  0  0  0  0
   20.0052  -14.8500    0.0000 C   0  0  0  0  0  0  0  0  0  0  0  0
   20.7197  -15.2625    0.0000 C   0  0  0  0  0  0  0  0  0  0  0  0
   21.4341  -14.8500    0.0000 C   0  0  0  0  0  0  0  0  0  0  0  0
   22.1486  -15.2625    0.0000 C   0  0  0  0  0  0  0  0  0  0  0  0
   22.8631  -14.8500    0.0000 C   0  0  0  0  0  0  0  0  0  0  0  0
   23.5775  -15.2625    0.0000 C   0  0  0  0  0  0  0  0  0  0  0  0
   24.2920  -14.8500    0.0000 C   0  0  0  0  0  0  0  0  0  0  0  0
   25.0065  -15.2625    0.0000 N   0  0  0  0  0  0  0  0  0  0  0  0
   25.7210  -14.8500    0.0000 C   0  0  0  0  0  0  0  0  0  0  0  0
   25.7210  -14.0250    0.0000 O   0  0  0  0  0  0  0  0  0  0  0  0
   26.4354  -15.2625    0.0000 C   0  0  0  0  0  0  0  0  0  0  0  0
   26.4354  -16.0875    0.0000 C   0  0  0  0  0  0  0  0  0  0  0  0
   27.2200  -16.3424    0.0000 N   0  0  0  0  0  0  0  0  0  0  0  0
   27.7050  -15.6750    0.0000 C   0  0  0  0  0  0  0  0  0  0  0  0
   27.2200  -15.0076    0.0000 N   0  0  0  0  0  0  0  0  0  0  0  0
   27.4750  -14.2229    0.0000 C   0  0  0  0  0  0  0  0  0  0  0  0
   25.7210  -16.5000    0.0000 N   0  0  0  0  0  0  0  0  0  0  0  0
   25.0065  -16.0875    0.0000 C   0  0  0  0  0  0  0  0  0  0  0  0
   24.2920  -16.5000    0.0000 O   0  0  0  0  0  0  0  0  0  0  0  0
   25.7210  -17.3250    0.0000 C   0  0  0  0  0  0  0  0  0  0  0  0
   17.8618  -16.0875    0.0000 O   0  0  0  0  0  0  0  0  0  0  0  0
  1  2  1  0  0  0  0
  2  3  1  0  0  0  0
  3  4  1  0  0  0  0
  4  5  1  0  0  0  0
  5  6  1  0  0  0  0
  6  7  1  0  0  0  0
  7  8  1  0  0  0  0
  8  9  1  0  0  0  0
  9 10  1  0  0  0  0
 10 11  1  0  0  0  0
 11 12  1  0  0  0  0
 12 13  1  0  0  0  0
 13 14  1  0  0  0  0
 14 15  1  0  0  0  0
 15 16  1  0  0  0  0
 16 17  1  0  0  0  0
 17 18  1  0  0  0  0
 18 19  1  0  0  0  0
 19 20  1  0  0  0  0
 20 21  1  0  0  0  0
 21 22  1  0  0  0  0
 22 23  1  0  0  0  0
 23 24  1  0  0  0  0
 24 25  1  0  0  0  0
 25 26  1  0  0  0  0
 26 27  2  0  0  0  0
 26 28  1  0  0  0  0
 28 29  2  0  0  0  0
 29 30  1  0  0  0  0
 30 31  2  0  0  0  0
 31 32  1  0  0  0  0
 28 32  1  0  0  0  0
 32 33  1  0  0  0  0
 29 34  1  0  0  0  0
 34 35  1  0  0  0  0
 25 35  1  0  0  0  0
 35 36  2  0  0  0  0
 34 37  1  0  0  0  0
 15 38  1  0  0  0  0
M  END
> <DATABASE_ID>
DB13098

> <DATABASE_NAME>
drugbank

> <SMILES>
CCCCCCCCCCCCNCC(O)CCCCCCCCCN1C(=O)N(C)C2=C(N(C)C=N2)C1=O

> <INCHI_IDENTIFIER>
InChI=1S/C30H55N5O3/c1-4-5-6-7-8-9-10-13-16-19-22-31-24-26(36)21-18-15-12-11-14-17-20-23-35-29(37)27-28(32-25-33(27)2)34(3)30(35)38/h25-26,31,36H,4-24H2,1-3H3

> <INCHI_KEY>
MZNMZWZGUGFQJP-UHFFFAOYSA-N

> <FORMULA>
C30H55N5O3

> <MOLECULAR_WEIGHT>
533.802

> <EXACT_MASS>
533.430490651

> <JCHEM_ACCEPTOR_COUNT>
5

> <JCHEM_ATOM_COUNT>
93

> <JCHEM_AVERAGE_POLARIZABILITY>
68.13018068630004

> <JCHEM_BIOAVAILABILITY>
0

> <JCHEM_DONOR_COUNT>
2

> <JCHEM_FORMAL_CHARGE>
0

> <JCHEM_GHOSE_FILTER>
0

> <JCHEM_IUPAC>
1-[11-(dodecylamino)-10-hydroxyundecyl]-3,7-dimethyl-2,3,6,7-tetrahydro-1H-purine-2,6-dione

> <ALOGPS_LOGP>
5.92

> <JCHEM_LOGP>
6.584798786000004

> <ALOGPS_LOGS>
-6.07

> <JCHEM_MDDR_LIKE_RULE>
0

> <JCHEM_NUMBER_OF_RINGS>
2

> <JCHEM_PHYSIOLOGICAL_CHARGE>
1

> <JCHEM_PKA_STRONGEST_ACIDIC>
14.897942761973042

> <JCHEM_PKA_STRONGEST_BASIC>
10.165262401305146

> <JCHEM_POLAR_SURFACE_AREA>
90.7

> <JCHEM_REFRACTIVITY>
156.3157

> <JCHEM_ROTATABLE_BOND_COUNT>
23

> <JCHEM_RULE_OF_FIVE>
0

> <ALOGPS_SOLUBILITY>
4.53e-04 g/l

> <JCHEM_TRADITIONAL_IUPAC>
1-[11-(dodecylamino)-10-hydroxyundecyl]-3,7-dimethylpurine-2,6-dione

> <JCHEM_VEBER_RULE>
0

> <DRUGBANK_ID>
DB13098

> <DRUG_GROUPS>
investigational

> <GENERIC_NAME>
CT-2584

> <SALTS>
CT-2584 mesylate

$$$$
