
  Mrv1909 05201914502D          

 35 39  0  0  0  0            999 V2000
    3.0335   -2.3048    0.0000 C   0  0  0  0  0  0  0  0  0  0  0  0
    2.2089   -2.2790    0.0000 C   0  0  0  0  0  0  0  0  0  0  0  0
    1.8189   -1.5520    0.0000 N   0  0  0  0  0  0  0  0  0  0  0  0
    0.9943   -1.5262    0.0000 C   0  0  0  0  0  0  0  0  0  0  0  0
    0.5597   -2.2275    0.0000 O   0  0  0  0  0  0  0  0  0  0  0  0
    0.6043   -0.7992    0.0000 N   0  0  0  0  0  0  0  0  0  0  0  0
    1.0390   -0.0980    0.0000 C   0  0  0  0  0  0  0  0  0  0  0  0
    1.8636   -0.1238    0.0000 C   0  0  0  0  0  0  0  0  0  0  0  0
    2.2982    0.5775    0.0000 C   0  0  0  0  0  0  0  0  0  0  0  0
    3.1228    0.5517    0.0000 N   0  0  0  0  0  0  0  0  0  0  0  0
    3.5127   -0.1753    0.0000 C   0  0  0  0  0  0  0  0  0  0  0  0
    4.3140   -0.3719    0.0000 N   0  0  0  0  0  0  0  0  0  0  0  0
    4.3745   -1.1947    0.0000 C   0  0  0  0  0  0  0  0  0  0  0  0
    5.0758   -1.6293    0.0000 C   0  0  0  0  0  0  0  0  0  0  0  0
    5.8028   -1.2393    0.0000 N   0  0  0  0  0  0  0  0  0  0  0  0
    5.8285   -0.4147    0.0000 C   0  0  0  0  0  0  0  0  0  0  0  0
    6.5556   -0.0247    0.0000 C   0  0  0  0  0  0  0  0  0  0  0  0
    7.2568   -0.4593    0.0000 O   0  0  0  0  0  0  0  0  0  0  0  0
    7.2310   -1.2839    0.0000 C   0  0  0  0  0  0  0  0  0  0  0  0
    6.5040   -1.6739    0.0000 C   0  0  0  0  0  0  0  0  0  0  0  0
    3.6108   -1.5066    0.0000 C   0  0  0  0  0  0  0  0  0  0  0  0
    3.0781   -0.8765    0.0000 C   0  0  0  0  0  0  0  0  0  0  0  0
    2.2535   -0.8508    0.0000 C   0  0  0  0  0  0  0  0  0  0  0  0
   -0.2203   -0.7735    0.0000 C   0  0  0  0  0  0  0  0  0  0  0  0
   -0.6549   -1.4747    0.0000 C   0  0  0  0  0  0  0  0  0  0  0  0
   -0.2649   -2.2017    0.0000 F   0  0  0  0  0  0  0  0  0  0  0  0
   -1.4795   -1.4490    0.0000 C   0  0  0  0  0  0  0  0  0  0  0  0
   -1.9141   -2.1502    0.0000 O   0  0  0  0  0  0  0  0  0  0  0  0
   -1.5241   -2.8772    0.0000 C   0  0  0  0  0  0  0  0  0  0  0  0
   -1.8694   -0.7219    0.0000 C   0  0  0  0  0  0  0  0  0  0  0  0
   -1.4348   -0.0207    0.0000 C   0  0  0  0  0  0  0  0  0  0  0  0
   -1.8248    0.7063    0.0000 O   0  0  0  0  0  0  0  0  0  0  0  0
   -1.3902    1.4075    0.0000 C   0  0  0  0  0  0  0  0  0  0  0  0
   -0.6102   -0.0465    0.0000 C   0  0  0  0  0  0  0  0  0  0  0  0
   -0.1756    0.6548    0.0000 F   0  0  0  0  0  0  0  0  0  0  0  0
  1  2  1  0  0  0  0
  2  3  1  0  0  0  0
  3  4  1  0  0  0  0
  4  5  2  0  0  0  0
  4  6  1  0  0  0  0
  6  7  1  0  0  0  0
  7  8  1  0  0  0  0
  8  9  2  0  0  0  0
  9 10  1  0  0  0  0
 10 11  2  0  0  0  0
 11 12  1  0  0  0  0
 12 13  1  0  0  0  0
 13 14  1  0  0  0  0
 14 15  1  0  0  0  0
 15 16  1  0  0  0  0
 16 17  1  0  0  0  0
 17 18  1  0  0  0  0
 18 19  1  0  0  0  0
 19 20  1  0  0  0  0
 15 20  1  0  0  0  0
 13 21  2  0  0  0  0
 21 22  1  0  0  0  0
 11 22  1  0  0  0  0
 22 23  2  0  0  0  0
  3 23  1  0  0  0  0
  8 23  1  0  0  0  0
  6 24  1  0  0  0  0
 24 25  2  0  0  0  0
 25 26  1  0  0  0  0
 25 27  1  0  0  0  0
 27 28  1  0  0  0  0
 28 29  1  0  0  0  0
 27 30  2  0  0  0  0
 30 31  1  0  0  0  0
 31 32  1  0  0  0  0
 32 33  1  0  0  0  0
 31 34  2  0  0  0  0
 24 34  1  0  0  0  0
 34 35  1  0  0  0  0
M  END
> <DATABASE_ID>
DB15102

> <DATABASE_NAME>
drugbank

> <SMILES>
CCN1C(=O)N(CC2=CN=C3NC(CN4CCOCC4)=CC3=C12)C1=C(F)C(OC)=CC(OC)=C1F

> <INCHI_IDENTIFIER>
InChI=1S/C24H27F2N5O4/c1-4-30-21-14(11-27-23-16(21)9-15(28-23)13-29-5-7-35-8-6-29)12-31(24(30)32)22-19(25)17(33-2)10-18(34-3)20(22)26/h9-11H,4-8,12-13H2,1-3H3,(H,27,28)

> <INCHI_KEY>
HCDMJFOHIXMBOV-UHFFFAOYSA-N

> <FORMULA>
C24H27F2N5O4

> <MOLECULAR_WEIGHT>
487.508

> <EXACT_MASS>
487.203110695

> <JCHEM_ACCEPTOR_COUNT>
6

> <JCHEM_ATOM_COUNT>
62

> <JCHEM_AVERAGE_POLARIZABILITY>
49.92842250354251

> <JCHEM_BIOAVAILABILITY>
1

> <JCHEM_DONOR_COUNT>
1

> <JCHEM_FORMAL_CHARGE>
0

> <JCHEM_GHOSE_FILTER>
0

> <JCHEM_IUPAC>
11-(2,6-difluoro-3,5-dimethoxyphenyl)-13-ethyl-4-[(morpholin-4-yl)methyl]-5,7,11,13-tetraazatricyclo[7.4.0.0^{2,6}]trideca-1,3,6,8-tetraen-12-one

> <ALOGPS_LOGP>
2.26

> <JCHEM_LOGP>
1.8163329556666656

> <ALOGPS_LOGS>
-3.53

> <JCHEM_MDDR_LIKE_RULE>
1

> <JCHEM_NUMBER_OF_RINGS>
5

> <JCHEM_PHYSIOLOGICAL_CHARGE>
0

> <JCHEM_PKA_STRONGEST_ACIDIC>
13.880927424636518

> <JCHEM_PKA_STRONGEST_BASIC>
5.904092980269275

> <JCHEM_POLAR_SURFACE_AREA>
83.16000000000001

> <JCHEM_REFRACTIVITY>
125.3239

> <JCHEM_ROTATABLE_BOND_COUNT>
6

> <JCHEM_RULE_OF_FIVE>
1

> <ALOGPS_SOLUBILITY>
1.44e-01 g/l

> <JCHEM_TRADITIONAL_IUPAC>
(2R)-14-fluoro-2-methyl-6,9,10,19-tetraazapentacyclo[14.2.1.0^{2,6}.0^{8,18}.0^{12,17}]nonadeca-1(18),8,12(17),13,15-pentaen-11-one

> <JCHEM_VEBER_RULE>
0

> <DRUGBANK_ID>
DB15102

> <DRUG_GROUPS>
approved; investigational

> <GENERIC_NAME>
Pemigatinib

> <SYNONYMS>
INCB054828; Pemigatinib

> <PRODUCTS>
Pemazyre

$$$$
