
  Mrv1572004121614522D          

 59 63  0  0  0  0            999 V2000
   -0.1733    0.3672    0.0000 C   0  0  2  0  0  0  0  0  0  0  0  0
    0.2372    1.0790    0.0000 C   0  0  2  0  0  0  0  0  0  0  0  0
   -1.0722    1.3528    0.0000 C   0  0  0  0  0  0  0  0  0  0  0  0
   -0.9764    0.5406    0.0000 O   0  0  0  0  0  0  0  0  0  0  0  0
   -0.3194    1.6903    0.0000 N   0  0  0  0  0  0  0  0  0  0  0  0
    4.0880   -0.4448    0.0000 C   0  0  2  0  0  0  0  0  0  0  0  0
    0.8439    1.2934    0.0000 C   0  0  2  0  0  0  0  0  0  0  0  0
    0.5292   -1.6995    0.0000 C   0  0  0  0  0  0  0  0  0  0  0  0
    1.9528   -1.6904    0.0000 C   0  0  0  0  0  0  0  0  0  0  0  0
    1.2409   -2.1147    0.0000 C   0  0  1  0  0  0  0  0  0  0  0  0
    4.7998   -0.8509    0.0000 C   0  0  1  0  0  0  0  0  0  0  0  0
    2.6645   -0.4540    0.0000 C   0  0  1  0  0  0  0  0  0  0  0  0
    1.9528   -0.8691    0.0000 C   0  0  1  0  0  0  0  0  0  0  0  0
   -3.9877    1.4486    0.0000 N   0  0  0  0  0  0  0  0  0  0  0  0
    1.2638    2.0052    0.0000 C   0  0  0  0  0  0  0  0  0  0  0  0
    0.5292   -0.8691    0.0000 O   0  0  0  0  0  0  0  0  0  0  0  0
   -4.4713    2.1284    0.0000 C   0  0  0  0  0  0  0  0  0  0  0  0
    3.3854   -0.8555    0.0000 O   0  0  0  0  0  0  0  0  0  0  0  0
    5.5115   -0.4312    0.0000 C   0  0  2  0  0  0  0  0  0  0  0  0
    2.6599    0.3763    0.0000 C   0  0  1  0  0  0  0  0  0  0  0  0
   -0.1825   -0.4586    0.0000 C   0  0  2  0  0  0  0  0  0  0  0  0
    4.0743    0.3763    0.0000 O   0  0  0  0  0  0  0  0  0  0  0  0
   -3.9877    2.7900    0.0000 C   0  0  0  0  0  0  0  0  0  0  0  0
   -3.1938    2.5299    0.0000 N   0  0  0  0  0  0  0  0  0  0  0  0
   -3.1938    1.7040    0.0000 C   0  0  0  0  0  0  0  0  0  0  0  0
    1.9390    1.6083    0.0000 C   0  0  1  0  0  0  0  0  0  0  0  0
    1.9390    0.7869    0.0000 C   0  0  0  0  0  0  0  0  0  0  0  0
    5.5069    0.3900    0.0000 C   0  0  0  0  0  0  0  0  0  0  0  0
   -5.3018    2.1284    0.0000 C   0  0  0  0  0  0  0  0  0  0  0  0
   -1.7884    1.7589    0.0000 O   0  0  0  0  0  0  0  0  0  0  0  0
    6.2233   -0.8417    0.0000 N   0  0  0  0  0  0  0  0  0  0  0  0
   -0.1871   -2.1102    0.0000 O   0  0  0  0  0  0  0  0  0  0  0  0
    2.6737   -2.1011    0.0000 O   0  0  0  0  0  0  0  0  0  0  0  0
    4.7860    0.7915    0.0000 C   0  0  1  0  0  0  0  0  0  0  0  0
    1.2683    2.8311    0.0000 O   0  0  0  0  0  0  0  0  0  0  0  0
   -6.5336    1.4166    0.0000 N   0  0  0  0  0  0  0  0  0  0  0  0
    4.8089   -1.6767    0.0000 O   0  0  0  0  0  0  0  0  0  0  0  0
   -0.7618   -0.2122    0.0000 C   0  0  0  0  0  0  0  0  0  0  0  0
    3.0706    1.0880    0.0000 O   0  0  0  0  0  0  0  0  0  0  0  0
   -0.3238    2.5163    0.0000 C   0  0  0  0  0  0  0  0  0  0  0  0
    1.2546    0.5817    0.0000 C   0  0  0  0  0  0  0  0  0  0  0  0
    1.2409   -2.9360    0.0000 C   0  0  0  0  0  0  0  0  0  0  0  0
    1.2364   -0.4586    0.0000 C   0  0  0  0  0  0  0  0  0  0  0  0
   -5.7124    1.4166    0.0000 C   0  0  0  0  0  0  0  0  0  0  0  0
    3.4857    0.3763    0.0000 C   0  0  0  0  0  0  0  0  0  0  0  0
   -2.4729    2.9360    0.0000 C   0  0  0  0  0  0  0  0  0  0  0  0
   -0.8942   -0.8691    0.0000 C   0  0  0  0  0  0  0  0  0  0  0  0
    2.6508    2.0234    0.0000 C   0  0  0  0  0  0  0  0  0  0  0  0
   -5.7032    2.8401    0.0000 C   0  0  0  0  0  0  0  0  0  0  0  0
   -6.9443    2.1330    0.0000 C   0  0  0  0  0  0  0  0  0  0  0  0
    6.2324   -1.6721    0.0000 C   0  0  0  0  0  0  0  0  0  0  0  0
    6.9443   -0.4265    0.0000 C   0  0  0  0  0  0  0  0  0  0  0  0
    4.7860    1.6219    0.0000 C   0  0  0  0  0  0  0  0  0  0  0  0
    3.8964    1.0880    0.0000 C   0  0  0  0  0  0  0  0  0  0  0  0
   -1.0449    2.9269    0.0000 C   0  0  0  0  0  0  0  0  0  0  0  0
   -1.7567    2.5253    0.0000 C   0  0  0  0  0  0  0  0  0  0  0  0
   -6.5245    2.8447    0.0000 C   0  0  0  0  0  0  0  0  0  0  0  0
   -1.6106   -0.4586    0.0000 C   0  0  0  0  0  0  0  0  0  0  0  0
    0.4470    1.8821    0.0000 H   0  0  0  0  0  0  0  0  0  0  0  0
  2  1  1  0  0  0  0
  3  4  1  0  0  0  0
  4  1  1  0  0  0  0
  5  2  1  0  0  0  0
  6 18  1  6  0  0  0
  7  2  1  0  0  0  0
  8 16  1  0  0  0  0
  9 10  1  0  0  0  0
 10  8  1  0  0  0  0
 11  6  1  0  0  0  0
 12 13  1  0  0  0  0
 13  9  1  0  0  0  0
 14 25  2  0  0  0  0
 15  7  1  0  0  0  0
 16 21  1  0  0  0  0
 17 23  2  0  0  0  0
 12 18  1  6  0  0  0
 19 11  1  0  0  0  0
 20 27  1  0  0  0  0
 21  1  1  0  0  0  0
 22  6  1  0  0  0  0
 23 24  1  0  0  0  0
 24 46  1  0  0  0  0
 25 24  1  0  0  0  0
 26 15  1  0  0  0  0
 27 26  1  0  0  0  0
 28 34  1  0  0  0  0
 29 17  1  0  0  0  0
 30  3  2  0  0  0  0
 19 31  1  6  0  0  0
 32  8  2  0  0  0  0
 33  9  2  0  0  0  0
 34 22  1  0  0  0  0
 35 15  2  0  0  0  0
 36 44  2  0  0  0  0
 11 37  1  1  0  0  0
  1 38  1  6  0  0  0
 20 39  1  1  0  0  0
 40  5  1  0  0  0  0
  7 41  1  6  0  0  0
 10 42  1  1  0  0  0
 13 43  1  6  0  0  0
 44 29  1  0  0  0  0
 45 20  1  0  0  0  0
 46 56  1  0  0  0  0
 21 47  1  6  0  0  0
 26 48  1  6  0  0  0
 49 29  2  0  0  0  0
 50 57  2  0  0  0  0
 51 31  1  0  0  0  0
 52 31  1  0  0  0  0
 34 53  1  6  0  0  0
 54 39  1  0  0  0  0
 55 40  1  0  0  0  0
 56 55  1  0  0  0  0
 57 49  1  0  0  0  0
 58 47  1  0  0  0  0
  2 59  1  1  0  0  0
  5  3  1  0  0  0  0
 12 20  1  0  0  0  0
 17 14  1  0  0  0  0
 19 28  1  0  0  0  0
 36 50  1  0  0  0  0
M  END
> <DATABASE_ID>
DB00976

> <DATABASE_NAME>
drugbank

> <SMILES>
[H][C@@]12[C@@H](C)C(=O)[C@H](C)C[C@@](C)(OC)[C@H](O[C@@H]3O[C@H](C)C[C@@H]([C@H]3O)N(C)C)[C@@H](C)C(=O)[C@@H](C)C(=O)O[C@H](CC)[C@@]1(C)OC(=O)N2CCCCN1C=NC(=C1)C1=CC=CN=C1

> <INCHI_IDENTIFIER>
InChI=1S/C43H65N5O10/c1-12-33-43(8)37(48(41(53)58-43)19-14-13-18-47-23-31(45-24-47)30-16-15-17-44-22-30)27(4)34(49)25(2)21-42(7,54-11)38(28(5)35(50)29(6)39(52)56-33)57-40-36(51)32(46(9)10)20-26(3)55-40/h15-17,22-29,32-33,36-38,40,51H,12-14,18-21H2,1-11H3/t25-,26-,27+,28+,29-,32+,33-,36-,37-,38-,40+,42-,43-/m1/s1

> <INCHI_KEY>
LJVAJPDWBABPEJ-PNUFFHFMSA-N

> <FORMULA>
C43H65N5O10

> <MOLECULAR_WEIGHT>
812.018

> <EXACT_MASS>
811.473143313

> <JCHEM_ACCEPTOR_COUNT>
11

> <JCHEM_ATOM_COUNT>
123

> <JCHEM_AVERAGE_POLARIZABILITY>
90.4384966301889

> <JCHEM_BIOAVAILABILITY>
0

> <JCHEM_DONOR_COUNT>
1

> <JCHEM_FORMAL_CHARGE>
0

> <JCHEM_GHOSE_FILTER>
0

> <JCHEM_IUPAC>
(3aS,4R,7R,9R,10R,11R,13R,15R,15aR)-10-{[(2S,3R,4S,6R)-4-(dimethylamino)-3-hydroxy-6-methyloxan-2-yl]oxy}-4-ethyl-11-methoxy-3a,7,9,11,13,15-hexamethyl-1-{4-[4-(pyridin-3-yl)-1H-imidazol-1-yl]butyl}-tetradecahydro-1H-oxacyclotetradeca[4,3-d][1,3]oxazole-2,6,8,14-tetrone

> <ALOGPS_LOGP>
4.21

> <JCHEM_LOGP>
5.134463869317644

> <ALOGPS_LOGS>
-4.46

> <JCHEM_MDDR_LIKE_RULE>
1

> <JCHEM_NUMBER_OF_RINGS>
5

> <JCHEM_PHYSIOLOGICAL_CHARGE>
1

> <JCHEM_PKA>
12.8316960906138

> <JCHEM_PKA_STRONGEST_ACIDIC>
8.838963958185415

> <JCHEM_PKA_STRONGEST_BASIC>
7.654524260411075

> <JCHEM_POLAR_SURFACE_AREA>
171.84999999999997

> <JCHEM_REFRACTIVITY>
214.68349999999995

> <JCHEM_ROTATABLE_BOND_COUNT>
11

> <JCHEM_RULE_OF_FIVE>
0

> <ALOGPS_SOLUBILITY>
2.83e-02 g/l

> <JCHEM_TRADITIONAL_IUPAC>
telithromycin

> <JCHEM_VEBER_RULE>
0

> <DRUGBANK_ID>
DB00976

> <SECONDARY_ACCESSION_NUMBERS>
APRD00483

> <DRUG_GROUPS>
approved

> <GENERIC_NAME>
Telithromycin

> <SYNONYMS>
Telithromycin; telitromicina

> <PRODUCTS>
Ketek

$$$$
