
  Mrv1652306131722022D          

  7  4  0  0  0  0            999 V2000
    2.4750   -0.0000    0.0000 O   0  5  0  0  0  0  0  0  0  0  0  0
    1.6500   -0.0000    0.0000 Cr  0  0  0  0  0  0  0  0  0  0  0  0
    1.6500    0.8250    0.0000 O   0  0  0  0  0  0  0  0  0  0  0  0
    1.6500   -0.8250    0.0000 O   0  0  0  0  0  0  0  0  0  0  0  0
    0.8250    0.0000    0.0000 O   0  5  0  0  0  0  0  0  0  0  0  0
    3.3000   -0.0000    0.0000 Na  0  3  0  0  0  0  0  0  0  0  0  0
    0.0000    0.0000    0.0000 Na  0  3  0  0  0  0  0  0  0  0  0  0
  1  2  1  0  0  0  0
  2  3  2  0  0  0  0
  2  4  2  0  0  0  0
  2  5  1  0  0  0  0
M  CHG  4   1  -1   5  -1   6   1   7   1
M  ISO  1   2  51
M  END
> <DATABASE_ID>
DB09380

> <DATABASE_NAME>
drugbank

> <SMILES>
[Na+].[Na+].[O-][51Cr]([O-])(=O)=O

> <INCHI_IDENTIFIER>
InChI=1S/Cr.2Na.4O/q;2*+1;;;2*-1/i1-1;;;;;;

> <INCHI_KEY>
PXLIDIMHPNPGMH-PJWPDVOUSA-N

> <FORMULA>
CrNa2O4

> <MOLECULAR_WEIGHT>
160.92

> <EXACT_MASS>
160.90396881

> <JCHEM_ACCEPTOR_COUNT>
4

> <JCHEM_ATOM_COUNT>
7

> <JCHEM_AVERAGE_POLARIZABILITY>
6.036749268784087

> <JCHEM_BIOAVAILABILITY>
1

> <JCHEM_DONOR_COUNT>
0

> <JCHEM_FORMAL_CHARGE>
0

> <JCHEM_GHOSE_FILTER>
0

> <JCHEM_IUPAC>
disodium dioxo(51Cr)chromiumbis(olate)

> <ALOGPS_LOGP>
-0.70

> <JCHEM_LOGP>
-2.5252

> <ALOGPS_LOGS>
0.21

> <JCHEM_MDDR_LIKE_RULE>
0

> <JCHEM_NUMBER_OF_RINGS>
0

> <JCHEM_PHYSIOLOGICAL_CHARGE>
-2

> <JCHEM_PKA>
3.301029995663981

> <JCHEM_PKA_STRONGEST_ACIDIC>
-2.3010299956639804

> <JCHEM_POLAR_SURFACE_AREA>
80.25999999999999

> <JCHEM_REFRACTIVITY>
5.7716

> <JCHEM_ROTATABLE_BOND_COUNT>
0

> <JCHEM_RULE_OF_FIVE>
1

> <ALOGPS_SOLUBILITY>
2.62e+02 g/l

> <JCHEM_TRADITIONAL_IUPAC>
disodium dioxo(51Cr)chromiumbis(olate)

> <JCHEM_VEBER_RULE>
0

> <DRUGBANK_ID>
DB09380

> <DRUG_GROUPS>
approved

> <GENERIC_NAME>
Sodium chromate Cr-51

> <SYNONYMS>
Chromate (51 Cr) de sodium; Cromato sodico (51 Cr); Natrii chromas (51 Cr); Sodium chromate (51 Cr); Sodium chromate (51Cr); Sodium chromate Cr 51

> <PRODUCTS>
Chromitope Sodium

$$$$
