
  Mrv1909 04202015372D          

 36 38  0  0  0  0            999 V2000
    0.0000    1.8281    0.0000 P   0  0  0  0  0  0  0  0  0  0  0  0
    0.0000    1.0031    0.0000 C   0  0  0  0  0  0  0  0  0  0  0  0
   -0.7144    0.5906    0.0000 O   0  0  0  0  0  0  0  0  0  0  0  0
   -0.7144   -0.2343    0.0000 C   0  0  0  0  0  0  0  0  0  0  0  0
   -1.4289   -0.6468    0.0000 C   0  0  0  0  0  0  0  0  0  0  0  0
   -0.7144   -1.0593    0.0000 C   0  0  0  0  0  0  0  0  0  0  0  0
    0.0000    0.1781    0.0000 C   0  0  0  0  0  0  0  0  0  0  0  0
    2.0201   -0.5119    0.0000 N   0  0  0  0  0  0  0  0  0  0  0  0
    1.4681    0.1011    0.0000 C   0  0  0  0  0  0  0  0  0  0  0  0
    0.7144   -0.2343    0.0000 N   0  0  0  0  0  0  0  0  0  0  0  0
    0.8006   -1.0548    0.0000 C   0  0  0  0  0  0  0  0  0  0  0  0
    0.2486   -1.6679    0.0000 N   0  0  0  0  0  0  0  0  0  0  0  0
    0.5035   -2.4525    0.0000 C   0  0  0  0  0  0  0  0  0  0  0  0
    1.3105   -2.6240    0.0000 N   0  0  0  0  0  0  0  0  0  0  0  0
    1.8625   -2.0110    0.0000 C   0  0  0  0  0  0  0  0  0  0  0  0
    1.6076   -1.2263    0.0000 C   0  0  0  0  0  0  0  0  0  0  0  0
   -0.0484   -3.0656    0.0000 N   0  0  0  0  0  0  0  0  0  0  0  0
   -1.4289    1.8281    0.0000 C   0  0  0  0  0  0  0  0  0  0  0  0
   -0.7144    2.2406    0.0000 O   0  0  0  0  0  0  0  0  0  0  0  0
    1.4289    1.8281    0.0000 C   0  0  0  0  0  0  0  0  0  0  0  0
    0.7144    2.2406    0.0000 O   0  0  0  0  0  0  0  0  0  0  0  0
   -2.8579    1.8281    0.0000 C   0  0  0  0  0  0  0  0  0  0  0  0
   -3.5723    2.2406    0.0000 C   0  0  0  0  0  0  0  0  0  0  0  0
   -3.5723    3.0656    0.0000 C   0  0  0  0  0  0  0  0  0  0  0  0
   -2.8579    1.0031    0.0000 O   0  0  0  0  0  0  0  0  0  0  0  0
   -2.1434    2.2406    0.0000 O   0  0  0  0  0  0  0  0  0  0  0  0
   -4.2868    2.6531    0.0000 C   0  0  0  0  0  0  0  0  0  0  0  0
   -4.2868    1.8281    0.0000 C   0  0  0  0  0  0  0  0  0  0  0  0
    2.8578    1.8281    0.0000 C   0  0  0  0  0  0  0  0  0  0  0  0
    3.5723    2.2406    0.0000 C   0  0  0  0  0  0  0  0  0  0  0  0
    4.2868    1.8281    0.0000 C   0  0  0  0  0  0  0  0  0  0  0  0
    2.8578    1.0031    0.0000 O   0  0  0  0  0  0  0  0  0  0  0  0
    2.1433    2.2406    0.0000 O   0  0  0  0  0  0  0  0  0  0  0  0
    4.2868    2.6531    0.0000 C   0  0  0  0  0  0  0  0  0  0  0  0
    3.5723    3.0656    0.0000 C   0  0  0  0  0  0  0  0  0  0  0  0
    0.0000    2.6548    0.0000 O   0  0  0  0  0  0  0  0  0  0  0  0
  4  5  1  0  0  0  0
  5  6  1  0  0  0  0
  4  6  1  0  0  0  0
  8  9  2  0  0  0  0
  9 10  1  0  0  0  0
 10 11  1  0  0  0  0
 11 12  2  0  0  0  0
 12 13  1  0  0  0  0
 13 14  2  0  0  0  0
 14 15  1  0  0  0  0
 15 16  2  0  0  0  0
  8 16  1  0  0  0  0
 11 16  1  0  0  0  0
 13 17  1  0  0  0  0
  7 10  1  0  0  0  0
  4  7  1  0  0  0  0
  3  4  1  0  0  0  0
  2  3  1  0  0  0  0
  1  2  1  0  0  0  0
 18 19  1  0  0  0  0
  1 19  1  0  0  0  0
 20 21  1  0  0  0  0
  1 21  1  0  0  0  0
 22 23  1  0  0  0  0
 23 24  1  0  0  0  0
 22 25  2  0  0  0  0
 22 26  1  0  0  0  0
 23 27  1  0  0  0  0
 23 28  1  0  0  0  0
 18 26  1  0  0  0  0
 29 30  1  0  0  0  0
 30 31  1  0  0  0  0
 29 32  2  0  0  0  0
 29 33  1  0  0  0  0
 30 34  1  0  0  0  0
 30 35  1  0  0  0  0
 20 33  1  0  0  0  0
  1 36  2  0  0  0  0
M  END
> <DATABASE_ID>
DB05020

> <DATABASE_NAME>
drugbank

> <SMILES>
CC(C)(C)C(=O)OCOP(=O)(COC1(CN2C=NC3=CN=C(N)N=C23)CC1)OCOC(=O)C(C)(C)C

> <INCHI_IDENTIFIER>
InChI=1S/C22H34N5O8P/c1-20(2,3)17(28)31-12-34-36(30,35-13-32-18(29)21(4,5)6)14-33-22(7-8-22)10-27-11-25-15-9-24-19(23)26-16(15)27/h9,11H,7-8,10,12-14H2,1-6H3,(H2,23,24,26)

> <INCHI_KEY>
JLKJXDOWBVVABZ-UHFFFAOYSA-N

> <FORMULA>
C22H34N5O8P

> <MOLECULAR_WEIGHT>
527.515

> <EXACT_MASS>
527.214500073

> <JCHEM_ACCEPTOR_COUNT>
8

> <JCHEM_ATOM_COUNT>
70

> <JCHEM_AVERAGE_NEUTRAL_MICROSPECIES_CHARGE>
0.0037594025881941932

> <JCHEM_AVERAGE_POLARIZABILITY>
53.298493878874154

> <JCHEM_BIOAVAILABILITY>
0

> <JCHEM_DONOR_COUNT>
1

> <JCHEM_FORMAL_CHARGE>
0

> <JCHEM_GHOSE_FILTER>
0

> <JCHEM_IUPAC>
{[({1-[(2-amino-9H-purin-9-yl)methyl]cyclopropoxy}methyl)({[(2,2-dimethylpropanoyl)oxy]methoxy})phosphoryl]oxy}methyl 2,2-dimethylpropanoate

> <ALOGPS_LOGP>
1.39

> <JCHEM_LOGP>
3.340204853999998

> <ALOGPS_LOGS>
-2.85

> <JCHEM_MDDR_LIKE_RULE>
1

> <JCHEM_NEUTRAL_CHARGE>
0

> <JCHEM_NUMBER_OF_RINGS>
3

> <JCHEM_PHYSIOLOGICAL_CHARGE>
0

> <JCHEM_PKA_STRONGEST_ACIDIC>
16.67093678795387

> <JCHEM_PKA_STRONGEST_BASIC>
3.5777685961257495

> <JCHEM_POLAR_SURFACE_AREA>
166.98

> <JCHEM_REFRACTIVITY>
126.7255

> <JCHEM_ROTATABLE_BOND_COUNT>
15

> <JCHEM_RULE_OF_FIVE>
0

> <ALOGPS_SOLUBILITY>
7.44e-01 g/l

> <JCHEM_TRADITIONAL_IUPAC>
(argentiooxy)silver

> <JCHEM_VEBER_RULE>
0

> <DRUGBANK_ID>
DB05020

> <DRUG_GROUPS>
investigational

> <GENERIC_NAME>
Besifovir dipivoxil

$$$$
