
  Mrv1909 03072017192D          

 45 51  0  0  0  0            999 V2000
    0.3586   -2.3936    0.0000 C   0  0  1  0  0  0  0  0  0  0  0  0
    1.0731   -1.9812    0.0000 N   0  0  0  0  0  0  0  0  0  0  0  0
    0.3586   -0.7437    0.0000 C   0  0  2  0  0  0  0  0  0  0  0  0
   -0.3558   -1.1562    0.0000 C   0  0  0  0  0  0  0  0  0  0  0  0
    1.0731   -1.1562    0.0000 C   0  0  0  0  0  0  0  0  0  0  0  0
   -0.3558   -1.9812    0.0000 C   0  0  0  0  0  0  0  0  0  0  0  0
    0.0816    3.8620    0.0000 C   0  0  0  0  0  0  0  0  0  0  0  0
    0.7960    3.4493    0.0000 C   0  0  1  0  0  0  0  0  0  0  0  0
    0.7959    2.6244    0.0000 N   0  0  0  0  0  0  0  0  0  0  0  0
   -0.6329    3.4496    0.0000 N   0  0  0  0  0  0  0  0  0  0  0  0
    1.7875    0.0811    0.0000 C   0  0  0  0  0  0  0  0  0  0  0  0
   -1.4175    2.3698    0.0000 C   0  0  0  0  0  0  0  0  0  0  0  0
   -1.9024    3.0373    0.0000 C   0  0  0  0  0  0  0  0  0  0  0  0
   -1.4174    3.7046    0.0000 C   0  0  0  0  0  0  0  0  0  0  0  0
    0.2528    1.4051    0.0000 O   0  0  0  0  0  0  0  0  0  0  0  0
    0.0817    4.6869    0.0000 O   0  0  0  0  0  0  0  0  0  0  0  0
    1.4088    2.0721    0.0000 C   0  0  0  0  0  0  0  0  0  0  0  0
    2.2158    2.2437    0.0000 O   0  0  0  0  0  0  0  0  0  0  0  0
    1.0732    1.3187    0.0000 C   0  0  1  0  0  0  0  0  0  0  0  0
    1.5104    3.8617    0.0000 C   0  0  0  0  0  0  0  0  0  0  0  0
    2.2252    5.0991    0.0000 C   0  0  0  0  0  0  0  0  0  0  0  0
    1.5106    4.6867    0.0000 C   0  0  0  0  0  0  0  0  0  0  0  0
    0.7963    5.0993    0.0000 C   0  0  0  0  0  0  0  0  0  0  0  0
    2.5020    1.3185    0.0000 C   0  0  0  0  0  0  0  0  0  0  0  0
    1.7875    0.9061    0.0000 C   0  0  0  0  0  0  0  0  0  0  0  0
    1.7875   -2.3936    0.0000 C   0  0  0  0  0  0  0  0  0  0  0  0
   -1.0406   -3.2042    0.0000 C   0  0  0  0  0  0  0  0  0  0  0  0
   -1.0702   -2.3935    0.0000 C   0  0  0  0  0  0  0  0  0  0  0  0
   -1.6932   -3.6804    0.0000 C   0  0  0  0  0  0  0  0  0  0  0  0
   -1.8163   -2.0299    0.0000 C   0  0  0  0  0  0  0  0  0  0  0  0
    0.3642   -3.2196    0.0000 C   0  0  0  0  0  0  0  0  0  0  0  0
   -2.4396   -3.3172    0.0000 C   0  0  0  0  0  0  0  0  0  0  0  0
   -2.5020   -2.4915    0.0000 C   0  0  0  0  0  0  0  0  0  0  0  0
   -0.3528   -3.6348    0.0000 C   0  0  0  0  0  0  0  0  0  0  0  0
   -0.5837   -4.4328    0.0000 C   0  0  0  0  0  0  0  0  0  0  0  0
   -0.0975   -5.0993    0.0000 Br  0  0  0  0  0  0  0  0  0  0  0  0
   -1.4110   -4.4604    0.0000 N   0  0  0  0  0  0  0  0  0  0  0  0
    1.0730   -2.8060    0.0000 H   0  0  0  0  0  0  0  0  0  0  0  0
    0.3586    0.0812    0.0000 C   0  0  0  0  0  0  0  0  0  0  0  0
    1.0731    0.4937    0.0000 N   0  0  0  0  0  0  0  0  0  0  0  0
   -0.3557    0.4937    0.0000 O   0  0  0  0  0  0  0  0  0  0  0  0
   -0.6330    2.6246    0.0000 C   0  0  1  0  0  0  0  0  0  0  0  0
   -0.6330    1.7996    0.0000 H   0  0  0  0  0  0  0  0  0  0  0  0
    0.0813    2.2120    0.0000 C   0  0  1  0  0  0  0  0  0  0  0  0
    0.0814    3.0370    0.0000 O   0  0  0  0  0  0  0  0  0  0  0  0
  1 31  1  0  0  0  0
  1 38  1  1  0  0  0
  1  2  1  0  0  0  0
  2 26  1  0  0  0  0
  3 39  1  1  0  0  0
  3  4  1  0  0  0  0
  3  5  1  0  0  0  0
  2  5  1  0  0  0  0
  6  1  1  0  0  0  0
  6  4  2  0  0  0  0
  6 28  1  0  0  0  0
  7 16  2  0  0  0  0
  8  7  1  0  0  0  0
  7 10  1  0  0  0  0
  9  8  1  0  0  0  0
  8 20  1  6  0  0  0
  9 17  1  0  0  0  0
 44  9  1  0  0  0  0
 10 14  1  0  0  0  0
 10 42  1  0  0  0  0
 11 25  1  0  0  0  0
 42 12  1  0  0  0  0
 12 13  1  0  0  0  0
 13 14  1  0  0  0  0
 44 15  1  0  0  0  0
 19 15  1  0  0  0  0
 19 17  1  0  0  0  0
 17 18  2  0  0  0  0
 19 25  1  0  0  0  0
 19 40  1  6  0  0  0
 20 22  1  0  0  0  0
 22 21  1  0  0  0  0
 22 23  1  0  0  0  0
 25 24  1  0  0  0  0
 27 28  2  0  0  0  0
 27 34  1  0  0  0  0
 27 29  1  0  0  0  0
 28 30  1  0  0  0  0
 29 37  1  0  0  0  0
 29 32  2  0  0  0  0
 30 33  2  0  0  0  0
 34 31  1  0  0  0  0
 32 33  1  0  0  0  0
 34 35  2  0  0  0  0
 35 37  1  0  0  0  0
 35 36  1  0  0  0  0
 39 41  2  0  0  0  0
 39 40  1  0  0  0  0
 42 44  1  0  0  0  0
 42 43  1  1  0  0  0
 44 45  1  6  0  0  0
M  END
> <DATABASE_ID>
DB01200

> <DATABASE_NAME>
drugbank

> <SMILES>
[H][C@@]12CCCN1C(=O)[C@H](CC(C)C)N1C(=O)[C@](NC(=O)[C@H]3CN(C)[C@]4([H])CC5=C(Br)NC6=CC=CC(=C56)C4=C3)(O[C@@]21O)C(C)C

> <INCHI_IDENTIFIER>
InChI=1S/C32H40BrN5O5/c1-16(2)12-24-29(40)37-11-7-10-25(37)32(42)38(24)30(41)31(43-32,17(3)4)35-28(39)18-13-20-19-8-6-9-22-26(19)21(27(33)34-22)14-23(20)36(5)15-18/h6,8-9,13,16-18,23-25,34,42H,7,10-12,14-15H2,1-5H3,(H,35,39)/t18-,23-,24+,25+,31-,32+/m1/s1

> <INCHI_KEY>
OZVBMTJYIDMWIL-AYFBDAFISA-N

> <FORMULA>
C32H40BrN5O5

> <MOLECULAR_WEIGHT>
654.595

> <EXACT_MASS>
653.221282062

> <JCHEM_ACCEPTOR_COUNT>
6

> <JCHEM_ATOM_COUNT>
83

> <JCHEM_AVERAGE_NEUTRAL_MICROSPECIES_CHARGE>
0.3389555539244607

> <JCHEM_AVERAGE_POLARIZABILITY>
66.44438642384466

> <JCHEM_BIOAVAILABILITY>
1

> <JCHEM_DONOR_COUNT>
3

> <JCHEM_FORMAL_CHARGE>
0

> <JCHEM_GHOSE_FILTER>
0

> <JCHEM_IUPAC>
(4R,7R)-10-bromo-N-[(1S,2S,4R,7S)-2-hydroxy-7-(2-methylpropyl)-5,8-dioxo-4-(propan-2-yl)-3-oxa-6,9-diazatricyclo[7.3.0.0^{2,6}]dodecan-4-yl]-6-methyl-6,11-diazatetracyclo[7.6.1.0^{2,7}.0^{12,16}]hexadeca-1(16),2,9,12,14-pentaene-4-carboxamide

> <ALOGPS_LOGP>
3.20

> <JCHEM_LOGP>
3.8871678083333325

> <ALOGPS_LOGS>
-3.88

> <JCHEM_MDDR_LIKE_RULE>
0

> <JCHEM_NEUTRAL_CHARGE>
1

> <JCHEM_NUMBER_OF_RINGS>
7

> <JCHEM_PHYSIOLOGICAL_CHARGE>
0

> <JCHEM_PKA>
11.518659450567023

> <JCHEM_PKA_STRONGEST_ACIDIC>
9.688519391868914

> <JCHEM_PKA_STRONGEST_BASIC>
6.71393280558073

> <JCHEM_POLAR_SURFACE_AREA>
118.20999999999998

> <JCHEM_REFRACTIVITY>
165.51239999999999

> <JCHEM_ROTATABLE_BOND_COUNT>
5

> <JCHEM_RULE_OF_FIVE>
0

> <ALOGPS_SOLUBILITY>
8.58e-02 g/l

> <JCHEM_TRADITIONAL_IUPAC>
lugol's iodine

> <JCHEM_VEBER_RULE>
0

> <DRUGBANK_ID>
DB01200

> <SECONDARY_ACCESSION_NUMBERS>
APRD00622

> <DRUG_GROUPS>
approved; investigational; withdrawn

> <GENERIC_NAME>
Bromocriptine

> <SYNONYMS>
2-Bromo-alpha-ergocryptine; 2-Bromo-alpha-ergokryptin; 2-Bromo-alpha-ergokryptine; 2-bromo-α-ergocryptine; 2-bromo-α-ergokryptin; 2-bromo-α-ergokryptine; Bromocriptina; Bromocriptine; Bromocriptinum; Bromocryptine; Bromoergocriptine; Bromoergocryptine

> <PRODUCTS>
Bromocriptine; Bromocriptine Mesylate; Bromocriptine mesylate; Bromocriptine-2.5 - Tab 2.5mg; Bromocriptine-5; Co Bromocriptine Capsules 5mg; Co Bromocriptine Tablets 2.5mg; Cycloset; Dom-bromocriptine; Nu-bromocriptine; PMS-bromocriptine; Parlodel; Parlodel Cap 5mg; Parlodel Tab 2.5mg; Syn-bromocriptine Cap 5mg; Syn-bromocriptine Tab 2.5mg

> <INTERNATIONAL_BRANDS>
Apo-Bromocriptine; Bagren; Ergoset; Parlodel Snaptabs; Pravidel

> <SALTS>
Bromocriptine mesylate

$$$$
