
  Mrv1718007041816492D          

 28 26  0  0  0  0            999 V2000
    1.7861    0.2038    0.0000 N   0  0  0  0  0  0  0  0  0  0  0  0
    1.0716   -0.2086    0.0000 C   0  0  0  0  0  0  0  0  0  0  0  0
    0.3571    0.2038    0.0000 C   0  0  0  0  0  0  0  0  0  0  0  0
   -0.3573   -0.2086    0.0000 N   0  0  0  0  0  0  0  0  0  0  0  0
   -1.0717    0.2038    0.0000 C   0  0  0  0  0  0  0  0  0  0  0  0
   -1.7862   -0.2086    0.0000 C   0  0  0  0  0  0  0  0  0  0  0  0
   -2.5007    0.2038    0.0000 N   0  0  0  0  0  0  0  0  0  0  0  0
   -2.5007    1.0288    0.0000 C   0  0  0  0  0  0  0  0  0  0  0  0
   -3.2151    1.4413    0.0000 C   0  0  0  0  0  0  0  0  0  0  0  0
   -3.9296    1.0288    0.0000 O   0  0  0  0  0  0  0  0  0  0  0  0
   -3.2151    2.2662    0.0000 O   0  0  0  0  0  0  0  0  0  0  0  0
   -0.3573   -1.0337    0.0000 C   0  0  0  0  0  0  0  0  0  0  0  0
    0.3571   -1.4461    0.0000 C   0  0  0  0  0  0  0  0  0  0  0  0
    1.0716   -1.0337    0.0000 O   0  5  0  0  0  0  0  0  0  0  0  0
    0.3571   -2.2712    0.0000 O   0  0  0  0  0  0  0  0  0  0  0  0
    2.5005   -0.2086    0.0000 C   0  0  0  0  0  0  0  0  0  0  0  0
    3.2150    0.2038    0.0000 C   0  0  0  0  0  0  0  0  0  0  0  0
    3.2150    1.0288    0.0000 O   0  0  0  0  0  0  0  0  0  0  0  0
    3.9296   -0.2086    0.0000 O   0  0  0  0  0  0  0  0  0  0  0  0
    1.7861    1.0288    0.0000 C   0  0  0  0  0  0  0  0  0  0  0  0
    1.0716    2.2662    0.0000 O   0  0  0  0  0  0  0  0  0  0  0  0
    1.0716    1.4413    0.0000 C   0  0  0  0  0  0  0  0  0  0  0  0
    0.3571    1.0288    0.0000 O   0  5  0  0  0  0  0  0  0  0  0  0
   -3.2151   -0.2086    0.0000 C   0  0  0  0  0  0  0  0  0  0  0  0
   -2.5007   -1.4461    0.0000 O   0  5  0  0  0  0  0  0  0  0  0  0
   -3.2151   -1.0337    0.0000 C   0  0  0  0  0  0  0  0  0  0  0  0
   -3.9296   -1.4461    0.0000 O   0  0  0  0  0  0  0  0  0  0  0  0
   -1.1329    2.2712    0.0000 Gd  0  1  0  0  0  0  0  0  0  0  0  0
 20  1  1  0  0  0  0
  1  2  1  0  0  0  0
  1 16  1  0  0  0  0
  2  3  1  0  0  0  0
  3  4  1  0  0  0  0
  4  5  1  0  0  0  0
  4 12  1  0  0  0  0
  5  6  1  0  0  0  0
  6  7  1  0  0  0  0
  7  8  1  0  0  0  0
  7 24  1  0  0  0  0
  8  9  1  0  0  0  0
  9 10  1  0  0  0  0
  9 11  2  0  0  0  0
 12 13  1  0  0  0  0
 13 14  1  0  0  0  0
 13 15  2  0  0  0  0
 16 17  1  0  0  0  0
 17 18  2  0  0  0  0
 17 19  1  0  0  0  0
 20 22  1  0  0  0  0
 22 21  2  0  0  0  0
 22 23  1  0  0  0  0
 24 26  1  0  0  0  0
 26 25  1  0  0  0  0
 26 27  2  0  0  0  0
M  CHG  4  14  -1  23  -1  25  -1  28   3
M  END
> <DATABASE_ID>
DB00789

> <DATABASE_NAME>
drugbank

> <SMILES>
[Gd+3].OC(=O)CN(CCN(CCN(CC(O)=O)CC([O-])=O)CC([O-])=O)CC([O-])=O

> <INCHI_IDENTIFIER>
InChI=1S/C14H23N3O10.Gd/c18-10(19)5-15(1-3-16(6-11(20)21)7-12(22)23)2-4-17(8-13(24)25)9-14(26)27;/h1-9H2,(H,18,19)(H,20,21)(H,22,23)(H,24,25)(H,26,27);/q;+3/p-3

> <INCHI_KEY>
IZOOGPBRAOKZFK-UHFFFAOYSA-K

> <FORMULA>
C14H20GdN3O10

> <MOLECULAR_WEIGHT>
547.58

> <EXACT_MASS>
548.03898

> <JCHEM_ACCEPTOR_COUNT>
13

> <JCHEM_ATOM_COUNT>
48

> <JCHEM_AVERAGE_POLARIZABILITY>
35.236709158991395

> <JCHEM_BIOAVAILABILITY>
0

> <JCHEM_DONOR_COUNT>
2

> <JCHEM_FORMAL_CHARGE>
0

> <JCHEM_GHOSE_FILTER>
0

> <JCHEM_IUPAC>
gadolinium(3+) 2-[bis({2-[bis(carboxymethyl)amino]ethyl})amino]acetate

> <ALOGPS_LOGP>
0.05

> <JCHEM_LOGP>
-6.273562251913112

> <ALOGPS_LOGS>
-1.92

> <JCHEM_MDDR_LIKE_RULE>
0

> <JCHEM_NUMBER_OF_RINGS>
0

> <JCHEM_PHYSIOLOGICAL_CHARGE>
-3

> <JCHEM_PKA>
2.3345681026566742

> <JCHEM_PKA_STRONGEST_ACIDIC>
1.948378830553792

> <JCHEM_PKA_STRONGEST_BASIC>
8.820682146675207

> <JCHEM_POLAR_SURFACE_AREA>
204.71

> <JCHEM_REFRACTIVITY>
118.96059999999999

> <JCHEM_ROTATABLE_BOND_COUNT>
16

> <JCHEM_RULE_OF_FIVE>
0

> <ALOGPS_SOLUBILITY>
7.86e+00 g/l

> <JCHEM_TRADITIONAL_IUPAC>
gadolinium(3+) [bis({2-[bis(carboxymethyl)amino]ethyl})amino]acetate

> <JCHEM_VEBER_RULE>
0

> <DRUGBANK_ID>
DB00789

> <SECONDARY_ACCESSION_NUMBERS>
APRD00991

> <DRUG_GROUPS>
approved

> <GENERIC_NAME>
Gadopentetic acid

> <SYNONYMS>
Acide gadopentetique; Ã¡cido gadopentÃ©tico; Acidum gadopenteticum; Gadolinium diethylenetriamine pentaacetic acid; Gadolinium DTPA; Gadopentetate; Gadopentetic acid

> <PRODUCTS>
Gadopentetate Dimeglumine Injection; Gadopentetate Dimeglumine Injection, USP; Gadopentetate dimeglumine; Magnevist

> <SALTS>
Gadopentetate dimeglumine

$$$$
