
  Mrv1909 08212014252D          

 36 41  0  0  0  0            999 V2000
    0.6702    0.7552    0.0000 C   0  0  1  0  0  0  0  0  0  0  0  0
   -0.1143    0.5002    0.0000 C   0  0  2  0  0  0  0  0  0  0  0  0
    1.1551    0.0877    0.0000 C   0  0  1  0  0  0  0  0  0  0  0  0
    1.1551    1.4226    0.0000 O   0  0  0  0  0  0  0  0  0  0  0  0
    0.4330    1.4748    0.0000 C   0  0  0  0  0  0  0  0  0  0  0  0
   -0.1143   -0.3247    0.0000 C   0  0  1  0  0  0  0  0  0  0  0  0
   -0.8288    0.9127    0.0000 C   0  0  0  0  0  0  0  0  0  0  0  0
   -0.1685    1.3072    0.0000 C   0  0  0  0  0  0  0  0  0  0  0  0
    0.6702   -0.5796    0.0000 C   0  0  0  0  0  0  0  0  0  0  0  0
    1.9397    0.3427    0.0000 O   0  0  0  0  0  0  0  0  0  0  0  0
    1.9397    1.1677    0.0000 C   0  0  1  0  0  0  0  0  0  0  0  0
    0.9557    1.9722    0.0000 C   0  0  0  0  0  0  0  0  0  0  0  0
   -0.1439    1.7722    0.0000 O   0  0  0  0  0  0  0  0  0  0  0  0
   -0.8288   -0.7372    0.0000 C   0  0  1  0  0  0  0  0  0  0  0  0
   -1.5433    0.5002    0.0000 C   0  0  0  0  0  0  0  0  0  0  0  0
    2.7602    1.0814    0.0000 C   0  0  0  0  0  0  0  0  0  0  0  0
    2.1113    1.9747    0.0000 C   0  0  0  0  0  0  0  0  0  0  0  0
   -1.5433   -0.3247    0.0000 C   0  0  2  0  0  0  0  0  0  0  0  0
   -0.8288   -1.5622    0.0000 C   0  0  0  0  0  0  0  0  0  0  0  0
    3.2451    1.7489    0.0000 C   0  0  0  0  0  0  0  0  0  0  0  0
    3.0958    0.3278    0.0000 C   0  0  0  0  0  0  0  0  0  0  0  0
   -2.2577   -0.7372    0.0000 C   0  0  2  0  0  0  0  0  0  0  0  0
   -1.5433   -1.9747    0.0000 C   0  0  0  0  0  0  0  0  0  0  0  0
    4.0656    1.6627    0.0000 C   0  0  0  0  0  0  0  0  0  0  0  0
    3.9163    0.2415    0.0000 C   0  0  0  0  0  0  0  0  0  0  0  0
   -2.2577   -1.5622    0.0000 C   0  0  0  0  0  0  0  0  0  0  0  0
   -2.9722   -0.3247    0.0000 C   0  0  0  0  0  0  0  0  0  0  0  0
   -2.2577    0.0877    0.0000 C   0  0  0  0  0  0  0  0  0  0  0  0
    4.4012    0.9090    0.0000 C   0  0  0  0  0  0  0  0  0  0  0  0
   -2.9722   -1.9747    0.0000 C   0  0  0  0  0  0  0  0  0  0  0  0
   -3.6747   -0.7319    0.0000 C   0  0  0  0  0  0  0  0  0  0  0  0
   -3.6747   -1.5569    0.0000 C   0  0  0  0  0  0  0  0  0  0  0  0
   -4.4012   -1.9747    0.0000 O   0  0  0  0  0  0  0  0  0  0  0  0
   -0.0281   -1.1451    0.0000 H   0  0  0  0  0  0  0  0  0  0  0  0
   -1.5067   -1.0463    0.0000 H   0  0  0  0  0  0  0  0  0  0  0  0
   -0.8132    0.0757    0.0000 H   0  0  0  0  0  0  0  0  0  0  0  0
  1  2  1  0  0  0  0
  1  3  1  0  0  0  0
  1  4  1  6  0  0  0
  1  5  1  1  0  0  0
  2  6  1  0  0  0  0
  2  7  1  0  0  0  0
  2  8  1  1  0  0  0
  3  9  1  0  0  0  0
  3 10  1  6  0  0  0
  4 11  1  0  0  0  0
  5 12  1  0  0  0  0
  5 13  2  0  0  0  0
  6 14  1  0  0  0  0
  7 15  1  0  0  0  0
 11 16  1  6  0  0  0
 11 17  1  1  0  0  0
 14 18  1  0  0  0  0
 14 19  1  0  0  0  0
 16 20  2  0  0  0  0
 16 21  1  0  0  0  0
 18 22  1  0  0  0  0
 19 23  1  0  0  0  0
 20 24  1  0  0  0  0
 21 25  2  0  0  0  0
 22 26  1  0  0  0  0
 22 27  1  0  0  0  0
 22 28  1  1  0  0  0
 24 29  2  0  0  0  0
 26 30  2  0  0  0  0
 27 31  1  0  0  0  0
 30 32  1  0  0  0  0
 32 33  2  0  0  0  0
  6  9  1  0  0  0  0
 10 11  1  0  0  0  0
 15 18  1  0  0  0  0
 23 26  1  0  0  0  0
 25 29  1  0  0  0  0
 31 32  1  0  0  0  0
  6 34  1  6  0  0  0
 18 35  1  6  0  0  0
 14 36  1  1  0  0  0
M  END
> <DATABASE_ID>
DB15775

> <DATABASE_NAME>
drugbank

> <SMILES>
[H][C@@]12C[C@H]3O[C@](C)(O[C@@]3(C(C)=O)[C@@]1(C)CC[C@@]1([H])[C@@]2([H])CCC2=CC(=O)CC[C@]12C)C1=CC=CC=C1

> <INCHI_IDENTIFIER>
InChI=1S/C29H36O4/c1-18(30)29-25(32-28(4,33-29)19-8-6-5-7-9-19)17-24-22-11-10-20-16-21(31)12-14-26(20,2)23(22)13-15-27(24,29)3/h5-9,16,22-25H,10-15,17H2,1-4H3/t22-,23+,24+,25-,26+,27+,28-,29-/m1/s1

> <INCHI_KEY>
AHBKIEXBQNRDNL-FVCOMRFXSA-N

> <FORMULA>
C29H36O4

> <MOLECULAR_WEIGHT>
448.603

> <EXACT_MASS>
448.261359639

> <JCHEM_ACCEPTOR_COUNT>
4

> <JCHEM_ATOM_COUNT>
69

> <JCHEM_AVERAGE_NEUTRAL_MICROSPECIES_CHARGE>
-1.4883614692855868e-11

> <JCHEM_AVERAGE_POLARIZABILITY>
50.33262935249488

> <JCHEM_BIOAVAILABILITY>
1

> <JCHEM_DONOR_COUNT>
0

> <JCHEM_FORMAL_CHARGE>
0

> <JCHEM_GHOSE_FILTER>
0

> <JCHEM_IUPAC>
(1R,2S,4R,6R,8S,9S,12S,13R)-8-acetyl-6,9,13-trimethyl-6-phenyl-5,7-dioxapentacyclo[10.8.0.0^{2,9}.0^{4,8}.0^{13,18}]icos-17-en-16-one

> <ALOGPS_LOGP>
5.20

> <JCHEM_LOGP>
5.739417648000001

> <ALOGPS_LOGS>
-6.10

> <JCHEM_MDDR_LIKE_RULE>
0

> <JCHEM_NEUTRAL_CHARGE>
0

> <JCHEM_NUMBER_OF_RINGS>
6

> <JCHEM_PHYSIOLOGICAL_CHARGE>
0

> <JCHEM_PKA>
18.58180176133495

> <JCHEM_PKA_STRONGEST_ACIDIC>
17.625219336006356

> <JCHEM_PKA_STRONGEST_BASIC>
-4.058510073688327

> <JCHEM_POLAR_SURFACE_AREA>
52.6

> <JCHEM_REFRACTIVITY>
127.3722

> <JCHEM_ROTATABLE_BOND_COUNT>
2

> <JCHEM_RULE_OF_FIVE>
0

> <ALOGPS_SOLUBILITY>
3.57e-04 g/l

> <JCHEM_TRADITIONAL_IUPAC>
unii-71TH42O2CQ

> <JCHEM_VEBER_RULE>
0

> <DRUGBANK_ID>
DB15775

> <DRUG_GROUPS>
experimental

> <GENERIC_NAME>
Algestone acetophenide

> <SYNONYMS>
Algeston acetofenid; Algestone acetophenide; Alphasone acetophenide; Dihydroxyprogesterone acetophenide

> <INTERNATIONAL_BRANDS>
Bovitrol; Droxone; Neolutin

$$$$
