
  Mrv1652306131722042D          

  1  0  0  0  0  0            999 V2000
    0.0000    0.0000    0.0000 B   0  0  0  0  0 15  0  0  0  0  0  0
M  END
> <DATABASE_ID>
DB11203

> <DATABASE_NAME>
drugbank

> <SMILES>
[B]

> <INCHI_IDENTIFIER>
InChI=1S/B

> <INCHI_KEY>
ZOXJGFHDIHLPTG-UHFFFAOYSA-N

> <FORMULA>
B

> <MOLECULAR_WEIGHT>
10.81

> <EXACT_MASS>
11.009305

> <JCHEM_ACCEPTOR_COUNT>
0

> <JCHEM_ATOM_COUNT>
1

> <JCHEM_AVERAGE_POLARIZABILITY>
1.7784

> <JCHEM_BIOAVAILABILITY>
1

> <JCHEM_DONOR_COUNT>
0

> <JCHEM_FORMAL_CHARGE>
0

> <JCHEM_GHOSE_FILTER>
0

> <JCHEM_IUPAC>
boranylidyne

> <JCHEM_LOGP>
0.3308

> <JCHEM_MDDR_LIKE_RULE>
0

> <JCHEM_NUMBER_OF_RINGS>
0

> <JCHEM_PHYSIOLOGICAL_CHARGE>
0

> <JCHEM_POLAR_SURFACE_AREA>
0.0

> <JCHEM_REFRACTIVITY>
0.0

> <JCHEM_ROTATABLE_BOND_COUNT>
0

> <JCHEM_RULE_OF_FIVE>
1

> <JCHEM_TRADITIONAL_IUPAC>
boranylidyne

> <JCHEM_VEBER_RULE>
1

> <DRUGBANK_ID>
DB11203

> <DRUG_GROUPS>
experimental

> <GENERIC_NAME>
Boron

> <SYNONYMS>
Bor; Boracium; Bore; Boro

> <PRODUCTS>
Calcemin; Calcemin Silver; Calcium Folic Acid Plus D Chewable; Foliflex; Folitin-Z; Neonatal Plus Vitamin; Neonatal Vitamin; Prenate Chewable; Prenatvite; Prenatvite Plus; Ribotin-E; Zintrexyl-C

$$$$
