
  Mrv1652310201622572D          

100103  0  0  1  0            999 V2000
   31.8358    6.4558    0.0000 C   0  0  0  0  0  0  0  0  0  0  0  0
   31.8358    7.2808    0.0000 C   0  0  1  0  0  0  0  0  0  0  0  0
   31.1214    7.6933    0.0000 C   0  0  0  0  0  0  0  0  0  0  0  0
   31.1214    8.5183    0.0000 O   0  0  0  0  0  0  0  0  0  0  0  0
   30.4069    7.2808    0.0000 N   0  0  0  0  0  0  0  0  0  0  0  0
   29.6924    7.6933    0.0000 C   0  0  1  0  0  0  0  0  0  0  0  0
   29.6924    8.5183    0.0000 C   0  0  0  0  0  0  0  0  0  0  0  0
   28.9780    8.9308    0.0000 C   0  0  0  0  0  0  0  0  0  0  0  0
   28.2635    8.5183    0.0000 O   0  0  0  0  0  0  0  0  0  0  0  0
   28.9780    9.7558    0.0000 O   0  0  0  0  0  0  0  0  0  0  0  0
   28.9780    7.2808    0.0000 C   0  0  0  0  0  0  0  0  0  0  0  0
   28.9780    6.4558    0.0000 O   0  0  0  0  0  0  0  0  0  0  0  0
   28.2635    7.6933    0.0000 N   0  0  0  0  0  0  0  0  0  0  0  0
   27.5490    7.2808    0.0000 C   0  0  1  0  0  0  0  0  0  0  0  0
   27.5490    6.4558    0.0000 C   0  0  0  0  0  0  0  0  0  0  0  0
   26.8345    6.0433    0.0000 C   0  0  0  0  0  0  0  0  0  0  0  0
   26.1201    6.4558    0.0000 O   0  0  0  0  0  0  0  0  0  0  0  0
   26.8345    5.2183    0.0000 O   0  0  0  0  0  0  0  0  0  0  0  0
   26.8345    7.6933    0.0000 C   0  0  0  0  0  0  0  0  0  0  0  0
   26.8345    8.5183    0.0000 O   0  0  0  0  0  0  0  0  0  0  0  0
   26.1201    7.2808    0.0000 N   0  0  0  0  0  0  0  0  0  0  0  0
   25.4056    7.6933    0.0000 C   0  0  1  0  0  0  0  0  0  0  0  0
   25.4056    8.5183    0.0000 C   0  0  0  0  0  0  0  0  0  0  0  0
   24.6911    7.2808    0.0000 C   0  0  0  0  0  0  0  0  0  0  0  0
   24.6911    6.4558    0.0000 O   0  0  0  0  0  0  0  0  0  0  0  0
   23.9767    7.6933    0.0000 N   0  0  0  0  0  0  0  0  0  0  0  0
   23.2622    7.2808    0.0000 C   0  0  0  0  0  0  0  0  0  0  0  0
   22.5477    7.6933    0.0000 C   0  0  0  0  0  0  0  0  0  0  0  0
   22.5477    8.5183    0.0000 O   0  0  0  0  0  0  0  0  0  0  0  0
   21.8332    7.2808    0.0000 N   0  0  0  0  0  0  0  0  0  0  0  0
   21.1188    7.6933    0.0000 C   0  0  1  0  0  0  0  0  0  0  0  0
   21.1188    8.5183    0.0000 C   0  0  0  0  0  0  0  0  0  0  0  0
   20.4043    8.9308    0.0000 C   0  0  0  0  0  0  0  0  0  0  0  0
   19.6898    8.5183    0.0000 C   0  0  0  0  0  0  0  0  0  0  0  0
   20.4043    9.7558    0.0000 C   0  0  0  0  0  0  0  0  0  0  0  0
   20.4043    7.2808    0.0000 C   0  0  0  0  0  0  0  0  0  0  0  0
   20.4043    6.4558    0.0000 O   0  0  0  0  0  0  0  0  0  0  0  0
   19.6898    7.6933    0.0000 N   0  0  0  0  0  0  0  0  0  0  0  0
   18.9754    7.2808    0.0000 C   0  0  1  0  0  0  0  0  0  0  0  0
   18.2609    7.6933    0.0000 C   0  0  0  0  0  0  0  0  0  0  0  0
   17.5464    7.2808    0.0000 C   0  0  0  0  0  0  0  0  0  0  0  0
   18.2609    8.5183    0.0000 C   0  0  0  0  0  0  0  0  0  0  0  0
   18.9754    6.4558    0.0000 C   0  0  0  0  0  0  0  0  0  0  0  0
   19.6898    6.0433    0.0000 O   0  0  0  0  0  0  0  0  0  0  0  0
   18.2609    6.0433    0.0000 O   0  0  0  0  0  0  0  0  0  0  0  0
   32.5503    7.6933    0.0000 N   0  0  0  0  0  0  0  0  0  0  0  0
   33.2648    7.2808    0.0000 C   0  0  0  0  0  0  0  0  0  0  0  0
   33.2648    6.4558    0.0000 O   0  0  0  0  0  0  0  0  0  0  0  0
   33.9792    7.6933    0.0000 C   0  0  2  0  0  0  0  0  0  0  0  0
   34.0655    8.5138    0.0000 C   0  0  0  0  0  0  0  0  0  0  0  0
   34.8725    8.6853    0.0000 C   0  0  0  0  0  0  0  0  0  0  0  0
   35.2850    7.9709    0.0000 C   0  0  0  0  0  0  0  0  0  0  0  0
   34.7329    7.3578    0.0000 N   0  0  0  0  0  0  0  0  0  0  0  0
   34.9045    6.5508    0.0000 C   0  0  0  0  0  0  0  0  0  0  0  0
   34.2914    5.9988    0.0000 O   0  0  0  0  0  0  0  0  0  0  0  0
   35.6891    6.2959    0.0000 C   0  0  2  0  0  0  0  0  0  0  0  0
   36.3022    6.8479    0.0000 C   0  0  0  0  0  0  0  0  0  0  0  0
   36.1306    7.6549    0.0000 C   0  0  0  0  0  0  0  0  0  0  0  0
   36.7437    8.2069    0.0000 C   0  0  0  0  0  0  0  0  0  0  0  0
   36.5722    9.0139    0.0000 C   0  0  0  0  0  0  0  0  0  0  0  0
   37.1853    9.5659    0.0000 N   0  0  0  0  0  0  0  0  0  0  0  0
   35.8606    5.4889    0.0000 N   0  0  0  0  0  0  0  0  0  0  0  0
   36.6452    5.2339    0.0000 C   0  0  0  0  0  0  0  0  0  0  0  0
   37.2583    5.7860    0.0000 O   0  0  0  0  0  0  0  0  0  0  0  0
   36.8167    4.4270    0.0000 C   0  0  0  0  0  0  0  0  0  0  0  0
   37.6014    4.1720    0.0000 N   0  0  0  0  0  0  0  0  0  0  0  0
   38.2145    4.7241    0.0000 C   0  0  0  0  0  0  0  0  0  0  0  0
   38.0429    5.5310    0.0000 O   0  0  0  0  0  0  0  0  0  0  0  0
   38.9991    4.4691    0.0000 C   0  0  2  0  0  0  0  0  0  0  0  0
   39.6665    4.9541    0.0000 C   0  0  0  0  0  0  0  0  0  0  0  0
   40.3340    4.4691    0.0000 C   0  0  0  0  0  0  0  0  0  0  0  0
   40.0790    3.6845    0.0000 C   0  0  0  0  0  0  0  0  0  0  0  0
   39.2540    3.6845    0.0000 N   0  0  0  0  0  0  0  0  0  0  0  0
   38.7691    3.0171    0.0000 C   0  0  0  0  0  0  0  0  0  0  0  0
   37.9486    3.1033    0.0000 O   0  0  0  0  0  0  0  0  0  0  0  0
   39.1047    2.2634    0.0000 C   0  0  2  0  0  0  0  0  0  0  0  0
   39.9116    2.0919    0.0000 C   0  0  0  0  0  0  0  0  0  0  0  0
   39.9979    1.2714    0.0000 C   0  0  0  0  0  0  0  0  0  0  0  0
   39.2442    0.9358    0.0000 C   0  0  0  0  0  0  0  0  0  0  0  0
   38.6922    1.5489    0.0000 N   0  0  0  0  0  0  0  0  0  0  0  0
   37.8717    1.4627    0.0000 C   0  0  0  0  0  0  0  0  0  0  0  0
   37.3868    2.1301    0.0000 O   0  0  0  0  0  0  0  0  0  0  0  0
   37.5361    0.7090    0.0000 C   0  0  2  0  0  0  0  0  0  0  0  0
   37.9486   -0.0055    0.0000 C   0  0  0  0  0  0  0  0  0  0  0  0
   37.3966   -0.6186    0.0000 C   0  0  0  0  0  0  0  0  0  0  0  0
   36.6429   -0.2830    0.0000 C   0  0  0  0  0  0  0  0  0  0  0  0
   36.7291    0.5375    0.0000 N   0  0  0  0  0  0  0  0  0  0  0  0
   36.1161    1.0895    0.0000 C   0  0  0  0  0  0  0  0  0  0  0  0
   36.2876    1.8965    0.0000 O   0  0  0  0  0  0  0  0  0  0  0  0
   35.3314    0.8346    0.0000 C   0  0  2  0  0  0  0  0  0  0  0  0
   34.7183    1.3866    0.0000 C   0  0  0  0  0  0  0  0  0  0  0  0
   33.9337    1.1317    0.0000 C   0  0  0  0  0  0  0  0  0  0  0  0
   33.3206    1.6837    0.0000 C   0  0  0  0  0  0  0  0  0  0  0  0
   32.5360    1.4288    0.0000 O   0  0  0  0  0  0  0  0  0  0  0  0
   33.4922    2.4907    0.0000 O   0  0  0  0  0  0  0  0  0  0  0  0
   35.1599    0.0276    0.0000 N   0  0  0  0  0  0  0  0  0  0  0  0
   34.3753   -0.2273    0.0000 C   0  0  0  0  0  0  0  0  0  0  0  0
   33.7622    0.3247    0.0000 O   0  0  0  0  0  0  0  0  0  0  0  0
   34.2038   -1.0343    0.0000 C   0  0  0  0  0  0  0  0  0  0  0  0
   33.4191   -1.2892    0.0000 N   0  0  0  0  0  0  0  0  0  0  0  0
  2  1  1  1  0  0  0
  2  3  1  0  0  0  0
  3  4  2  0  0  0  0
  3  5  1  0  0  0  0
  6  5  1  6  0  0  0
  6  7  1  0  0  0  0
  7  8  1  0  0  0  0
  8  9  2  0  0  0  0
  8 10  1  0  0  0  0
  6 11  1  0  0  0  0
 11 12  2  0  0  0  0
 11 13  1  0  0  0  0
 14 13  1  1  0  0  0
 14 15  1  0  0  0  0
 15 16  1  0  0  0  0
 16 17  2  0  0  0  0
 16 18  1  0  0  0  0
 14 19  1  0  0  0  0
 19 20  2  0  0  0  0
 19 21  1  0  0  0  0
 21 22  1  0  0  0  0
 22 23  1  6  0  0  0
 22 24  1  0  0  0  0
 24 25  2  0  0  0  0
 24 26  1  0  0  0  0
 26 27  1  0  0  0  0
 27 28  1  0  0  0  0
 28 29  2  0  0  0  0
 28 30  1  0  0  0  0
 31 30  1  6  0  0  0
 31 32  1  0  0  0  0
 32 33  1  0  0  0  0
 33 34  1  0  0  0  0
 33 35  1  0  0  0  0
 31 36  1  0  0  0  0
 36 37  2  0  0  0  0
 36 38  1  0  0  0  0
 39 38  1  6  0  0  0
 39 40  1  0  0  0  0
 40 41  1  0  0  0  0
 40 42  1  0  0  0  0
 39 43  1  0  0  0  0
 43 44  2  0  0  0  0
 43 45  1  0  0  0  0
  2 46  1  0  0  0  0
 46 47  1  0  0  0  0
 47 48  2  0  0  0  0
 49 47  1  6  0  0  0
 49 50  1  0  0  0  0
 50 51  1  0  0  0  0
 51 52  1  0  0  0  0
 52 53  1  0  0  0  0
 49 53  1  0  0  0  0
 53 54  1  0  0  0  0
 54 55  2  0  0  0  0
 54 56  1  0  0  0  0
 56 57  1  0  0  0  0
 57 58  1  0  0  0  0
 58 59  1  0  0  0  0
 59 60  1  0  0  0  0
 60 61  1  0  0  0  0
 56 62  1  6  0  0  0
 62 63  1  0  0  0  0
 63 64  2  0  0  0  0
 63 65  1  0  0  0  0
 65 66  1  0  0  0  0
 66 67  1  0  0  0  0
 67 68  2  0  0  0  0
 69 67  1  6  0  0  0
 69 70  1  0  0  0  0
 70 71  1  0  0  0  0
 71 72  1  0  0  0  0
 72 73  1  0  0  0  0
 69 73  1  0  0  0  0
 73 74  1  0  0  0  0
 74 75  2  0  0  0  0
 76 74  1  6  0  0  0
 76 77  1  0  0  0  0
 77 78  1  0  0  0  0
 78 79  1  0  0  0  0
 79 80  1  0  0  0  0
 76 80  1  0  0  0  0
 80 81  1  0  0  0  0
 81 82  2  0  0  0  0
 83 81  1  6  0  0  0
 83 84  1  0  0  0  0
 84 85  1  0  0  0  0
 85 86  1  0  0  0  0
 86 87  1  0  0  0  0
 83 87  1  0  0  0  0
 87 88  1  0  0  0  0
 88 89  2  0  0  0  0
 88 90  1  0  0  0  0
 90 91  1  0  0  0  0
 91 92  1  0  0  0  0
 92 93  1  0  0  0  0
 93 94  2  0  0  0  0
 93 95  1  0  0  0  0
 90 96  1  1  0  0  0
 96 97  1  0  0  0  0
 97 98  2  0  0  0  0
 97 99  1  0  0  0  0
 99100  1  0  0  0  0
M  END
> <DATABASE_ID>
DB11882

> <DATABASE_NAME>
drugbank

> <SMILES>
CC(C)C[C@H](NC(=O)CNC(=O)[C@H](C)NC(=O)[C@H](CC(O)=O)NC(=O)[C@H](CC(O)=O)NC(=O)[C@H](C)NC(=O)[C@@H]1CCCN1C(=O)[C@H](CCCCN)NC(=O)CNC(=O)[C@@H]1CCCN1C(=O)[C@@H]1CCCN1C(=O)[C@@H]1CCCN1C(=O)[C@H](CCC(O)=O)NC(=O)CN)C(=O)N[C@@H](C(C)C)C(O)=O

> <INCHI_IDENTIFIER>
InChI=1S/C62H98N16O22/c1-31(2)25-37(55(92)74-50(32(3)4)62(99)100)71-46(81)29-65-51(88)33(5)67-53(90)38(26-48(84)85)73-54(91)39(27-49(86)87)72-52(89)34(6)68-57(94)41-15-10-21-75(41)58(95)35(13-7-8-20-63)70-45(80)30-66-56(93)40-14-9-22-76(40)60(97)43-17-12-24-78(43)61(98)42-16-11-23-77(42)59(96)36(18-19-47(82)83)69-44(79)28-64/h31-43,50H,7-30,63-64H2,1-6H3,(H,65,88)(H,66,93)(H,67,90)(H,68,94)(H,69,79)(H,70,80)(H,71,81)(H,72,89)(H,73,91)(H,74,92)(H,82,83)(H,84,85)(H,86,87)(H,99,100)/t33-,34-,35-,36-,37-,38-,39-,40-,41-,42-,43-,50-/m0/s1

> <INCHI_KEY>
HEEWEZGQMLZMFE-RKGINYAYSA-N

> <FORMULA>
C62H98N16O22

> <MOLECULAR_WEIGHT>
1419.556

> <EXACT_MASS>
1418.70415886

> <JCHEM_ACCEPTOR_COUNT>
24

> <JCHEM_ATOM_COUNT>
198

> <JCHEM_AVERAGE_POLARIZABILITY>
142.8014635208093

> <JCHEM_BIOAVAILABILITY>
0

> <JCHEM_DONOR_COUNT>
16

> <JCHEM_FORMAL_CHARGE>
0

> <JCHEM_GHOSE_FILTER>
0

> <JCHEM_IUPAC>
(4S)-5-[(2S)-2-[(2S)-2-[(2S)-2-[({[(2S)-6-amino-1-[(2S)-2-{[(1S)-1-{[(1S)-2-carboxy-1-{[(1S)-2-carboxy-1-{[(1S)-1-[({[(1S)-1-{[(1S)-1-carboxy-2-methylpropyl]carbamoyl}-3-methylbutyl]carbamoyl}methyl)carbamoyl]ethyl]carbamoyl}ethyl]carbamoyl}ethyl]carbamoyl}ethyl]carbamoyl}pyrrolidin-1-yl]-1-oxohexan-2-yl]carbamoyl}methyl)carbamoyl]pyrrolidine-1-carbonyl]pyrrolidine-1-carbonyl]pyrrolidin-1-yl]-4-(2-aminoacetamido)-5-oxopentanoic acid

> <ALOGPS_LOGP>
-2.63

> <JCHEM_LOGP>
-13.431878544743228

> <ALOGPS_LOGS>
-3.45

> <JCHEM_MDDR_LIKE_RULE>
1

> <JCHEM_NUMBER_OF_RINGS>
4

> <JCHEM_PHYSIOLOGICAL_CHARGE>
-2

> <JCHEM_PKA>
3.410070126564329

> <JCHEM_PKA_STRONGEST_ACIDIC>
2.957083472622021

> <JCHEM_PKA_STRONGEST_BASIC>
10.19620203294193

> <JCHEM_POLAR_SURFACE_AREA>
573.4799999999999

> <JCHEM_REFRACTIVITY>
342.77820000000014

> <JCHEM_ROTATABLE_BOND_COUNT>
39

> <JCHEM_RULE_OF_FIVE>
0

> <ALOGPS_SOLUBILITY>
5.08e-01 g/l

> <JCHEM_TRADITIONAL_IUPAC>
(4S)-5-[(2S)-2-[(2S)-2-[(2S)-2-[({[(2S)-6-amino-1-[(2S)-2-{[(1S)-1-{[(1S)-2-carboxy-1-{[(1S)-2-carboxy-1-{[(1S)-1-[({[(1S)-1-{[(1S)-1-carboxy-2-methylpropyl]carbamoyl}-3-methylbutyl]carbamoyl}methyl)carbamoyl]ethyl]carbamoyl}ethyl]carbamoyl}ethyl]carbamoyl}ethyl]carbamoyl}pyrrolidin-1-yl]-1-oxohexan-2-yl]carbamoyl}methyl)carbamoyl]pyrrolidine-1-carbonyl]pyrrolidine-1-carbonyl]pyrrolidin-1-yl]-4-(2-aminoacetamido)-5-oxopentanoic acid

> <JCHEM_VEBER_RULE>
0

> <DRUGBANK_ID>
DB11882

> <DRUG_GROUPS>
investigational

> <GENERIC_NAME>
BPC-157

> <SYNONYMS>
Bepecin

$$$$
