
  Mrv1652310211604582D          

 28 31  0  0  0  0            999 V2000
    2.0701    1.1104    0.0000 C   0  0  0  0  0  0  0  0  0  0  0  0
    1.3556    0.6979    0.0000 C   0  0  0  0  0  0  0  0  0  0  0  0
    0.6411    1.1104    0.0000 C   0  0  0  0  0  0  0  0  0  0  0  0
   -0.1435    0.8555    0.0000 C   0  0  0  0  0  0  0  0  0  0  0  0
   -0.6284    1.5229    0.0000 C   0  0  0  0  0  0  0  0  0  0  0  0
   -0.1435    2.1904    0.0000 N   0  0  0  0  0  0  0  0  0  0  0  0
    0.6411    1.9354    0.0000 C   0  0  0  0  0  0  0  0  0  0  0  0
    1.3556    2.3479    0.0000 C   0  0  0  0  0  0  0  0  0  0  0  0
    2.0701    1.9354    0.0000 C   0  0  0  0  0  0  0  0  0  0  0  0
    1.3556    3.1729    0.0000 C   0  0  0  0  0  0  0  0  0  0  0  0
    0.6411    3.5854    0.0000 O   0  0  0  0  0  0  0  0  0  0  0  0
    2.0701    3.5854    0.0000 N   0  0  0  0  0  0  0  0  0  0  0  0
    2.0701    4.4104    0.0000 C   0  0  0  0  0  0  0  0  0  0  0  0
    2.7845    4.8229    0.0000 C   0  0  0  0  0  0  0  0  0  0  0  0
    3.4990    4.4104    0.0000 N   0  0  0  0  0  0  0  0  0  0  0  0
    3.4990    3.5854    0.0000 C   0  0  0  0  0  0  0  0  0  0  0  0
    2.7845    3.1729    0.0000 C   0  0  0  0  0  0  0  0  0  0  0  0
    4.2135    4.8229    0.0000 C   0  0  0  0  0  0  0  0  0  0  0  0
    4.9279    4.4104    0.0000 C   0  0  0  0  0  0  0  0  0  0  0  0
    5.6424    4.8229    0.0000 C   0  0  0  0  0  0  0  0  0  0  0  0
    5.6424    5.6479    0.0000 C   0  0  0  0  0  0  0  0  0  0  0  0
    6.3569    6.0604    0.0000 C   0  0  0  0  0  0  0  0  0  0  0  0
    7.0714    5.6479    0.0000 C   0  0  0  0  0  0  0  0  0  0  0  0
    7.0714    4.8229    0.0000 C   0  0  0  0  0  0  0  0  0  0  0  0
    6.3569    4.4104    0.0000 C   0  0  0  0  0  0  0  0  0  0  0  0
    7.7858    6.0604    0.0000 F   0  0  0  0  0  0  0  0  0  0  0  0
   -0.3984    0.0709    0.0000 C   0  0  0  0  0  0  0  0  0  0  0  0
   -0.6534   -0.7137    0.0000 N   0  0  0  0  0  0  0  0  0  0  0  0
  1  2  1  0  0  0  0
  2  3  2  0  0  0  0
  3  4  1  0  0  0  0
  4  5  2  0  0  0  0
  5  6  1  0  0  0  0
  6  7  1  0  0  0  0
  3  7  1  0  0  0  0
  7  8  2  0  0  0  0
  8  9  1  0  0  0  0
  1  9  2  0  0  0  0
  8 10  1  0  0  0  0
 10 11  2  0  0  0  0
 10 12  1  0  0  0  0
 12 13  1  0  0  0  0
 13 14  1  0  0  0  0
 14 15  1  0  0  0  0
 15 16  1  0  0  0  0
 16 17  1  0  0  0  0
 12 17  1  0  0  0  0
 15 18  1  0  0  0  0
 18 19  1  0  0  0  0
 19 20  1  0  0  0  0
 20 21  2  0  0  0  0
 21 22  1  0  0  0  0
 22 23  2  0  0  0  0
 23 24  1  0  0  0  0
 24 25  2  0  0  0  0
 20 25  1  0  0  0  0
 23 26  1  0  0  0  0
  4 27  1  0  0  0  0
 27 28  3  0  0  0  0
M  END
> <DATABASE_ID>
DB13094

> <DATABASE_NAME>
drugbank

> <SMILES>
FC1=CC=C(CCN2CCN(CC2)C(=O)C2=C3NC=C(C#N)C3=CC=C2)C=C1

> <INCHI_IDENTIFIER>
InChI=1S/C22H21FN4O/c23-18-6-4-16(5-7-18)8-9-26-10-12-27(13-11-26)22(28)20-3-1-2-19-17(14-24)15-25-21(19)20/h1-7,15,25H,8-13H2

> <INCHI_KEY>
AQRLDDAFYYAIJP-UHFFFAOYSA-N

> <FORMULA>
C22H21FN4O

> <MOLECULAR_WEIGHT>
376.435

> <EXACT_MASS>
376.169939475

> <JCHEM_ACCEPTOR_COUNT>
3

> <JCHEM_ATOM_COUNT>
49

> <JCHEM_AVERAGE_POLARIZABILITY>
40.94505327963435

> <JCHEM_BIOAVAILABILITY>
1

> <JCHEM_DONOR_COUNT>
1

> <JCHEM_FORMAL_CHARGE>
0

> <JCHEM_GHOSE_FILTER>
1

> <JCHEM_IUPAC>
7-{4-[2-(4-fluorophenyl)ethyl]piperazine-1-carbonyl}-1H-indole-3-carbonitrile

> <ALOGPS_LOGP>
3.03

> <JCHEM_LOGP>
3.2290522606666654

> <ALOGPS_LOGS>
-4.30

> <JCHEM_MDDR_LIKE_RULE>
0

> <JCHEM_NUMBER_OF_RINGS>
4

> <JCHEM_PHYSIOLOGICAL_CHARGE>
1

> <JCHEM_PKA_STRONGEST_ACIDIC>
13.202253582307524

> <JCHEM_PKA_STRONGEST_BASIC>
7.045533325589986

> <JCHEM_POLAR_SURFACE_AREA>
63.13

> <JCHEM_REFRACTIVITY>
107.37200000000001

> <JCHEM_ROTATABLE_BOND_COUNT>
4

> <JCHEM_RULE_OF_FIVE>
1

> <ALOGPS_SOLUBILITY>
1.88e-02 g/l

> <JCHEM_TRADITIONAL_IUPAC>
pruvanserin

> <JCHEM_VEBER_RULE>
0

> <DRUGBANK_ID>
DB13094

> <DRUG_GROUPS>
investigational

> <GENERIC_NAME>
Pruvanserin

> <SYNONYMS>
Pruvanserin

$$$$
