
  Mrv1909 05201914272D          

 46 52  0  0  0  0            999 V2000
    4.8756   -1.4849    0.0000 C   0  0  0  0  0  0  0  0  0  0  0  0
    4.4124   -0.8022    0.0000 N   0  0  0  0  0  0  0  0  0  0  0  0
    3.5878   -0.7757    0.0000 N   0  0  0  0  0  0  0  0  0  0  0  0
    3.3582    0.0167    0.0000 C   0  0  0  0  0  0  0  0  0  0  0  0
    2.3303    0.4079    0.0000 C   0  0  0  0  0  0  0  0  0  0  0  0
    1.7439    0.9882    0.0000 S   0  0  0  0  0  0  0  0  0  0  0  0
    1.3545    1.7155    0.0000 C   0  0  0  0  0  0  0  0  0  0  0  0
    1.1969    2.5253    0.0000 C   0  0  0  0  0  0  0  0  0  0  0  0
    0.3896    2.3556    0.0000 N   0  0  0  0  0  0  0  0  0  0  0  0
   -0.0214    3.0710    0.0000 N   0  0  0  0  0  0  0  0  0  0  0  0
   -0.8416    3.1590    0.0000 C   0  0  0  0  0  0  0  0  0  0  0  0
    0.5320    3.6828    0.0000 C   0  0  0  0  0  0  0  0  0  0  0  0
    0.3623    4.4902    0.0000 C   0  0  0  0  0  0  0  0  0  0  0  0
    1.2850    3.3456    0.0000 C   0  0  0  0  0  0  0  0  0  0  0  0
    1.6109    4.1035    0.0000 C   0  0  0  0  0  0  0  0  0  0  0  0
    1.0020    4.6601    0.0000 C   0  0  0  0  0  0  0  0  0  0  0  0
    0.2193    4.9209    0.0000 Cl  0  0  0  0  0  0  0  0  0  0  0  0
    1.1795    5.4658    0.0000 C   0  0  0  0  0  0  0  0  0  0  0  0
    1.9660    5.7148    0.0000 C   0  0  0  0  0  0  0  0  0  0  0  0
    2.5750    5.1582    0.0000 C   0  0  0  0  0  0  0  0  0  0  0  0
    2.3974    4.3526    0.0000 C   0  0  0  0  0  0  0  0  0  0  0  0
    3.1088    3.9347    0.0000 N   0  0  0  0  0  0  0  0  0  0  0  0
    3.1889    3.1136    0.0000 C   0  0  0  0  0  0  0  0  0  0  0  0
    3.7260    4.4822    0.0000 C   0  0  0  0  0  0  0  0  0  0  0  0
    4.5316    4.3046    0.0000 C   0  0  0  0  0  0  0  0  0  0  0  0
    5.2492    4.7118    0.0000 O   0  0  0  0  0  0  0  0  0  0  0  0
    4.7807    3.5181    0.0000 O   0  0  0  0  0  0  0  0  0  0  0  0
    3.3961    5.2383    0.0000 C   0  0  0  0  0  0  0  0  0  0  0  0
    4.4623    5.3654    0.0000 C   0  0  0  0  0  0  0  0  0  0  0  0
    5.2424    5.0971    0.0000 C   0  0  0  0  0  0  0  0  0  0  0  0
    5.9088    4.6107    0.0000 C   0  0  0  0  0  0  0  0  0  0  0  0
    6.4022    3.9495    0.0000 O   0  0  0  0  0  0  0  0  0  0  0  0
    6.6787    3.1722    0.0000 C   0  0  0  0  0  0  0  0  0  0  0  0
    6.1923    2.5058    0.0000 C   0  0  0  0  0  0  0  0  0  0  0  0
    6.5262    1.7514    0.0000 C   0  0  0  0  0  0  0  0  0  0  0  0
    6.0693    0.8491    0.0000 S   0  0  0  0  0  0  0  0  0  0  0  0
    5.4469    0.3077    0.0000 C   0  0  0  0  0  0  0  0  0  0  0  0
    4.6924   -0.0262    0.0000 C   0  0  0  0  0  0  0  0  0  0  0  0
    4.0409    0.4799    0.0000 C   0  0  0  0  0  0  0  0  0  0  0  0
    7.3465    1.6634    0.0000 C   0  0  0  0  0  0  0  0  0  0  0  0
    7.8329    2.3297    0.0000 C   0  0  0  0  0  0  0  0  0  0  0  0
    7.4990    3.0841    0.0000 C   0  0  0  0  0  0  0  0  0  0  0  0
    7.9854    3.7505    0.0000 C   0  0  0  0  0  0  0  0  0  0  0  0
    8.8057    3.6624    0.0000 C   0  0  0  0  0  0  0  0  0  0  0  0
    9.1396    2.9080    0.0000 C   0  0  0  0  0  0  0  0  0  0  0  0
    8.6532    2.2417    0.0000 C   0  0  0  0  0  0  0  0  0  0  0  0
  1  2  1  0  0  0  0
  2  3  1  0  0  0  0
  3  4  2  0  0  0  0
  4  5  1  0  0  0  0
  5  6  1  0  0  0  0
  6  7  1  0  0  0  0
  7  8  1  0  0  0  0
  8  9  2  0  0  0  0
  9 10  1  0  0  0  0
 10 11  1  0  0  0  0
 10 12  1  0  0  0  0
 12 13  1  0  0  0  0
 12 14  2  0  0  0  0
  8 14  1  0  0  0  0
 14 15  1  0  0  0  0
 15 16  2  0  0  0  0
 16 17  1  0  0  0  0
 16 18  1  0  0  0  0
 18 19  2  0  0  0  0
 19 20  1  0  0  0  0
 20 21  2  0  0  0  0
 15 21  1  0  0  0  0
 21 22  1  0  0  0  0
 22 23  1  0  0  0  0
 22 24  1  0  0  0  0
 24 25  1  0  0  0  0
 25 26  1  0  0  0  0
 25 27  2  0  0  0  0
 24 28  2  0  0  0  0
 20 28  1  0  0  0  0
 28 29  1  0  0  0  0
 29 30  1  0  0  0  0
 30 31  1  0  0  0  0
 31 32  1  0  0  0  0
 32 33  1  0  0  0  0
 33 34  2  0  0  0  0
 34 35  1  0  0  0  0
 35 36  1  0  0  0  0
 36 37  1  0  0  0  0
 37 38  1  0  0  0  0
  2 38  1  0  0  0  0
 38 39  2  0  0  0  0
  4 39  1  0  0  0  0
 35 40  2  0  0  0  0
 40 41  1  0  0  0  0
 41 42  2  0  0  0  0
 33 42  1  0  0  0  0
 42 43  1  0  0  0  0
 43 44  2  0  0  0  0
 44 45  1  0  0  0  0
 45 46  2  0  0  0  0
 41 46  1  0  0  0  0
M  END
> <DATABASE_ID>
DB14792

> <DATABASE_NAME>
drugbank

> <SMILES>
CN1N=C2CSCC3=NN(C)C(CSC4=CC5=C(C=CC=C5)C(OCCCC5=C(N(C)C6=C5C=CC(Cl)=C6C2=C1C)C(O)=O)=C4)=C3

> <INCHI_IDENTIFIER>
InChI=1S/C35H34ClN5O3S2/c1-20-31-29(38-40(20)3)19-45-17-22-15-23(41(4)37-22)18-46-24-14-21-8-5-6-9-25(21)30(16-24)44-13-7-10-26-27-11-12-28(36)32(31)33(27)39(2)34(26)35(42)43/h5-6,8-9,11-12,14-16H,7,10,13,17-19H2,1-4H3,(H,42,43)

> <INCHI_KEY>
KBQCEQAXHPIRTF-UHFFFAOYSA-N

> <FORMULA>
C35H34ClN5O3S2

> <MOLECULAR_WEIGHT>
672.26

> <EXACT_MASS>
671.17916

> <JCHEM_ACCEPTOR_COUNT>
5

> <JCHEM_ATOM_COUNT>
80

> <JCHEM_AVERAGE_POLARIZABILITY>
69.94179317101784

> <JCHEM_BIOAVAILABILITY>
0

> <JCHEM_DONOR_COUNT>
1

> <JCHEM_FORMAL_CHARGE>
0

> <JCHEM_GHOSE_FILTER>
0

> <JCHEM_IUPAC>
17-chloro-5,13,14,22-tetramethyl-28-oxa-2,9-dithia-5,6,12,13,22-pentaazaheptacyclo[27.7.1.1^{4,7}.0^{11,15}.0^{16,21}.0^{20,24}.0^{30,35}]octatriaconta-1(36),4(38),6,11,14,16,18,20,23,29(37),30(35),31,33-tridecaene-23-carboxylic acid

> <ALOGPS_LOGP>
6.11

> <JCHEM_LOGP>
6.496702562201227

> <ALOGPS_LOGS>
-4.82

> <JCHEM_MDDR_LIKE_RULE>
0

> <JCHEM_NUMBER_OF_RINGS>
7

> <JCHEM_PHYSIOLOGICAL_CHARGE>
-1

> <JCHEM_PKA_STRONGEST_ACIDIC>
3.2411616873556333

> <JCHEM_PKA_STRONGEST_BASIC>
2.005450807968175

> <JCHEM_POLAR_SURFACE_AREA>
87.10000000000001

> <JCHEM_REFRACTIVITY>
211.6582999999999

> <JCHEM_ROTATABLE_BOND_COUNT>
1

> <JCHEM_RULE_OF_FIVE>
0

> <ALOGPS_SOLUBILITY>
1.02e-02 g/l

> <JCHEM_TRADITIONAL_IUPAC>
(2R)-14-fluoro-2-methyl-6,9,10,19-tetraazapentacyclo[14.2.1.0^{2,6}.0^{8,18}.0^{12,17}]nonadeca-1(18),8,12(17),13,15-pentaen-11-one

> <JCHEM_VEBER_RULE>
0

> <DRUGBANK_ID>
DB14792

> <DRUG_GROUPS>
investigational

> <GENERIC_NAME>
AZD-5991

$$$$
