
  Mrv1909 07102021182D          

  1  0  0  0  0  0            999 V2000
    0.0000    0.0000    0.0000 Mn  0  2  0  0  0  0  0  0  0  0  0  0
M  CHG  1   1   2
M  END
> <DATABASE_ID>
DB06757

> <DATABASE_NAME>
drugbank

> <SMILES>
[Mn++]

> <INCHI_IDENTIFIER>
InChI=1S/Mn/q+2

> <INCHI_KEY>
WAEMQWOKJMHJLA-UHFFFAOYSA-N

> <FORMULA>
Mn

> <MOLECULAR_WEIGHT>
54.938

> <EXACT_MASS>
54.938049636

> <JCHEM_ACCEPTOR_COUNT>
0

> <JCHEM_ATOM_COUNT>
1

> <JCHEM_AVERAGE_NEUTRAL_MICROSPECIES_CHARGE>
2.0

> <JCHEM_AVERAGE_POLARIZABILITY>
1.7784

> <JCHEM_BIOAVAILABILITY>
1

> <JCHEM_DONOR_COUNT>
0

> <JCHEM_FORMAL_CHARGE>
2

> <JCHEM_GHOSE_FILTER>
0

> <JCHEM_IUPAC>
manganese(2+) ion

> <JCHEM_LOGP>
-0.156

> <JCHEM_MDDR_LIKE_RULE>
0

> <JCHEM_NEUTRAL_CHARGE>
2

> <JCHEM_NUMBER_OF_RINGS>
0

> <JCHEM_PHYSIOLOGICAL_CHARGE>
2

> <JCHEM_PKA>
3.55

> <JCHEM_PKA_STRONGEST_ACIDIC>
3.09

> <JCHEM_POLAR_SURFACE_AREA>
0.0

> <JCHEM_REFRACTIVITY>
0.0

> <JCHEM_ROTATABLE_BOND_COUNT>
0

> <JCHEM_RULE_OF_FIVE>
1

> <JCHEM_TRADITIONAL_IUPAC>
ergosterol

> <JCHEM_VEBER_RULE>
1

> <DRUGBANK_ID>
DB06757

> <DRUG_GROUPS>
approved; nutraceutical

> <GENERIC_NAME>
Manganese

> <PRODUCTS>
24 Multivitamins + Minerals; 50 Plus Multiple Vitamins & Minerals; A.R.T.H. Away Formula; A/o-26 - Caplet; Acti-MN + B1 + C Caplet; Addamel N; Addnutriv; Adrenergy Tablets; Adult Formula 50+; Advanced 2000 Capsules; Advanced B & T Formula; Alkadrenergy Tablets; Alphaligo; Amd; Armax; B & J Formula Dietary Supplement; B.E.T. Complex; Balance Ace - Cap; Bio-plex Tab 0.95mg; Body Rox; C. Vit-min Formula; C.H.V. Formula; Cal Mag Plus - Tab; Calcium & Magnesium Citrate Plus D With Manganese, Potassium & Zinc; Calcium & Magnesium Plus Potassium, Zinc, & Manganese; Calcium & Magnesium With Potassium, Zinc, Manganese & Vitamin D; Calcium Complex High Grade; Calcium Plus; Calcium With Mg Zn Mn Cu CR Si and Vit. C & D; Calcium and Magnesium 1:1 Plus Tablets; Card-floe II Tab; Carti-aide Tab; Cell-wise; Cell-wise Natural Source; Cellular Formula; Centratex; Chela Iron Plus C,b Complex; Chela Zinc Plus; Chela-chromium 200; Chela-manganese 50 Plus; Chelamins Plus Tab; Chelapro; Chelated Manganese Tablets - 5mg; Chelazome Manganese Cap 15mg; Chewable Calcium Plus Magnesium and Minerals; Children's Chewable Tab; Children's Chewable Vit and Min Tab; Chromium Plus; Classic Swiss One 10 Multivitamin and Mineral Tab; Cmp Plex; Coen.q10w.vit.c and E Beta-car.se Cu Zn Mn; Complete Multivitamins and Minerals Tablets Timed Release; Complete One A Day Tab; Complete One-A-day - Tab; Concept OB; Cps Capsules; Daily Energy Brand Vitamin & Mineral Drink Mix; Dayavite; Defense Caplets; Diacomp - Cap; Doctor's Choice Brand for Men; Dp 2000; Efferlife Multivitamins and Minerals; Ellis Tonic; Envirocomplex; Extra Once A Day; Fem Time Tab; Foliflex; Folitin-Z; Folivane-OB; For-2; Formula Ant-cel; Formula BP; Formula EC; Formula F L W; Formula Fe-vitamin and Mineral Tab; Formula Gly; Formula Gm; Formula Hh; Formula O-care Vitamin and Mineral Supplement; Formula O.C.; Formula Osg; Fusion PM Formula Tab; Glyco Lite Ect; Glyco Plus Ect; Glyco-aide Tab; Grand Master Formula Tab; Great Day/am Formula Tab; Guardyn Tab; Hemocyte Plus; Hi Potency B Complex W Chelated Minerals; Hi Potency Multi Tab; High Potency Multivitamins & Minerals Caplets; Hsn Formula; Hvp Chelated Manganese 30mg; Hypo Vites Tab; Hyporyl - Tab; IV-8 Formula; Icaps; Inhibitol - Tab; Innersource Tab; Iron Plus Tab; Isotonix Multitech Vitamin Mineral Supplemen; Itabs Plus; J.T. Formula; K.L. Vitamin-mineral; Kanga-V Multivitamins & Minerals; L.G.I.T.; Liquid Opti-minplex +d; Longevit-E - Capsule; Luna Vitamin and Mineral Bar for Women; M T E 4 Concentrate Inj; M.T.E.-4; M.T.E.-4 Concentrated; M.T.E.-6 Concentrated; Magnacal; Magnum-75 Vitamin and Mineral Supplement; Maintain Multiple Vitamin & Minerals; Mangadyn; Manganese; Manganese 30mg - Tab; Manganese 50mg Plus B1 & E Tab; Manganese Chelate Tab 15mg; Manganese Chelated Tab 50mg; Manganese Sulfate; Master Key Multi Vitamin Multi Mineral Formula 2; Materna; Materna - Tab; Materna-tab; Maximum Once A Day; Maxine Vitamin and Mineral Supplement; Maxum Multi-vite; Mega Balance; Mega Min Capsules; Mega Multiple Minerals; Mega Plex III - Pck; Mega Plex IV - Pck; Mega Vitaminerals; Mega-vim 75 With Beta-carotene - Tablets; Megavite Rx; Men's; Men's 50+; Men's Biomultiple Vitamin and Mineral Supplement; Micro Mn; Micro Plus 4 Concentrate; Micro Plus 4 Regular Strength; Micro Plus 5 Concentrate; Micro Plus 6 (concentrate); Micro Plus 6 (pediatric); Micro Plus 6 (regular); Micro+6 Concentrate; Milltrium Senior Vitamin and Mineral Supplement; Mineral Support; Mineralex; Mte 4 Inj; Multi Cal Mag Liquid; Multi Flow Tablets; Multi II IV Vi Tab; Multi Mega Minerals With Vitamin D; Multi Mins Liquid; Multi Plex I - Tab; Multi Plex II - Tab; Multi Spectrum - Tablet; Multi Tabs; Multi Vitamin - Mineral; Multi Vitamin and Mineral vitamin; Multi-actin; Multi-mins Minerals; Multicaps; Multimineral Chelates; Multimineral Tablets; Multiminerals; Multipack II; Multiple Minerals; Multiple Trace Metal Additive Solution; Multiple Vitamins and Minerals; Multiple Vitamins and Minerals Capsules; Multitabs; Multitam; Multitrace -4; Multitrace -4 Pediatric; Multitrace-4; Multitrace-4 Neonatal; Multitrace-5; Multivitamin & Minerals (iron Free); Multivitamin & Multimineral; Multivitamins and Minerals Tablets; Multivitamins and Minerals With Betacarotene Tablets; Multivitamins and Minerals for Men; Multivitamins and Minerals for Women; Multra Plex; Multra With Iron; Multrys; N.U.T. Complex; Natural Liquid Mineral Supplement; Natural Source Spectrum With Beta Carotene; Nitro Vites - Tab; Nutra Boost; Nutra-clear; Nutrilite Double X; Oligofer Liq; Oligostim Manganese-cobalt; Olympian Multi Vit Plus Minerals Tab; Onccor; One A Day Advance Adults; One A Day Advance Adults 50+; One A Day Multiple Vit W Minerals; One A Day Tab; One Daily Vitamin and Mineral Dietary Supplement; One Per Day Vitamin and Mineral Dietary Supplement; One Tablet Daily Mens Formula; One-A-day Advance Men's; Only One - Tablet; Onyx; Opti-manganese + B1 + C Caplet; Osteo Factors; Osteo Formula; Osteo Regime; Osteo-force; Osteoshield; Ostogen Tab 6mg; Ostrophin Pmg Tab 4mg; Peditrace; Pnv-VP-U; Premium Prenatal; Premium Prenatal - Tablets; Prenatal Formula Tab; Prenatal Supplement - Tab; Prenatal Vi-min; Prenatal Vitamin and Mineral Supplement; Prenatal Vitamin and Mineral Supplement -tab; Prenatal Vitamin and Mineral Supplement Tab; Prenatal Vitamins and Minerals Tablets; Prenatal and Post Partum Supplement; Prenatrix; Prenatryl; Pretrate; Prim - Royal P.M.T.; Pro Hers Vanilla; Pro Pcos Citrus; Procosa II; Prometa; Protect Plus SO 60; Pure Calcium calcium; PureFe OB Plus; PureFe Plus; PureVit DualFe Plus; RE FAC-x; Revit Multi-vitamins and Minerals; Revitalize Multi-vitamin and Mineral Complex; Ribotin-E; Right Choice P.M. Multi Formula - Caplet; Rocky Mountain Multiple Vit and Min Mega Tab; Se-Tan PLUS; Senior Multi One; Somavit Brand Vitamins and Minerals Complex; Spark Cap; Spectrum 2 Cap; Spectrum Performa Multivitamins and Minerals Tablets; Strovite One Caplets; Super Cal Mag Plus; Super Multi; Swical-energy 3e Age; Swiss One; Swiss One Multi Vit & Chel Min Tab; Swiss One Multivitamin and Mineral Caplet; Swiss Total One; Synergistic Manganese Cap; Synergistic Manganese Capsules; Tandem Plus; Total Living Concepts Formula One - Tab; Totalvit Plus; Trace Elements 4; Trace Elements Injection USP; Trace Elements Solution Inj; Trace Elements for Injection - Liq IV; Trace Minerals Et/and B12 Tab; Tralement; Twin G.F. Powder; Twin G.F. Powder Vanilla Flavor; Twin Opti Pwr; Ultimate Tab; Usana Multimineral Tablets; Usana Multimineral Tablets - Tab; Usana Procosa Tablets; V & M Vitamin and Mineral Supplement; Vege Swiss One Multivitamin W Chel Mins Tab; Venexa; Venexa FE; Ventrixyl; Ventrixyl Fe; Vimeral Tab; Vita Balance 2000; Vitalife - Capsule; Vitality Brand Calcium Plus Tab; Vitamin & Mineral Formula 1 Dietary Supplement; Vitramyn; Vitranol; Vitranol Fe; Vitrexate; Vitrexate FE; Vitrexyl; Vitrexyl plus Iron; Vtb Vitamin and Mineral Supplement; Women's Biomultiple Vitamin and Mineral Supplement; Zintrexyl-C; Zymain Tab; arthronSAN

> <SALTS>
Manganese chloride; Manganese chloride tetrahydrate; Manganese sulfate

$$$$
