
  Mrv1909 12102016332D          

 35 38  0  0  0  0            999 V2000
   -5.3549    0.1130    0.0000 N   0  0  0  0  0  0  0  0  0  0  0  0
   -5.3549   -0.7119    0.0000 C   0  0  0  0  0  0  0  0  0  0  0  0
   -4.6428   -1.1202    0.0000 N   0  0  0  0  0  0  0  0  0  0  0  0
   -4.6428    0.5297    0.0000 C   0  0  0  0  0  0  0  0  0  0  0  0
   -3.9308    0.1130    0.0000 C   0  0  0  0  0  0  0  0  0  0  0  0
   -3.9344   -0.7119    0.0000 C   0  0  0  0  0  0  0  0  0  0  0  0
   -2.5100   -0.7180    0.0000 N   0  0  0  0  0  0  0  0  0  0  0  0
   -2.5065    0.1069    0.0000 C   0  0  0  0  0  0  0  0  0  0  0  0
   -3.2192    0.5270    0.0000 N   0  0  0  0  0  0  0  0  0  0  0  0
   -6.0705    0.5234    0.0000 C   0  0  0  0  0  0  0  0  0  0  0  0
   -4.6420   -1.9452    0.0000 C   0  0  0  0  0  0  0  0  0  0  0  0
   -1.7893    0.5146    0.0000 Cl  0  0  0  0  0  0  0  0  0  0  0  0
   -6.0687   -1.1254    0.0000 O   0  0  0  0  0  0  0  0  0  0  0  0
   -4.6428    1.3547    0.0000 O   0  0  0  0  0  0  0  0  0  0  0  0
    0.3644   -0.8244    0.0000 C   0  0  0  0  0  0  0  0  0  0  0  0
    0.3633   -1.6517    0.0000 C   0  0  0  0  0  0  0  0  0  0  0  0
    1.0781   -2.0646    0.0000 C   0  0  0  0  0  0  0  0  0  0  0  0
    1.7945   -1.6513    0.0000 C   0  0  0  0  0  0  0  0  0  0  0  0
    1.7917   -0.8207    0.0000 C   0  0  0  0  0  0  0  0  0  0  0  0
    1.0763   -0.4116    0.0000 C   0  0  0  0  0  0  0  0  0  0  0  0
    2.5046   -0.4055    0.0000 C   0  0  0  0  0  0  0  0  0  0  0  0
    3.2206   -0.8153    0.0000 O   0  0  0  0  0  0  0  0  0  0  0  0
    2.5015    0.4194    0.0000 C   0  0  0  0  0  0  0  0  0  0  0  0
    3.2162    0.8297    0.0000 C   0  0  0  0  0  0  0  0  0  0  0  0
    3.2134    1.6539    0.0000 C   0  0  0  0  0  0  0  0  0  0  0  0
    2.4968    2.0646    0.0000 C   0  0  0  0  0  0  0  0  0  0  0  0
    1.7816    1.6450    0.0000 C   0  0  0  0  0  0  0  0  0  0  0  0
    1.7879    0.8221    0.0000 C   0  0  0  0  0  0  0  0  0  0  0  0
    3.9325   -0.3952    0.0000 C   0  0  0  0  0  0  0  0  0  0  0  0
    4.6522   -0.8039    0.0000 C   0  0  0  0  0  0  0  0  0  0  0  0
    5.3620   -0.3873    0.0000 C   0  0  0  0  0  0  0  0  0  0  0  0
    5.3584    0.4395    0.0000 N   0  0  0  0  0  0  0  0  0  0  0  0
    4.6388    0.8482    0.0000 C   0  0  0  0  0  0  0  0  0  0  0  0
    3.9227    0.4299    0.0000 C   0  0  0  0  0  0  0  0  0  0  0  0
    6.0705    0.8561    0.0000 C   0  0  0  0  0  0  0  0  0  0  0  0
  5  4  1  0  0  0  0
  3 11  1  0  0  0  0
  5  6  2  0  0  0  0
  8 12  1  0  0  0  0
  2 13  2  0  0  0  0
  1  2  1  0  0  0  0
  4 14  2  0  0  0  0
  1  4  1  0  0  0  0
  2  3  1  0  0  0  0
  7  8  2  0  0  0  0
  8  9  1  0  0  0  0
  9  5  1  0  0  0  0
  6  7  1  0  0  0  0
  3  6  1  0  0  0  0
  1 10  1  0  0  0  0
 16 17  1  0  0  0  0
 17 18  2  0  0  0  0
 18 19  1  0  0  0  0
 19 20  2  0  0  0  0
 20 15  1  0  0  0  0
 19 21  1  0  0  0  0
 21 22  1  0  0  0  0
 21 23  1  0  0  0  0
 23 24  2  0  0  0  0
 24 25  1  0  0  0  0
 25 26  2  0  0  0  0
 26 27  1  0  0  0  0
 27 28  2  0  0  0  0
 28 23  1  0  0  0  0
 22 29  1  0  0  0  0
 29 30  1  0  0  0  0
 15 16  2  0  0  0  0
 29 34  1  0  0  0  0
 30 31  1  0  0  0  0
 31 32  1  0  0  0  0
 32 33  1  0  0  0  0
 33 34  1  0  0  0  0
 32 35  1  0  0  0  0
M  END
> <DATABASE_ID>
DB15987

> <DATABASE_NAME>
drugbank

> <SMILES>
CN1C2=C(NC(Cl)=N2)C(=O)N(C)C1=O.CN1CCC(CC1)OC(C1=CC=CC=C1)C1=CC=CC=C1

> <INCHI_IDENTIFIER>
InChI=1S/C19H23NO.C7H7ClN4O2/c1-20-14-12-18(13-15-20)21-19(16-8-4-2-5-9-16)17-10-6-3-7-11-17;1-11-4-3(9-6(8)10-4)5(13)12(2)7(11)14/h2-11,18-19H,12-15H2,1H3;1-2H3,(H,9,10)

> <INCHI_KEY>
JSNIFGPPGAINSG-UHFFFAOYSA-N

> <FORMULA>
C26H30ClN5O3

> <MOLECULAR_WEIGHT>
496.01

> <EXACT_MASS>
495.2037175

> <JCHEM_ACCEPTOR_COUNT>
2

> <JCHEM_ATOM_COUNT>
65

> <JCHEM_AVERAGE_NEUTRAL_MICROSPECIES_CHARGE>
0.9867220559689638

> <JCHEM_AVERAGE_POLARIZABILITY>
32.35059898236209

> <JCHEM_BIOAVAILABILITY>
1

> <JCHEM_DONOR_COUNT>
0

> <JCHEM_FORMAL_CHARGE>
0

> <JCHEM_GHOSE_FILTER>
0

> <JCHEM_IUPAC>
4-(diphenylmethoxy)-1-methylpiperidine; 8-chloro-1,3-dimethyl-2,3,6,7-tetrahydro-1H-purine-2,6-dione

> <ALOGPS_LOGP>
0.84

> <JCHEM_LOGP>
3.6600688666666668

> <ALOGPS_LOGS>
-1.36

> <JCHEM_MDDR_LIKE_RULE>
0

> <JCHEM_NEUTRAL_CHARGE>
1

> <JCHEM_NUMBER_OF_RINGS>
5

> <JCHEM_PHYSIOLOGICAL_CHARGE>
1

> <JCHEM_PKA_STRONGEST_BASIC>
8.871064002267847

> <JCHEM_POLAR_SURFACE_AREA>
12.47

> <JCHEM_REFRACTIVITY>
87.35900000000001

> <JCHEM_ROTATABLE_BOND_COUNT>
4

> <JCHEM_RULE_OF_FIVE>
1

> <ALOGPS_SOLUBILITY>
9.41e+00 g/l

> <JCHEM_TRADITIONAL_IUPAC>
piprinhydrinate

> <JCHEM_VEBER_RULE>
1

> <DRUGBANK_ID>
DB15987

> <DRUG_GROUPS>
experimental

> <GENERIC_NAME>
Piprinhydrinate

> <SYNONYMS>
Diphenylpyraline 8-chlorotheophyllinate; Diphenylpyraline teoclate; Piprinhidrinato; Piprinhydrinate; Piprinhydrinatum

$$$$
