
  Mrv1909 05201914292D          

 60 64  0  0  0  0            999 V2000
    4.2217  -12.5175    0.0000 C   0  0  0  0  0  0  0  0  0  0  0  0
    5.0013  -12.7875    0.0000 O   0  0  0  0  0  0  0  0  0  0  0  0
    5.6249  -12.2474    0.0000 C   0  0  0  0  0  0  0  0  0  0  0  0
    6.4045  -12.5175    0.0000 C   0  0  0  0  0  0  0  0  0  0  0  0
    7.0281  -11.9774    0.0000 O   0  0  0  0  0  0  0  0  0  0  0  0
    7.8077  -12.2474    0.0000 C   0  0  0  0  0  0  0  0  0  0  0  0
    8.4313  -11.7073    0.0000 C   0  0  0  0  0  0  0  0  0  0  0  0
    9.2109  -11.9774    0.0000 O   0  0  0  0  0  0  0  0  0  0  0  0
    9.3668  -12.7875    0.0000 C   0  0  0  0  0  0  0  0  0  0  0  0
   10.1463  -13.0575    0.0000 C   0  0  0  0  0  0  0  0  0  0  0  0
   10.7700  -12.5175    0.0000 N   0  0  0  0  0  0  0  0  0  0  0  0
   11.5495  -12.7875    0.0000 C   0  0  0  0  0  0  0  0  0  0  0  0
   11.7054  -13.5976    0.0000 O   0  0  0  0  0  0  0  0  0  0  0  0
   12.1732  -12.2474    0.0000 C   0  0  0  0  0  0  0  0  0  0  0  0
   12.0173  -11.4373    0.0000 C   0  0  0  0  0  0  0  0  0  0  0  0
   12.6409  -10.8972    0.0000 C   0  0  0  0  0  0  0  0  0  0  0  0
   13.4205  -11.1672    0.0000 C   0  0  0  0  0  0  0  0  0  0  0  0
   13.5764  -11.9774    0.0000 C   0  0  0  0  0  0  0  0  0  0  0  0
   14.3559  -12.2474    0.0000 N   0  0  0  0  0  0  0  0  0  0  0  0
   14.9796  -11.7073    0.0000 C   0  0  0  0  0  0  0  0  0  0  0  0
   14.8236  -10.8972    0.0000 N   0  0  0  0  0  0  0  0  0  0  0  0
   15.4473  -10.3571    0.0000 C   0  0  0  0  0  0  0  0  0  0  0  0
   16.2268  -10.6271    0.0000 C   0  0  0  0  0  0  0  0  0  0  0  0
   16.3828  -11.4373    0.0000 C   0  0  0  0  0  0  0  0  0  0  0  0
   17.1623  -11.7073    0.0000 O   0  0  0  0  0  0  0  0  0  0  0  0
   17.3182  -12.5175    0.0000 C   0  0  0  0  0  0  0  0  0  0  0  0
   18.0978  -12.7875    0.0000 C   0  0  0  0  0  0  0  0  0  0  0  0
   18.7214  -12.2474    0.0000 C   0  0  0  0  0  0  0  0  0  0  0  0
   19.5010  -12.5175    0.0000 C   0  0  0  0  0  0  0  0  0  0  0  0
   19.6569  -13.3276    0.0000 C   0  0  0  0  0  0  0  0  0  0  0  0
   19.0332  -13.8677    0.0000 C   0  0  0  0  0  0  0  0  0  0  0  0
   18.2537  -13.5976    0.0000 C   0  0  0  0  0  0  0  0  0  0  0  0
   17.6300  -14.1377    0.0000 C   0  0  0  0  0  0  0  0  0  0  0  0
   17.7859  -14.9479    0.0000 N   0  0  0  0  0  0  0  0  0  0  0  0
   18.5655  -15.2179    0.0000 C   0  0  0  0  0  0  0  0  0  0  0  0
   19.1891  -14.6778    0.0000 O   0  0  0  0  0  0  0  0  0  0  0  0
   18.7214  -16.0280    0.0000 N   0  0  0  0  0  0  0  0  0  0  0  0
   19.5010  -16.2981    0.0000 C   0  0  0  0  0  0  0  0  0  0  0  0
   20.1246  -15.7580    0.0000 C   0  0  0  0  0  0  0  0  0  0  0  0
   20.9042  -16.0280    0.0000 C   0  0  0  0  0  0  0  0  0  0  0  0
   21.0601  -16.8382    0.0000 C   0  0  0  0  0  0  0  0  0  0  0  0
   20.4364  -17.3783    0.0000 C   0  0  0  0  0  0  0  0  0  0  0  0
   20.5923  -18.1884    0.0000 N   0  0  0  0  0  0  0  0  0  0  0  0
   21.3719  -18.4584    0.0000 S   0  0  0  0  0  0  0  0  0  0  0  0
   22.1514  -18.7285    0.0000 C   0  0  0  0  0  0  0  0  0  0  0  0
   21.1018  -19.2380    0.0000 O   0  0  0  0  0  0  0  0  0  0  0  0
   21.6419  -17.6789    0.0000 O   0  0  0  0  0  0  0  0  0  0  0  0
   19.6569  -17.1082    0.0000 C   0  0  0  0  0  0  0  0  0  0  0  0
   19.0332  -17.6483    0.0000 O   0  0  0  0  0  0  0  0  0  0  0  0
   18.2537  -17.3783    0.0000 C   0  0  0  0  0  0  0  0  0  0  0  0
   21.5278  -15.4879    0.0000 C   0  0  0  0  0  0  0  0  0  0  0  0
   22.1514  -14.9479    0.0000 C   0  0  0  0  0  0  0  0  0  0  0  0
   22.0679  -16.1116    0.0000 C   0  0  0  0  0  0  0  0  0  0  0  0
   20.9877  -14.8643    0.0000 C   0  0  0  0  0  0  0  0  0  0  0  0
   16.8505  -13.8677    0.0000 C   0  0  0  0  0  0  0  0  0  0  0  0
   16.6946  -13.0575    0.0000 C   0  0  0  0  0  0  0  0  0  0  0  0
   15.7591  -11.9774    0.0000 N   0  0  0  0  0  0  0  0  0  0  0  0
   12.9527  -12.5175    0.0000 C   0  0  0  0  0  0  0  0  0  0  0  0
   12.4850  -10.0871    0.0000 C   0  0  0  0  0  0  0  0  0  0  0  0
   12.3291   -9.2769    0.0000 C   0  0  0  0  0  0  0  0  0  0  0  0
  1  2  1  0  0  0  0
  2  3  1  0  0  0  0
  3  4  1  0  0  0  0
  4  5  1  0  0  0  0
  5  6  1  0  0  0  0
  6  7  1  0  0  0  0
  7  8  1  0  0  0  0
  8  9  1  0  0  0  0
  9 10  1  0  0  0  0
 10 11  1  0  0  0  0
 11 12  1  0  0  0  0
 12 13  2  0  0  0  0
 12 14  1  0  0  0  0
 14 15  2  0  0  0  0
 15 16  1  0  0  0  0
 16 17  2  0  0  0  0
 17 18  1  0  0  0  0
 18 19  1  0  0  0  0
 19 20  1  0  0  0  0
 20 21  2  0  0  0  0
 21 22  1  0  0  0  0
 22 23  2  0  0  0  0
 23 24  1  0  0  0  0
 24 25  1  0  0  0  0
 25 26  1  0  0  0  0
 26 27  2  0  0  0  0
 27 28  1  0  0  0  0
 28 29  2  0  0  0  0
 29 30  1  0  0  0  0
 30 31  2  0  0  0  0
 31 32  1  0  0  0  0
 27 32  1  0  0  0  0
 32 33  2  0  0  0  0
 33 34  1  0  0  0  0
 34 35  1  0  0  0  0
 35 36  2  0  0  0  0
 35 37  1  0  0  0  0
 37 38  1  0  0  0  0
 38 39  2  0  0  0  0
 39 40  1  0  0  0  0
 40 41  2  0  0  0  0
 41 42  1  0  0  0  0
 42 43  1  0  0  0  0
 43 44  1  0  0  0  0
 44 45  1  0  0  0  0
 44 46  2  0  0  0  0
 44 47  2  0  0  0  0
 42 48  2  0  0  0  0
 38 48  1  0  0  0  0
 48 49  1  0  0  0  0
 49 50  1  0  0  0  0
 40 51  1  0  0  0  0
 51 52  1  0  0  0  0
 51 53  1  0  0  0  0
 51 54  1  0  0  0  0
 33 55  1  0  0  0  0
 55 56  2  0  0  0  0
 26 56  1  0  0  0  0
 24 57  2  0  0  0  0
 20 57  1  0  0  0  0
 18 58  2  0  0  0  0
 14 58  1  0  0  0  0
 16 59  1  0  0  0  0
 59 60  3  0  0  0  0
M  END
> <DATABASE_ID>
DB14839

> <DATABASE_NAME>
drugbank

> <SMILES>
COCCOCCOCCNC(=O)C1=CC(=CC(NC2=NC=CC(OC3=C4C=CC=CC4=C(NC(=O)NC4=CC(=CC(NS(C)(=O)=O)=C4OC)C(C)(C)C)C=C3)=N2)=C1)C#C

> <INCHI_IDENTIFIER>
InChI=1S/C43H49N7O9S/c1-8-28-23-29(40(51)44-17-18-57-21-22-58-20-19-55-5)25-31(24-28)46-41-45-16-15-38(49-41)59-37-14-13-34(32-11-9-10-12-33(32)37)47-42(52)48-35-26-30(43(2,3)4)27-36(39(35)56-6)50-60(7,53)54/h1,9-16,23-27,50H,17-22H2,2-7H3,(H,44,51)(H,45,46,49)(H2,47,48,52)

> <INCHI_KEY>
FWXVGKSWZJEPQI-UHFFFAOYSA-N

> <FORMULA>
C43H49N7O9S

> <MOLECULAR_WEIGHT>
839.97

> <EXACT_MASS>
839.33124736

> <JCHEM_ACCEPTOR_COUNT>
11

> <JCHEM_ATOM_COUNT>
109

> <JCHEM_AVERAGE_POLARIZABILITY>
90.54891309700275

> <JCHEM_BIOAVAILABILITY>
0

> <JCHEM_DONOR_COUNT>
5

> <JCHEM_FORMAL_CHARGE>
0

> <JCHEM_GHOSE_FILTER>
0

> <JCHEM_IUPAC>
3-({4-[(4-{[(5-tert-butyl-3-methanesulfonamido-2-methoxyphenyl)carbamoyl]amino}naphthalen-1-yl)oxy]pyrimidin-2-yl}amino)-5-ethynyl-N-{2-[2-(2-methoxyethoxy)ethoxy]ethyl}benzamide

> <ALOGPS_LOGP>
5.40

> <JCHEM_LOGP>
5.242827381000001

> <ALOGPS_LOGS>
-5.74

> <JCHEM_MDDR_LIKE_RULE>
1

> <JCHEM_NUMBER_OF_RINGS>
5

> <JCHEM_PHYSIOLOGICAL_CHARGE>
0

> <JCHEM_PKA>
10.595644231790246

> <JCHEM_PKA_STRONGEST_ACIDIC>
7.585341189651181

> <JCHEM_PKA_STRONGEST_BASIC>
2.0546230602962896

> <JCHEM_POLAR_SURFACE_AREA>
200.35999999999996

> <JCHEM_REFRACTIVITY>
228.244

> <JCHEM_ROTATABLE_BOND_COUNT>
19

> <JCHEM_RULE_OF_FIVE>
0

> <ALOGPS_SOLUBILITY>
1.53e-03 g/l

> <JCHEM_TRADITIONAL_IUPAC>
(2R)-14-fluoro-2-methyl-6,9,10,19-tetraazapentacyclo[14.2.1.0^{2,6}.0^{8,18}.0^{12,17}]nonadeca-1(18),8,12(17),13,15-pentaen-11-one

> <JCHEM_VEBER_RULE>
0

> <DRUGBANK_ID>
DB14839

> <DRUG_GROUPS>
investigational

> <GENERIC_NAME>
TOP-1288

$$$$
