
  Mrv1909 08272118362D          

105111  0  0  0  0            999 V2000
    0.7261   -2.3537    0.0000 C   0  0  2  0  0  0  0  0  0  0  0  0
   -0.5126   -1.6396    0.0000 C   0  0  1  0  0  0  0  0  0  0  0  0
   -0.0947   -2.3537    0.0000 C   0  0  1  0  0  0  0  0  0  0  0  0
   -2.4557   -2.7764    0.0000 C   0  0  1  0  0  0  0  0  0  0  0  0
   -2.0477   -2.0622    0.0000 C   0  0  1  0  0  0  0  0  0  0  0  0
   -3.2817   -2.7764    0.0000 C   0  0  2  0  0  0  0  0  0  0  0  0
   -1.3335   -1.6396    0.0000 O   0  0  0  0  0  0  0  0  0  0  0  0
    1.4403   -2.7617    0.0000 O   0  0  0  0  0  0  0  0  0  0  0  0
    1.8484   -3.4760    0.0000 C   0  0  1  0  0  0  0  0  0  0  0  0
   -3.7043   -2.0622    0.0000 C   0  0  2  0  0  0  0  0  0  0  0  0
    1.1441   -1.6396    0.0000 C   0  0  2  0  0  0  0  0  0  0  0  0
   -0.0947   -0.9254    0.0000 C   0  0  1  0  0  0  0  0  0  0  0  0
    2.6791   -3.4760    0.0000 O   0  0  0  0  0  0  0  0  0  0  0  0
   -2.4557   -1.3481    0.0000 O   0  0  0  0  0  0  0  0  0  0  0  0
    0.7261   -0.9254    0.0000 C   0  0  0  0  0  0  0  0  0  0  0  0
   -3.2817   -1.3481    0.0000 C   0  0  0  0  0  0  0  0  0  0  0  0
    1.4403   -4.1900    0.0000 C   0  0  1  0  0  0  0  0  0  0  0  0
   -3.6945   -3.4904    0.0000 N   0  0  0  0  0  0  0  0  0  0  0  0
   -2.0429   -3.4904    0.0000 O   0  0  0  0  0  0  0  0  0  0  0  0
   -0.5126   -3.0678    0.0000 O   0  0  0  0  0  0  0  0  0  0  0  0
    1.8484   -4.9042    0.0000 C   0  0  0  0  0  0  0  0  0  0  0  0
    1.9649   -1.6396    0.0000 N   0  0  0  0  0  0  0  0  0  0  0  0
   -0.5126   -0.2113    0.0000 N   0  0  0  0  0  0  0  0  0  0  0  0
    3.0872   -4.1900    0.0000 C   0  0  1  0  0  0  0  0  0  0  0  0
   -4.4186   -1.6492    0.0000 O   0  0  0  0  0  0  0  0  0  0  0  0
    0.6095   -4.1900    0.0000 N   0  0  0  0  0  0  0  0  0  0  0  0
    2.6791   -4.9042    0.0000 C   0  0  0  0  0  0  0  0  0  0  0  0
    4.5155   -4.1755    0.0000 N   0  0  0  0  0  0  0  0  0  0  0  0
   -4.4186   -2.4703    0.0000 C   0  0  0  0  0  0  0  0  0  0  0  0
    3.7965   -3.7674    0.0000 C   0  0  0  0  0  0  0  0  0  0  0  0
   -4.5206   -3.4904    0.0000 C   0  0  0  0  0  0  0  0  0  0  0  0
   -1.3335   -2.4703    0.0000 H   0  0  0  0  0  0  0  0  0  0  0  0
    3.8013   -4.6078    0.0000 H   0  0  0  0  0  0  0  0  0  0  0  0
    0.7261   -3.1795    0.0000 H   0  0  0  0  0  0  0  0  0  0  0  0
   -5.0452    2.7617    0.0000 C   0  0  2  0  0  0  0  0  0  0  0  0
   -6.2840    3.4760    0.0000 C   0  0  1  0  0  0  0  0  0  0  0  0
   -5.8760    2.7617    0.0000 C   0  0  1  0  0  0  0  0  0  0  0  0
   -8.2369    2.3391    0.0000 C   0  0  1  0  0  0  0  0  0  0  0  0
   -7.8289    3.0534    0.0000 C   0  0  1  0  0  0  0  0  0  0  0  0
   -9.0580    2.3391    0.0000 C   0  0  2  0  0  0  0  0  0  0  0  0
   -3.9230    1.6299    0.0000 C   0  0  1  0  0  0  0  0  0  0  0  0
   -7.1147    3.4662    0.0000 O   0  0  0  0  0  0  0  0  0  0  0  0
   -4.3310    2.3440    0.0000 O   0  0  0  0  0  0  0  0  0  0  0  0
   -3.0970    1.6299    0.0000 O   0  0  0  0  0  0  0  0  0  0  0  0
   -9.4758    3.0534    0.0000 C   0  0  2  0  0  0  0  0  0  0  0  0
   -4.6371    3.4760    0.0000 C   0  0  2  0  0  0  0  0  0  0  0  0
   -5.8760    4.1900    0.0000 C   0  0  1  0  0  0  0  0  0  0  0  0
   -8.2369    3.7674    0.0000 O   0  0  0  0  0  0  0  0  0  0  0  0
   -5.0452    4.1900    0.0000 C   0  0  0  0  0  0  0  0  0  0  0  0
   -2.6842    0.9158    0.0000 C   0  0  1  0  0  0  0  0  0  0  0  0
   -9.0580    3.7674    0.0000 C   0  0  0  0  0  0  0  0  0  0  0  0
   -4.3358    0.9158    0.0000 C   0  0  1  0  0  0  0  0  0  0  0  0
   -9.4758    1.6250    0.0000 N   0  0  0  0  0  0  0  0  0  0  0  0
   -3.0970    0.2016    0.0000 C   0  0  0  0  0  0  0  0  0  0  0  0
   -3.9230    0.2016    0.0000 C   0  0  0  0  0  0  0  0  0  0  0  0
   -7.8191    1.6250    0.0000 O   0  0  0  0  0  0  0  0  0  0  0  0
   -6.2840    2.0477    0.0000 O   0  0  0  0  0  0  0  0  0  0  0  0
   -6.2840    4.9042    0.0000 N   0  0  0  0  0  0  0  0  0  0  0  0
   -3.8064    3.4662    0.0000 N   0  0  0  0  0  0  0  0  0  0  0  0
   -1.9748    1.3335    0.0000 C   0  0  0  0  0  0  0  0  0  0  0  0
  -10.2045    3.4613    0.0000 O   0  0  0  0  0  0  0  0  0  0  0  0
   -1.9846    2.1642    0.0000 N   0  0  0  0  0  0  0  0  0  0  0  0
   -5.1617    0.9158    0.0000 N   0  0  0  0  0  0  0  0  0  0  0  0
  -10.2045    2.6452    0.0000 C   0  0  0  0  0  0  0  0  0  0  0  0
  -10.2966    1.6250    0.0000 C   0  0  0  0  0  0  0  0  0  0  0  0
   -1.2704    2.5868    0.0000 C   0  0  0  0  0  0  0  0  0  0  0  0
   -1.2558    0.9303    0.0000 C   0  0  0  0  0  0  0  0  0  0  0  0
   -5.0500    1.9310    0.0000 H   0  0  0  0  0  0  0  0  0  0  0  0
   -7.1147    2.6356    0.0000 H   0  0  0  0  0  0  0  0  0  0  0  0
   -1.9748    0.5027    0.0000 H   0  0  0  0  0  0  0  0  0  0  0  0
    6.5074    2.7617    0.0000 C   0  0  2  0  0  0  0  0  0  0  0  0
    5.2685    3.4760    0.0000 C   0  0  1  0  0  0  0  0  0  0  0  0
    5.6814    2.7617    0.0000 C   0  0  1  0  0  0  0  0  0  0  0  0
    3.3203    2.3391    0.0000 C   0  0  1  0  0  0  0  0  0  0  0  0
    3.7284    3.0534    0.0000 C   0  0  1  0  0  0  0  0  0  0  0  0
    2.4895    2.3391    0.0000 C   0  0  2  0  0  0  0  0  0  0  0  0
    7.6296    1.6299    0.0000 C   0  0  1  0  0  0  0  0  0  0  0  0
    4.4426    3.4662    0.0000 O   0  0  0  0  0  0  0  0  0  0  0  0
    7.2215    2.3440    0.0000 O   0  0  0  0  0  0  0  0  0  0  0  0
    8.4505    1.6299    0.0000 O   0  0  0  0  0  0  0  0  0  0  0  0
    2.0768    3.0534    0.0000 C   0  0  2  0  0  0  0  0  0  0  0  0
    6.9203    3.4760    0.0000 C   0  0  2  0  0  0  0  0  0  0  0  0
    5.6814    4.1900    0.0000 C   0  0  1  0  0  0  0  0  0  0  0  0
    3.3203    3.7674    0.0000 O   0  0  0  0  0  0  0  0  0  0  0  0
    6.5074    4.1900    0.0000 C   0  0  0  0  0  0  0  0  0  0  0  0
    8.8683    0.9158    0.0000 C   0  0  1  0  0  0  0  0  0  0  0  0
    2.4895    3.7674    0.0000 C   0  0  0  0  0  0  0  0  0  0  0  0
    7.2117    0.9158    0.0000 C   0  0  1  0  0  0  0  0  0  0  0  0
    2.0816    1.6250    0.0000 N   0  0  0  0  0  0  0  0  0  0  0  0
    8.4505    0.2016    0.0000 C   0  0  0  0  0  0  0  0  0  0  0  0
    7.6296    0.2016    0.0000 C   0  0  0  0  0  0  0  0  0  0  0  0
    3.7284    1.6250    0.0000 O   0  0  0  0  0  0  0  0  0  0  0  0
    5.2685    2.0477    0.0000 O   0  0  0  0  0  0  0  0  0  0  0  0
    5.2685    4.9042    0.0000 N   0  0  0  0  0  0  0  0  0  0  0  0
    7.7462    3.4662    0.0000 N   0  0  0  0  0  0  0  0  0  0  0  0
    9.5728    1.3335    0.0000 C   0  0  0  0  0  0  0  0  0  0  0  0
    1.3528    3.4613    0.0000 O   0  0  0  0  0  0  0  0  0  0  0  0
    6.3859    0.9158    0.0000 N   0  0  0  0  0  0  0  0  0  0  0  0
    9.5728    2.1642    0.0000 N   0  0  0  0  0  0  0  0  0  0  0  0
    1.3528    2.6452    0.0000 C   0  0  0  0  0  0  0  0  0  0  0  0
    1.2509    1.6250    0.0000 C   0  0  0  0  0  0  0  0  0  0  0  0
   10.2966    0.9303    0.0000 C   0  0  0  0  0  0  0  0  0  0  0  0
    4.4426    2.6356    0.0000 H   0  0  0  0  0  0  0  0  0  0  0  0
    6.4975    1.9310    0.0000 H   0  0  0  0  0  0  0  0  0  0  0  0
    9.5728    0.5027    0.0000 H   0  0  0  0  0  0  0  0  0  0  0  0
  2  3  1  0  0  0  0
  3  1  1  0  0  0  0
  4  5  1  0  0  0  0
  5  7  1  0  0  0  0
  6  4  1  0  0  0  0
  2  7  1  1  0  0  0
  8  1  1  0  0  0  0
  9  8  1  1  0  0  0
 10 16  1  0  0  0  0
 11  1  1  0  0  0  0
 12 15  1  0  0  0  0
 13  9  1  0  0  0  0
 14  5  1  0  0  0  0
 15 11  1  0  0  0  0
 16 14  1  0  0  0  0
 17  9  1  0  0  0  0
  6 18  1  1  0  0  0
  4 19  1  6  0  0  0
  3 20  1  6  0  0  0
 21 17  1  0  0  0  0
 11 22  1  6  0  0  0
 12 23  1  6  0  0  0
 24 13  1  0  0  0  0
 10 25  1  1  0  0  0
 17 26  1  1  0  0  0
 27 21  1  0  0  0  0
 28 30  1  0  0  0  0
 29 10  1  0  0  0  0
 30 24  1  0  0  0  0
 31 18  1  0  0  0  0
  5 32  1  1  0  0  0
 24 33  1  1  0  0  0
  1 34  1  6  0  0  0
 12  2  1  0  0  0  0
 27 24  1  0  0  0  0
  6 10  1  0  0  0  0
 45 61  1  1  0  0  0
 52 63  1  1  0  0  0
 64 45  1  0  0  0  0
 65 53  1  0  0  0  0
 66 62  1  0  0  0  0
 67 60  1  0  0  0  0
 35 68  1  6  0  0  0
 39 69  1  1  0  0  0
 50 70  1  1  0  0  0
 36 47  1  0  0  0  0
 55 54  1  0  0  0  0
 40 45  1  0  0  0  0
 36 37  1  0  0  0  0
 37 35  1  0  0  0  0
 38 39  1  0  0  0  0
 39 42  1  0  0  0  0
 40 38  1  0  0  0  0
 41 43  1  1  0  0  0
 36 42  1  1  0  0  0
 43 35  1  0  0  0  0
 44 41  1  0  0  0  0
 45 51  1  0  0  0  0
 46 35  1  0  0  0  0
 47 49  1  0  0  0  0
 48 39  1  0  0  0  0
 49 46  1  0  0  0  0
 50 44  1  0  0  0  0
 51 48  1  0  0  0  0
 52 41  1  0  0  0  0
 40 53  1  1  0  0  0
 54 50  1  0  0  0  0
 55 52  1  0  0  0  0
 38 56  1  6  0  0  0
 37 57  1  6  0  0  0
 47 58  1  6  0  0  0
 46 59  1  6  0  0  0
 60 50  1  0  0  0  0
 60 62  1  0  0  0  0
 72 73  1  0  0  0  0
 73 71  1  0  0  0  0
 74 75  1  0  0  0  0
 75 78  1  0  0  0  0
 76 74  1  0  0  0  0
 77 79  1  1  0  0  0
 72 78  1  1  0  0  0
 79 71  1  0  0  0  0
 80 77  1  0  0  0  0
 81 87  1  0  0  0  0
 82 71  1  0  0  0  0
 83 85  1  0  0  0  0
 84 75  1  0  0  0  0
 85 82  1  0  0  0  0
 86 80  1  0  0  0  0
 87 84  1  0  0  0  0
 88 77  1  0  0  0  0
 76 89  1  1  0  0  0
 90 91  1  0  0  0  0
 91 88  1  0  0  0  0
 74 92  1  6  0  0  0
 73 93  1  6  0  0  0
 83 94  1  6  0  0  0
 82 95  1  6  0  0  0
 96 86  1  0  0  0  0
 81 97  1  1  0  0  0
 88 98  1  1  0  0  0
100 81  1  0  0  0  0
101 89  1  0  0  0  0
102 96  1  0  0  0  0
 75103  1  1  0  0  0
 71104  1  6  0  0  0
 86105  1  1  0  0  0
 83 72  1  0  0  0  0
 90 86  1  0  0  0  0
 76 81  1  0  0  0  0
 96 99  1  0  0  0  0
M  END
> <DATABASE_ID>
DB00798

> <DATABASE_NAME>
drugbank

> <SMILES>
[H][C@@]1(CN)CC[C@@H](N)[C@@H](O[C@]2([H])[C@@H](N)C[C@@H](N)[C@H](O[C@@]3([H])OC[C@](C)(O)[C@H](NC)[C@H]3O)[C@H]2O)O1.[H][C@]1(CC[C@@H](N)[C@@H](O[C@]2([H])[C@@H](N)C[C@@H](N)[C@H](O[C@@]3([H])OC[C@](C)(O)[C@H](NC)[C@H]3O)[C@H]2O)O1)C(C)N.[H][C@]1(CC[C@@H](N)[C@@H](O[C@]2([H])[C@@H](N)C[C@@H](N)[C@H](O[C@@]3([H])OC[C@](C)(O)[C@H](NC)[C@H]3O)[C@H]2O)O1)C(C)NC

> <INCHI_IDENTIFIER>
InChI=1S/C21H43N5O7.C20H41N5O7.C19H39N5O7/c1-9(25-3)13-6-5-10(22)19(31-13)32-16-11(23)7-12(24)17(14(16)27)33-20-15(28)18(26-4)21(2,29)8-30-20;1-8(21)12-5-4-9(22)18(30-12)31-15-10(23)6-11(24)16(13(15)26)32-19-14(27)17(25-3)20(2,28)7-29-19;1-19(27)7-28-18(13(26)16(19)24-2)31-15-11(23)5-10(22)14(12(15)25)30-17-9(21)4-3-8(6-20)29-17/h9-20,25-29H,5-8,22-24H2,1-4H3;8-19,25-28H,4-7,21-24H2,1-3H3;8-18,24-27H,3-7,20-23H2,1-2H3/t9?,10-,11+,12-,13+,14+,15-,16-,17+,18-,19-,20-,21+;8?,9-,10+,11-,12+,13+,14-,15-,16+,17-,18-,19-,20+;8-,9+,10-,11+,12-,13+,14+,15-,16+,17+,18+,19-/m110/s1

> <INCHI_KEY>
NPEFREDMMVQEPL-RWPARATISA-N

> <FORMULA>
C60H123N15O21

> <MOLECULAR_WEIGHT>
1390.728

> <EXACT_MASS>
1389.901796041

> <JCHEM_ACCEPTOR_COUNT>
12

> <JCHEM_ATOM_COUNT>
219

> <JCHEM_AVERAGE_NEUTRAL_MICROSPECIES_CHARGE>
5.000354376408061

> <JCHEM_AVERAGE_POLARIZABILITY>
51.5229486669376

> <JCHEM_BIOAVAILABILITY>
0

> <JCHEM_DONOR_COUNT>
8

> <JCHEM_FORMAL_CHARGE>
0

> <JCHEM_GHOSE_FILTER>
0

> <JCHEM_IUPAC>
(2R,3R,4R,5R)-2-{[(1S,2S,3R,4S,6R)-4,6-diamino-3-{[(2R,3R,6S)-3-amino-6-(1-aminoethyl)oxan-2-yl]oxy}-2-hydroxycyclohexyl]oxy}-5-methyl-4-(methylamino)oxane-3,5-diol; (2R,3R,4R,5R)-2-{[(1S,2S,3R,4S,6R)-4,6-diamino-3-{[(2R,3R,6S)-3-amino-6-(aminomethyl)oxan-2-yl]oxy}-2-hydroxycyclohexyl]oxy}-5-methyl-4-(methylamino)oxane-3,5-diol; (2R,3R,4R,5R)-2-{[(1S,2S,3R,4S,6R)-4,6-diamino-3-{[(2R,3R,6S)-3-amino-6-[1-(methylamino)ethyl]oxan-2-yl]oxy}-2-hydroxycyclohexyl]oxy}-5-methyl-4-(methylamino)oxane-3,5-diol

> <ALOGPS_LOGP>
-1.64

> <JCHEM_LOGP>
-3.1371555293333344

> <ALOGPS_LOGS>
-1.58

> <JCHEM_MDDR_LIKE_RULE>
1

> <JCHEM_NEUTRAL_CHARGE>
5

> <JCHEM_NUMBER_OF_RINGS>
9

> <JCHEM_PHYSIOLOGICAL_CHARGE>
5

> <JCHEM_PKA>
13.159351800949633

> <JCHEM_PKA_STRONGEST_ACIDIC>
12.548968233242588

> <JCHEM_PKA_STRONGEST_BASIC>
10.117199750062865

> <JCHEM_POLAR_SURFACE_AREA>
199.73000000000002

> <JCHEM_REFRACTIVITY>
118.02069999999998

> <JCHEM_ROTATABLE_BOND_COUNT>
19

> <JCHEM_RULE_OF_FIVE>
0

> <ALOGPS_SOLUBILITY>
1.26e+01 g/l

> <JCHEM_TRADITIONAL_IUPAC>
(2R,3R,4R,5R)-2-{[(1S,2S,3R,4S,6R)-4,6-diamino-3-{[(2R,3R,6S)-3-amino-6-(1-aminoethyl)oxan-2-yl]oxy}-2-hydroxycyclohexyl]oxy}-5-methyl-4-(methylamino)oxane-3,5-diol; gentamicin C1A; gentamycin C1

> <JCHEM_VEBER_RULE>
0

> <DRUGBANK_ID>
DB00798

> <SECONDARY_ACCESSION_NUMBERS>
APRD00214

> <DRUG_GROUPS>
approved; vet_approved

> <GENERIC_NAME>
Gentamicin

> <SYNONYMS>
Gentamicin; Gentamicina

> <PRODUCTS>
Alcomicin Oph Sol 3mg/ml; Amolg A; Betamycin Ophthalmic/otic Solution; Celestone-G; Cidomycin Inj 10mg/ml; Cidomycin Inj 40mg/ml; Cidomycin Inj Pediatric 10mg; Diprogen Cream; Diprogen Ointment; Dom-gentamicin-betamethasone; Garamycin; Garamycin Cream 0.1%; Garamycin Gentamicin Sulfate; Garamycin Inj 10mg/ml Pediatric; Garamycin Inj 40mg/ml; Garamycin Ont 0.1%; Garamycin Ophthalmic Drops 0.3%; Garamycin Ophthalmic Ointment 0.3%; Garamycin Otic Drops 0.3%; Garasone Ophthalmic Ointment; Garasone Ophthalmic and Otic Solution; Garatec Ophthalmic Dps 5mg/ml; Garatec Otic Dps 5mg/ml; Gentacidin Oph Soln 3mg/ml; Gentacidin Ophthalmic Solution 3mg/ml; Gentak; Gentamicin; Gentamicin Injection USP; Gentamicin Sulfate; Gentamicin Sulfate Cream 0.1%; Gentamicin Sulfate Cream USP, 0.1%; Gentamicin Sulfate In 0.9% Sodium Chloride Injection; Gentamicin Sulfate In Nacl 0.9% Inj; Gentamicin Sulfate In Nacl O.9% Inj; Gentamicin Sulfate In Sodium Chloride; Gentamicin Sulfate Opth Solution; Gentamicin Sulfate in Sodium Chloride; Gentamicin Sulphate 0.3% - Liq Oph; Gentamicin Sulphate Injection USP-10mg/ml; Gentamicin Sulphate Injection USP-40mg/ml; Gentamicin sulfate; Gentamicin(e); Gentamicin(e) 120mg Liq IV 1.2mg/ml; Gentrasul Liq 3mg/ml; Gentrasul Oph Ointment 3mg/gm; Minims Gentamicin Sulfate 0.3%; Ocugram Liq 3mg/ml; Ocugram Ont 3mg/gm; Odan-gentamicin; PMS-gentamicin Cream 1mg/gm; PMS-gentamicin Ointment 1mg/gm; PMS-gentamicin Ophthalmic Ointment 0.3%; PMS-gentamicin Otic Drops 0.3%; PMS-gentamicin Sulfate Oph Dps 0.3%; PMS-gentamicin-betamethasone; Pred-G; R.O.-gentycin; Ratio-gentamicin; Sandoz Gentamicin; Sandoz Pentasone; Septopal; Truemed Group LLC; Valisone-G

> <INTERNATIONAL_BRANDS>
Alcomicin; Bristagen; G-Mycin; Genoptic; Gentacidin; Gentafair; Gentamar; Jenamicin; Ocu-Mycin; Spectro-Genta; U-gencin

> <SALTS>
Gentamicin sulfate

$$$$
