
  Mrv1533004171512392D          

 15 17  0  0  0  0            999 V2000
    0.7145   -1.2375    0.0000 C   0  0  0  0  0  0  0  0  0  0  0  0
    0.7145   -0.4125    0.0000 C   0  0  0  0  0  0  0  0  0  0  0  0
    1.4289    0.0000    0.0000 C   0  0  0  0  0  0  0  0  0  0  0  0
    1.4289    0.8250    0.0000 C   0  0  0  0  0  0  0  0  0  0  0  0
    0.7615    1.3099    0.0000 N   0  0  0  0  0  0  0  0  0  0  0  0
    1.0164    2.0945    0.0000 C   0  0  0  0  0  0  0  0  0  0  0  0
    1.8414    2.0945    0.0000 C   0  0  0  0  0  0  0  0  0  0  0  0
    2.0964    1.3099    0.0000 N   0  0  0  0  0  0  0  0  0  0  0  0
    2.1434   -0.4125    0.0000 C   0  0  0  0  0  0  0  0  0  0  0  0
    2.8579    0.0000    0.0000 C   0  0  0  0  0  0  0  0  0  0  0  0
    3.5724   -0.4125    0.0000 C   0  0  0  0  0  0  0  0  0  0  0  0
    3.5724   -1.2375    0.0000 C   0  0  0  0  0  0  0  0  0  0  0  0
    2.8579   -1.6500    0.0000 C   0  0  0  0  0  0  0  0  0  0  0  0
    2.1434   -1.2375    0.0000 C   0  0  0  0  0  0  0  0  0  0  0  0
    1.4289   -1.6500    0.0000 C   0  0  0  0  0  0  0  0  0  0  0  0
  1  2  1  0  0  0  0
  2  3  1  0  0  0  0
  3  4  1  0  0  0  0
  4  5  2  0  0  0  0
  5  6  1  0  0  0  0
  6  7  1  0  0  0  0
  7  8  1  0  0  0  0
  4  8  1  0  0  0  0
  3  9  1  0  0  0  0
  9 10  2  0  0  0  0
 10 11  1  0  0  0  0
 11 12  2  0  0  0  0
 12 13  1  0  0  0  0
 13 14  2  0  0  0  0
  9 14  1  0  0  0  0
 14 15  1  0  0  0  0
  1 15  1  0  0  0  0
M  END
> <DATABASE_ID>
DB06764

> <DATABASE_NAME>
drugbank

> <SMILES>
C1CN=C(N1)C1CCCC2=CC=CC=C12

> <INCHI_IDENTIFIER>
InChI=1S/C13H16N2/c1-2-6-11-10(4-1)5-3-7-12(11)13-14-8-9-15-13/h1-2,4,6,12H,3,5,7-9H2,(H,14,15)

> <INCHI_KEY>
BYJAVTDNIXVSPW-UHFFFAOYSA-N

> <FORMULA>
C13H16N2

> <MOLECULAR_WEIGHT>
200.285

> <EXACT_MASS>
200.131348523

> <JCHEM_ACCEPTOR_COUNT>
2

> <JCHEM_ATOM_COUNT>
31

> <JCHEM_AVERAGE_POLARIZABILITY>
22.927261535315424

> <JCHEM_BIOAVAILABILITY>
1

> <JCHEM_DONOR_COUNT>
1

> <JCHEM_FORMAL_CHARGE>
0

> <JCHEM_GHOSE_FILTER>
1

> <JCHEM_IUPAC>
2-(1,2,3,4-tetrahydronaphthalen-1-yl)-4,5-dihydro-1H-imidazole

> <ALOGPS_LOGP>
3.11

> <JCHEM_LOGP>
2.2408906230000003

> <ALOGPS_LOGS>
-2.92

> <JCHEM_MDDR_LIKE_RULE>
0

> <JCHEM_NUMBER_OF_RINGS>
3

> <JCHEM_PHYSIOLOGICAL_CHARGE>
1

> <JCHEM_PKA_STRONGEST_BASIC>
10.166670151811907

> <JCHEM_POLAR_SURFACE_AREA>
24.39

> <JCHEM_REFRACTIVITY>
61.48380000000001

> <JCHEM_ROTATABLE_BOND_COUNT>
1

> <JCHEM_RULE_OF_FIVE>
1

> <ALOGPS_SOLUBILITY>
2.39e-01 g/l

> <JCHEM_TRADITIONAL_IUPAC>
visine

> <JCHEM_VEBER_RULE>
1

> <DRUGBANK_ID>
DB06764

> <DRUG_GROUPS>
approved

> <GENERIC_NAME>
Tetryzoline

> <SYNONYMS>
(RS)-2-(1,2,3,4-tetrahydronaphthalen-1-yl)-4,5-dihydro-1H-imidazole; 2-(1,2,3,4-Tetrahydro-1-naphthyl)-2-imidazoline; 2-Tetralin-1-yl-4,5-dihydro-1H-imidazole; 4,5-dihydro-2-(1,2,3,4-tetrahydro-1-naphthalenyl)-1H-imidazole; Tetrahydrozoline; Tetrizolina; Tetryzolin; Tetryzolina; TÃ©tryzoline; Tetryzoline; Tetryzolinum

> <PRODUCTS>
4248 First Aid Kit; 8-symptom Relief; Advance Relief Eye Drops; Advanced Relief; Advanced Relief Eye Drops; Advanced relief; Allergy Eye Drops; Assured Advanced Relief Eye; Assured Original Relief Eye; Basic Care Eye; CAREALL Eyedrops Original; CVS Astringent Eye; CVS Multi-Symptom Eye Drops; CVS Redness Relief Maximum; CVS Redness Relief Original; Care One Eye Drops Seasonal Relief; CareOne Itchy Relief Eye Drops 15mL; Careone Eye Drops Seasonal Relief; Circle K Eye Drops Redness Reliever; Clear Eyes Travelers Eye Relief; Clear Eyes Triple Action; Clear Eyes Triple Action Relief; Colirio Ocusan; Collyrium Eye Drops; Cool Eye Drops; DG Health Advanced Relief Eye Drops; DG Health Sterile Advanced Relief Eye; DG Health Sterile Redness Relief; DG Original Eye Drops; Dg Health Original; Equate Eye Drops; Equate Redness Reliever; Exchange Select Eye Drops Advanced Relief Moisturizer; Eye Drops; Eye Drops 0.5mg/ml; Eye Drops AC; Eye Drops Advanced Relief; Eye Drops Extra; Eye Drops Regular; Eyes Irritation Relief; Family Care Advanced Formula Eye; Family Care Original Eye; Family Wellness Advanced Eye; Family Wellness Irritation Relief Ac Eye Drops; Freds Advanced Eye Drops; Freds Astringent Rdeness Reliever Eye; Freds Original Eye Drops; GNP Eye Drops Seasonal Relief; Good Neighbor Pharmacy Eye Drops Advanced Relief; Good Neighbor Pharmacy Eye Drops Original Formula; GoodSense Advanced Relief Eye; GoodSense Eye Drops Advanced Relief Moisturizer; GoodSense Eye Drops Irritation Relief; GoodSense Eye Drops Original Formula; GoodSense Irritation Relief Eye; GoodSense Original Formula Eye; Goodsense Advanced Relief Eye; Goodsense Irritation Relief Eye; Goodsense Original Eye Drops; Industrial Strength Eye Drops; Irritation Relief Eye; Leader Advanced Formula; Leader Advanced Formula Eye Drops; Leader Advanced Relief Eye Drops; Leader Original Eye Drops; Leader Original Formula; Leader Original Formula Eye Drops; Leader Relief; Leader Relief Eye; Lil Drug Store Eye Drops Redness Reliever; Major Redness Reliever Eye; Meijer Advanced Redness and Irritation Relief; Meijer Redness Relief; Meijer Seasonal Itching and Redness Relief; Multi- Action Relief Drops; Multi-Action Relief; Murine Plus 2; Murine Plus for Dry Eyes Redness Relief; Murine Tears Plus 3; Nwi Original; OptiClear; Optical Advanced Eye; Optical Original Eye Drops; Optimis7; Original Eye Drops; Preferred Plus Pharmacy Redness Relief Eye Drops; Premier Value Advanced Eye Drops; Premier Value Eye Ac; Premier Value Original; Premier Value Sterile Eye Drops; Quality Choice Eye Drops Irritation Relief; Quality Choice Eye Drops Moisturizing Relief; Quality Choice Original Eye Drops; R.O.-eye Drops; Red Eye Triple Action; Red Eye Workplace; Redness Reliever; Redness reliever; Redness reliever and Lubricant; Rite Aid Advanced Sterile Eye; Rite Aid Original Sterile Eye; Rohto All-In-One; Rohto Arctic; Rohto Digi-Eye; Rohto Ice; Rohto Relief; Rugby Eye; Rugby Tetrahydrozoline Ophthalmic Solution; SK Advanced Relief Eye Drops; SK Original Eye Drops; Seasonal itchy and Red eye relief; Shopko Advanced Formula Eye Drops; Shopko Original Formula Eye Drops; Shopko Relief; Signature Care Eye Drops Advanced Relief; Sound Body Original Eye; SoundBody Advanced Relief; Soundbody Advanced relief; Soundbody Seasonal itchy and Red eye relief; Sunmark Eye Drops Advanced Moisturizer/Lubricant; Sunmark Eye Drops Original Formula; T-raojo; Tetrahydrozoline Ophthalmic Solution; TopCare Health Advanced Moisturizing Plus Redness Relief; TopCare Health Original Eye Drops; Topcare Health Ultra Itch Relief Astringent Eye Drops; Tyzine; Tyzine Pediatric; Up and Up Ultra Itchy Relief; Visine A.C.; Visine A.C. Itchy Eye Relief; Visine A.C. Ophthalmic Sol; Visine Advanced Blister 6s Pack; Visine Advanced Relief; Visine Cool; Visine Extra Ophthalmic Sol; Visine Maximum Strength Redness Relief Formula; Visine Multi-symptom; Visine Original; Visine Original Redness Relief; Visine Red Eye Comfort; Visine Red Eye Hydrating Comfort; Visine Red Eye Hydrating Comfort Eye Drops; Visine Red Eye Total Comfort Multi-Symptom; Visine Summer Spectrum Relief; Visine Totality Multi Symptom Relief; Visine for Allergy 3 Symptom Relief; Visine for Red Eye Cool; Visine for Red Eye Triple Action; Visine for Red Eye Workplace; Walgreens Eye Drops Advanced Relief 15mL; Walgreens Eye Drops Original 15mL and twin pack; Walgreens Eye Drops Seasonal Relief 15mL; Walgreens Maximum Relief Eye Drops; Walgreens Multi-Symptom Relief Eye Drops; Walgreens Original Eye Drops; Walgreens Sterile Advance Relief Eye Drops; Walgreens Sterile Original Eye; Walgreens Sterile Original Eye Drops; Winco Original Formula Eye Drops

> <SALTS>
Tetrahydrozoline hydrochloride

$$$$
