
  Mrv1572004221606532D          

 16 16  0  0  0  0            999 V2000
    5.0013   -0.4125    0.0000 C   0  0  0  0  0  0  0  0  0  0  0  0
    5.7158   -0.8250    0.0000 C   0  0  0  0  0  0  0  0  0  0  0  0
    6.4302   -0.4125    0.0000 C   0  0  0  0  0  0  0  0  0  0  0  0
   12.8605   -0.8250    0.0000 C   0  0  0  0  0  0  0  0  0  0  0  0
   12.1460   -0.4125    0.0000 C   0  0  0  0  0  0  0  0  0  0  0  0
   12.8605   -1.6500    0.0000 C   0  0  0  0  0  0  0  0  0  0  0  0
    7.1447   -0.8250    0.0000 C   0  0  0  0  0  0  0  0  0  0  0  0
    8.5737   -0.8250    0.0000 C   0  0  0  0  0  0  0  0  0  0  0  0
    9.2881   -0.4125    0.0000 C   0  0  0  0  0  0  0  0  0  0  0  0
   11.4315   -1.6500    0.0000 C   0  0  0  0  0  0  0  0  0  0  0  0
   11.4315   -0.8250    0.0000 C   0  0  0  0  0  0  0  0  0  0  0  0
   10.7171   -0.4125    0.0000 C   0  0  0  0  0  0  0  0  0  0  0  0
   12.1460   -2.0625    0.0000 N   0  0  0  0  0  0  0  0  0  0  0  0
   10.7171    0.4125    0.0000 O   0  0  0  0  0  0  0  0  0  0  0  0
    7.8592   -0.4125    0.0000 O   0  0  0  0  0  0  0  0  0  0  0  0
   10.0026   -0.8250    0.0000 O   0  0  0  0  0  0  0  0  0  0  0  0
  2  1  1  0  0  0  0
  3  2  1  0  0  0  0
  5  4  2  0  0  0  0
  6  4  1  0  0  0  0
  7  3  1  0  0  0  0
  9  8  1  0  0  0  0
 11  5  1  0  0  0  0
 11 10  2  0  0  0  0
 12 11  1  0  0  0  0
 13  6  2  0  0  0  0
 13 10  1  0  0  0  0
 14 12  2  0  0  0  0
 15  7  1  0  0  0  0
 15  8  1  0  0  0  0
 16  9  1  0  0  0  0
 16 12  1  0  0  0  0
M  END
> <DATABASE_ID>
DB12911

> <DATABASE_NAME>
drugbank

> <SMILES>
CCCCOCCOC(=O)C1=CN=CC=C1

> <INCHI_IDENTIFIER>
InChI=1S/C12H17NO3/c1-2-3-7-15-8-9-16-12(14)11-5-4-6-13-10-11/h4-6,10H,2-3,7-9H2,1H3

> <INCHI_KEY>
IZJRISIINLJVBU-UHFFFAOYSA-N

> <FORMULA>
C12H17NO3

> <MOLECULAR_WEIGHT>
223.272

> <EXACT_MASS>
223.120843411

> <JCHEM_ACCEPTOR_COUNT>
3

> <JCHEM_ATOM_COUNT>
33

> <JCHEM_AVERAGE_POLARIZABILITY>
25.03364539796457

> <JCHEM_BIOAVAILABILITY>
1

> <JCHEM_DONOR_COUNT>
0

> <JCHEM_FORMAL_CHARGE>
0

> <JCHEM_GHOSE_FILTER>
1

> <JCHEM_IUPAC>
2-butoxyethyl pyridine-3-carboxylate

> <ALOGPS_LOGP>
1.99

> <JCHEM_LOGP>
2.035973859333333

> <ALOGPS_LOGS>
-1.56

> <JCHEM_MDDR_LIKE_RULE>
0

> <JCHEM_NUMBER_OF_RINGS>
1

> <JCHEM_PHYSIOLOGICAL_CHARGE>
0

> <JCHEM_PKA_STRONGEST_BASIC>
3.242156318449006

> <JCHEM_POLAR_SURFACE_AREA>
48.42

> <JCHEM_REFRACTIVITY>
60.84350000000001

> <JCHEM_ROTATABLE_BOND_COUNT>
8

> <JCHEM_RULE_OF_FIVE>
1

> <ALOGPS_SOLUBILITY>
6.10e+00 g/l

> <JCHEM_TRADITIONAL_IUPAC>
nicoboxil

> <JCHEM_VEBER_RULE>
0

> <DRUGBANK_ID>
DB12911

> <DRUG_GROUPS>
approved; investigational

> <GENERIC_NAME>
Nicoboxil

> <SYNONYMS>
beta-Butoxyethyl nicotinate; Nicoboxil

> <PRODUCTS>
Actinac Pwr; Actinac Pws

$$$$
