
  Mrv1572012261519072D          

 23 24  0  0  0  0            999 V2000
   -1.4289    6.6000    0.0000 C   0  0  0  0  0  0  0  0  0  0  0  0
   -2.2539    5.7750    0.0000 C   0  0  0  0  0  0  0  0  0  0  0  0
   -0.6039    5.7750    0.0000 C   0  0  0  0  0  0  0  0  0  0  0  0
    2.8578    0.0000    0.0000 C   0  0  0  0  0  0  0  0  0  0  0  0
   -0.7144    3.7125    0.0000 C   0  0  0  0  0  0  0  0  0  0  0  0
   -2.1434    3.7125    0.0000 C   0  0  0  0  0  0  0  0  0  0  0  0
    0.0000    0.0000    0.0000 C   0  0  0  0  0  0  0  0  0  0  0  0
    0.7144    1.2375    0.0000 C   0  0  0  0  0  0  0  0  0  0  0  0
   -0.7144    4.5375    0.0000 C   0  0  0  0  0  0  0  0  0  0  0  0
   -2.1434    4.5375    0.0000 C   0  0  0  0  0  0  0  0  0  0  0  0
    0.7144   -0.4125    0.0000 C   0  0  0  0  0  0  0  0  0  0  0  0
    1.4289    0.8250    0.0000 C   0  0  0  0  0  0  0  0  0  0  0  0
   -0.7144    2.0625    0.0000 C   0  0  0  0  0  0  0  0  0  0  0  0
   -1.4289    3.3000    0.0000 C   0  0  0  0  0  0  0  0  0  0  0  0
    0.0000    0.8250    0.0000 C   0  0  0  0  0  0  0  0  0  0  0  0
   -1.4289    4.9500    0.0000 C   0  0  0  0  0  0  0  0  0  0  0  0
    1.4289    0.0000    0.0000 C   0  0  0  0  0  0  0  0  0  0  0  0
   -1.4289    2.4750    0.0000 C   0  0  0  0  0  0  0  0  0  0  0  0
   -0.7144    1.2375    0.0000 C   0  0  0  0  0  0  0  0  0  0  0  0
   -1.4289    5.7750    0.0000 C   0  0  0  0  0  0  0  0  0  0  0  0
   -2.1434    2.0625    0.0000 O   0  0  0  0  0  0  0  0  0  0  0  0
   -1.4289    0.8250    0.0000 O   0  0  0  0  0  0  0  0  0  0  0  0
    2.1434   -0.4125    0.0000 O   0  0  0  0  0  0  0  0  0  0  0  0
  9  5  1  0  0  0  0
 10  6  2  0  0  0  0
 11  7  1  0  0  0  0
 12  8  2  0  0  0  0
 14  5  2  0  0  0  0
 14  6  1  0  0  0  0
 15  7  2  0  0  0  0
 15  8  1  0  0  0  0
 16  9  2  0  0  0  0
 16 10  1  0  0  0  0
 17 11  2  0  0  0  0
 17 12  1  0  0  0  0
 18 13  1  0  0  0  0
 18 14  1  0  0  0  0
 19 13  1  0  0  0  0
 19 15  1  0  0  0  0
 20  1  1  0  0  0  0
 20  2  1  0  0  0  0
 20  3  1  0  0  0  0
 20 16  1  0  0  0  0
 21 18  2  0  0  0  0
 22 19  2  0  0  0  0
 23  4  1  0  0  0  0
 23 17  1  0  0  0  0
M  END
> <DATABASE_ID>
DB09495

> <DATABASE_NAME>
drugbank

> <SMILES>
COC1=CC=C(C=C1)C(=O)CC(=O)C1=CC=C(C=C1)C(C)(C)C

> <INCHI_IDENTIFIER>
InChI=1S/C20H22O3/c1-20(2,3)16-9-5-14(6-10-16)18(21)13-19(22)15-7-11-17(23-4)12-8-15/h5-12H,13H2,1-4H3

> <INCHI_KEY>
XNEFYCZVKIDDMS-UHFFFAOYSA-N

> <FORMULA>
C20H22O3

> <MOLECULAR_WEIGHT>
310.393

> <EXACT_MASS>
310.156894568

> <JCHEM_ACCEPTOR_COUNT>
3

> <JCHEM_ATOM_COUNT>
45

> <JCHEM_AVERAGE_POLARIZABILITY>
34.85780327493255

> <JCHEM_BIOAVAILABILITY>
1

> <JCHEM_DONOR_COUNT>
0

> <JCHEM_FORMAL_CHARGE>
0

> <JCHEM_GHOSE_FILTER>
1

> <JCHEM_IUPAC>
1-(4-tert-butylphenyl)-3-(4-methoxyphenyl)propane-1,3-dione

> <ALOGPS_LOGP>
4.98

> <JCHEM_LOGP>
4.5647458346666685

> <ALOGPS_LOGS>
-5.70

> <JCHEM_MDDR_LIKE_RULE>
0

> <JCHEM_NUMBER_OF_RINGS>
2

> <JCHEM_PHYSIOLOGICAL_CHARGE>
0

> <JCHEM_PKA_STRONGEST_ACIDIC>
9.87709864978138

> <JCHEM_PKA_STRONGEST_BASIC>
-4.837519161004551

> <JCHEM_POLAR_SURFACE_AREA>
43.370000000000005

> <JCHEM_REFRACTIVITY>
91.75109999999998

> <JCHEM_ROTATABLE_BOND_COUNT>
6

> <JCHEM_RULE_OF_FIVE>
1

> <ALOGPS_SOLUBILITY>
6.22e-04 g/l

> <JCHEM_TRADITIONAL_IUPAC>
avobenzone

> <JCHEM_VEBER_RULE>
0

> <DRUGBANK_ID>
DB09495

> <DRUG_GROUPS>
approved; investigational

> <GENERIC_NAME>
Avobenzone

> <SYNONYMS>
Avobenzone; Butyl Methoxydibenzoylmethane; Parsol 1789

> <PRODUCTS>
(Re)Setting Refreshing Mist SPF 40; 100 SPF Cream; 1000 Roses Daily Shade Facial SPF 18; 14-day Skin Rescue SPF 30; 15 Continuous Spray Sunscreen With Instant Bronzer; 15 SPF Fps Premium Sunscreen; 15 SPF Fps Sunscreen Lotion Écran Solaire; 15 SPF Sunscreen Uva/uvb Protection Oil-free Milky Spray; 15 SPF Sunscreen Uva/uvb Protection Vitalizing Age-defying Cream; 15 Spray Gel Sunscreen With Instant Bronzer; 15 Tanning CVS; 2 in 1 Sunscreen and Gradual Self-Tanner; 2000dl-cl30; 24/7 Life Kids Sunscreen SPF 50; 24/7 Life Sunscreen SPF 30; 24/7 Life Sunscreen SPF 50; 24/7 Life by 7- Eleven Sunscreen Broad Spectrum SPF50; 24/7 Life by 7-Eleven Broad Spectrum SPF 50; 24/7 life by 7-Eleven Broad Spectrum SPF; 24K Bio-Brightening Skin Tone Moisturizer SPF 30; 24K Skin Tone Moisturizer SPF 30; 29 by LYDIA MONDAVI Napa Valley BROAD SPECTRUM SPF 30 D VINE DAY; 2X Sunblock SPF 50; 3-in-1 Face Moisturizer Broad Spectrum SPF 20; 30 Continuous Spray Sunscreen With Instant Bronzer; 30 Lotion Sunscreen Moisture Max; 30 SPF; 30 SPF Fps Continuous Spray; 30 SPF Fps High Protection Sunscreen; 30 SPF Fps Kids High Protection Sunscreen; 30 SPF Fps Sunscreen Lotion Écran Solaire; 30 SPF Jack Nicklaus; 30 SPF Sunscreen Uva/uvb Protection Delicate Skin Ultra Soothing Lotion; 30 SPF Sunscreen Uva/uvb Protection High Protection Age-defying Cream; 30 SPF Sunscreen Uva/uvb Protection Oil-free Milky Spray; 30 SPF/fps Sunscreen Spray Écran Solaire En Vaporisateur; 30 Spray Gel Sunscreen With Instant Bronzer; 360 by QUR Lemon Verbena lip balm; 360 by QUR Spanish lime lip balm; 360 by QUR Vanilla lace lip balm; 360 by QUR Watercress mint lip balm; 3LAB Hydra Day SPF 20 Broad Spectrum Water-Based Sunscreen; 3LAB PERFECT Sunscreen SPF 50 Plus Broad Spectrum; 3lab Ww Day Spf40 Broad Spectrum; 4 Spray Gel Sunscreen With Instant Bronzer; 4-IN-1 Broad Spectrum SPF 50 Sunscreen; 4362 First Aid Kit; 45 SPF Fps High Protection Sunscreen; 45 SPF Fps Sunscreen Lotion Écran Solaire; 45 SPF High Protection Uva Uvb Cream; 45 SPF Sunscreen Spray; 4Life Enummi Protective Day Moisturizer SPF-15; 50 Lotion Sunscreen Moisture Max; 50 SPF-fps Sunscreen; 50 Spray Gel Sunscreen With Instant Bronzer; 50+ Dry Touch CRème Protection Solaire Large Spectre Fps 50+ / Sun Protection Cream Broad Spectrum SPF 50+; 5281 Sunscreen; 5298 Sunscreen; 5299 Sunscreen; 5414 Sunscreen; 55 SPF/fps Sunscreen Lotion Écran Solaire; 60 SPF Stick Protection Ciblee Uva Uvb Anthelios XL; 7 In One Cc Tone Correcting; 7 Select Sport SPF 30; 7-Eleven Broad Spectrum SPF; 7-Select Sport SPF 50; 7-in-1 Anti-Aging Vitamin Moisturizer Broad Spectrum SPF15 Sunscreen; 70 Dry Touch SPF 70; 70 SPF Body Mist; 70 SPF Cream; 70 SPF Sunblock; 70 SPF/fps Sunscreen Lotion Écran Solaire; 85 SPF Cream; A Cream SPF 30; A M Stimulus Complex SPF 25; A Perfect World SPF 25 Age Defense Moisturizer With White Tea; A Perfect World SPF 35 Uv Broad Spectrum Face Protector; A Perfect World SPF 40 Age Defense Broad Spectrum Moisturizer With White Tea; A Retinol SPF 20; A-cream; A.H.C. COMPLETE CHOICE Moisture Cream; AGE Revision SPF50; AGELESS Total Rejuvenating Hand; AHAVA ACTIVE DEADSEA MINERALS AHAVA Age Control Even Tone Moisturizer Broad Spectrum SPF 20; AHAVA ACTIVE DEADSEA MINERALS Mineral Suncare spf 15; AHAVA ACTIVE DEADSEA MINERALS Mineral Suncare spf 30; AHAVA ACTIVE DEADSEA MINERALS Mineral Suncare spf 50; AHAVA ACTIVE DEADSEA MINERALS Mineral Suncare spf 50 face; AHAVA Protecting Body SPF30; AHAVA Protecting Moisturizing SPF50; AL00378 Alba Cool Sport Sunscreen SPF50; AL0038100 Alba HW Sunscreen Coconut Milk SPF50; AL0038100 Alba VE Sunscreen Fragrance Free SPF50; AL0038200 Alba VE Sunscreen Kids SPF50; AL0038502 Alba Tropical Fruit Kids Sunscreen SPF40; AL0039006 Alba Sport Sunscreen Fragrance Free SPF45; AL0043800 Alba Botanica Sheer Shield Sunscreen FF SPF50; AL0082706 Alba Botanica HW Sunscreen Green Tea SPF45; AL0083103 Alba Hawaiian Dry Coconut Sunscreen SPF15; ALGODEFENSE Rides Multi Protectrice Multi-Protective Wrinkle Cream Sunscreen Broad Spectrum SPF20; ALOE UP Broad Spectrum SPF 15 Sunscreen; ALOE UP Broad Spectrum SPF 30 Sunscreen; ALOE UP Broad Spectrum SPF 50 Sunscreen; ALOE UP Kids Broad Spectrum SPF 50 Sunscreen; AMBI Even and Clear Facial Moisturizer SPF-30; AMBI SKINCARE Even and Clear Daily Facial Moisturizer SPF 30; AMBI Sunscreen; ANEW Clinical Luminosity Pro Brightening Hand; ANEW Platinum Day; ANEW Solar Advance Sunscreen Body Mist; ANNA LOTAN Clear Protector Free Broad Spectrum SPF 32 Sunscreen; APPLE OF SODOM Deep Wrinkle Broad Spectrum SPF30; ARTISTRY YOUTH XTEND Protecting Broad Spectrum SPF 15; ARTISTRY YOUTH XTEND Protecting Broad Spectrum SPF 15 Sunscreen; ASYSTEM Daily Defense Moisturizer SPF30; Absolue Creme SPF 15; Absolue Fluide SPF 15; Absolue Hand SPF 15; Absolue Premium Bx Sunscreen Broad Spectrum SPF 15 Absolute Replenishing; Absolue Velvet Cream With Broad Spectrum SPF 15; Absolutely Ageless Daily Moisturizer; Abyssine Cream + SPF 23; Academy Continuous SPF 50; Academy Continuous Sport SPF 50; Academy SPF 50; Academy Sport SPF 30; Academy Sport SPF 50; Academy Sport Smart Care Kids SPF 50 Sunscreen; Academy Sports Outdoors SUNSCREEN CONTINUOUS BROAD SPECTRUM SPF 50 Water-Resistant; Academy Sports Outdoors SUNSCREEN CONTINUOUS SPORT BROAD SPECTRUM SPF 50 Water-Resistant; Acaifusion Lip Balm Broad Spectrum SPF 30 Supergoop; Active Breathable Sunblock SPF 30; Active Breathable Sunblock SPF 45; Active Protection Fresh Grapefruit Sunscreen Lip Balm; Active Protection Lemon Twist Sunscreen Lip Balm; Active Protection With Aloe; Active Radiance Day Moisture SPF 30; Active Sport; Active Sport Family Sunscreen SPF 35; Acwell Aqua Cap Sule Sun Control; Acwell Daily Sun Control; Adaptasun CRème De Soin Solaire Mer Et Tropiques Visage Fps/SPF 25; Adaptasun CRème De Soin Solaire Visage Fps/SPF 15; Adaptasun Sea and Tropics / Mer Et Tropiques Protective Face Care / Soin Protecteur Visage SPF 25 / Fps 25; Adaptasun Sea and Tropics Protective Face Care SPF 25; Adaptasun Sun Care Body SPF 15; Adaptasun Sun Care Face SPF 15; Adaptasun Sun Care Lotion Body/ Lait De Soin Solaire Corps SPF/fps 15; Adaptasun Sun Care Lotion Sea and Tropics Body / Lait De Soin Solaire Mer Et Tropiques Corps SPF/fps 35; Adaptasun Sun Care Sea and Tropics Face SPF 25; Advanced Anti Aging Unscented with sunscreen SPF 20; Advanced Anti-Wrinkle Therapy Cicatricure; Advanced Ceramide Lift and Firm Day Cream Broad Spectrum Sunscreen SPF 15; Advanced Dynamics Soothing day Moisture Broad Spectrum SPF 15 Jafra; Advanced Firming and Anti Wrinkle; Advanced Firming and Anti-Wrinkle Moisturizer Day Broad Spectrum SPF18 Sunscreen; Advanced Formula Lip Balm SPF 25; Advanced Formula Lip Moisturizer Sunscreen SPF 25; Advanced Marine Biology Day Cream; Advanced Marine Biology Day SPF 20 La Prairie Group AG; Advanced Marine Biology Day Sunscreen Broad Spectrum SPF 20; Advanced Revital; Advanced Solutions Daily Moisturizer SPF 15; Advanced Time Zone Age Reversing Line Wrinkle Broad Spectrum SPF 15 Dry Skin; Advanced Time Zone Age Reversing Line Wrinkle Broad Spectrum SPF 15 Normal Combo Skin; Advanced Time Zone Age Reversing Line/Wrinkle Oil Free Broad Spectrum SPF 15 Normal/Combination Skin; Advanced Wrinkle Reducer Lotion SPF 15; Aegis Daily Facial SPF 25; Affinia Facial Moisturizer; African Extracts Rooibos Moisturising Day Cream; After Shave Broad Spectrum SPF 15; Age Balancing Moisture Broad Spectrum SPF 30 | Pa+++; Age Defying Hydrating Sunscreen SPF 30; Age Defying Moisturizer SPF 18; Age Delay - Creme Prolongateur Jeunesse - SPF 15; Age Delay Emulsion Prolongateur Jeunesse - SPF 15; Age Fitness Power 2 SPF 15; Age Iq Sunscreen Gel Broad Spectrum SPF 40; Age Minimize 3d Day Cream SPF 30 Broad Spectrum Sunscreen; Age Perfect Glow Renewal SPF 30 Day Lotion Moisturizer; Age Perfect Hydra-nutrition Ultra-nourishing Lotion; Age Perfect Rosy Tone Day Cream; Age Renewal Deep Wrinkle Moisturizer; Age Renewal SPF 25; Age Shield Face + Moisturizing Repair; Age Shield Face Sunscreen SPF 110; Age Shield Face Sunscreen SPF 60; Age Shield Face Sunscreen SPF 85; Age and Pollution protector Broad Spectrum SPF 50; Age-defying + Moisturizing Neck & Chest Treatment SPF 15; Age-fighting Moisturizer Sunscreen SPF 30; Ageless Results Renewing Day Cream Creme De Jour Revigorante SPF/fps 15; Ageless Solar Defense (SPF 30); Ahava Active Deadsea Minerals Age Control Even Tone Moisturizer Broad Spectrum Spf20; Ahava Active Deadsea Minerals Time To Energize Age Control Moisturizing Broad Spectrum Spf15; Ahava Active Deadsea Minerals Time To Hydrate Essential Lip Balm Broad Spectrum Spf15; Ahava Active Deadsea Minerals Time To Hydrate Essential Moisturizing Broad Spectrum Spf15; Ahava Age Perfecting Broad Spectrum Spf15; Alba Body Daily Shade SPF15; Alba Botanica Even Advanced Moisturizer SPF15; Alba Botanica Facial Sunscreen FF SPF30; Alba Botanica HW Sunscreen Aloe Vera SPF30; Alba Botanica HW Sunscreen Green Tea SPF45; Alba Botanica Kids SunscreenTropical Fruit SPF45; Alba Botanica Natural Very Emollient Sunscreen Kids SPF40; Alba Botanica Natural Very Emollient Sunscreen Sport Spray SPF40; Alba Botanica Pure Lavender Sunscreen SPF45; Alba Botanica Sensitive FF Sunscreen SPF30; Alba Botanica VE Daily Shade SPF15 Body; Alba Even Advanced Sea Moss Moisturizer SPF15; Alba HW Sunscreen Soothing Aloe Vera SPF30; Alba Hawaiian Sunscreen Green Tea SPF45; Alba HawaiianDry Sunscreen SPF15; Alba VE Facial Sunscreen SPF30; Alba VE Sunscreen SPF30 Fragrance Free; Alba VE Sunscreen Sport SPF45; Aldi Lacura Kids SPF 50 Sunscreen; Aldi Lacura Sport SPF 50; Algenist; All Around Safe Block Aqua Sun Gel; All Day All Year; All Day Moisture with AHAs SPF 15 Broad Spectrum Sunscreen; All Sport Non-freeze Face Protector SPF 30; All You Need + Broad Spectrum Oil Absorbing Lotion SPF 15; All You Need Continuous Action 24 Hour Moisture SPF 15 for Normal Skin; All You Need Plus Broad Spectrum SPF 15 24-hour Moisture/ Normal Skin; Almay Anti Aging Lip Care SPF 20; Almay Daily Moisturizer SPF 15 for Dry Skin; Almay Daily Moisturizer SPF 15 for Normal Combo Skin; Almay Daily Moisturizer SPF 15 for Oily Skin; Almay Kinetin Age Defying Daily Cream SPF 15; Almay Kinetin Age Defying Daily Lotion SPF 15; Almay Protective Lip Care SPF 25; Almay Protective Lip Care SPF 25 (shade-clear); Aloe Ice SPF 20; Aloe Ice SPF 50; Aloe Ice White SPF 30; Aloe Soothing Moisture Lotion SPF 15; Aloe Soothing Moisture SPF 15; Aloe Sunscreen; Aloe Up Broad Spectrum SPF 15; Aloe Up Broad Spectrum SPF 30; Aloe Up Broad Spectrum SPF 30 Sunscreen; Aloe Up Broad Spectrum SPF 50; Aloe Up Broad Spectrum SPF 50 Sunscreen; Aloe Up Coco-mango SPF-10; Aloe Up Coco-mango SPF-50; Aloe Up Dark Tanning Oil SPF 4; Aloe Up Kids SPF 50; Aloe Up Kids Sport Sunscreen SPF 50; Aloe Up Light Tanning Oil SPF-6; Aloe Up Lil Kids Continuous Sunscreen SPF 50; Aloe Up Lil Kids SPF 50; Aloe Up Medicated Lip Balm SPF 30; Aloe Up Natural Lip Ice Sunscreen SPF 15; Aloe Up Pro 15; Aloe Up Pro 30 Continuous Sunscreen; Aloe Up Pro 50 Continuous Sunscreen; Aloe Up Pro SPF 30 Sunscreen; Aloe Up Pro SPF 30 Ultra Sport Sunscreen; Aloe Up Pro SPF 50 Advanced Formula Ultra Sport Sunscreen; Aloe Up Pro SPF 50 Lotion; Aloe Up SPF 30 C/S Sunscreen with Aloe Vera; Aloe Up SPF 30 Coco-Mango C-spray; Aloe Up SPF 50 C/S Sunscreen with Aloe Vera; Aloe Up SPF 50 Coco-Mango C-spray; Aloe Up Sport Natural Balm SPF-15; Aloe Up Sport SPF 30 C-Spray; Aloe Up Sport SPF 50 C-spray; Aloe Up Sport SPF-15; Aloe Up Sport SPF-50; Aloe Up Sunscreen SPF 50; Aloespa Body Mist; Alyria Skin Optimizing System-corrective Protection-SPF 30 Mist; Ambi Essentials; Ambi Essentials Daily Moisturizer Sunscreen Broad Spectrum SPF15; Ambi Even and Clear Daily Moisturizer Sunscreen Broad Spectrum SPF30; Ambient Light Body Lotion SPF 50; Ambient Light Face Cream SPF 50; Ambient Lip Shield Stick SPF 45; Ambient Ultra Light Mist Spray SPF 30; American Crew Acumen Multi Defense Moisturizing Sunscreen; American Crew All In One Face Balm Broad Spectrum SPF 15; American Crew All-IN-one Face Balm; American Crew All-IN-one Face Balm SPF 15; Amerisource Bergen Good Neighbor Pharmacy Sport SPF 50; Amla Glow Ultra Hydrating Day Moisturizer Broad Spectrum SPF 25 Sunscreen; Amorepacific Natural Protector; Amorepacific Resort Collection Sun Protection; Amorepacific Resort Collection Sun Protection Mist; Amorepacific Resort Collection Sun Protection Mist Broad Spectrum SPF 30 Sunscreen; Anew Alternative Intensive Age Treatment SPF 25 Day; Anew Clinical Absolute Even Spot Correcting Hand; Anew Clinical Skinvincible Multi-Shield; Anew Day Force Vertical Lifting Complex, SPF 15; Anew Hydra Fusion Daily Beauty Defense; Anew Men Daily Moisturizer; Anew Neutralize; Anew Platinum Day Cream; Anew Rejuvenate 24 Hour Eye Moisturizer Hydratant Yeux 24 Heures SPF 25 Day; Anew Rejuvenate 24 hour Eye Moisturizer; Anew Rejuvenate Day Revitalizing; Anew Rejuvenate Day Revitalizing Cream / CRème Revitalisante SPF/fps 25 Uva/uvb; Anew Rejuvenate Day Revitalizing Cream/creme Revitalisante SPF/fps 25; Anew Reversalist Complete Renewal Day; Anew Reversalist Complete Renewal Day Cream; Anew Reversalist Complete Renewal Day Lotion; Anew Reversalist Day Renewal; Anew Reversalist Day Renewal Cream SPF Fps 25 Uva Uvb; Anew Skinvincible Day; Anew Skinvincible Day Lotion Broad Spectrum SPF 50 Sunscreen; Anew Solar Advance Sunscreen Body; Anew Solor Advance Sunscreen Face; Anew Sun Sunscreen Body Lotion; Anew Sun Sunscreen Body Mist Lotion; Anew Sun Sunscreen Face Lotion; Anew Ultimate 7S Day; Anew Ultimate Day 7s Cream; Anew Ultimate Day Multi-Performance; Anew Ultimate Day Multi-performance Cream; Anew Vitale Day; Anew Vitale Day Cream; Anew Vitale Day Lotion; Angelica Protective SPF 15; Anna Lotan Clear Silky Sunscreen Gel Broad Spectrum SPF30; Anthelios - Lait SPF 45; Anthelios Age Correct; Anthelios Dermo-kids; Anthelios Dermo-kids 50+; Anthelios L - Ecran Intolerances Solaires SPF 60; Anthelios L-lait Ecran Intol.solaire SPF 60; Anthelios Lotion Corps Ultra-fluide; Anthelios Mist; Anthelios S - Ecran Solaire SPF 30; Anthelios SPF 45; Anthelios Spray SPF 30; Anthelios Spray SPF 45; Anthelios Ultra-fluid Lotion; Anthelios XL Cream SPF 60; Anthelios XL Melt-IN Cream; Anthelios XL Stick; Anthelios-creme Solaire SPF 10; Anthelios-ecran Invisible SPF 20; Anthelios-lait Ecran Invisible SPF 20; Anthelios-stick Ecran SPF 30; Antherpos; Antherpos-ceralip Solaire SPF 50; Anti Aging SPF Moistruizer; Anti Aging Vitamin Complex; Anti-Aging Complex SPF 30 Merle Norman; Anti-Aging Daily Moisturizer Sunscreen Broad-Spectrum SPF 30; Anti-Aging Day Broad Spectrum SPF 30 La Prairie Group AG; Anti-Aging Day Protect SPF 22; Anti-Aging Day SPF 30; Anti-Aging Emulsion SPF 30; Anti-Aging Eye Broad Spectrum SPF 15 la prairie Switzerland; Anti-Aging Eye SPF 15; Anti-Aging Tinted Moisturizer Broad Spectrum SPF 30; Anti-Aging Vitamin Complex 7-in-1 Broad Spectrum SPF15 Sunscreen; Anti-Wrinkle Day Cream Suncreen Broad Spectrum SPF 30; Anti-aging Complex Broad Spectrum SPF 30; Anti-aging Complex Emulsion Broad Spectrum SPF 30; Anti-aging Cream SPF 15; Anti-aging Daily Moisturizer SPF 15; Anti-aging Day Sunscreen Broad Spectrum SPF 30; Anti-aging Eye Cream SPF 15; Anti-aging Eye Sunscreen Broad Spectrum SPF 15; Anti-aging Facial Moisturizer SPF/fps 70; Anti-aging Follow-UP Daycare SPF 15; Anti-aging Moisturizer Broad Spectrum SPF 30 | Pa+++; Anti-aging Moisturizing Complex-UV Protection; Anti-aging Sunscreen Broad Spectrum SPF 30; Anti-aging Tinted Moisturizer; Anti-shine Anthelios XL Dry Touch Gel-cream; Anti-shine Dry Touch Uv Lotion; Anti-wrinkle Intensive Day Cream; Anti-wrinkle and Firming Broad Spectrum Spf18 Sunscreen; Antioxidant Body Sunscreen Creme Spf50 Broad Spectrum; Antioxidant Daily Protectant SPF 30; Antioxidant Daily Protectant SPF 45; Antioxidant Daily Protectant SPF 50; Aqua-fluid; Aquaderm-30; Aquaderm-30 Sunscreen Lotion; Aquagel Defense 50; Aqualia Thermal Uv; Aqualia Thermal Uv Defense Moisturizing Cream Spf30; Aqualia Thermal Uv SPF 20; Aqualumiere SPF 15; Aquaphor Lip Protectant and Sunscreen; Aquaphor Lip Repair Stick and Sunscreen; Aquaphor Lip Repair and Protect; Aquapower; Aquasource Non Stop SPF 15 - Peau Normale Mixte; Aquasource Non Stop SPF 15 - Peau Seche; Aramis Lab Series Power Protector Broad Spectrum SPF 50; Aramis Lab Series Power Protector SPF 50; Arbonne International Before Sun Water Resistant Sunscreen SPF 30; Arbonne International Lip Saver Sunscreen SPF 30; Arbonne International Save Face & Body Sunscreen SPF 15; Arbonne Lip Saver Sunscreen SPF 30; Arbonne Made In The Shade Self-tanner With SPF 15; Arbonne RE9 Advanced Extra Moisture Restorative Day SPF 20; Arbonne RE9 Advanced Restorative Day Broad Spectrum SPF 20; Arbonne RE9 Advanced for Men Facial Moisturizer Broad Spectrum SPF 20; Arbonne Revelage Age Spot Brightening Day with SPF 30; Arbonne Save Face & Body Sunscreen SPF 15; Arbonne Save Face and Body Sunscreen SPF 15; Arbonne Water-resistant Sunscreen SPF 30; Art Of Sport Skin Armor High Performance Broad Spectrum SPF-50 Sunscreen; Artistry Essential Hand Treatment SPF 15; Artistry Essentials Hand Treatment; Artistry Pure White Moisturiser I; Artistry Skin Nutrition BALANCING Matte Day; Artistry Skin Nutrition Balancing Matte Day Lotion; Artistry Skin Nutrition HYDRATING Day; Artistry Skin Nutrition Hydrating Day Lotion; Artistry Skin Nutrition RENEWING Reactivation Day Cream SPF 30; Artistry Skin Nutrition RENEWING Reactivation Day SPF 30; Artistry Skin Nutrition Renewing Reactivation Day Cream; Artistry Skin Nutrition Renewing Reactivation Day Lotion; Artistry Time Defiance Day Protect CRème SPF 15; Artistry Time Defiance Day Protect Lotion SPF 15; Artistry Tinted Moisturiser SPF 15; Artistry Vi Moisture Rich Protective Moisturizer SPF 15; Artistry Vi Time Defiance Daytime Protective Creme; Artistry Youth Xtend Protecting Cream; Artistry Youth Xtend Protecting Lotion; Aruba Aloe Very Water Resistant Sunscreen SPF 50; Aruba Sun SPF 30 Sunscreen; Aruba Sun SPF 50 Sunscreen; Aruba Sun SPF 70 Sunscreen; Atomy Sun; Aubio Hydrating Lip Therapy Broad Spectrum SPF 30 Sunscreen; Aubio Life Sciences Lip; Aunt Bees Five Flavors Pineapple Coconut Lip Balm; Aunt Bees Five Flavors Sweet Almond Lip Balm; Aunt Bees Five Flavors Tangelo Lip Balm; Aunt Bees Five Flavors Wintermint Lip Balm; Aunt Bees SPF 35 Cherry Lip Balm; Auolive Day Glower Facial Moisturiser with Sunscreen; Aureli Broad Spectrum; Austalian Gold Broad Spectrum SPF 15 Sunscreen; Austalian Gold Broad Spectrum SPF 30 Sunscreen; Austalian Gold Broad Spectrum SPF 50 Sunscreen; Austalian Gold SPF 6 Sunscreen LOW PROTECTION; Austalian Gold Sensitive Sun protection SPF 50; Austalian Gold Sunscreen stick SPF 50 high protection; Australian Gold BOAD SPECTRUM SPF 30; Australian Gold BOAD SPECTRUM SPF 50; Australian Gold BROAD SPECTRUM SPF 15; Australian Gold BROAD SPECTRUM SPF 15 Sunscreen; Australian Gold BROAD SPECTRUM SPF 30; Australian Gold BROAD SPECTRUM SPF 30 Sunscreen; Australian Gold BROAD SPECTRUM SPF 30 X-treme Sport Sunscreen; Australian Gold BROAD SPECTRUM SPF 4; Australian Gold BROAD SPECTRUM SPF 50; Australian Gold BROAD SPECTRUM SPF 50 X-treme Sport Sunscreen; Australian Gold BROAD SPECTRUM SPF 8; Australian Gold Botanical 70 Broad Spectrum SPF 70; Australian Gold Botanical Broad Spectrum SPF 70; Australian Gold Botanical SPF 50; Australian Gold Botanical Sunscreen Broad Spectrum SPF 30 Natural; Australian Gold Botanical Sunscreen Broad Spectrum SPF 50 Natural; Australian Gold Broad Spectrum 30; Australian Gold Broad Spectrum SPF 15; Australian Gold Broad Spectrum SPF 30; Australian Gold Broad Spectrum SPF 30 Sheer Sunscreen; Australian Gold Broad Spectrum SPF 30 with invisidry Technology; Australian Gold Broad Spectrum SPF 4; Australian Gold Broad Spectrum SPF 4 Sunscreen; Australian Gold Broad Spectrum SPF 45; Australian Gold Broad Spectrum SPF 50; Australian Gold Broad Spectrum SPF 50 Sunscreen; Australian Gold Broad Spectrum SPF 8; Australian Gold Carrot Oil Formula Broad Spectrum SPF 4; Australian Gold Exotic Blend spf8; Australian Gold Extreme Sport SPF 30; Australian Gold Hello Kitty Broad Spectrum 50; Australian Gold Instant Bronzer 15 sunscreen; Australian Gold Instant Bronzer 30 sunscreen; Australian Gold Instant Bronzer Broad Spectrum SPF 15; Australian Gold Instant Bronzer Broad Spectrum SPF 30; Australian Gold Instant Bronzer Broad Spectrum SPF 4 Sunscreen; Australian Gold Instant Bronzer SPF 15 Sunscreen; Australian Gold Instant Bronzer SPF 8 Sunscreen; Australian Gold Instant Brozer SPF 30 Sunscreen; Australian Gold Invisidry Technology Oil-Free Formula Broad Spectrum SPF 30; Australian Gold Just Shine SPF 50 Glitter Sunscreen; Australian Gold Justice SPF 50 Glitter Sunscreen; Australian Gold Little Joey SPF 50; Australian Gold Mermaid SPF 50 Glitter Sunscreen; Australian Gold SPF 15; Australian Gold SPF 15 C/S Sunscreen with Bronzer; Australian Gold SPF 15 Sheer Coverage Sunscreen; Australian Gold SPF 15 Sunscreen; Australian Gold SPF 30; Australian Gold SPF 30 Sport Ultra Chill; Australian Gold SPF 30 Sunscreen; Australian Gold SPF 4 Sunscreen; Australian Gold SPF 50; Australian Gold SPF 50 Sunscreen with Instant Bronzer; Australian Gold SPF 6 Bronzer Oxybenzone; Australian Gold SPF 70; Australian Gold X-treme Sport SPF 30 C/S Sunscreen; Australian Gold little joey SPF 50; Autobronzant Creme Fps 15; Autobronzant SPF 7; Autobronzant Vapo Fps 15; Avail Body with Sunscreen; Avail Facial Sunscreen SPF 25; Aveda Lip Saver SPF 15; Aveeno ABSOLUTELY AGELESS leave-on day mask Broad Spectrum SPF 30; Aveeno ACTIVE NATURALS absolutely ageless leave-on day mask Broad Spectrum SPF30; Aveeno ACTIVE NATURALS positively radiant sheer daily moisturizer Broad Spectrum SPF 30; Aveeno ACTIVE NATURALS protect Plus hydrate sunscreen BROAD SPECTRUM SPF30; Aveeno Absolutely Ageless Daily Moisturizer Broad Spectrum SPF30; Aveeno Absolutely Ageless Daily Moisturizer Sunscreen Broad Spectrum SPF30; Aveeno Active Naturals Ageless Vitality Rejuvenating Day Moisturizer SPF 30; Aveeno Active Naturals Daily Moisturizing Broad Spectrum SPF15; Aveeno Active Naturals Hydrosport Sunblock SPF 50; Aveeno Active Naturals Hydrosport Sunblock SPF 85; Aveeno Active Naturals Hydrosport Sunblock SPF30; Aveeno Active Naturals Hydrosport Sunscreen Broad Spectrum SPF30; Aveeno Active Naturals Hydrosport Sunscreen Broad spectrum SPF30; Aveeno Active Naturals Hydrosport Sunscreen Lotion SPF 85; Aveeno Active Naturals Hydrosport Sunscreen Spray SPF 85; Aveeno Active Naturals Positively Ageless Daily Antioxidant Defense Moisturizer SPF 42; Aveeno Active Naturals Positively Ageless Day; Aveeno Active Naturals Positively Ageless Multidefense Daily Moisturizer SPF 42; Aveeno Active Naturals Positively Ageless Youth Perfecting Moisturizer SPF 30; Aveeno Active Naturals Positively Ageless Youth Perfecting Moisturizer Sunscreen Broad Spectrum SPF30; Aveeno Active Naturals Positively Radiant Daily Moisturizer Broad Spectrum SPF15; Aveeno Active Naturals Positively Radiant Daily Moisturizer SPF 15; Aveeno Active Naturals Positively Radiant Daily Moisturizer Sunscreen Broad Spectrum SPF15; Aveeno Active Naturals Positively Radiant Daily Moisturizer with sunscreen Broad Spectrum SPF30; Aveeno Active Naturals Protect + Hydrate SPF 30; Aveeno Active Naturals Protect + Hydrate SPF 45; Aveeno Active Naturals Protect + Hydrate SPF 60; Aveeno Active Naturals Protect Plus Hydrate Sunscreen Broad Spectrum SPF 70; Aveeno Active Naturals Protect Plus Hydrate Sunscreen Broad Spectrum SPF50 For Face; Aveeno Active Naturals Protect Plus Hydrate Sunscreen Broad Spectrum SPF50 for face; Aveeno Active Naturals Smart Essentials Daily Nourishing Moisturizer SPF 30; Aveeno Active Naturals Smart Essentials Daily Nourishing Moisturizer Sunscreen Broad Spectrum SPF30; Aveeno Active Naturals Sunscreen Lotion Face Spf60; Aveeno Active Naturals Sunscreen Lotion SPF 30; Aveeno Active Naturals Sunscreen Lotion SPF 45; Aveeno Active Naturals Sunscreen Lotion SPF 55; Aveeno Active Naturals Sunscreen Spray SPF 30; Aveeno Active Naturals Sunscreen Spray SPF 45; Aveeno Active Naturals Ultra Calming Daily Moisturizer Sunscreen Broad Spectrum SPF15; Aveeno Active Naturals Ultra-Calming Daily Moisturizer Broad Spectrum SPF15; Aveeno Baby Continuous Protection Sunscreen Broad Spectrum SPF55; Aveeno Baby Essential Daily Care Baby and Mommy Gift Set; Aveeno Baby Essential Daily Care Mommy and Me Gift Set; Aveeno Baby Sunscreen Lotion SPF 55; Aveeno Clear Complexion Sheer Daily Moisturizer Sunscreen Broad Spectrum SPF 30; Aveeno Continuous Protection Face SPF100 Plus; Aveeno Continuous Protection SPF 30; Aveeno Continuous Protection SPF85; Aveeno DAILY MOISTURIZING SUNSCREEN BROAD SPECTRUM SPF 15; Aveeno Daily Moisturizing SPF15; Aveeno FAVORITES morning radiance regimen; Aveeno Hydrosport Sunscreen Wet Skin Broad Spectrum SPF 30; Aveeno POSITIVELY RADIANT sheer daily moisturizer sunscreen BROAD SPECTRUM SPF 30; Aveeno PROTECT plus HYDRATE sunscreen BROAD SPECTRUM SPF 50 FOR FACE; Aveeno Positively Ageless Complete; Aveeno Positively Ageless Complete Anti Aging System; Aveeno Positively Ageless Daily Moisturizer SPF 30; Aveeno Positively Ageless Face SPF90; Aveeno Positively Ageless SPF55; Aveeno Positively Ageless SPF70; Aveeno Positively Radiant Daily Moisturizer SPF 15; Aveeno Positively Radiant Daily Moisturizer Sunscreen Broad Spectrum SPF 15; Aveeno Positively Radiant Daily Moisturizer Sunscreen Broad Spectrum SPF 30; Aveeno Positively Radiant Daily Moisturizer sunscreen Broad Spectrum SPF30; Aveeno Positively Radiant Skin Moisturizer SPF 15; Aveeno Positively Radiant Targeted Cream Sunscreen Broad Spectrum SPF 15; Aveeno Protect Plus Hydrate Sunscreen Broad Spectrum Body SPF 30; Aveeno Protect Plus Hydrate Sunscreen Broad Spectrum Body SPF 60; Aveeno Protect Plus Hydrate Sunscreen Broad Spectrum Face SPF 60; Aveeno Protect Plus Hydrate Sunscreen Broad Spectrum SPF 30; Aveeno Protect Plus Hydrate Sunscreen Broad Spectrum SPF 70; Aveeno Protect Plus Hydrate Sunscreen Broad Spectrum SPF30; Aveeno Protect Plus Hydrate Sunscreen Broad Spectrum SPF50; Aveeno Protect Plus Hydrate Sunscreen Broad Spectrum SPF70; Aveeno Protect Plus Refresh Sunscreen Broad Spectrum Body SPF 60; Aveeno Skin Brightening Daily Treatment; Aveeno Sunblock Spray SPF 30; Aveeno Sunblock Spray SPF 45; Aveeno Sunscreen Lotion Face SPF 30; Aveeno Sunscreen Lotion SPF 100; Aveeno Ultra Calming Daily Moisturizer Sunscreen Broad Spectrum SPF 15; Aveeno Ultra-Calming Daily Moisturizer SPF15; Aveeno favorites from Positively radiant; Aveeno positively radiant daily moisturizer sunscreen broad spectrum SPF 15; Aveeno positively radiant targeted dark spot corrector Broad Spectrum SPF 15; Aveeno ultra-calming daily moisturizer Broad Spectrum SPF 15; Avobenzone; Avobenzone 3% Homosalate 10% Octisalate 5% Octocrylene 10%; Avobenzone, Homosalate, Octisalate, Octocrylene; Avobenzone, Homosalate, Octisalate, Octocrylene, Oxybenzone; Avobenzone, Octinoxate, Titanium Dioxide; Avon Age Block Environmental Protection Cream SPF 15; Avon Age Block SPF 15 - Crm Top; Avon Anew Advanced All-IN-one Max Self-adjusting Perfecting Cream Spf15; Avon Anew Advanced All-IN-one Max Self-adjusting Perfecting Lotion SPF 15; Avon Anew Force Extra Triple Lifting Day Cream SPF 15; Avon Anew Luminosity Brightening Complex SPF 15; Avon Anew Luminosity Ultra SPF 15; Avon Anew Platinum Day Broad Spectrum SPF 25 Sunscreen; Avon Anew Positivity A.M. Fortifier Spf15; Avon Anew Positivity Empowering A.M. Fortifier SPF 15; Avon Anew Retroactive + Day Defense SPF 15; Avon Anew Revital - Air Complex SPF 15; Avon Anew Revital-air SPF 15; Avon Anew Ultimate Hand and Nail Cream SPF 15; Avon Broad Spectrum Sunblock Lotion SPF 15; Avon Bronzy Lip Balm SPF 15; Avon Elements Moisture Boost Daily Moisture; Avon Elements Moisture Boost Daily Moisture Lotion; Avon Elements Moisture Boost SPF.fps 15 Daily Moisture Cream; Avon Elements Skin Revitalize Instant Radiance; Avon Elements Skin Revitalize Instant Radiance Lotion; Avon Elements Youth Restoring Multi-Purpose; Avon Elements Youth-Restoring Anti-Wrinkle Moisture; Avon Eye Block Environmental Protection Cream SPF 15; Avon Nutra Effects Active Seed Complex Ageless Day Cream Broad Spectrum SPF 20 Sunscreen; Avon Nutra Effects Active Seed Complex Balance Day Cream Broad Spectrum SPF 15 Sunscreen; Avon Nutra Effects Active Seed Complex Hydration Day Cream Broad Spectrum SPF 15 Sunscreen; Avon Nutra Effects Active Seed Complex Radiance Day Cream Broad Spectrum SPF 20 Sunscreen; Avon Nutra Effects Ageless Day Cream; Avon Nutra Effects Balance Day Cream; Avon Nutra Effects Hydration Day Cream; Avon Nutra Effects Radiance Day Cream; Avon Skin So Soft Firm & Restore Neck & Chest Treatment Cream SPF 15 Sunscreen; Avon Solutions Beautifully Protected Daily Uv Moisturizer SPF 30; Avon Sun + Kids Technologie Derma Plus Technology Disappearing Potion Sunscreen Lotion; Avon Sun Age Defying SPF 30 Sunscreen Lotion; Avon Sun Baby SPF 40 Sunscreen Lotion; Avon Sun High Protection Kids Sunblock Lotion SPF 40; Avon Sun High Protection Sunblock Lotion SPF 40; Avon Sun Kids Disappearing Colour Stick SPF 25; Avon Sun Kids Disappearing Colour Sunblock Cream SPF 30; Avon Sun Kids SPF 30 Disappearing Color Sunscreen Spray; Avon Sun Kids SPF 40 Disappearing Color Sunscreen Lotion; Avon Sun SPF 15 Sunscreen Lotion; Avon Sun SPF 30 Sunscreen Lotion; Avon Sun SPF 40 Sunscreen Lotion; Avon Sun SPF 8 Sunscreen Lotion; Avon Sun Sparkle SPF 30 Sunscreen Lotion for Kids; Avon Sun Sport Refresh Sunscreen; Avon Sun Sport SPF 15 Sunscreen Spray; Avon Sun Sport SPF 30 Sunscreen Spray; Avon Sun Sunblock Lotion SPF 15; Avon Sun Sunblock Lotion SPF 30; Avon Sun Sunscreen; Avon Sun Sunscreen Face; Avon Ultimate Day Multi-Performance Broad Spectrum SPF 25 Sunscreen; Avon Ultimate Day Multi-Performance SPF 25; Awaken by Quality Choice Anti-Wrinkle and Firming Moisturizer Day Broad Spectrum SPF18 Sunscreen; Awaken by Quality Choice Illuminating Daily Moisturizer Broad Spectrum SPF 15 Sunscreen; Awaken by Quality Choice Long-Lasting Oil-Free Moisturizer Broad Spectrum SPF 15; BANILA CO Prime Primer Sun; BASK Broad Spectrum SPF 50; BEACH GYPSY Glitter Sunscreen SPF 30; BEAST SPIT and POLISH FACE SPF-20; BEAUTY BEFORE AGE AHAVA UPLIFT DAY broad spectrum SPF 20; BENEFIT Triple Performing Facial Broad Spectrum SPF15; BEYOND THE SHAVE For Men; BFF Skin Perfector SPF 30 broad spectrum sunscreen deep; BFF Skin Perfector SPF 30 broad spectrum sunscreen deepest; BFF Skin Perfector SPF 30 broad spectrum sunscreen light; BFF Skin Perfector SPF 30 broad spectrum sunscreen light/medium; BFF Skin Perfector SPF 30 broad spectrum sunscreen lightest; BFF Skin Perfector SPF 30 broad spectrum sunscreen medium; BFF Skin Perfector SPF 30 broad spectrum sunscreen medium/deep; BIOCORNEUM PLUS BROAD SPECTRUM SPF 30 ADVANCED SCAR TREATMENT gel; BLI Holding Miami Beach kids spf 50; BLI Holdings MIAMI BEACH Kids spf 50; BODY DEFENCE SUNSCREEN Broad Spectrum SPF30; BODY TIME Anti-Aging Day Cream SPF 30; BOTANIC HEAL boH Smart Tone Up Sun; BULLFROG KIDS Sunscreen Broad Spectrum SPF 50 Plus; BULLFROG Marathon Mist Sunscreen Broad Spectrum SPF 36; BULLFROG Marathon Mist Sunscreen Broad Spectrum SPF 50; BULLFROG Water Armor SPORT 50 Plus InstaCool Sunscreen Broad Spectrum; Baby; Baby Broad Spectrum SPF 50 DG body; Baby Faces 45 SPF Sunscreen Spray; Baby Faces 50 SPF Sunblock; Baby Faces 50 SPF-fps Sunscreen Spray; Baby Faces 50 SPF/fps; Baby Gentle Sunscreen SPF 50; Baby Sun Protection Lotion; Baby Sunscreen Broad Spectrum SPF 60 Lotion; Baby Sunscreen SPF 50; Baby Sunscreen SPF 50 tugaboos; Baby Sunscreen Stick Écran Solaire En Bâtonnet SPF Fps 50; Baby Sunstick SPF 55 CVS; Baby Tear Free Sans Larmes Sunscreen Spray Ecran Solaire En Vaporisateur Pour Bebes SPF/fps 50; Baby Tear Free/sans Larmes Sunscreen Spray/écran Solaire En Vaporisateur Pour Bebes SPF Fps 60; Bain De Soleil Oil-free Protecteur SPF-25; Bain De Soleil Protection Lotion SPF 15; Balancing Day Moisture Broad Spectrum SPF 15 Jafra; Balancing Dynamics Kit Jafra; Balancing Emulsion With Green Tea; Balancing SPF 15 Jafra; Bali Body BB Cream SPF 15; Bali Body BB Cream SPF 15 Natural; Bali Body BB Cream SPF 15 Tan; Bali Body Cacao Tanning Oil SPF15; Bali Body Cacao Tanning Oil SPF6; Bali Body Coconut Lip Balm SPF 15; Bali Body Face and Body Sunscreen SPF 50; Bali Body Hydrating Body Sunscreen SPF50; Bali Body Hydrating Face Sunscreen SPF50; Bali Body Pineapple Tanning Oil SPF6; Bali Body SPF 15 Cacao Tanning Oil; Bali Body SPF 6 Grape Tanning Oil; Bali Body SPF 6 Peach Tanning Oil; Banana Boat; Banana Boat Aceite Bronceador Seco Tanning Dry SPF 6; Banana Boat Baby Sin Lagrimas SPF 50 Pump; Banana Boat Baby Sunscreen Lotion SPF/fps 60; Banana Boat Baby Sunscreen Spray SPF/fps 60; Banana Boat Baby Tear Free Lotion SPF 50; Banana Boat Baby Tear Free Sunscreen SPF 60; Banana Boat Daily Protect Sunscreen Lotion SPF 30; Banana Boat Daily Protect Sunscreen Lotion SPF 50+; Banana Boat Daily Protect Sunscreen Spray SPF 30; Banana Boat Daily Protect Sunscreen Spray SPF 50+; Banana Boat Deep Tanning Dry SPF 4; Banana Boat Deep Tanning Dry SPF 8; Banana Boat Deep Tanning Sunscreen SPF 4; Banana Boat Dry Balance Clear Sunscreen Broad Spectrum SPF 30; Banana Boat Dry Balance Clear Sunscreen SPF 50; Banana Boat Everyday Glow; Banana Boat Kids Free 50; Banana Boat Kids Free Continuous Spray Sunscreen SPF 50+; Banana Boat Kids Protect and Play SPF 50; Banana Boat Kids Protect and Play SPF 85; Banana Boat Kids Quik Blok Spray SPF 25; Banana Boat Kids SPF 65 Clear Sunscreen; Banana Boat Kids Sin Lagrimas Pump SPF 50; Banana Boat Kids Sport Sunscreen Roll-On UVA/UVB Broad Spectrum SPF 60 Plus; Banana Boat Kids Sunscreen Lotion SPF/fps 60; Banana Boat Kids Sunscreen Spray SPF 50+; Banana Boat Kids Sunscreen Spray SPF/fps 60; Banana Boat Kids Tear Free Continuous SPF 50; Banana Boat Kids Tear Free Sunscreen SPF 60; Banana Boat Kids Tear-free Sunscreen Spray SPF 50+; Banana Boat Kids UltraMist Tear Free SPF 30; Banana Boat Light as air face SUNSCREEN UVA UVB Broad Spectrum SPF 50; Banana Boat Mens SPF 30; Banana Boat Mens SPF 50 Plus; Banana Boat Protect and Hydrate SPF 30; Banana Boat Protect and Hydrate SPF 50 Plus; Banana Boat Protection Plus Vitamins Face Sunscreen Uva/uvb Broad Spectrum SPF 50; Banana Boat Protection Plus Vitamins Sunscreen Uva/uvb Borad Spectrum SPF 30; Banana Boat Protection Plus Vitamins Sunscreen Uva/uvb Borad Spectrum SPF 50; Banana Boat Protection Plus Vitamins Sunscreen Uva/uvb Broad Spectrum SPF 50; Banana Boat Protective Dry SPF 10; Banana Boat Protective Dry SPF 15; Banana Boat Protective Dry SPF 6; Banana Boat Quick Dry Spray SPF 15; Banana Boat Quick Dry Spray SPF 30; Banana Boat Quik Dri Sport Body and Scalp SPF 30; Banana Boat Simply Protect Kids Sunscreen Lotion Spray SPF 50+; Banana Boat Simply Protect Sport Sunscreen Lotion SPF 50+; Banana Boat Simply Protect Sport Sunscreen Spray SPF 50+; Banana Boat Sport Body and Scalp SPF 30; Banana Boat Sport Performance; Banana Boat Sport Performance Active Dry Protect SPF UVB 50; Banana Boat Sport Performance Active Dry protect; Banana Boat Sport Performance SPF 15; Banana Boat Sport Performance SPF 15 Canada; Banana Boat Sport Performance SPF 30; Banana Boat Sport Performance SPF 30 Canada; Banana Boat Sport Performance SPF 85; Banana Boat Sport Performance With Powerstay Technology Sunscreen Lotion SPF 30; Banana Boat Sport Performance With Powerstay Technology Sunscreen Lotion SPF/fps 60; Banana Boat Sport Performance With Powerstay Technology Sunscreen Spray SPF 30; Banana Boat Sport Performance With Powerstay Technology Sunscreen Spray SPF 50+; Banana Boat Sport SPF 30; Banana Boat Sport SPF 50; Banana Boat Sport SPF 60; Banana Boat Sport Ultra Broad Spectrum SPF 50 Plus Sunscreen Lip Balm; Banana Boat Sport Ultra Clear Sunscreen Broad Spectrum SPF 65; Banana Boat Sport Ultra Face SPF30; Banana Boat Sport Ultra Sunscreen Broad Spectrum SPF 65; Banana Boat Sport Ultra Sunscreen Lip Balm Broad Spectrum SPF 40; Banana Boat Sport Ultra Sunscreen Roll-On UVA/UVB Broad Spectrum SPF 60 Plus; Banana Boat Sport coolzone Clear Sunscreen Broad Spectrum SPF 30; Banana Boat Sport coolzone Clear Sunscreen Broad Spectrum SPF 50 Plus; Banana Boat Sport for Kids Sunscreen Stick SPF 50+; Banana Boat SunComfort SPF 30; Banana Boat Suncomfort Sunscreen Lotion SPF 30; Banana Boat Suncomfort Sunscreen Lotion SPF 50+; Banana Boat Suncomfort Sunscreen Spray SPF 30; Banana Boat Suncomfort Sunscreen Spray SPF 50+; Banana Boat Sunscreen Lip Balm UVA/UVB Broad Spectrum SPF 45; Banana Boat Sunscreen Lotion SPF/fps 60; Banana Boat Sunscreen Spray SPF 30; Banana Boat Sunscreen Spray SPF 50+; Banana Boat Suntanicals Sunscreen Lotion SPF 30; Banana Boat Ultra Defence SPF 30 for UK; Banana Boat Ultra Defense; Banana Boat Ultra Defense Broad Spectrum; Banana Boat Ultra Defense Clear Sunscreen Broad Spectrum SPF 100; Banana Boat Ultra Defense SPF 30 Canada; Banana Boat Ultra Defense SPF 30 for LATAM; Banana Boat Ultra Defense SPF 60 Canada; Banana Boat Ultra Defense SPF 85; Banana Boat Ultra Defense Sheer Protect; Banana Boat Ultra Defense Sheer Protect FPS 50 LATAM; Banana Boat Ultra Defense Sheer Protect SPF 30; Banana Boat Ultra Defense Sheer Protect SPF 50; Banana Boat Ultra Mist Kids FPS 60 LATAM; Banana Boat Ultra Plus Sunblock Ecran Solaire Uva & Uvb SPF/fps 50; Banana Boat Ultra Sport Clear Sunscreen Spray SPF 30; Banana Boat Ultra Sport Clear Sunscreen Spray SPF 50 Plus; Banana Boat Ultra Sport Faces Sunscreen Broad Spectrum SPF 30; Banana Boat Ultra Sport Sunscreen Broad Spectrum SPF 15; Banana Boat Ultra Sport Sunscreen Broad Spectrum SPF 30; Banana Boat Ultra Sport Sunscreen Broad Spectrum SPF 50; Banana Boat Ultra Sport Sunscreen Lotion SPF 30; Banana Boat Ultra Sport Sunscreen Lotion SPF 50+; Banana Boat Ultra Sport Sunscreen Stick SPF 50+; Banana Boat Ultra defense SPF 50 Canada; Banana Boat UltraMist Baby Tear Free Continuous SPF 50; Banana Boat UltraMist Kids SPF 50 Factor de Proteccion Solar 50; Banana Boat UltraMist Kids Tear Free Lotion SPF 50; Banana Boat Ultramist Sport Performance SPF 50; Banana Boat Vitaskin Facial Care Sunscreen SPF 30 Lotion; Banana Boat Vitaskin Sunscreen SPF 30 Lotion; Banana Boat for Men Triple Defense Continuous Spray Sunscreen SPF 30; Banana Boat for Men Triple Defense Continuous Spray Sunscreen SPF 50+; Banana Boat for Men Triple Defense Sunscreen Lotion SPF 30; Banana Boat for Men Triple Defense Sunscreen Lotion SPF 50+; Banishing Cream Skin Tone Perfector Perfecteur De Teint SPF 15/fps15; Bansbao Beauty and Fair Skin Essence; Bansbao Face Mask (anti-wrinkle); Bare Republic Clearscreen SPF 30; Bare Republic Clearscreen SPF 50; Bare Skin Feel Uv Lotion; Barunu SPF 50; Bask Broad Spectrum SPF 30; Bask Suncare Broad Spectrum SPF; Bask Suncare Broad Spectrum SPF 30; Baume Levres Anti-dessechement Transparent SPF 30; Baume Prodigieux Levres 01 Natural Crystal Nutri-protecting Lip Care SPF 15; Baume Prodigieux Levres 02 Legendaire Pink Nutri-protecting Lip Care SPF 15; Baume Prodigieux Levres 03 Shimmering Chocolate Nutri-protecting Lip Care SPF 15; Baume Prodigieux Levres 04 Red Charismatic Nutri-protecting Lip Care SPF 15; Baxter of California Oil Free Moisturizer Broad Spectrum SPF 15 Sunscreen; Bb Cream Sunscreen SPF 30; Bb Dark; Bb Fair; Bb Light; Bb Medium; Be Fine Food Skin Care Daily Moisturizer With Rosemary,pomegranate and Rice With SPF 15; Be Sweet SPF 15 Tinted Ablaze; Be Sweet SPF 15 Tinted Blush Crush; Be Sweet SPF 15 Tinted Choose Happy; Be Sweet SPF 15 Tinted Clear Skies; Be Sweet SPF 15 Tinted Daydream; Be Sweet SPF 15 Tinted Full Hearts; Be Sweet SPF 15 Tinted Pucker Up; Beach Break 2-in-1 Daily Facial Moisturizer Sunscreen SPF 30; Beach Defense Kids; Beach Defense Kids SPF 60; Beach Defense SPF 30; Beach Defense SPF 30 Sunscreen Spray; Beach Defense SPF 60; Beach Defense SPF 60 Sunscreen Lotion; Beach Dream Broad Spectrum SPF 30; Beach Dream Broad Spectrum SPF 50; Beach Dream Glittery Sunscreen SPF 30; Beach Dream Glittery Sunscreen SPF 50; Beach Dream Sunscreen SPF 30; Beach Dream Sunscreen SPF 50; Beach Gypsy SPF-30; Beast Hydrating Face SPF-20; Beaute Initiale SPF 15; Beauticontrol Cell Block C; Beauty 360 Accelerated Wrinkle Repair Moisturizer; Beauty Booster Cream SPF 30; Beauty Booster Lip Gloss SPF 15; Beauty Dynamics SPF 15 Daily Eye Treatment; Beauty Without Cruelty - Broad Spectrum SPF 18; Beauté Initiale Eye; Beauté Initiale-CRème Énergisante Multi-protection; Beauté Initiale-fluide Énergisant Multi-protection; Beauté Initiale-fluide Énergisant Multi-protection Hâle Progressif; Beeswax Lip Balm; Beeswax Lip Balm SPF 30 Vertra; Beeswax SPF 15 Broad Spectrum Lip Balm; Beeswax SPF 15 Lip; Beeswax SPF 30 Broad Spectrum Lip Balm; Being True Essentials Absolutely Radiant; Belif SPF/fps 50; Bellagio Sunscreen SPF 15; Belucie Luxury UV Sun; Benefiance Wrinkle Smoothing Day Cream; Benefiance Wrinkleresist24 Day Cream; Benefiance Wrinkleresist24 Day Emulsion; Benefit Triple Performing Facial Emulsion Broad Spectrum SPF 15; Benefit Weightless Moisture Face Moisturizer Broad Spectrum SPF 15 Sunscreen; Benzac SPF 30 Oil Control Day Moisturizer; Best Choice absolute Daily Moisturizing Broad Spectrum SPF 15 Sunscreen; Best of Glow SPF Discovery Kit; Bevel Hair Mattifying Bald Balm with Sunscreen SPF 25; Bienfait Multi-vital (SPF 30); Bienfait Multi-vital SPF 30; Bienfait Uv SPF 50; Big Cloud Defend Daily Face Moisturizer Broad Spectrum SPF30; Big Cloud Sky Master Lip Balm SPF 15; Big Island Basics; Big Lots Soundbody Kids Sunscreen SPF 50; Big Lots Soundbody SPF 30 Sport Sunscreen; Big Lots Soundbody SPF 30 Ultra Sport Sunscreen; Big Lots Soundbody SPF 50 Sport Sunscreen; Big Lots Soundbody SPF 50 Ultra Sport Sunscreen; Big Lots Soundbody SPF 70 Sport Sunscreen; Big Lots Soundbody SPF 70 Sun Defense; Big Lots Soundbody Sheer Sunscreen Broad Spectrum SPF 70; Big Lots Soundbody Sun Defense Screen Broad Spectrum SPF 70; Bilboa Capri Sunscreen SPF 15; Bilboa Capri Sunscreen SPF 30; Bilboa Capri Sunscreen SPF 50 Plus; Bio-Active Anti-Aging; Bio-alpine Jeunesse Refining Day Cream SPF 15; Bio-alpine Jeunesse Refining Day Fluid SPF 15; Bio-alpine Lift Anti-ageing Day Cream SPF 15; Bio-alpine Lift Anti-ageing Day Fluid SPF 15; Biocorneum Plus Broad Spectrum SPF 30 Advanced Scar Treatment; Biodynamic Skin; Biokids SPF 35; Bioresist reinforcing effect face moisturizer SPF 30; Biorlx Lip Balm Collagen; Biorlx Lip Balm Ginseng; Biorlx Lip Balm Hemp; Biosun Professional Sun Protection Oil Free Gel SPF 30; Biotherm - Lait Ecran Total SPF 25; Biotherm- Stick Ecran Total Levres SPF 20; Biovi Total Beauty; Black Girl Sunscreen SPF 30; Black Girl Sunscreen SPF 45; Black Girl Sunscreen SPF 50 Kids; Black Girl Sunscreen SPF 50 broad Spectrum; Black Girl Sunscreen SPF45; Black Girl Sunscreen Sunscreen SPF 30 broad Spectrum; Black Rice Platinum Absolute Youth SPF 15; Blackberry Smoothie SPF 15 Broad Spectrum Lip Balm; Bleve Bvibrant; Bliss Triple Oxygen Ultimate Protection UV Moisturizer SPF 33; Blistex Advanced Care (Blistex Medicated Balm, Blistex Complete Moisture, Blistex Five Star Lip Balm - Broad Spectrum, Blistex Superfruit Soother); Blistex Clear Advance Lip Protectant; Blistex Complete Care (Blistex Lip Medex, Blistex Medicated Lip, Blistex Five Star Lip Protection Broad Spectrum, and Blistex Complete Moisture); Blistex Deep Renewal Broad Spectrum; Blistex Enhancement Series; Blistex Enhancement Series (Blistex Ultra-Rich Hydration, Blistex Global Blend, Blistex Deep Renewal Broad Spectrum); Blistex Enhancement Series (Deep Renewal and Silk and Shine); Blistex Enhancement Series (Lip Vibrance, Deep Renewal and Ultra-Rich Hydration); Blistex Enhancement Series (Soft and Lush, Deep Renewal and Ultra-Rich Hydration); Blistex Five Star Lip Protection Broad Spectrum; Blistex Lip Massage; Blue Therapy Moisturizing Cream Dry Skin SPF 15; Blue Therapy Moisturizing Cream Normal/combination Skin SPF 15; Blue Therapy Multi-defender Dry Skin; Blue Therapy Multi-defender Normal/combination Skin; Blueberry Moscow Mule SPF 15 Broad Spectrum Lip Balm; Blumingo Anti-aging Am SPF-30 Sunscreen; Blurred Lines CC Creme Broad Spectrum SPF 20 Shade 01 Light; Blurred Lines CC Creme Broad Spectrum SPF 20 Shade 02 Medium; Blurred Lines CC Creme Broad Spectrum SPF 20 Shade 03 Medium/Dark; Bo Spf15; Bobbi Brown All Over Bronzing Gel SPF 15; Bobbi Brown Beach Sunscreen Body Broad Spectrum SPF 15; Bobbi Brown Beach Sunscreen Gel for Body SPF 30; Bobbi Brown Beach Sunscreen for Face SPF 25; Bobbi Brown Brightening Protective Face Base Uv SPF 50; Bobbi Brown Extra Moisturizing Balm SPF 25; Bobbi Brown Extra Repair Foundation Broad Spectrum SPF 25; Bobbi Brown Extra Repair Moisturizing Balm SPF 25; Bobbi Brown Extra SPF 25 Moisturizing Balm; Bobbi Brown Extra SPF 25 Tinted Broad Spectrum Moisturizing Balm; Bobbi Brown Extra SPF 25 Tinted Moisturizing Balm; Bobbi Brown Extra Tinted Moisturizing Balm SPF 25; Bobbi Brown Lip Balm Broad Spectrum SPF 15; Bobbi Brown Lip Balm SPF 15; Bobbi Brown Oil Control Lotion SPF 15; Bobbi Brown Primer Plus Protection SPF 50; Bobbi Brown SPF 50 Protective Face Base Broad Spectrum; Body Butter Broad Spectrum Sunscreen SPF 40; Body Glow Sunscreen SPF 20; Body Mist SPF 55 Wegman; Body Protector Sunscreen Broad Spectrum SPF 50; Body Sunscreen FPS 50; Body Time Sun Broad Spectrum SPF30 Anti-Aging Day; Bondi Sands Broad Spectrum Hydra Uv Protect SPF 70 Face Fluid; Bondi Sands Broad Spectrum Hydra Uv Protect SPF 70 Sunscreen; Bondi Sands Fragrance Free Face SPF 50 Sunscreen; Bondi Sands Fragrance Free SPF 30 Sunscreen; Bondi Sands Fragrance Free SPF 50 Sunscreen; Bondi Sands Sport SPF 30 Sunscreen; Bondi Sands Sport SPF 50 Face Sunscreen; Bondi Sands Sport SPF 50 Sunscreen; Bondi Sands Toasted Coconut Lip Balm with SPF 50 Sunscreen; Borba Age Defying Daily Hydrator SPF 30 Plus; Borba Age Defying Super Creme SPF 100 plus; Borghese Radiante Brightening Hand Creme; Boscia Daily Hydration SPF 15 Broad Spectrum For Normal To Oily Skin; Boscia Restorative Day Moisture Broad Spectrum SPF 15 For Dry Skin; Boscia Self-Defense Vital Antioxidant Moisture Broad Spectrum SPF 30; Botanical Effects Hydrate & Protect Broad Spectrum Sunscreen SPF 30; Botanical Effects Moisturizer SPF 30; Botanics All Bright Hydrating Day Cream Sunscreen Broad Spectrum SPF 15; Botanics Complexion Refining Day Moisture Lotion Sunscreen SPF 12; Botanics Complexion Refining Day Moisture Sunscreen SPF 12; Botanics Daily Hand Therapy SPF 10; Botanics Daily Hand Therapy Sunscreen SPF 10; Botanics Day Moisture Sunscreen SPF 12; Botanics Face Defence Moisture Cream SPF 15; Botanics Face Defence Moisture Cream Sunscreen SPF 15; Botanics Face Defence Moisture Sunscreen SPF 15; Botanics Face Firming Moisturizing Cream SPF 10; Botanics Face Lift Firming Cream Sunscreen SPF 10; Botanics Face Lift Firming Sunscreen SPF 10; Botanics Face Renewal Cream SPF 15; Botanics Face Renewal Cream Sunscreen SPF 15; Botanics Face Renewal Sunscreen SPF 15; Botanics Hydrating Day All Bright Sunscreen Broad Spectrum SPF 15; Botanics Mattifying Day All Bright Sunscreen Broad Spectrum SPF 15; Botanics Protecting Day Age Defense Sunscreen Broad Spectrum SPF 15; Botanics Quench Your Face Foundation Sunscreen SPF 12 Almond 10; Botanics Quench Your Face Foundation Sunscreen SPF 12 Coriander 15; Botanics Quench Your Face Foundation Sunscreen SPF 12 Cumin 20; Botanics Quench Your Face Foundation Sunscreen SPF 12 Nutmeg 35; Botanics Quench Your Face Foundation Sunscreen SPF 12 Saffron 25; Botanics Quench Your Face Foundation Sunscreen SPF 12 Star Anise 40; Botanics Quench Your Face Foundation Sunscreen SPF 12 Sweet Ginger 30; Botanics Radiant Youth Protecting Day Cream Sunscreen Broad Spectrum SPF 15; Botanics Shine Away Mattifying Day Cream Sunscreen Broad Spectrum SPF 15; Botanics Skin Calming Day Ultra Calm Sunscreen Broad Spectrum SPF 15; Botanics Triple Action Day Moisture Cream Sunscreen SPF 15; Botanics Triple Action Day Moisture Sunscreen SPF 15; Botanics Triple Age Renewal Day All Bright Sunscreen Broad Spectrum SPF 15; Botanics Triple Age Renewal Day Cream Sunscreen Broad Spectrum SPF 15; Bravo Sierra USA Face Sunscreen Broad Spectrum SPF 30; Breath Fresh SPF 15 Broad Spectrum Lip Balm; Bright Boost Moisturizer SPF 30; Bright Guard Water-Resistant SPF-30 Sunscreen; Brightening & Smoothing Daily Moisturizer; Brightening Daily Protector Broad Spectrum; Brightening Hand Broad Spectrum SPF 20 Jafra; Brightening Hand Care Broad Spectrum SPF 20 Sunscreen; Brightening and moisturizing facial SPF 30; Brighter By Nature SPF 35 Skin Tone Correcting Moisturizer; Brighter By Nature SPF 35 Skin Tone Correcting Moisturizer Broad Spectrum; Britto Body Sunscreen Broad Spectrum SPF 50; Britto Facial Sunscreen Broad Spectrum SPF 50; Broad Defense; Broad Spectrum; Broad Spectrum 30 SPF Fps Sunscreen Lotion; Broad Spectrum 50 SPF Fps Sunscreen Lotion; Broad Spectrum Natural Scent Lip Balm 01; Broad Spectrum SPF 15 CVS; Broad Spectrum SPF 15 Cherry Lip Balm; Broad Spectrum SPF 15 Citrus Lip Balm; Broad Spectrum SPF 15 Daily Eye Treat Jafra; Broad Spectrum SPF 15 Iced Pear Lip Balm; Broad Spectrum SPF 15 Lotion; Broad Spectrum SPF 15 Mint Lip Balm; Broad Spectrum SPF 15 Pomegranate Lip Balm; Broad Spectrum SPF 15 Preferred Plus Pharmacy; Broad Spectrum SPF 15 Sunscreen Continuous Spray; Broad Spectrum SPF 15 Tropical Smoothie Lip Balm; Broad Spectrum SPF 15 Unflavored Lip Balm; Broad Spectrum SPF 15 Vanilla Lip Balm; Broad Spectrum SPF 15 Vanilla Mint Lip Balm; Broad Spectrum SPF 20 Sunscreen; Broad Spectrum SPF 30 Booster Drops; Broad Spectrum SPF 30 Fps; Broad Spectrum SPF 30 Preferred Plus Pharmacy; Broad Spectrum SPF 30 Sport Sunscreen Continuous Spray; Broad Spectrum SPF 30 Sun Stick; Broad Spectrum SPF 30 Sunscreen Continuous Spray; Broad Spectrum SPF 30 Sunscreen Preferred Plus Pharmacy; Broad Spectrum SPF 30 Tropical Sunscreen; Broad Spectrum SPF 30 Ultrathon; Broad Spectrum SPF 50 Baby Sunscreen Preferred Plus Pharmacy; Broad Spectrum SPF 50 CVS; Broad Spectrum SPF 50 CareOne; Broad Spectrum SPF 50 Daylogic; Broad Spectrum SPF 50 Kids Preferred Plus Pharmacy; Broad Spectrum SPF 50 Lotion; Broad Spectrum SPF 50 Sunscreen Bioelements; Broad Spectrum SPF 50 Sunscreen Preferred Plus Pharmacy; Broad Spectrum SPF 50+ Sunscreen; Broad Spectrum SPF 70 CVS; Broad Spectrum SPF 70 Sunscreen Preferred Plus Pharmacy; Broad Spectrum SPF Fps 50; Broad Spectrum SPF/fps 30; Broad Spectrum SPF/fps 50; Broad Spectrum Sculpting Day Cream; Bronz Repair Sea and Tropics Face; Bronz Repair Sea and Tropics Face SPF 25; Brume Solaire; Brume Solaire SPF 5; Brush and Go All Skin types; Brush and Go Oily Problematic Skin; Bubblegum SPF 15 Broad Spectrum Lip Balm; Build-A-tan Face SPF 15; Bull Frog Insta-Cool Mist 50; Bull Frog Kids Continuous Spray Sunscreen Broad Spectrum SPF 50+; Bull Frog Kids Mist 50; Bull Frog Kids Sunscreen 35; Bull Frog Marathon Mist 36; Bull Frog Marathon Mist 50; Bull Frog Marathon Mist Continuous Spray Sunscreen Broad Spectrum SPF 36; Bull Frog Marathon Mist Continuous Spray Sunscreen Broad Spectrum SPF 50; Bull Frog Mosquito Coast Broad Spectrum Cspray w fragrance SPF 50; Bull Frog Mosquito Coast SPL 50 Pump; Bull Frog SPF 50; Bull Frog Water Armor Sport 50; Bull Frog Water Armor Sport Quick Gel Sunscreen Broad Spectrum SPF 50; Bull Frog Water Armor Sport Quick Spray Sunscreen Broad Spectrum SPF 50; Bull Frog Water Armor Sport Quik 50; Bull Frog Water Armor Sport SPF 50+; BullFrog Land Sport SPF 50 Lip Balm; BullFrog Quik; BullFrog Quik Gel Sport; BullFrog SPF 50 Land Sport Quik Gel Sunscreen; BullFrog SPF50 Land Sport C-Spray; BullFrog SPF50 Land Sport Quik; BullFrog SPF50 Water Sport; BullFrog SPF50 Water Sport C-Spray; BullFrog Ultimate Sheer Protection Face; Bullet Line; Bullfrog Broad Spectrum SPF 50 Sunscreen; Bullfrog SPF 50 Sunscreen Insect Repellent; Burberry Cashmere Long-Lasting Flawless Soft-Matte Foundation Sunscreen Broad Spectrum SPF 15 Chestnut No.60; Burberry Cashmere Long-Lasting Flawless Soft-Matte Foundation Sunscreen Broad Spectrum SPF 15 Deep Brown No.66; Burberry Cashmere Long-Lasting Flawless Soft-Matte Foundation Sunscreen Broad Spectrum SPF 15 Mocha No.64; Burberry Cashmere Long-Lasting Flawless Soft-Matte Foundation Sunscreen Broad Spectrum SPF 20 Almond No.43; Burberry Cashmere Long-Lasting Flawless Soft-Matte Foundation Sunscreen Broad Spectrum SPF 20 Beige No.26; Burberry Cashmere Long-Lasting Flawless Soft-Matte Foundation Sunscreen Broad Spectrum SPF 20 Camel No.42; Burberry Cashmere Long-Lasting Flawless Soft-Matte Foundation Sunscreen Broad Spectrum SPF 20 Dark Sable No.36; Burberry Cashmere Long-Lasting Flawless Soft-Matte Foundation Sunscreen Broad Spectrum SPF 20 Honey No.32; Burberry Cashmere Long-Lasting Flawless Soft-Matte Foundation Sunscreen Broad Spectrum SPF 20 Ochre No.20; Burberry Cashmere Long-Lasting Flawless Soft-Matte Foundation Sunscreen Broad Spectrum SPF 20 Ochre Nude No.12; Burberry Cashmere Long-Lasting Flawless Soft-Matte Foundation Sunscreen Broad Spectrum SPF 20 Porcelain No.11; Burberry Cashmere Long-Lasting Flawless Soft-Matte Foundation Sunscreen Broad Spectrum SPF 20 Rosy Nude No.31; Burberry Cashmere Long-Lasting Flawless Soft-Matte Foundation Sunscreen Broad Spectrum SPF 20 Warm Honey No.38; Burberry Cashmere Long-Lasting Flawless Soft-Matte Foundation Sunscreen Broad Spectrum SPF 20 Warm Nude No.34; Butterstick; By Nature Daily Face Sunscreen Broad Spectrum SPF 30; By Nature Hydrating Day SPF 15; By Pharmicell Lab Prestige Sun Block SPF40 PA PLUS PLUS PLUS; C Cream SPF 30; CAO Cosmetic Lip Sunscreen SPF 30; CARDINAL HEALTH LEADER SPF 50 General Protection Sunscreen; CARDINAL HEALTH LEADER SPF30 General Protection Sunscreen; CARMEX Lime twist BROAD SPECTRUM SPF 15 SUNSCREEN; CARMEX Pomegranate BROAD SPECTRUM SPF 15 SUNSCREEN; CARMEX Vanilla BROAD SPECTRUM SPF 15 SUNSCREEN; CARMEX cherry lip balm BROAD SPECTRUM SPF 15 SUNSCREEN; CARMEX moisture Plus Ultra Hydrating Lip Balm Broad Spectrum SPF 15 Sunscreen; CARMEX original lip balm BROAD SPECTRUM SPF 15 SUNSCREEN; CARMEX strawberry lip balm BROAD SPECTRUM SPF 15 SUNSCREEN; CARROT SUN SPF30 PA Plus Plus; CC Cream Complexion Corrector Dark Broad Spectrum SPF 15 Jafra; CC Cream Complexion Corrector Light Broad Spectrum SPF 15 Jafra; CC Cream Complexion Corrector Light Medium Broad Spectrum SPF 15 Jafra; CC Cream Complexion Corrector Medium Broad Spectrum SPF 15 Jafra; CC Cream Complexion Corrector Medium Dark Broad Spectrum SPF 15 Jafra; CC Creme Concealer Broad Spectrum SPF 20 Jafra; CC SPF 18 Fair; CC SPF 18 Light to Medium; CC SPF 18 Medium; CC SPF 18 Medium to Dark; CD Creme De Rose Plumping Lip Balm; CD Hydra Life Pro-Youth Protective Fluid; CD Hydra Life Pro-Youth Protective SPF 15; CHANTECAILLE Ultra Sun Protection Sunscreen Broad Spectrum SPF 30; CHANTECAILLE Ultra Sun Protection Sunscreen Broad Spectrum SPF 45; CHARLOTTE TILBURY Broad Spectrum SPF 50 Sunscreen Invisible UV Flawless Primer; CIZAR Aqua Sun; CLARINS - EXTRA-FIRMING JOUR SPF 15 - Wrinkle, Firming Day all skin types - Broad Spectrum SPF 15 Sunscreen; CLARINS Age-Control Hand SPF 15; CLARINS BROAD SPECTRUM SPF 15 - Sunscreen Multi-Active Day Early wrinkle correcting; CLARINS BROAD SPECTRUM SPF 30 Dry Touch Facial Sunscreen Enriched with antioxidants Prevents sun induced age spots; CLARINS BROAD SPECTRUM SPF 30 Sunscreen Body Hydration, Comfort; CLARINS BROAD SPECTRUM SPF 30 Sunscreen Care; CLARINS BROAD SPECTRUM SPF 50 Dry Touch Facial Sunscreen Enriched with antioxidants Prevents sun induced age spots; CLARINS BROAD SPECTRUM SPF 50 Plus - SUNSCREEN CARE MILK; CLARINS BROAD SPECTRUM SPF 50 Plus - SUNSCREEN FOR FACE WRINKLE CONTROL; CLARINS BROAD SPECTRUM SPF 50 Sunscreen Body Hydration, comfort; CLARINS Bright Plus HP SPF 20 Brightening Hydrating Day; CLARINS Broad Spectrum SPF 15 Sunscreen Care For Outdoor Sports; CLARINS Broad Spectrum SPF 15 Sunscreen Extra Firming Day Wrinkle Lifting; CLARINS Broad Spectrum SPF 30 Sunscreen For Face Wrinkle Control; CLARINS Daily Energizer SPF 15; CLARINS HYDRA-ESSENTIEL SPF 15 Broad Spectrum SPF 15 Sun Screen; CLARINS HydraQuench Normal to Combination Skin Broad Spectrum SPF 15 Sunscreen; CLARINS HydraQuench Normal to Dry Skin Broad Spectrum SPF 15 Sunscreen; CLARINS Super Restorative Day Illuminating lifting replenishing BROAD SPECTRUM - SPF 20 - Sunscreen; CLE CCC Cool Deep; CLE CCC Neutral Deep; CLE CCC Warm Deep; CLE DE PEAU BEAUTE PROTECTIVE FORTIFYING n; CLE DE PEAU BEAUTE SYNACTIF DAYTIME MOISTURIZER n; CLINIQUE FOR MEN SUPER ENGERGIZER ANTI -FATIGUE HYDRATING Concentrate BROAD SPECTRUM SPF 25; CLINIQUE SPF 15 with SOLAR SMART ADVANCED PROTECTION; CLINIQUE SPF 30 ADVANCED PROTECTION BODY CREAM with SOLAR SMART; CLINIQUE SPF 30 with SOLAR SMART; CLINIQUE SPF 50 with SOLAR SMART ADVANCED PROTECTION; CLINIQUE skin supplies for men; COOLA CLASSIC BODY SUNSCREEN Guava Mango Broad Spectrum SPF 50; COOLA CLASSIC FACE SUNSCREEN Cucumber Broad Spectrum SPF 30; COOLA CLASSIC FACE SUNSCREEN White Tea Broad Spectrum SPF 50; COOLA Classic Body SPF 30 Pina Colada; COOLA Classic Body SPF 30 Tropical Coconut; COOLA Classic Body SPF 50 Fragrance Free; COOLA Classic Body SPF 50 Guava Mango; COOLA Classic Body SPF 70 Peach Blossom; COOLA Classic Body Sunscreen Fragrance-Free SPF 50; COOLA Classic Body Sunscreen Guava Mango SPF 50; COOLA Classic Body Sunscreen Pina Colada SPF 30; COOLA Classic Body Sunscreen SPF 70 - Peach Blossom; COOLA Classic Body Sunscreen Tropical Coconut SPF 30; COOLA Classic Face Sunscreen Cucumber SPF 30; COOLA Classic Face Sunscreen Fragrance-Free SPF 50; COOLA Classic Face Sunscreen White Tea SPF 50; COOLA Classic Liplux Lip Balm SPF 30 Original; COOLA Classic Liplux Lip Balm SPF 30 Tinted; COOLA Classic Sunscreen Stick SPF 30 - Tropical Coconut; COOLA Full Spectrum 360 Day Eye Cream SPF 30; COOLA Full Spectrum 360 Refreshing Water Cream SPF 50; COOLA Full Spectrum 360 Sun Silk Drops SPF 30; COOLA Liplux Hydrating Oil SPF 30; COOLA Refreshing Water Mist SPF 18; COOLA Refreshing Water Mist Sunscreen SPF 30; COOLA Sun Silk Drops SPF 30; CORETEX Broad Spectrum SPF 30 Sunscreen; CREMO Face with Sunscreen SPF20; CRème Auto-bronzante Bronze Dore SPF 15; CRème De Jour; CRème Montagne Et Grand Froid; CRème Protectrice SPF 20 Protective Cream SPF 20; CRème Rajeunissante Haute Fermeté Jour; CRème Solaire Anti-rides Visage SPF 15; CRème Solaire Anti-rides Visage SPF 30; CRème Solaire Bronzage Sécurité Spécial Visage SPF 15; CRème Solaire Corps Fps 30; CRème Solaire Protection Modérée Visage; CRème Solaire Protection Élevée Visage; CRème Solaire Spécial Visage SPF 50; CRème Solaire Très Haute Protection SPF 30; CRème Solaire Visage Face Sunscreen; CRème Solaire Visage Toucher Sec Fps 30; CRème Solaire Visage Toucher Sec Fps 50+; CVS Clear Face SPF 30 3 oz; CVS Health Age Defense SPF 70 Face; CVS Health Baby SPF 50; CVS Health Childrens SPF 70 Plus Wet and Dry; CVS Health Kids SPF 50 Clear; CVS Health Medicated Lip Care; CVS Health SPF 100 Clear; CVS Health SPF 100 Ultra Protection; CVS Health SPF 100 Ultra Sheer; CVS Health SPF 15 Clear; CVS Health SPF 15 Clear Hawaii Compliant; CVS Health SPF 30 Beach Guard Clear; CVS Health SPF 30 Clear; CVS Health SPF 30 Coconut Scented Clear; CVS Health SPF 30 Oil Free Sun; CVS Health SPF 30 Sheer Mist; CVS Health SPF 30 Ultra Sheer; CVS Health SPF 30 Ultra Sheer Mist; CVS Health SPF 45 Sheer Mist; CVS Health SPF 45 Ultra Sheer; CVS Health SPF 50; CVS Health SPF 50 Beach Guard; CVS Health SPF 50 Clear; CVS Health SPF 50 Coconut Scented Clear; CVS Health SPF 50 Sun; CVS Health SPF 55 Clear Face; CVS Health SPF 55 Clear Face Paraben and Phthalate Free; CVS Health SPF 55 Ultra Sheer; CVS Health SPF 55 Ultra Sheer Face Mist; CVS Health SPF 70 Beach Guard Sun; CVS Health SPF 70 Clear; CVS Health SPF 70 Sheer Mist; CVS Health SPF 70 Sun; CVS Health SPF 70 Ultra Sheer; CVS Health SPF 85 Wet and Dry; CVS Health SPORT SPF 30; CVS Health Sport Clear Broad Spectrum SPF 100 Plus Sunscreen; CVS Health Sport SPF 100 Clear; CVS Health Sport SPF 100 Plus Clear; CVS Health Sport SPF 15 Clear; CVS Health Sport SPF 30; CVS Health Sport SPF 30 Clear; CVS Health Sport SPF 30 Clear Broad Spectrum; CVS Health Sport SPF 50; CVS Health Sport SPF 50 Clear; CVS Health Sport SPF 50 Face; CVS Health Sport SPF 50 Sun; CVS Health Sport SPF 70 Clear; CVS Health Ultra Protection SPF 100; CVS Health Ultra Protection SPF 30; CVS Health Ultra Protection SPF 50; CVS Health Ultra Protection SPF 70; CVS Health Ultra Sheer Broad Spectrum SPF 45 Sunscreen; CVS Health Ultra Sheer Broad Spectrum SPF 70; CVS Health Ultra Sheer SPF 100 Sunscreen; CVS Pharmacy Beauty 360 SPF 15 7-in-1 Complete Daily Moisturizer; CVS Pharmacy Kids SPF 50 Clear; CVS Pharmacy Kids SPF 70 Clear; CVS Pharmacy Oil Free Faces SPF 30; CVS Pharmacy Oil Free SPF 30; CVS Pharmacy SPF 30; CVS Pharmacy SPF 30 Beach Guard Clear; CVS Pharmacy SPF 30 Beach Guard Sun; CVS Pharmacy SPF 30 Wet and Dry; CVS Pharmacy SPF 50 Beach Guard Sun; CVS Pharmacy SPF 70 Beach Guard Clear; CVS Pharmacy Sport SPF 50; CVS SPF 30 Sport; CVS Sheer SFP 30; CVS Sport; CY BETTER LIPS BALM Humectante para Labios con color FPS 18 (BLUSH CURE) - PINK; CY BETTER LIPS BALM Humectante para Labios con color FPS 18 (CHOCO THERAPY) - BROWN; CY BETTER LIPS BALM Humectante para Labios con color FPS 18 (DR. ROSE) - PINK; CY BETTER LIPS BALM Humectante para Labios con color FPS 18 (FLASHY KARMIN) - RED; CY BETTER LIPS BALM Humectante para Labios con color FPS 18 (FUXIA DEFENSE) - MAGENTA; CY BETTER LIPS BALM Humectante para Labios con color FPS 18 (GET WELL PEACH) - PINK; CY BETTER LIPS BALM Humectante para Labios con color FPS 18 (GRAPE CARE) - RED; CY BETTER LIPS BALM Humectante para Labios con color FPS 18 (INTENSIVE RED) - RED; CY BETTER LIPS BALM Humectante para Labios con color FPS 18 (LILAC ZIMMER) - LILAC; CY BETTER LIPS BALM Humectante para Labios con color FPS 18 (PINK STAR) - PINK; CY BETTER LIPS BALM Humectante para Labios con color FPS 18 (PURE OXYGEN) - BEIGE; CY BETTER LIPS BALM Humectante para Labios con color FPS 18 (SAND LIFE) - YELLOW; CY BETTER LIPS BALM Humectante para Labios con color FPS 18 (SHINY BROWN) - BROWN; CY BETTER LIPS BALM Humectante para Labios con color FPS 18 (SUN LIGHT) - BEIGE; Cacao Tanning Oil SPF15; Cacao Tanning Oil SPF6; California Aloe Aqua Sun; California Aloe Daily Moisture Sun Block; California Aloe Daily Sun Block; California Aloe Fresh Pow Dery Sun; California Aloe Mild Sun Block; California Tan BROAD SPECTRUM SPF 15; California Tan BROAD SPECTRUM SPF 30; California Tan BROAD SPECTRUM SPF 4; California Tan BROAD SPECTRUM SPF 45; California Tan BROAD SPECTRUM SPF 8; California Tan Broad Spectrum SPF 15; California Tan Broad Spectrum SPF 8; California Tan Continuous Sunscreen Broad Spectrum SPF 30; California Tan SPF 15 Sunscreen; California Tan SPF 30 BROAD SPECTRUM Sunscreen; California Tan SPF 30 Sunscreen; California Tan SPF 45 Face Sunscreen; California Tan SPF 45 Sunscreen; Calming Dynamics Kit Jafra; Cannon Balm 140; Canscreen 400 Lotion; Capital Lumiere Jour SPF 15; Capture First Action Creme Lissante Jeunesse SPF 8; Capture First Action Fluide Lissant Jeunesse SPF 8; Capture Totale Anti-aging Emulsion Uva/uvb Protection; Cardinal Health Leader Baby Sunscreen SPF 50; Cardinal Health Leader General Protection SPF 70 Sunscreen; Cardinal Health Leader General Protection Sunscreen SPF 30; Cardinal Health Leader General Protection Sunscreen SPF 50; Cardinal Health Leader Kids Sunscreen SPF 50; Cardinal Health Leader SPF 30 General Protection Sunscreen Clear Continuous; Cardinal Health Leader SPF 30 Sport Sunscreen Clear Continuous; Cardinal Health Leader SPF 50 Kids Sunscreen Clear Continuous; Cardinal Health Leader SPF 70 General Protection Sunscreen Clear Continuous; Cardinal Health Leader Sport Sunscreen SPF 30; Cardon; CareCella Day Cream; CareOne 7-in-1 Anti-Aging Vitamin; CareOne Daily Facial; CareOne Daily Moisturizer Broad Spectrum SPF15 Sunscreen; Carecella Daily Sun Cream; Careline Antigravity; Careline Revival Plus; Careline Skin Guard Invisible SPF 50; Careline Skin Guard Kids Invisible SPF 50; Careline Skin Guard SPF 30; Careone Anti Aging Vitamin Complex 7 in 1; Cargo Tinted Moisturizer SPF 20; Caribbean Breeze SPF 15 Broad Spectrum Lip Balm; Carnival Adventures 30 SPF Sport Sunscreen; Carnival Adventures 30 Sport Sunscreen; Carnival Adventures Sport Sunscreen Broad Spectrum SPF 50; Carols Daughter Monoi Sunscreen Broad Spectrum SPF 30; Castor and Shea SPF Body; Castor and Shea SPF Face; Caudalie Resveratrol Face Lifting Moisturizer Broad Spectrum SPF 20; Cay Skin Isle Body Oil SPF 30; Cay Skin Isle Glow Body SPF 45; Cay Skin Isle Glow Face SPF 45; Cay Skin Isle Lip Balm SPF 30; Cc Cream; Celazome Mositurizing Sunscreen with SPF 29; Celazome SPF 29; Celesty Colors Special Edition With Alix Avien BB Cream; Celesty Colors Special Edition With Alix Avien CC Cream; Celesty Sun Protection Series Solar Protection Cream SPF 50; Celesty Sun Protection Series Solar Protection Fluid SPF 50; Celgen Mild Sun; Cellular Anti-Wrinkle SunScreen SPF 30 La Prarie; Cellular Anti-wrinkle Sun Cream SPF 30; Cellular Anti-wrinkle Sun Sunscreen Broad Spectrum SPF 30; Cellular Eye Moisturizer SPF 15 - The Smart Cream; Cellular Laboratories De-Aging Sunscreen Broad Spectrum SPF 50 Plus; Cellular Moisturizer SPF 15 - The Smart Cream; Cellular Protective Body Emulsion SPF 30; Cellular Purifying Systeme Hydrating Fluid SPF 15; Cellular Radiance Emulsion SPF 30 La Prairie; Cellular Swiss UV Protection Veil SPF30; Cellular Time Release Moisture Lotion SPF 15; Celonia Signature Bio Tone Up Sun Block; CeraVe Developed with Dermatologists Healing Lip Balm Broad Spectrum SPF 30 Sunscreen; CeraVe Developed with Dermotologists Ultra Light Moisturizing Broad Spectrum SPF 30; CeraVe Kids Sunscreen Broad Spectrum SPF 50 WET SKIN; CeraVe Sunscreen Broad Spectrum SPF 30 WET SKIN; CeraVe Sunscreen Broad Spectrum SPF 50 WET SKIN; Ceramide Lift And Firm Day Broad Spectrum Sunscreen SPF 30; Ceramide Lift and Firm Day Cream SPF 30; Ceramide Lift and Firm Day Lotion SPF 30; Ceramide Plump Perfect Lip Moisture SPF 30; Ceramide Premier Intense Moisture and Renewal Activation Broad Spectrum SPF 30; Ceramide Premiere Broad Spectrum SPF 30; Ceramide Premiere Intense Moisture and Renewal Activation Cream SPF 30; Cetaphil; Cetaphil Daily Facial Moisturizer SPF 15; Cetaphil Daily Facial Moisturizer with suncreen SPF 35; Cetaphil DermaControl SPF 30; Cetaphil Healthy Radiance Whipped Day Cream Broad Spectrum SPF 30; Cetaphil Healthy Radiance Whipped Moisturizer SPF 30; Cetaphil Oil Absorbing SPF 30; Cetaphil PRO Oil Absorbing SPF 30; Cetaphil Pro Dermacontrol Oil Control Moisturizer; Chantecaille Ultra Sun Protection SPF 50 Anti-glycation Primer; Chantecaille Ultra Sun Protection Sunscreen Broad Spectrum SPF 45 Primer; ChapIce SPF 30 Lip Balm; ChapStick Active Sport Ready; Chapstick; Chapstick Lipshield 365; Chapstick Moisturizer Cool Mint; Chapstick Moisturizer Green Apple; Chapstick Moisturizer Original; Chapstick Moisturizer Variety Pack; Cherry Lip Balm; Cherry SPF 15 Broad Spectrum Lip Balm; Childrens Sunstick SPF 55 CVS; Chocolate Coffee Stout SPF 15 Broad Spectrum Lip Balm; Chuda; Cicatricure; Cicatricure Aqua Defense Day With SPF; Cicatricure Brightening Face With SPF; Cicatricure Gold Day With SPF; Cicatricure Scar SPF 30; Cien Sun By Lidl Kids Sunscreen SPF 50; Cien Sun By Lidl Sport Sunscreen SPF 30; Citrus Mimosa Body SPF 30 Broad Spectrum Sunscreen Continuous; Citrus SPF 15 Broad Spectrum Lip Balm; City Sunscreen Serum SPF 30 Doctor Ts Super goop; City Sunscreen serum Broad Spectrum SPF 30 Supergoop; Clarant B3; Clarifying Calming Oil-control Lotion SPF 15; Clarins Advanced Extra-Firming Day; Clarins Broad Spectrum SPF 15 - Sunscreen for Face Wrinkle Control; Clarins Broad Spectrum SPF 15 Sunscreen Care For Outdoor Sports; Clarins Broad Spectrum SPF 15 Sunscreen Delectable Self Tanning Mousse; Clarins Broad Spectrum SPF 20 - Sunscreen Care; Clarins Broad Spectrum SPF 20 - Sunscreen Care Milk; Clarins Broad Spectrum SPF 30 - Sunscreen Care; Clarins Broad Spectrum SPF 30 Sunscreen Care; Clarins Extra-Firming Day Wrinkle Lifting SPF 15; Clarins HydraQuench SPF 15; Clarins Self Tanning Milk With Sun Protection Spf 6; Clarins Sunscreen Care Milk- SPF 50 Plus; Clarins Sunscreen Care Radiant SPF 6 UVB/UVA; Clarins Sunscreen For Face Wrinkle Control SPF 50 PLUS; Clarins Sunscreen Progressive Tanning SPF 15; Clarins Sunscreen Smoothing Rapid Tanning SPF10; Clarins Super Restorative Day Broad Spectrum SPF 20 Sunscreen; Clarins Vital Light Day SPF 15; Clarisonic Mia 2 Facial Sonic Cleansing Brush with Supergoop Sun Essentials; Classic Body Plumeria SPF 30 Broad Spectrum; Classic Face Sport White Tea SPF 50 Broad Spectrum; Classic Moisturizing Body SPF 30 Broad Spectrum; Classic Sport Mango SPF 30 Broad Spectrum; Classic Sport Unscented SPF 30 Broad Spectrum; Classic Sport Unscented SPF 50 Broad Spectrum; Classic Unscented SPF 15 Broad Spectrum; Cle De Peau Beaute 30 Soin Protecteur Uv Pour Les Levres; Cle De Peau Beaute Gentle Protective I; Cle De Peau Beaute Hand; Cle De Peau Beaute Protective Fortifying; Cle De Peau Beaute Refreshing Protective I; Cle De Peau Beaute Sheer Fluid Veil; Cle De Peau Beaute Synactif Daytime Moisturizer; Cle De Peau Beaute Uv Protective Lip Treatment; Clean & Clear Finishes Pore Perfecting Moisturizer; Clean & Clear Morning Glow Moisturizer SPF 15; Clean Fresh Sunblock Sunscreen SPF 30 Continuous; Clean and Clear Advantage 2-in-1 Acne and Mark Eraser Kit; Clean and Clear Finishes Pore Perfecting Moisturizer; Clean and Clear Morning Glow Moisturizer Sunscreen Broad Spectrum SPF 15; Clear Complexion Sheer Daily Moisturizer; Clear Cover Invisible Sunscreen Broad Spectrum SPF 30; Clear Day Soon Sun; Clear Face; Clear Face Sunscreen Lotion; Clear Glow Radiant Sun Serum Spf50; Clear SPF 30 Face Sunscreen Wegmans; Clear Smart Shine Control Sunscreen Broad Spectrum SPF 25; Clear Stick Uv Protector; Clear Sunscreen SPF 30 Broad Spectrum; Clear Sunscreen Stick 50+; Clear Ultra-light Daily Mattifying Fluid Broad Spectrum SPF 30; Clearasil Total Control All Day Mattifying Moisturizer; Clearing Defense SPF 30; Clearskin Professional Oil Free; Clearskin Professional Oil Free Lotion SPF 15 Lotion Sans Huile Fps 15; Clindasol; Clinique Broad Spectrum SPF 30 Sunscreen Body Mist; Clinique Broad Spectrum SPF 30 Sunscreen Body With Solar Smart; Clinique Broad Spectrum SPF 30 Sunscreen Face With Solar Smart; Clinique Broad Spectrum SPF 50 Sunscreen Body With Solar Smart; Clinique Broad Spectrum SPF 50 Sunscreen Face With Solar Smart; Clinique Even Better Hand Cream SPF 15; Clinique Even Better Lotion SPF 20; Clinique Even Better Skin Tone Correcting Broad Spectrum SPF 20; Clinique Even Better Skin Tone Correcting Moisturizer SPF 20; Clinique Pep-start Hydrorush Moisturizer SPF 20; Clinique SPF 15 Face/body Cream; Clinique SPF 25 Body Spray; Clinique SPF 30 Body Cream; Clinique SPF 30 Face Cream; Clinique SPF 30 Sheer Body Mist; Clinique SPF 45 Targeted Protection Stick; Clinique SPF 50 Body Cream; Clinique SPF 50 Face Cream; Clinique Skin Supplies for Men Age Defense Hydrator Broad Spectrum SPF 15; Clinique Skin Supplies for Men Age Defense Hydrator SPF 15; Clinique Skin Supplies for Men M Protect SPF 21; Clinique Smart Broad Spectrum SPF 15 Custom-repair Moisturizer Dry Combination; Clinique Smart Custom Repair Moisturizer Broad Spectrum SPF 15 - Combination/oily To Oily; Clinique Smart Custom Repair Moisturizer Broad Spectrum SPF 15 - Very Dry/dry; Clinique Smart SPF 15 Custom-repair Moisturizer Combination Oily To Oily; Clinique Smart SPF 15 Custom-repair Moisturizer Dry Combination; Clinique Smart SPF 15 Custom-repair Moisturizer Very Dry To Dry; Clinique Sun-care Body Gel 15 SPF Sunscreen; Clinique Sun-care Body Spray 15 SPF Sun Block; Clinique Sun-care Body Spray 30 SPF Sun Block; Clinique Sun-care Uv-response Body Cream 30 SPF Sunscreen; Clinique Sun-care Uv-response Body Cream 50 SPF Sunscreen; Clinique Sun-care Uv-response Face Cream 30 SPF Sunscreen; Clinique Sun-care Uv-response Face Cream 50 SPF Sunscreen; Clinique Superdefense Age Defense Moisturizer Broad Spectrum SPF 25; Clinique Superdefense Age Defense Moisturizer SPF 25 Combination Oily; Clinique Superdefense Age Defense Moisturizer SPF 25 Dry Combination; Clinique Superdefense Age Defense Moisturizer SPF 25 Very Dry Combination; Clinique Superdefense Daily Defense Moisturizer SPF 20 Combination Oily To Oily; Clinique Superdefense Daily Defense Moisturizer SPF 20 Very Dry To Dry Combination; Clinique Superdefense Triple Action Moisturizer SPF 25 Normal To Dry Skin; Clinique Superdefense Triple Action Moisturizer SPF 25 Normal To Oily Skin; Clinique Superdefense Triple Action Moisturizer SPF 25 for Very Dry Skin; Clinique Targeted Protection SPF 45 Broad Spectrum Sunscreen; Clinique Youth Surge SPF 15 Age Decelerating Moisturizer Very Dry/dry; Clinique for Men Broad Spectrum SPF 21 Moisturizer; Clinique for Men SPF 21 Moisturizer; Clinique for Men Super Energizer SPF 25 Anti-fatigue Hydrating Concentrate; Clé De Peau Beauté CRème Fortifiante Protectrice; Clé De Peau Beauté CRème Pour Les Mains; Clé De Peau Beauté Soin Protecteur Pour Les Lèvres Protective Lip Treatment 25; Clé De Peau Beauté Émulsion Fortifiante Protectrice; Coconut Lip Balm SPF15; Coconut SPF 15 Broad Spectrum Lip Balm; Cocooil SPF 15; Cocooil SPF 30; Cocooil SPF 6; Cocooil SPF15; Cocooil SPF30; Cocooil SPF50; Cold Sore Support; Collagen Boost Moisturizer SPF 25; Collagen Glow Creme SPF 50; Color Control Oil-free Moisturizer Broad Spectrum SPF 30; Color Extend Sun Take Cover SPF/fps 25; Complete + Care & Protect (80 Minutes) Water / Sweat Resistant Lotion SPF 30; Complete + Care & Protect (80 Minutes) Water / Sweat Resistant Lotion SPF 50+; Complete Acne Therapy System; Complete Advanced (80 Minutes) Water / Sweat Resistant Lotion SPF 15; Complete Advanced (80 Minutes) Water / Sweat Resistant Lotion SPF 30; Complete Advanced (80 Minutes) Water / Sweat Resistant Lotion SPF 50+; Complete Advanced [80 Minutes] Water/sweat Resistant Lotion SPF 60; Complete Dry Mist Spray; Complete Dry Mist Spray Hypoallergenic Uva + Uvb SPF 30; Complete Hypoallergenic Spf60 Lotion; Complete Lightweight Lotion SPF 15; Complete Lightweight Lotion SPF 45; Complete Sensitive Advanced (80 Minutes) Water / Sweat Resistant SPF 50+; Complete Sensitive Advanced [80 Minutes] Water/sweat Resistant Lotion SPF 60; Complete* Dry Touch; Complete* Dry Touch Sunscreen/écran Solaire; Complete+ Care & Protect [80 Minutes] Water/sweat Resistant Lotion SPF 60; Complexion Protection Moisturizer SPF; Concept II SolScents Broad Spectrum SPF 15 Pina Colada; Concept II SolScents Broad Spectrum SPF 15 Vanilla Silk; Concept II SolScents Broad Spectrum SPF 30 Angelica; Concept II SolScents Broad Spectrum SPF 30 Cucumber Melon; Concept II SolScents Broad Spectrum SPF 30 Deep Love; Concept II SolScents Broad Spectrum SPF 50 Flower Blast; Concept II SolScents Broad Spectrum SPF 50 Raspberry Dreams; Conju Princess UV Sun Block; Continuous Hydration SPF 25; Continuous Spray SPF/fps 70; Continuous Spray Sheer Mist SPF 30; Continuous Spray Sunscreen Sun Bum Broad Spectrum SPF 15; Continuous Spray Sunscreen Sun Bum Broad Spectrum SPF 30; Continuous Spray Sunscreen Sun Bum Broad Spectrum SPF 50; Control Dynamics kit Jafra; Cool Sport SPF 50; Coola Bare Republic Clearscreen Spf30; Coola Bare Republic Clearscreen Spf50; Coola Citrus Mimosa Scent Sunscreen Spray; Coola Classic Body SPF 30 Sunscreen Lotion Pina Colada Scent; Coola Classic Body SPF 30 Sunscreen Lotion Tropical Coconut Scent; Coola Classic Body SPF 50 Sunscreen Lotion Fragrance-free; Coola Classic Body SPF 50 Sunscreen Lotion Guava Mango Scent; Coola Classic Face SPF 30 Sunscreen Lotion Cucumber Scent; Coola Classic Face SPF 50 Sunscreen Lotion Fragrance-free; Coola Classic Face SPF 50 Sunscreen Lotion White Tea Scent; Coola Classic SPF 30 Sunscreen Spray Pina Colada Scent; Coola Classic SPF 30 Sunscreen Spray Tropical Coconut Scent; Coola Classic SPF 50 Sunscreen Spray Fragrance-free; Coola Classic SPF 50 Sunscreen Spray Guava Mango Scent; Coola Classic Sunscreen Fragrance Free; Coola Classic Sunscreen Stick SPF 30 Tropical Coconut Scent; Coola Daily Protection SPF 30 Sun Silk Drops Sunscreen; Coola Daily Protection SPF 50 Refreshing Water Cream Sunscreen; Coola Dew Good Illuminating Serum Sunscreen; Coola Environmental 360° Daily Protection SPF 18 Refreshing Water Mist Sunscreen; Coola Liplux Original; Coola Makeup Setting Spray Green Tea Scent; Coola Pina Colada Scent Sunscreen Spray; Coola SPF 50 Classic; Coola Scalp Mist Sunscreen SPF 30 Ocean Salted Sage Scent; Cooldry Sport SPF 30; Cooldry Sport SPF 30 Sunscreen Spray; Cooldry Sport SPF 60; Cooldry Sport SPF 60 Sunscreen Spray; Cooldry Sport Sunscreen Spray SPF 100; Coolzone Instantly Cools & Refreshes Rafraîchit Instantanément Spray Sunscreen Écran Solaire En Vaporisateur SPF/fps 30; Coolzone Instantly Cools & Refreshes Rafraîchit Instantanément Spray Sunscreen Écran Solaire En Vaporisateur SPF/fps 50; Coolzone Instantly Cools & Refreshes Rafraîchit Instantanément Sunscreen Lotion Lotion Écran Solaire SPF/fps 30; Coolzone Instantly Cools & Refreshes Rafraîchit Instantanément Sunscreen Lotion Lotion Écran Solaire SPF/fps 50; Copperstone Water Babies Pure and Simple Whipped Sunscreen Broad Spectrum SPF 50 SPF 50; Coppertone Clear Blue Sunscreen; Coppertone Clear Continuous Spray Sunscreen SPF 50; Coppertone Clear Orange Sunscreen; Coppertone Clear Sunscreen SPF 30 Sport; Coppertone Clear Sunscreen SPF 50 Sport; Coppertone Clearly Sheer Faces SPF 50; Coppertone Clearly Sheer For Beach and Pool SPF 30; Coppertone Clearly Sheer For Beach and Pool SPF 50 Plus; Coppertone Clearly Sheer For Beach and Pool SPF 50 Plus Face; Coppertone Clearly Sheer For Sunny Days SPF 15; Coppertone Clearly Sheer For Sunny Days SPF 30; Coppertone Clearly Sheer For Sunny Days SPF 30 Face; Coppertone Clearly Sheer SPF 30; Coppertone Clearly Sheer SPF 50; Coppertone Clearly Sheer Whipped SPF 30; Coppertone Clearly Sheer Whipped SPF 50; Coppertone Clearly Sheer Whipped Sunscreen Broad Spectrum SPF 30 SPF 50; Coppertone Clearly Sheer Whipped Sunscreen Broad Spectrum SPF 50 SPF 50; Coppertone Clearly Sher Faces SPF 30; Coppertone Complete Sunscreen SPF 30; Coppertone Complete Sunscreen SPF 50; Coppertone Defend and Care Face Oil Free SPF 30; Coppertone Defend and Care Face Oil Free SPF 50; Coppertone Defend and Care Face SPF 50; Coppertone Defend and Care Face Sunscreen SPF 50; Coppertone Defend and Care Ultra Hydrate SPF 50; Coppertone Defend and Care Ultra Hydrate Whipped SPF 30; Coppertone Defend and Care Ultra Hydrate Whipped SPF 50; Coppertone Defend and Care Ultra Hydrating SPF 50; Coppertone Gel SPF 15; Coppertone Gel SPF 30; Coppertone General Protection Sunscreen Lotion SPF 60; Coppertone Glow Hydragel SPF 50; Coppertone Glow Hydragel Sunscreen SPF 30; Coppertone Glow Suncreen SPF 30; Coppertone Glow Sunscreen SPF 15; Coppertone Glow Sunscreen SPF 30; Coppertone Glow Sunscreen SPF 50; Coppertone KIDS SPF 30; Coppertone KIDS SPF 50; Coppertone KIDS SPF 55; Coppertone Kids Clear SPF 50; Coppertone Kids Clear Sparkle SPF 50; Coppertone Kids Continuous Spray SPF 60; Coppertone Kids Continuous Spray Sunscreen SPF 50; Coppertone Kids Lotion SPF 30; Coppertone Kids SPF 50; Coppertone Kids SPF 50 Sunscreen; Coppertone Kids SPF 70 Plus; Coppertone Kids Sport SPF 100; Coppertone Kids Sport SPF 50; Coppertone Kids Sport Sunscreen SPF 100; Coppertone Kids Sport Sunscreen SPF 50; Coppertone Kids Sunscreen Lotion SPF 60; Coppertone Kids Sunscreen Mousse SPF 60; Coppertone Kids Sunscreen SPF 50; Coppertone Kids Sunscreen SPF 70; Coppertone Kids Sunscreen Stick SPF 55; Coppertone Kids Wet Protect SPF 50; Coppertone Kids Wet'n Clear Sunscreen Continuous Spray SPF 50; Coppertone Limited Edition Sunscreen SPF 30; Coppertone Limited Edition Sunscreen SPF 50; Coppertone Lotion Spray SPF 30; Coppertone Lotion Sunscreen SPF 15 Glow; Coppertone Lotion Sunscreen SPF 15 Sun Guard; Coppertone Lotion Sunscreen SPF 30 Complete; Coppertone Lotion Sunscreen SPF 30 Glow; Coppertone Lotion Sunscreen SPF 30 Sport; Coppertone Lotion Sunscreen SPF 30 Sun Guard; Coppertone Lotion Sunscreen SPF 50 Complete; Coppertone Lotion Sunscreen SPF 50 Defend & Care; Coppertone Lotion Sunscreen SPF 50 Defend & Care Face; Coppertone Lotion Sunscreen SPF 50 Glow; Coppertone Lotion Sunscreen SPF 50 Kids; Coppertone Lotion Sunscreen SPF 50 Sport; Coppertone Lotion Sunscreen SPF 50 Sun Guard; Coppertone Lotion Sunscreen SPF 50 Waterbabies; Coppertone Mousse Sunscreen SPF 50 Defend & Care; Coppertone Mousse Sunscreen SPF 50 Waterbabies; Coppertone Oil Free Continuous Spray SPF 50 Sunscreen; Coppertone Oil Free Faces SPF 50 Plus; Coppertone Oil Free Faces SPF-30; Coppertone Oil Free Faces Sunscreen Lotion SPF 60; Coppertone Oil Free Lotion SPF 30; Coppertone Oil Free Lotion SPF 45; Coppertone Oil Free SPF 50 Sunscreen; Coppertone Oil Free Sunscreen Lotion SPF 30; Coppertone Oil Free Sunscreen Mousse SPF 60; Coppertone Oil Free Sunscreen SPF 30; Coppertone Protect and Tan SPF 30; Coppertone Protect and Tan Sunscreen SPF 45; Coppertone SPF 15; Coppertone SPORT PRO SERIES SPF 15; Coppertone SPORT PRO SERIES SPF 30; Coppertone SPORT PRO SERIES SPF 50; Coppertone SPORT SPF 30; Coppertone SPORT SPF 50; Coppertone SPORT SPF 90; Coppertone SPORT Sunscreen Faces SPF 50; Coppertone SPORT Sunscreen SPF 100PLUS; Coppertone SPORT Sunscreen SPF 30; Coppertone SPORT Sunscreen SPF 50; Coppertone SPORT Sunscreen SPF 80; Coppertone Spectra SPF 30; Coppertone Sport; Coppertone Sport AccuSpray SPF 15; Coppertone Sport AccuSpray SPF 30; Coppertone Sport AccuSpray SPF 70; Coppertone Sport Clear Continuous Spray Sunscreen SPF 50; Coppertone Sport Clear SPF 30; Coppertone Sport Clear SPF 50; Coppertone Sport Continuous SPF 100 Plus; Coppertone Sport Continuous Spray SPF 15 Accuspray Sunscreen; Coppertone Sport Continuous Spray SPF 30 Accuspray Sunscreen; Coppertone Sport Continuous Spray SPF 50+ Accuspray Sunscreen; Coppertone Sport Free SPF 50; Coppertone Sport Gel SPF-15; Coppertone Sport Gel SPF-30; Coppertone Sport High Performance Faces SPF 50; Coppertone Sport High Performance SPF 30; Coppertone Sport High Performance SPF 50; Coppertone Sport Lip Balm SPF 50; Coppertone Sport Lotion Sunscreen SPF 15; Coppertone Sport Pro Series Sunscreen Continuous Spray SPF 30; Coppertone Sport Pro Series Sunscreen Continuous Spray SPF 50+; Coppertone Sport SPF; Coppertone Sport SPF 100; Coppertone Sport SPF 100 plus; Coppertone Sport SPF 15; Coppertone Sport SPF 15 Sunscreen; Coppertone Sport SPF 30; Coppertone Sport SPF 50; Coppertone Sport SPF 50 Sunscreen; Coppertone Sport SPF 55; Coppertone Sport SPF 70; Coppertone Sport SPF 75; Coppertone Sport SPF 80; Coppertone Sport Suncreen SPF 50; Coppertone Sport Sunscreen Lip Balm SPF 30; Coppertone Sport Sunscreen Lotion Face SPF 50; Coppertone Sport Sunscreen Lotion Face SPF 60; Coppertone Sport Sunscreen Lotion SPF 15; Coppertone Sport Sunscreen Lotion SPF 30; Coppertone Sport Sunscreen Lotion SPF 50; Coppertone Sport Sunscreen Lotion SPF 60; Coppertone Sport Sunscreen SPF 100; Coppertone Sport Sunscreen SPF 15; Coppertone Sport Sunscreen SPF 30; Coppertone Sport Sunscreen SPF 40; Coppertone Sport Sunscreen SPF 50; Coppertone Sport Sunscreen SPF 70; Coppertone Sport Sunscreen SPL 15; Coppertone Sport Sunscreen Stick; Coppertone Sport Sunscreen Stick SPF 55; Coppertone Sport Wet Protect SPF 30; Coppertone Spray Sunscreen SPF 30 Complete; Coppertone Spray Sunscreen SPF 30 Glow; Coppertone Spray Sunscreen SPF 30 Sport; Coppertone Spray Sunscreen SPF 30 Sun Guard; Coppertone Spray Sunscreen SPF 50 Complete; Coppertone Spray Sunscreen SPF 50 Defend & Care; Coppertone Spray Sunscreen SPF 50 Glow; Coppertone Spray Sunscreen SPF 50 Kids; Coppertone Spray Sunscreen SPF 50 Sport; Coppertone Spray Sunscreen SPF 50 Sun Guard; Coppertone Sunscreen Continuous Spray SPF 30; Coppertone Sunscreen Continuous Spray SPF 50+; Coppertone Sunscreen Lotion Clearlysheer Face SPF 30; Coppertone Sunscreen Lotion Clearlysheer Face SPF 50; Coppertone Sunscreen Lotion Clearlysheer SPF 30; Coppertone Sunscreen Lotion Face Oil Free SPF 30; Coppertone Sunscreen Lotion Oil Free SPF 50; Coppertone Sunscreen Lotion Oil Free SPF 60; Coppertone Sunscreen Lotion SPF 15 Sun Guard; Coppertone Sunscreen Lotion SPF 30; Coppertone Sunscreen Lotion SPF 30 Sun Guard; Coppertone Sunscreen Lotion SPF 50 Defend & Care; Coppertone Sunscreen Lotion SPF 50 Kids; Coppertone Sunscreen Lotion SPF 50 Sun Guard; Coppertone Sunscreen Lotion SPF 50+ Sport; Coppertone Sunscreen Lotion SPF 50+ Waterbabies; Coppertone Sunscreen Mousse SPF 50 Defend & Care; Coppertone Sunscreen Mousse SPF 50 Waterbabies Pure & Simple; Coppertone Sunscreen SPF 50; Coppertone Sunscreen Spray Clearlysheer SPF 30; Coppertone Sunscreen Spray Clearlysheer SPF 50; Coppertone Sunscreen Spray SPF 15 Sport; Coppertone Sunscreen Spray SPF 30 Sport; Coppertone Sunscreen Spray SPF 30 Sun Guard; Coppertone Sunscreen Spray SPF 50 Defend & Care; Coppertone Sunscreen Spray SPF 50 Kids; Coppertone Sunscreen Spray SPF 50 Sport; Coppertone Sunscreen Spray SPF 50 Sun Guard; Coppertone Sunscreen Stick SPF 55; Coppertone Tanning Defend and Glow SPF 15; Coppertone Tanning Dry Oil SPF 15; Coppertone Tanning Oil SPF 15; Coppertone Tanning SPF 15; Coppertone Tanning SPF 8; Coppertone Tanning Sunscreen SPF 15; Coppertone Tanning Sunscreen SPF 8; Coppertone Tattoo Guard Sunscreen SPF 50; Coppertone TattooGuard Sunscreen SPF 50 Plus; Coppertone Ultra Guard SPF 30; Coppertone Ultra Guard SPF 50; Coppertone Ultra Guard SPF 70; Coppertone Ultra Guard SPF 70 Sunscreen; Coppertone UltraGuard SPF 15; Coppertone UltraGuard SPF 30; Coppertone UltraGuard SPF 50; Coppertone UltraGuard SPF 70 Plus; Coppertone UltraGuard SPF 70 Plus Sunscreen; Coppertone Ultraguard SPF 30; Coppertone Ultraguard SPF 50; Coppertone Ultraguard Sunscreen SPF 15; Coppertone Uv Guard SPF-30 Lotion; Coppertone Uvguard SPF 15 Lotion; Coppertone Water BABIES SPF 55; Coppertone Water Babies; Coppertone Water Babies Foaming Sunscreen SPF 75 Plus; Coppertone Water Babies Pure And Simple Whipped SPF 50; Coppertone Water Babies SPF 50; Coppertone Water Babies Sunscreen SPF 70 Plus; Coppertone WaterBABIES Sunscreen SPF 100plus; Coppertone Waterbabies Continuous Spray Sunscreen Lotion SPF 50; Coppertone Waterbabies Pure and Simple Light SPF 50; Coppertone Waterbabies Pure and Simple SPF 50; Coppertone Waterbabies Pure and Simple Sunscreen SPF 50; Coppertone Waterbabies SPF 50; Coppertone Waterbabies Sunscreen Lotion SPF 60; Coppertone Waterbabies Sunscreen Mousse SPF 60; Coppertone Waterbabies Sunscreen SPF 50; Coppertone Waterbabies Whipped SPF 50; Coppertone Wet and Clear Kids SPF 50 Plus; Coppertone Wet and Clear SPF 50 Plus; Coppertone Wet n Clear Kids SPF 45plus; Coppertone Wet n Clear SPF 30; Coppertone Wet n Clear SPF 45plus; Coppertone Wet'n Clear Sunscreen Continuous Spray SPF 30; Coppertone Wet'n Clear Sunscreen Continuous Spray SPF 50; Coppertone kids SPF 50; Coppertone kids SPF 70 Plus; Coppertone kids SPF 75 Plus; Coppertone oil free Foaming Sunscreen SPF 75 Plus; Coppertone oil free SPF 30; Coppertone oil free faces SPF 15; Coppertone oil free faces Sunscreen SPF 30; Coppertone ultraGUARD SPF 15; Coppertone ultraGUARD SPF 30; Coppertone ultraGUARD SPF 50; Coppertone ultraGUARD SPF 90 plus; Coppertone ultraGUARD Sunscreen SPF 100 Plus; Coppertone ultraGUARD Sunscreen SPF 100plus; Coppertone ultraguard; Coppertone water BABIES SPF 70 plus; Coppertone waterBABIES Pure and Simple Free SPF 50; Coppertone waterBABIES Sunscreen SPF 50; Coppertone wet n clear SPF 30; CorTex SunX 50 Thick; Coral Bay Juicy Lip Fix SPF45; CoreTex Professional Outdoor Skin Protection Wallet; CoreTex Sun X 50; CoreTex Sun X SPF 30; CoreTex Sun X SPF 30 Multipack New; CoreTex Sun X SPF 30 New; CoreTex Sun X SPF 30 Thin; Correction Code (A.M.) Daily Moisturizer Broad Spectrum SPF 25; Correway Sunscreen (Non-waterproof); Correway Sunscreen (Waterproof); Cosmedix SPF50; Cosmopolitan SPF 15 Broad Spectrum Lip Balm; Cosrx; Cover FX Clear Cover Invisible Sunscreen Broad Spectrum SPF 30; Cover Fx Protection Primer SPF 30; Cover Fx SPF 30 Booster Drops Broad Spectrum Sunscreen; Cover Fx Total Cover Foundation SPF 30; Cover Me Sunscreen; Cover Tint SPF 20 - Dark; Cover Tint SPF 20 - Light; Cover Tint SPF 20 - Medium; Cranberry Orange SPF 15 Broad Spectrum Lip Balm; Crema Nera Extrema SPF 14; Creme Auto-bronzante Bronze Dore SPF 15; Creme De Corps Light-weight Body Lotion; Creme Ecran Solaire; Creme Ecran Total Intolerances Solaires SPF 40; Creme Ecran Total Intolerances Solaires SPF 45; Creme Ecran Total SPF 25; Creme Fondante SPF 15; Creme Protectrice Anti-rides / Age Defying Protecting Cream SPF 10; Creme Protectrice Spf15; Creme Solaire Bronzage Rapide Special Peaux Mates SPF 10; Creme Solaire Bronzage Securite Special Visage SPF 15; Creme Solaire Ecran Special Visage SPF 30; Creme Solaire Fondante Protection Minimale 10 SPF; Creme Solaire Haute Protection SPF 15; Creme Visage Fps 30; Creme Visage Fps 45; Cremo All-Season Lip Balm SPF 25 Vanilla Mint; Cremo Sunscreen; Crescent White Uv Protector Broad Spectrum SPF 50; Croc Bloc Broad Spectrum SPF 30 FPS Ecran Solaire; Croc Bloc Broad Spectrum SPF 50 Fps Ecran Solaire; Croc Bloc SPF 30 Fps Ecran Solaire; Cross-terrain SPF 50; Ct SPF 20; Cucumber Agave Sparkling Water SPF 15 Broad Spectrum Lip Balm; Cvs Oil Free SPF 15; Cvs Pharmacy Calming Daily Moisturizer; Cvs Pharmacy Illuminating; Cvs Sport SPF 30; Cyantific Protecting Daily Broad Spectrum SPF 30; Cyber White Brilliant Cells Full Spectrum Brightening Uv Protector SPF 50; Cyberwhite Hd Bb Advanced Brightening Broad Spectrum SPF 50; Cyberwhite Hd Uv Protector Broad Spectrum SPF 50; DAILY DEFENCE SUNSCREEN Broad Spectrum SPF30; DAYWEAR ADVANCED MULTI-PROTECTION ANTI-OXIDANT oil-free BROAD SPECTRUM SPF 25; DDF Advanced Moisture Defense Broad Spectrum SPF 15; DDF Advanced Moisture Defense UV SPF 15; DDF Daily Protective Moisturizer Broad Spectrum SPF 15; DDF Daily Protective Moisturizer SPF 15; DDF Daily Protective SPF 15; DDF Mattifying Moisturizer Broad Spectrum SPF 15; DDF Mattifying Oil Control UV Moisturizer SPF 15; DDF Protect and Correct UV Moisturizer Broad Spectrum SPF 15; DDF Protect and Correct UV Moisturizer SPF 15; DDF Protective Eye Broad Spectrum SPF 15; DDF Protective Eye SPF 15; DDF Ultra-Lite Moisturizing Dew Broad Spectrum SPF 15; DDF Ultra-Lite Oil-Free Moisturizing Dew UV Moisturizer SPF 15; DDF Weightless Defense Hydrator Broad Spectrum SPF 45; DEAD SEA ESSENTIALS ALGAE Smoothing and Protecting Day Broad Spectrum SPF 20; DIY Booster SPF 30 Facial Serum Unscented; DONGINBI Red Ginseng Moisturizing Sun; DR. ANDREW WEIL FOR ORIGINS MEGA-BRIGHT SPF 30 SKIN TONE CORRECTING oil FREE MOISTURIZER BROAD SPECTRUM SPF 30; DR. BABOR DERMA CELLULAR Detoxifying Vitamin SPF 15; DR. BABOR DERMA Cellular Detoxifying Vitamin SPF 15 CP; DR. C Tuna Sunscreen 30 SPF Broad Spectrum Face and body; DT Collagen; Daily Anti-Aging Moisturizer Broad Spectrum SPF30 Sunscreen UVA-UVB Sunscreen with SolSci-X; Daily Anti-wrinkle Moisturizer; Daily Anti-wrinkle Moisturizing Lotion; Daily Defence Shield SPF 30; Daily Defense Broad Spectrum SPF 15; Daily Defense Broad Spectrum SPF 30; Daily Defense Broad Spectrum SPF 50; Daily Defense SPF 15; Daily Defense Sunblock; Daily Defense Sunscreen; Daily Defense Sunscreen Broad Spectrum SPF15; Daily Deflector Mineral Sunscreen SPF 40; Daily Deflector Moisturizer SPF 20; Daily Deflector Moisturizer SPF 50; Daily Dose Hydra-Ceramide Boost Broad Spectrum Sunscreen SPF 40; Daily Dose Vitamin C and Broad Spectrum SPF 40 Serum; Daily Driver Sunscreen Broad Spectrum SPF 30; Daily Essential Moisturiser; Daily Face Protectant SPF 30; Daily Facial Moisturizer; Daily Facial Moisturizer Broad Spectrum SPF15 Sunscreen; Daily Facial Moisturizer SPF 25; Daily Facial Moisturizer SPF 35; Daily Fade Maximum Strength SPF15; Daily Fade SPF15; Daily Moisturizer; Daily Moisturizer Broad Spectrum SPF 30; Daily Moisturizer Broad-Spectrum SPF 30; Daily Moisturizer Oil Free; Daily Moisturizing Antioxidant SPF 50; Daily Moisturizing Broad Spectrum SPF15 Sunscreen; Daily Moisturizing Lotion SPF 15; Daily Protect Sunscreen Moisturizer Broad Spectrum SPF 30; Daily Protection Moisturizing Body Lotion (SPF 15); Daily Radiance Moisturizing Lotion With SPF 15; Daily SPF 15; Daily SPF 30; Daily SPF30; Daily Sheer Broad-spectrum Sunscreen SPF 50; Daily Shield Broad Spectrum SPF 20 Moisturizer; Daily Wear Moisturizer SPF-20; Daily Wear SPF 20; Dailyscreen; Damage Control Water Resistant Sunscreen SPF 30; Dark Tanning 4 SPF Dry Oil Spray; Dark spot corrector; Dawn Patrol Classic Makeup Primer SPF 30 Broad Spectrum; Day C; Day Care for Hands Broad Spectrum SPF 15 Jafra; Day Cream - 10 SPF; Day Cream Broad Spectrum SPF 15; Day Cream SPF 15; Day Cream SPF 30; Day Creme Broad Spectrum SPF 15; Day L; Day Lotion - 10 SPF; Day Lotion SPF 15; Day Mattifying Hydrator SPF 25; Day Moisturizer Broad Spectrum SPF 30 With Skin Firming Retinol; Day Moisturizer SPF 15; Day Wear Advanced Multi-protection Anti-oxidant and Uv Defense Broad Spectrum SPF 30; Day in the sun kit; Daydream Cushion Cloud Dream; Daydream Cushion Gentle Light; Daydream Cushion Magic Dream; Daydream Cushion Summer Hue; Daydream Cushion Sweet Secret; Daydream Cushion Warm Dusk; Daywear Advanced Multi-protection Anti-oxidant Broad Spectrum Creme SPF 15 for Dry Skin; Daywear Advanced Multi-protection Antioxidant Creme SPF 15 for Dry Skin; Daywear Advanced Multi-protection Antioxidant SPF 15 Oily Skin; Daywear Advanced Multiprotection Antioxidant Creme SPF 15 for Normal Combination Skin; Daywear Anti Oxidant 72h-hydration Sorbet Creme Broad Spectrum SPF 15; Daywear Multi-protection Antii-oxidant 24h-moisture Creme Broad Spectrum SPF 15 Normal/combination Skin; Daywear Plus Multi Protection Tinted Moisturizer SPF 15; Daywear Sheer Tint Release Advanced Multi-protection Anti-oxidant Moisturizer SPF 15; Ddf Advanced Moisture Defense Uv Cream SPF 15; Ddf Daily Protective Moisturizer Uv Moisturizer SPF 15; Ddf Mattifying Oil-control Uv Moisturizer SPF 15; Ddf Protective Eye Cream Uv Moisturizer SPF 15; Ddf Ultra Lite Oil Free Moisturizing Dew Uv Moisturizer; Ddf Ultra-lite Oil-free Moisturizing Dew Uv Moisturizer SPF 45; Dead Down Wind Sunscreen; Dead Sea Natural Face Moisturizer Broad Spectrum SPF 20; Dearderm Daily Mositure Sunscreen; Deep Moisture; Deep Renewal; Deep Renewal Broad Spectrum; Deep Wrinkle Moisture; Defend Hydrating Broad Spectrum SPF 15; Defend and Care Hydrate SPF50; Defend and Restore Moisture CRème; Defend and Restore Moisture Lotion; Defense Refresh (Re)Setting Mist SPF 40; Defense Refresh Setting Mist Broad Spectrum Sunscreen SPF 50 Supergoop; Defense Refresh Settingh Mist Broad Spectrum Sunscreen SPF 50 Supergoop; Defense Total High Protection SPF 50 No Color Daily Non-Greasy Face Protection; Defense Zone Broad Spectrum SPF 30 Sunscreen; Defense Zone C/S Broad Spectrum SPF 30; Defense Zone Kids C/S Broad Spectrum SPF 50; Defense Zone Sport Broad Spectrum SPF 30 Sunscreen; Defense Zone Sport Broad Spectrum SPF 50 Sunscreen; Defense Zone Sport C/S Broad Spectrum SPF 30; Defense Zone Sport C/S Broad Spectrum SPF 50; Delon Tropic High Protection Sun Spray SPF 30; Deoproce Hyaluronic Cooling Sun; Derma Brilliance Sunscreen SPF 30; Derma Geek Nourishing Facial Moisturizer with Sunscreen Broad Spectrum SPF 30; Derma J Sun; Derma-E All Sport Performance Sunscreen SPF 50; Derma-E All sport Performance Face Sunscreen SPF 30; Derma-E Kids Active Sunscreen SPF 50; Derma-E Sensitive 3-in-1 sunscreen SPF 30; Dermablend Professional SkinPerfector Redness Reducing Primer Sunscreen; DermacinRx Skin Moisturizing Ultra SPF 50 Sunscreen; Dermalogica Dynamic Skin Recovery SPF 50; Dermalogica Full Spectrum Block SPF 15; Dermalogica Solar Defense Booster SPF 30; Dermaprot Helioprot Ab SPF 30; Dermatological Sun Protection; Dermatone SPF 30; Dermatone SPF 50; Dermatone Sunscreen SPF 30; Dermatouch Hydrating Clear Moisutrizer SPF 25; Dermisa SUNSCREEN SPF 55 BROAD SPECTRUM; Dermoessential Sun Rescue; Desert Bambu Sunscreen SPF 15; Desert Bambu Tanning SPF 15; Desert Bambu Tanning SPF 6; Desert Fusion Nutritious Olive Leaf Daily Defense Broad Spectrum SPF 15 Sunscreen; Destination Brands International BROAD SPECTRUM SPF 50 Sunscreen; Dew Good Illuminating Serum; Dfndr Sunscreen SPF 30; Dfndr Sunscreen SPF 50; Differin Oil Absorbing Moisturizer SPF 30; Differin Oil Control Moisturizer SPF 30; Do The Right Thing Smoothing Body Lotion SPF 15; Doc Block Body Essential Sunscreen Broad Spectrum SPF30; Doc Block Daily Sunscreen Broad Spectrum SPF55; Dollar General Studio Selection Sun Sunscreen Broad Spectrum SPF 70; Dollar General Studio Selection Sun Sunscreen Broad Spectrum SPF 85 with Aloe; Dollar General Studio Selection Sun Tanning Dry Oil Broad Spectrum SPF 15 Sunscreen; Dormer 211 Face Cream SPF 15; Dormer 211 SPF 30; Double-Duty Face Moisturizer; Double-duty Face Moisturizer SPF 20; Dove DermaSeries Dry Skin Relief Replenishing Face Cream SPF 15; Dove Dermaseries Dry Skin Relief Face Cream; Dove Face Day Cream; Dove Face Day Lotion; Dove Men plus Care Hydrate Face; Dove Men plus Care Hydrate Face SPF 15; Dove Men plus Care Sensitive Face; Dove Men+care Face Lotion; Dove Men+care Face Lotion Hydrate+; Dr. Andrew Weil for Origins Mega-bright SPF 30 Skin Tone Correcting Oil-free Moisturizer; Dr. C. Tuna Lumi Radiance Brightening; Dr. C. Tuna Lumi Radiance Brightening Cream; Dr. C. Tuna Lumi Radiance Brightening Cream 22 SPF; Dr. C. Tuna Resurface Essential Day Cream; Dr. C. Tuna Resurface Essential Day Cream SPF 30; Dr. C. Tuna Sun Face and Body SPF 50; Dr. C. Tuna Sunscreen 50 SPF UVA UVB Protection Face and Body Sun; Dr. C. Tuna Sunscreen SPF30 Broad Spectrum; Dr. Evans Oil-Free DEFENSE DAY TINTED MOISTURIZER SPF 55; Dr. Russo Day Moisturizer SPF 30; Dr. Russo Good Morning Cream SPF 30; Dr. Throwers SPF 30 Face and Body Sunscreen; Dr.Jart Every Sun Day Sun Fluid; Dr.Jart Every Sun Day Sun Fluid SPF 30; Dr.Jucre Rebirth White Sun Protection; Dr.jart Every Sun Day Sun Fluid; Drive Sunscreen SPF 50; Dry Balance Sunscreen Lotion SPF 30; Dry Balance Sunscreen Lotion SPF 50+; Dry Balance Sunscreen Spray SPF 30; Dry Balance Sunscreen Spray SPF 50+; Dry Oil Antioxidant Sun Protection; Dry Oil Huile Sèche SPF/fps 4; Dry Oil SPF 15; Dry-touch Sunscreen SPF 45; Drymarine Age Control; Dual Spectrum SPF 30; Duane Reade Baby SunscreenSPF 50 SPF 50; Duane Reade Oil Free Sunscreen SPF 30; Duane Reade Prevail Moisturizing Sunscreen SPF 30; Duane Reade Prevail Moisturizing Sunscreen SPF 50; Duane Reade Prevail Moisturizing Sunscreen SPF 80; Duane Reade Sport Sunscreen SPF 50; Duane Reade Sports Sunscreen SPF 30; Duane Reade Sports Sunscreen SPF 50; Duane Reade Sunscreen SPF 30; Duane Reade Sunscreen SPF 50; Duane Reade Sunscreen SPF 70; Duke Cannon Standard Issue Face; Duo Defence Sunscreen Lotion SPF 30; Duo Defence Sunscreen Lotion SPF 50+; Dynamic Defence Concentrate Anti-Ageing Day SPF 15; Dynamic Resurfacing SPF 30; Dynamic Skin Recovery SPF 30; Dynamic Skin Recovery SPF 50; Dynamic Skin Recovery SPF30; Dynamic Skin SPF 30; EAD Kids; EB Epicurus SPF 50 The Sunscreen; ECO EARTH POWER Light Sun; ELF Daily Hydration Moisturizer SPF 15; EQUATE Sunscreen BABY Broad Spectrum SPF 50; EQUATE Sunscreen SPORT Broad Spectrum SPF 30; ESSENTIALS Face and Body Sunscreen; ESTEE LAUDER MULTI-DEFENSE AQUA UV gel BROAD SPECTRUM SPF 50; EUNYUL Daily Care Fresh Sunscreen; EVEN TONE and RADIANCE CC Color Correction Skin Protection SPF30; EVERYDAY SUNSCREEN SPF 50 with Sunflower Extract; EXTRASHADE Daily Defense Hydrating Sunscreen SPF 30; EXTREME AHAVA Extreme Daily Firmness And Protection Broad Spectrum SPF30; Ead; Easydew Daily Baby Care Sun; Easydew Daily Fresh Mild Sun; Easydew Daily Fresh Mild Sun SPF50 Plus; Easydew Daily Ultra Shield Sun; Easydew EG SUN Ultra Shield; Eau Thermale Avene Hydrating Sunscreen SPF 50; Eau Thermale Avene Ultra-Light Hydrating Sunscreen SPF 50; Eco Earth Power Aqua Sun; Eco Earth Power Light Sun; Eco Earth Power UV Protection Sun; Eco Lips PlantPod Sunscreen Lip Balm Berry SPF 15; Eco Lips PlantPod Sunscreen Lip Balm Mint SPF 15; Eco Lips PlantPod Sunscreen Lip Balm Sport SPF 30; Eco Lips Sport Lip Balm SPF 30; Eco SPF30 Sun Stick; Eco-designed Uv Lotion; Ecran Solaire Fps 30 Lot; Ecran Solaire SPF 15 - Crm; Ecran Soleil SPF 30; Ecran Total Anti-intolerance SPF 30-crm; Ecran Total Solaire Fps 25; Effaclar Duo (+) SPF 30; Eight Hour Cream Intensive Daily Moisturizer For Face SPF 15; Eight Hour Cream Nourishing Lip Balm SPF 20; Eight Hour Cream Targeted Sun Defense SPF 50; Eight Hour Nourishing Lip SPF 20; Elements Anti Aging Vitamin Complex 7 In 1; Elixir FINE Sunscreen Broad Spectrum SPF 15; Elizabeth Arden Ceramide Plump Perfect Lip Moisture Cream-spf30; Elizabeth Arden Ceramide Plump Perfect Moisture Cream - SPF 15; Elizabeth Arden Extreme Conditioning Cream; Elizabeth Arden First Defense Protective Cream; Elizabeth Arden First Defense Protective Lotion; Elizabeth Arden Intervene Radiance Boosting Moisture Lotion SPF 15; Elizabeth Arden Moisture Shield SPF 15; Elizabeth Arden Nourishing Lip Balm SPF 20; Elizabeth Arden, Great 8, Moisturizer SPF 35; Emulsion SPF 50+; Ener-C Moisturizing Lotion SPF 30; Energizing Pomegranate Moisturizer SPF 15; Enfuselle Lip Treatment SPF 15 Broad Spectrum; Enfuselle Time Repair A.M. SPF15; Enhancement Series (Blistex Deep Renewal Broad Spectrum, Blistex Moisture Revitalizer, Blistex Soft and Lush); Enhancement Series (Blistex Soft and Lush, Blistex Deep Renewal, Blistex Ultra-Rich Hydration); Enriching Moisturizer 1; Eos Active Protection Fresh Grapefruit Sunscreen Lip Balm Broad Spectrum SPF 30; Eos Active Protection Lemon Twist Sunscreen Lip Balm Broad Spectrum SPF 15; Eos Lip Balm Sunscreen Broad Spectrum SPF 15; Equaline All Day Moisturizer; Equaline Kids Continuous Sunscreen SPF 50; Equaline Kids SPF 50; Equaline SPORT Sunscreen SPF 30; Equaline Sport Sunscreen Continuous SPF 30; Equaline Sport Sunscreen SPF 30; Equaline Sport Sunscreen SPF 50; Equate; Equate Anti-Wrinkle; Equate Baby Sunscreen; Equate Baby Sunscreen Lotion SPF/fps 60; Equate Beauty Daily Moisturizer SPF-30 Sunscreen; Equate Beauty Hydro Sunscreen SPF 50; Equate Beauty Ultra Light SPF 100; Equate Beauty Ultra Light Sunscreen SPF 70; Equate Beauty Ultra Light Sunscreen SPF70 Broad spectrum; Equate Kids Sunscreen Lotion SPF/fps 60; Equate SPF 15 Lip Balm; Equate SPF 50 Sport Sunscreen; Equate SPF 50 Ultra Sunscreen; Equate SPF 50 Ultra Sunscreen Continuous; Equate SPF 70 Ultra Sunscreen; Equate SUNSCREEN spf 50 SPORT broadspectrum; Equate Sport Sunscreen Continous Spray SPF/fps 15; Equate Sport Sunscreen Continuous Spray SPF/fps 60; Equate Sport Sunscreen Continuous Spray SPF/fps30; Equate Sport Sunscreen Lotion SPF/fps 30; Equate Sport Sunscreen Lotion SPF/fps 60; Equate Sunscreen Continuous Spray SPF/fps 15; Equate Sunscreen KIDS SPF50 Broad Spectrum; Equate Sunscreen Lotion SPF/fps 30; Equate Sunscreen SPF 30 SPORT Broad Spectrum; Equate Sunscreen SPF 50 BABY Broad Spectrum; Equate Sunscreen SPF 50 SPORT Broad Spectrum; Equate Sunscreen SPF 70 SPORT Broad spectrum; Equate Sunscreen SPF100 SPORT Broad Spectrum; Equate Sunscreen SPF70 ULTRA Broad spectrum; Equate Sunscreen SPORT SPF 100; Equate Ultra Light Sunscreen MIST SPF70; Equate beauty road Spectrum SPF30; Equate beauty ultra light Suncreen SPF 55; Equate-Sunscreen Broad Spectrum SPF 50 ULTRA; Equilibre-hydra-city Fps 15-SPF 15; Erno Laszlo Hydraphel Emulsion SPF 15; Erno Laszlo R.E.M. SPF 30; Erno Laszlo Solar Exchange Sun Balm SPF 25; Erysol; Eshu Skin Assist SPF 30 Moisturising Sunscreen; Esika Perfect Sun; Esika Perfectblock Multiprotector Solar De Amplio Espectro Para Rostro Y Cuerpo Fps 50plus; Essential Energy Day Cream; Essential Shockeye and Lip; Essential-C Day Moisture Broad Spectrum SPF 30 Pa+++; Estee Lauder Advanced Time Zone Age Reversing Line/wrinkle Creme Oil-free SPF 15 for Normal/combination Skin; Estee Lauder Advanced Time Zone Age Reversing Line/wrinkle Creme SPF 15 for Dry Skin; Estee Lauder Advanced Time Zone Age Reversing Line/wrinkle Creme SPF 15 for Normal/combination Skin; Estee Lauder Daywear 72h-hydration Sorbet Creme CRème Sorbet Hydratation 72h SPF/fps 15; Estee Lauder Daywear Advanced Multi-protection Lotion SPF 15 for Oily Skin; Estee Lauder Daywear Advanced Multi-protection Uv Defense SPF 50; Estee Lauder Daywear Multi-protection 24h-moisture Creme Oil-free SPF 25; Estee Lauder Daywear Multi-protection 24h-moisture Creme SPF 15 for Dry Skin; Estee Lauder Daywear Multi-protection 24h-moisture Creme SPF 15 for Normal/ Combination Skin; Estee Lauder Daywear Multi-protection Sheer Tint Release Moisturizer SPF 15 All Skintypes; Estee Lauder Daywear Plus Multi Protection Tinted Moisturizer SPF 15; Estee Lauder Daywear Plus Multiprotection Creme SPF 15 for Dry Skin; Estee Lauder Daywear Plus Multiprotection Creme SPF 15 for Normal/combination Skin; Estee Lauder Daywear Plus Multiprotection Lotion SPF 15 for Oily Skin; Estee Lauder Daywear Sheer Tint Release Advanced Multi-protection Moisturizer SPF 15; Estee Lauder Genuine Glow Priming Moisture Balm SPF 15; Estee Lauder Hydra Bright Skin-tone Perfecting Moisturizer SPF 15; Estee Lauder Hydrationist Maximum Moisture Creme SPF 15; Estee Lauder Lightsource Time-resisting Moisture Creme SPF 15; Estee Lauder Lightsource Time-resisting Moisture Lotion SPF 15; Estee Lauder Resilience Lift Firming/sculpting Face and Neck Creme Oil-free SPF 15 for Normal/combination Skin; Estee Lauder Resilience Lift Firming/sculpting Face and Neck Creme SPF 15 for Dry Skin; Estee Lauder Resilience Lift Firming/sculpting Face and Neck Creme SPF 15 for Normal/combination Skin; Estee Lauder Resilience Multi-effect Tri-peptide Face and Neck Creme CRème Tri-peptide Visage Et Cou SPF/fps 15 Dry Skin Peaux Sèches; Estee Lauder Revitalizing Supreme+ Global Anti-aging Creme SPF 15; Estee Lauder Sun Performance SPF 30 Sunscreen Sun Care Multi-protection Sun Lotion for Body; Estee Lauder Sun Performance SPF 30 Sunscreen Sun Care Multi-protection Sun Lotion for Face; Estee Lauder Time Zone Line and Wrinkle Reducing Creme SPF 15 for Dry Skin; Estee Lauder Time Zone Line and Wrinkle Reducing Creme SPF 15 for Normal/combination Skin; Estee Lauder Time Zone Line and Wrinkle Reducing Lotion SPF 15; Estée Lauder Resilience Multi-effect Tri-peptide Face and Neck Creme CRème Tri-peptide Visage Et Cou SPF/fps 15; Eternal Spirit Beauty SPF 50Sunscreen; Eucerin Advance Hydration Sunscreen SPF 30; Eucerin Advanced Hydration SPF 50 Sunscreen; Eucerin Advanced Hydration Sunscreen SPF 50; Eucerin Age Defense; Eucerin Age Defense SPF 50 Sunscreen; Eucerin Complete Hydration Lotion; Eucerin Complete Hydration Spray; Eucerin Daily Hydration; Eucerin Daily Hydration Hand; Eucerin Daily Protection Body; Eucerin Oil Control; Eucerin Oil-Control SPF 50 Sunscreen; Eucerin Redness Relief Daily Perfecting; Eve Lom Daily Protection Broad Spectrum SPF 50 Sunscreen; Eve Lom Flawless Radiance Primer Broad Spectrum SPF 30 Sunscreen; Even Better Dark Spot Correcting Broad Spectrum SPF 15; Even Better Skin Tone Correcting Moisturizer Broad Spectrum SPF 20; Even Better Skin Tone Correcting Mosturizer SPF 20; Even Tone Daily Moisturizer; Even True Nutritive Skin Moisturizer SPF 15; Even and Bright Moisturizer SPF15; Evervescence Daily Facial Moisturizer Broad Spectrum SPF15 Sunscreen; Every Man Jack Broad Spectrum SPF 30; Every Man Jack SPF 30 Sunscreen; Every Man Jack Sun Protection SPF 30 UVA and UVB; Every. Single. Face. Watery SPF 50; Everyday Face and body Broad Spectrum SPF 30 Supergoop; Everyday Nourishing Broad Spectrum SPF30 Sunscreen UVA-UVB Suncreen; Everyday Sunscreen Broad Spectrum SPF 30 Supergoop; Everyday Sunscreen Broad Spectrum SPF 50 Supergoop; Everyday Sunscreen SPF 50; Everyday Sunscreen SPF 50 Supergoop; Everyday Sunscreen with Sunflower Extract Broad Spectrum SPF 30; Everyday Superstars SPF Discovery Kit; Everyday Uv Protector Sun Screen; Everyman Jack Broad Spectrum SPF 50; Everyman Jack SPF 50; Evian Original Hydrating Lotion SPF 15; Exact Cooling and Refreshing Clear Continuous Spray Sunscreen SPF/fps 45; Exact Kids Clear Continuous Spray Sunscreen SPF/fps 50; Exact Kids' Sunscreen Lotion SPF Fps 30; Exact Sunscreen Lotion SPF Fps 30; Excel SPF 30; Excel Sport SPF 50; Exchange Select Baby Sunscreen SPF 50; Exchange Select Kids SPF 50; Exchange Select Kids Sunscreen SPF 50; Exchange Select Sheer Dry Touch Sunscreen SPF 70; Exchange Select Sport SPF 50; Exchange Select Sport Sunscreen Continuous SPF 30; Exchange Select Sport Sunscreen Continuous SPF 70; Exchange Select Sport Sunscreen SPF 30; Exchange Select Sport Sunscreen SPF 50; Exchange Select Sunscreen SPF 30; Exchange Select Sunscreen SPF 45; Exchange Select Sunscreen SPF 50; Exchange Select Sunscreen SPF 70; Expedition BackCountry SPF 30; Exsel Sport SPF 15; Exsel Sport SPF 30; Exten-10 Instant Youth Boosting Moisturizer SPF 15; Extra Repair Foundation Broad Spectrum SPF 25; Extra Repair Moisturing Balm SPF 25; Extra Repair Moisturizing Balm Broad Spectrum SPF 25; Extra-firming Jour Fps/SPF 15; Extreme (UVA/UVB) SPF 33; Extreme Anti-Wrinkle Care SPF 30; Extreme Sport SPF 70; Extreme Tea SPF 15 Broad Spectrum Lip Balm; Exuviance Age Reverse Day Repair SPF 30; Exuviance Age Reverse Day Repair with Sunscreen Broad Spectrum SPF 30; Exuviance Daily Corrector with Sunsreen Broad Spectrum SPF 35; Exuviance OptiLight All-Over Dark Spot Minimizer with Sunsreen Broad Spectrum SPF 35; Exuviance Optilight All-Over Dark Spot Minimizer SPF 25; Exuviance Professional OptiLight All-Over Dark Spot Minimizer with Sunsreen Broad Spectrum SPF 35; Exuviance Professional Sheer Refining Fluid with Sunscreen Broad Spectrum SPF 40; Exuviance Sheer Refining Fluid SPF 35; FC5 Complexion Perfecting Set; FC5 Complexion Revitalizing Set; FC5 Face Normal to Dry Sample Set; FC5 Face Oily Combination Sample Set; FC5 Nurturing Day Broad Spectrum SPF 20 Sunscreen; FC5 Oil-Absorbing Day Broad Spectrum SPF 20 Sunscreen; FEVANZON Isolation Sunscreen; FEVANZON Polypeptide Revitalizing Essence Emulsion; FEVANZON Revitalizing Cream; FOTOSKINOX Color Face Cream Sunscreen Broad Spectrum SPF 50; FRE Protect Body Broad Spectrum SPF30; FT SPF30 Sun Stick; Fabulous Face SPF 15; Face & Body Protector SPF 15; Face & Body Sunscreen Broad Spectrum SPF 30; Face & Neck Multi Action Visage Et Cou Multi Action Day Cream / CRème De Jour SPF 30 / Fps 30; Face Anti-shine Cream; Face Balm SPF-15; Face Broad Spectrum SPF 20 Sunscreen; Face Daily Uv Anti-aging Moisturizer; Face Daily Uv Anti-dry Moisturizer; Face Daily Uv Tinted Moisturizer; Face Factor; Face Factor SPF 50; Face It Radiance Makeup Base SPF 20 Pa++; Face Lift Broad Spectrum SPF 20 Jafra Pro; Face Mist; Face Moisturiser; Face Multi-protection Sun Cream SPF 15; Face Multi-protection Sun Cream SPF 30; Face Multi-protection Sun Cream SPF 50; Face Oasis Hydrating Face Oasis Hydrating SPF 30; Face Oasis Hydrating Lotion SPF 30; Face Oasis Plus Hydrating Fluid SPF 15; Face Plus Scalp Invisible Daily SPF 30 Broad Spectrum; Face Potion; Face SPF 47 Setting; Face SPF 50; Face Sunscreen SPF 45; Face Values Radiant Facial Daily Moisturizer SPF 15 Sunscreen; Face Values Refreshing Cooling Body Mist Sunscreen SPF 45; Face Values Ultra Light Body Mist Sunscreen SPF 30; Face Values Ultra Light Dry to the Touch Sunscreen Broad Spectrum SPF 55; Face Values Ultra Sport Active SPF 15 Sunscreen; Face Values Ultra Sport Active SPF 30 Sunscreen; Face Values Ultra Sport Active SPF 50 Sunscreen; Face Values Wet N Dry Wet Skin SPF 30 Sunscreen; Face Values Wet N Dry Wet Skin SPF 50 Sunscreen; Face Values Wet N Dry Wet Skin Sunscreen SPF 50; Face Visage Hypoallergenic Sunscreen Lotion; Face and Body Protective Lotion SPF 30; Face and Body SPF 15; Face and Body SPF 30; Face and Body Sunscreen SPF 35 Jafra; Facescreen SPF 50; Facet Daily Moisturizer SPF 35; Facial Boosting Broad Spectrum SPF 15 Jafra; Facial Fuel; Facial Fuel SPF 15; Facial Fuel Uv Guard; Facial Sheer Shield SPF45; Facial Sun Cream SPF 15; Facial Sunscreen SPF 20 Lotion; Fair BB Cream SPF15; Fair and Square Kids Broad Spectrum SPF 50; Fair and Square Sport Broad Spectrum SPF 30; Fair and Square Sport Broad Spectrum SPF 50; Fair and Square Sport Sunscreen SPF 30; Fair and Square Sport Sunscreen SPF 50; Fair and Square Ultra Protection Broad Spectrum SPF 15; Fair and Square Ultra Protection Broad Spectrum SPF 30; Fair and Square Ultra Protection Sunscreen SPF 15; Fair and Square Ultra Protection Sunscreen SPF 30; Family Dollar Tropic Sun Kids SPF 50 Sunscreen; Family Dollar Tropic Sun SPF 70 Sport Sunscreen; Family Dollar Tropic Sun Sport Sunscreen Continuous SPF 30; Fast-drying Sunscreen SPF 30; Fc5 Nurturing Day Lotion With SPF 20; Fc5 Oil-absorbing Day Lotion With SPF 20; Fenty Skin Hydra Vizor SPF 30; Fermitif Hand Renewal Cream Broad Spectrum SPF 15 Sunscreen; Fermitif Neck Renewal Cream Broad Spectrum SPF 15 Sunscreen US; Festival Favorites; Firmarine Day Cream SPF 30 CRème De Jour SPF 30; Firmarine Moisturizer SPF 30; First Aid Only SunX30 Sunscreen; Fix+ SPF 30 Sun Spray; Flawless Future; Flawless Future Moisture; Flawless Future SPF 30; Flawless Tinted Moisturizer Dark SPF 18; Flawless Tinted Moisturizer Light SPF 18; Flawless Tinted Moisturizer Medium SPF 18; Flesh Hydrating SPF Serum; Florida Grown Broad Spectrum SPF 15; Florida Grown Sunscreen Broad Spectrum SPF15; Florida Salt Scrub Broad Spectrum SPF 30; Florida Salt Scrubs Broad Spectrum SPF 50; Florida Salt Scrubs Florida Grown Broad Spectrum SPF 15 Sunscreen; Florida Salt Scrubs Florida Snowbird Sunscreen 30 Broad Spectrum SPF 30; Florida Squeeze SPF 15; Florida Squeeze SPF 30; Florida Squeeze SPF 50; Florida Squeeze SPF 8; Florida Suncare Broad Spectrum SPF 15; Florida Suncare Broad Spectrum SPF 30; Florida Suncare Broad Spectrum SPF 50; Flormar BB White BW01 Light; Flormar BB White BW02 Light Medium; Flormar BB White BW03 Dark Medium; Flormar BB White BW04 Medium Beige; Flormar BB White BW05 Natural Beige; Flormar BB White BW06 Warm Beige; Flormar Blur Effect BB Sunscreen Broad Spectrum SPF 30 01 Light; Flormar Blur Effect BB Sunscreen Broad Spectrum SPF 30 02 Light Medium; Flormar Blur Effect BB Sunscreen Broad Spectrum SPF 30 03 Dark Medium; Flormar Radiant Pink Skin Highlighter Sunscreen Broad Spectrum SPF 15; Fluid Foundation SPF 30 Color 01; Fluid Foundation SPF 30 Color 02; Fluid Foundation SPF 30 Color 03; Fluide De Jour; Fluide De Jour Fps 20 Pro-derm; Fluide Desalterant Multi-hydratant SPF 15; Fluide Fondant Desalterant SPF 15 Hydra Quench - Formula B; Fluide Fondant Desalterant Super Hydratant SPF 15; Fluide Fondant Désalterant SPF 15; Fluide Lift Jour Toutes Peaux - Multi Régénérante - SPF 15; Fluide Protecteur Jeunesse Des Mains SPF 15; Fluide Éclat Du Jour SPF 15; Focused Corrective; For Goodness Face Antioxidant Skin Moisturizing Lotion SPF 30; For Men Maca Root Energetic Face Protector; For Men Maca Root Energetic Face Protector SPF 15; For The Face; Forever Sun Lips; Forever Young Body Butter Broad Spectrum Sunscreen SPF 40 Supergoop; Forever Young Hand Broad Spectrum SPF 40 Supergoop; Forever Young Hand Cream With Sea Buckthorn; Forme Cosmetics Delicious Lip Balm SPF 12; Fote Block Up Kids SPF 50 Sunscreen; Fote Cabana Beach Club With Manuka Honey and Essential Oils SPF 30 Sunscreen; Fote Sport Sunscreen SPF 50; Fotoskinox face cream sunscreen; Foundation Primer Sunscreen Broad Spectrum SPF 15; Fps 15 Lait Solaire; Fps 30 Lait Solaire; Fps 30 Soin Complet; Fps 45 Soin Complet; Fps 50 Lait Solaire; Fps 60 CRème Uv Hydratante; Fps 60 Lotion Uv Ultra-Légère; Fps 60 Soin Complet; Fre Broad Spectrum; Fresh Black Tea Age-Delay Broad Spectrum Sunscreen SPF 20; Fresh Cooling Body Mist Sunscreen SPF 30; Fresh Cooling Body Mist Sunscreen SPF 45; Fresh Cooling Sunblock Gel SPF 30; Fresh Cooling Sunblock Gel SPF 45; Fresh Cucumber Classic Body SPF 30 Broad Spectrum; Fresh Cucumber Classic Face SPF 30 Broad Spectrum; Fresh Essentials Daily Nourishing Moisturizer; Fresh Soy Moisturizing SPF 20; Fresh Sugar Berry Tinted Lip Treatment SPF 15; Fresh Sugar Cherry Tinted Lip Treatment SPF 15; Fresh Sugar Coral Tinted Lip Treatment SPF 15; Fresh Sugar Honey Tinted Lip Treatment SPF 15; Fresh Sugar Passion Tinted Lip Treatment SPF 15; Fresh Sugar Petal Tinted Lip Treatment SPF 15; Fresh Sugar Ruby Tinted Lip Treatment Sunscreen SPF 15; Fresh Sugar Tulip Tinted Lip Treatment Sunscreen SPF 15; Fruit Of The Earth Kids SPF/fps 50; Fruit Of The Earth SPF/fps 30; Fruit Of The Earth SPF/fps 30 Continuous Spray; Fruit Of The Earth SPF/fps 50; Fruit Of The Earth SPF/fps 50 Continuous Spray; Fruit Of The Earth Sport SPF/fps 15; Fruit Of The Earth Sport SPF/fps 15 Continuous Spray; Fruit Of The Earth Sport SPF/fps 30; Fruit Of The Earth Sport SPF/fps 30 Continuous Spray; Fruit Of The Earth Sport SPF/fps 50; Fruit Of The Earth Sport SPF/fps 50 Continuous Spray; Fruit of The Earth Sun Town City Kids SPF 50 Sunscreen; Fruit of the Earth Block Up Broad Spectrum Baby SPF 50; Fruit of the Earth Block Up Broad Spectrum Sport SPF 50; Fruit of the Earth Block Up Dry Sport SPF 50 Continuous Sunscreen; Fruit of the Earth Block Up Kids SPF 50; Fruit of the Earth Block Up Kids SPF 50 Continuous Sunscreen; Fruit of the Earth Block Up Kids SPF 50 Moisturizing Sunscreen; Fruit of the Earth Block Up Lite Broad Spectrum SPF 15 Continuous Sunscreen; Fruit of the Earth Block Up Lite Broad Spectrum SPF 30 Continuous Sunscreen; Fruit of the Earth Block Up Lite Kids SPF 50 Continuous Sunscreen; Fruit of the Earth Block Up SPF 30 General Protection Sunscreen; Fruit of the Earth Block Up SPF 30 Sunscreen; Fruit of the Earth Block Up SPF 50; Fruit of the Earth Block Up SPF 50 Full Spectrum Sunscreen; Fruit of the Earth Block Up SPF 70 General Protection Sunscreen; Fruit of the Earth Block Up Sport SPF 30 Continuous Sunscreen; Fruit of the Earth Block Up Sport SPF 30 Sunscreen; Fruit of the Earth Block Up Sport SPF 50 Continuous Sunscreen; Fruit of the Earth Block Up Sport SPF 50 Moisturizing Sunscreen; Fruit of the Earth Block Up Sport SPF 50 No Mess Sun; Fruit of the Earth Block Up Sport SPF 50 Sunscreen; Fruit of the Earth Cabana Beach Club; Fruit of the Earth Cabana Beach Club Lip Balm with Blood Orange and Essential Oils SPF 30; Fruit of the Earth Cabana Beach Club Lip Balm with Manuka Honey and Essential Oils SPF 30; Fruit of the Earth Cabana Beach Club Lip Balm with Mentha and Essential Oils SPF 30; Fruit of the Earth Cabana Beach Club with Blood Orange and Essential Oils SPF 30; Fruit of the Earth Cabana Beach Club with Manuka Honey and Essential Oils SPF 50; Fruit of the Earth Cabana Beach Club with Mentha and Essential Oils SPF 50; Fruit of the Earth Cabana Beach Clubwith Blood Orange and Essential Oils SPF 50; Fruit of the Earth Lip Balm SPF 30 Sunscreen Stick; Fruit of the Earth SPF 50 Kids Sunscreen; Fruit of the Earth SPF 50 Moisturizing Sunscreen; Fruit of the Earth SpaCology; Fruit of the Earth SpaCology Sport SPF 50; Fruit of the Earth Sport SPF 50; Fruit of the Earth Sport SPF 50 Sunscreen Continuous; Fruit of the Earth Sun Town City; Fruit of the Earth Sun Town City Baby SPF 50 Sunscreen; Fruit of the Earth Sun Town City Dark Tanning SPF 8 Sunscreen; Fruit of the Earth Sun Town City SPF 15 Sunscreen; Fruit of the Earth Sun Town City SPF 30 Sunscreen; Fruit of the Earth Sun Town City SPF 50 Sunscreen; Fruit of the Earth, Inc. Luv That Sun Kids SPF 50 Natural Sunscreen; Fruit of the Earth, Inc. Luv That Sun SPF 30 Continuous; Fruit of the Earth, Inc. Luv That Sun SPF 30 Natural Sunscreen; Fruit of the Earth, Inc. Ultra SPF 50 Moisturizing Sunscreen; Future Solution Lx Daytime Protective Cream SPF 18; Future Solution Lx Total Protective Cream E; Future Solution Lx Total Protective Emulsion E; GLYTONE Gentle Rejuvenating Broad Spectrum SPF 15; GLYTONE Triple Defense Brightening Complex with Sunscreen Broad Spectrum SPF 30; GM Collin 50Plus DRY TOUCH SUN PROTECTION; GOLDEN ROSE glow kiss TINTED LIP BALM CHERRY JUICE; GUINOT Large Defense uv Medium protection Sunscreen for the body SPF 20; GUINOT Ultra UV Sunscreen High Protection Sun Cream for the face and body SPF 30; Garnier Moisture Rescue Lightweight UV; Garnier Ombrelle 30 Complete Dry Mist SPF 30 Water Resistant 80 Minutes; Garnier Ombrelle 60 Complete Dry Mist SPF 60 Water Resistant 80 Minutes; Garnier Ombrelle Clear Sport 45 Water Resistant 40 Minutes; Garnier Ombrelle Clear Sport 50 Plus Water Resistant 40 Minutes; Garnier Ombrelle Complete Sensitive Advanced Lightweight hypoallergenic SPF 45 Mexoryl Technology; Garnier Ombrelle Face Anti-Shine SPF 60 Mexoryl Technology; Garnier Ombrelle Kids Ultra Gentle Broad Spectrum SPF 50 Plus Sunscreen Water Resistant 80 Minutes; Garnier Ombrelle Kids Ultra Gentle SPF 50 Plus Water Resistant 80 Minutes; Garnier Ombrelle Kids Wet N Protect Hypoallergenic SPF 45 Mexoryl Technology; Garnier Ombrelle SPF 15 Complete; Garnier Ombrelle SPF 30 Complete Lightweight; Garnier Ombrelle SPF 30 Complete UVA UVB Sensitive Advanced Sunscreen for Sensitive Skin Hypoallergenic Non comedogenic Quick Absorption Water/sweat resistant 80 minutes; Garnier Ombrelle SPF 30 Face Ultra Light; Garnier Ombrelle SPF 30 Kids Water Resistant; Garnier Ombrelle SPF 30 Sport Endurance Water Resistant; Garnier Ombrelle SPF 30 Sport Water Resistant; Garnier Ombrelle SPF 30 UVA UVB Kids Wet N Protect Sunscreen Protection Even on Wet Skin Hypoallergenic Water/sweat resistant 80 minutes Quick Absorption; Garnier Ombrelle SPF 45 Complete Lightweight; Garnier Ombrelle SPF 45 Face Ultra Light; Garnier Ombrelle SPF 45 Kids Hypoallergenic; Garnier Ombrelle SPF 45 Sport; Garnier Ombrelle SPF 50 Kids Water Resistant; Garnier Ombrelle SPF 60 Complete Lightweight; Garnier Ombrelle SPF 60 Complete UVA UVB Sensitive Advanced Sunscreen for Sensitive Skin Hypoallergenic Non comedogenic Quick Absorption Water/sweat resistant 80 minutes; Garnier Ombrelle SPF 60 Face Ultra Light; Garnier Ombrelle SPF 60 UVA UVB Kids Wet N Protect Sunscreen Protection Even on Wet Skin Hypoallergenic Water/sweat resistant 80 minutes Quick Absorption; Garnier Ombrelle Sport 30; Garnier Ombrelle Sport 30 Water Sweat Resistant Sunscreen; Garnier Ombrelle Sport Endurance 60; Garnier Ombrelle Sport Vaporisateur Broad Spectrum SPF 30 Sweat Resistant 80 Minutes; Garnier Ombrelle Ultra Light Advanced 30; Garnier Ombrelle Ultra Light Advanced 60; Garnier Ombrelle Ultra Light Advanced Broad Spectrum SPF 50 Plus Sunscreen Water Resistant 80 Minutes; Garnier Ombrelle Ultra Light Advanced Broad Spectrum SPF 50 Plus Sunscreen Water Resistant 80 Minutes Weightless Body; Garnier Ombrelle Ultra Light Advanced SPF 60 Water Resistant 80 Minutes; Garnier Ombrelle Ultra Light Hydrating Face Sunscreen; Garnier Skin Renew Daily Moisture Anti Sun Damage; Garnier Skin Renew Dark Spot Hand Treatment Broad Spectrum SPF 30; Garnier SkinActive Clearly Brighter AntiSun Damage Daily Moisturizer Broad Spectrum SPF 30 Sunscreen; Garnier SkinActive Clearly Brighter Brightening and Smoothing Daily Moisturizer Broad Spectrum SPF 15 Sunscreen; Garnier SkinActive Moisture Bomb Broad Spectrum SPF 30 Sunscreen; Garnier SkinActive Moisture Rescue Actively Hydrating Daily Fragrance Free Broad Spectrum SPF 15; Garnier SkinActive Moisture Rescue Broad Spectrum SPF 15 Sunscreen Oil Free All Skin Types Actively Hydrating Daily; Garnier SkinActive Ultra Lift AntiWrinkle Firming Daily Moisturizer Broad Spectrum SPF 15 Sunscreen; Garnier Ultra Lift Anti Wrinkle Firming Moisturizer; Garnier Ultra Lift Deep Wrinkle Intensive Day; Garnier Ultra Lift SPF 30 Deep Wrinkle Day; Garnier green labs Brightening Serum PineaC Broad Spectrum SPF 30 Sunscreen; Garnier green labs Pore Perfecting CannaB Serum Broad Spectrum SPF 30 Sunscreen; Garnier green labs Replumping HyaluMelon Broad Spectrum SPF 30 Sunscreen; Gel Creme Protecteur SPF 15; Gel Protecteur Ip-6; Gel Protector Solar Protecting Body Milk Lait Corps Protecteur SPF 20; Gel Solaire Bronzage Securite SPF 15 Special Sport; Gelee Fraiche Hydratante SPF 10; Gelee Fraiche Hydratante SPF 15; Gelée Solaire Fraîcheur Protection Faible 8 SPF; General Protection; Generations Nadinola Day Time Protecting Moisturizer SPF 15; Geneva Naturals Advanced Anti-Aging with Sunscreen SPF 20; Geneva Naturals Advanced Anti-Aging with Sunscreen SPF 20 Unscented; Gentle Hydrating Day Broad Spectrum SPF 15 Jafra; Gentle Rejuvenation Fortified Sunscreen Broad Spectrum SPF 30 With Vitamin C; Gentle Rejuvenation System; Gilded Glam Broad Spectrum SPF 10; Gillette Fushion Proseries Instant Hydration UV Moisturizer; Gillette Fusion ProSeries Instant Hydration Moisturizer Broad Spectrum SPF 15; Gillette Fusion ProSeries Instant Hydration UV Moisturizer SPF 15; Giorgio Armani Crema Nera Extrema Essential Defense Fluid Broad Spectrum SPF 14 Sunscreen; Giorgio Armani Crema Nera OMC3 Obsidian Mineral Restoring SPF 15; Giorgio Armani Maestro UV Skin Defense Primer Broad Spectrum SPF 50 Sunscreen; Giorgio Armani Regenessence High Lift Muti Firming Rejuvenating Broad Spectrum SPF 15 Sunscreen; Giorgio Armani Regenessence High Lift SPF 15; Givenchy Radically No Surgetics; Glamtox SPF 18; Glaxal Base Lotion SPF 15; Gliza Body Mist Sunscreen Broad Spectrum SPF 100; Glossier Invisible Shield Daily Sunscreen Broad Spectrum SPF 35; Glossier sun glaze gleaming sunscreen oil broad spectrum SPF 30 Water Resistant 40 Min; Glossworks Lip Gloss; Glow 30; Glow Body Mist SPF 50; Glow Face SPF 15 Sunscreen Lotion; Glow Go Lip Oil; Glow Go Lip Oil SPF50; Glow Oil Broad Spectrum Sunscreen SPF 50; Glow Radiant Moisturizer SPF 15; Glow Screen Body Broad Spectrum Sunscreen SPF 40; Glow Screen SPF 40; Glow Stick Broad Spectrum SPF 50; Glow Stick Broad spectrum SPF 50; Glow and Steady Daily Moisturizer and Gradual Self Tanner SPF 15 for Body; Glowscreen; Glowstunner Tinted Moisturizer; Glycolic Day Cream SPF 30; Glyquin Xm; Glysomed Face Moisturizer; Glytone Body; Glytone Clarifying SunVanish with Sunscreen; Glytone Daily Body; Glytone Essentials Rejuvenate daily; Glytone SunVanish Skin Lightening; Glytone Suncare SPF 50; Glytone essentials rejuvenate daily; Gnarly Head SPF 30; Gold Bond Ultimate 5-in-1 Face; Gold Bond Ultimate Age Defense Hand Cream with SPF 20; Gold Bond Ultimate Neck and Chest Age Defense Cream with SPF 20; Gold Bond Ultimate Protection; Gold Dynamics Skin Boosting Moisturizer Broad Spectrum SPF 15 Sunscreen; Gold Dynamics Travel Kit Jafra; Golden Defense - Moisturizing Sun Lotion SPF 15; Golden Rose Glow Kiss Tinted Lip Balm Berry Pink; Golden Rose Glow Kiss Tinted Lip Balm Choco Cake; Golden Rose Glow Kiss Tinted Lip Balm Peach Shake; Golden Rose Glow Kiss Tinted Lip Balm Strawberry; Golden Rose Glow Kiss Tinted Lip Balm Vanilla Latte; GolfersSkin Sunscreen Lip Balm; Good Neighbor Pharmacy Kids SPF 50; Good Neighbor Pharmacy Kids Sunscreen Broad Spectrum SPF 50; Good Neighbor Pharmacy Sport Sunscreen Continuous SPF 30; Good Neighbor Pharmacy Sport Sunscreen SPF 30; GoodSense SPF 30 Sport CSpray Comfort Can; GoodSense SPF 30 Sunscreen; GoodSense SPF 50 CSpray; GoodSense SPF 50 Sport Comfort Can; GoodSense SPF 50 Sunscreen; GoodSense Sport Sunscreen SPF 30; GoodSense Sport Sunscreen SPF 50; GoodSense Sunscreen SPF 30; GoodSense Sunscreen SPF 50; GoodSense Sunscreen SPF 70; Goslings Chopsaver Broad Spectrum SPF Lip Balm; Got2b Spa Defense; Gp Sunscreen; Gr Hd Foundation High Definition SPF 15; Gr Nude Look SPF 25; Gradual Glow Sunless Tanning Milk Broad Spectrum Sunscreen SPF 35; Gradual Self-tanning sunscreen SPF 20 Doctor Ts Supergoop; Grape Soda SPF 15 Broad Spectrum Lip Balm; Grape Tanning Oil SPF 15; Grape Tanning Oil SPF6; Grapefruit SPF 30 Broad Spectrum; Grapefruit Shandy SPF 15 Broad Spectrum Lip Balm; Gray Malin Kit; Green Tea Antioxidant Broad Spectrum SPF 30 PAplusplusplus; Guard Sunscreen Broad Spectrum SPF 30; Guava Mango Sport SPF 30 Broad Spectrum; Guerlain Super Aqua-Hands; H-E-B Dead Sea Organics Protect and Perfect Day Broad Spectrum SPF15; H.E.B Solutions Sunscreen; H.E.B. Solutions Sunscreen; H.E.b; H.E.b Baby; H.E.b Banana; H.E.b Mango; H.E.b Solutions Sunscreen; H.E.b Ultra; H2O Beauty AQUADEFENSE PROTECTIVE MATCHA SPF 40; HAWAIIAN Tropic; HAWAIIAN Tropic Dry Clear Sunscreen Broad Spectrum SPF 12 water resistant; HEB Solutions Sunscreen; HEB Solutions Sunscreen Ultra 30; HUGGIES Little Swimmers; Habana Brisa SPF 30 Sunscreen; Habana Brisa SPF 50 Sunscreen; Habana Brisa SPF 70 Sunscreen; Habana SPF 30 Sunscreen; Habana SPF 50 Sunscreen; Habana SPF 70 Sunscreen; Habit SPF 38 Cucumber Mister; Habit SPF 39 White Peach and Neroli Mister; Habit SPF 41; Hada Labo Tokyo Protecting Day SPF 18; Hada Labo Tokyo Protecting Day SPF 30; Hampton SPF 15; Hampton SPF 8 Bronze; Hampton Sun SPF 15 Silk; Hampton Sun SPF 30 Silk; Hampton Sun SPF 50; Hampton Sun SPF 70; Hand Care Day care Broad Spectrum SPF 15 Jafra; Hand Complex Broad Spectrum SPF 15 Jafra; Hand Cream Intensive Anti-ageing SPF 15; Hand Screen Broad Spectrum Sunscreen SPF 40; Hand Treatment Regimen; Hand and Décolleté Cream Sunscreen SPF 15; Hangover Good To Go Moisturizer SPF 25; Hangover Good To Go Skin Protecting SPF 25 Moisturizer; Hanson Daily Moisturizer SPF30; Harmon Face Values Break-out Free SPF 55 Sunscreen; Harmon Face Values Daily Facial; Harmon Face Values Refreshing Cooling Body Mist Sunscreen SPF 45; Harmon Face Values Revitalizing Day; Harmon Face Values Ultra Light Dry To The Touch SPF 30 Sunscreen; Harmon Face Values Ultra Light Dry to the Touch SPF 100 Sunscreen; Harmon Face Values Ultra Light Dry to the Touch Suncreen SPF 55; Harmon Face Values Ultra Light Dry to the Touch Sunscreen Broad Spectrum SPF 45; Harmon Face Values Ultra Light Dry to the Touch Sunscreen Broad Spectrum SPF 70; Harmon Face Values Ultra Sport Active Sunscreen SPF 30; Harmon Revitalizing Facial Smoother Immediate Skin Smoothing Finishing Broad Spectrum SPF30 Sunscreen; HashtagSUN SPF 50 SunScreen Dabber; Haute Exigence Jour SPF 20 Multi-intensive; Havana Sun SPF 30 Sunscreen; Hawaiian Shaved Ice Lip Balm Broad Spectrum SPF 30; Hawaiian Sunscreen SPF 50+; Hawaiian Tropic; Hawaiian Tropic 30 SPF; Hawaiian Tropic 45 SPF Sunblock; Hawaiian Tropic 60 SPF Fps Sunscreen Lotion Ecran Solaire; Hawaiian Tropic AntiOxidant Sunscreen SPF 30 Broad Spectrum; Hawaiian Tropic AntiOxidant Sunscreen SPF 50 Broad Spectrum; Hawaiian Tropic Baby Lotion Sunscreen Écran Solaire Pour Bébés 60; Hawaiian Tropic CRème Continuous Flow Sunscreen Écran Solaire À Écoulement Continu 30 SPF/fps; Hawaiian Tropic Carrot Protective Oil SPF 30; Hawaiian Tropic Creme Continuous Flow Sunscreen Ecran Solaire A Ecoulement Continu 10; Hawaiian Tropic Dry Oil Huile Sèche Sunscreen Spray Écran Solaire En Vaporisateur 10; Hawaiian Tropic Dry SPF 30; Hawaiian Tropic Duo Defence Refresh Sunscreen Mist SPF 30; Hawaiian Tropic Everyday Active High Performance Sport Sunscreen SPF30; Hawaiian Tropic Everyday Active SPF15; Hawaiian Tropic Everyday Active SPF30; Hawaiian Tropic Everyday Active SPF50; Hawaiian Tropic Ilk Hydration Weightless; Hawaiian Tropic Invisible Sunscreen Sheer Touch SPF 30; Hawaiian Tropic Invisible Sunscreen Sheer Touch SPF 50; Hawaiian Tropic Island Sport Clear Sunscreen Spray Ecran Solaire Transparent En Vaporisateur 30; Hawaiian Tropic Island Sport SPF 30; Hawaiian Tropic Island Sport SPF 30 for Canada; Hawaiian Tropic Island Sport Sunscreen Broad Spectrum SPF 15; Hawaiian Tropic Island Sport Sunscreen Broad Spectrum SPF 16; Hawaiian Tropic Island Sport Sunscreen Broad Spectrum SPF 30; Hawaiian Tropic Island Sport Sunscreen Broad Spectrum SPF 50; Hawaiian Tropic Island Sport Sunscreen Lotion SPF 50; Hawaiian Tropic Island Sport Sunscreen UVAUVB Broad Spectrum SPF 50; Hawaiian Tropic Island Sport Sweat Resistant Sunscreen Lotion SPF 30; Hawaiian Tropic Island Sport Sweat Resistant Sunscreen Lotion SPF 50; Hawaiian Tropic Island Sport Sweat Resistant Sunscreen Spray SPF 30; Hawaiian Tropic Island Sport Sweat Resistant Sunscreen Spray SPF 50; Hawaiian Tropic Island Tanning Broad Spectrum SPF 15; Hawaiian Tropic Island Tanning Broad Spectrum SPF 25; Hawaiian Tropic Island Tanning Clear Sunscreen Broad Spectrum SPF 30; Hawaiian Tropic Island Tanning Sunscreen Cocoa Butter SPF 4; Hawaiian Tropic Kids Lotion Sunscreen Écran Solaire Pour Enfants 60; Hawaiian Tropic Kids SPF 30; Hawaiian Tropic Kids Sunscreen Clear Spray Écran Solaire Incolore En Vaporisateur Pour Enfants 60; Hawaiian Tropic Kids Sunscreen Lotion SPF/fps 50+; Hawaiian Tropic Lip Balm Sunscreen SPF 25; Hawaiian Tropic Lip Balm Sunscreen SPF 30; Hawaiian Tropic Lip Balm Sunscreen Stick; Hawaiian Tropic Lip Balm Sunscreen Stick Broad Spectrum SPF 45; Hawaiian Tropic Oil Spray Huile En Vaporisateur Moisturizing Sunscreen Écran Solaire Hydratant 4 SPF/fps; Hawaiian Tropic Oil Spray Moisturizing Sunscreen SPF 4; Hawaiian Tropic Protective Argan Dry Oil Sunscreen Spray SPF 15; Hawaiian Tropic Protective Dry Oil Sunscreen Spray SPF/fps 10; Hawaiian Tropic SPF 15; Hawaiian Tropic Sensitive Skin Peau Sensible Face Visage Sunscreen Lotion Écran Solaire 30; Hawaiian Tropic Sensitive Skin Peau Sensible Lotion Sunscreen Spray Lotion Ecran Solaire En Vaporisateur 50; Hawaiian Tropic Sheer Touch Clear Sunscreen Spray SPF 30 Ultra Radiance; Hawaiian Tropic Sheer Touch Clear Sunscreen Spray SPF 50+ Ultra Radiance; Hawaiian Tropic Sheer Touch SPF 30; Hawaiian Tropic Sheer Touch SPF30; Hawaiian Tropic Sheer Touch Sunscreen Broad Spectrum SPF 15; Hawaiian Tropic Sheer Touch Sunscreen Ultra Radiance Broad Spectrum SPF 50; Hawaiian Tropic Sheer Touch Toucher Soyeux Clear Sunscreen Spray Écran Solaire Transparent En Vaporisateur 30; Hawaiian Tropic Sheer Touch Toucher Soyeux Clear Sunscreen Spray Écran Solaire Transparent En Vaporisateur 60; Hawaiian Tropic Sheer Touch Toucher Soyeux Lotion Sunscreen Ecran Solaire 30; Hawaiian Tropic Sheer Touch Toucher Soyeux Lotion Sunscreen Écran Solaire 45; Hawaiian Tropic Sheer Touch Toucher Soyeux Lotion Sunscreen Écran Solaire 60; Hawaiian Tropic Sheer Touch Toucher Soyeux Oil-free Sunscreen Écran Solaire Sans Huile 15 SPF/fps; Hawaiian Tropic Sheer Touch Toucher Soyeux Oil-free Sunscreen Écran Solaire Sans Huile 30 SPF/fps; Hawaiian Tropic Sheer Touch Toucher Soyeux Oil-free Sunscreen Écran Solaire Sans Huile 45 SPF/fps; Hawaiian Tropic Sheer Touch Toucher Soyeux Oil-free Sunscreen Écran Solaire Sans Huile 60 SPF/fps; Hawaiian Tropic Sheer Touch Toucher Soyeux Oil-free Sunscreen Écran Solaire Sans Huile 85 SPF/fps; Hawaiian Tropic Sheer Touch Ultra Radiance Sunscreen Broad Spectrum SPF 30; Hawaiian Tropic Sheet Touch Ultra Radiance Sunscreen SPF 50; Hawaiian Tropic Shimmer Effect Oil-free Sunscreen Écran Solaire Sans Huile 15 SPF/fps; Hawaiian Tropic Shimmer Effect Oil-free Sunscreen Écran Solaire Sans Huile 30 SPF/fps; Hawaiian Tropic Silk Hydration Broad Spectrum SPF 15; Hawaiian Tropic Silk Hydration Clear Sunscreen Broad Spectrum SPF 50; Hawaiian Tropic Silk Hydration Clear Sunscreen Broad Spectrum SPF50; Hawaiian Tropic Silk Hydration Face Oil-free Sunscreen; Hawaiian Tropic Silk Hydration Sunscreen Broad Spectrum SPF 30; Hawaiian Tropic Silk Hydration Sunscreen Broad Spectrum SPF 50; Hawaiian Tropic Silk Hydration Sunscreen Face Broad Spectrum SPF 30; Hawaiian Tropic Silk Hydration Sunscreen Lotion Écran Solaire 10 SPF/fps; Hawaiian Tropic Silk Hydration Sunscreen Lotion Écran Solaire 30 SPF/fps; Hawaiian Tropic Silk Hydration Sunscreen Lotion Écran Solaire 50 SPF/fps; Hawaiian Tropic Silk Hydration Weghtless Face; Hawaiian Tropic Silk Hydration Weightless; Hawaiian Tropic Silk Hydration Weightless Clear Sunscreen SPF 15; Hawaiian Tropic Silk Hydration Weightless Clear Sunscreen SPF30; Hawaiian Tropic Silk Hydration Weightless Clear Sunscreen Spray SPF 50 Plus; Hawaiian Tropic Silk Hydration Weightless Daily Use Sunscreen Mist Spray SPF 30; Hawaiian Tropic Silk Hydration Weightless Sunscreen Lotion With Hydrating Ribbons SPF 30; Hawaiian Tropic Silk Hydration Weightless Sunscreen Lotion With Hydrating Ribbons SPF 50; Hawaiian Tropic Sport Sunscreen Everyday Active; Hawaiian Tropic Sunscreen Clear Weightless Hydration Spf70; Hawaiian Tropic Sunscreen Sheer Touch Face SPF 30; Hawaiian Tropic Sunscreen Sheer Touch Face SPF 50; Hawaiian Tropic Sunscreen Sheer Touch SPF 70; Hawaiian Tropic Tanning; Hawaiian Tropic Tanning Dry SPF 6; Hawaiian Tropic Touch Of Colour Tinted Sunscreen Spray Lotion SPF 15; Hawaiian Tropic Touch Of Colour Tinted Sunscreen Spray Lotion SPF 4; Hawaiian Tropic everyday Active Sport Sunscreen SPF50; Hawaiin Tropic Island Tanning SPF 6; Hawaiin Tropic Silk Hydration Dry Broad Spectrum SPF 30; Head to Toe Kit; Head-to-Toe Favorites Mini Set; Healthy Defense Daily Moisturizer SPF 30; Healthy Defense Daily Moisturizer SPF 45; Healthy Defense Sunblock Lotion SPF 30; Healthy Defense Sunblock Lotion SPF 45; Healthy Glow Sunless Tan Broad Spectrum SPF 40; Healthy Skin Instant Tone Corrector; Healthy Skin Lift & Firm; Healthy Skin Radiance; Heb; Heb Broad Spectrum SPF 30 Banana Scented Sunscreen; Heb Broad Spectrum SPF 30 Coconut Scented Sunscreen; Heb Broad Spectrum SPF 30 Mango Scented Sunscreen; Heb Broad Spectrum SPF 30 Pomegranate Scented Sunscreen Lip Balm; Help Me Broad Spectrum SPF 30 Sunscreen Retinol Day Treatment Lotion; Herbal Aloe Face and Body SPF 30; Herbal Serenity Age Defying Hand Treatment SPF 15; Herbalife SKIN 7 Day Results Kit; Herbalife Skin Protective Moisturizer SPF 30; High Performance Sunscreen Lotion SPF 15; High Performance Sunscreen Spray SPF 15; High Performance Sunscreen Spray SPF 50; High Protection Lotion SPF 50+; High Protection Spray SPF 50+; High Protection Suncare Oil SPF 30; Hill Country Essentials; Hissyfit Body Double Moisturizer; Hissyfit Handy Work; Holy Hydration! Face Cream SPF 30 Sunscreen; Homme Aqua Sun Block SPF50 Plus PA 2Plus; Homme Daily Moisturizing Lotion SPF 15; Hope In A Jar Broad Spectrum SPF 25 Sunscreen and Moisturizer for All Skin Types; Hope In A Jar For Dry Skin SPF broad spectrum spf 20 sunscreen and extra-rich moisturizer for normal to dry skin; Hope In A Jar SPF 25; Hourglass Equilibrium Day Fluid SPF 30; House 99 By David Beckham Bold Statement Body Tattoo Moisturizing Broad Spectrum SPF 50 Sunscreen; Huile Solaire Bronzage Tres Rapide Special Corps Et Protection Des Cheveux SPF 4; Hurley Broad Spectrum SPF; Hurley Broad Spectrum SPF 15; Hurley Broad Spectrum SPF 15 Sunscreen; Hurley Broad Spectrum SPF 30; Hurley Broad Spectrum SPF 50; Hurley Sunscreen Broad Spectrum SPF15; Hurley Sunscreen Broad Spectrum SPF50; Hyalu-melon With Conditioning (hyaluronic Acid + Watermelon); Hydra Beaute SPF 15; Hydra Life CRème Pro-jeunesse Avec Protection Uva/uvb; Hydra Life Fluide Pro-jeunesse Avec Protection Uva/uvb; Hydra Moisturizing Lotion SPF 30; Hydra Vegetal Fps 30 SPF Creme Hydrante; Hydra Vizor; Hydra-Essential SPF 15 Broad Spectrum - SPF 15 - Sunscreen; Hydra-essentiel Fluide Fondant Désaltérant Peaux Normales À Mixtes Fps/SPF 15; Hydra-firm Day Lotion SPF-15; Hydra-move Dynamic Moisture Booster SPF 10; Hydra-radiance Moisturizing Day Lotion Lotion De Jour Hydratante SPF/fps15; Hydra-radiance Protecting Day Lotion Lotion De Jour Protectrice SPF/fps30; Hydra-seal SPF 25 / Hydra-scellante SPF 25; Hydra-total 5 Ultra-even Lotion; Hydraboost Moisturizer SPF 30; Hydraboost Oil-Free Sunscreen SPF 40; Hydraday; Hydraday Face Moisturizer SPF 15; Hydraphase Uv Intense; Hydraphel Day Cream SPF 15; Hydraphel Day SPF15; Hydraplasty Face; Hydrasilk Day & Night Cream SPF 12; Hydrasilk Eye Cream SPF 12; Hydratant Défense Fps 30; Hydrating Antioxidant Moiturizer; Hydrating Body Sunscreen UVA and UVB Broad Spectrum SPF50; Hydrating Day Creme SPF 15; Hydrating Dynamics Jafra; Hydrating Facial SPF-30; Hydrating Glow Mist SPF 50; Hydrating Lip Balm SPF 15 sunscreen ASAP; Hydrating Lip Balm Sunscreen; Hydrating Protection Sunscreen CVS; Hydrating Protection Sunscreen SPF 30 CVS; Hydrating Protection Sunscreen SPF 50 CVS; Hydrating SPF 30; Hydrating SPF 50; Hydrating Sheer Lip Balm SPF 30 - Nude Broad Spectrum SPF 30 UVA-UVB Sunscreen; Hydrating Sheer Lip Balm SPF 30 - Pink Broad Spectrum SPF 30 UVA-UVB Sunscreen; Hydrating Sheer Lip Balm SPF 30 - Red Broad Spectrum SPF 30 UVA-UVB Sunscreen; Hydrating Sheer Lip Balm SPF 30 - TRIO; Hydrating Tinted Nourisher; Hydrating and Balancing Moisturizer SPF 15; Hydrating day moisture broad spectrum SPF15 Jafra; Hydration Invisiblur Perfecting Shield Broad Spectrum SPF 30; Hydro Boost City Shield Gel Cream SPF 25; Hydro Boost Gel Cream SPF 15; Hydro Boost Gel Cream SPF 25; Hydro Boost Water Gel Lotion Sunscreen; Hydro Boost Water Gel Lotion Sunscreen SPF 30; Hydro Boost Water Gel Lotion Sunscreen SPF 50; Hydrosport Sunscreen Spray SPF 30; Hydrosport Sunscreen Spray SPF 50; Hylands Naturals Vanilla Sunscreen Lip Balm SPF 15; I KNOW Very Necessary Broad Spectrum SPF-40 Moisturizing Cream; I-max Excellence; INTELLIGENT BEAUTY LABS Age Defying Day Broad Spectrum SPF 20; IOPE UV Defense Sun Protector SPF 50plus; IPKN Twinkle Flash Cream; IQQU Advance Sunscreen; ISA KNOX 365 SUNSCREEN BROAD SPECTRUM SPF 50 Plus; ITK Broad spectrum SPF 30 Sunscreen; Iced Pear Lip Balm; Iced Pear SPF 15 Broad Spectrum Lip Balm; Idc Fps/SPF 15; Idc Fps/SPF 30; Idc Fps/SPF 50; Ideal Moisture Dry Skin; Ideal Moisture Even Tone; Ideal Moisture Normal Skin; Ideal Moisture Sensitive Skin; Ideal Soleil SPF 50+; Idéal Soleil Spf30; Illuminating Daily Moisturizer; Illuminating Daily Moisturizer SPF 15; Illuminating Daily Moisturizer SPF 30; Iluma Brightening Hand CRème SPF 15; Image Essentials Daily Illuminating Moisturizer Broad Spectrum SPF 15 Sunscreen; Image MD Restoring Lip Enhancer SPF15; Immortelle Brightening Hand Care SPF 15; In An Instant Daily Tinted Moisturizer SPF 15; In Transit Skin Defence; Infinity; InstaReady Face Primer; InstaReady Face Primer SPF 18; Instant Bronzer Instantané 15; Instant Bronzer Instantané 15 Continuous Spray Sunscreen; Instant Bronzer Instantané 30 Continuous Spray Sunscreen; Instant Bronzer Instantané 30 Spray Gel Sunscreen; Instant Bronzer Instantané 4 Spray Gel Sunscreen; Instant Dry Mist SPF 50 Sunscreen Spray; Instant Miracle Illusion Smoother SPF 30 CVS; Intellishade Clear SPF 50; Intense Therapy Lip Balm Asian Pear; Intense Therapy Lip Balm Basil Lemon; Intense Therapy Lip Balm Black Cherry; Intense Therapy Lip Balm Cucumber Lime; Intense Therapy Lip Balm Mango and Mandarin; Intense Therapy Lip Balm Pineapple Mint; Intense Therapy Lip Balm SPF25, Shea Butter and Vitamin E; Intense Therapy Lip Balm Winter Melon; Intensite Creme Lustre Day SPF 30 US; Intensive 3-IN-1 Day Cream SPF 30; Intensive Day Defense SPF 15; Intervene Radiance Boosting Moisture SPF 15; Into Repair Dry Skin / Peaux Sèches; Into Repair Face SPF 30; Introstem Stem Cell Active Defense; Invisible Protect SPF 30 Cool Gel; Invisible Protect SPF 30 Sheer Spray; Invisible Protect SPF 50 Sheer Spray; Invisible Protect SPF 50+ Cool Gel; Invisible Uv Filters SPF 30; Invisiblur Perfecting Shield Broad Spectrum SPF 30 Pa+++; Iope Men Uv Defense Sun Protector; Iope Uv Defense Sun Protector; Iope Uv Defense Sun Protector EX; Iope Uv Men Defense Sun Protector EX; Ipkn City Proof Sun Mist; Ipsa Sun Protector Cream Broad Spectrum SPF 30; Isa Knox Anew Solaire Active Face and Body Protection Broad Spectrum SPF 50 Sunscreen; Isa Knox Anew Solaire Everyday Face Protection Broad Spectrum SPF 50 Sunscreen; Isa Knox Lxnew Platinum Sculpting Day Broad Spectrum SPF 30 Sunscreen; Island Sport Sunscreen Lotion SPF 30; Islander Spf6; Ivory Silk's Whitening Essence for Day Use; J0830014 Jason Sun Family Sunscreen SPF45; J0832014 Jason Sun Sport Sunscreen SPF45; J0832212 Jason Kids Sunscreen SPF45; J0832706 Jason Sun Facial Sunscreen SPF20; Jack Black All Jacked Up; Jack Black Intense Lip Therapy SPF25, Black Tea and Blackberry; Jack Black Intense Lip Therapy SPF25, Natural Mint and Shea Butter; Jack Black Intense Thearpy Lip Balm SPF25, Lemon and Shea Butter; Jack Black Intense Therapy Lip Balm Passion Fruit; Jack Black Intense Therapy Lip Balm SPF25, Grapefruit and Ginger; Jack Black Intense Therapy Lip Balm Vanilla Bourbon; Jack Black Intensive Therapy Lip Balm Mango Chili Lime; Jack Black Jacks Most Wanted; Jack Black Lavender Lip Balm 0.25oz; Jack Black Shave Essentials; Jack Black The Closer; Jack Black The Supreme Shave; Jack Black The Triple Play; Jafra Pro; Jafra Pro Face Lift SPF 20; Jafra Royal Defy Sample Kit; Jafra Royal Defy Travel Kit; Jafra Royal Jelly Revitalize; Jafra Royal Luna Bright Kit; Jafra Royal Men Sample Set; Jafra Sun body protector sunscreen broad spectrum SPF 50; Jafra Sun sunscreen broad spectrum SPF 50; Jafra Sun tinted face protector sunscreen broad spectrum 50; Jane Seymour Natural Advantage AM SPF 15 All Day Moisture with AHAs; Jane Seymour Oil-Free Tinted Moisturizer with SPF 55; Jason Sun Facial Sunscreen Broad Spectrum SPF20; Jason Sun Family Sunscreen Broad Spectrum SPF45; Jason Sun Kids Sunscreen Broad Spectrum SPF45; Jason Sun Sport Sunscreen Broad Spectrum SPF45; Jergens BB Body; Jergens BB Hand SPF 20; Jergens Bb Hand Perfecting Hand Cream With Sunscreen; Jergens Bb Protect Perfecting Body Cream With Sunscreen; Jergens Natural Glow Daily Moisturizer with Sunscreen SPF 20; Jergens Natural Glow Face Daily Moisturizer for Fair/Medium Skin; Jergens Natural Glow Face Daily Moisturizer for Medium/Tan Skin; Jergens Natural Glow Éclat Naturel Daily Facial Moisturizer With Sunscreen; Jergens Skin Firming Neck and Chest; Johnson's Ph5.5 Triple Effect Fluid SPF 15; Jouvalle Deep Nourishing Luminosity Day; Juice Box SPF 15 Broad Spectrum Lip Balm; Julep Lip Shade Sheer Lip Butter Almond Nude SPF 30; Julep Lip Shade Sheer Lip Butter Crimson SPF 30; Julep Lip Shade Sheer Lip Butter Currant SPF 30; Julep Lip Shade Sheer Lip Butter Dahlia SPF 30; Julep Lip Shade Sheer Lip Butter Lace SPF 30; Julep Lip Shade Sheer Lip Butter Macaroon SPF 30; Julep Lip Shade Sheer Lip Butter Petal SPF 30; Julep Lip Shade Sheer Lip Butter Plumeria SPF 30; Julep Lip Shade Sheer Lip Butter Poppy SPF 30; Julep Lip Shade Sheer Lip Butter Primrose SPF 30; Julep Lip Shade Sheer Lip Butter Raisin SPF 30; Jungle Juice SPF 15 Broad Spectrum Lip Balm; Jurlique SPF40 High Protection Sunscreen; Just Shine by Australian Gold Broad Spectrum SPF 50 Pink Glitter Sunscreen; Justice by Australian Gold Broad Spectrum SPF 50 Pink Glitter Sunscreen; KARA VITA Moisturizing Sunscreen with DNArescue; KINERASE SPF 30 Broad Spectrum UVA/UVB; KINESYS Broad Spectrum SPF 15 Alcohol-Free Sunscreen; KINESYS SPF 50 Funscreen Sunscreen for Kids; KISS MY FACE SPF-50 Face Factor; KISS MY FACE SUNSCREEN sun broad spectrum spf 30; Kara Vita SPF 29; Karanja Tree Sunshield SPF 30 Molton Brown Skin Care; Karavita Face Essential with SPF 15; Karavita Secret Code DNA Rescue Lip Care; Key Lime Pie Shake SPF 15 Broad Spectrum Lip Balm; Key West Tan SPF15; Keys Soulcare Daily Moisturizer Broad Spectrum Spf30 Sunscreen; Kid's Sun Screen; Kid's Sunscreen SPF 30 Lotion; Kids (80 Minutes) Water Resistant Lotion SPF 30; Kids Disappearing Color SPF50 Broad Spectrum Suncreen Green Apple Scented; Kids Disappearing Color SPF50 Broad Spectrum Suncreen Pink Strawberry Scented; Kids Enfants Splash 30 SPF/fps; Kids Enfants Splash 50 SPF/fps Sunscreen Spray Ecran Solaire En Vaporisateur; Kids Lotion SPF 30; Kids Pour Enfants Sunscreen Lotion Écran Solaire SPF/fps 60; Kids Powder-dri Pour Enfants Sunscreen Lotion Ecran Solaire SPF/fps 30; Kids SPF 30+ Spray-ON Sunscreen; Kids SPF 30+ Sunscreen; Kids SPF 45 Sunscreen Spray; Kids SPF 50; Kids SPF 50 Sunscreen; Kids SPF 50 Sunscreen Spray; Kids Spray; Kids Sprayable Sunscreen Lotion SPF 50; Kids Sunscreen; Kids Sunscreen Continuous Spray; Kids Sunscreen Continuous Spray SPF 50+; Kids Sunscreen Continuous Spray SPF/fps 60; Kids Sunscreen Lotion 50+; Kids Sunscreen Lotion SPF 100; Kids Sunscreen Lotion SPF 50+; Kids Sunscreen Lotion SPF/fps 60; Kids Sunscreen SPF 50; Kids Sunscreen SPF 50 Meijer; Kids Sunscreen SPF 70; Kids Sunscreen SPF 70 Meijer; Kids Sunscreen Spray SPF 100; Kids Sunscreen Stick Écran Solaire En Bâtonnet Pour Enfants SPF Fps 50; Kids Tear Free Sans Larmes Sunscreen Spray Écran Solaire En Vaporisateur Pour Enfants SPF Fps 30; Kids Tear Free Sans Larmes Sunscreen Spray Écran Solaire En Vaporisateur Pour Enfants SPF Fps 50; Kids Tear Free/ Sans Larmes Sunscreen Spray Écran Solaire En Vaporisateur Pour Enfants SPF Fps 60; Kids Uv Lotion; Kids Wet & Dry Sunscreen SPF 60; Kids'sunscreen Broad Spectrum SPF 60 Spray; Kids/enfants SPF/fps 50; Kiehls Activated Sun Protector Ultra Light Sunscreen SPF 50 for Body Sweat and Water Resistant; Kiehls Since 1851 Activated Sun Protector Broad Spectrum SPF 30 Sunscreen Water Resistant 80 MInutes; Kiehls Since 1851 Activated Sun Protector Broad Spectrum SPF 30 Sunscreen for Body; Kiehls Since 1851 Activated Sun Protector Broad Spectrum SPF 50 Sunscreen; Kiehls Since 1851 Activated Sun Protector Broad Spectrum SPF 50 Sunscreen Water Resistant 80 MInutes; Kiehls Since 1851 Activated Sun Protector For Body Broad Spectrum SPF 50 Sunscreen; Kiehls Since 1851 Activated Sun Protector for Face Broad Spectrum SPF 50 Sunscreen; Kiehls Since 1851 Broad Spectrum SPF 30 Sunscreen Powerful Wrinkle Reducing; Kiehls Since 1851 Butterstick Lip Treatment Broad Spectrum SPF 25 Sunscreen; Kiehls Since 1851 CrossTerrain UV Skin Protector Broad Spectrum SPF 50 Sunscreen Water Resistant 80 Minutes; Kiehls Since 1851 CrossTerrain UV Skin Protector SPF 50 Water and Swear Resistant Sunscreen; Kiehls Since 1851 Dermatologist Solutions Activated Sun Protector Sunscreen Broad Spectrum SPF 50 For Body; Kiehls Since 1851 Dermatologist Solutions Super Fluid Daily UV Defense Broad Spectrum SPF 50 plus Sunscreen Antipollution Lightweight Formula; Kiehls Since 1851 Dermatologist Solutions Super Fluid UV Defense Ultra Light Sunscreen SPF 50 Plus; Kiehls Since 1851 Dermatologist Solutions SuperFluid UV Defense Broad Spectrum SPF 50 Plus Sunscreen; Kiehls Since 1851 Facial Fuel Daily Energizing Moisture Treatment for Men Broad Spectrum SPF 20 Sunscreen; Kiehls Since 1851 Facial Fuel Energizing Moisture Treatment for Men Broad Spectrum SPF 15 Sunscreen; Kiehls Since 1851 Facial Fuel UV Guard Broad Spectrum SPF 50 Plus Sunscreen WR80; Kiehls Since 1851 Facial Fuel UV Guard Fast Absorbing Sunscreen for Men SPF 50 Plus; Kiehls Since 1851 Super Multi Corrective Broad Spectrum SPF 30 Sunscreen; Kiehls Since 1851 Ultra Facial Broad Spectrum SPF 30 Sunscreen; Kiehls Since 1851 Ultra Facial Moisturizer Broad Spectrum SPF 30 Sunscreen For All Skin Types; Kiehls Super Fluid Daily UV Defense SPF 50 plus Anti-Pollution Lightweight Formula for All Skin Types; Kiko Milano Bright Lift Day; Kiko Milano Bright Lift Matte; Kiko Milano Hydra Pro Day; Kiko Milano Sublime Youth Day; Kinerase SPF 15 Cream; Kinesys; Kinesys Broad Spectrum SPF 30 Alcohol-Free Performance Sunscreen - Fragrance Free; Kinesys Broad Spectrum SPF 30 Alcohol-Free Performance Sunscreen Fragrance-Free; Kinesys Broad Spectrum SPF 30 Alcohol-Free Sunscreen; Kinesys Broad Spectrum SPF 30 Alcohol-Free Sunscreen - Mango Scent; Kinesys Broad Spectrum SPF 30 Girl Alcohol-Free Sunscreen; Kinesys Broad Spectrum SPF 30 KiDS Alcohol-Free Sunscreen; Kinesys Broad Spectrum SPF 30 Kids Alcohol-Free Sunscreen; Kinesys Broad Spectrum SPF 30 girl Alcohol-Free Sunscreen; Kinesys Broad Spectrum SPF 50 Alcohol Free Sunscreen; Kiss My Face Bare Naked Broad Spectrum SPF 30; Kiss My Face Cool Sport SPF 50 Broad Spectrum; Kiss My Face Kids Defense Broad Spectrum SPF 50; Kiss My Face SPF 30 Face Stick; Kiss My Face SPF 30 Lip Balm; Kiss My Face SPF 30 Sport Lip Balm; Kiss My Face SPF 30 Sport Treatmint Lip Balm; Kiss My Face SPF-15 Dry; Kiss Therapy SPF 30 Blueberry Lime Lip Balm; Kiss Therapy SPF 30 Cucumber Melon Lip Balm; Kiss Therapy SPF 30 Grapefruit; Kiss Therapy SPF 30 Strawberry; Kiss Therapy SPF 30 Strawberry Mint Lip Balm; Kiss Therapy SPF 30 Superfruit; Kiss Therapy SPF 30 Watermelon Rosemary Lip Balm; Kiss Therapy Sunscreen SPF 30 Lip Balm; Klenskin Broad Spectrum SPF-50; Klenskin Broad Spectrum Sunscreen SPF-30; Klenskin Kids Showeron Sunscreen SPF-30; Klenskin SPF Lip Balm Broad Spectrum SPF-50 (all Flavors); Klenskin Showeron Sunscreen SPF-30; Klenskin Showeron Sunscreen Spa SPF-30; Klenskin Sunbar SPF-20; Klenskin Wash On Sunscreen SPF-30; Korres Quercetin and Oak Hydrating Antiageing and Antiwrinkle Day Broad Spectrum SPF15; Korres Suncare Yoghurt Nourishing Fluid Veil Face Sunscreen Broad Spectrum SPF 30; Korres Suncare Yoghurt Nourishing Milk Body Sunscreen Broad Spectrum SPF 44; Kroger Baby SPF 50; Kroger Baby SPF 50 Sunscreen; Kroger Baby Sunscreen SPF 70; Kroger Dry Oil Tanning Sunscreen Broad Spectrum SPF 15 Reef Friendly; Kroger Dry Touch Ultra Sheer SPF 100 Sunscreen; Kroger Dry Touch Ultra Sheer SPF 70 Sunscreen; Kroger Kids SPF 50 Sunscreen; Kroger Kids SPF 50 Sunstick; Kroger Kids Sunscreen SPF 70; Kroger Kids Tear Free Spf50; Kroger Kroger Kids Sunscreen SPF 50; Kroger Oil Free Sunscreen SPF 30; Kroger SPF 15; Kroger SPF 30 Sunscreen; Kroger SPF 50; Kroger Sheer Dry Touch Sunscreen SPF 55; Kroger Sheer Dry Touch Sunscreen SPF 70; Kroger Sheer dry-touch SFP 30; Kroger Sport SPF 15 Sunscreen; Kroger Sport SPF 30 Sunscreen; Kroger Sport SPF 50 Sunstick; Kroger Sport Sunscreen Broad Spectrum SPF 15; Kroger Sport Sunscreen SPF 30; Kroger Sport Sunscreen SPF 50; Kroger Sport sunscreen SPF 50; Kroger Sunscreen SPF 30; Kroger Tanning SPF 15 Sunscreen; L OCCITANE AU BRESIL - JENIPAPO Lip Gloss SPF 25 Broad Spectrum; L OCCITANE AU BRESIL - JENIPAPO Protecting Body Jelly Milk SPF 20 Broad Spectrum; L OCCITANE AU BRESIL - JENIPAPO Protecting Body SPF 15 Broad Spectrum; L OCCITANE FRESH BODY with Organic Verbena Extract SPF25 Broad Spectrum Sunscreen; L Occitane Cade Protective Moisturizing Fluid - for Men Broad Spectrum SPF 20 Sunscreen; L Occitane Immortelle Brightening Hand Care Broad Spectrum SPF 20 Sunscreen; L Occitane Immortelle Precious Protection Broad Spectrum SPF 20 Sunscreen; L Occitane Youthful Hand with Almond Tree Native Cells Broad Spectrum SPF 15 Sunscreen; LA Bodies Eclipse Sunscreen SPF 30; LA Bodies Eclipse Sunscreen SPF 50; LA MER THE REPARATIVE BODY SUN Broad Spectrum SPF 30; LA MER THE REPARATIVE FACE SUN Broad Spectrum SPF 30; LA Mer The Broad Spectrum SPF 50 Uv Protecting Fluid; LA Mer The Reparative Body Sun Lotion SPF 30; LA Mer The Reparative Face Sun Lotion SPF 30; LA Mer The SPF 18 Fluid; LA Mer The SPF 18 Fluid Tint; LA Mer The SPF 50 Uv Protecting Fluid; LAPOTHICELL Sunscreen; LASHappeal Eye Results with SPF 15; LAURA GELLER BEAUTY SUN KISSED COLOR LIP BALM TRIO BROAD SPECTRUM SPF 15 Pink - Coral - Berry; LAURA GELLER spackle Broad Spectrum SPF 30 protective under make-up primer; LBEL DEFENSE TOTAL broad spectrum SPF 50 plus sunscreen for face and body; LBEL DEFENSE TOTAL broad spectrum SPF 50plus sunscreen for face and body; LBEL Defense Total broad spectrum SPF 50 plus sunscreen for face and body; LBEL Defense Total broad spectrum SPF 50plus sunscreen for face and body; LBEL Dermo Clarite; LBEL Dermo Clarite Clarifying and Moisturizing with SPF 30; LBEL ESSENTIAL Deep moisturizing and oxygenating SPF 20 normal to dry skin; LBEL ESSENTIAL Deep moisturizing and oxygenating SPF 20 normal to oily skin; LBEL ESSENTIAL deep moisturizing and oxygenating SPF 20 normal to oily skin; LBEL ESSENTIAL moisturizing and oxygenating SPF 20 normal to dry skin; LBEL LEDERM 35 plus JOUR Facial against first signs of aging; LBEL LEDERM 35plus Jour SPF 15 Facial Treatment Against First Signs of Aging Day - Normal to Dry Skin; LBEL LEDERM 35plus Jour SPF 15 Facial Treatment Against First Signs of Aging Day - Oily Skin; LBEL LEDERM 45 plus JOUR Facial against noticeable signs of aging; LBEL LEDERM 45plus Jour SPF 15 Facial Treatment Against Noticeable Signs of Aging Day - Normal to Dry Skin; LBEL LEDERM 45plus Jour SPF 15 Facial Treatment Against Noticeable Signs of Aging Day - Oily Skin; LBEL LEDERM 55 plus JOUR Facial against advanced signs of aging; LBEL LEDERM 55plus Jour SPF 15 Facial Treatment Against Advanced Signs of Aging Day - All Skin Types; LBEL REGRESSION JOUR Protective Complex with SPF 15 Facial day normal to dry skin; LBel Paris Regression Jour; LBri Pure nNatural Oil Free Moisturizer; LEDERM DAY SUNSCREEN BROAD SPECTRUM SPF 15 day facial SPF 15 against noticeable signs of aging all skin types; LIDL Dry Tanning Oil Sunscreen SPF 15; LIDL Sport SPF 50; LIPSTICK QUEEN ENDLESS SUMMER Broad Spectrum SPF 15 Sunscreen; LOCCITANE ALMOND VELVET HANDS Youthful Hand Broad Spectrum SPF 15 Sunscreen; LOreal Paris Advanced Suncare Invisible Protect Clear Cool 30 Broad Spectrum SPF 30 Sunscreen; LOreal Paris Advanced Suncare Invisible Protect Clear Cool 50 Plus Broad Spectrum SPF 50 Plus Sunscreen; LOreal Paris Advanced Suncare Invisible Protect Dry 15 Sunscreen Broad Spectrum SPF 15; LOreal Paris Advanced Suncare Invisible Protect Dry 30 Broad Spectrum SPF 30 Sunscreen; LOreal Paris Advanced Suncare Invisible Protect Dry 50 Plus Broad Spectrum SPF 50 Plus Sunscreen; LOreal Paris Advanced Suncare Invisible Protect Sheer 30 Broad Spectrum SPF 30 Sunscreen; LOreal Paris Advanced Suncare Invisible Protect Sheer 50 Plus Broad Spectrum SPF 50 Plus; LOreal Paris Advanced Suncare Quick Dry Sheer Finish 30 Broad Spectrum SPF 30 Sunscreen; LOreal Paris Advanced Suncare Quick Dry Sheer Finish 50 Plus Broad Spectrum SPF 50 Plus Sunscreen; LOreal Paris Advanced Suncare Silky Sheer 30 Broad Spectrum SPF 30 Sunscreen; LOreal Paris Advanced Suncare Silky Sheer 50 Plus Broad Spectrum SPF 50 Plus Sunscreen; LOreal Paris Advanced Suncare Silky Sheer BB Face 50 Plus Broad Spectrum SPF 50 Plus Sunscreen; LOreal Paris Advanced Suncare Silky Sheer Face 30 Broad Spectrum SPF 30 Sunscreen; LOreal Paris Advanced Suncare Silky Sheer Face 50 Plus Broad Spectrum SPF 50 Plus Sunscreen; LOreal Paris Age Perfect Cell Renewal Day Moisturizer Broad Spectrum SPF 15 Sunscreen; LOreal Paris Age Perfect Glow Renewal Day Moisturizer Broad Spectrum SPF 30 Sunscreen; LOreal Paris Age Perfect Hydra Nutrition Instant Glow Daily Broad Spectrum SPF 30 Sunscreen; LOreal Paris AntiSagging Plus Even Tone Collagen Expert Moisturizer Broad Spectrum SPF 30 Sunscreen; LOreal Paris Ideal Moisture Dry Skin Broad Spectrum SPF 25 Sunscreen; LOreal Paris Ideal Moisture Even Skin Tone Moisturizer Broad Spectrum SPF 25 Sunscreen; LOreal Paris Ideal Moisture Normal Skin Broad Spectrum SPF 25 Sunscreen; LOreal Paris Ideal Moisture Sensitive Skin Broad Spectrum SPF 25 Sunscreen; LOreal Paris Men Expert Comfort Max Hydra Energetic After Shave Balm Broad Spectrum SPF 15 Sunscreen; LOreal Paris Men Expert Vita Lift Daily Moisturizer Sunscreen Broad Spectrum SPF 15; LOreal Paris Ombrelle SPF 30 Complete Water Resistant; LOreal Paris Revitalift Clinical Repair 10 SPF 20; LOreal Paris Revitalift Derm Intensives Invisible UV Fluid Broad Spectrum SPF 50 Sunscreen; LOreal Paris Revitalift Miracle Blur Broad Spectrum SPF 30 Sunscreen; LOreal Paris Revitalift Triple Power Broad Spectrum SPF 30 Sunscreen; LOreal Paris Skin Expert Revitalift Bright Reveal Brightening Day Moisturizer Broad Spectrum SPF 30 Sunscreen; LOreal Paris Skin Expertise Age Perfect Broad Spectrum SPF 20 Sunscreen BB; LOreal Paris Skin Expertise Revitalift Complete SPF 30 Day Antiwrinkle and Firming Moisturizer; LOreal Paris Skin Expertise Revitalift Deep-Set Wrinkle Repair Eye 24 Hour Eye Repair Duo SPF 15; LOreal Paris Sublime Sun 30 Crystal Clear Sunscreen Mist Broad Spectrum SPF 30 Water Resistant; LOreal Paris Sublime Sun Advanced Sunscreen SPF 30; LOreal Paris Sublime Sun Advanced Sunscreen SPF 30 Crystal Clear Mist; LOreal Paris Sublime Sun Advanced Sunscreen SPF 30 Hydra; LOreal Paris Sublime Sun Advanced Sunscreen SPF 50 Plus; LOreal Paris Sublime Sun Advanced Sunscreen SPF 50 Plus Crystal Clear Mist; LOreal Paris Sublime Sun Advanced Sunscreen SPF 50 Plus Hydra; LOreal Paris Sublime Sun Advanced Sunscreen SPF 50 Plus Silk Sunshield For Face; LOreal Paris Visible Lift CC Broad Spectrum SPF 20 Light Medium; LOreal Paris Visible lift Medium Deep CC Broad Spectrum SPF 20; LOreal Paris Wrinkle Expert Age Defense 55 Plus Broad Spectrum SPF 30 Sunscreen; LOreal Paris Youth Code Dark Spot Corrector Broad Spectrum SPF 30 Sunscreen; LOreal Paris Youth Code Day; LUACELL Illuminating White Label Sun Cream; LUMENE Sensitive Touch Daily Moisture SPF 15 Sunscreen; LUMIOR Daylight Moisturizer Broad Spectrum SPF 20; LUMIOR Empowered Day Moisturizer Broad Spectrum SPF 15; LUMIOR Exclusive Day Broad Spectrum SPF 20; LUMIOR Men Facial Moisturizer Broad Spectrum SPF 15; La Creme P; La Praire Switzerland Advanced Marine Biology Day SPF 20; La Prairie Cellular Radiance Emulsion; La Prairie Skin Caviar Essence In Foundation SPF 25 Golden Beige; La Prairie Skin Caviar Essence In Foundation SPF 25 Honey Beige; La Prairie Skin Caviar Essence In Foundation SPF 25 Pure Ivory; La Prairie Skin Caviar Essence In Foundation SPF 25 Satin Nude; La Prairie Skin Caviar Essence-In-Foundation SPF 25 Creme Peche; La Prairie Skin Caviar Essence-In-Foundation SPF 25 Peche; La Prairie Skin Caviar Essence-In-Foundation SPF 25 Porcelaine Blush; La Prairie Skin Caviar Essence-In-Foundation SPF 25 Tender Ivory; La Prairie Sun Protection Face; La Prairie Switzerland Anti-Aging Day Cream SPF 30; La Prairie Switzerland Anti-Wrinkle SunScreen SPF 30; La Prairie Switzerland Cellular Radiance Emulsion; La Prairie Switzerland Eye SPF 15; La Roche Posay Anthelios 30 Ultralight Sunscreen; La Roche Posay Anthelios 60 Ultralight Sunscreen; La Roche Posay Anthelios Sunscreen SPF 60 Ultra light; La Roche Posay Face Body Anthelios SPF 60 Melt In Milk Fast absorbing, velvety finish for all skin types with Cell-OC Shield XL; La Roche Posay Laboratoire Dermatologique Anthelios 30 Cooling Water Broad Spectrum SPF 30 Sunscreen; La Roche Posay Laboratoire Dermatologique Anthelios 45 Ultra Light Sunscreen Fluid Broad Spectrum SPF 45 Sunscreen Water Resistant 40 Minutes; La Roche Posay Laboratoire Dermatologique Anthelios 45 Ultra Light Sunscreen Fluid Water Resistant 40; La Roche Posay Laboratoire Dermatologique Anthelios 50 Daily Antiaging Primer with Sunscreen; La Roche Posay Laboratoire Dermatologique Anthelios 60 Breakout Free Oil Free Face Dry Touch Broad Spectrum SPF 60 Sunscreen Water Resistant 80 Minutes; La Roche Posay Laboratoire Dermatologique Anthelios 60 Face Light Fluid Sunscreen Broad Spectrum SPF 60 Water Resistant 80 Minutes; La Roche Posay Laboratoire Dermatologique Anthelios 60 Face Ultra Light Fluid Sunscreen Broad Spectrum SPF 60; La Roche Posay Laboratoire Dermatologique Anthelios 60 Face and Body Cooling Water Broad Spectrum SPF 60 Sunscreen Water Resistant 80 Minutes; La Roche Posay Laboratoire Dermatologique Anthelios 60 Melt In Sunscreen Milk Broad Spectrum SPF 60 Face and Body; La Roche Posay Laboratoire Dermatologique Anthelios 60 Melt In Sunscreen Milk Face and Body Broad Spectrum SPF 60 Water Resistant 80 Minutes; La Roche Posay Laboratoire Dermatologique Anthelios 60 Ultra Light Sunscreen Broad Spectrum SPF 60 Water Resistant 80 Minutes; La Roche Posay Laboratoire Dermatologique Anthelios 60 Ultra Light Sunscreen Fluid; La Roche Posay Laboratoire Dermatologique Anthelios AOX Daily Antioxidant Serum Broad Spectrum SPF 50 Sunscreen; La Roche Posay Laboratoire Dermatologique Anthelios Broad Spectrum SPF 100 Body and Face Melt In Milk Sunscreen Water Resistant 80 Minutes; La Roche Posay Laboratoire Dermatologique Anthelios Clear Skin Face Oil Free Dry Touch Broad Spectrum SPF 60 Sunscreen Water Resistant 80 Minutes; La Roche Posay Laboratoire Dermatologique Anthelios Dermo Kids Gentle Face and Body Broad Spectrum SPF 60 Sunscreen Water Resistant 80 Minutes; La Roche Posay Laboratoire Dermatologique Anthelios Kids Gentle Broad Spectrum SPF 50 Sunscreen for Face and Body Water Resistant 80 Minutes; La Roche Posay Laboratoire Dermatologique Anthelios SX Daily Moisturizing Sunscreen Broad Spectrum SPF 15; La Roche Posay Laboratoire Dermatologique Anthelios UV Correct Broad Spectrum SPF 70 Daily Sunscreen; La Roche Posay Laboratoire Dermatologique Hydraphase UV Intense Broad Spectrum SPF 20 Sunscreen; La Roche Posay Laboratoire Dermatologique Hydraphase UV Intense Moisturizer Broad Spectrum SPF 20 Sunscreen; La Roche Posay Laboratoire Dermatologique Pigmentclar Daily Dark Spot Correcting Moisturizer Broad Spectrum SPF 30 Sunscreen; La Roche Posay Laboratoire Dermatologique Sport Anthelios Activewear Broad Spectrum SPF 60 Sunscreen; La Roche Posay Laboratoire Dermatologique Toleriane Double Repair Moisturizer UV Broad Spectrum SPF 30 Sunscreen; La Roche Posay Redermic C UV Sunscreen; La Roche Posay Redermic plus UV Intensive Daily Antiwrinkle Firming Fill In Care; La Roche-Posay Laboratoire Dermatologique Anthelios 45 Ultra Light Sunscreen Fluid SPF 45; La Roche-Posay Laboratoire Dermatologique Anthelios 60 Ultra Light Sunscreen Fluid; La Roche-Posay Laboratoire Pharmaceutique Anthelios 60 Melt In Sunscreen Milk SPF 60; La Roche-Posay Laboratoire Pharmaceutique Anthelios 60 Melt In Sunscreen SPF 60; La Roche-Posay Laboratoire Pharmaceutique Rosaliac UV Fortifying Anti Redness Moisturizer SPF 15; Lab Series Day Rescue Defense Broad Spectrum SPF 35; Lab Series Day Rescue Defense Lotion SPF 35; Lab Series Skincare for Men Daily Moisture Defense Broad Spectrum SPF 15; Lab Series Skincare for Men Daily Moisture Defense Lotion SPF 15; Lacura Face Care Q10 Day SPF-15; Lait Auto-bronzant SPF 6; Lait De Soin Bronzant Mer Et Tropiques; Lait De Soin Solaire Corps; Lait De Soin Solaire Mer Et Tropiques Corps; Lait Ecran Extreme SPF 60; Lait Ecran SPF 35 Enfants; Lait Ecran Total Intolerances Solaires SPF 30; Lait Ecran Total SPF 25; Lait Ecran Total Special Enfants SPF 25; Lait Protecteur Fps 60; Lait Protecteur Hydro-satinant Spf15; Lait Protecteur SPF 15; Lait Protecteur SPF 8; Lait Solaire Corps Fps 50+; Lait Solaire Corps Lotion Protectrice Corps Fps 30; Lait Solaire Corps Lotion Protectrice Corps Fps 50 Plus; Lait Solaire Corps Protection Solaire Fps 15; Lait Solaire Corps Sunscreen Lotion Body; Lait Solaire Ecran Total SPF 25; Lait Solaire Haute Protection SPF 15; Lait Solaire Protection Modérée Corps; Lait Solaire Protection Élevée Corps; Lait Écran Total SPF 25; Laline Rich Hand Cream; Lancome Absolue Precious Cells Advanced Regenerating and Reconstructing Cream SPF 15 Sunscreen; Lancome Absolue Revitalizing Brightening Velvet SPF 15 with Grand Rose Extracts; Lancome Bienfait UV SPF 50 Plus Super Fluid Facial Sunscreen; Lancome Creme Ecran Total SPF 25; Lancome Lait Ecran Total Hydro-satin.spf25; Lancome Paris Absolue Hand Premium Bx Broad Spectrum SPF 15 Sunscreen Absolute Anti Age Spot Unifying And Replenishing Treatment; Lancome Paris Absolue Precious Cells Broad Spectrum SPF 15 Sunscreen Intense Revitalizing; Lancome Paris Absolue Precious Cells Sunscreen Repairing and Recovering Day; Lancome Paris Absolue Premium Bx Absolute Replenishing SPF 15; Lancome Paris Absolue Premium Bx Broad Spectrum SPF 15 Sunscreen Absolute Replenishing; Lancome Paris Absolue Premium Bx Replenishing and Rejuvenating Day; Lancome Paris Absolue Revitalizing Brightening Velvet Sunscreen Broad Spectrum SPF 15; Lancome Paris Bienfait MultiVital Broad Spectrum SPF 30 Sunscreen; Lancome Paris Bienfait MultiVital Broad Spectrum SPF 30 Sunscreen 24 Hour Moisturization Antioxidant and Vitamin Enriched; Lancome Paris Bienfait MultiVital Eye Broad Spectrum SPF 30 Sunscreen; Lancome Paris Bienfait UV 50 Plus Broad Spectrum SPF 50 Plus Water Resistant 80 Minutes Super Fluid Facial Sunscreen; Lancome Paris Flash Bronzer AntiAge Tinted AntiAge Self Tanning Face SPF 15; Lancome Paris High Resolution Refill 3X Triple Action Renewal Anti Wrinkle Broad Spectrum SPF 15 Sunscreen; Lancome Paris Renergie Lift Multi Action All; Lancome Paris Renergie Lift Multi Action Broad Spectrum SPF 15 Sunscreen Lifting and Firming for Dry Skin; Lancome Paris Renergie Lift MultiAction Dry; Lancome Paris Renergie Lift MultiAction Lifting and Firming For All Skin Types Broad Spectrum SPF 15 Sunscreen; Lancome Paris Renergie Lift MultiAction Sunscreen Broad Spectrum SPF 15 Lift and Firming Face and Neck All Skin Types; Lancome Paris Renergie Lift MultiAction Ultra Firming and Dark Spot Correcting Moisturizer Broad Spectrum SPF 30 Sunscreen; Lancome Paris Renergie Lift MultiAction Ultra Lifting Firming Dark Spot Correcting Broad Spectrum SPF 30 Sunscreen; Lancome Paris Renergie Lift Volumetry Volumetric Lifting and Reshaping SPF 15 Normal Combination Skin; Lancome Paris Renergie Lift Volumetry Volumetric Lifting and Reshaping SPF 15 Normal to Dry Skin; Lancome Paris UV Expert Aquagel Defense 50 Plus Sunscreen Broad Spectrum SPF 50 Plus Primer and Moisturizer; Lancome Paris UV Expert Aquagel Defense 50 Plus Sunscreen Broad Spectrum SPF 50 Plus Primer and Moisturizer with Antioxidant Vitamin E; Lancome Paris Visionnaire Broad Spectrum SPF 20 Sunscreen Advanced Multi Correcting All Skin Types; Lancome UV Expert Aquagel Defense 50 Broad Spectrum SPF 50 with Antioxidant Vitamin E; Lancome-creme Autobronzante Visage Crm; Lancôme Bienfait Total Uv SPF 15; Land Shark Pups SPF 50; Land Shark SPF 15; Land Shark SPF 20; Land Shark SPF 30; Land Shark SPF 50; Land Shark SPF 50 Sport; Laneige Hydro UV Defense; Laneige Triple Sunscreen; Lanocreme Hydrating Day Spf15; Large Defense Uv; Large Écran Uv Ultra Uv Sunscreen; Laser Block 100 sunblock; Lasting Results Moisturizer; Laszlo Blue Cream/crème SPF 30; Laura Geller Beauty Tuscan Sun Spackle SPF 30 Protective Under Make-UP Primer Deep; Laura Geller Beauty Tuscan Sun Spackle SPF 30 Protective Under Make-UP Primer Fair; Laura Geller Beauty Tuscan Sun Spackle SPF 30 Protective Under Make-UP Primer Medium; Laura Geller Beauty Tuscan Sun Spackle SPF 30 Protective Under Make-UP Primer Porcelain; Laura Geller Beauty Tuscan Sun Spackle SPF 30 Protective Under Make-UP Primer Tan; Laura Mercier Flawless Skin Mega Moisture Creme Broad Spectrum SPF 15 Sunscreen For Normal/Dry Skin; Laura Mercier Flawless Skin Mega Moisture Creme Broad Spectrum SPF 15 Sunscreen for Normal/Dry Skin; Laura Mercier Flawless Skin Moisture Creme Broad Spectrum SPF 15 Sunscreen for Normal Combination Skin; Laura Mercier Flawless Skin Moisture Creme Broad Spectrum SPF 15 Sunscreen for Normal/Combination Skin Flawless skin Mega Moisturizer SPF-15 NORMAL COMBINATION; Laura Mercier Flawless Skin Repair Day Broad Spectrum SPF 15 Sunscreen; Laura Mercier Flawless Skin Repair Day Creme Broad Spectrum SPF 15 Sunscreen; Laura Mercier Flawless Skin Repair Oil Free Day Broad Spectrum SPF 15; Laura Mercier Flawless Skin Repair Oil Free Day Broad Spectrum SPF 15 Sunscreen; Laura Mercier Flawless Skin Repair Oil-Free Day Broad Spectrum SPF 15; Laura Mercier Foundation Primer Protect Broad Spectrum SPF 30 Sunscreen; Laura Mercier Foundation Primer Protect SPF 30; Laura Mercier Pure Canvas Primer Protecting Broad Spectrum SPF 30 Sunscreen; Laura Mercier Tinted Moisturizer - Illuminating Broad Spectrum SPF 20 Sunscreen - Bare Radiance; Laura Mercier Tinted Moisturizer - Illuminating Broad Spectrum SPF 20 Sunscreen - Bronze Radiance; Laura Mercier Tinted Moisturizer - Illuminating Broad Spectrum SPF 20 Sunscreen - Warm Radiance; Laura Mercier Tinted Moisturizer Broad Spectrum SPF 20 Sunscreen 1C1 Cameo; Laura Mercier Tinted Moisturizer Broad Spectrum SPF 20 Sunscreen 2C1 Blush; Laura Mercier Tinted Moisturizer Broad Spectrum SPF 20 Sunscreen 2W1 Bisque; Laura Mercier Tinted Moisturizer Broad Spectrum SPF 20 Sunscreen 2W3 Natural; Laura Mercier Tinted Moisturizer Broad Spectrum SPF 20 Sunscreen 3W1 Ochre; Laura Mercier Tinted Moisturizer Broad Spectrum SPF 20 Sunscreen 4W1 Tawny; Laura Mercier Tinted Moisturizer Broad Spectrum SPF 20 Sunscreen 5C1 Caramel; Laura Mercier Tinted Moisturizer Broad Spectrum SPF 20 Sunscreen 6W1 Mocha; Laura Mercier Tinted Moisturizer Broad Spectrum SPF 30 Sunscreen - 0N1 Petal; Laura Mercier Tinted Moisturizer Broad Spectrum SPF 30 Sunscreen - 0W1 Pearl; Laura Mercier Tinted Moisturizer Broad Spectrum SPF 30 Sunscreen - 1C1 Cameo; Laura Mercier Tinted Moisturizer Broad Spectrum SPF 30 Sunscreen - 1N1 Vanille; Laura Mercier Tinted Moisturizer Broad Spectrum SPF 30 Sunscreen - 1W1 Porcelain; Laura Mercier Tinted Moisturizer Broad Spectrum SPF 30 Sunscreen - 2C1 Blush; Laura Mercier Tinted Moisturizer Broad Spectrum SPF 30 Sunscreen - 2N1 Nude; Laura Mercier Tinted Moisturizer Broad Spectrum SPF 30 Sunscreen - 2W1 Natural; Laura Mercier Tinted Moisturizer Broad Spectrum SPF 30 Sunscreen - 3C1 Fawn; Laura Mercier Tinted Moisturizer Broad Spectrum SPF 30 Sunscreen - 3N1 Sand; Laura Mercier Tinted Moisturizer Broad Spectrum SPF 30 Sunscreen - 3W1 Bisque; Laura Mercier Tinted Moisturizer Broad Spectrum SPF 30 Sunscreen - 4C1 Almond; Laura Mercier Tinted Moisturizer Broad Spectrum SPF 30 Sunscreen - 4N1 Chai; Laura Mercier Tinted Moisturizer Broad Spectrum SPF 30 Sunscreen - 4W1 Tawny; Laura Mercier Tinted Moisturizer Broad Spectrum SPF 30 Sunscreen - 5C1 Nutmeg; Laura Mercier Tinted Moisturizer Broad Spectrum SPF 30 Sunscreen - 5N1 Walnut; Laura Mercier Tinted Moisturizer Broad Spectrum SPF 30 Sunscreen - 5W1 Tan; Laura Mercier Tinted Moisturizer Broad Spectrum SPF 30 Sunscreen - 6C1 Cacao; Laura Mercier Tinted Moisturizer Broad Spectrum SPF 30 Sunscreen - 6N1 Chestnut; Laura Mercier Tinted Moisturizer Broad Spectrum SPF 30 Sunscreen - 6W1 Mocha; Laura Mercier Tinted Moisturizer Creme Compact Broad Spectrum SPF 20 Sunscreen CAMEO; Laura Mercier Tinted Moisturizer Creme Compact Broad Spectrum SPF 20 Sunscreen NATURAL; Laura Mercier Tinted Moisturizer Creme Compact Broad Spectrum SPF 20 Sunscreen OCHRE; Laura Mercier Tinted Moisturizer Illuminating Broad Spectrum SPF 20 Sunscreen 1N1 Bare Radiance; Laura Mercier Tinted Moisturizer Illuminating Broad Spectrum SPF 20 Sunscreen 2N1 Natural Radiance; Laura Mercier Tinted Moisturizer Illuminating Broad Spectrum SPF 20 Sunscreen 3N1 Warm Radiance; Laura Mercier Tinted Moisturizer Illuminating Broad Spectrum SPF 20 Sunscreen 4N1 Golden Radiance; Laura Mercier Tinted Moisturizer Illuminating Broad Spectrum SPF 20 Sunscreen 5N1 Bronze Radiance; Laura Mercier Tinted Moisturizer Light Revealer Natural Skin Illuminator Broad Spectrum SPF 25 Sunscreen 0N1 Petal; Laura Mercier Tinted Moisturizer Light Revealer Natural Skin Illuminator Broad Spectrum SPF 25 Sunscreen 0W1 Pearl; Laura Mercier Tinted Moisturizer Light Revealer Natural Skin Illuminator Broad Spectrum SPF 25 Sunscreen 1C0 Cameo; Laura Mercier Tinted Moisturizer Light Revealer Natural Skin Illuminator Broad Spectrum SPF 25 Sunscreen 1W1 Porcelain; Laura Mercier Tinted Moisturizer Light Revealer Natural Skin Illuminator Broad Spectrum SPF 25 Sunscreen 2N1 Nude; Laura Mercier Tinted Moisturizer Light Revealer Natural Skin Illuminator Broad Spectrum SPF 25 Sunscreen 2W1 Natural; Laura Mercier Tinted Moisturizer Light Revealer Natural Skin Illuminator Broad Spectrum SPF 25 Sunscreen 3N1 Sand; Laura Mercier Tinted Moisturizer Light Revealer Natural Skin Illuminator Broad Spectrum SPF 25 Sunscreen 3W1 Bisque; Laura Mercier Tinted Moisturizer Light Revealer Natural Skin Illuminator Broad Spectrum SPF 25 Sunscreen 4C1 Almond; Laura Mercier Tinted Moisturizer Light Revealer Natural Skin Illuminator Broad Spectrum SPF 25 Sunscreen 4W1 Tawny; Laura Mercier Tinted Moisturizer Light Revealer Natural Skin Illuminator Broad Spectrum SPF 25 Sunscreen 5N1 Walnut; Laura Mercier Tinted Moisturizer Light Revealer Natural Skin Illuminator Broad Spectrum SPF 25 Sunscreen 5W1 Tan; Laura Mercier Tinted Moisturizer Light Revealer Natural Skin Illuminator Broad Spectrum SPF 25 Sunscreen 6C1 Cacao; Laura Mercier Tinted Moisturizer Light Revealer Natural Skin Illuminator Broad Spectrum SPF 25 Sunscreen 6N1 Mocha; Laura Mercier Tinted Moisturizer Natural Skin Perfector Broad Spectrum SPF 30 Sunscreen 0N1 Petal; Laura Mercier Tinted Moisturizer Natural Skin Perfector Broad Spectrum SPF 30 Sunscreen 0W1 Pearl; Laura Mercier Tinted Moisturizer Natural Skin Perfector Broad Spectrum SPF 30 Sunscreen 1C0 Cameo; Laura Mercier Tinted Moisturizer Natural Skin Perfector Broad Spectrum SPF 30 Sunscreen 1N2 Vanille; Laura Mercier Tinted Moisturizer Natural Skin Perfector Broad Spectrum SPF 30 Sunscreen 1W1 Porcelain; Laura Mercier Tinted Moisturizer Natural Skin Perfector Broad Spectrum SPF 30 Sunscreen 2C1 Blush; Laura Mercier Tinted Moisturizer Natural Skin Perfector Broad Spectrum SPF 30 Sunscreen 2N1 Nude; Laura Mercier Tinted Moisturizer Natural Skin Perfector Broad Spectrum SPF 30 Sunscreen 2W1 Natural; Laura Mercier Tinted Moisturizer Natural Skin Perfector Broad Spectrum SPF 30 Sunscreen 3C1 Fawn; Laura Mercier Tinted Moisturizer Natural Skin Perfector Broad Spectrum SPF 30 Sunscreen 3N1 Sand; Laura Mercier Tinted Moisturizer Natural Skin Perfector Broad Spectrum SPF 30 Sunscreen 3W1 Bisque; Laura Mercier Tinted Moisturizer Natural Skin Perfector Broad Spectrum SPF 30 Sunscreen 4C1 Almond; Laura Mercier Tinted Moisturizer Natural Skin Perfector Broad Spectrum SPF 30 Sunscreen 4N1 Wheat; Laura Mercier Tinted Moisturizer Natural Skin Perfector Broad Spectrum SPF 30 Sunscreen 4W1 Tawny; Laura Mercier Tinted Moisturizer Natural Skin Perfector Broad Spectrum SPF 30 Sunscreen 5C1 Nutmeg; Laura Mercier Tinted Moisturizer Natural Skin Perfector Broad Spectrum SPF 30 Sunscreen 5N1 Walnut; Laura Mercier Tinted Moisturizer Natural Skin Perfector Broad Spectrum SPF 30 Sunscreen 5W1 Tan; Laura Mercier Tinted Moisturizer Natural Skin Perfector Broad Spectrum SPF 30 Sunscreen 6C1 Cacao; Laura Mercier Tinted Moisturizer Natural Skin Perfector Broad Spectrum SPF 30 Sunscreen 6N1 Mocha; Laura Mercier Tinted Moisturizer Natural Skin Perfector Broad Spectrum SPF 30 Sunscreen 6W1 Ganache; Laura mercier Moisturizer cream with SPF 15; Lava Lava Lip Balm Broad Spectrum SPF 30; Lavelier Divine Day Defense Broad Spectrum SPF 30; Lbel Dermo Clarite Brightening and Moisturizing Facial SPF 30; Lbel Dermo Clarite Locion Facial Iluminadora Hidratante Con Fps 30 Brightening and Moisturizing Facial SPF 30; Lbel Lederm Day Sunscreen Broad Spectrum SPF 15; Lbio Block Spf50; Leader Baby SPF 50; Leader Baby Sunscreen SPF 50; Leader GP SPF 15 CS; Leader General Protection SPF 30; Leader General Protection SPF 30 Sunscreen; Leader General Protection SPF 70; Leader General Protection Sunscreen SPF 30; Leader General Protection Sunscreen SPF 50; Leader Kids SPF 50 Sunscreen; Leader Kids SPF 90; Leader Sport SPF 30; Leader Sport SPF 50; Leader Sport Sunscreen SPF 50; Leader Sport Sunscreen SPF 50 Moisturizing; Leader Ultra Sheer SPF 100 Sunscreen; Leaders Sunbuddy All Over Sun; Leaders Sunbuddy Daily Moisture Sunscreen; Lee Hands Free Lip-balm SPF 30; Legend Age Whitening Sunscreen; Lemonade SPF 15 Broad Spectrum Lip Balm; Life Brand Kids Sunscreen Clear Continuous Spray SPF/fps 60; Life Brand Kids Sunscreen Lotion SPF 50+; Life Brand Shimmering Lotion Scintillante Oil Free Sunscreen Écran Solaire Sans Huile 15 SPF/fps Protection Uva/uvb Broad Spectrum À Large Spectre; Life Brand Sport Sunscreen Broad Spectrum Spray; Life Brand Sport Sunscreen Continuous Spray No Pumping Needed; Life Brand Sport Sunscreen Continuous Spray SPF 50+; Life Brand Sunblock 30 SPF - Lot Top; Life Brand Sunscreen Continuous Spray Coconut Lime Scented SPF/fps 30; Life Brand Sunscreen Continuous Spray No Pumping Needed SPF/fps 85; Life Brand Sunscreen Continuous Spray Pomegranate Scented SPF/fps 30; Life Brand Sunscreen Face Lotion SPF 50+; Life Brand Sunscreen Lotion SPF 30; Life Brand Sunscreen Lotion SPF 50+; Life Brand Sunscreen Lotion Écran Solaire 30 SPF/fps; Life Brand Sunscreen Lotion Écran Solaire 45 SPF/fps; Life Brand Sunthera 3 SPF/fps 15; Life Brand Sunthera 3 SPF/fps 30 Sun Protection Lotion Face; Life Brand Sunthera 3 SPF/fps 60 Sun Protection Lotion Face; Life Brand Sunthera3 Gradual Sunless Colour Moisturizer SPF/fps 15; Life Brand Sunthera3 Sport SPF/fps 60 Sun Protection Lotion Lotion Écran Solaire; Life Extension Shade Factor SPF30; Life Extension Sun Protection SPF 30; Lifecell BROAD SPECTRUM SPF 50 BB SHEER; Lift & Firm Y-zone CRème Jour Haute Fermeté Fps 20; Lift Therapy Force Lift Day 20 SPF; Lift-me day cream with Anti-Ageing and Regenerative Silicium - UV Filters; Liftactiv Cxp Uv SPF 20; Liftactiv Specialist Fps/SPF 30; Liftactiv Supreme; Liftactiv Uv; Liftactivpro SPF 15; Light Care Aqua Sun; Light Day Sunscreen Broad Spectrum SPF 37; Light Day Sunscreen SPF 37; Light Shade SPF 50 Derma Defense; Light and Delicate Sunscreen Spf15; Light and Delicate Sunscreen Spf30; Lightening High Sun Protection Cream; Lightweight Miracle Moisturiser Sunscreen Broad Spectrum SPF 20; Limitless Long Wear Lip Gloss SPF 15; Line Interception Power Duo Day Cream Suncreen Broad Spectrum SPF 30; Line Interception Power Duo Day Cream Sunscreen Broad Spectrum SPF 30; Linea Jose Ignacio For Face Sunscreen Broad Spectrum SPF 30; Linea Jose Ignacio Sunscreen Broad Spectrum SPF30; Lionesse Opal Sheer Shield SPF 30; Lip Balm; Lip Balm Mint Cvs; Lip Balm SPF 15; Lip Balm SPF 30; Lip Balm SPF15 Sunscreen SPF30 Combo; Lip Balm Spf30 Cvs; Lip Balm and Sunstick; Lip Care SPF 20; Lip Enhancer Gloss Sunscreen Broad Spectrum Spf15; Lip Gloss; Lip Massage; Lip Protector SPF 15 Sunscreen; Lip Saver Sunscreen SPF 30; Lip Screen Broad Spectrum SPF 40; Lip Screen Sheer SPF 30; Lip Treatment; Lip and Cheek Treat Broad Spectrum SPF 40 Supergoop; LipLux Original SPF 30 Broad Spectrum; Lipidol; Liplux SPF 30 Lip Balm; Liplux Vanilla Peppermint SPF 15 Broad Spectrum; Liquid Spray Sunscreen; Loccitane En Provence Immortelle Divine Light Spf20; Loccitane En Provence Immortelle Precieuse Light Spf20; Loccitane En Provence Light Comforting SPF 15; Loccitane Immortelle Divine Spf20; Loccitane Immortelle Precious Spf20; Loccitane Pivoine Sublime With Peony Broad Spectrum SPF 25; Loccitane Pivoine Sublime With Peony Broad Spectrum SPF 25 Sunscreen Rose Amber; Loccitane Pivoine Sublime With Peony Broad Spectrum SPF 25 Sunscreen Rose Nude; Loccitane Pivoine Sublime With Peony Broad Spectrum SPF 25 Sunscreen Rose Plum; Long-Lasting Oil-Free Moisturizer; Lorac Foundation Deep SPF20; Lorac Foundation Fair SPF20; Lorac Foundation Golden Light SPF20; Lorac Foundation Golden Tan SPF20; Lorac Foundation Light Beige SPF20; Lorac Foundation Light SPF20; Lorac Foundation Medium Beige SPF20; Lorac Foundation Medium SPF20; Lorac Foundation Medium Tan SPF20; Lorac Foundation Tan SPF20; Loreal Paris Age Perfect Rosy Tone SPF 30 Renew and revive healthy tone Visibly younger-looking skin; Loreal Paris Antispot Revitalift Triple Power Intensive Antiaging Day With Proxylane SPF 20; Loreal Paris Revitalift Anti Wrinkle Firming Moisturizer SPF 25; Loreal Paris Revitalift Miracle Blur Instant Skin Smoother Original Opiblur Technology SPF 30; Lotion SPF 15; Lotion SPF 30; Lotion SPF 45; Lotion Solaire Anti-âge; Lotion Solaire Corps Fps 30; Lotion Sport; Lotion Vapo Fps 15; Lotion Vapo SPF 30; Lotion Écran Solaire 30; Lotion Écran Solaire Universel Fps 15 Avec Dioxyde De Titane; Lotion Écran Solaire Universel Fps 30 Avec Dioxyde De Titane; Lovely Me EX 32900042; Lovely Me:ex Bb Cream SPF 20/pa++; Lubriderm; Lubriderm Daily Moisture Sunscreen Broad Spectrum SPF15; Lubriderm Daily Moisture with Sunscreen Broad Spectrum SPF15; Lubriderm Daily Moisturizer with Sunscreen SPF15; Lubriderm Lotion Daily Uv Defense SPF 15; Lubriderm Uv Moisture; Lumasol; Lumene Bright Now Visible Repair Day SPF 15 Sunscreen Broad Spectrum; Lumene Bright Now Vitamin C Day SPF 15 Sunscreen Broad Spectrum; Lumene Bright Now Vitamin C Moisturizer; Lumene Complete Rewind Recovery Day SPF 15 Sunscreen Broad Spectrum; Lumene Excellent Future Age-Defying and Repairing Day SPF 15 Sunscreen; Lumene Premium Beauty Rejuvenating Day; Lumene Sisu Moisture Remedy Day Sunscreen Broad Spectrum SPF 20; Lumene Time Freeze Firming Day SPF 15; Lumene Time Freeze Firming Day SPF 15 Sunscreen Broad Spectrum; Lumene Valo Day Moisturizer SPF 15 Sunscreen Broad Spectrum SPF 15; Lumene Vitamin C Pure Radiance Day; Lumiactiv; Lumiere de Vie Daily Brightening Broad Spectrum SPF 50; Luminous Intensive Decollote Treatment SPF 20; Luminous Intensive Décolleté Cream Treatment SPF 20; Luminous Intensive Hand Cream Treatment SPF 25; Luminous Intensive Hand Treatment SPF 25; Lumipearl Perfect and Protect Day Broad Spectrum SPF 25 Sunscreen; Lustra-AF; Lycogel Breathable Balm; LypSyl Honeyberry; LypSyl Vanilla Plum Intense Protection; Lypsyl Extreme; M.A.C. Studio Moisture Fix SPF 15; M.A.c Prep + Prime Bb Beauty Balm SPF 50; M.A.c Prep + Prime Face Protect Lotion SPF 50; M.A.c Suntints SPF 20 Liquid Lip Balm; M.A.c Tendertone Lip Balm SPF 12; MAMONDE Daily Sunscreen; MAMONDE UV Fluid; MD Acne Oil Free SPF 30 Sunscreen; MDSOLARSCIENCES Daily Anti Aging Moisturizer SPF 30; MDSolarSciences SPF 40 Quick Dry; MDSolarSciences SPF40 No Touch Body; MEIJER Sport SPF 30; MEN Face Shield SPF 18; MIAMI MD SUN SHIELD Broad Spectrum SPF 40; MISSHA All Around Safe Block Daily Sun For Men SPF50; MISSHA All Around Safe Block Fresh Sun SPF50; MK Men Advanced Facial Hydrator Sunscreen SPF 30; MKMen Advanced Facial Hydrator Sunscreen SPF 30; MKMen Moisturizer Sunscreen Broad Spectrum SPF 25; MKRS Broad Spectrum SPF50; MOROCCAN Lightweight Hydrating Sun Protection SPF 30; MURAD - ACNE CONTROL - oil AND PORE CONTROL MATTIFIER SPF-45; Mac Prep and Prime Face Protect Broad Spectrum SPF 50; Mac Tendertone Lip Balm SPF 12; Macroantioxidant Sun Protection; Maestro UV skin defense primer Sunscreen Broad Spectrum SPF 50; Makeup Setting Spray Pulvérisation Pour Fixer Le Maquillage; Makeup Setting with Green Tea Aloe SPF 30 Broad Spectrum; Malin and Goetz SPF 30 Face Moisturizer; Mango Bay SPF 15; Mango Bay SPF 30; Mango Bay SPF 30 Gallon; Mango Bay SPF 50; Mango Bay SPF 50 Kids; Mango Bay SPF 50 Sport; Mango Butter Lipstick; Mango Butter Lipstick SPF 10; Maple Treatment Hand Cream SPF 20; Maracuja Miracle Foundation 12-Hour Foundation Broad Spectrum SPF 15 Sunscreen Beige; Maracuja Miracle Foundation 12-Hour Foundation Broad Spectrum SPF 15 Sunscreen Deep; Maracuja Miracle Foundation 12-Hour Foundation Broad Spectrum SPF 15 Sunscreen Fair; Maracuja Miracle Foundation 12-Hour Foundation Broad Spectrum SPF 15 Sunscreen Ivory; Maracuja Miracle Foundation 12-Hour Foundation Broad Spectrum SPF 15 Sunscreen Light; Maracuja Miracle Foundation 12-Hour Foundation Broad Spectrum SPF 15 Sunscreen Light-Medium; Maracuja Miracle Foundation 12-Hour Foundation Broad Spectrum SPF 15 Sunscreen Medium; Maracuja Miracle Foundation 12-Hour Foundation Broad Spectrum SPF 15 Sunscreen Medium-Tan; Maracuja Miracle Foundation 12-Hour Foundation Broad Spectrum SPF 15 Sunscreen Tan; Maracuja Miracle Foundation 12-Hour Foundation Broad Spectrum SPF 15 Sunscreen Warm Beige; Marc Jacobs Lip Lock Moisture BalmSPF 18 SPF 18; Marcelle City High Protection Urban Day Cream Soin Jour Haute Protection Urbaine SPF 30 Fps; Marcelle Newage Precision Anti-wrinkle Day Cream SPF 30; Mario Badescu Aloe SPF; Mario Badescu Collagen SPF 15; Mario Badescu SPF 17; Mario Badescu SPF 30; Mario Badescu Skin Care Oil Free Moisturizer Broad Spectrum SPF 30 Sunscreen; Mario Badescu The Moisture Magnet SPF 15; Market Basket Continuous Sunscreen General Protection SPF 70; Market Basket Kids SPF 50 Sunscreen; Market Basket Moisturizing Sunscreen Broad Spectrum SPF 30; Market Basket Moisturizing Sunscreen Broad Spectrum SPF 50; Mary Kay Botanical Effects SPF/fps 30; Mary Kay Day Solution SPF 15; Mary Kay Foundation Primer; Mary Kay Foundation Primer SPF 15; Mary Kay Foundation Primer with SPF 15; Mary Kay SPF 30 Sunscreen; Mary Kay Sun Protector SPF 35; Mary Kay SunCare SPF 30 Sunscreen; Mary Kay Suncare Lip Protector Sunscreen Broad Spectrum SPF 15; Mary Kay Suncare SPF 50 Sunscreen; Mary Kay Suncare Sunscreen Broad Spectrum SPF 50; Mary Kay Suncare Sunscreen SPF 30; Mary Kay Suncare Sunscreen SPF 50; Mary Kay TimeWise Age Fighting Moisturizer SPF 30; Mary Kay TimeWise Age Minimize 3D Day Cream SPF 30 Broad Spectrum Sunscreen (Combo to Oily Skin); Mary Kay TimeWise Age Minimize 3D Day Cream SPF 30 Broad Spectrum Sunscreen (Normal to Dry Skin); Mary Kay TimeWise Body Hand and Decolette Cream SPF 15; Mary Kay TimeWise Day Solution SPF 30 Broad Spectrum; Mary Kay TimeWise Day Solution SPF 35; Mary Kay TimeWise Miracle Set 3D Sampler (Combo to Oily Skin); Mary Kay TimeWise Miracle Set 3D Sampler (Normal to Dry Skin); Mary Kay TimeWise Miracle Set 3D The Go Set (Combo to Oily Skin); Mary Kay TimeWise Miracle Set 3D The Go Set (Normal to Dry Skin); Mary Kay TimeWise Repair Volu-Firm Day Cream Broad Spectrum SPF 30; Mary Kay TimeWise Repair Volu-Firm Sampler Set; Mary Kay TimeWise Repair Volu-Firm Set; Mary Kay TimeWise Repair Volu-Firm The Go Set; Mary Kay TimeWise Repair VoluFirm Day Cream SPF 30; Mary Kay Timewise Day Solution With Sunscreen SPF 15; Matrix Support With Sunscreen Broad Spectrum SPF 30; Matte Defense SPF 30; Matte Moisturizer SPF 15; Matte and Clear Matifying Protector SPF 25; Mattifying Broad Spectrum SPF 15 Jafra; Mattifying Day Cream; Mattifying Day Moisture Broad Spectrum SPF 15 Jafra; Max Block Broad Spectrum SPF 30; Max Block Broad Spectrum SPF 30 sport; Max Block Maz Block SPF 30 Sport Sunscreen; Max Block Maz Block SPF 30 Sunscreen; Max Block Maz Block SPF 50 Kids Sunscreen; Max Block Maz Block SPF 50 Sunscreen; Max Block SPF 50 Sunscreen; Max Sheer All Day Moisture Defense; Max Sheer All Day Moisture Defense Lotion; Maxglow Hydrafoam Daily Moisturizer; Maybelline New York Fit Me Matte Plus Poreless Mattifying Poreless Primer Broad Spectrum SPF 20 Sunscreen; Me Day S1 SPF 25; Me Day S3 SPF 25; Me Day S9 SPF 25; Me Day T1 SPF 25; Me Day T3 SPF 25; Me Day T9 SPF 25; Meaningful Beauty Cindy Crawford Anti-Aging Day Creme with Environmental Protection Broad Spectrum SPF 30; Meaningful Beauty Cindy Crawford Antioxidant SPF 20 UVA/UVB; Meaningful Beauty Cindy Crawford Environmental Protecting Moisturizer Broad Spectrum SPF 30 Sunscreen; Meaningful Beauty Cindy Crawford Maintenance 1 Daily Moisture SPF 8; Meaningful Beauty Cindy Crawford Skin Brightening Decollete and Neck Treatment SPF 15; Meaningful Beauty Cindy Crawford Skin Brightening Décolleté and Neck Treatment SPF 15; Mederma; Mederma Scar Cream; MediSpa Sunblock SPF47; MediSpa Sunblock sunblock; Meijer; Meijer Baby SPF 50; Meijer Broad Spectrum SPF 15; Meijer Broad Spectrum SPF 30 Sunscreen; Meijer Broad Spectrum SPF 50 Sunscreen; Meijer Elements 7-in-1 Anti-Aging Vitamin; Meijer Elements Advanced Firming and Anti-Wrinkle; Meijer Elements Daily Facial Moisturizer; Meijer Elements Long-Lasting Oil-Free; Meijer Family Sport 30; Meijer Kids Tear Free SPF 50; Meijer Oil Free 30; Meijer Oil Free Faces SPF 30; Meijer Oil Free SPF 15; Meijer Oil Free SPF 30; Meijer SPF 15; Meijer SPF 30; Meijer SPF 30 Face; Meijer SPF 30 Ultra Dry Sheer; Meijer SPF 4 Dark Tanning Oil; Meijer SPF 70; Meijer SPF 8; Meijer Sheer Moisturing SPF 30; Meijer Sheer SPF 15; Meijer Sheer SPF 30; Meijer Sheer SPF 55; Meijer Sport SPF 30; Meijer Sport SPF 50; Meijer Sunscreen Broad Spectrum SPF 70 Sunscreen; Melan Sunscreen SPF 50; Mele; Mele Men plus Care Hydrate Face; Members Mark Value Size SPORT SUNSCREEN BROAD SPECTRUM SPF 50; Mens Maca Root Energising Face Protector SPF15; Mentholatum Natural Ice Extreme SPF-30 Lipbalm; Mentholatum Natural Ice Sport SPF 30; Merino Lip SPF 30; Merle Norman Dual Spectrum SPF 30; Mesoestetic Sun Protection SPF 25; Mesoestetic Sun Protection SPF 30; Mesoestetic Sun Protection SPF 50; Mia Del Mar SPF 30 Moisturizer; Miami Beach Faces Sunscreen 50 Broad Spectrum SPF 50; Miami Beach Kids Sunscreen Broad Spectrum SPF 50; Miami Beach SPF 50 Kids C/S Sunscreen; Miami Beach Sea Sunscreen 30 Broad Spectrum SPF 30; Miami Beach Sea Sunscreen Broad Spectrum SPF 30; Miami Beach Sport Sunscreen 50 Broad Spectrum SPF 50; Mielle illuminating face; Milani Make It Last Sunscreen Setting SPF 30; Milani Prime Protect SPF 30 Face Primer; Milani SPF BFF 30 Primer; Mineral Radiance Energizing Day BS SPF 15; Mineralium Hdra Source Moisturizing Protector SPF 25; Mint Broad Spectrum SPF 15 Lip Moisturizer; Mint Condition Lip Shield SPF 30 Supergoop; Mint Fusion Lip Balm SPF 30 Supergoop; Mint Mojito SPF 15 Broad Spectrum Lip Balm; Miracle Worker SPF 55; Missha All Around Safe Block Essence Sun Milk 40ml; Missha All Around Safe Block Essence Sun Milk 70ml; Mkmen Advanced Facial Hydrator Sunscreen Broad Spectrum SPF 30; Mkmen Moisturizer Sunscreen SPF 25; Moderate Protection Sun SPF 15; Moisture Boost Daily Restoring Complex Broad Spectrum SPF 30; Moisture Compound SPF 30; Moisture Oil-free SPF 30; Moisture Rescue SPF 15; Moisture Restore Day Oil Free Protective Lotion SPF 15 (normal To Dry Skin); Moisture Rich Sunless Tanning SPF 20; Moisture Sun Protector; Moisture Surge SPF; Moisture Therapy Lip Balm SPF 25; Moisturising Daily Defense SPF 30 asap Skin Products; Moisturising Sun Protection Spf50; Moisturising Sunscreen SPF15; Moisturizer; Moisturizer Maple Day Cream SPF 15; Moisturizer Maple day SPF15; Moisturizer SPF 15; Moisturizing Antioxidant Day CRème SPF 20; Moisturizing Day Cream SPF 15; Moisturizing Day Lotion SPF 15; Moisturizing Day with Sunscreen and Dead Sea Mineral Broad Spectrum SPF 15; Moisturizing Face Shield; Moisturizing Facial Sunscreen; Moisturizing Lip BalmSPF30; Moisturizing Lip Gloss Brillant A Levres Hydratant; Moisturizing Lotion SPF 15; Moisturizing Protector SPF 30; Moisturizing Renewal Cream Broad Spectrum SPF 30 US; Moisturizing Sunscreen Cream; Moisturizing Sunscreen Lotion; Moisturizing Sunscreen Lotion Sun Bum Broad Spectrum SPF 15; Moisturizing Sunscreen Lotion Sun Bum Broad Spectrum SPF 30; Moisturizing Sunscreen Lotion Sun Bum Broad Spectrum SPF 50; Moisturizing Tint SPF 30; Moisturizing Uv Cream; Moisuture Replenishing Broad Spectrum SPF 15 Jafra; Moonshot Multi Protection UV Bouncer; Morinda TruAge Therapy Element Shield SPF 20; Mormaii Grip Action Protector Solar; Moroccanoil SPF 30; Moroccanoil SPF 50; Moroccanoil Sun Oil SPF 15; Mousse Exquise Auto-bronzante 15 SPF; Mousse Exquise Auto-bronzante Embellissante SPF 15; Multi Active Hand Protector SPF 15; Multi Effect Day Cream SPF 25; Multi-Active Day Early Wrinkle Correcting SPF 15; Multi-Active Jour SPF 20 Broad Spectrum Sunscreen; Multi-action Cream SPF 30; Multi-regenerant Jour Fluide Lift Anti-rides Toutes Peaux SPF 15; Multiceutical Compound Oil Free Day Creme Sunscreen SPF 20; Multivit Sun Protector; Multivitamin Bodyblock SPF 20; Murad - Age Reform - Invisiblur Perfecting Shield SPF 30; Murad - Age Reform - Perfecting Day SPF 30; Murad - Anti-aging Moisturizer SPF 30; Murad - Environmental Shield - Essential-C Day Moisture Broad Spectrum SPF 30; Murad - Environmental Shield - Essential-C Eye SPF 15; Murad - Resurgence - Age-balancing Moisture SPF 30; Murumuru Butter Lip Cream; Murumuru Butter Lip Cream SPF 15; Mv Body Defense SPF 20; Myung Han Miindo Make Up Base; NAELI Day Moisturizer SPF 30; NARS SMOOTH and PROTECT PRIMER; NATURAL SUN ECO Aqua Sunscreen Gel 40 SPF; NATURAL SUN ECO Mild Milk SPF40; NIVEA A Kiss of Smoothness Hydrating Lip Care; NIVEA Men Replenishing Lip Balm; NO BS Moisturizer SPF20; NO-AD 15 Sunscreen; NO-AD 30 Sunscreen; NO-AD 45 Sunscreen; NO-AD 60 Sunscreen; NO-AD 85 Sunscreen; NO-AD Broad Spectrum SPF 30; NO-AD Broad Spectrum SPF 50 kids; NO-AD Broad Spectrum SPF 85; NO-AD Broad Spectrum Sport SPF 30; NO-AD Kids 50 Sunscreen; NO-AD Kids SPF50 Continuous Mist Sunscreen; NO-AD SPF45 Continuous Mist Sunscreen; NO-AD Splash 30 Sunscreen; NO-AD Sport 50 Sunscreen; NO-AD Sport SPF30 Continuous Mist Sunscreen; NO-AD Suncare Ltn SPF 50; NOURISHING hydrator; NU SKIN ageLOC Radiant Day SPF 22; NUANCE Salma Hayek Renewed Radiance Moisturizing Day Cream Broad Spectrum SPF 30 Sunscreen; NYX Professional Makeup Bare With Me Daily Moisturizing Primer with Cannabis Sativa Seed Oil SPF 30; Naked Glow; Naked Sundays Golden Glow Body Sunscreen SPF50 100ml; Nars Laguna Body Tint; Nars Pro-prime Light Optimizing Primer; Nars Pro-prime Light Optimizing Primer SPF 15; Nars Pro-prime Multi-protect Primer; Nars Radiance Primer; Native Tan SPF 20; Native Tan SPF 30; Native Tan SPF 40; Native Tan SPF 50; Natural BB Cream SPF15; Natural Defense Primer Oil SPF; Natural Sun AQ Body and Family Mild Sun Milk; Natural Sun AQ Total Anti-aging Essence Sun; Natural Sun Eco Light Sun Cream SPF 50+ Pa+++; Natural Sun Eco Sebum Control Moisture Sun Spf40; Natural Sun Eco Super Perfect SPF 50; Natural Tanning and Body Oil SPF15; Natural Tanning and Body Oil SPF6; Naturally Beaming; Naturissima Vitaverde Sun High Protection SPF 50; Neck + Chest Perfector; Nelly De Vuyst Bruxelles SPF 30 Broad Spectrum Sunscreen; Nelly de Vuyst SPF 30 Broad Spectrum Sunscreen; NeoStrata Enlighten Skin Brightener SPF 25; NeoStrata Enlighten Skin Brightener with Sunscreen Broad Spectrum SPF 35; NeoStrata Sheer Hydration SPF 35; NeoStrata Sheer Hydration Sunscreen Broad Spectrum SPF 40; NeoStrata Skin Active Matrix Support SPF 30; Neogen Dermalogy Day-light Protection Airy Sunscreen; Neora Age IQ Invisi-Bloc Sunscreen; Neostrata Protective Lotion Broad Spectrum Uva/uvb Protection SPF 50+; Neostrata Sunshield Spray SPF 30; Neostrata Ultra-light Sun Lotion Broad Spectrum Uva/uvb Protection SPF 50+; Neova Day Therapy SPF 30; Neurogena Healthy Defense Moisturizer Sunscreen Broad Spectrum SPF50; Neutrogena Age Defense Anti Oxidant Daily Moisturizer SPF20; Neutrogena Age Shield Anti Oxidant Face Sunscreen Broad Spectrum SPF70; Neutrogena Age Shield Face Oil Free Sunscreen Broad Spectrum SPF 110; Neutrogena Age Shield Face Oil Free Sunscreen Broad Spectrum SPF 70; Neutrogena Age Shield Face Oil Free Sunscreen Broad Spectrum SPF110; Neutrogena Age Shield Face SPF 110; Neutrogena Age Shield Face Sunscreen Broad Spectrum SPF70; Neutrogena Ageless Essentials Continuous Hydration Daily Moisturizer SPF25; Neutrogena Ageless Intensive Anti-Wrinkle Instant Radiance Daily Moisturizer SPF25; Neutrogena Ageless Intensives Anti Wrinkle Deep Wrinkle Daily Moisturizer Sunscreen Broad Spectrum SPF20; Neutrogena Ageless Intensives Tone Correcting Daily Moisturizer Broad Spectrum SPF30; Neutrogena Ageless Intensives Tone Correcting Tinted Daily Moisturizer SPF 30 Helioplex; Neutrogena Ageless Restoratives Anti-Oxidant Daily Moisturizer SPF 20 Helioplex; Neutrogena Anti-Wrinkle Deep Wrinkle Daily Moisturizer SPF 20 helioplex; Neutrogena Beach Defense Kids Sunscreen SPF 70; Neutrogena Beach Defense Sunscreen Broad Spectrum SPF50 Plus; Neutrogena Beach Defense Water Plus Sun Protection Sunscreen Broad Spectrum SPF 30; Neutrogena Beach Defense Water Plus Sun Protection Sunscreen Broad Spectrum SPF 50; Neutrogena Beach Defense Water Plus Sun Protection Sunscreen Broad Spectrum SPF 60 Plus; Neutrogena Beach Defense Water Plus Sun Protection Sunscreen Broad Spectrum SPF 70; Neutrogena Beach Defense Water Plus Sun Protection Sunscreen Broad Spectrum SPF100; Neutrogena Beach Defense Water Plus Sun Protection Sunscreen Broad Spectrum SPF30; Neutrogena Beach Defense Water Plus Sun Protection Sunscreen Broad Spectrum SPF50; Neutrogena Beach Defense Water Plus Sun Protection Sunscreen Broad Spectrum SPF50 Plus; Neutrogena Beach Defense Water Plus Sun Protection Sunscreen Broad Spectrum SPF70; Neutrogena Beach Defense Water Plus Sun Protection Sunscreen Stick Broad Spectrum SPF 50 Plus; Neutrogena Bright Boost Moisturizer Broad Spectrum SPF 30; Neutrogena Clear Body Breakout Free Oil Free Sunscreen Broad Spectrum SPF 30; Neutrogena Clear Face; Neutrogena Clear Face Break Out Free Sunscreen Broad Spectrum SPF30; Neutrogena Clear Face Break Out Free Sunscreen Broad Spectrum SPF55; Neutrogena Clear Face Break-Out Free Sunscreen SPF 30 Helioplex; Neutrogena Clear Face Break-Out Free Sunscreen SPF 55 Helioplex; Neutrogena Clear Face Breakout Free Oil Free Broad Spectrum SPF 55; Neutrogena Clear Face Breakout Free Oil Free Sunscreen Broad Spectrum SPF 30; Neutrogena Clear Face Breakout Free oil Free Sunscreen Broad Spectrum SPF 50; Neutrogena Clear Face Serum Fragrance Free SPF 60 Plus; Neutrogena Clear Face Sunscreen Lotion; Neutrogena Clinical Lifting Wrinkle Treatment System; Neutrogena Colour Boosting Sunscreen SPF 30; Neutrogena Complete Acne Therapy Solution; Neutrogena Cool Dry Sport Sunscreen Broad Spectrum SPF 70; Neutrogena CoolDry Sport Sunscreen Broad Spectrum SPF 30; Neutrogena CoolDry Sport Sunscreen Broad Spectrum SPF 50; Neutrogena CoolDry Sport Sunscreen Broad Spectrum SPF100; Neutrogena CoolDry Sport Sunscreen Broad Spectrum SPF30; Neutrogena CoolDry Sport Sunscreen Broad Spectrum SPF70; Neutrogena CoolDry Sport Sunscreen SPF 50 with Micromesh; Neutrogena CoolDry Sport with Micromesh Face Oil free Sunscreen Broad Spectrum SPF 70; Neutrogena CoolDry Sport with Micromesh Sunscreen Broad Spectrum SPF 30; Neutrogena CoolDry Sport with Micromesh Sunscreen Broad Spectrum SPF 50; Neutrogena CoolDry Sport with Micromesh Sunscreen Broad Spectrum SPF 70; Neutrogena CoolDry Sport with Micromesh Sunscreen Broad Spectrum SPF30; Neutrogena CoolDry Sport with Micromesh Sunscreen Broad Spectrum SPF50 Plus; Neutrogena CoolDry Sport with Micromesh Sunscreen Broad Spectrum SPF70; Neutrogena Cooldry Sport Sunscreen Broad Spectrum SPF 50; Neutrogena Cooldry Sport Sunscreen Broad Spectrum SPF 50 Plus; Neutrogena Day Activating SPF 30; Neutrogena Deep Moisture Day with Sunscreen Broad Spectrum SPF20; Neutrogena Fresh Cooling Body Mist Sunscreen SPF 60; Neutrogena Fresh Cooling Sunscreen Body Mist Broad Spectrum SPF45; Neutrogena Fresh Cooling Sunscreen Body Mist Broad Spectrum SPF70 Plus; Neutrogena Healthy Defense Daily Moisturizer SPF 50 with Helioplex; Neutrogena Healthy Defense Daily Moisturizer SPF30 with Helioplex; Neutrogena Healthy Defense Daily Moisturizer Sunscreen Broad Spectrum SPF 50; Neutrogena Healthy Defense Daily Moisturizer Sunscreen Broad Spectrum SPF30; Neutrogena Healthy Defense Daily Moisturizer Sunscreen Broad Spectrum SPF50; Neutrogena Healthy Defense Moisturizer SPF 50; Neutrogena Healthy Skin Anti Wrinkle Broad Spectrum SPF15; Neutrogena Healthy Skin Anti Wrinkle with sunscreen Broad Spectrum SPF15; Neutrogena Healthy Skin Anti-Wrinkle System; Neutrogena Healthy Skin Anti-wrinkle Cream SPF 15; Neutrogena Healthy Skin Compact Makeup SPF 55 Buff 30; Neutrogena Healthy Skin Compact Makeup SPF 55 Classic Ivory 10; Neutrogena Healthy Skin Compact Makeup SPF 55 Natural Beige 60; Neutrogena Healthy Skin Compact Makeup SPF 55 Warm Beige 90; Neutrogena Healthy Skin Compact Makeup SPF Nude 40; Neutrogena Healthy Skin Compact Makeup SPF55 Fresh Beige 70; Neutrogena Healthy Skin Compact Makeup SPF55 Natural Ivory 20; Neutrogena Healthy Skin Compact Makeup SPF55 Soft Beige 50; Neutrogena Healthy Skin Compact Makeup with sunscreen broad spectrum SPF 55 Buff 30; Neutrogena Healthy Skin Compact Makeup with sunscreen broad spectrum SPF 55 Classic Ivory 10; Neutrogena Healthy Skin Compact Makeup with sunscreen broad spectrum SPF 55 Natural Beige 60; Neutrogena Healthy Skin Compact Makeup with sunscreen broad spectrum SPF 55 Warm Beige 90; Neutrogena Healthy Skin Compact Makeup with sunscreen broad spectrum SPF Nude 40; Neutrogena Healthy Skin Compact Makeup with sunscreen broad spectrum SPF55 Fresh Beige 70; Neutrogena Healthy Skin Compact Makeup with sunscreen broad spectrum SPF55 Natural Ivory 20; Neutrogena Healthy Skin Compact Makeup with sunscreen broad spectrum SPF55 Soft Beige 50; Neutrogena Healthy Skin Face Broad Spectrum SPF15; Neutrogena Healthy Skin Face Lotion SPF 15; Neutrogena Healthy Skin Face Sunscreen Broad Spectrum SPF15; Neutrogena Healthy Skin Firming Sunscreen Broad Spectrum SPF15; Neutrogena Healthy Skin Firms and Lifts SPF15; Neutrogena Healthy Skin Primer; Neutrogena Healthy Skin Primer Broad Spectrum SPF15; Neutrogena Healthy Skin Radiance Boosts Radiance SPF15; Neutrogena Healthy Skin Radiance Sunscreen Broad Spectrum SPF15; Neutrogena Hydro Boost City Shield water Broad Spectrum SPF 25; Neutrogena Hydro Boost Hyaluronic Acid Moisturizer with Sunscreen Broad Spectrum SPF 50; Neutrogena Hydro Boost Water Gel Sunscreen Broad Spectrum SPF 50; Neutrogena Hydro Boost Water Sunscreen Broad Spectrum SPF 15; Neutrogena HydroBoost Water Gel Sunscreen Broad Spectrum SPF 30; Neutrogena HydroBoost Water Gel Sunscreen Broad Spectrum SPF 50; Neutrogena Illuminating Whip Moisturizer; Neutrogena Invisible Daily Defense Body Broad Spectrum SPF 30; Neutrogena Invisible Daily Defense Body Sunscreen Broad Spectrum SPF 60 Plus; Neutrogena Invisible Daily Defense Face Mist Sunscreen Broad Spectrum SPF 50; Neutrogena Invisible Daily Defense Face Serum Sunscreen Broad Spectrum SPF 60 Plus; Neutrogena Invisible Daily Defense Fragrance Free SPF 60 Plus; Neutrogena Invisible Daily Defense Sunscreen Body SPF 60 plus; Neutrogena Invisible Daily Defense Sunscreen Broad Spectrum SPF 30; Neutrogena Invisible Daily Defense Sunscreen Broad Spectrum SPF 60 Plus; Neutrogena Men Active protect Face SPF 50 Plus; Neutrogena Men Age Fighter Face Broad Spectrum SPF15; Neutrogena Men Sensitive Skin Oil Free Moisture Sunscreen Broad Spectrum SPF30; Neutrogena Men Sensitive Skin Oil-free Moisture; Neutrogena Men Triple Protect Face Broad Spectrum SPF20; Neutrogena Men Triple Protect Face With Sunscreen Broad Spectrum SPF 20; Neutrogena Moisture Oil-free; Neutrogena Moisture Oil-free SPF 15; Neutrogena Norwegian Formula Age Shield Hand SPF 30; Neutrogena Oil Free Moisture Broad Spectrum SPF15; Neutrogena Oil-Free Moisture Sunscreen Broad Spectrum SPF 35; Neutrogena Pore Refining Cream SPF 15; Neutrogena Rapid Tone Repair Moisturizer Sunscreen Broad Spectrum SPF30; Neutrogena Rapid Tone Repair Retinol Plus Vitamin C Moisturizer Sunscreen Broad Spectrum SPF 30 Day; Neutrogena Rapid Tone Repair Sunscreen SPF30; Neutrogena Rapid Wrinkle Repair Moisturizer SPF 30; Neutrogena Rapid Wrinkle Repair Moisturizer Sunscreen Broad Spectrum SPF30; Neutrogena Rapid Wrinkle Repair Retinol Moisturizer Sunscreen Broad Spectrum SPF 30 Day; Neutrogena Retinol Nx Concentrated Retinol Daily Moisturizer SPF 35 Tinted; Neutrogena SPF 15; Neutrogena SPF 30; Neutrogena SPF 30 Spray Healthy Defense; Neutrogena SPF 30 Stick; Neutrogena SPF 45; Neutrogena SPF 45 Healthy Defense; Neutrogena Spectrum + Advanced Moisture Body Lotion; Neutrogena Spectrum + Advanced Moisture Sunscreen Lotion SPF 100; Neutrogena Spectrum + Face Advanced Moisture Sunscreen Lotion SPF 100; Neutrogena Spectrum Plus Advanced Sunscreen Broad Spectrum SPF100 Plus; Neutrogena Spectrum Plus Face Advanced Oil Free Sunscreen Broad Spectrum SPF100 Plus; Neutrogena Spectrum plus Advanced Sunblock SPF 100 plus helioplex 360; Neutrogena Spectrum+ Advanced Moisture Sunscreen Lotion SPF 70; Neutrogena Spectrum+ Advanced Moisture Sunscreen Spray SPF 100; Neutrogena Sport Face Oil Free Sunscreen Broad Spectrum SPF 70 Plus; Neutrogena Sport Face Oil Free Sunscreen Broad Spectrum SPF70 Plus; Neutrogena Sport Face Sunblock SPF70plus; Neutrogena Triple Age Repair Moisturizer Broad Spectrum SPF25; Neutrogena Triple Age Repair Moisturizer with Sunscreen Broad Spectrum SPF 25; Neutrogena Ultimate Sport Sunblock SPF 100 Plus; Neutrogena Ultimate Sport Sunblock SPF 30 Helioplex; Neutrogena Ultimate Sport Sunblock SPF 70 Plus; Neutrogena Ultimate Sport Sunblock SPF70 Plus; Neutrogena Ultimate Sport Sunscreen Broad Spectrum SPF100 Plus; Neutrogena Ultimate Sport Sunscreen Broad Spectrum SPF30; Neutrogena Ultimate Sport Sunscreen Broad Spectrum SPF70 Plus; Neutrogena Ultra Gentle Soothing SPF15; Neutrogena Ultra Gentle Soothing Sunscreen Broad Spectrum SPF15; Neutrogena Ultra Sheer; Neutrogena Ultra Sheer Body Mist Sunscreen Broad Spectrum SPF 100 Plus; Neutrogena Ultra Sheer Body Mist Sunscreen Broad Spectrum SPF 30; Neutrogena Ultra Sheer Body Mist Sunscreen Broad Spectrum SPF 45; Neutrogena Ultra Sheer Body Mist Sunscreen Broad Spectrum SPF 70; Neutrogena Ultra Sheer Body Mist Sunscreen Broad Spectrum SPF30; Neutrogena Ultra Sheer Body Mist Sunscreen SPF 30; Neutrogena Ultra Sheer Body Mist Sunscreen SPF 45; Neutrogena Ultra Sheer Body Mist Sunscreen SPF 60; Neutrogena Ultra Sheer Daily Sun Protection SPF55; Neutrogena Ultra Sheer Dry Touch SPF55; Neutrogena Ultra Sheer Dry Touch Sunblock SPF 30 Helioplex; Neutrogena Ultra Sheer Dry Touch Sunblock SPF 45 with helioplex; Neutrogena Ultra Sheer Dry Touch Sunblock SPF70; Neutrogena Ultra Sheer Dry Touch Sunscreen Broad Spectrum SPF 30; Neutrogena Ultra Sheer Dry Touch Sunscreen Broad Spectrum SPF 55; Neutrogena Ultra Sheer Dry Touch Sunscreen Broad Spectrum SPF 70; Neutrogena Ultra Sheer Dry Touch Sunscreen Broad Spectrum SPF100 Plus; Neutrogena Ultra Sheer Dry Touch Sunscreen Broad Spectrum SPF45; Neutrogena Ultra Sheer Dry Touch Sunscreen Broad Spectrum SPF55; Neutrogena Ultra Sheer Dry Touch Sunscreen Broad Spectrum SPF70; Neutrogena Ultra Sheer Dry Touch Sunscreen Broad Spectrum SPF85 Plus; Neutrogena Ultra Sheer Dry-touch Sunscreen SPF 70; Neutrogena Ultra Sheer Dry-touch Sunscreen SPF 85; Neutrogena Ultra Sheer Face Mist Sunscreen Broad Spectrum SPF 55; Neutrogena Ultra Sheer Face Sunscreen Broad Spectrum SPF 70; Neutrogena Ultra Sheer Face Sunscreen SPF 45; Neutrogena Ultra Sheer Face Sunscreen SPF 60; Neutrogena Ultra Sheer Face and Body Sunscreen Broad Spectrum SPF70; Neutrogena Ultra Sheer Moisturizing Face Serum Sunscreen Broad Spectrum SPF 60 Plus; Neutrogena Ultra Sheer SPF 30; Neutrogena Ultra Sheer SPF 45; Neutrogena Ultra Sheer SPF 55 and SPF 70 Suncare Kit; Neutrogena Ultra Sheer Sunscreen Broad Spectrum SPF 70; Neutrogena Ultra Sheer Water Light; Neutrogena Ultra sheer Face and Body Sunscreen Broad Spectrum SPF70; Neutrogena Visibly Even Daily Moisturizer Sunscreen Broad Spectrum SPF30; Neutrogena Visibly Even Daily Moisturizer With Sunscreen Broad Spectrum SPF 30; Neutrogena Visibly Even Moisturizer SPF 15; Neutrogena Visibly Younger Hand Cream SPF 20; Neutrogena Wet Guard Kids Beach and Pool; Neutrogena Wet Skin Kids Applies To Wet Or Dry Skin Sunscreen Stick; Neutrogena Wet Skin Kids Beach & Pool Sunscreen Lotion; Neutrogena Wet Skin Kids Beach and Pool Sunblock SPF 70; Neutrogena Wet Skin Kids Beach and Pool Sunblock SPF 70plus helioplex; Neutrogena Wet Skin Kids Beach and Pool Sunscreen Broad Spectrum SPF 70 Plus; Neutrogena Wet Skin Kids Beach and Pool Sunscreen Broad Spectrum SPF45 Plus; Neutrogena Wet Skin Kids Beach and Pool Sunscreen Broad Spectrum SPF70 Plus; Neutrogena Wet Skin Kids SPF 45 Plus; Neutrogena Wet Skin Kids Sunscreen Broad Spectrum SPF70 Plus; Neutrogena Wet Skin Swim Humidity Sweat Sunscreen Broad Spectrum SFP45 Plus; Neutrogena Wet Skin Swim Humidity Sweat Sunscreen Broad Spectrum SPF30; Neutrogena Wet Skin Swim Humidity Sweat Sunscreen Broad Spectrum SPF50; Neutrogena Wet Skin Swim Humidity Sweat Sunscreen Broad Spectrum SPF85 Plus; Neutrogena Wet Skin Swim-Humidity-Sweat Sunblock SPF 50 Helioplex; Neutrogena Wet Skin Swim-Humidity-Sweat Sunblock SPF 85Plus Helioplex; Neutrogena Wet Skin Swim-Humidity-Sweat Sunscreen SPF 30 Helioplex; New Hawaiian Tropic Sensitive Skin Lotion Sunscreen; New Lip Protector Sunscreen SPF15; NexGen Sunscreen Broad Spectrum SPF 36 Doc Martins; Nia 24 SPF 30; Nia24 Sun Damage Defense Broad Spectrum Uva/uvb Sunscreen SPF-30; Niacina-B; Nicole Miller Daytime Delivery; Nicole Miller Daytime Delivery Creme; Nicole Miller Daytime Delivery Moisturizing Creme; Nicole Miller Daytime Delivery Moisturizing Lotion; Niseko Sunscreen SPF 25; Nivea A Kiss of Berry Swirl Vitamin Enriched Lip Care; Nivea A Kiss of Cherry Fruity Lip Care; Nivea A Kiss of Flavor Strawberry Tinted Lip Care; Nivea A Kiss of Natural Volume Glossy Lip Care; Nivea A Kiss of Protection Lip Care; Nivea A Kiss of Recovery Medicated Lip Care; Nivea A Kiss of Shimmer Radiant Lip Care; Nivea A Kiss of Shine Natural Look Glossy Lip Care; Nivea A Kiss of Smoothness Lip Care; Nivea A Kiss of Strawberry Fruity Lip Care; Nivea A Kiss of Vitamin Swirl Antioxidant Enriched Lip Care; Nivea For Men Age Defying Face Moisturizer; Nivea For Men Protective; Nivea For Men Q10 Energy; Nivea Mattifying Day Cream; Nivea Men Energy Revitalizing; Nivea Men Protect & Care Face Lotion; Nivea Men Protective; Nivea Men Sensitive; Nivea Men Sensitive Protective; Nivea Moisturizing Day Cream; Nivea Nourishing Day Cream; Nivea Q10 Plus Anti-wrinkle Day Cream; Nivea Recovery Medicated Lip Care; Nivea Smoothness Lip Care; Nivea Soothing Care; Nivea Sun; Nivea Visage Dnage Firm & Glow Day Care Cream; Nivea Visage Light Moisturizing Day Care; Nivea Visage Q10 Advanced Wrinkle Reducer Lotion; Nivea Visage Q10 Plus Anti-wrinkle; Nivea a Kiss of Recovery Healing Lip Care; Nivea body Natural Tone; No 7 Beautiful Skin Day Cream Normal/oily SPF 15; No 7 Men Protect & Perfect Intense Moisturiser SPF 15; No 7 Protect & Perfect Intense Day Cream SPF 15; No 7 Restore & Renew Day Cream SPF 15; No BS SPF20 Moisturizer; No-AD Face SPF 30 6oz; No-AD SPF 45 Sun Protection; No-AD Spf30 5 Oz; No-AD Spf30 Ltn 16oz; No-Ad Sun Care Broad Spectrum SPF 30 Sunscreen; No-Ad Sun Care Broad Spectrum SPF 50 Baby Sunscreen; No-Ad Sun Care Broad Spectrum SPF 50 Kids; No-Ad Sun Care Broad Spectrum SPF 60 Sunscreen; No. 7 Protect & Perfect Day Cream; No7 Advanced Hydration Day Cream Sunscreen SPF 12; No7 Advanced Hydration Day Sunscreen SPF 12; No7 Beautiful Skin Day Cream Dry/very Dry SPF 15; No7 Beautiful Skin Day Cream Normal Dry SPF 15; No7 Beautiful Skin Day Cream Normal/dry SPF 15; No7 Beautiful Skin Day Dry Very Dry Sunscreen Broad Spectrum SPF 15; No7 Beautiful Skin Day Normal Dry Sunscreen Broad Spectrum SPF 15; No7 Beautiful Skin Day Normal Oily Sunscreen Broad Spectrum SPF 15; No7 Beautiful Skin Oil Free Skin Protector All Skin Types SPF 25; No7 Beautiful Skin day Normal Dry Sunscreen Broad Spectrum SPF 15; No7 City Light Tinted Moisturiser Sunscreen Broad Spectrum SPF 15 Fair; No7 City Light Tinted Moisturiser Sunscreen Broad Spectrum SPF 15 Medium; No7 City Light Tinted Moisturiser Sunscreen Broad Spectrum SPF 15 Medium Dark; No7 Dual Action Tinted Moisturiser Fair; No7 Dual Action Tinted Moisturiser Medium; No7 Early Defence Day Cream; No7 Early Defence Glow Activating Day Cream; No7 Lift & Luminate Day Cream SPF 15; No7 Lift & Luminate Fermete Et Eclat; No7 Lift & Luminate Triple Action Day Cream; No7 Lift and Luminate Day Cream SPF 15; No7 Lift and Luminate Day Sunscreen Broad Spectrum SPF 15; No7 Lift and Luminate Triple Action Day Cream SPF 30; No7 Lift and Luminate Triple Action Fragrance Free Day Cream SPF 30; No7 Lift and Luminite Day Cream SPF 15; No7 Lifting & Firming Day Cream SPF 8; No7 Lifting and Firming Day Sunscreen SPF 8; No7 Lifting and Firming Skincare System Day Sunscreen SPF 8; No7 Men Protect and Perfect Intense Advanced Day Moisturiser SPF 30; No7 Men Protect and Perfect Intense Moisturiser; No7 Menopause Skincare Protect and Hydrate Day Cream Sunscreen Broad Spectrum SPF 30; No7 Protect & Perfect Hand Cream SPF 15; No7 Protect & Perfect Intense Advanced Day Cream; No7 Protect and Perfect Day Cream SPF 15; No7 Protect and Perfect Day Cream Sunscreen SPF 15; No7 Protect and Perfect Day Sunscreen Broad Spectrum SPF 15; No7 Protect and Perfect Day Sunscreen SPF 15; No7 Protect and Perfect Hand Cream Sunscreen Broad Spectrum SPF 15; No7 Protect and Perfect Hand Cream Sunscreen SPF 15; No7 Protect and Perfect Hand Sunscreen SPF 15; No7 Protect and Perfect Intense Advanced Day Cream SPF 30; No7 Protect and Perfect Intense Advanced Day Cream Sunscreen Broad Spectrum SPF 30; No7 Protect and Perfect Intense Advanced Fragrance Free Day Cream SPF 30; No7 Protect and Perfect Intense Day Cream SPF 15; No7 Protect and Perfect Intense Day Cream Sunscreen Broad Spectrum SPF 15; No7 Protect and Perfect Skincare System Day Sunscreen SPF 15; No7 Rebalancing Day Fluid Sunscreen SPF 15; No7 Restore and Renew Day Cream SPF 15; No7 Restore and Renew Day Sunscreen; No7 Restore and Renew Face and Neck Multi Action Day Cream Sunscreen Broad Spectrum SPF 30; No7 Time Resisting Day Cream SPF 12; No7 Time Resisting Day Cream Sunscreen SPF 12; No7 Time Resisting Day Sunscreen SPF 12; No7Restore and Renew Face and Neck Multi Action Day Cream Sunscreen Broad Spectrum SPF 30; Noad Sport SPF 50; Noella 24K Aged Defense SPF 30 Broad Spectrum; Normal Facial Moisturizer Broad Spectrum SPF 15 Lotion; Norwegian Formula Ageless Hand Cream SPF 30; NouriFusion; Nourifusion Sunscreen Broad Spectrum SPF 15 Moisturizing Lotion With Conditioning Antioxidant Vitamins A, C & E Normal To Dry; Nourifusion Sunscreen Broad Spectrum SPF 15 Moisturizing Lotion With Conditioning Antioxidant Vitamins A, C & E Normal To Oily; Nourishing Day Cream; Nova Bright Skin SPF 30; Novadiol Uv SPF 15; Nu Skin Sunright 50 Broad Spectrum SPF 50; Nu Skin Sunright Lip Balm Broad Spectrum SPF 15; Nu Skin Tri-Phasic White Day Milk Broad Spectrum SPF 15; Nu Skin Tri-Phasic White System; Nu Skin ageLOC Me; Nu Skin ageLOC Me Day S1 Broad Spectrum SPF 25; Nu Skin ageLOC Me Day S3 Broad Spectrum SPF 25; Nu Skin ageLOC Me Day S9 Broad Spectrum SPF 25; Nu Skin ageLOC Me Day T1 Broad Spectrum SPF 25; Nu Skin ageLOC Me Day T3 Broad Spectrum SPF 25; Nu Skin ageLOC Me Day T9 Broad Spectrum SPF 25; Nu Skin ageLOC Radiant Day Broad Spectrum SPF 22; NuGLOW DAYTIME THERAPY With SPF 15; NuHydraShield 30 SPF-30 Sunscreen; Nutra Effects Ageless Day Cream SPF20; Nutra Effects Balance Day Cream SPF15; Nutra Effects Hydration Day Cream SPF15; Nutra Effects Radiance Day Cream SPF20; Nutra Suncare Ecran Solaire Nutra SPF 30; Nutricentials Day Dream Protective; Nutrisun Lait Solaire Insectifuge SPF 16; Nutrisun Lait Solaire Insectifuge SPF 30; Nutrisun Lotion Solaire Insectifuge SPF 8; Nyakio Hydrating Face; OKeeffes Lip Repair; OP Protect and Nourish Babies and Sensitive SPF 50; OP Protect and Nourish Kids SPF 50; OP Protect and Nourish SPF 30 Sunscreen; OP Protect and Nourish SPF 50 Sunscreen; OP Protect and Renew Body SPF 45; OP Protect and Renew Face SPF 35; OP SPF 70 Anti Aging Sunscreen; OP Sport Sunscreen spf30; OP spf15 Anti Aging Sunscreen; OP spf45 Lip Potion Clear Zinc; OP spf50 and Sport Sunscreen; ORASER DAILY HAND REPAIR Broad-Spectrum SPF 20 Sunscreen; OSEQUE Zsole Dual Sun Block; Oars and Alps SPF 18 Shine Free Lip Balm; Oars and Alps SPF 30 Hydrating Antioxidant Sunscreen; Oars and Alps SPF 30 Shine Free Lip Balm; Oars and Alps SPF 35 Everyday Sunscreen; Oars and Alps SPF 35 Face and Scalp Mist; Oars and Alps SPF 35 Go Sunscreen; Oars and Alps SPF 50 Hydrating Antioxidant SunscreenSpray; Oasis Daily Defense; Obagi; Obagi 360; Obagi 360 HydraFactor Moisturizing Broad Spectrum SPF 30 SUNSCREEN; Obagi Skintrinsiq Antioxidant Protocol; Occulus Soloxide 30 Broad Spectrum SPF 30; Ocean Potion 50 Instant Dry Kid Spotstick; Ocean Potion Cool Dry Touch Sport 30 Sunscreen; Ocean Potion Gentle and Sensitive 50 Sunscreen; Ocean Potion H2o Sport SPF 50 Sunscreen Lotion; Ocean Potion Instant Dry 30 Mist Sport Sunscreen; Ocean Potion Instant Dry 30 Mist Water Sport Sunscreen; Ocean Potion Instant Dry 50 Dab-On Spotstick; Ocean Potion Instant Dry 50 Mist Kids Sunscreen; Ocean Potion Instant Dry 50 Mist Sunscreen; Ocean Potion Instant Dry 70 Mist Sunscreen; Ocean Potion Instant Dry SPF 30 Mist H20 Sport Sunscreen; Ocean Potion Instant Dry SPF 30 Mist Sport; Ocean Potion Instant Dry SPF 50 Mist Kids; Ocean Potion Instant Dry SPF 50+ Mist; Ocean Potion Intell Mist 50 Kids Sunscreen; Ocean Potion Kids Sunscreen Lotion SPF 50; Ocean Potion Moisturizing Lip Potion 45; Ocean Potion Quick Dry 15 Sunscreen; Ocean Potion Quick Dry 30 Sunscreen; Ocean Potion Quick Dry 50 Sunscreen; Ocean Potion Quick Dry Kids 50 Sunscreen; Ocean Potion Quick Dry SPF 70 Sunscreen; Ocean Potion SPF15 Sunscreen; Ocean Potion SPF30 Sunscreen; Ocean Potion Sport Xtreme Sunscreen Lotion SPF 30; Ocean Potion Sport Xtreme Sunscreen Lotion SPF 50; Ocean Potion Sunscreen Lotion SPF 15; Ocean Potion Sunscreen Lotion SPF 30; Ocean Potion Sunscreen SPF 50+ Lotion; Ocean Potion Water Sport SPF50 Sunscreen; Oclipse Smart Tone Broad-spectrum Sunscreen SPF 50; Oclipse Sun Spray SPF 50 Broad Spectrum Sunscreen SPF 50 for Face + Body; Octinoxate, Octisalate, Avobenzone; Octinoxate,octisalate,avobenzone,octocrylene,ensulizole,titanium Dioxide; Octisalate, Avobenzone, Homosalate, Octocrylene SPF30; Oh My Bod SPF 50 sunscreen; Oh My Bod SPF50 Antioxidant Infused Dry Touch Sunscreen; Oil Clearing Matte Moisturizer; Oil Daily Protect Sunscreen Moisturizer Broad Spectrum SPF 30; Oil Free Faces 30 SPF Sunscreen; Oil Free Faces Sunscreen SPF 30 daylogic; Oil Free Matte SPF 30; Oil Free Moisture; Oil Free Moisturizer; Oil and Pore Control Mattifier Broad Spectrum SPF 45; Oil-Control Day SPF 15; Oil-Free Daily Hydration SPF 15; Oil-Free Facial Sunscreen Spectrum SPF 50 JAFRA; Oil-control Day Lotion SPF 15; Oil-free Moisturizer; Oil-free Sunscreen SPF 30; Oil-free Tinted Nourisher; Olay Age Defying Anti-Wrinkle Broad Spectrum SPF 15; Olay Age Defying Anti-Wrinkle Daily SPF 15; Olay Age Defying Anti-Wrinkle Day Broad Spectrum SPF 15; Olay Age Defying Anti-wrinkle; Olay Age Defying Anti-wrinkle - Daily SPF 15 Lotion; Olay Age Defying Anti-wrinkle Day Lotion With SPF 15; Olay Age Defying Sensitive Skin Broad Spectrum SPF 15; Olay Age Defying Sensitive Skin Day Lotion With Sunscreen; Olay Anti-wrinkle Nutrients Daily SPF 15 Lotion; Olay Body Age Transform Intensive Moisturizer Plus Uv Defense; Olay Complete 15 Uva/uvb 365 Daily Moisturizing Lotion With SPF Broad Spectrum SPF 15 Combination/oily; Olay Complete 15 Uva/uvb 365 Daily Moisturizing Lotion With SPF Broad Spectrum SPF 15 Normal; Olay Complete Ageless Skin Renewing UV; Olay Complete Ageless Skin Renewing Uv Lotion; Olay Complete All Day Moisture Broad Spectrum SPF 15 Normal; Olay Complete All Day Moisture Cream; Olay Complete All Day Moisture Cream Normal; Olay Complete All Day Moisture Creme SPF 15 Uva/uvb Sensitive; Olay Complete All Day Moisture Normal Broad Spectrum SPF 15; Olay Complete All Day Moisture With Sunscreen Broad Spectrum SPF 30 Normal; Olay Complete All Day Moisturizer; Olay Complete All Day Moisturizer Broad Spectrum SPF 15; Olay Complete All Day Moisturizer Broad Spectrum SPF 15 Combination/Oily; Olay Complete All Day Moisturizer Normal Broad Spectrum SPF 15; Olay Complete All Day Moisturizer Sensitive Skin; Olay Complete All Day Moisturizer With Uv Protection SPF 15 Combination/ Oily; Olay Complete All Day Moisturizer With Uv Protection SPF 15 Normal; Olay Complete All Day UV Moisturizer; Olay Complete All Day UV Moisturizer Combination-Oily; Olay Complete All Day UV Moisturizer Normal; Olay Complete All Day UV Moisturizer Sensitive Skin; Olay Complete Normal 15 Uva/uvb 365 Daily Moisturizing Cream With SPF; Olay Complete Normal UV365 Daily Moisture with sunscreen Broad Spectrum SPF 15; Olay Complete Spf30 Defense All Day Moisturizer; Olay Complete Tinted Moisturizer Broad Spectrum SPF 15 Fair to Light; Olay Complete Tinted Moisturizer Broad Spectrum SPF 15 Light to Medium; Olay Complete Tinted Moisturizer With Sunscreen Broad Spectrum SPF 15; Olay Complete Touch Of Sun; Olay Complete UV 365 Daily Moisturizer Combination Oily Broad Spectrum SPF 15; Olay Complete UV 365 Daily Moisturizer Normal Broad Spectrum SPF 15; Olay Definity Color Recapture Fair-Light SPF 15; Olay Definity Color Recapture Light-Medium (SPF 15); Olay Definity Color Recapture Medium-Deep (SPF 15); Olay Definity Refining Lotion With Uv Protection; Olay Fresh Effects BB Broad Spectrum SPF 15 Fair to Light; Olay Fresh Effects BB Broad Spectrum SPF 15 Light to Medium; Olay Fresh Effects Bb Cream Skin Perfecting Tinted Moisturizing Cream; Olay Fresh Effects SPF 15 Moisturizer; Olay Fresh Effects Soak Up the Sun Protection Broadspectrum SPF 15; Olay Luminous Brightening & Protecting Lotion With Sunscreen; Olay Luminous Brightening & Protecting Lotion With Sunscreen Broad Spectrum SPF 30; Olay Luminous Brightening and Protecting with Sunscreen Advanced Tone Perfecting Moisturize Broad Spectrum SPF 15 Fragrance-Free; Olay Luminous Brightening and Protecting with Sunscreen Broad Spectrum SPF 30; Olay Luminous Whip; Olay Luminous Whip Active Moisturizer Broad Spectrum SPF 25; Olay Luminous Whip Active Moisturizer Broad Spectrum SPF 30 Sales Samples; Olay Moisturizer Broadspectrum SPF 15; Olay Moisturizing Lotion With SPF 30; Olay ProX Clear Moisturizer Broad Spectrum SPF 15; Olay Professional Pro-X Age Protection Lotion With SPF 30; Olay Professional Pro-X Clear Uv Moisturizer SPF 15; Olay Professional Pro-X Even Skin Tone Sheer Uv Protective Lotion; Olay Professional ProX Age Repair Broad Spectrum SPF 30; Olay Professional ProX Age Repair SPF 30; Olay Professional ProX Anti-Oxidant Sheer Daily Moisturizer Broad Spectrum SPF 35; Olay Professional ProX Clear UV Moisturizer SPF 15; Olay Professional ProX Tone Correcting Protocol; Olay Regenerist Advanced Anti-Aging; Olay Regenerist Advanced Anti-aging Day & Night Collection Moisturizer; Olay Regenerist Collagen Peptide 24 Hydrating Moisturizer Broad Spectrum SPF 30; Olay Regenerist DNA Superstructure Broad Spectrum SPF 30; Olay Regenerist DNA Superstructure UV SPF 30; Olay Regenerist Day and Night Trial Pack; Olay Regenerist Enhancing Lotion With Uv Protection; Olay Regenerist Enhancing Uva/uvb Lotion With SPF 15; Olay Regenerist Hyaluronic plus Peptide 24 Hydrating Moisturizer with Sunscreen Broad Spectrum SPF 30; Olay Regenerist Luminous Brightening and Protecting Moisturizer Broadspectrum SPF 15; Olay Regenerist Micro Sculpting Moisturizer Broad Spectrum SPF 30; Olay Regenerist Micro-Sculpting Anti-Aging Moisturize Broad Spectrum SPF 30; Olay Regenerist Micro-sculpting Cream With Sunscreen Broad Spectrum SPF 30; Olay Regenerist Regenerating Advanced Anti-Aging Moisturize Broad Spectrum SPF 50; Olay Regenerist Regenerating Broad Spectrum SPF 50; Olay Regenerist Regenerating Moisture Broad Spectrum SPF 15; Olay Regenerist Regenerating Moisturizer Broad Spectrum SPF 15; Olay Regenerist Retinol 24 plus Peptide Hydrating Moisturizer with Sunscreen Broad Spectrum SPF 30; Olay Regenerist SPF 30 Hydrating Collagen Peptide 24; Olay Regenerist SPF 30 Hydrating Hyaluronic + Peptide 24; Olay Regenerist SPF 30 Hydrating Retinol 24 + Peptides; Olay Regenerist SPF 30 Regenerist Micro-sculpting Cream; Olay Regenerist Superstructure Cream; Olay Regenerist Touch Of Foundation Uv Defense Moisturizer; Olay Regenerist Touch Of Sun Enhancing Lotion With Uv Protection; Olay Regenerist UV Defense Regenerating SPF 15; Olay Regenerist Vitamin C plus Peptide 24 Hydrating Moisturizer with Sunscreen Broad Spectrum SPF 30; Olay Regenerist Whip; Olay Regenerist Whip Active Moisturizer Broad Spectrum SPF 25 Sunscreen; Olay Regenerist Whip Active Moisturizer Broad Spectrum SPF 25 Sunscreen TESTER; Olay Regenerist Whip Active Moisturizer Broad Spectrum SPF 30 Sunscreen (Sales Samples - SPF NOT DETERMINED); Olay Regenerist Whip Active Moisturizer Broad Spectrum SPF 40 Sunscreen; Olay Regenerist Whip Moisturizer Broad Spectrum SPF 25 Sunscreen; Olay Regenerist Whip Sun Protection Factor 40; Olay Sun Facial Sunscreen Antioxidants Makeup Primer SPF 35; Olay Sun Facial Sunscreen Antioxidants Shine Control SPF 35; Olay Sun Facial Sunscreen Vitamin E Makeup Primer; Olay Sun Facial Sunscreen Vitamin E Shine Control; Olay Total Effects 7 In One 15 Anti-aging Featherweight; Olay Total Effects 7 In One Anti-aging Moisturizer With Sunscreen Broad Spectrum SPF 30 Fragrance Free; Olay Total Effects 7 In One Tone Correcting Moisturizer With Sunscreen; Olay Total Effects 7-IN-1 Anti-aging Moisturizer With Sunscreen Broad Spectrum SPF 30; Olay Total Effects 7-IN-1 Anti-aging Uv Moisturizer; Olay Total Effects 7-IN-1 Anti-aging Uv Moisturizer Fragrance-free; Olay Total Effects 7-IN-1 Anti-aging Uv Moisturizer Plus Touch Of Foundation; Olay Total Effects 7-IN-1 Moisturizer + Treatment Duo; Olay Total Effects 7in1 Anti-aging Moisturizer With Sunscreen Broad Spectrum SPF 15; Olay Total Effects Anti-Aging Moisturizer Broad Spectrum SPF 15 Fragrance Free; Olay Total Effects Anti-Aging Moisturizer Broad Spectrum SPF 30; Olay Total Effects CC Tone Correcting Broad Spectrum SPF 15 Fair to Light; Olay Total Effects CC Tone Correcting Broad Spectrum SPF 15 Light to Medium; Olay Total Effects CC Tone Correcting Broad Spectrum SPF 15 Medium to Deep; Olay Total Effects Feather Weight Moisturizer with Sunscreen Broadspectrum SPF 15; Olay Total Effects Feather Weight Moisturizer with Sunscreen Broadspectrum SPF 15 Fragrance Free; Olay Total Effects Fragrance Free Moisturizer Broad Spectrum SPF 15; Olay Total Effects Moisturizer Broad Spectrum SPF 30; Olay Total Effects Moisturizer Plus Serum Duo Broad Spectrum SPF 15; Olay Total Effects Moisturizer Plus Serum Duo Fragrance Free Broad Spectrum SPF 15; Olay Total Effects Moisturizer with Sunscreen Broad Spectrum SPF 15 Fragrance-Free; Olay Total Effects SPF 15; Olay Total Effects SPF 30; Olay Total Effects Tone Correcting Moisturizer Broadspectrum SPF 15 Fair to Light; Olay Total Effects Tone Correcting Moisturizer Broadspectrum SPF 15 Medium; Olay Total Effects Tone Correcting Moisturizer Broadspectrum SPF 15 Medium to Deep; Olay Total Effects Top Sellers Trial Pack; Olay Total Effects UV Moisturizer SPF 15 Fragrance Free; Olay Total Effects Uv Protection Enriched Moisturizer; Olay Total Effects Uv Protection Hand Moisture Treatment; Olay Total Effects Whip; Olay Total Effects Whip Active Moisturizer Broad Spectrum SPF 25 Sunscreen; Olay Total Effects Whip Active Moisturizer Broad Spectrum SPF 25 Sunscreen Fragrance Free; Olay Total Effects Whip Active Moisturizer Broad Spectrum SPF 30 Sunscreen Sales Samples; Olay Total Effects Whip Active Moisturizer Broad Spectrum SPF 40 Sunscreen; Olay Total Effects Whip Sun Protection Factor 40; Olay Uv Moisturizing Cream; Olay Uva/uvb Moisturizing Cream; Olay Whip Plus Hydrating Moisturizer with Sunscreen Broad Spectrum SPF 30; Olay Whip Ultimate Facial Sunscreen Prime Protect SPF 35; Old Spice Bald Care System Scalp Moisturizer Broad Spectrum SPF 25 Sunscreen; Old Spice Daily Moisturizer with Sunscreen Broadspectrum SPF 15; Ole Henriksen Truth Revealed Brightening Broad Spectrum SPF 15 Moisturizer; Ombrelle - Cold Weather Defence SPF 25; Ombrelle - Lotion Enfants SPF 30; Ombrelle - Lotion Extreme SPF 30; Ombrelle - Lotion Spf30; Ombrelle Baume Pour Les Levres SPF 30; Ombrelle Cream SPF 60; Ombrelle Creme Ecran SPF 60; Ombrelle Creme Spf45 Kids; Ombrelle Kids Lotion Wet'n Protect; Ombrelle Kids SPF 60; Ombrelle L'oreal Suncare Research Kids (SPF 30); Ombrelle L'oreal Suncare Research Kids (SPF 45); Ombrelle Lotion Extreme SPF 30; Ombrelle Lotion SPF 15; Ombrelle Lotion SPF 30; Ombrelle Lotion SPF 30 Pour Enfants; Ombrelle Sport Gel; Ombrelle Sport Lotion SPF 30; Ombrelle Sport Lotion SPF 45; Ombrelle Sport Spray; Ombrelle Sport Spray Spf15; Ombrelle Spray SPF 15; Ombrelle Spray SPF 15 Liq; Ombrelle Stick SPF 60; Ombrelle Ultra Light Advanced Lotion; Ombrelle Vapo Sport SPF 15; Ombrelle-15 Lot; Ombrelle-lotion SPF 15; Ombrelle-lotion SPF 30; Ombrelle-lotion SPF 45; Ombrelle-lotion Spf15; Optimum Bronzage Ensoleillement Fort; OraLabs SPF 15 Lip Balm; Orange Creamsicle SPF 15 Broad Spectrum Lip Balm; Orange Soda SPF 15 Broad Spectrum Lip Balm; Orchidee Double Defense Skin Shield; Original Lotion With Sunscreen; Origins A PERFECT WORLD AGE DEFENSE TINTED MOISTURIZER SPF 15; Origins A Perfect World SPF 15 Age-defense Tinted Moisturizer With White Tea; Origins A Perfect World SPF 25 Age-defense Moisturizer With White Tea; Origins A Perfect World SPF 40 Age-defense Moisturizer With White Tea; Origins Plantscription SPF 25 Anti-aging Cream; Origins Plantscription SPF 25 Anti-aging Oil-free Cream; Origins Plantscription SPF 25 Power Anti-aging Cream; Origins Plantscription SPF 25 Power Anti-aging Oil-free Cream; Origins Vitazing SPF 15 Energy-boosting Moisturizer; Outback 2 in 1 Protection; Outback Series 2-in-1 Sunscreen; Oxy Daily Moisturizer With SPF 15; PETER ISLAND Continuous Sunscreen KIDS 50 BROAD SPECTRUM SPF 50 Water Resistant; PETER ISLAND Continuous Sunscreen Sport 50 BROAD SPECTRUM SPF 50 Water Resistant; PHOTO FINISH FOUNDATION PRIMER BROAD SPEcTRUM SP 20 WITH DERMAXYL COMPLEX; PLANTSCRIPTION SPF 25 POWER ANTI-AGING oil FREE BROAD SPECTRUM; PLAY Antioxidant Body Mist SPF 30 with Vitamin C; PLAY Antioxidant Body Mist SPF 50 With Vitamin C; PLAY SPF 30 Lip Shield Coconut; PONDS clarant b3; PRIDEFUL SPF 15 LIP BALM-cherry vanilla; PRIDEFUL SPF 15 LIP BALM-citrus; PRIDEFUL SPF 15 LIP BALM-coconut; PRIDEFUL SPF 15 LIP BALM-melon; PRIDEFUL SPF 15 LIP BALM-orange mango; PRIDEFUL SPF 15 LIP BALM-passion fruit; PRINCIPAL SECRET Reclaim Revolutionary Anti-Aging Day SPF 15; PROVENCE CALENDULA AQUA SUN 35g; PROVENCE CALENDULA DAILY SUN BLOCK SPF50 Plus; Palm Island Broad Spectrum SPF 30 Sunscreen; Palm Island Broad Spectrum SPF 50 Sunscreen; Palmer's Cocoa Butter Formula Body Lotion SPF 15; Pamana Jack Broad Spectrum SPF 100; Pamana Jack Broad Spectrum SPF 15; Pamana Jack Broad Spectrum SPF 50; Pamana Jack Broad Spectrum SPF 75; Pamana Jack Kids Broad Spectrum SPF 50; Pamana Jack Sport Broad Spectrum SPF 50; Panama Jack BOAD SPECTRUM SPF 30; Panama Jack BOAD SPECTRUM SPF 50; Panama Jack BROAD SPECTRUM SPF 50; Panama Jack BROAD SPECTRUM SPF30; Panama Jack Broad Spectrum SPF 100; Panama Jack Broad Spectrum SPF 100 Sport Sunscreen; Panama Jack Broad Spectrum SPF 100 Sunscreen; Panama Jack Broad Spectrum SPF 15; Panama Jack Broad Spectrum SPF 15 Sport; Panama Jack Broad Spectrum SPF 30; Panama Jack Broad Spectrum SPF 50; Panama Jack Broad Spectrum SPF 70; Panama Jack Broad Spectrum SPF 8; Panama Jack SPF 30; Panama Jack SPF 50; Panama Jack SPF 8; Panama Jack SPF 85 Sport Dry Touch Sunscreen; Panama Jack Sunscreen Broad Spectrum SPF75; Parrot Head Fins Up 50 Mist Sunscreen; Parrot Head Fins Up Sport 15; Parrot Head Fins Up Sport 15 Mist Sunscreen; Parrot Head Fins Up Sport 30; Parrot Head Fins Up Sport 30 Mist; Parrot Head Floridays 30; Parrot Head Floridays 50; Parrot Head Floridays Face 50; Parrot Head Parakeet Kids 50; Parrot Head Parakeet Kids 50 Mist Sunscreen; Parsol Suncare SPF 29; Patricia Wexler Intensive 3-in-1 Day Cream with Sunscreen Broad Spectrum SPF 28; Patricia Wexler Skin Brightening Daily Moisturizer with Sunscreen Broad Spectrum SPF 28; Patricia Wexler Universal Anti-Aging Moisturizer with Sunscreen Broad Spectrum SPF 28; Patrick Dempsey 2 Moisturizer; Patricks Sunscreen; Paula's Choice Pc4men Daytime Protect Broad Spectrum SPF 30; Paulas Choice Clear Ultra-Light Daily Hydrating Fluid SPF 30; Paulas Choice Extra Care Non-Greasy Sunscreen SPF 50; Paulas Choice Lipscreen SPF 50; Paulas Choice Moisture Boost Daily Restoring Complex; Paulas Choice PC4MEN Daytime Protect; Paulas Choice RESIST Skin Restoring Moisturizer SPF 50; Paulas Choice Resist Smoothing Primer Serum SPF 30; Paulas Choice Resist Youth Extending Daily Hydrating Fluid SPF 50; Paulas Choice Ultra Sheer Daily Defense SPF 30; Pavin SPF 50 Sunscreen; Pc SPF Fps 15 Sunscreen Continuous Spray; Pc SPF Fps 15 Sunscreen Lotion; Pc SPF Fps 30 Sport Sunscreen Continuous Spray; Pc SPF Fps 30 Sport Sunscreen Lotion; Pc SPF Fps 30 Sunscreen Continuous Spray; Pc SPF Fps 30 Sunscreen Lotion; Pc SPF Fps 50 Sunscreen Continuous Spray; Pc SPF Fps 50 Sunscreen Lotion; Pc SPF Fps 50+ Kids Sunscreen Continuous Spray; Pc SPF Fps 50+ Kids Sunscreen Lotion; Pc SPF Fps 50+ Sunscreen Lotion; Peach Tanning Oil SPF 15; Peach Tanning Oil SPF15; Peach Tanning Oil SPF6; Pear SPF 30 Broad Spectrum; Pearlixime ILLUMINATING PERFECTING Sunscreen Broad Spectrum SPF 15; Pelagic Sun Protection Broad Spectrum SPF 50; Pep Start Hydrorush Moisturizer Broad Spectrum SPF 20; Peppermint Lip Balm; Peppermint SPF 15 Broad Spectrum Lip Balm; Peppermint SPF 30 Broad Spectrum Lip Balm; Per Sole by Britto Lip Balm Sunscreen Broad Spectrum SPF 30; Perfect Day 2 in 1 Everywear SPF 50 and Mint Condition Lip Shield SPF 30 Supergoop; Perfect Legs Skin Protector SPF 30; Perfect Truth Cc CRème; Perfect Truth Cc Eye CRème; Perfect Truth cc Broad Spectrum SPF 30 Ole Henriksen; Perfectif Even Skin Tone Cream Broad Spectrum SPF 30 Sunscreen; Perfecting Day Cream Broad Spectrum SPF 30 Pa +++; Perfectly Posh Block it Like its Hot Broad Spectrum SPF 30; Performance Moisturizer SPF 15; Performance Sunscreen SPF 45 Cream; Peter Island Baby Sunscreen SPF 50; Peter Island Continous sunscreen SPF 30; Peter Island Continous sunscreen SPF 50; Peter Island Continous sunscreen kids SPF 50; Peter Island Continuous Sport Sunscreen SPF 50; Peter Island Kids Sunscreen SPF 65; Peter Island Sunscreen SPF 30; Peter Island Sunscreen SPF 50; Peter Island Sunscreen SPF 70; Peter Island SunscreenSPF 50 SPF 50; Peter Island Ultimate Sheer Dry Touch Sunscreen SPF 70; Pharmasave Sport Sunscreen Continuous Spray SPF Fps 30; Phelityl Day Lotion SPF 15; Phelityl Day SPF 15; Phenomen-A Jour; Photo Dynamic Therapy SPF 30; Photo Finish Foundation Primer SPF 20; Photo Finish Protect Broad Spectrum SPF 45 Large Spectre Fps 45 Primer Unificateur De Teint; Photo Finish Protect Broad Spectrum SPF 45 Primer; Photo Regul Cream / CRème; Photo Regul Cream / CRème Unifying Protective Face Care / Soin Protecteur Visage Unificateur SPF 25 / Fps 25; Photo Regul Cream Unifying Protective Face Care SPF 25; Photo Regul Face SPF 25; Photo-radiance Treatment Traitement Photo-éclat SPF/fps 15 Uva/uvb; Photoblock; Photoderm SPF/fps 40 Spray; Photoderm SPF/fps 50+ CRème; Photoderm SPF/fps 50+ Lait; Photoplex Plus Broad Spect.sunscr.lot SPF 15; Picture Perfect Day Daily Moisturizer; Pigmentclar Uv SPF 30; Pina Colada Body SPF 30 Broad Spectrum; Pinea-C; Pineapple SPF 30 Broad Spectrum; Pineapple Tanning Oil SPF15; Pineapple Tanning Oil SPF6; Pixi Sun Serum SPF 30; Plantscription Anti Aging Oil Free Broad Spectrum SPF 25; Plantscription Anti-aging Broad Spectrum SPF 25; Plantscription SPF 25 Power Anti Aging Broad Spectrum 25; Play Antioxidant Body Mist WIth Vitamin C Broad Spectrum SPF 30; Play Body Mousse with Blue Sea Kale Broad Spectrum SPF 50; Play Everyday Lotion; Play Everyday Sunscreen SPF 50 with Sunflower Extract; Play It Safe Sunscreen SPF 30; Play Lip Balm Broad Spectrum SPF 30 with Mint; Play Lip Balm with Acai Broad Spectrum SPF 30; Play SPF 30 Lip Shield Strawberry; Plius Daily SPF Moisturizer SPF 30; Plushmallow SUNSTICK; Polyphenol C15; Pomegranate Lip Balm; Pomegranate SPF 15 Broad Spectrum Lip Balm; Pomegranate SPF 15 Lip; Pond's Replenishing Moisturizer Lotion SPF 15; Ponds Clarant B3; Ponds Luminous Moisture Day SPF 15; Ponds Vao-B3; Positively Ageless Daily Moisturizer; Positively Ageless Sunscreen Lotion SPF 60 Face; Positively Ageless Sunscreen Lotion SPF 85 Face; Positively Ageless Sunscreen Spray SPF 45; Positively Radiant Daily Moisturizer; Positively Radiant Daily Moisturizer SPF 15; Powder Foundation SPF 20; PowerPatch Dark Spot Protector; Powerbright Moisturizer SPF 50; Prebel Nude Protect SPF 70 Sunscreen; Premier Value Daily Facial Moisturizer; Premier Value Illuminating Daily Moisturizer; Premium Moisturizing Sunscreen SPF 30; Premium Moisturizing Sunscreen SPF 50; Premium Sunscreen Broad Spectrum SPF 30; Premium Sunscreen Face Lotion Sun Bum Face 50; Premium Sunscreen Lotion Sun Bum 30; Premium Sunscreen Lotion Sun Bum 50; Premium Sunscreen Lotion With Instant Bronzer Broad Spectrum SPF 15; Premium Sunscreen Spray Sun Bum 30; Premium Sunscreen Spray Sun Bum 50; Prep and Prime Fix Plus SPF 30 Broad Spectrum Sun; Prep and Prime SPF Mini Set; Prescriptives All You Need + Broad Spectrum Moisture Cream SPF 15; Prescriptives All You Need + Broad Spectrum Moisture Lotion SPF 15; Prescriptives All You Need + Continuous Action 24 Hour Moisture SPF 15 for Drier Skins; Prescriptives All You Need + Continuous Action 24 Hour Moisture SPF 15 for Normal Skins; Prescriptives All You Need + Continuous Action 24 Hour Moisture SPF 15 for Oilier Skins; Prescriptives Anti-age Advanced Protection Eye Cream SPF 25; Prescriptives Anti-age Advanced Protection Lotion SPF 25; Prescriptives Anti-age Advanced Protection Moisturizer SPF 25; Presidents Choice; Presun 30 Clear Gel Sunscreen; Presun 30 Cream Sunscreen; Presun 30 Cream Sunscreen for Kids; Presun 30 for Kids Cream Sunscreen; Presun Ultra 15 Cream; Presun Ultra 15 Gel; Presun Ultra 27 for Kids Spray; Presun Ultra 30 Cream; Presun Ultra 30 Gel; Presun Ultra 30 for Kids Cream; Prevage Anti Aging Moisture Broad Spectrum Sunscreen SPF 30; Prevage Anti Agining Triple Defense Shield Broad Spectrum Sunscreen SPF 50; Prevage Anti-aging Moisture Cream; Prevage Anti-aging Moisture Cream SPF 30; Prevage Anti-aging Moisture Lotion SPF 30; Prevage Anti-aging Triple Defense SPF 50 Sunscreen Sheer Lotion; Prevage anti aging SPF 30; Preventage Firming Defense CRème Normal/dry Broad Spectrum SPF 15; Preventage Firming Defense CRème Normal/oily Broad Spectrum SPF 15; Preventage Firming Defense Creme Normal/ Oily Broad Spectrum SPF 15; Preventage Firming Defense Creme Normal/Dry Broad Spectrum SPF 15; Preventage Firming Defense Creme Normal/Dry Merle Norman; Preventage Firming Defense Normal/Oily Broad Spectrum SPF 15 Merle Norman; Preventage Hand Treatment Broad Spectrum SPF 15; Preventage Hand Treatment Broad Spectrum SPF 15 Merle Norman; Prime Protection SPF 15; Primer Broad Spectrum Sunscreen; Prisma Protect SPF 30; Prisma Protect Spf30; Pro Triple Protection Factor Face and Body Broad Spectrum SPF 30 Sunscreen; Pro Triple Protection Factor Lip Balm Broad Spectrum SPF 30 Sunscreen; Pro Vive SPF 30; Pro-Care; Pro-Collagen Marine Broad Spectrum SPF 30; Pro-Collagen TSA Traveller Collection; Pro-X By Olay Dermatological Anti-aging Age Protection Lotion Sunscreen Broad Spectrum SPF 30; Pro-collagen Day and Night Duo; Pro-derm 50; Pro-derm Creme De Jour Optimal; Pro-derm Fps 60 SPF; ProX by Olay Dermatological Anti-Aging Intensive Wrinkle Protocol; Proactiv Clear Skin SPF 30; Proactiv MD Daily Oil Control SPF 30; Proactiv Solution Daily Protection Plus Sunscreen SPF 30; Procyte Neova Day Therapy SPF 30; Professional-C Suncare Broad Spectrum SPF 30 Sunscreen; Protect + Hydrate Face; Protect + Hydrate Moisturizing Sunscreen SPF 30; Protect + Hydrate Moisturizing Sunscreen SPF 50; Protect The Truth Broad Spectrum SPF 50+ Sunscreen; Protect The Truth SPF 50 Ole Henriksen; Protect and Prime Broad Spectrum SPF30; Protecting Body Oil SPF 15; Protecting Sun Care Lotion SPF 15; Protecting Sun Care Lotion SPF 8; Protection 50 Body; Protection 50 Sport; Protective Body Sunscreen; Protective Day; Protective Foundation Sunscreen SPF 15; Protective Foundation Sunscreen SPF 15 401 Creamy Bisque; Protective Foundation Sunscreen SPF 15 402 Fair Ivory; Protective Foundation Sunscreen SPF 15 404 Light Beige; Protective Foundation Sunscreen SPF 15 406 Medium Beige; Protective Foundation Sunscreen SPF 15 412 Natural Beige; Protective Foundation Sunscreen SPF 15 414 Fair Beige; Protective Gel-cream Body SPF 20; Protective Lotion SPF 15 Sunscreen; Protective Moisturizer Broad Spectrum SPF 30 Sunscreen; Protective Moisturizing Fluid Pour Homme - for Men; Protective Protectrice Sunscreen Spray Lotion Lotion Écran Solaire En Vaporisateur SPF/fps 15; Protective Protectrice Sunscreen Spray Lotion Lotion Écran Solaire En Vaporisateur SPF/fps 8; Protective Sport Sunscreen Ecran Solaire 30 SPF/fps; Protective Sunscreen SPF/fps 10 Écran Solaire Protecteur Dry Oil/huile Sèche; Protector SPF 15 Jafra Sun; Protectyl Soleil Moisturizing Sunscreen Lotion Minimal Protection Spf10; Protectyl Soleil Moisturizing Sunscreen Lotion Moderate Protection Spf15; Protectyl Soleil Moisturizing Sunscreen Spray Moderate Protection Spf15; Protectyl Soleil Suntan Lotion Bronzing Effect Tanning SPF 4; Protetor Solar Grip Action FPS 40; Provence Calendula Aqua Sun Ge L; Provence Calendula Daily Sun Block; Provence Calendula Perfect Sun Block; Publix Baby SPF 50; Publix Kids; Publix Kids SPF 50; Publix SPF 30; Publix SPF 50; Publix Sport SPF 50; Pur Confort Fps 15 SPF; Pur Confort SPF 15; PureLight SPF50; Puriton PERFECT BRIGHTENING SUNSCREEN; Purlisse Blue Lotus Daily Moisturizer SPF 30; Pursuit Body Surf Daily SPF 40 Body Sunscreen; Pursuit Hang 40 SPF 40 Sunscreen; Pursuit Hit the Lip SPF 15 Lip Balm; Q10 Power Tm/mc Anti-wrinkle Firming Day Cream; Queens Rose Whole In One Sunblock; Quercetin & Oak Hydrating Antiageing Antiwrinkle Day Cream; Quick Dry Body Broad Spectrum SPF40 Sunscreen UVA-UVB Sunscreen with SolSci-X; Quick Dry SPF 30 Sheer Finish Spray; Quick Dry SPF 50 Sheer Finish Spray; Quick Fluid Week-end; Quick Wrinkle Repair Moisturizer Broad Spectrum SPF30; Quiksilver SPF 30 Sunscreen 01; R.E.M. Day SPF 30; R.E.M. SPF 30; R.P. Sol; R2; R2 System; RAYDIANT by Australian Gold BROAD SPECTRUM SPF 50 Vitamin D; RE9 Advanced Deluxe Try Me Set; RE9 Advanced Skincare Sample Pack for Face Kit; RECIPE Infinite UV Shield Sunscreen Broad Spectrum SPF100; REDEFINE Regimen for the Appearance of Lines, Pores and Loss of Firmness Travel Size; REDEFINE Triple Defense; REDEFINE triple defense; REPASKIN FACIAL SUNSCREEN BROAD-SPECTRUM SPF 30 50ml; RESILIENCE MULTI-EFFECT TRI-PEPTIDE FACE AND NECK CREME BROAD SPECTRUM SPF 15 dry skin; REVERS Lightening Regimen for the Appearance of Stubborn Dark Marks, Patches and Age Spots Travel Size; REVERSE Brightening Defense Fluid; REVERSE Lightening Regimen for the Appearance of Stubborn Dark Marks, Patches and Age Spots; REVERSE Regimen for the Appearance of Skin Dullness, Discoloration and Uneven Skin Tone; REVERSE Regimen for the Appearance of Skin Dullness, Discoloration and Uneven Skin Tone Travel Size; REVITALIZING MOISTURIZING Sunscreen SPF 20; REVIVE INTENSITE CREME LUSTRE DAY Firming Moisture Cream Broad Spectrum SPF 30 Sunscreen; RITUALS Active Firming Day sunscreen broad spectrum SPF 15 dry skin; RITUALS Essential Anti-Aging Day SPF 15 sunscreen broad spectrum normal to dry skin; RITUALS SMOOTH OPERATOR caring lip balm broad spectrum SPF15 sunscreen 4.8g; RITUALS broad spectrum SPF 15 sunscreen Sensitive Skin Day; ROC MULTI CORREXION 5-In-1 Daily Moisturizer With Sunscreen Broad Spectrum SPF 30; RODAN - FIELDS ESSENTIALS Body Sunscreen BROAD SPECTRUM SPF 30; RR SPF30 Sun Stick; Radiant C Body Lotion SPF 15; Radiant C UVA/UVB Sunscreen; Radiant Day SPF 22; Radiant Skin Moisturizer SPF 15 Lotion; Rainbow Broad Spectrum SPF 30; Rapid Tone Repair Moisturizer; Rapid Wrinkle Repair Moisturizer; Rapid Wrinkle Repair SPF 30 Sunscreen; Raspberry Lime Margarita SPF 15 Broad Spectrum Lip Balm; Raspberry SPF 15 Broad Spectrum Lip Balm; Ray Defense Borad Spectrum SPF 30 sunscreen Biolements; Ray Defense Broad Spectrum SPF 30; Ray Defense SPF 30 Sunscreen; Raydiant By Australian Gold Vitamin D Broad Spectrum spf 30; Raydiant By Australian Gold Vitamin D Broad Spectrum spf 50; Raydiant by Australian Gold Broad Spectrum SPF 30 Vitamin D; Re Nutriv Radiant Uv Base Broad Spectrum SPF 50; Re9 Advanced Extra Moisture Restorative Cream With SPF 20; Re9 Advanced Restorative Cream With SPF 20; Re9 Advanced Set - All Skin Types; Re9 Advanced Set - Extra Moisture; Re9 Advanced for Men Facial Moisturizer With SPF 20; Re9 Advanced for Men Set; Re9 Advanced for Men Travel Set; ReVive Fermitif Hand Renewal Broad Spectrum SPF 15 Sunscreen; ReVive Fermitif Neck Renewal Broad Spectrum SPF 15 Sunscreen; ReVive Fermitif Neck Renewal SPF 15; ReVive Perfectif Even Skin Tone Dark Spot Corrector Broad Spectrum SPF 30 Sunscreen; ReVive Sensitif Oil Free Broad Spectrum SPF 15 Sunscreen; ReVive Sensitif Renewal Daily Cellular Protection Broad Spectrum SPF 30 Sunscreen; ReVive Soleil Superieur Broad Spectrum SPF 50 Sunscreen PA; Recapture 360 Day plus IR Defense; Recapture Day Plus IR Defense; Reclarx Moisture Shield; Rectifiance Intense - Creme Retexturante Anti-age-SPF 15; Rectifiance Intense-fluide Retexturant Anti-age-spf15; Rederm Moisturizing Lotion SPF 30; Redermic [c] Uv - SPF 25; Reef Babies SPF 50; Reef Babies SPF 50 Oxybenzone Free; Reef Kids SPF 30; Reef Kids SPF 30 Oxybenzone Free; Reef Kids SPF 40; Reef Safe SPF 20; Reef Safe SPF 30; Reef Safe SPF 30 Oxybenzone Free; Reef Safe SPF 40; Reef Safe SPF 50; Reef Safe SPF 50 Oxybenzone Free; Reef Safe Sun SPF 30 Oxybenzone Free; Refreshing Day Cream; Refreshing Sunscreen Spray Vaporisateur D'écran Solaire Rafraîchissant; Refreshmist Cucumber and Bamboo SPF 20; Regeneration Daily Protection Creme Broad Spectrum SPF 50; Regeneration Wrinkle Control Cream SPF 15; Rejuva Moisturizing Day Cream SPF 15; Rejuva Moisturizing Day Cream SPF 30; Rejuvenating Face Moisturizer SPF 30; Remedy Lip Balm; Renardblanc Multilayer Sun Block; Rener lift multi action ultra SPF 30; Renergie Lift Multi-action SPF 15; Renergie Lift Multi-action SPF 15 Firming Moisturizing Cream All Skin Types; Renergie Lift Multi-action SPF 15 Firming Moisturizing Rich Cream; Renew Face Dry Touch Sun Protection Broad Spectrum Uva/uvb Sunscreen Lotion SPF 30; Renewal 7-in-1 Anti-Aging Vitamin; Renewal Anti-Wrinkle; Renewed Hope In A Jar SPF 30; Renewing Antioxidant Treatment SPF 6 GNLD International; Renewing Treatment; Renove ROYAL PERFECT HAND Broad Spectrum SPF 15; Renove UV Shield Broad Spectrum SPF 50; Repair & Protect Moisturizer Broad Spectrum SPF 30; Repair and Protect Moisturizer Broad Spectrum SPF30; Replenishing Day Lotion Broad Spectrum SPF 20; Replenishing Hydrator SPF 25; Rescue Squad Broad Spectrum SPF 25; Resilience Lift Firming Sculpting Face and Neck Broad Spectrum SPF 15; Resilience Lift Firming Sculpting Face and Neck Broad Spectrum SPF 15 Nml Combo; Resilience Lift Firming- Sculpting Face and Neck Broad Spectrum SPF 15 for Dry Skin; Resilience Multi-effect Tri-peptide Face and Neck Creme Broad Spectrum SPF 15; Resist Daily Mattifying Fluid Broad Spectrum SPF 50; Resist Lip Gloss Broad Spectrum SPF 40; Resting Beach Face SPF30 Anti-Pollution Sunscreen Serum; Restorative Day Moisture SPF 15; Restorative Elements Even Defense SPF 30; Retexturizing Primer Broad Spectrum SPF 20; Retinol Day SPF 30 CVS; Retinol Hand SPF 15 Anti-age Care; Retisol-A; Retroactive + Day Youth Extending Cream SPF/fps 25 Uva/uvb; Revelage Arbonne Brightening Moisture Face Cream With SPF 30; Revelage Brightening Moisture Face Cream With SPF 30; Revelage Brightening Moisture Hand Cream With SPF 30; Reversa CRème Anti-rides Contour Des Yeux Fps 15; Reversa CRème Radiance Fps 30; Reversa Creme Contour Des Yeux Fps30; Reversa Creme Fps30; Reversa Sunscreen Cream SPF 30; Reversa Sunscreen Cream SPF 50+; Reversa Urban Protection Hydrating Care SPF 30 Soin Hydratant Protection Urbaine Fps 30; Reversa Uv Creme Visage Et Cou Fps 15; Reversa Uv Fluide Hydratant Non Gras Fps 15; Revitalift Anti-wrinkle + Firming Day Cream; Revitalift Bright Reveal Brightening Daily Lotion; Revitalift SPF 30; Revitalift Triple Power Lzr Day Lotion; Revitalift Triple Power Lzr Intensive Anti-aging Lotion; Revitalize Solar Protection Fluid Broad Spectrum SPF 50; Revitalizing Hand Lotion With SPF 15; Revitalizing Moisturizer With SPF 15; Revitalizing Supreme Plus Global Anti-aging Cell Power Creme Broad Spectrum SPF 15; Revive Moisturizing Renewal; Revlon Kiss Balm; Revlon Kiss Balm SPF 20; Revlon Moisturous Lip Color SPF 17; Rich Girl Hand; Rich Girl Hand SPF 25; Rimmel BB Beauty Balm Light; Rimmel BB Beauty Balm Medium; Rimmel BB Beauty Balm Medium Dark; Rimmel BB Cream 9-IN-1 Skin Perfecting Super Makeup Light Medium; Rimmel BB Cream 9-in-1 Skin Perfecting Super Makeup Light; Rimmel BB Cream 9-in-1 Skin Perfecting Super Makeup Medium; Rimmel BB Cream Beauty Balm Radiance SPF 20 Light; Rimmel BB Cream Beauty Balm Radiance SPF 20 Medium; Rimmel Insta Flawless Perfecting Radiant Skin Tint Light Medium; Rimmel Insta Flawless Perfecting Radiant Skin Tint Medium Dark; Risarium Black Rice Extreme Age-defying Line Reducing Moisture Face Cream SPF 15; Rite Aid Baby Sunscreen; Rite Aid Daily Moisturizer SPF 15; Rite Aid Essential Defense SPF 45; Rite Aid Kids Sunscreen SPF 50; Rite Aid Oil Free Faces Sunscreen SPF 30; Rite Aid RENEWAL SPF 30; Rite Aid RENEWAL SPF 50; Rite Aid RENEWAL Sport SPF 30; Rite Aid RENEWAL essential defense SPF 50; Rite Aid RENEWAL kids SPF 50; Rite Aid RENEWAL oil free faces; Rite Aid RENEWALSPF 50 SPF 50; Rite Aid SPF 30; Rite Aid SPF 50; Rite Aid Sport; Rite Aid Sport SPF 30 8 oz; Rite Aid Sport SPF 50; Rite Aid Sport Sunscreen; Rite Aid Sport SunscreenSPF 30 SPF 30; Rite Aid Sport SunscreenSPF 50 SPF 50; Rite Aid Sunscreen; Rite Aid Sunscreen SPF 30; Rite Aid Sunscreen SPF 50; Rite Aid Ultimate Sheer; RoC Brilliance Day Rejuvenating SPF20; RoC Multi Correxion; RoC Multi Correxion 4 Zone Daily Moisturizer Sunscreen Broad Spectrum SPF30; RoC Multi Correxion 5 in 1 Chest, Neck and Face Sunscreen Broad Spectrum SPF 30; RoC Multi Correxion 5 in 1 Daily Moisturizer Sunscreen Broad Spectrum SPF30; RoC Multi Correxion 5 in 1 Moisturizer Sunscreen Broad Spectrum SPF30; RoC Multi correxion Lift Anti Gravity Day Moisturizer SPF 30; RoC Multi correxion Lift Anti Gravity Day Moisturizer Sunscreen Broad Spectrum SPF30; RoC Retinol Correxion Deep Wrinkle Daily Moisturizer SPF30; RoC Retinol Correxion Deep Wrinkle Daily Moisturizer Sunscreen Broad Spectrum SPF30; Robanda Anti-Aging Hand; Roc Chronoblock; Roc Hydra+ Bio Active Anti-oxidant Bio-moisturizing Care SPF 30 Dry Skin; Roc Multi Correxion 5 In 1 Chest, Neck and Face Sunscreen Broad Spectrum SPF 30; Roc Multi Correxion 5 In 1 Daily Moisturizer Sunscreen Broad Spectrum Spf30; Roc Multi Correxion Hydrate and Plump Daily Moisturiser SPF 30; Roc Multi-correxion; Roc Retin-OL+ Day SPF 30; Roc Retinol Actif Pur Day SPF 15; Roc Retinol Correxion Deep Wrinkle Daily Moisturizer Sunscreen Broad Spectrum SPF 30; Roc Retinol Correxion Wrinkle Correct Daily Moisturizer SPF 30; Roc Soleil Protexion Daily Anti-ageing Sunscreen; Roc Soya Unify SPF 15; Rocky Mountain Broad Spectrum SPF 30; Rocky Mountain KIDS Broad Spectrum SPF 30; Rocky Mountain SPF 30; Rocky Mountain SPF 50; Rodan & Fields Proactiv + Daily Protection Moisturizer Broad Spectrum SPF 15; Rodan & Fields Proactiv Solution: Daily Protection Plus Sunscreen SPF 15; Rodan + Fields Essentials Face + Body Sunscreen; Rodan + Fields Redefine Triple Defense Cream; Rodan + Fields Redefine Triple Defense Lotion; Rodan + Fields Reverse Brightening Defense Fluid Lotion; Rodan + Fields Unblemish Invisible Matte Defense; Rodan + Fields Unblemish Kit; Rodan Fields Anti-Age Age Shield Hand SPF 30; Rodan and Fields ESSENTIALS Lip Shield Broad Spectrum SPF 25; Rodan and Fields Essentials UVA/UVB; Rodan and Fields REDEFINE Regimen for the Appearance of Lines, Pores and Loss of Firmness; Rodan and Fields Redefine AM SPF 30; Rodan and Fields Redefine Age Shield Hand Shield Balm SPF30; Rodan and Fields Reverse 4 Broad Spectrum SPF 50 Plus Sunscreen; Rodan+fields Essentials Body Sunscreen; Rodan+fields Essentials Lip Shield; Rodan+fields Redefine; Rodan+fields Redefine Age Shield Hand Balm; Rodan+fields Reverse; Rodan+fields Reverse Kit; Rodial Broad Spectrum SPF 50 Drops Anti-Blue Light and Pollution; Root Beer SPF 15 Broad Spectrum Lip Balm; Rosa Graf Forty Plus Protect; Rosa Graf Suntime Special; Rosaliac Uv; Rosaliac Uv Legere; Rosaliac Uv Riche; Rosasol; Rose All Day Moisturizer SPF 30; Royal Boost Cover Me Sunscreen Broad Spectrum SPF 30; Royal Defy Multi-Performance Age Protector Broad Spectrum SPF 50; Royal Jelly Defy Age and pollution protector Broad Spectrum SPF 50; Royal Jelly Hand Complex Broad Spectrum SPF 15; Royal Jelly Kit Jafra; Royal Men 3-in-1 Face Moisturizer Broad Spectrum SPF 20; Royal Men Sample Set; Rubber Ducky SPF 50 Sunscreen; Ryshi SPF 50 Sunscreen; Rénergie Lift Multi-action Ultra; Rénergie Lift Multi-action Ultra Spf30; SARAH CHAPMAN London SKINESIS Dynamic Defence Anti-Ageing Day SPF 15; SARAH CHAPMAN London SKINESIS Dynamic Defence Concentrate Anti-Ageing Day Cream SPF 15; SEEME BEAUTY Moisturizer with Sunscreen SPF 30; SENSE Daytime Protective Broad Spectrum SPF 15; SEPHORA Sunscreen Body Mist Broad Spectrum SPF 30; SEVEN MINERALS Skin Friendly SPF 30; SEVEN MINERALS Skin Friendly SPF 50; SHEER SPF 55 Well at Walgreens; SHISEIDO CLEAR SUNSCREEN SPF 50 Plus; SHISEIDO CLEAR stick UV PROTECTOR; SHISEIDO FUTURE solution LX TOTAL PROTECTIVE; SHISEIDO WASO SHIKULIME COLOR CONTROL oil-free MOISTURIZER Broad Spectrum SPF 30; SISLEYA Global Anti-Age Hand care SPF 15; SLMD Dual Defender SPF 30; SLMD Moisturizer with SPF; SOL LEON Sunscreen SPF 15; SOL LEON Sunscreen SPF 30; SOLEIL SUN Creme Solaire Visage et corps Sunscreen Face and Body Sunscreen Broad Spectrum SPF30; SOLMATE Broad Spectrum SPF 30; SOLMATE Broad Spectrum SPF 4; SOTHYS PARIS Sunscreen Face and Body Broad Spectrum SPF 30 UVA/UVB; SPF 15; SPF 15 Body Sunscreen Spray; SPF 15 Broad Spectrum Lotion; SPF 15 Broad Spectrum Sunscreen Lotion; SPF 15 Fps; SPF 15 Lip Conditioner; SPF 15 Lip and SPF 30 Sunscreen; SPF 15 Lotion; SPF 15 Performance Bodycare Sunscreen Spray; SPF 15 Self Tanner Lotion; SPF 15 Sheer Coverage Sunscreen Lotion - Australian Gold; SPF 15 Spray Gel Sunscreen With Bronzer - Australian Gold; SPF 15 Spray-ON Sunscreen; SPF 15 Sunscreen Continuous Spray; SPF 15 Sunscreen Continuous Spray - Australian Gold; SPF 15 Sunscreen Continuous Spray With Bronzer; SPF 15 Sunscreen Continuous Spray With Bronzer - Australian Gold; SPF 15 Sunscreen Lotion; SPF 15 Sunscreen Lotion - Australian Gold; SPF 15 for Men Maca Root Energetic Face Protector; SPF 20 Uva/uvb; SPF 25 Body Sunscreen Spray; SPF 25 Uva/uvb; SPF 30; SPF 30 Alcohol-free Spray Sunscreen; SPF 30 Alcohol-free Spray-ON Sunscreen; SPF 30 Anthelios XL Lotion; SPF 30 Body Sunscreen; SPF 30 Body Sunscreen Fragrance Free; SPF 30 Broad Spectrum Lotion; SPF 30 Clear Protect Continuous Spray; SPF 30 Face Sunscreen Lotion; SPF 30 Fps; SPF 30 Fps Sunscreen Lotion; SPF 30 Fps Sunscreen Lotion Lotion Écran Solaire; SPF 30 Hydrating Mist; SPF 30 Ideal Soleil Lip Protection Stick; SPF 30 Invisible Mist; SPF 30 Kids Alcohol-free Spray Sunscreen; SPF 30 Kids Alcohol-free Spray-ON Sunscreen; SPF 30 Kids Spray-ON Sunscreen; SPF 30 Kids Wet'n Protect; SPF 30 Mineral Sunscreen Face Neck; SPF 30 Oil Free Broad Spectrum Sunscreen Lotion; SPF 30 Performance Sunscreen Spray; SPF 30 Protection Primer; SPF 30 Scalp and Hair Mist; SPF 30 Sheer Coverage Sunscreen Lotion - Australian Gold; SPF 30 Sheer sunscreen face Ulta; SPF 30 Sport Broad Spectrum Sunscreen Lotion; SPF 30 Sport Clear Continuous Spray; SPF 30 Sport Continuous Spray Sunscreen; SPF 30 Sport Endurance; SPF 30 Sport Sunscreen CVS; SPF 30 Sport Sunscreen GoodSense; SPF 30 Sport Sunscreen Stick; SPF 30 Spray Gel Sunscreen With Bronzer - Australian Gold; SPF 30 Spray-ON Alcohol-free Sunscreen; SPF 30 Sunscreen; SPF 30 Sunscreen Canisun; SPF 30 Sunscreen Continuous Spray - Australian Gold; SPF 30 Sunscreen Continuous Spray With Bronzer - Australian Gold; SPF 30 Sunscreen Lotion; SPF 30 Sunscreen Skier's Defense; SPF 30 Sunscreen Tottle; SPF 30 Sunscreen Tottle w Carabiner; SPF 30 Ultra Light Advanced Weightless Body Lotion; SPF 30 Ultra Light Advanced Weightless Face Lotion; SPF 30 Ultra Sport Sunscreen Lotion; SPF 30 Ultra Sunscreen Continuous Spray; SPF 30 Ultra-lift; SPF 30 Uva/uvb Protection Lotion; SPF 30 Wrinkle Reducing Cream; SPF 30 face Moisturizer; SPF 30 tropical flavor sunscreen lip balm Ulta; SPF 30+ Spray-ON Sunscreen; SPF 30+ Sunscreen; SPF 32 Sunscreen Hawaiian; SPF 4 Spray Gel Sunscreen With Bronzer; SPF 45 Body and Scalp Sunscreen Continuous Spray; SPF 45 Clear; SPF 45 Clear Protect Continuous Spray; SPF 45 Cream; SPF 45 Sport Clear Continuous Spray; SPF 45 Sunscreen Lotion; SPF 50 Broad Spectrum Kids; SPF 50 Broad Spectrum Sunscreen Continuous Spray; SPF 50 Broad Spectrum Ultrathon; SPF 50 Classic Face Sport Coola Classic Sunscreen White Tea Moisturizer; SPF 50 Face Sunscreen Bioelements; SPF 50 Face Sunscreen Canisun; SPF 50 Fps; SPF 50 Funscreen Spray-ON Sunscreen for Kids; SPF 50 Invisible Mist; SPF 50 Kids Continuous Spray Sunscreen; SPF 50 Kids Sunscreen Lotion; SPF 50 Sport Sunscreen GoodSense; SPF 50 Sunburn Protection Lotion; SPF 50 Sunscreen; SPF 50 Sunscreen Continuous Spray Lotion; SPF 50 Sunscreen Lotion; SPF 50 Sunscreen Rocky Mountain; SPF 50 Sunscreen Spray; SPF 50 Uva/uvb; SPF 50 with SOLAR SMART; SPF 50+ Baby Broad Spectrum Sunscreen Lotion; SPF 50+ Broad Spectrum Sunscreen Lotion; SPF 50+ Broad Spectrum Sunscreen Mousse; SPF 50+ Continuous Spray Sunscreen; SPF 50+ Fps Face/ Visage; SPF 50+ Fps Ultra; SPF 50+ Fps Ultra Lotion; SPF 50+ Kids (80 Minutes) Water Resistant; SPF 50+ Kids Broad Spectrum Sunscreen Lotion; SPF 50+ Kids Lotion; SPF 50+ Kids Sunscreen Continuous Spray; SPF 50+ Kids Sunscreen Lotion; SPF 50+ Sport Broad Spectrum Sunscreen Continuous Spray; SPF 50+ Sport Broad Spectrum Sunscreen Lotion; SPF 50+ Sport Sunscreen Lotion; SPF 50+ Sunscreen Lotion; SPF 50+ Ultra Light Advanced Weightless Body Lotion; SPF 55 Sport Stick CVS; SPF 55 Sport Sunstick Well at Walgreens; SPF 55 Sunscreen Canisun; SPF 60; SPF 60 Anthelios XL Lightweight Lotion; SPF 60 Anthelios XL Lotion; SPF 60 Clear; SPF 60 Clear Protect Continuous Spray; SPF 60 Face Sunscreen Lotion; SPF 60 Kids Wet'n Protect; SPF 60 Sport Clear Continuous Spray; SPF 60 Sport Endurance; SPF 60 Sport Sunscreen Continuous Spray; SPF 60 Sport Sunscreen Lotion; SPF 60 Sunscreen Continuous Spray; SPF 60 Sunscreen Stick; SPF 60 Ultra Light Advanced Weightless Face Lotion; SPF 8 Sunscreen Continuous Spray With Bronzer; SPF 8 Sunscreen Lotion - Australian Gold; SPF Best Sellers Mini Kit; SPF Bestsellers Starter Kit; SPF Fps 100 Sun Protection Lotion; SPF Fps 30 Sport Sunscreen Continuous Spray; SPF Fps 30 Sun Protection Lotion; SPF Fps 30 Sunscreen Lotion; SPF Fps 40 Lotion; SPF Fps 40 Spray; SPF Fps 50 Baby Spray; SPF Fps 50 Kids Sunscreen; SPF Fps 50+ Sunscreen Lotion; SPF Fps 60 Sun Protection Lotion; SPF Moisturizer; SPF Multitaskers Mini Set; SPF Rx - Anti-Aging Sunscreen SPF 30; SPF Rx - SPF 15 Spearmint Lip Balm; SPF Rx - SPF 30 Mango Lip Balm; SPF Rx - Sport Sunscreen SPF 30; SPF Rx - Sport Sunscreen SPF 50; SPF-15 Sunscreen; SPF-60; SPF/fps 15; SPF/fps 30; SPF/fps 30 Body/corps; SPF/fps 30 Broad Spectrum Alcohol Free Sunscreen; SPF/fps 30 Broad Spectrum Sunscreen Spray; SPF/fps 30 Eco-lux Size/format Écolux Body / Corps; SPF/fps 30 Kids; SPF/fps 30 Lipbalm; SPF/fps 30 Oil Free Sunscreen Lotion; SPF/fps 30 Sport Sunscreen Lotion; SPF/fps 30 Sunscreen Continuous Spray; SPF/fps 30 Sunscreen Lotion; SPF/fps 45; SPF/fps 50; SPF/fps 50 Broad Spectrum Alcohol Free Sunscreen; SPF/fps 50 Fragrance-free Spray Sunscreen; SPF/fps 50 Kids; SPF/fps 50 Sunscreen Continuous Spray; SPF/fps 50+ Sheer Sunscreen Lotion; SPF/fps 60; SPF/fps 60 Continuous Spray; SPF/fps 60 Sunscreen Lotion; SPF15 Sunscreen; SPF15 sunscreen lip balm; SPF30 SUNSCREEN and SPF15 LIP BALM Combo; SPF30 Sunscreen; SPF30 Sunscreen and Antibacterial Hand Sanitizer; SPF30 Sunscreen and SPF15; SRB 3 Lighting White Sun; STUBBLE and STACHE Broad Spectrum SPF 30; SUNLEYA Age minimizing sun care SPF 15; SUNLEYA Age minimizing sun care SPF 50 plus; SUNPROOF INTENSIVE LIP BALM Broad Spectrum SPF 24 Sunscreen FRESH MINT; SUNPROOF INTENSIVE LIP BALM Broad Spectrum SPF 24 Sunscreen SWEET TANGERINE; SUNZEN Broad Spectrum SPF 30; SUNZONE FAMILY SPF 60 Broad Spectrum; SUNZONE FAMILY SPF30 SUNSCREEN Broad Spectrum; SUNZONE FAMILY SUNSCREEN SPF 30 Broad Spectrum; SUNZONE KIDS SPF 60 Broad Spectrum; SUNZONE SPF 15 Broad Spectrum; SUNZONE SPF 30 Broad Spectrum; SUNZONE SPF 50 Broad Spectrum; SUNZONE SPF 60 Broad Spectrum; SUNZONE SPF30 SUNSCREEN Broad Spectrum; SUNZONE SPORT SUNSCREEN SPF 30 Broad Spectrum; SUPER CREME SOLAIRE CORPS Body sun care SPF 15; SUPERDEFENSE BROAD SPECTRUM SPF 25 FATIGUE plus 1ST SIGNS OF AGE MULTI-CORRECTING; Safe Sea SPF 40; Safe Sea SPF 50; Safe Sea SPF 50 KIDS; Safe Sea SPF 50 kids; Safeway Signature Care Dry Touch Sunscreen SPF 55; Safeway Signature Care Kids Continuous Sunscreen Broad Spectrum SPF 50; Safeway Signature Care Sport Sunscreen SPF 50; Safeway Signature Sport Continuous Sunscreen SPF 30; Save Face AM Moisturizer Broad Spectrum SPF 35 Supergoop; Sayuki Anti-aging Daily Moisturizer SPF 30; Sayuki Broad Spectrum SPF 30 Anti-Aging Daily Moisturizer Sunscreen; Scalp Mist; ScalpHair MistSunscreen SPF30; Scape SPF 30 Athlete Sunblock; Scape SPF 30 Lip Balm; Scape SPF 50 Athlete Sunblock; Scape SPF 50 Moisturizing Face; Scar Cream SPF 30; Scar with SPF 30 Walgreens; Schick Hydro Silk Post-Dermaplaning Moisturizer Broad Spectrum SPF 50; Scrubs Sunscreen; Scrubs Sunscren; Sea & Ski All Day 30; Sea & Ski SPF 15 Advanced Sunblock; Sea & Ski SPF 30 Advanced Sunblock; Sea & Ski SPF 30 Sport Sunblock; Sea Results Line Resolution Cream SPF 30; Sea Results Line Resolution Sea Results Line Resolution SPF30; Sea and Ski Kids SPF 70 C-Spray; Sea and Ski SPF 15 C-Spray; Sea and Ski SPF 15 Sport Sunblock; Sea and Ski SPF 30; Sea and Ski SPF 30 C-Spray; Sea and Ski SPF 50; Sea and Ski SPF 50 C-Spray; Sea and Ski SPF 50 Sport; Sea and Ski SPF 50 Sport C-Spray; Sea and Ski SPF 70; Sea and Ski SPF 70 C-Spray; Sea and Ski SPF 70 Kids; Seaweed Bath Co SPF 40 Sport; Seaweed Mattifying Moisture Lotion SPF 15; Seaweed Moisturizer SPF15; Seaweed Oil-Control SPF 15; Seaweed Oil-control Lotion SPF 15; Sebamed SPF 25 Lip Defense; Sebamed Sun Cream SPF 16; Sebamed Sun Cream SPF 20; Sebamed Sun Cream SPF 8; Sebamed Sun Lotion SPF 16; Sebamed Sun Lotion SPF 20; Sebamed Sun Lotion SPF 8; Secret Key Thanakha Aqua SunLotion SPF35 PA PLUS PLUS PLUS; Secret Muse Vita Blue Sun; Securewhite Cream SPF 30; Sei Bella Advanced Revital R3 Age Defying Creme; Sei Bella Daytime Delivery; Sei Bella Tinted BB Moisturizing Creme Broadspectrum SPF 20 Beige 300 N; Sei Bella Tinted BB Moisturizing Creme Broadspectrum SPF 20 Beige 320 W; Sei Bella Tinted BB Moisturizing Creme Broadspectrum SPF 20 Beige 340 N; Sei Bella Tinted BB Moisturizing Creme Broadspectrum SPF 20 Blush 140 C; Sei Bella Tinted BB Moisturizing Creme Broadspectrum SPF 20 Blush 160 N; Sei Bella Tinted BB Moisturizing Creme Broadspectrum SPF 20 Blush 200 W; Sei Bella Tinted BB Moisturizing Creme Broadspectrum SPF 20 Blush 220 C; Sei Bella Tinted BB Moisturizing Creme Broadspectrum SPF 20 Deep 560 C; Sei Bella Tinted BB Moisturizing Creme Broadspectrum SPF 20 Tan 440 C; Sei Bella Tinted BB Moisturizing Creme Broadspectrum SPF 20 Tan 500 W; Select Brand Baby Sunscreen; Select Brand Sport Sunscreen SPF 30; Select Brand Sunscreen; SeneGence Facial Moisturizer For Men SPF 20; SeneGence SeneSun Hydrating Facial Sunscreen SPF 20; Sensai Cellular Performance Wrinkle Repair Collagenergy Spf20; Sensai Lip Base Spf15; Sensai Silky Bronze Sun for Body Spf20; Sense Daytime Protective Emulsion Sunscreen SPF 15; Sensitif Renewal Cream Daily Protection SPF 30 Broad Spectrum UVA UVB Sunscreen; Sensitive Expert+ Face; Sensitive Expert+ Sunscreen; Sensitive Facial Moisturizer Broad Spectrum SPF 15 Lotion; Sensitive Skin Sunscreen Continuous Spray SPF 30; Sensitive Skin Sunscreen Continuous Spray SPF 50 Plus; Sensitive Skin Sunscreen Lotion SPF 30; Sensitive Skin Sunscreen Lotion SPF 50+; Sephora 8hr Mattifying Moisturizer Sunscreen Broad Spectrum SPF 20; Sephora Perfecting Tinted Moisturizer Light 15 Nude SPF 20; Sephora Perfecting Tinted Moisturizer Medium 26 Peach SPF 20; Sephora Perfecting Tinted Moisturizer Medium 28 Camel SPF 20; Sephora Perfecting Tinted Moisturizer Tan 35 Bronze SPF 20; Sephora Perfecting Tinted Moisturizer Tan 40 Hazelnut SPF 20; Serious Skincare Daytech 30; Serious Skincare Serious C3 Plasma Bio Technology C Vitamin C Ester Protective Daytime Broad Spectrum Moisturizer SPF 30; Serious Skincare Serious-C3 Plasma Tm Bio Technology C Vitamin C Ester Protective Daytime Broad Spectrum Moisturizer SPF 30; Session Savers Sunscreen Broad Spectrum SPF 30 Water Resistant; Shameless; Shamrock Sun SPF 50; Shamrock Sun SPF50 Sunscreen; Shea Butter Protective SPF 20; Sheer; Sheer Coverage Continuous Spray Sunscreen SPF 50; Sheer Coverage Faces Lotion SPF 45 Australian Gold; Sheer Coverage Faces Sunscreen Lotion SPF 45 With Bronzer; Sheer Cream Lipstick Broad Spectrum SPF 15; Sheer Daily Moisturizer; Sheer Hydration Sunscreen Broad Spectrum SPF 35; Sheer Hydration Sunscreen Broad Spectrum SPF 40; Sheer Lotion SPF 45 Bare Skin Feel; Sheer Lotion SPF 50; Sheer Lotion SPF 60 Bare Skin Feel; Sheer Lustre Day Moisture Broad Spectrum SPF 15 Pa+++; Sheer Oil Free Sunscreen Lotion 30 SPF/fps; Sheer SPF 100 Well at Walgreens; Sheer SPF 30 Oil Free Well at Walgreens; Sheer SPF 30 Well at Walgreens; Sheer Sunscreen SPF 30 CVS Health; Sheer Sunscreen SPF 30 Meijer; Sheer Sunscreen SPF 30 Wegmans; Sheer Touch Sunscreen; Sheer Touch Toucher Soyeux Oil-free Sunscreen Écran Solaire Sans Huile; Sheer Touch Toucher Soyeux Oil-free Sunscreen Écran Solaire Sans Huile SPF/fps 50+; Sheer Touch/toucher Soyeux Oil-free Sunscreen/écran Solaire Sans Huile SPF/fps 15; Sheer Touch/toucher Soyeux Oil-free Sunscreen/écran Solaire Sans Huile SPF/fps 30; Sheer Touch/toucher Soyeux Oil-free Sunscreen/écran Solaire Sans Huile SPF/fps 45 Ultra Radiance/ultra-radieux; Sheer Touch/toucher Soyeux Oil-free Sunscreen/écran Solaire Sans Huile SPF/fps 60 Ultra Radiance/ultra-radieux; Sheltered Broad Spectrum SPF 55 Sunscreen; Shine Control Sunscreen Broad Spectrum SPF 50; Shine On Lip Sunscreen Broad Spectrum SPF 50; Ships Ahoy Seashore Sunscreen Broad Spectrum SPF 30 Jafra; Shirley Temple SPF 15 Broad Spectrum Lip Balm; Shiseido Benefiance Nutriperfect Day; Shiseido Benefiance Wrinkle Smoothing Day; Shiseido Benefiance Wrinkleresist24 Day; Shiseido Benefiance Wrinkleresist24 Protective Hand Revitalizer; Shiseido Essential Energy Day; Shiseido Essential Energy Hydrating Day; Shiseido Future Solution LX Total Protective; Shiseido Future Solution LX Total Protective E; Shiseido Future Solution Lx Daytime Protective; Shiseido Future Solution Lx Total Protective; Shiseido Future Solution Lx Total Protective Cream; Shiseido Future Solution Lx Total Protective Emulsion; Shiseido Glow Enhancing Primer; Shiseido Ibuki Protective Moisturizer; Shiseido Refreshing Sun Protection; Shiseido The Skincare Day Moisture Protection; Shiseido The Skincare Day Moisture Protection Enriched; Shiseido Ultimate Sun Protection; Shiseido Ultimate Sun Protector; Shiseido Urban Environment Fresh-moisture Sunscreen SPF 42; Shiseido Urban Environment Vita-clear Sunscreen; Shiseido Uv Lip Color Splash Miami Pink; Shiseido Uv Lip Color Splash Nairobi Orange; Shiseido Uv Lip Color Splash Tahiti Blue; Shiseido Uv Lip Color Splash Uluru Red; Shiseido Vital Perfection Uplifting and Firming Day; Shiseido White Lucent All Day Brightener; Shiseido White Lucent All Day Brightener N; Shiseido White Lucent Brightening Protective Moisturizer N; Shiseido White Lucent Brightening Protective W; Shiseido White Lucent Day; Shiseido White Lucent Protective Moisturizer SPF 16; ShopKo Absolute Daily Moisturizer SPF15 Sensitive Skin; ShopKo Absolute Daily Moisturizing Broad Spectrum SPF15 Sunscreen; ShopKo Illuminating Daily Moisturizer Broad Spectrum SPF15 Sunscreen; Shopko Anti-Wrinkle and Firming Moisturizer Day Broad Spectrum SPF18; Shopko Long Lasting Oil Free Moisturizer Broad Spectrum SPF15; Signature Body Japanese Cherry Blossom SPF 15; Signature Body Moonlight Path SPF 15; Signature Body Sweet Pea SPF 15; Signature Body Twilight Woods SPF 15; Signature Body White Citrus SPF 15; Signature Care Sheer Face and Body SPF 70 Sunscreen; Signature Care Sport SPF 15 Clear; Signature Care Sport SPF 30 Sunscreen; Signature Care Sport SPF 50 Sunscreen; Signature Sunscreen Broad Spectrum SPF 25 Malibu Heat; Silk Hydration Weightless Clear Sunscreen Spray SPF 30; Silk Hydration Weightless Face; Silkies Enriche Ageless Moisturizer; Silky CRème Soyeuse SPF/fps 2; Silky Sheer Bb Face Lotion SPF 50; Silky and Clear Sunscreen; Simple; Simple Light Moisturizer SPF 15; Simple Men plus Care Hydrate Face; Simple Protecting Light Moisturizer Broad Spectrum SPF 15 Sunscreen; Simple Protecting Light Moisturizer SPF 15; Simple Vital Vitamin Day Cream SPF 15; Simple Vital Vitamin Day SPF 15; Simply Protect Sensitive Sunscreen Spray SPF 50+; Skin Activator Day SPF 15; Skin Activator Lip Refiner SPF 15; Skin Activator Sunscreen Day Lotion Broad Spectrum SPF 15; Skin Active Intensive Day; Skin Balancing Makeup Broad Spectrum SPF 20 Jafra; Skin Balancing Ultra Sheer Daily Defence SPF 30 Paulas Choice; Skin Balancing Ultra-sheer Daily Defense Broad Spectrum SPF 30; Skin Best Cream SPF 15 All Skin Types; Skin Best Cream SPF 15 Dry Skin; Skin Care Prescription; Skin Caviar Essence In Foundation Broad Spectrum SPF 25 Sunscreen Mocha; Skin Crave Broad Spectrum spf30; Skin Crave spf15 lip balm; Skin Effects by Dr. Jeffrey Dover Glycolic Day; Skin Firm Lipoamino hydrator SPF 15 Molton Brown; Skin Pharmacy Advanced Sun Therapy Broad Spectrum SPF 30 Sun; Skin Renew Even Tone; Skin So Soft DD Body; Skin So Soft Dd Firm & Restore Body Cream; Skin So Soft Firm and Restore Age Defying Corrective Neck and Chest; Skin So Soft Firm and Restore Neck and Chest Treatment; Skin Strong - Skin Equipment SPF 30 Sunscreen; Skin Strong - Skin Equipment SPF 55 Sunscreen; Skin Vivo Uniformity SPF 15; SkinCeuticals Daily Brightening UV Defense Broad Spectrum SPF 30 Sunscreen; SkinCeuticals Light Moisture UV Defense Broad Spectrum SPF 50 Sunscreen; SkinCeuticals Sport UV Defense Sunscreen Broad Spectrum SPF 50; SkinDog; SkinPharmacy Advanced Anti-Aging Therapy Glycolic Day Moisturizer SPF 30; SkinPharmacy Advanced Anti-Aging Therapy Retinol Day Moisturizer SPF 30; SkinPharmacy Advanced Sun Therapy Broad Spectrum SPF 50 Face; SkinProtect SPF 50 SHEER ROLLER SUNSCREEN; SkinTx Sunscreen SPF 30; Skincare LdeL Retinol Day Broad Spectrum SPF 20; Skinfood Miracle Food 10 Solu Tion Sun Essence; Skinnies SPF30 Sungel; Skinprint Ultra Sheer SPF 20; Slow Âge Daily Cream; Slow Âge Daily Lotion; Smart Tone Broad-spectrum Sunscreen SPF 50; Smashbox Photo Finish Foundation Primer SPF 20; Smooth Mint Lip Balm; Snappy SPF 30 Sunscreen; SnappyScreen SPF 15; SnappyScreen SPF 40; Snik - Lot; Snik Lotion SPF 15; Snik Lotion SPF 38; Snik Sun Milk - Crm; Snow Skin Sunscreen Lip Balm; SnowSkin GolfersSkin Sunscreen Lip Balm; SnugZ SPF 15 Beeswax Lip Balm; SnugZ SPF 15 Flavored Beeswax Lip Balm; SnugZ SPF 30 Broad Spectrum Sunscreen; SnugZ SPF 30 Soy Lip Balm; SnugZ SPF 50 Broad Spectrum Sunscreen; SnugZ SPF 50 Sunscreen Spry; Sodium Sulfacetamide and Sulfur; Soft Focus City Suncreen Serum Broad Spectrum SPF 30 Supergoop; Softlips Flavour Fusions Lip Moisturizer; Softlips Ultra 30; Soin Auto-bronzant Visage Bronzage Intense SPF 15; Soin Auto-bronzant Visage Bronzage Naturel SPF 15; Soin Bonne Mine Express SPF 12 - Azzaro Chrome; Soin Hydratant Anti-rides Fps 15; Soin Solaire Autobronzant SPF 8 - Crm; Soin Solaire Visage CRème Protectrice Visage Fps 30; Soin Solaire Visage CRème Protectrice Visage Fps 50 Plus; Soin Solaire Visage Creme Multi-protection Fps 30; Soin Ultime Jeunesse Mains CRème Fps 30 Pure; Soins Soleil CRème Teintée Anti-rides Age-defying Tinted Cream Faible/low Protection Uva/uvb Spf10; Soins Soleil-CRème Visage Et Corps/ Face and Body Cream Faible/low Protection Uva/uvb Spf10; SolMate BROAD SPECTRUM SPF 15; SolMate BROAD SPECTRUM SPF 30; SolMate BROAD SPECTRUM SPF 50; SolMate BROAD SPECTRUM SPF 8; SolMate Baby Broad Spectrum SPF50; SolMate Broad Spectrum SPF 15; SolMate Broad Spectrum SPF 30; SolMate Broad Spectrum SPF 50; SolMate Continuous Sunscreen Broad Spectrum SPF 15; SolMate Kids BROAD SPECTRUM SPF 50; SolMate broad spectrum spf 8; SolRX Kids SPF 60 C-spray; SolRX Sport SPF 30 C-Spray; SolRX Sport SPF 50 C-Spray; SolRX Sport SPF 70 C-spray; SolScents Deep Love broad spectrum spf 30; SolScents flower blast broad spectrum spf 50; Solaire Peau Parfaite Sunscreen SPF 30; Solar Defense Body; Solar Defense Booster SPF50; Solar Moisturizer SPF 30; Solar Protection Fluid Broad Spectrum SPF 50; Solar Screen SPF 12; Solar Sense Clear Sun Protection; Solar Sense Clear Zinc Body SPF 50; Solar Sense Clear Zinc For Face And Lips SPF 50; Solar Sense Clear Zinc Sport Body SPF 50; Solar Sense SPF 50 Daily Facial Sunscreen; Solarguard MD; Solbar Avo SPF35; Solbar Fifty SPF50; Solbar Thirty SPF 30; Soleil Ambre SPF 5; Soleil Broad Spectrum SPF-30; Soleil Broad Spectrum SPF-50; Soleil Bronzant SPF 12; Soleil Expert Sun Care SPF 15 Face and Body Lotion; Soleil Expert Sun Care SPF 15 Water-light Spray; Soleil Expert Sun Care SPF 25 Face and Body Lotion; Soleil Expert Sun Care SPF 30 Face Creme; Soleil Filtrant SPF 25; Soleil Forte Multi; Soleil Protexion Invisible Touch SPF 30; Soleil Protexion Invisible Touch SPF 45; Soleil Protexion Sun Lip Stick Velvet Moisture SPF 20; Soleil Protexion Sun Lip Stick Velvet Moisture SPF 30; Soleil Protexion Velvet Moisture Quenching Cream Combination Skin; Soleil Protexion Velvet Moisture Quenching Cream Normal Skin; Soleil Superieur Body SPF 50 US; Soleil Superieur Broad Spectrum SPF 50 Sunscreen US; Soleil Tojours Broad Spectrum SPF 50; Soleil Toujours Broad Spectrum SPF 30; Soleil Toujours Broad Spectrum SPF 30 Sunscreen; Soleil Toujours Broad Spectrum SPF 50 Set Protect Micro Mist; Soleil Toujours SPF 15 Sheer Sunscreen; Soleil Toujours SPF 30 Sheer Sunscreen; Soleil Toujours SPF 30 Sheer Sunscreen Mist; Soleil Toujours SPF 50 Sheer Sunscreen; Soleil Toujours SPF 50 Sheer Sunscreen Mist; Soleil Toujours SPF 50 Sunscreen Mist; Solimo General Protection SPF 50 Sunscreen; Solimo General Protection Sunscreen SPF 50; Solimo Kids SPF 50 Broad Spectrum Sunscreen; Solimo Kids Sunscreen SPF 50; Solimo Sport SPF 30 Sunscreen; Solimo Sport SPF 50 Broad Spectrum Sunscreen; Solimo Sport SPF 50 Sunscreen; Solimo Sport Sunscreen SPF 30; Solimo Sport Sunscreen SPF 50; Solimo Ultra Light Sunscreen Broad Spectrum SPF 70; Solmate BROAD SPECTRUM SPF 50 Sport Sunscreen; Solmate Broad Spectrum SPF 50 C/S Sunscreen; Solmate Sunscreen Broad Spectrum SPF 30; Solutions A.M. Ageless Results Day Cream; Solutions A.M. Complete Balance Day; Solutions A.M. Complete Balance Day Cream CRème De Jour; Solutions A.M. Total Radiance; Solutions A.M. Total Radiance Day Lotion; Solutions Ageless Results Day; Solutions Am Total Radiance Day Cream; Solutions Neck and Chest Perfector; Soothe and Hydrate Starter Set; Soothing Care; Soothing Day Cream; Soothing Day Cream SPF 15; Soothing Day SPF 15; Soprt Sunscreen SPF 50; Spa Cology Sport Sunscreen SPF 30; Spa Cology Ultra Sheer Face and Body Sunscreen SPF 70; Spa Day Care for Hands Broad Spectrum SPF 15; Spa Niacinamide And Vitamin E Hand Cream Broad Spectrum SPF 15; Spa Pharma Anti-Aging Acocado Cream SPF 25 Listing; Spa Pharma BB Cream SPF 50; Spa Pharma Day Defense Moisturizing Cream; Spa Pharma Moisturizer Cream SPF 50; Spa Pharma Multi vitamin Cream SPF 25; Spa Pharma Olive Oil Moisturizing Cream; Spa Pharma Regenerating Pomegranate Cream; Spa Skilha Helioprot Ab SPF 40; Spa Sun - Sun Protection SPF 30 - Face and Body; Spearmint Lip Balm; Spearmint Lip Balm Broad Spectrum Vertra; Spearmint SPF 15 Broad Spectrum Lip Balm; Spearmint SPF 15 Lip; Spearmint SPF 30 Broad Spectrum Lip Balm; Specific Beauty Daily Hydrating SPF 30; Specter Capital Tropical Blend Broad Spectrum SPF 30 Sunscreen; Spf15; Splash Kids 45 SPF/fps Sunscreen Lotion Écran Solaire; Sport; Sport 30 Continuous Spray Sunscreen Écran Solaire En Vaporisateur; Sport 30 Lotion Sunscreen Lotion Écran Solaire; Sport 30 Pump Spray Gel Sunscreen Écran Solaire Gel En Vaporisateur; Sport 30 SPF Fps Continuous Spray; Sport 50; Sport 50 Continuous Spray Sunscreen Ecran Solaire En Vaporisateur; Sport Lotion SPF 30; Sport Performance Powder-dri Sunscreen Lotion Ecran Solaire SPF/fps 30; Sport Performance Spray Sunscreen / Écran Solaire En Vaporisateur SPF/fps 60; Sport Performance Spray Sunscreen Ecran Solaire En Vaporisateur SPF Fps 30; Sport Performance Spray Sunscreen Ecran Solaire En Vaporisateur SPF/fps 15; Sport Performance Spray Sunscreen Écran Solaire En Vaporisateur SPF Fps 100; Sport Performance Spray Sunscreen Écran Solaire En Vaporisateur SPF/fps 60 Photostable; Sport Performance Spray Sunscreen/ecran Solaire En Vaporisateur SPF Fps 50; Sport Performance Sunscreen Lotion Ecran Solaire SPF/fps 30; Sport Performance Sunscreen Lotion Ecran Solaire SPF/fps 50; Sport Performance Sunscreen Lotion Lotion Écran Solaire SPF Fps 60; Sport Performance Sunscreen Lotion Lotion Écran Solaire SPF/fps 30 Photostable; Sport Performance Sunscreen Lotion Lotion Écran Solaire SPF/fps 60 Photostable; Sport Performance Sunscreen Lotion Écran Solaire SPF Fps 30 Technologie Avotriplex Technology; Sport Performance Sunscreen Lotion Écran Solaire SPF Fps 50 Technologie Avotriplex Technology; Sport Performance Sunscreen Stick Ecran Solaire En Bâtonnet SPF Fps 50; Sport Performance Sunscreen Écran Solaire SPF Fps 100; Sport SPF 15; Sport SPF 15 daylogic; Sport SPF 30; Sport SPF 30 Body and Scalp Quick Dry Spray; Sport SPF 30 CareOne; Sport SPF 30 Daylogic; Sport SPF 50; Sport SPF 50 Sunscreen; Sport SPF 50 daylogic; Sport SPF 70; Sport SPF/fps 30 Sunscreen Spray Écran Solaire En Vaporisateur; Sport Sunscreen; Sport Sunscreen Broad Spectrum SPF 15 Lotion; Sport Sunscreen Broad Spectrum SPF 15 Spray; Sport Sunscreen Broad Spectrum SPF 30 Lotion; Sport Sunscreen Broad Spectrum SPF 30 Spray; Sport Sunscreen Broad Spectrum SPF 60 Lotion; Sport Sunscreen Broad Spectrum SPF 60 Spray; Sport Sunscreen Continuous Spray SPF 15; Sport Sunscreen Continuous Spray SPF 30; Sport Sunscreen Continuous Spray SPF 50+; Sport Sunscreen LiquidShade; Sport Sunscreen Lotion SPF 30; Sport Sunscreen Lotion SPF 50+; Sport Sunscreen SPF 15 Meijer; Sport Sunscreen SPF 30; Sport Sunscreen SPF 30 CareOne; Sport Sunscreen SPF 30 Daylogic; Sport Sunscreen SPF 30 Exchange Select; Sport Sunscreen SPF 30 GoodSense; Sport Sunscreen SPF 30 Lotion; Sport Sunscreen SPF 30 Meijer; Sport Sunscreen SPF 30 Quality Choice; Sport Sunscreen SPF 30 TopCare; Sport Sunscreen SPF 30 Wegmans; Sport Sunscreen SPF 45; Sport Sunscreen SPF 50; Sport Sunscreen SPF 50 Daylogic; Sport Sunscreen SPF 50 TopCare; Sport Sunscreen SPF 70; Sport Sunscreen Stick Broad Spectrum SPF 30; Sport Sunstick SPF 30 Sunscreen; Sport for Kids Sunscreen Lotion Spray SPF 50+; SpotFade Clear Sunscreen Broad Spectrum SPF 25; Spray Auto-bronzant SPF 15; Spray Bronzant Protecteur SPF 10; Spray Des Intolerances Solaires; Spray Huile Solaire Bronzage Intense SPF 4; Spray Lotion Solaire Haute Protection SPF 15; Spray Solaire Bronzage Tres Rapide Special Peaux Halees SPF 6; Spray Solaire Huile Embellissante Corps SPF 30; Spray Solaire Lait-fluide Douceur SPF 20; Spray Solaire Lotion Non Grasse Protection Moyenne Spécial Sports 15 SPF; Spray Solaire Lotion Non Grasse Spécial Sports SPF 15; Spray Solaire Protection Élevée SPF 50; Spray Solaire Transparent; Spray Sunscreen Écran Solaire En Vaporisateur SPF Fps 30; Spray Sunscreen Écran Solaire En Vaporisateur SPF Fps 60; Sprayable Sunscreen Lotion SPF 40; Spraygel; Spraygel With Instant Bronze Tint SPF 15; Spraygel With Instant Bronze Tint SPF 30; Spraygel With Instant Bronze Tint SPF/fps 15; Spritz Solaire Corps Fps 30; Ss-tmpfl; St. Ives Elements; St. Ives Men plus Care Hydrate Face; Stick Nutri Protecteur Protection Elevee; Stick Solaire Pour Zones Sensibles SPF 30; Stila CC Color Correcting Broad-Spectrum SPF 20 (All Shades); Stila Hydrating Primer Base SPF 15; Stila Hydrating Primer Oil-Free SPF 30 (All Shades); Stila Illuminate and Shine; Stila Illuminating Tinted Moisturizer Medium SPF 15; Stila Illuminating Tinted Moisturizer Natural SPF 15; Stila Sheer Color Tinted Moisturizer Bare SPF 15; Stila Sheer Color Tinted Moisturizer Bronze SPF 15; Stila Sheer Color Tinted Moisturizer Dark SPF 15; Stila Sheer Color Tinted Moisturizer Deep SPF 15; Stila Sheer Color Tinted Moisturizer Fair SPF 15; Stila Sheer Color Tinted Moisturizer Light SPF 15; Stila Sheer Color Tinted Moisturizer Medium SPF 15; Stila Sheer Color Tinted Moisturizer SPF 15; Stila Sheer Color Tinted Moisturizer Tan SPF 15; Stila Sheer Color Tinted Moisturizer Tone SPF 15; Stila Sheer Color Tinted Moisturizer Warm SPF 15; Stokoderm Sun Protect 30 PURE; Stokoderm Sunprotect 30 Pure; Stokoderm Sunscreen PURE; Stokoderm UV 30; Stop The Clock Broad Spectrum SPF 50; Strawberry Limoncello SPF 15 Broad Spectrum Lip Balm; Strawberry SPF 15 Broad Spectrum Lip Balm; StriVectin ANTI-WRINKLE GLOWFECTOR SPF 30; StriVectin Advanced Retinol Daily Repair Moisturizer SPF30; StriVectin Advanced Retinol Day Moisturizer Broad Spectrum SPF30; StriVectin Advanced SPF Full Screen Clear Finish; StriVectin Advanced SPF Full Screen Illuminating; StriVectin Clinical Corrector ANTI-AGING LIP TINT PINK; StriVectin Clinical Corrector ANTI-AGING LIP TINT PLUM; StriVectin multi-action Super-C SPF 30; StriVectin-SH NIA-114 UVA UVB Shields SPF 30; Strivectin-AR Advanced Retinol Day Lotion SPF 30; Strivectin-CC Clinical Corrector Anti-aging Lip Tint SPF 20; Studio Moisture Fix Broad Spectrum SPF 15; Sublime Sun Lotion SPF 15; Sublime Sun Lotion SPF 30; Sublime Sun Lotion SPF 50; Sublime Sun Mousse SPF 30; Sublime Sun Mousse SPF 50; Sublime Sun Oil Spray SPF 15; Sublime Sun Oil Spray SPF 30; Sublime Sun Oil Spray SPF 50; Sublime Sun Ultra Fluid Lotion SPF 30; Sublime Sun Ultra Fluid Lotion SPF 50; Sugar Bloom Lip Treatment Sunscreen SPF 15; Sugar Fig Tinted Lip Treatment Sunscreen SPF 15; Sugar Lip Treatment Sunscreen SPF 15; Sugar Nude Tinted Lip Treatment Sunscreen SPF 15; Sugar Poppy Lip Treatment Sunscreen SPF 15; Sugar Punch Lip Treatment Sunscreen SPF 15; Sugar Rose Extreme Tinted Lip Treatment Sunscreen SPF 15; Sugar Rose Lip Treatment Sunscreen SPF 15; Sugar Sport Treatment Sunscreen SPF 30; Sulwhasoo Snowise UV Daily Cream; Sulwhasoo UV Daily Cream; Sumadan Xlt; Summer Camp Enviro UV Broad Spectrum SPF 50; Summer Camp Enviro UV SPF 30 Sunscreen Mist; Summer Camp Enviro UV SPF 50 Sunscreen Mist; Summer Glow Daily Moisturizer SPF 20; Summer Ready Innovative Sunscreen; Summer Sangria SPF 15 Broad Spectrum Lip Balm; Sun + Avon Sport Fresh Technologie Derma Plus Technology Sunscreen Lotion SPF/fps 50; Sun + Avon Sport Refresh Technologie Derma Plus Technology Sunscreen Lotion SPF/fps 30; Sun + Avon Technologie Derma Plus Technology Sunscreen Spray; Sun Basics Broad Spectrum SPF 30; Sun Basics SPF 50; Sun Basics Sport Broad Spectrum SPF 30; Sun Bathe Sunscreen; Sun Bathe Sunscreen SPF 20; Sun Body Protector Sunscreen Broad Spectrum SPF 50; Sun Broad Spectrum SPF 30 CVS; Sun Broad Spectrum SPF 30 Jafra; Sun Bum 50; Sun Bum Broad Spectrum SPF 30; Sun Bum Broad Spectrum SPF 50; Sun Bum Daily Mineral Sunscreen Moisturizer SPF30; Sun Bum Daily Sunscreen Face Mist SPF30; Sun Bum Face 50 Sunscreen; Sun Bum Face Mist SPF 45; Sun Bum Face SPF 70; Sun Bum GLOW 30 Moisturizing Sunscreen Face SPF 30; Sun Bum Hand Cream SPF15; Sun Bum Kids Face SPF 50; Sun Bum Kids Sunscreen SPF 50; Sun Bum Premium Moisturizing Sunscreen Roll On SPF 50; Sun Bum Premium SPF 15 Sunscreen Tanning; Sun Bum Premium Sunscreen Browning SPF 15; Sun Bum Premium Sunscreen Face Broad Spectrum SPF 30; Sun Bum Premium Sunscreen Face SPF 30; Sun Bum SPF 15 Moisturizing Tanning; Sun Bum SPF 15 Premium Moisturizing Sunscreen; Sun Bum SPF 30 Premium Moisturizing Sunscreen; Sun Bum SPF 30 Sunscreen Lip Balm Pineapple; Sun Bum SPF 30 Watermelon; Sun Bum SPF 50 Premium Moisturizing Sunscreen; Sun Bum SPF 70 Premium Moisturizing Sunscreen; Sun Bum Skin Care Essentials Kit; Sun Bum Sunscreen Lip Balm Broad Spectrum SPF 30 Banana; Sun Bum Sunscreen Lip Balm Broad Spectrum SPF 30 Coconut; Sun Bum Sunscreen Lip Balm Broad Spectrum SPF 30 Key Lime; Sun Bum Sunscreen Lip Balm Broad Spectrum SPF 30 Keylime; Sun Bum Sunscreen Lip Balm Broad Spectrum SPF 30 Mango; Sun Bum Sunscreen Lip Balm Broad Spectrum SPF 30 Pineapple; Sun Bum Sunscreen Lip Balm Broad Spectrum SPF 30 Pink Grapefruit; Sun Bum Sunscreen Lip Balm Broad Spectrum SPF 30 Pomegranate; Sun Bum Sunscreen Lip Balm Broad Spectrum SPF 30 Watermelon; Sun Bum Sunscreen Oil SPF 30 with Coconut Oil; Sun Bum Tinted SPF15 Sunscreen Bonfire; Sun Bum Tinted SPF15 Sunscreen Nude Beach; Sun Bum Tinted SPF15 Sunscreen Pinkini; Sun Bum Tinted SPF15 Sunscreen Sandbar; Sun Bum Tinted SPF15 Sunscreen Sunset Cove; Sun Care For Face; Sun Care for Body; Sun Defeated Sunscreen; Sun Defense SPF 15; Sun Defense SPF 30; Sun Diffusing Protector SPF 15 Bioelements; Sun Expert; Sun Face Protector Sunscreen Broad Spectrum SPF 50; Sun Face Protector Sunscreen Broad Spectrum SPF 50 Jafra; Sun Facial Sunscreen 20 SPF for Sensitive Skin Alba Botanica; Sun Kids Sunscreen 32 SPF; Sun Logic 20 Fps Uva Uvb SPF Moyenne Medium Protection Large Spectre Broad Spectrum Lait Solaire Corps Sunscreen Lotion Body; Sun Logic 30 Fps Uva Uvb SPF Haute High Protection Large Spectre Broad Spectrum CRème Solaire Visage Et Corps Sunscreen Face and Body; Sun Oil-Free Facial Sunscreen Broad Spectrum SPF 50; Sun Party Broad Spectrum SPF 30; Sun Party Broad Spectrum SPF 50; Sun Party Sunscreen SPF 30; Sun Party Sunscreen SPF 50; Sun Potion 15 SPF/fps; Sun Premium Face 50 SPF; Sun Protection; Sun Protection Body Sunscreen Broad Spectrum SPF 30; Sun Protection Body Sunscreen Broad Spectrum SPF 30 La Prairie; Sun Protection Cream SPF 30; Sun Protection Cream SPF 45; Sun Protection Emulsion Face Broad Spectrum SPF 30 La Prairie Group; Sun Protection Emulsion Face la prairie; Sun Protection Face Sunscren Broad Spectrum SPF 30; Sun Protection Stick SPF 15; Sun Protective Day Cleanser Sunscreen; Sun Protective Day Moisturizer Sunscreen; Sun Protector Lotion Spray for Body SPF 30; Sun Protector Lotion Spray for Body SPF 50; Sun Protector Weightless Lotion for Face and Body; Sun Protector Weightless Lotion for Face and Body SPF 30; Sun Shades Lip Balm Butter Rum; Sun Shades Lip Balm Caramel Toffee; Sun Shades Lip Balm Coconut Smoothie; Sun Shades Lip Balm Key Lime Pie; Sun Shades Lip Balm Mango Lime; Sun Shades Lip Balm Mountain Mint; Sun Shades Lip Balm Peach Mango; Sun Shades Lip Balm Pina Colada; Sun Shades Lip Balm Pineapple Paradise; Sun Shades Lip Balm Pink Grapefruit; Sun Shades Lip Balm STropical Fruit Sorbet; Sun Shades Lip Balm Strawberry Daiquiri; Sun Shades Lip Balm Strawberry Tart; Sun Shades Lip Balm Sugar and Spice; Sun Shades Lip Balm Vanilla Bean; Sun Shades Lip Balm Watermelon Lemon; Sun Shades Sport Plus; Sun Shades Sport Sport Plus; Sun Silk Drops; Sun Sport Sunscreen 32 SPF; Sun Spr SPF 50; Sun Spray Lotion 30; Sun Spray SPF 30; Sun Stick SPF 45; Sun Sublime Protective Face Care SPF 30; Sun Sublime Protective Face Care Soin Protecteur Visage SPF 30 / Fps 30; Sun Therape Body SPF-35; Sun Therape Face SPF-35; Sun Therape Face and Body SPF-35; Sun Therape Pro Sport Face and Body SPF-35; Sun Therape Pro Sport SPF-35; Sun Therape Sport SPF-35; Sun Ultimate Cream/crème SPF/fps 30; Sun Ultimate Face Cream / CRème Visage; Sun Ultimate Face SPF 30; Sun Ultimate Spray SPF/fps 30; Sun Verbena Protective Body Protection SPF 15; Sun Verbena Protective Gloss Protection; Sun X Multi-Pack SPF 30 Thick; Sun X SPF 50 Broad Spectrum Sunscreen Lip Balm; Sun XSPF 30 Broad Spectrum Sunscreen Lip Balm; Sun bum Daily Sunscreen Moisturizer SPF 30; Sun face protector sunscreen broad spectrum SPF 50; Sun protection body SPF 30; Sun+ Avon Technologie Derma Plus Technology Sunscreen Face Lotion; Sun+ Avon Technologie Derma Plus Technology Sunscreen Lotion; Sun-Defying Sunscreen Oil Broad Spectrum SPF 50 Supergoop; SunBum SPF 15; SunBum SPF 30; SunBum SPF 50; SunBum SPF 70; SunScreen SPF 30; SunX SPF 30/BugX Wallmount; SunZone Baby SPF 30 Sunscreen Broad Spectrum; SunZone Baby Sunscreen SPF-60 Broad Spectrum; SunZone Family SPF 30 Broad Spectrum; SunZone Family SPF 45 Broad Spectrum; SunZone Family Sunscreen SPF-60 Broad Spectrum; SunZone Kids SPF 30 Sunscreen Broad Spectrum; SunZone Kids SPF 45 Broad Spectrum; SunZone SPF 45 Broad Spectrum; SunZone SPF-60 Broad Spectrum; SunZone Sport SPF 30 Sunscreen Broad Spectrum; SunZone Sport Sunscreen SPF-60 Broad Spectrum; SunZone Sunscreen Family SPF 30 Broad Spectrum; SunZone Sunscreen Kids SPF 60 Broad Spectrum; SunZone Sunscreen Sport SPF 45 Broad Spectrum; SunZone Work Sunscreen SPF-60 Broad Spectrum; Sunbar SPF 15; Sunbar SPF 30; Sunblock Oil Free SPF/fps 30; Sunblock Oil Free SPF/fps 60; Sunblock SPF 15 Fragrance-free Spray; Sunblock SPF 15 Scented Spray; Sunburn Protection Broad Spectrum SPF 20 Sunscreen; Suncare By Vaseline Gel SPF 15; Suncare By Vaseline Kids Lotion Spf25; Suncare By Vaseline Lotion SPF 15; Suncare By Vaseline Lotion SPF 25; Suncare By Vaseline Spray SPF 15; Suncare Non-greasy Sunscreen Broad Spectrum SPF 50; Suncare SPF 50 Sunscreen; Sundays Max Protec Sunscreen Crm Spf15+; Sundays Sunscreen Cream SPF 30+; Sundays Very High Protection Face Block Stick; Sunfisher - The Fishermans Sunscreen Broad Spectrum SPF 50; Sunfitness Creme Fondante SPF 30; Sunfitness Gelee Fraicheur SPF 15; Sunfitness Lait Fondant SPF 15; Sunfitness Lait Fondant SPF 30; Sungirl SPF 20; Sungirl SPF 30; Sunless Tanning Lotion SPF 15; Sunlogics Sunscreen Lotion Broad Spectrum SPF 25 Water Resistant; Sunmitt Broad Spectrum SPF-50 Sunscreen; Sunnylife SPF 50 Sunscreen Coconut Scented; Sunnylife SPF 50 Sunscreen Fragrance Free; Sunproof 3-in-1 Invisible Priming Sunscreen Broad Spectrum SPF 37 Water Resistant (80 minutes); Sunright 15 - Lot; Sunright 23 Face & Hands - Lot; Sunright 28 - Lot; Sunright 50; Sunright 50 SPF 50; Sunright BodyBlock SPF15; Sunright Broad Spectrum SPF 30; Sunright SPF 15; Sunright SPF 30; Sunright Spray 13 - Asp Liq; Sunscreen; Sunscreen 01; Sunscreen 30; Sunscreen 30 Spray; Sunscreen 50; Sunscreen Application SPF 50 Rocky Mauntain; Sunscreen Broad Spectrum SPF 30 Lotion; Sunscreen Broad Spectrum SPF 30 Spray; Sunscreen Broad Spectrum SPF 50 Jafra; Sunscreen Broad Spectrum SPF 60 Lotion; Sunscreen Broad Spectrum SPF 60 Spray; Sunscreen Care Milk SPF 20; Sunscreen Continuous Spray; Sunscreen Continuous Spray No Pumping Needed; Sunscreen Continuous Spray SPF 30; Sunscreen Continuous Spray SPF 30 Sport; Sunscreen Continuous Spray SPF 50; Sunscreen Continuous Spray SPF 50 Kids; Sunscreen Continuous Spray SPF 50 Sport; Sunscreen Continuous Spray SPF/fps 30; Sunscreen Continuous Spray SPF/fps 60; Sunscreen Face Cream SPF 4; Sunscreen Face Lotion; Sunscreen Face Stick / Écran Solaire Bâton; Sunscreen Face Stick Sun Bum Broad Spectrum SPF 30; Sunscreen Face and Body Broad Spectrum SPF 30; Sunscreen Family SPF 30; Sunscreen Family SPF 50+; Sunscreen Gel SPF 30; Sunscreen Kids Application SPF 50 Rocky Mauntain; Sunscreen Kids SPF 50+; Sunscreen Lip Balm; Sunscreen Lip Balm Shopko; Sunscreen Lip Balm Sun Bum SPF 30; Sunscreen Lotion 30 SPF Fps; Sunscreen Lotion 30 SPF/fps Sport; Sunscreen Lotion 50 SPF Fps; Sunscreen Lotion Ecran Solaire 15; Sunscreen Lotion Ecran Solaire 30; Sunscreen Lotion Ecran Solaire SPF/fps 30; Sunscreen Lotion Ecran Solaire SPF/fps 50+; Sunscreen Lotion Face SPF 30; Sunscreen Lotion Family SPF 30; Sunscreen Lotion Kids SPF 30; Sunscreen Lotion Kids SPF 50+; Sunscreen Lotion Lotion Écran Solaire SPF Fps 30; Sunscreen Lotion Lotion Écran Solaire SPF Fps 60; Sunscreen Lotion SPF 15; Sunscreen Lotion SPF 30; Sunscreen Lotion SPF 50; Sunscreen Lotion SPF/fps 60; Sunscreen Lotion SPF/fps 70; Sunscreen Lotion Spf15; Sunscreen Lotion Spf30; Sunscreen Lotion Sport SPF 30; Sunscreen Lotion With Hydrating Ribbons SPF/fps 15; Sunscreen Lotion With Skin Rejuvenating Green Tea Lotion Écran Solaire Au Thé Vert Revitalisant SPF Fps 8; Sunscreen Lotion/lotion Écran Solaire SPF Fps 32; Sunscreen Lotion/lotion Écran Solaire SPF/fps 52; Sunscreen Mango and Coconut; Sunscreen Mist Broad Spectrum SPF 30 Supergoop; Sunscreen Mist Broad Spectrum SPF 50 Supergoop; Sunscreen Moisturizer SPF 30; Sunscreen Oil; Sunscreen Oil SPF 20; Sunscreen Oil Spray; Sunscreen SPF 12; Sunscreen SPF 15; Sunscreen SPF 15 Sun Bum; Sunscreen SPF 24; Sunscreen SPF 30; Sunscreen SPF 30 CareOne; Sunscreen SPF 30 Daylogic; Sunscreen SPF 30 Jafra; Sunscreen SPF 30 Jafra Sun; Sunscreen SPF 30 Sun Bum; Sunscreen SPF 30 Ulta; Sunscreen SPF 30 Wegmans; Sunscreen SPF 30 meijer; Sunscreen SPF 50; Sunscreen SPF 50 Plus Broad Spectrum UVA UVB protection; Sunscreen SPF 50 Sun Bum; Sunscreen SPF 50 Wegman; Sunscreen SPF 50+; Sunscreen SPF 6; Sunscreen SPF 70; Sunscreen SPF 70 Rocky Mountain; Sunscreen SPF 70 Sun Bum; Sunscreen SPF 70 daylodic; Sunscreen SPF30; Sunscreen SPF50; Sunscreen Sheer SPF 70; Sunscreen Shrre SPF 70; Sunscreen Sport SPF 30; Sunscreen Sport SPF 50 Good Sense; Sunscreen Sport SPF 50 GoodSense; Sunscreen Sport SPF 50 daylogic; Sunscreen Sport SPF 50 exchange select; Sunscreen Sport SPF 50+; Sunscreen Spray 50 SPF; Sunscreen Spray SPF 3; Sunscreen Spray SPF 30; Sunscreen Spray SPF 6; Sunscreen Stick SPF 50+; Sunscreen Stick Écran Solaire En Bâtonnet With Aloe Vera/avec Aloès; Sunscreen ULTRA Broad Spectrum Equate; Sunscreen Water Resistant; Sunscreen With Moisturizer SPF-30; Sunscreen and Amphibious Bull frog; Sunscreen and insect repellent Bull frog; Sunscreen for Kids; Sunscreen stick; Sunshine and Glitter Broad Spectrum SPF 50 Glamingo Glitter Sunscreen; Sunshine and Glitter Broad Spectrum SPF 50 Rainbow Glitter Sunscreen; Sunsorb Reef Safe SPF15; Sunsorb Reef Safe SPF30; Sunsorb SPF30; Sunspray; Sunstop SPF 15+ for Kids; Sunthera3 Baby SPF 50+ Sun Protection Lotion; Sunthera3 Kids SPF 50+ Continuous Spray Sunscreen Broad Spectrum Uva/uvb Protection; Sunthera3 Kids SPF 50+ Sun Protection Lotion; Sunthera3 Kids/enfants SPF/fps 50 Continuous Spray; Sunthera3 SPF 30 Continuous Spray; Sunthera3 SPF 30 Lipbalm; Sunthera3 SPF 30 Sun Protection Lotion; Sunthera3 SPF 50+ Continuous Spray; Sunthera3 SPF 50+ Sun Protection Lotion; Sunthera3 Sensitive Skin/peau Sensible SPF/fps 60; Sunthera3 Sport SPF 50+ Continuous Spray; Sunthera3 Sport SPF 50+ Sun Protection Lotion; Sunthera3 Sport SPF/fps 30 Continuous Spray; Suntints Liquid Lip Balm SPF 20; Suntone BROAD SPECTRUM SPF 15; Suntone BROAD SPECTRUM SPF 4; Suntone Broad Spectrum SPF 15; Suntone Broad Spectrum SPF 4; Suntone Broad Spectrum SPF 50 Sunscreen; Suntone Broad Spectrum SPF 8; Suntone Fit for the Sun Sport Sunscreen Broad Spectrum SPF 30; Suntone Kids Broad Spectrum SPF 50 Sunscreen; Suntone SPF 50; Suntone SUNSCREEN BROAD SPECTRUM SPF 45; Suntone Sport Sunscreen Broad Spectrum SPF 50; Suntone Sunscreen Broad Spectrum SPF30; Suntone Sunscreen Broad Spectrum SPF50; Suntone Sunscreen Broad Spectrum SPF70; Sunzen BROAD SPECTRUM SPF 30; Sunzen BROAD SPECTRUM SPF 8; Sunzen Broad Spectrum SPF 50; Sunzen Broad Spectrum SPF 8; Sunzone Family SPF 45; Sunzone Family SPF 50; Sunzone Kids SPF 45; Sunzone Kids SPF 50; Sunzone Sport SPF 45; Sunzone Sunscreen Lotion Écran Solaire Baby Bebe 15 SPF/fps; Sunzone Sunscreen Lotion Écran Solaire Baby Bebe 60 SPF/fps; Sunzone Sunscreen Lotion Écran Solaire Baby Bébé 45 SPF/fps; Sunzone Sunscreen Lotion Écran Solaire Baby Bébé 50 SPF/fps; Sunzone Sunscreen Lotion Écran Solaire Family Famille 15 SPF/fps; Sunzone Sunscreen Lotion Écran Solaire Family Famille 45 SPF/fps; Sunzone Sunscreen Lotion Écran Solaire Family Famille 50 SPF/fps; Sunzone Sunscreen Lotion Écran Solaire Family Famille 60 SPF/fps; Sunzone Sunscreen Lotion Écran Solaire Kids Enfants 15 SPF/fps; Sunzone Sunscreen Lotion Écran Solaire Kids Enfants 50 SPF/fps; Sunzone Sunscreen Lotion Écran Solaire Kids Enfants SPF 45; Sunzone Sunscreen Lotion Écran Solaire Sport 15 SPF/fps; Sunzone Sunscreen Lotion Écran Solaire Sport 60 SPF/fps; Sunzone Sunscreen Lotion Écran Solaire Work Travail 15 SPF/fps; Sunzone Sunscreen Lotion Écran Solaire Work Travail 60 SPF/fps; Sunzone Sunscreen Sport SPF 60 Broad Spectrum; Sunzone Sunscreen Écran Solaire Spray Wet 60 SPF/fps; Super Defense Superdefense Age Defense Moisturizer SPF 25 Dry Combination; Super Defense Superdefense Age Defense Moisturizer SPF 25 Very Dry Skin; Super Fluid Uv Defense; Super Fluid Uv Defense SPF 50; Super Mint SPF 15 Broad Spectrum Lip Balm; Super Origin Cc Spf25 Pa Plus Plus Brightening; Super Power Sunscreen Mousse SPF 50 Supergoop; Super-C SPF 30; SuperScreen Daily Moisturizer Broad Spectrum SPF 40; Superdefense Age Defense Moisturizer Broad Spectrum SPF 25 Very Dry To Dry; Superdefense Broad Spectrum SPF 25 Fatigue Plus 1st Signs Of Age Multi-correcting Very Dry To Dry Combination; Superdefense Daily Defense Moisturizer Broad Spectrum Spf20 (combination Oily - Oily); Superdefense Daily Defense Moisturizer Broad Spectrum Spf20 (very Dry - Dry Comb); Superdefense Fatigue + 1st Signs Of Age Multi-correcting Cream CRème Multi-correction Fatigue + 1ers Signes De L'âge Combination Oily To Oily / Mixte À Grasse SPF 25 Fps; Superdefense Fatigue + 1st Signs Of Age Multi-correcting Cream CRème Multi-correction Fatigue + 1ers Signes De L'âge Very Dry To Dry Combination / Très Sèche À Mixte SPF 25 Fps; Supergoop Daily Hydra-Ceramide Boost SPF40; Supergoop Glow Screen SPF 40 Shade 2 Golden Hour; Superlustrous Lip Balm; Supervalue Equaline Sport SPF 50; Surface Dry Touch SPF 30 Sunscreen; Surface Sheer Touch SPF 30 Sunscreen; Surface Sheer Touch SPF 50 Sunscreen; Surface Sheer Touch SPF 50 with Fragrance; Surface Sun Active Defense SPF 30 Sunscreen; Surface Sun Dry Touch SPF 30 Sunscreen; Surface Sun Dry Touch SPF 40 Sunscreen; Surface Sun Dry Touch SPF 50 Sunscreen; Surface Sun Dry Touch SPF 70 Sunscreen; Surface Sun Sheer Touch SPF 30 Sunscreen; Surface Sun Sheer Touch SPF 50 Sunscreen; Surface Sun Sheer Touch SPF30 Sunscreen; Surface Sun Wetskin Formula SPF 30 Sunscreen; Surfers Skin Sunscreen Lip Balm; Susan Lucci Youthful Essence For Eyes Instant Smoothing Day Treatment SPF 15; Susanne Kaufmann Suncare Body Broad Spectrum Protection Sunscreen SPF 25 Uvb Uva; Sweatproof Sunscreen SPF 30; Sweet Pea Sheer Shield SPF45; TANCEUTICALS SPF DROPS Broad Spectrum SPF-30; TBS Seaweed SPF15; TBS Vitamin E SPF; TECHNIblock ULTRA SUNSCREEN; TULA Radiant Skin Brightening Serum Skin Tint Sunscreen Broad Spectrum SPF 30 Deep Cool; TULA Radiant Skin Brightening Serum Skin Tint Sunscreen Broad Spectrum SPF 30 Deep Neutral; TULA Radiant Skin Brightening Serum Skin Tint Sunscreen Broad Spectrum SPF 30 Deep Neutral-Cool; TULA Radiant Skin Brightening Serum Skin Tint Sunscreen Broad Spectrum SPF 30 Deep Neutral-Warm; TULA Radiant Skin Brightening Serum Skin Tint Sunscreen Broad Spectrum SPF 30 Deep Warm; TULA Radiant Skin Brightening Serum Skin Tint Sunscreen Broad Spectrum SPF 30 Light Cool; TULA Radiant Skin Brightening Serum Skin Tint Sunscreen Broad Spectrum SPF 30 Light Neutral; TULA Radiant Skin Brightening Serum Skin Tint Sunscreen Broad Spectrum SPF 30 Light Neutral-Warm; TULA Radiant Skin Brightening Serum Skin Tint Sunscreen Broad Spectrum SPF 30 Light Warm; TULA Radiant Skin Brightening Serum Skin Tint Sunscreen Broad Spectrum SPF 30 Light-Medium Cool; TULA Radiant Skin Brightening Serum Skin Tint Sunscreen Broad Spectrum SPF 30 Light-Medium Neutral; TULA Radiant Skin Brightening Serum Skin Tint Sunscreen Broad Spectrum SPF 30 Light-Medium Olive; TULA Radiant Skin Brightening Serum Skin Tint Sunscreen Broad Spectrum SPF 30 Light-Medium Warm; TULA Radiant Skin Brightening Serum Skin Tint Sunscreen Broad Spectrum SPF 30 Medium Cool; TULA Radiant Skin Brightening Serum Skin Tint Sunscreen Broad Spectrum SPF 30 Medium Neutral; TULA Radiant Skin Brightening Serum Skin Tint Sunscreen Broad Spectrum SPF 30 Medium Neutral-Cool; TULA Radiant Skin Brightening Serum Skin Tint Sunscreen Broad Spectrum SPF 30 Medium Warm; TULA Radiant Skin Brightening Serum Skin Tint Sunscreen Broad Spectrum SPF 30 Medium-Tan Neutral; TULA Radiant Skin Brightening Serum Skin Tint Sunscreen Broad Spectrum SPF 30 Medium-Tan Olive; TULA Radiant Skin Brightening Serum Skin Tint Sunscreen Broad Spectrum SPF 30 Medium-Tan Warm; TULA Radiant Skin Brightening Serum Skin Tint Sunscreen Broad Spectrum SPF 30 Tan Cool; TULA Radiant Skin Brightening Serum Skin Tint Sunscreen Broad Spectrum SPF 30 Tan Neutral-Cool; TULA Radiant Skin Brightening Serum Skin Tint Sunscreen Broad Spectrum SPF 30 Tan Warm; TULA Radiant Skin Brightening Serum Skin Tint Sunscreen Broad Spectrum SPF 30 Tan-Deep Cool; TULA Radiant Skin Brightening Serum Skin Tint Sunscreen Broad Spectrum SPF 30 Tan-Deep Neutral; TULA Radiant Skin Brightening Serum Skin Tint Sunscreen Broad Spectrum SPF 30 Tan-Deep Olive; TULA Radiant Skin Brightening Serum Skin Tint Sunscreen Broad Spectrum SPF 30 Very Light Cool; TULA Radiant Skin Brightening Serum Skin Tint Sunscreen Broad Spectrum SPF 30 Very Light Neutral; TULA Radiant Skin Brightening Serum Skin Tint Sunscreen Broad Spectrum SPF 30 Very Light Warm; TULA Skincare Protect Glow Daily Sunscreen Gel Broad Spectrum SPF 30; Tahitian Noni Sunscreen; Tahitian Noni Sunscreen SPF 30; Tahitian Noni TePoema Element Shield SPF 20; Take A Deep Breath SPF 30; Tako Pore Sebum Sun; Tan BB Cream SPF15; Tan Towel SPF 30 Bronzing Mist Broad Spectrum; Tan Towel SPF 30 Clear Broad Spectrum; Tan-luxe Super Glow Broad Spectrum Sunscreen; Tanning Dry Oil SPF 15 Dollar General; Tanning Oil Huile Bronzante 15; Tanning Sunscreen SPF 15; Tanning Sunscreen UVB Protection Dry Oil Equate; Target Up and Up Broad Spectrum SPF 55 Oil-Free; Target Up and Up Kids SPF 50; Target Up and Up Kids SPF 50 Clear; Target Up and Up Reef Conscious Formula SPF 50 Sport Sunscreen; Target Up and Up SPF55 Sunscreen; Target Up and Up SPF55 Sunscreen Reef-Conscious Formula; Target Up and Up Sport SPF 15 Clear; Target Up and Up Sport SPF 30 Clear Sport SPF 30 Clear; Target Up and Up Sport SPF 50; Target Up and Up Sunscreen SPF 30 SPORT Broad Spectrum; Target Up and Up Sunscreen Sport Broad Spectrum SPF 30; Tbs Aloe Spf15; TeMana Tahiti Noni Brightening Facial Shield SPF50; Tea Blend Daily Moisturizer SPF 15 Jafra; Tea Blend Samples Jafra; Teatrical Pro-Aclarant Day; Tenacious Ergodyne; Tender Moments Baby Sunscreen Broad Spectrum SPF 45 Jafra; Tender Moments Baby Sunscreen Broad Spectrum SPF 50 Jafra; Tender Moments Baby Sunscreen Broad Spectrum SPF 50 Water Resistant (40 minutes); Tendertone Lip Balm SPF 12; Tensolift; The Art of Shaving Daily Sunscreen Broad Spectrum SPF 15; The Bod Guard Invisible Sunscreen for Body; The Body Shop Aloe Soothing Moisture SPF 15; The Body Shop Natrulift Firming Day SPF 15; The Body Shop Pomegranate SPF 15; The Body Shop Vitamin C Daily Moisturizer SPF 15; The Body Shop Vitamin E Moisture SPF 15; The Fresh Market SPF 15 Lip Balm Broad Spectrum Acai Berry; The Good Stuff AfterShave SPF 15; The Healthy Foundation; The Healthy Foundation SPF 20; The Mug Guard Invisible Sunscreen for Face; The Ordinary Invisible Uv Filters SPF 35; The Ordinary Suncare Invisible UV Filters with Antioxidants SPF35; The Protector; The SPF 18 Fluid Tint; The Skincare Day Essential Moisturizer Enriched SPF 10; The Skincare Day Essential Moisturizer Light SPF 10; The Skincare Day Essential Moisturizer SPF 10; The Skincare Protective Lip Conditioner SPF 10; The Starter Kit; The Ultimate KORRES Sun Kit; The Venetian The Palazzo Broad Spectrum SPF 50 Sunscreen; The Youth As We Know It; Therapeutic Aquaderm-15; Thermal Fix Uv SPF 20; Thermal S Uv SPF 20; Thermalab Daily Body SPF30 Broad Spectrum; Tiege Hanley AM Morning Facial Moisturizer with SPF20; Tiege Hanley Daily Moisturizer SPF20; Time Frame Future Resist Foundation Broad Spectrum SPF 20 Truffle Delilah Cosmetics; Time Repair A.M.; Time Zone Line and Wrinkle Reducing Creme SPF 15 Normal Combo Skin; Time Zone Line and Wrinkle Reducing Creme SPF 15 for Dry Skin; Timeless Anti-Aging BB Broad Spectrum SPF 30; Timeless Ferment Sanil Sun; Timewise Day Solution sunscreen SPF 35; Timewise Day Solution sunscreen SPF 35 14ml; Tinted Lipbalm; Tinted Liplux; Tinted Moisturizer SPF 20 Bisque; Tinted Moisturizer SPF 30 Broad Spectrum; Tinted Moisturizer SPF-20 Caramel; Tinted Moisturizer SPF-20 Golden Radiance; Tinted Moisturizer SPF-20 Mocha; Tinted Sun Face Protector Sunscreen Broad Spectrum SPF 50; To Save Face SPF 30 Plus Facial Sunscreen; Toleriane Double Repair Moisturizer UV SPF 30; Toleriane Sensitive CRème Uv; Tom Ford Face Protect Broad Spectrum SPF 50; Tone Correcting Daily Lotion; Tonymoly Magic Food Mango Mild Sun Block; Too Faced Hangover Good To Go SPF 25 Broad Spectrum Moisturizer; TopCare Daily Moisturizer for face; TopCare Everyday SPORT Sun Broad Spectrum SPF 30; TopCare Everyday Sport Sun SPF 50; TopCare Everyday Ultimate Sheer Sun Broad Spectrum SPF 70; Topcare Daily Facial; Topcare Everyday Continuous Broad Spectrum SPF 50; Topcare Everyday Sport Continuous Broad Spectrum SPF 30; Topcare Everyday Sport SPF 70 Sunscreen; Topcare Everyday Ultimate Sheer Sun Broad Spectrum SPF 55; Topcare Everyday Ultra Protection SPF 50; Total Cover Cream Foundation; Total Cover Cream Foundation Broad Spectrum SPF 30 Sunscreen G10; Total Cover Cream Foundation Broad Spectrum SPF 30 Sunscreen G20; Total Cover Cream Foundation Broad Spectrum SPF 30 Sunscreen G30; Total Cover Cream Foundation Broad Spectrum SPF 30 Sunscreen G40; Total Cover Cream Foundation Broad Spectrum SPF 30 Sunscreen G50; Total Cover Cream Foundation Broad Spectrum SPF 30 Sunscreen G60; Total Cover Cream Foundation Broad Spectrum SPF 30 Sunscreen G70; Total Cover Cream Foundation Broad Spectrum SPF 30 Sunscreen G80; Total Cover Cream Foundation Broad Spectrum SPF 30 Sunscreen N0; Total Cover Cream Foundation Broad Spectrum SPF 30 Sunscreen N10; Total Cover Cream Foundation Broad Spectrum SPF 30 Sunscreen N100; Total Cover Cream Foundation Broad Spectrum SPF 30 Sunscreen N110; Total Cover Cream Foundation Broad Spectrum SPF 30 Sunscreen N120; Total Cover Cream Foundation Broad Spectrum SPF 30 Sunscreen N20; Total Cover Cream Foundation Broad Spectrum SPF 30 Sunscreen N25; Total Cover Cream Foundation Broad Spectrum SPF 30 Sunscreen N30; Total Cover Cream Foundation Broad Spectrum SPF 30 Sunscreen N35; Total Cover Cream Foundation Broad Spectrum SPF 30 Sunscreen N40; Total Cover Cream Foundation Broad Spectrum SPF 30 Sunscreen N50; Total Cover Cream Foundation Broad Spectrum SPF 30 Sunscreen N60; Total Cover Cream Foundation Broad Spectrum SPF 30 Sunscreen N70; Total Cover Cream Foundation Broad Spectrum SPF 30 Sunscreen N80; Total Cover Cream Foundation Broad Spectrum SPF 30 Sunscreen N90; Total Cover Cream Foundation Broad Spectrum SPF 30 Sunscreen P10; Total Cover Cream Foundation Broad Spectrum SPF 30 Sunscreen P20; Total Cover Cream Foundation Broad Spectrum SPF 30 Sunscreen P30; Total Cover Cream Foundation Broad Spectrum SPF 30 Sunscreen P40; Total Cover Cream Foundation Broad Spectrum SPF 30 Sunscreen P50; Total Cover Cream Foundation Broad Spectrum SPF 30 Sunscreen P60; Total Cover FX; Total Suncare Sunscreen SPF 15; Total Suncare Sunscreen SPF 30; Total Suncare Sunscreen SPF 50; Total Suncare Sunscreen SPF 50 Plus; Total Suncare Sunscreen SPF 70; Total Truth Eye CRème SPF 15; Total Truth Eye Creme SPF 15 Ole Henriksen; Tourist Spf30; Trader Joes Daily Facial Sunscreen SPF 40; Trader Joes Face and Body Sunscreen SPF 30; Trader Joes Sunscreen SPF 50; Traitement Solaire Sun Mat Control; Traveler Spf15; Treat and Tint Skin Perfecting Bb SPF 30; Tree Hut DD Cream Daily Defense Cream SPF20; Tree Hut Dry Oil Mist Daily Defense SPF8; Tretinopak; Tri-phasic White Day Milk Lotion SPF 15; TriLipiderm Broad Spectrum SPF 30; TriLipiderm Protective Day; Trienelle Skincare Daily Renewal Creme with Tocallure Restoration Complex Broad Spectrum SPF 15; Trienelle Skincare Instant Illusion Daily Renewal Creme; Triple Age Repair Moisturizer; Triple Defense Treatment; Triple Defense Treatment for Men; Triple Performing Facial Emulsion; Triple Protect Face Lotion SPF 20; Tropic Sun SPF 50; Tropical Coconut SPF 30 Broad Spectrum; Tropical Lip Balm; Tropical Mint Broad Spectrum SPF 15 Lip Moisturizer; Tropical SPF 15 Broad Spectrum Lip Balm; Tropical SPF 15 Lip; Tropical Sunscreen; TruAge AGE Therapy Lip Balm SPF15; TruAge Lip Balm Pink Grapefruit SPF15; TruAge Lip Balm Pomegranate Mint SPF15; Trucco Triplicity SPF 15; True Blue Spa Cooling Sunscreen Mist Broad Spectrum SPF 25 Water Resistant (40 minutes) Monoi Oil; Truffoire Truffle Brightening; Truist Sunscreen Moisturizer; Trump Golf Broad Spectrum SPF 30 Sunscreen; Truth Revealed Super Creme With SPF 15; Truth Revealed super creme SPF 15 Ole Henriksen; Turf Screen Crew Broad Spectrum Sunscreen; ULTA Sunscreen SPF 30; ULTIMATE AQUA BLANC PROTECTIVE 10mL; ULTRASOL Sport Sunscreen; ULTRASOL Sunscreen; ULTRASOL Sunscreen Lotion SPF 45; ULTRASOL Sunscreen SPF45; UNBLEMISH Invisible Matte Defense; USANA Lip Moisturizer; UV Base SPF 50; UV Capture Vita Sun Gel; UV Defense Pocket Sun Pad (Broad Spectrum, SPF30); UV Defense Sun Block Tissues (BROAD SPECTRUM, SPF30); UVA and UVB Broad Spectrum SPF30 Sunscreen Oil with golden shimmer; Ulimate Sheer SPF 85 Rite Aid; Ulta Beauty Broad Spectrum SPF 30; Ulta Beauty Broad Spectrum SPF 30 Sunscreen; Ulta Beauty Broad Spectrum SPF 50 Sunscreen; Ulta Beauty SPF 15 Broad Spectrum Sunscreen; Ulta Beauty SPF 30 Broad Spectrum Sunscreen; Ulta Beauty SPF 50 Broad Spectrum Sunscreen; Ulta Beauty SPF 50 Workout Sunscreen Face Mist with Rosewater; Ulta Broad Spectrum SPF 15; Ulta Broad Spectrum SPF 15 Medium Deep; Ulta Broad Spectrum SPF 30; Ulta Broad Spectrum SPF 50; Ulta Broad Spectrum SPF 70; Ulta Broad Spectrum SUNSCREEN SPF80; Ulta Face SPF 30; Ulta SPF 15; Ulta SPF 15 Broad Spectrum Light to Medium Tinted Sunless Sunscreen; Ulta SPF 15 Broad Spectrum Tinted Sunless Sunscreen for Face; Ulta SPF 15 Light Medium Broad Spectrum; Ulta SPF 15 Medium Deep Broad Spectrum tinted sunscreen; Ulta SPF 20 Broad Spectrum Water Resistant Sunscren with Shimmer; Ulta SPF 50; Ulta Sun Dry Touch SPF 55; Ulta Sun Dry Touch SPF 70; Ulta Sunscreen SPF 15; Ulta Sunscreen SPF 30; Ulta Sunscreen SPF 50; Ultimate Aqua Blanc Protective; Ultimate Aqua Blanc Protective Lotion; Ultimate Day Age Defying Cream Creme Defi-age SPF/fps 25; Ultimate Day Transforming Lift Cream SPF 15; Ultimate Miracle Worker Eye SPF 15; Ultimate Miracle Worker Multi-rejuvenating SPF 30; Ultimate Pro-collagen Day and Night Duo; Ultimate Seer Sunscreen SPF 55 daylogic; Ultimate Sheer; Ultimate Sheer SPF 55 body; Ultimate Sheer SPF 70; Ultimate Sheer Sunscreen SPF 100 Rite Aid; Ultimate Sheer Sunscreen SPF 30 daylogic; Ultimate Sheer Sunscreen SPF 70 Quality Choice; Ultimate Sheer Sunscreen SPF 70 daylogic; Ultimate Sheer Sunscreen SPF 70 exchange select; Ultimate Sheer Sunscreen SPF 85 Rite Aid; Ultimate Sheer Tinted Moisturizer 181 Nude/nue; Ultimate Sheer Tinted Moisturizer 182 Natural/naturel; Ultimate Sport Face Sunscreen Lotion; Ultimate Sport Sunscreen; Ultimate Sport Sunscreen Lotion; Ultimate Sport Sunscreen Lotion SPF 30; Ultimate Sport Sunscreen Spray SPF 30; Ultimate Sport Sunscreen Spray SPF 45; Ultimate Sport Sunscreen Spray SPF 60; Ultimate Sport Sunscreen Spray SPF 70; Ultimate Sport Sunscreen Spray SPF 85; Ultimate Transforming Hand and Nail Cream SPF 15; Ultra Calming Daily Moisturizer SPF 15; Ultra Correction Creme Retructurante - SPF 10; Ultra Correction Emulsion Restructurante - SPF 10; Ultra Correction Lift CRème De Jour Lift Fermeté; Ultra Correction Lift Fluide De Jour Lift Fermete; Ultra Correction Lift Lift Firming Sunscreen Day Broad Spectrum SPF 15; Ultra Correction Lift Lifting Firming Sunscreen Day Fluid Broad Spectrum SPF 15; Ultra Correction Lift SPF 15; Ultra Correction Line Repair - CRème De Jour Anti-rides; Ultra Correction Line Repair - Fluide De Jour Anti-rides; Ultra Correction Line Repair Anti-wrinkle Sunscreen Day Broad Spectrum SPF 15; Ultra Correction Line Repair Anti-wrinkle Sunscreen Day Comfort Texture Broad Spectrum SPF 15; Ultra Correction Line Repair Anti-wrinkle Sunscreen Day Fluid Broad Spectrum SPF 15; Ultra Correction Line Repair SPF 15; Ultra Correction SPF 15; Ultra Defense Spray Sunscreen / Écran Solaire En Vaporisateur SPF/fps 60; Ultra Defense Spray Sunscreen Ecran Solaire En Vaporisateur SPF/fps 30; Ultra Defense Spray Sunscreen Écran Solaire En Vaporisateur SPF Fps 100; Ultra Defense Spray Sunscreen Écran Solaire En Vaporisateur SPF/fps 60 Photostable; Ultra Defense Spray Sunscreen/ecran Solaire En Vaporisateur SPF/fps 50; Ultra Defense Sunscreen Lotion Ecran Solaire SPF/fps 15; Ultra Defense Sunscreen Lotion Ecran Solaire SPF/fps 30; Ultra Defense Sunscreen Lotion Lotion Écran Solaire SPF Fps 30 Photostable; Ultra Defense Sunscreen Lotion Lotion Écran Solaire SPF Fps 60; Ultra Defense Sunscreen Lotion Lotion Écran Solaire SPF Fps 60 Photostable; Ultra Defense Sunscreen Lotion Lotion Écran Solaire SPF/fps 15 Photostable; Ultra Defense Sunscreen Lotion Écran Solaire SPF Fps 15 Technologie Avotriplex Technology; Ultra Defense Sunscreen Lotion Écran Solaire SPF Fps 30 Technologie Avotriplex Technology; Ultra Defense Sunscreen Lotion Écran Solaire SPF Fps 50; Ultra Defense Sunscreen Lotion Écran Solaire SPF Fps 50 Technologie Avotriplex Technology; Ultra Defense Sunscreen Stick Écran Solaire En Bâtonnet SPF Fps 50; Ultra Defense Sunscreen Écran Solaire SPF Fps 100; Ultra Facial Cream/crème SPF 30; Ultra Facial Moisturizer SPF 30; Ultra Fluide Corps; Ultra Fluide Visage; Ultra Lift Anti-wrinkle Firming Moisturizing Cream; Ultra Light Advanced Continuous Spray Lotion; Ultra Light Advanced Lotion; Ultra Light Facial Sunscreen SPF 50; Ultra Light Sunscreen Broad Spectrum SPF 50; Ultra Light Sunscreen Broad Spectrum SPF 50 Merle Norman; Ultra Mist Banana Boat Kids Sunblock Lotion Ecran Solaire Pour Enfants Uva & Uvb SPF Fps 50; Ultra Mist Banana Boat Sport Clear Sunblock Ecran Solaire Incolore Uva & Uvb SPF Fps 30; Ultra Mist Banana Boat Ultra Clear Sunblock Ecran Solaire Incolore Uva & Uvb SPF Fps 30; Ultra Protection Eye Lip Nose Sunscreen Broad Spectrum SPF 40; Ultra Protection SPF 70; Ultra Protection Stick Broad Spectrum SPF 40 La Prairie Switzerland; Ultra Protection Sunscreen Stick SPF 60; Ultra Protection stick La prarie Switerland; Ultra Protection stick SPF 40 La prairie Switzerland; Ultra Sheer Body Mist Sunscreen; Ultra Sheer Body Mist Sunscreen SPF 100; Ultra Sheer Body Mist Sunscreen SPF 30; Ultra Sheer Body Mist Sunscreen SPF 45; Ultra Sheer Body Mist Sunscreen SPF 85; Ultra Sheer Daily Defense Facial SPF 18; Ultra Sheer Dry Touch Sunscreen SPF 30; Ultra Sheer Dry-touch Sunscreen; Ultra Sheer Dry-touch Sunscreen SPF 100; Ultra Sheer Dry-touch Sunscreen SPF 110; Ultra Sheer Dry-touch Sunscreen SPF 30; Ultra Sheer Dry-touch Sunscreen SPF 45; Ultra Sheer Dry-touch Sunscreen SPF 55; Ultra Sheer Dry-touch Sunscreen SPF 60; Ultra Sheer Face & Body Stick SPF 60; Ultra Sheer Face & Body Stick Sunscreen SPF 50+; Ultra Sheer Face Mist Sunscreen; Ultra Sheer Face Sunscreen; Ultra Sheer Face Sunscreen SPF 110; Ultra Sheer Face Sunscreen SPF 45; Ultra Sheer Face Sunscreen SPF 60; Ultra Sheer Face Sunscreen SPF 70; Ultra Sheer Foaming Lotion SPF 30; Ultra Sheer Foaming Lotion SPF 60; Ultra Sheer Moisturizing Face Serum Sunscreen; Ultra Sheer Sunscreen Lotion; Ultra Sheer Water Light; Ultra Soft Hydrating Sunblock SPF 30; Ultra Soft Hydrating Sunblock SPF 45; Ultra Sun Protection Lotion Ti; Ultra Sun Protection Spray; Ultra Sun Protector Lotion Lait Solaire Ultra Protection 50+; Ultra Sunscreen; Ultra V IDEBENONE SUNBLOCK; Ultra-Light Hydrating Sunscreen SPF 50 Eau Thermale Avene; Ultra-fluid Body Milk Sun Protection SPF 15; Ultra-fluid Body Milk Sun Protection SPF 30; Ultra-fluid Protection SPF 20; Ultra-fluid Sun Protection SPF 30; Ultra-lift SPF 15; Ultra-light Lotion SPF 50; Ultra-light Moisturizing Lotion SPF 30; Ultra-light Refreshing Uv Lotion; Ultra-light Uv Lotion; Ultrasol KIDS Sunscreen; Ultrasol Kids; Ultrasol OIL-FREE Sunscreen; Ultrasol Sport; Ultrasol nature BABY Sunscreen; UltrasolSunscreen Clear CONTINUOUS SPRAY SPF43; UltrasolSunscreen KIDS Clear CONTINUOUS SPRAY; UltrasolSunscreen KIDS Sunscreen Lotion; UltrasolSunscreen KIDS Sunscreen Lotion Continuous Spray SPF 45; UltrasolSunscreen KIDS Sunscreen Lotion SPF 34; UltrasolSunscreen KIDS Sunscreen Mousse; UltrasolSunscreen KIDS Sunscreen Spray Lotion SPF 30; UltrasolSunscreen Sport Clear CONTINUOUS SPRAY; UltrasolSunscreen Sport Sunscreen Lotion CONTINUOUS SPRAY SPF 45; UltrasolSunscreen Sunscreen Face Cream SPF 34; UltrasolSunscreen Sunscreen Lotion Continuous Spray SPF 45; UltrasolSunscreen Sunscreen Lotion SPF 15; UltrasolSunscreen Sunscreen Lotion SPF 34; UltrasolSunscreen Sunscreen Lotion SPF45; UltrasolSunscreen Sunscreen Spray Lotion SPF 15; UltrasolSunscreen nature BABY Sunscreen Face Cream SPF 45; Uncomplikated Makeup Setting SPF 50; Uncomplikated SPF; Unicorn Snot 30 Glitter Sunscreen Blue; Unicorn Snot 30 Glitter Sunscreen Gold; Unicorn Snot 30 Glitter Sunscreen Love Shack; Unicorn Snot 30 Glitter Sunscreen Pink; Unicorn Snot 30 Glitter Sunscreen Space Junk; Unicorn Snot Bio 30 Glitter Sunscreen Love Shack; Unicorn Snot SPF 30 Bioglitter Sunscreen; United Spirit of America (Warrior) Broad Spectrum SPF 30; United Spirit of America (Warrior) Broad Spectrum SPF 50; United Spirit of America BROAD SPECTRUM SPF 30 Sunscreen; Universal Anti-aging Daily Moisturizing Cream SPF 30; Unscented Body SPF 30 Broad Spectrum; Unscented Classic Face SPF 30 Broad Spectrum; Unseen Sunscreen; Unseen Sunscreen Body SPF 40; Unseen Sunscreen Broad Spectrum SPF 40; Up and Up Illuminating Daily Moisturizer with Sunscreen Broad Spectrum SPF 15; Up and Up Sport Sunscreen Broad Spectrum SPF 50; Urban Decay Urban Defense Complexion Primer Broad Spectrum SPF 30; Urban Defense; Urban Environment Fresh - Moisture; Urban Legend Antioxidant Day Cream with Green Tea and Vitamin C Sunscreen Broad Spectrum SPF 30; Urban Outfitters Broad Spectrum SPF 30 Sunscreen; Urban Outfitters SPF 15 Broad Spectrum Sunscreen; Urban Outfitters Sunscreen Shimmer Broad Spectrum SPF 30; Urban Skin Defence; Usana Sense Daytime Protective SPF 15; Uv Expert SPF 15; Uv Lip Color Splash; Uv Lip Color Splash Touche Couleur Lèvres Protection Uv Tahiti Blue; Uv Lock Flower Daily Powerful Sun Spf50plus Pa Plus Plus Plus; Uv Lock Flower Mild Sun Spf35 Pa Plus Plus; Uv Protectant SPF 15 Lot; Uv Stop - Lot; Uv+age Daily; VITAMIN E MOISTURE-PROTECT SPF 30 PA plus plus plus; Vacation Chardonnay Broad Spectrum SPF 30 Sunscreen; Vacation Classic Broad Spectrum SPF 30 Sunscreen; Vacation Lip Trips Desserts; Vacation Lip Trips Desserts After Dinner Mint; Vacation Lip Trips Desserts Bananas Foster; Vacation Lip Trips Desserts Bombe Alaska; Vacation Lip Trips Desserts Pineapple Upside Down Cake; Vacation Lip Trips Desserts Strawberry Jello; Vacation SPF 30 ClassicSpray; Vacation World Classic Whip SPF 30; Vanilla Lip Balm; Vanilla Mint Broad Spectrum SPF 15 Lip Moisturizer; Vanilla Mint Lip Balm; Vanilla Mint Lip SPF 30 Balm; Vanilla Mint SPF 15 Broad Spectrum Lip Balm; Vanilla SPF 15 Broad Spectrum Lip Balm; Vanilla SPF 15 Lip; Vanilla SPF 30 Broad Spectrum Lip Balm; Vapo Haute Protection Soleil Sun High Protection Spray Fps 30 SPF; Vaseline; Vaseline Br.int.care Broad Spectrum Sb.spf15; Vaseline Intensive Care Aloe Fresh SPF 15; Vaseline Men plus Care Hydrate Face; Vaseline Total Moisture Aloe Fresh SPF 15; Vegan Collagen Every Day; Venofye Orchard Bee Brilliance SPF 30; Vertra Element Resistance Daily Driver SPF30; Vertra Hawaiian Shaved Ice Pineapple SPF30; Vertra Lava Lava Hibiscus SPF30; Very Emollient Body Daily Shade SPF15; Vialprotection Age Defying Protective SPF 50; Vichy Creme Ecran Total Intol.soc. SPF 30; Vichy Laboratoire Capital Soleil SPF 30 Soft Sheer Sunscreen; Vichy Laboratoire Capital Soleil SPF 60 Soft Sheer Sunscreen; Vichy Laboratoires Aqualia Antiox Pro-Youth Anti-Oxidant 24Hr Hydrating Fluid SPF 12; Vichy Laboratoires Aqualia Thermal Sunscreen; Vichy Laboratoires Aqualia Thermal UV Defense Moisturizer Broad Spectrum SPF 30 Sunscreen; Vichy Laboratoires Capital Soleil 30 Broad Spectrum SPF 30 Sunscreen Luxurious Protective; Vichy Laboratoires Capital Soleil 30 Sunscreen Luxurious Protective; Vichy Laboratoires Capital Soleil 50 Daily AntiAging Face Sunscreen Broad Spectrum SPF 50 Water Resistant 80 Minutes; Vichy Laboratoires Capital Soleil 60 Daily AntiAging Face and Body Sunscreen Broad Spectrum SPF 60 Water Resistant 80 Minutes; Vichy Laboratoires Capital Soleil SPF 50 Ultra Light Sunscreen; Vichy Laboratoires Ideal Capital Soleil 45 Sunscreen Broad Spectrum SPF 45 Water Resistant 80 Minutes; Vichy Laboratoires Ideal Capital Soleil 50 Sunscreen Broad Spectrum SPF 50 Water Resistant 40 Minutes; Vichy Laboratoires Ideal Capital Soleil 60 Sunscreen Broad Spectrum SPF 60 Water Resistant 40 Minutes; Vichy Laboratoires LiftActiv Retinol HA Total Anti-Wrinkle Daily Intervention SPF 18; Vichy Laboratoires Liftactiv Retinol HA Broad Spectrum SPF 18 Sunscreen; Vichy Laboratories Aqualia Thermal UV Defense SPF 30 Mineralizing Thermal Water Niacinamide Plant Sugar Vitamin E 48 hr Dynamic Hydration Oil free lightweight texture All skin types; Vichy Laboratories LiftActiv Peptide-C SPF 30 Phyto Peptides Vitamin C; Vichy Lait Ecran Total Intoler.sol. SPF 30; Vichy Lait Ecran Total Special Enf.SPF 25; Vichy Lait Hydratant Bronzage Progresif Spf8; Vichy Lait Protecteur SPF 15; Vichy-creme Ecran Total SPF 25; Vichy-creme Haute Protection SPF 15; Vichy-lait Ecran Total SPF 25; Victorias Secret Pink Broad Spectrum SPF 25 Sunscreen Sunkissed; Victorias Secret Sun Broad Spectrum SPF 25; Villa Floriani Aloe Ultra-hydrating Day SPF 20; Villa Floriani Chamomile Calming Day SPF 20; Villa Floriani Mint Purifying Day SPF 20; Vincent Longo Ultra Light Canvas Tinted Moisturizer Broad Spectrum SPF 20 Sunscreen Shade 1; Vincent Longo Ultra Light Canvas Tinted Moisturizer Broad Spectrum SPF 20 Sunscreen Shade 2; Vincent Longo Ultra Light Canvas Tinted Moisturizer Broad Spectrum SPF 20 Sunscreen Shade 3; Vincent Longo Ultra Light Canvas Tinted Moisturizer Broad Spectrum SPF 20 Sunscreen Shade 4; Vincent Longo Ultra Light Canvas Tinted Moisturizer Broad Spectrum SPF 20 Sunscreen Shade 5; Vincent Longo Ultra Light Canvas Tinted Moisturizer Broad Spectrum SPF 20 Sunscreen Shade 6; Vine Vera Resveratrol Cabernet Replenishing Moisture; Vine Vera Resveratrol Zinfandel Radiance; Vinexpert Broad Spectrum SPF 15 Radiance Day; Vinexpert Broad Spectrum SPF 15 Radiance Day Fluid; Vinexpert Radiance Day Fluid SPF 10; Vinexpert Riche Radiance Day SPF 10; Vinoperfect Broad Spectrum SPF 15 Day Perfecting; Vinoperfect Broad Spectrum SPF 15 Day Perfecting Fluid; Vinoperfect Day Perfecting Fluid SPF 15; Vinoperfect Day Perfecting SPF 15; Vinoperfect Radiance Moisturizer Broad Spectrum SPF20; Visage Envy Facial Moisturizing SPF30; Visage Envy Invisible Face Gel SPF50; Visage Envy Remodeling Day Cream SPF15; Visage Pro Peach Fuzz; Visible Difference Gentle Hydrating Broad Spectrum Sunscreen SPF 15; Visible Difference Gentle Hydrating Cream SPF 15; Visible Lift C.C. Cream SPF 20; Visual Perfection Tint Releasing Moisturizer SPF 20; Vita Lift SPF 15 Daily Moisturizer; Vital Protection SPF 15; Vital Sun Protection SPF 15; Vital Sun Protection SPF 30; Vital Sun Protection SPF 40; Vitamin C Brightening Facial Oil Stick; Vitamin C Brightening Facial Oil Stick SPF 30; Vitamin C Daily Moisturiser With SPF 15; Vitamin C Daily Moisturizer SPF 30; Vitamin C Glow-protect Lotion SPF 30; Vitamin C Glow-protect SPF 30; Vitamin C Suncare Broad Spectrum SPF 30 Sunscreen; Vitamin Cream C plus C; Vitamin E Day SPF 15; Vitamin E Lip Care SPF 15; Vitamin E Moisture Lotion Spf15; Vitamin E Moisture SPF 15; Vitamin E Moisture-protect Emulsion SPF 30; Vitamin E Moisture-protect Lip Care; Vitamin E Moisture-protect Lip Care SPF 15; Vitamin E Moisturizing Day SPF 15; Vitamin E SPF15 Lip Balm; Vitamin Fluid CC; Vitazing Energy Boosting Moisturizer SPF 15; Vitazing SPF 15 Energy Boosting Moisturizer With Mangosteen Broad Spectrum SPF 15; Vivier Sheer SPF 30; Vivierskin Sunscreen SPF 30; Vmv Hypoallergenics Armada Sport 50; Volu-firm Day Cream Sunscreen; Volu-firm Day Cream Sunscreen Broad Spectrum SPF 30; Volu-firm Day Cream With SPF 30; Voupre Age Defense; Walg Sun Moist Spf30; Walg Sun Moist Spf50; Walg Sun Moisturizing SPF 50; Walgreen Clear Complexion; Walgreen Sport SPF 50; Walgreen Sport SPF 70 Sunscreen; Walgreens 7-in-1 Anti-Aging Vitamin Complex Broad Spectrum SPF 15 Sunscreen; Walgreens Advanced Anti-Wrinkle and Firming Day Cream Broad Spectrum SPF18 Sunscreen; Walgreens Anti-Sagging and Ultra Hydrating Day Broad Spectrum SPF15 Sunscreen; Walgreens Anti-Sagging and Ultra Hydrating Day Cream Broad Spectrum SPF15 Sunscreen; Walgreens Broad Spectrum SPF 110 Age Protection Sunscreen; Walgreens Broad Spectrum SPF 30 Dry Touch Sunscreen; Walgreens Broad Spectrum SPF 70 Sunscreen; Walgreens Broad Spectrum Sport SPF 50 Sunscreen; Walgreens Clear Face; Walgreens Dry Touch Broad Spectrum SPF 55; Walgreens Kids SPF 50; Walgreens SPF 30 Hydrating Continuous; Walgreens SPF 50 Clear Complexion Face Sunscreen; Walgreens SPF 50 Clear Complexion For Face; Walgreens SPF 50 Sport Faces; Walgreens SPF 55 Dry Touch; Walgreens SPF 55 Sheer Face Mist Sunscreen; Walgreens SPF 70 Sport Continuous; Walgreens SPF55 Sunscreen; Walgreens SPF55 Sunscreen Reef-Conscious Formula; Walgreens SUNSCREEN Sport Broad Spectrum SPF 30; Walgreens Scar Cream w/SPF 30; Walgreens Sport Broad Spectrum SPF 50 Faces Sunscreen; Walgreens Sport Continuous SPF 30; Walgreens Sport Faces SPF 30; Walgreens Sport SPF 30; Walgreens Sport SPF 50; Walgreens Sport SPF 50 Sunscreen; Walgreens Sun Kids SPF50; Walgreens Sunscreen Baby SPF 50; Walgreens Sunscreen Broad Spectrum SPF 30; Walgreens Sunscreen SPF 30; Walgreens Sunscreen SPF 50; Walgreens Sunscreen Sport SFP 70; Walgreens Sunscreen Sport SPF 30; Walgreens Sunscreen Sport SPF 50; Walgreens Wrinkle Repair Moisturizer SPF30; Walgreens sunscreen Broad Spectrum SPF 15; Walmart Equate Beauty Ultra Light Sunscreen Broad Spectrum SPF 55; Walmart Equate Beauty Ultra Light Sunscreen SPF 100; Water Babies Uv Guard SPF-30 Lotion; Water Babies Uvguard SPF 15 Lotion; Water Drench; Water Resistant Natural Lavender Sun Block SPF 30; Waterbright Radiating; Waterful Sun; Waterguard Kids; Waterguard Kids Sunscreen Clear Spray; Watermans SPF 55; Watermelon Tanning Oil SPF15; Watermelon Tanning Oil SPF6; Watermelon Twist SPF 15 Broad Spectrum Lip Balm; Waterproof Solar Spray SPF 25; Waterwhite Brightening Lotion SPF 15; Waterwhite Eye Cream; Wegmans Sport Broad Spectrum SPF 70 Clear Continuous Sunscreen; Wegmans Sport Clear Continuous Sunscreen SPF 30; Well at Walgreens Kids Sunscreen Broad Spectrum SPF 50; Well at Walgreens Mist Sheer Broad Spectrum Broad Spectrum SPF 30; Wellcare Sunstick 01; Wellcare Sunstick Lip Balm; Wellcare Sunstick Sunscreen Stick; Western FAMILY SPF 15; Western Family Baby Broad Spectrum Sunscreen SPF 50; Western Family Broad Spectrum Sunscreen SPF 70; Western Family Broad Spectrum SunscreenSPF 50 SPF 50; Western Family Oil Free Faces SPF 30; Western Family Sport Sunscreen SPF 30; Wet Guard Swim Humidity Sweat Sunscreen Lotion; Wet N Wild Ultimate Match SPF 15 Liquid Foundation; Wet Skin Kids; Wet Skin SPF 30; Wet Skin SPF 45; Wet Skin SPF 60; Wet Skin Sunscreen Spray SPF 85; Wet Skin Swim Humidity Sweat Sunscreen Lotion; White Caviar Illuminating Hand SPF 15; White Caviar Illuminating Hand Sunscreen Broad Spectrum SPF 15; White Caviar Illuminating Hand Sunscreen Broad Spectrum SPF 15 La Prairie; White Girl Sunscreen; White Tea Tinted Moisturizer; WhiteWater Advanced Brightening WhiteWater Advanced Brightening SPF30; Whitening Glycobest; Wildberry Lip Balm; Wildberry SPF 15 Broad Spectrum Lip Balm; With 6 SPF Sunscreen Uva/uvb Protection Self Tanning Essential Bronze Milk; With 6 SPF Sunscreen Uva/uvb Protection Self Tanning Ultra Natural Bronze Care; Wknd Underwater Sun Tan; Wknd Underwater Sun White; Wonderblur Immediate Skin Smoothing Finishing Broad Spectrum SPF30; Wrinkle Control Day Creme Broad Spectrum SPF 15; Wrinkle Corrector and Firming Moisturizer SPF 15; Wrinkle Expert Age Defense Uv Lotion; XIELL Intensive Cell Recovery Sun Cream; XXL Demi Make Up SPF 50; XXL Sun Block SPF 50; YAM DOUBLE CARE FLUID SPF17 PA Plus Plus; Yadah Oh My Sun Block; Yadah Oh My Sun Slush; Yanbal Sentiva Extracto Divino Youth Renewal Moisturizing SPF 20; YourGoodSkin SPF 30 Anti-oxidant Day Sunscreen Broad Spectrum SPF 30; Youth Cell Day Broad Spectrum SPF-15 Sunscreen; Youth Code Day Cream SPF 30; Youth Code Day Lotion SPF 30; Youth Surge Age Decelerating Moisturizer SPF 15; Youth for Life SPF 30; Youth-enriched With Orchid; Yves Saint Laurent Forever Youth Liberator; Yves Saint Laurent Forever Youth Liberator Broad Spectrum SPF 15 Sunscreen Fluid; Yves Saint Laurent Forever Youth Liberator Sunscreen Broad Spectrum SPF 15 Antiwrinkle Lift Plump Radiance; ZO SKIN HEALTH OCLIPSE SUN SPF 50 BROAD SPECTRUM SUNSCREEN SPF 50 FOR FACE PLUS BODY WATER/PERSPIRATION RESISTANT (80 minutes); ZO SKIN HEALTH OCLIPSE SUN SPF 50 BROAD SPECTRUM SUNSCREEN SPF 50 FOR FACE PLUS BODY WATER/PERSPIRATION RESISTANT (80 minutes) UVA / UVB / HEV / IR-A PROTECTION ZOX12; ZO SKIN HEALTH ORASER ANTI-AGING HAND CARE PROGRAM Correct, protect and prevent aging hands; ZO Skin Health Smart Tone Broad-Spectrum Sunscreen SPF 50; Zermat Skin SPF 50 Broad Spectrum; Zinka SPF 30 Clear Sunscreen; Zirh Defend Repairing SPF15 Moisturizer; Zo Skin Health Oclipse Daily Sheer Broad-spectrum Sunscreen SPF 50; Zrii New Day Broad Spectrum SPF-30; ageLOC Elements; ageLOC Transformation; b.tan Beach Please SPF 7; b.tan SPF is Your BFF SPF 30; b.tan Sun Safe AF Face SPF 70; b.tan Sun Safe AF SPF 50; b.tan Tropic Like Its Hot SPF 15; be Flat Daily Mild Flat Sun Block; belif The true cream aqua bomb sunscreen Broad Spectrum SPF 50; benefit DREAM SCREEN BROAD SPECTRUM SPF 45 SUNSCREEN FOR FACE; bu SPF 30 Broad Spectrum Alcohol-Free Performance Sunscreen - Natural Citrus Scent; bu SPF 30 Broad Spectrum Alcohol-Free Performance Sunscreen - Natural White Sage Scent; bu SPF 30 Broad Spectrum on Alcohol-Free Performance Sunscreen - Fragrance Free; bu SPF 50 Broad Spectrum on Alcohol-Free Performance Sunscreen - Fragrance Free; bu SPF 50 KIDS Broad Spectrum Alcohol-Free Performance Sunscreen - Fragrance Free; bu SPF 50 S Broad Spectrum Alcohol-Free Performance Sunscreen - Natural White Sage Scent; callyssee Beauty Faceguard Skin Protecting Facial Balm; cle de peau BEAUTE LONG-LASTING HYDRATING VEIL; color correcting swirl foundation broad spectrum SPF 25 LIGHT; color correcting swirl foundation broad spectrum SPF 25 MEDIUM; color correcting swirl foundation broad spectrum SPF 25 TAN; coppertone Sunscreen Oil Free SFP 50; coppertone sport Sunscreen SPF 30; correcting cream Broad Spectrum SPF 15 asap; daily UV protection cream mild; delilah Time Frame Future Resist Foundation Broad Spectrum SPF 20 Sunscreen Foundation Truffle; e.l.f Whoa Glow Broad Spectrum SPF30 Sunscreen; e.l.f. Holy Hydration Face Cream SPF 30 Sunscreen; emilia Naked Sun; emilia Naked Sun Body Gel SPF30; emilia Naked Sun SPF 50 Invisible Face Gel; enfuselle BODY SUNSCREEN BROAD SPECTRUM SPF 30; eos Active with Aloe SPF 30 Sunscreen Lip Balm; equate Age Guard Face Broad Spectrum SPF 110 Sunscreen; equate Daily Facial Moisturizer Broad Spectrum Sunscreen; equate SPORT Sunscreen Broad Spectrum; flormar ADVICE Skin Geometry Day Sunscreen Broad Spectrum SPF 15; flormar ADVICE Skin Geometry Purely Moisturizing Day Sunscreen Broad Spectrum SPF 15 Dry and Sensitive Skin; flormar ADVICE Skin Geometry Purely Moisturizing Day Sunscreen Broad Spectrum SPF 15 Normal and Combination Skin; glo SKIN BEAUTY Moisturizing Tint SPF 30; glo Skin Beauty C-Shield Anti-Pollution Moisture Tint Broad Spectrum SPF 30; hello, sunshine moisturizer Broad Spectrum SPF 30 sunscreen; innisfree Daily UV Defense Sunscreen; intense UV protection emulsion; keras day shield broad spectrum SPF 25; laura mercier Tinted Moisturizer Creme Compact Broad Spectrum SPF 20 Sunscreen ALMOND; laura mercier Tinted Moisturizer Creme Compact Broad Spectrum SPF 20 Sunscreen BISQUE; laura mercier Tinted Moisturizer Creme Compact Broad Spectrum SPF 20 Sunscreen BLUSH; laura mercier Tinted Moisturizer Creme Compact Broad Spectrum SPF 20 Sunscreen CARAMEL; laura mercier Tinted Moisturizer Creme Compact Broad Spectrum SPF 20 Sunscreen FAWN; laura mercier Tinted Moisturizer Creme Compact Broad Spectrum SPF 20 Sunscreen MOCHA; laura mercier Tinted Moisturizer Creme Compact Broad Spectrum SPF 20 Sunscreen NUDE; laura mercier Tinted Moisturizer Creme Compact Broad Spectrum SPF 20 Sunscreen PORCELAIN; laura mercier Tinted Moisturizer Creme Compact Broad Spectrum SPF 20 Sunscreen SAND; laura mercier Tinted Moisturizer Creme Compact Broad Spectrum SPF 20 Sunscreen TAN; laura mercier Tinted Moisturizer Creme Compact Broad Spectrum SPF 20 Sunscreen TAWNY; laura mercier Tinted Moisturizer Creme Compact Broad Spectrum SPF 20 Sunscreen WALNUT; mally Lip Defender; mally Perfect Prep Poreless Primer; mark Glossworks Lip Gloss; mark Totally Balmed; mark. For Gooness Face Antioxidant Skin Moisturizing; mark. Get Defensive SPF 15 Eye; mark. do the right thing Smoothing Body SPF 15; meijer Baby Tear Free SPF 50 CS; mesoestetic DERMATOLOGICAL SUN PROTECTION BROAD SPECTRUM; mesoestetic moisturizing sun protection BROAD SPECTRUM FOR NORMAL AND DRY SKINS; nanocare Moisturizing Sunscreen SPF 50; perfect truth cc broad spectrum SPF 30 sunscreen Ole Henriksen; perfect truth cc eye broad spectrum SPF 15 OleHenriksen; recover skin boosting moisturizer broad spectrum SPF 15 Jafra gold dynamics; retrospect day shield broad spectrum SPF 25; skin effects Brightening Day SPF 50; skin effects Firming Facial with Retinol Complex SPF 30; skin elements liquid veil foundation broad spectrum SPF 25 DEEP; skin elements liquid veil foundation broad spectrum SPF 25 GOLDEN MEDIUM; skin elements liquid veil foundation broad spectrum SPF 25 LIGHT; skin elements liquid veil foundation broad spectrum SPF 25 MEDIUM; skin elements liquid veil foundation broad spectrum SPF 25 PORCELAIN; skin elements liquid veil foundation broad spectrum SPF 25 TAN; stila CC color correcting broad-spectrum SPF 20 01 FAIR; stila CC color correcting broad-spectrum SPF 20 02 LIGHT; stila CC color correcting broad-spectrum SPF 20 03 TONE; stila CC color correcting broad-spectrum SPF 20 04 MEDIUM; stila CC color correcting broad-spectrum SPF 20 05 RICH MEDIUM; stila CC color correcting broad-spectrum SPF 20 06 WARM; stila CC color correcting broad-spectrum SPF 20 07 DARK; stila CC color correcting broad-spectrum SPF 20 08 TAN; the Balm BalmShelter tinted moisturizer SPF 18 broad spectrum after dark; the Balm BalmShelter tinted moisturizer SPF 18 broad spectrum dark; the Balm BalmShelter tinted moisturizer SPF 18 broad spectrum lighter than light; the Balm BalmShelter tinted moisturizer SPF 18 broad spectrum medium dark; Écran Solaire Fps 10; Écran Solaire Spécial Rides SPF 15; Écran Total Anti-intolérances Solaires Fps 30; Écran Total Solaire SPF 25; Émulsion Hydratante Antirides; Émulsion Hydratante Visage Fps 30

$$$$
