
  Mrv1572004121620152D          

117124  0  0  0  0            999 V2000
    7.1739   -1.2936    0.0000 N   0  0  0  0  0  0  0  0  0  0  0  0
    1.8080    5.6679    0.0000 N   0  0  0  0  0  0  0  0  0  0  0  0
    6.4616   -0.8893    0.0000 C   0  0  0  0  0  0  0  0  0  0  0  0
    0.9747    5.6804    0.0000 C   0  0  0  0  0  0  0  0  0  0  0  0
    8.6071   -1.2936    0.0000 C   0  0  0  0  0  0  0  0  0  0  0  0
    0.5498    4.9680    0.0000 N   0  0  0  0  0  0  0  0  0  0  0  0
    2.2080    4.9430    0.0000 C   0  0  0  0  0  0  0  0  0  0  0  0
   -2.1247   -0.8810    0.0000 C   0  0  0  0  0  0  0  0  0  0  0  0
    7.8946   -0.8810    0.0000 C   0  0  2  0  0  0  0  0  0  0  0  0
    0.9497    4.2474    0.0000 C   0  0  2  0  0  0  0  0  0  0  0  0
   -4.2744   -1.2936    0.0000 C   0  0  0  0  0  0  0  0  0  0  0  0
    4.3202   -1.3018    0.0000 C   0  0  0  0  0  0  0  0  0  0  0  0
    2.1747   -0.8893    0.0000 C   0  0  0  0  0  0  0  0  0  0  0  0
   -6.4282   -0.8810    0.0000 C   0  0  0  0  0  0  0  0  0  0  0  0
    0.0332   -1.3018    0.0000 C   0  0  0  0  0  0  0  0  0  0  0  0
   -8.5862   -1.2936    0.0000 C   0  0  0  0  0  0  0  0  0  0  0  0
    0.5248    3.5350    0.0000 C   0  0  0  0  0  0  0  0  0  0  0  0
   -3.5494   -0.8810    0.0000 N   0  0  0  0  0  0  0  0  0  0  0  0
   -2.8370   -1.3018    0.0000 C   0  0  1  0  0  0  0  0  0  0  0  0
   -1.3997   -1.3018    0.0000 N   0  0  0  0  0  0  0  0  0  0  0  0
    0.7498   -0.8893    0.0000 N   0  0  0  0  0  0  0  0  0  0  0  0
   -5.7116   -1.2936    0.0000 N   0  0  0  0  0  0  0  0  0  0  0  0
    2.8953   -1.3018    0.0000 N   0  0  0  0  0  0  0  0  0  0  0  0
   -7.8656   -0.8810    0.0000 N   0  0  0  0  0  0  0  0  0  0  0  0
    5.0367   -0.8893    0.0000 N   0  0  0  0  0  0  0  0  0  0  0  0
    1.7747    4.2306    0.0000 C   0  0  0  0  0  0  0  0  0  0  0  0
    9.3194   -0.8893    0.0000 N   0  0  0  0  0  0  0  0  0  0  0  0
   -0.6874   -0.8810    0.0000 C   0  0  1  0  0  0  0  0  0  0  0  0
    1.4623   -1.3018    0.0000 C   0  0  2  0  0  0  0  0  0  0  0  0
   -7.1489   -1.2936    0.0000 C   0  0  2  0  0  0  0  0  0  0  0  0
   -4.9910   -0.8810    0.0000 C   0  0  2  0  0  0  0  0  0  0  0  0
    3.6077   -0.8893    0.0000 C   0  0  1  0  0  0  0  0  0  0  0  0
    2.6703   -5.6887    0.0000 C   0  0  0  0  0  0  0  0  0  0  0  0
    5.7492   -1.3018    0.0000 C   0  0  1  0  0  0  0  0  0  0  0  0
   -9.2987   -0.8810    0.0000 C   0  0  2  0  0  0  0  0  0  0  0  0
   10.7485   -0.8893    0.0000 C   0  0  0  0  0  0  0  0  0  0  0  0
  -10.0153   -1.2936    0.0000 N   0  0  0  0  0  0  0  0  0  0  0  0
    0.9455    2.8225    0.0000 N   0  0  0  0  0  0  0  0  0  0  0  0
  -10.7359   -0.8768    0.0000 C   0  0  0  0  0  0  0  0  0  0  0  0
   10.0361   -1.3018    0.0000 C   0  0  1  0  0  0  0  0  0  0  0  0
    3.0870   -4.9763    0.0000 N   0  0  0  0  0  0  0  0  0  0  0  0
    6.4616   -0.0562    0.0000 O   0  0  0  0  0  0  0  0  0  0  0  0
    0.5749    6.4053    0.0000 O   0  0  0  0  0  0  0  0  0  0  0  0
    8.6071   -2.1184    0.0000 O   0  0  0  0  0  0  0  0  0  0  0  0
   -9.2987   -0.0520    0.0000 C   0  0  0  0  0  0  0  0  0  0  0  0
   -2.1247   -0.0562    0.0000 O   0  0  0  0  0  0  0  0  0  0  0  0
   -6.4282   -0.0520    0.0000 O   0  0  0  0  0  0  0  0  0  0  0  0
   -4.2744   -2.1267    0.0000 O   0  0  0  0  0  0  0  0  0  0  0  0
    4.3202   -2.1267    0.0000 O   0  0  0  0  0  0  0  0  0  0  0  0
    0.0332   -2.1309    0.0000 O   0  0  0  0  0  0  0  0  0  0  0  0
   -8.5862   -2.1267    0.0000 O   0  0  0  0  0  0  0  0  0  0  0  0
    2.1747   -0.0562    0.0000 O   0  0  0  0  0  0  0  0  0  0  0  0
   -0.3041    3.5557    0.0000 O   0  0  0  0  0  0  0  0  0  0  0  0
   -8.9112    2.0934    0.0000 C   0  0  0  0  0  0  0  0  0  0  0  0
    3.0370    4.9222    0.0000 O   0  0  0  0  0  0  0  0  0  0  0  0
   -7.1489   -2.1267    0.0000 C   0  0  0  0  0  0  0  0  0  0  0  0
    1.4623   -2.1267    0.0000 C   0  0  0  0  0  0  0  0  0  0  0  0
   -0.6874   -0.0562    0.0000 C   0  0  0  0  0  0  0  0  0  0  0  0
   -8.8904    0.6687    0.0000 C   0  0  0  0  0  0  0  0  0  0  0  0
   -4.9910   -0.0520    0.0000 C   0  0  0  0  0  0  0  0  0  0  0  0
   -9.3112    1.3811    0.0000 C   0  0  0  0  0  0  0  0  0  0  0  0
    1.8455   -5.6804    0.0000 O   0  0  0  0  0  0  0  0  0  0  0  0
   10.7485   -0.0562    0.0000 O   0  0  0  0  0  0  0  0  0  0  0  0
    3.6077   -0.0562    0.0000 C   0  0  0  0  0  0  0  0  0  0  0  0
   -4.6035    2.0851    0.0000 N   0  0  0  0  0  0  0  0  0  0  0  0
  -10.7359   -0.0437    0.0000 O   0  0  0  0  0  0  0  0  0  0  0  0
   -8.0780    2.1059    0.0000 C   0  0  0  0  0  0  0  0  0  0  0  0
    0.5374    2.1059    0.0000 C   0  0  0  0  0  0  0  0  0  0  0  0
    3.0745   -6.4053    0.0000 N   0  0  0  0  0  0  0  0  0  0  0  0
   -7.6614    1.3977    0.0000 C   0  0  0  0  0  0  0  0  0  0  0  0
   11.4608   -1.2936    0.0000 N   0  0  0  0  0  0  0  0  0  0  0  0
    7.1739   -0.4687    0.0000 C   0  0  0  0  0  0  0  0  0  0  0  0
    2.6745   -4.2556    0.0000 C   0  0  0  0  0  0  0  0  0  0  0  0
   -0.2749    0.6687    0.0000 C   0  0  0  0  0  0  0  0  0  0  0  0
    1.8746   -2.8391    0.0000 C   0  0  0  0  0  0  0  0  0  0  0  0
   -6.9365   -2.9266    0.0000 C   0  0  0  0  0  0  0  0  0  0  0  0
   -8.0655    0.6811    0.0000 C   0  0  0  0  0  0  0  0  0  0  0  0
   -6.5115   -4.5180    0.0000 C   0  0  0  0  0  0  0  0  0  0  0  0
   -4.5868    0.6687    0.0000 C   0  0  0  0  0  0  0  0  0  0  0  0
    7.1739   -4.6013    0.0000 N   0  0  0  0  0  0  0  0  0  0  0  0
   -6.2991   -5.3179    0.0000 Cl  0  0  0  0  0  0  0  0  0  0  0  0
   -2.8370   -2.1309    0.0000 C   0  0  0  0  0  0  0  0  0  0  0  0
   -0.2916    2.0934    0.0000 C   0  0  0  0  0  0  0  0  0  0  0  0
    0.9581    1.3935    0.0000 C   0  0  0  0  0  0  0  0  0  0  0  0
    1.8579   -4.2556    0.0000 C   0  0  0  0  0  0  0  0  0  0  0  0
    3.0953   -3.5515    0.0000 C   0  0  0  0  0  0  0  0  0  0  0  0
   -7.5239   -3.5057    0.0000 C   0  0  0  0  0  0  0  0  0  0  0  0
   -6.1407   -3.1307    0.0000 C   0  0  0  0  0  0  0  0  0  0  0  0
    0.5498    0.6729    0.0000 C   0  0  0  0  0  0  0  0  0  0  0  0
    2.6871   -2.8391    0.0000 C   0  0  0  0  0  0  0  0  0  0  0  0
   -0.6999    1.3727    0.0000 C   0  0  0  0  0  0  0  0  0  0  0  0
    1.4498   -3.5432    0.0000 C   0  0  0  0  0  0  0  0  0  0  0  0
   -5.9242   -3.9306    0.0000 C   0  0  0  0  0  0  0  0  0  0  0  0
   -7.3115   -4.3014    0.0000 C   0  0  0  0  0  0  0  0  0  0  0  0
    7.8946   -0.0562    0.0000 C   0  0  0  0  0  0  0  0  0  0  0  0
   -2.1164   -2.5433    0.0000 O   0  0  0  0  0  0  0  0  0  0  0  0
   -5.0034    1.3685    0.0000 C   0  0  0  0  0  0  0  0  0  0  0  0
    7.3864    0.3312    0.0000 C   0  0  0  0  0  0  0  0  0  0  0  0
    5.7492   -2.1267    0.0000 C   0  0  0  0  0  0  0  0  0  0  0  0
    4.0119    0.6561    0.0000 C   0  0  0  0  0  0  0  0  0  0  0  0
  -11.4608   -1.2893    0.0000 C   0  0  0  0  0  0  0  0  0  0  0  0
   -3.7744    2.0976    0.0000 C   0  0  0  0  0  0  0  0  0  0  0  0
    6.4616   -5.0138    0.0000 C   0  0  0  0  0  0  0  0  0  0  0  0
   10.0361   -2.1267    0.0000 C   0  0  0  0  0  0  0  0  0  0  0  0
   -9.3362    2.8059    0.0000 C   0  0  0  0  0  0  0  0  0  0  0  0
    7.1739   -3.7765    0.0000 C   0  0  0  0  0  0  0  0  0  0  0  0
   -7.6739    2.8308    0.0000 C   0  0  0  0  0  0  0  0  0  0  0  0
   -3.7620    0.6729    0.0000 C   0  0  0  0  0  0  0  0  0  0  0  0
    6.4616   -2.5390    0.0000 C   0  0  0  0  0  0  0  0  0  0  0  0
    6.4616   -3.3640    0.0000 C   0  0  0  0  0  0  0  0  0  0  0  0
    4.8367    0.6603    0.0000 C   0  0  0  0  0  0  0  0  0  0  0  0
    3.5952    1.3685    0.0000 C   0  0  0  0  0  0  0  0  0  0  0  0
    6.4616   -5.8387    0.0000 C   0  0  0  0  0  0  0  0  0  0  0  0
    5.7492   -4.6013    0.0000 C   0  0  0  0  0  0  0  0  0  0  0  0
   -3.3620    1.3935    0.0000 C   0  0  0  0  0  0  0  0  0  0  0  0
   -8.9362    3.5307    0.0000 C   0  0  0  0  0  0  0  0  0  0  0  0
   -8.0988    3.5433    0.0000 C   0  0  0  0  0  0  0  0  0  0  0  0
  2  7  1  0  0  0  0
  3  1  1  0  0  0  0
  4  6  1  0  0  0  0
  9  5  1  1  0  0  0
  6 10  1  0  0  0  0
  7 26  1  0  0  0  0
  8 20  1  0  0  0  0
  9  1  1  0  0  0  0
 10 17  1  1  0  0  0
 11 18  1  0  0  0  0
 12 25  1  0  0  0  0
 13 23  1  0  0  0  0
 14 22  1  0  0  0  0
 15 21  1  0  0  0  0
 16 24  1  0  0  0  0
 17 38  1  0  0  0  0
 19 18  1  6  0  0  0
 19  8  1  0  0  0  0
 28 20  1  1  0  0  0
 29 21  1  1  0  0  0
 31 22  1  6  0  0  0
 32 23  1  1  0  0  0
 30 24  1  1  0  0  0
 34 25  1  6  0  0  0
 10 26  1  0  0  0  0
 27  5  1  0  0  0  0
 28 15  1  0  0  0  0
 29 13  1  0  0  0  0
 30 14  1  0  0  0  0
 31 11  1  0  0  0  0
 32 12  1  0  0  0  0
 33 41  1  0  0  0  0
 34  3  1  0  0  0  0
 35 16  1  0  0  0  0
 36 40  1  0  0  0  0
 35 37  1  6  0  0  0
 38 68  1  0  0  0  0
 39 37  1  0  0  0  0
 40 27  1  0  0  0  0
 41 73  1  0  0  0  0
 42  3  2  0  0  0  0
 43  4  2  0  0  0  0
 44  5  2  0  0  0  0
 35 45  1  0  0  0  0
 46  8  2  0  0  0  0
 47 14  2  0  0  0  0
 48 11  2  0  0  0  0
 49 12  2  0  0  0  0
 50 15  2  0  0  0  0
 51 16  2  0  0  0  0
 52 13  2  0  0  0  0
 53 17  2  0  0  0  0
 54 61  2  0  0  0  0
 55  7  2  0  0  0  0
 30 56  1  0  0  0  0
 29 57  1  0  0  0  0
 28 58  1  0  0  0  0
 59 45  1  0  0  0  0
 31 60  1  0  0  0  0
 61 59  1  0  0  0  0
 62 33  2  0  0  0  0
 63 36  2  0  0  0  0
 32 64  1  0  0  0  0
 65 97  2  0  0  0  0
 66 39  2  0  0  0  0
 67 70  2  0  0  0  0
 68 83  1  0  0  0  0
 69 33  1  0  0  0  0
 70 77  1  0  0  0  0
 71 36  1  0  0  0  0
 72  1  1  0  0  0  0
 73 85  2  0  0  0  0
 74 58  1  0  0  0  0
 75 57  1  0  0  0  0
 76 56  1  0  0  0  0
 77 59  2  0  0  0  0
 78 93  1  0  0  0  0
 79 60  1  0  0  0  0
 80106  1  0  0  0  0
 81 78  1  0  0  0  0
 19 82  1  0  0  0  0
 83 91  2  0  0  0  0
 84 89  1  0  0  0  0
 85 92  1  0  0  0  0
 86 90  2  0  0  0  0
 87 76  2  0  0  0  0
 88 76  1  0  0  0  0
 89 74  2  0  0  0  0
 90 75  1  0  0  0  0
 91 74  1  0  0  0  0
 92 75  2  0  0  0  0
 93 88  2  0  0  0  0
 94 87  1  0  0  0  0
  9 95  1  0  0  0  0
 96 82  1  0  0  0  0
 97 79  1  0  0  0  0
 98 72  1  0  0  0  0
 34 99  1  0  0  0  0
100 64  1  0  0  0  0
101 39  1  0  0  0  0
102115  2  0  0  0  0
103 80  1  0  0  0  0
 40104  1  1  0  0  0
105 54  1  0  0  0  0
106110  1  0  0  0  0
107 67  1  0  0  0  0
108 79  2  0  0  0  0
109 99  1  0  0  0  0
110109  1  0  0  0  0
111100  1  0  0  0  0
112100  1  0  0  0  0
113103  1  0  0  0  0
114103  1  0  0  0  0
115108  1  0  0  0  0
116105  2  0  0  0  0
117107  2  0  0  0  0
 98 95  1  0  0  0  0
 73 86  1  0  0  0  0
 68 84  2  0  0  0  0
  2  4  1  0  0  0  0
102 65  1  0  0  0  0
 78 94  2  0  0  0  0
 67 54  1  0  0  0  0
117116  1  0  0  0  0
M  END
> <DATABASE_ID>
DB06699

> <DATABASE_NAME>
drugbank

> <SMILES>
CC(C)C[C@H](NC(=O)[C@@H](CC1=CC=C(NC(N)=O)C=C1)NC(=O)[C@H](CC1=CC=C(NC(=O)[C@@H]2CC(=O)NC(=O)N2)C=C1)NC(=O)[C@H](CO)NC(=O)[C@@H](CC1=CC=CN=C1)NC(=O)[C@@H](CC1=CC=C(Cl)C=C1)NC(=O)[C@@H](CC1=CC=C2C=CC=CC2=C1)NC(C)=O)C(=O)N[C@@H](CCCCNC(C)C)C(=O)N1CCC[C@H]1C(=O)N[C@H](C)C(N)=O

> <INCHI_IDENTIFIER>
InChI=1S/C82H103ClN18O16/c1-45(2)35-60(72(107)92-59(16-9-10-33-87-46(3)4)80(115)101-34-12-17-68(101)79(114)88-47(5)70(84)105)93-74(109)63(38-51-23-30-58(31-24-51)91-81(85)116)95-76(111)64(39-50-21-28-57(29-22-50)90-71(106)66-42-69(104)100-82(117)99-66)97-78(113)67(44-102)98-77(112)65(41-53-13-11-32-86-43-53)96-75(110)62(37-49-19-26-56(83)27-20-49)94-73(108)61(89-48(6)103)40-52-18-25-54-14-7-8-15-55(54)36-52/h7-8,11,13-15,18-32,36,43,45-47,59-68,87,102H,9-10,12,16-17,33-35,37-42,44H2,1-6H3,(H2,84,105)(H,88,114)(H,89,103)(H,90,106)(H,92,107)(H,93,109)(H,94,108)(H,95,111)(H,96,110)(H,97,113)(H,98,112)(H3,85,91,116)(H2,99,100,104,117)/t47-,59+,60+,61-,62-,63-,64+,65-,66+,67+,68+/m1/s1

> <INCHI_KEY>
MEUCPCLKGZSHTA-XYAYPHGZSA-N

> <FORMULA>
C82H103ClN18O16

> <MOLECULAR_WEIGHT>
1632.29

> <EXACT_MASS>
1630.748797

> <JCHEM_ACCEPTOR_COUNT>
18

> <JCHEM_ATOM_COUNT>
220

> <JCHEM_AVERAGE_POLARIZABILITY>
168.9757050580019

> <JCHEM_BIOAVAILABILITY>
0

> <JCHEM_DONOR_COUNT>
17

> <JCHEM_FORMAL_CHARGE>
0

> <JCHEM_GHOSE_FILTER>
0

> <JCHEM_IUPAC>
(4S)-N-{4-[(2S)-2-{[(1R)-2-[4-(carbamoylamino)phenyl]-1-{[(1S)-1-{[(2S)-1-[(2S)-2-{[(1R)-1-carbamoylethyl]carbamoyl}pyrrolidin-1-yl]-1-oxo-6-[(propan-2-yl)amino]hexan-2-yl]carbamoyl}-3-methylbutyl]carbamoyl}ethyl]carbamoyl}-2-[(2S)-2-[(2R)-2-[(2R)-3-(4-chlorophenyl)-2-[(2R)-2-acetamido-3-(naphthalen-2-yl)propanamido]propanamido]-3-(pyridin-3-yl)propanamido]-3-hydroxypropanamido]ethyl]phenyl}-2,6-dioxo-1,3-diazinane-4-carboxamide

> <ALOGPS_LOGP>
2.66

> <JCHEM_LOGP>
0.17705020735484508

> <ALOGPS_LOGS>
-5.60

> <JCHEM_MDDR_LIKE_RULE>
1

> <JCHEM_NUMBER_OF_RINGS>
8

> <JCHEM_PHYSIOLOGICAL_CHARGE>
1

> <JCHEM_PKA>
11.599717410663526

> <JCHEM_PKA_STRONGEST_ACIDIC>
10.54637956804157

> <JCHEM_PKA_STRONGEST_BASIC>
11.160529415574686

> <JCHEM_POLAR_SURFACE_AREA>
512.8699999999998

> <JCHEM_REFRACTIVITY>
431.12800000000027

> <JCHEM_ROTATABLE_BOND_COUNT>
41

> <JCHEM_RULE_OF_FIVE>
0

> <ALOGPS_SOLUBILITY>
4.10e-03 g/l

> <JCHEM_TRADITIONAL_IUPAC>
(4S)-N-{4-[(2S)-2-{[(1R)-2-[4-(carbamoylamino)phenyl]-1-{[(1S)-1-{[(2S)-1-[(2S)-2-{[(1R)-1-carbamoylethyl]carbamoyl}pyrrolidin-1-yl]-6-(isopropylamino)-1-oxohexan-2-yl]carbamoyl}-3-methylbutyl]carbamoyl}ethyl]carbamoyl}-2-[(2S)-2-[(2R)-2-[(2R)-3-(4-chlorophenyl)-2-[(2R)-2-acetamido-3-(naphthalen-2-yl)propanamido]propanamido]-3-(pyridin-3-yl)propanamido]-3-hydroxypropanamido]ethyl]phenyl}-2,6-dioxo-1,3-diazinane-4-carboxamide

> <JCHEM_VEBER_RULE>
0

> <DRUGBANK_ID>
DB06699

> <DRUG_GROUPS>
approved

> <GENERIC_NAME>
Degarelix

> <SYNONYMS>
Degarelix

> <PRODUCTS>
Firmagon

> <SALTS>
Degarelix acetate hydrate

$$$$
