
  Mrv1909 02092017092D          

 61 70  0  0  0  0            999 V2000
   -3.5914    2.7075    0.0000 C   0  0  0  0  0  0  0  0  0  0  0  0
   -3.5867    1.9106    0.0000 C   0  0  0  0  0  0  0  0  0  0  0  0
   -2.8925    1.5103    0.0000 N   0  0  0  0  0  0  0  0  0  0  0  0
   -4.9744    2.7064    0.0000 C   0  0  0  0  0  0  0  0  0  0  0  0
   -4.9753    1.9047    0.0000 C   0  0  0  0  0  0  0  0  0  0  0  0
   -4.2864    1.5060    0.0000 C   0  0  0  0  0  0  0  0  0  0  0  0
   -4.2876    3.1050    0.0000 C   0  0  0  0  0  0  0  0  0  0  0  0
   -2.2107    2.7156    0.0000 C   0  0  0  0  0  0  0  0  0  0  0  0
   -2.2103    1.9192    0.0000 C   0  0  0  0  0  0  0  0  0  0  0  0
   -1.5229    1.5262    0.0000 C   0  0  2  0  0  0  0  0  0  0  0  0
   -1.5296    3.1190    0.0000 C   0  0  0  0  0  0  0  0  0  0  0  0
   -0.8391    1.9238    0.0000 C   0  0  0  0  0  0  0  0  0  0  0  0
   -0.8374    2.7214    0.0000 C   0  0  0  0  0  0  0  0  0  0  0  0
   -0.2093    3.2224    0.0000 N   0  0  0  0  0  0  0  0  0  0  0  0
   -0.2102    1.4239    0.0000 C   0  0  2  0  0  0  0  0  0  0  0  0
    0.5700    3.0490    0.0000 C   0  0  0  0  0  0  0  0  0  0  0  0
    0.5707    1.6036    0.0000 C   0  0  0  0  0  0  0  0  0  0  0  0
    0.9143    2.3277    0.0000 C   0  0  2  0  0  0  0  0  0  0  0  0
    0.0687    2.3453    0.0000 C   0  0  0  0  0  0  0  0  0  0  0  0
    1.6253    2.7439    0.0000 O   0  0  0  0  0  0  0  0  0  0  0  0
    1.6253    1.9150    0.0000 C   0  0  0  0  0  0  0  0  0  0  0  0
    2.4512    1.9150    0.0000 C   0  0  0  0  0  0  0  0  0  0  0  0
    2.8349   -1.1262    0.0000 C   0  0  2  0  0  0  0  0  0  0  0  0
    2.2487   -1.7094    0.0000 C   0  0  0  0  0  0  0  0  0  0  0  0
    2.6223   -2.4474    0.0000 N   0  0  0  0  0  0  0  0  0  0  0  0
    3.4396   -2.3200    0.0000 C   0  0  0  0  0  0  0  0  0  0  0  0
    3.5708   -1.5035    0.0000 O   0  0  0  0  0  0  0  0  0  0  0  0
    2.1249    0.1101    0.0000 C   0  0  2  0  0  0  0  0  0  0  0  0
    2.1249   -0.7157    0.0000 C   0  0  1  0  0  0  0  0  0  0  0  0
    3.5509   -0.7157    0.0000 C   0  0  0  0  0  0  0  0  0  0  0  0
    3.5509    0.1101    0.0000 C   0  0  1  0  0  0  0  0  0  0  0  0
    2.8350    0.5259    0.0000 C   0  0  2  0  0  0  0  0  0  0  0  0
    1.4106    1.3562    0.0000 C   0  0  0  0  0  0  0  0  0  0  0  0
    1.4090    0.5303    0.0000 C   0  0  0  0  0  0  0  0  0  0  0  0
    0.6973    0.1144    0.0000 C   0  0  0  0  0  0  0  0  0  0  0  0
    0.6956   -0.7115    0.0000 C   0  0  0  0  0  0  0  0  0  0  0  0
    1.4106   -1.1287    0.0000 N   0  0  0  0  0  0  0  0  0  0  0  0
   -0.7321    0.1101    0.0000 C   0  0  0  0  0  0  0  0  0  0  0  0
   -0.7330   -0.7174    0.0000 C   0  0  0  0  0  0  0  0  0  0  0  0
   -0.0180   -1.1306    0.0000 C   0  0  0  0  0  0  0  0  0  0  0  0
   -0.0193    0.5232    0.0000 C   0  0  0  0  0  0  0  0  0  0  0  0
    2.8366    1.3533    0.0000 N   0  0  0  0  0  0  0  0  0  0  0  0
    4.2542    0.5201    0.0000 C   0  0  0  0  0  0  0  0  0  0  0  0
    4.2598    1.3437    0.0000 C   0  0  0  0  0  0  0  0  0  0  0  0
    3.5487    1.7626    0.0000 C   0  0  0  0  0  0  0  0  0  0  0  0
    4.1523   -2.7315    0.0000 O   0  0  0  0  0  0  0  0  0  0  0  0
    2.0354   -3.0290    0.0000 C   0  0  0  0  0  0  0  0  0  0  0  0
    1.2354   -2.8124    0.0000 C   0  0  0  0  0  0  0  0  0  0  0  0
    0.5192   -3.2224    0.0000 Cl  0  0  0  0  0  0  0  0  0  0  0  0
    1.4203   -1.7092    0.0000 O   0  0  0  0  0  0  0  0  0  0  0  0
    0.6925   -1.5388    0.0000 C   0  0  0  0  0  0  0  0  0  0  0  0
    1.4087   -0.3028    0.0000 H   0  0  0  0  0  0  0  0  0  0  0  0
   -1.4503   -1.1259    0.0000 O   0  0  0  0  0  0  0  0  0  0  0  0
   -2.2502   -0.9093    0.0000 C   0  0  0  0  0  0  0  0  0  0  0  0
    2.1163    0.9389    0.0000 H   0  0  0  0  0  0  0  0  0  0  0  0
    4.2619   -0.3028    0.0000 C   0  0  0  0  0  0  0  0  0  0  0  0
    4.9753    0.1130    0.0000 C   0  0  0  0  0  0  0  0  0  0  0  0
   -1.9411    0.8148    0.0000 C   0  0  0  0  0  0  0  0  0  0  0  0
   -2.7411    1.0314    0.0000 O   0  0  0  0  0  0  0  0  0  0  0  0
   -3.4574    0.6213    0.0000 C   0  0  0  0  0  0  0  0  0  0  0  0
   -1.5311    0.1014    0.0000 O   0  0  0  0  0  0  0  0  0  0  0  0
 13 14  1  0  0  0  0
  3  9  1  0  0  0  0
 12 15  1  0  0  0  0
 28 32  1  0  0  0  0
 29 23  1  0  0  0  0
 23 30  1  0  0  0  0
 30 31  1  0  0  0  0
 31 32  1  0  0  0  0
  1  7  2  0  0  0  0
 14 16  1  0  0  0  0
 33 34  1  0  0  0  0
 34 28  1  0  0  0  0
 42 33  1  0  0  0  0
  7  4  1  0  0  0  0
 15 17  1  0  0  0  0
  8  9  2  0  0  0  0
 35 36  1  0  0  0  0
 36 37  1  0  0  0  0
 37 29  1  0  0  0  0
 28 35  1  6  0  0  0
 16 18  1  0  0  0  0
 17 18  1  0  0  0  0
 38 39  2  0  0  0  0
  8  1  1  0  0  0  0
 39 40  1  0  0  0  0
 40 36  2  0  0  0  0
 14 19  1  0  0  0  0
 35 41  2  0  0  0  0
 41 38  1  0  0  0  0
 42 32  1  0  0  0  0
 15 19  1  6  0  0  0
 18 20  1  1  0  0  0
  1  2  1  0  0  0  0
 42 45  1  0  0  0  0
 31 43  1  0  0  0  0
 43 44  2  0  0  0  0
 44 45  1  0  0  0  0
 18 21  1  6  0  0  0
 26 46  2  0  0  0  0
  4  5  2  0  0  0  0
 25 47  1  0  0  0  0
 21 22  1  0  0  0  0
 47 48  1  0  0  0  0
 23 24  1  6  0  0  0
 48 49  1  0  0  0  0
  8 11  1  0  0  0  0
 24 50  2  0  0  0  0
  9 10  1  0  0  0  0
 37 51  1  0  0  0  0
 10 12  1  0  0  0  0
 29 52  1  1  0  0  0
 13 11  1  0  0  0  0
 39 53  1  0  0  0  0
  2  3  1  0  0  0  0
 53 54  1  0  0  0  0
 24 25  1  0  0  0  0
 32 55  1  6  0  0  0
 25 26  1  0  0  0  0
 31 56  1  6  0  0  0
 26 27  1  0  0  0  0
 56 57  1  0  0  0  0
 10 38  1  0  0  0  0
 23 27  1  1  0  0  0
 10 58  1  1  0  0  0
 28 29  1  0  0  0  0
 58 59  1  0  0  0  0
  5  6  1  0  0  0  0
 59 60  1  0  0  0  0
  6  2  2  0  0  0  0
 58 61  2  0  0  0  0
M  END
> <DATABASE_ID>
DB02868

> <DATABASE_NAME>
drugbank

> <SMILES>
[H][C@@]12N(C)C3=CC(OC)=C(C=C3[C@@]11CCN3CC=C[C@@](CC)(C[C@@]22OC(=O)N(CCCl)C2=O)[C@@]13[H])[C@]1(C[C@H]2CN(C[C@](O)(CC)C2)CCC2=C1NC1=CC=CC=C21)C(=O)OC

> <INCHI_IDENTIFIER>
InChI=1S/C46H56ClN5O7/c1-6-42-14-10-17-51-19-15-44(37(42)51)31-21-32(35(57-4)22-34(31)49(3)38(44)46(26-42)39(53)52(20-16-47)41(55)59-46)45(40(54)58-5)24-28-23-43(56,7-2)27-50(25-28)18-13-30-29-11-8-9-12-33(29)48-36(30)45/h8-12,14,21-22,28,37-38,48,56H,6-7,13,15-20,23-27H2,1-5H3/t28-,37-,38+,42-,43-,44+,45-,46+/m0/s1

> <INCHI_KEY>
NUXKIZBEPYVRKP-RWBWKAGLSA-N

> <FORMULA>
C46H56ClN5O7

> <MOLECULAR_WEIGHT>
826.419

> <EXACT_MASS>
825.386826878

> <JCHEM_ACCEPTOR_COUNT>
8

> <JCHEM_ATOM_COUNT>
115

> <JCHEM_AVERAGE_NEUTRAL_MICROSPECIES_CHARGE>
1.9451447660698544

> <JCHEM_AVERAGE_POLARIZABILITY>
89.62555406674687

> <JCHEM_BIOAVAILABILITY>
0

> <JCHEM_DONOR_COUNT>
2

> <JCHEM_FORMAL_CHARGE>
0

> <JCHEM_GHOSE_FILTER>
0

> <JCHEM_IUPAC>
methyl (13S,15R,17S)-13-[(1'R,2R,9'R,12'R,19'S)-4-(2-chloroethyl)-12'-ethyl-5'-methoxy-8'-methyl-3,5-dioxo-8',16'-diazaspiro[1,4-oxazolidine-2,10'-pentacyclo[10.6.1.0^{1,9}.0^{2,7}.0^{16,19}]nonadecane]-2',4',6',13'-tetraen-4'-yl]-17-ethyl-17-hydroxy-1,11-diazatetracyclo[13.3.1.0^{4,12}.0^{5,10}]nonadeca-4(12),5,7,9-tetraene-13-carboxylate

> <ALOGPS_LOGP>
5.05

> <JCHEM_LOGP>
5.722821775000003

> <ALOGPS_LOGS>
-4.95

> <JCHEM_MDDR_LIKE_RULE>
1

> <JCHEM_NEUTRAL_CHARGE>
2

> <JCHEM_NUMBER_OF_RINGS>
10

> <JCHEM_PHYSIOLOGICAL_CHARGE>
2

> <JCHEM_PKA>
16.31524131501563

> <JCHEM_PKA_STRONGEST_ACIDIC>
14.405025334056456

> <JCHEM_PKA_STRONGEST_BASIC>
8.971255243973767

> <JCHEM_POLAR_SURFACE_AREA>
127.88

> <JCHEM_REFRACTIVITY>
226.28289999999996

> <JCHEM_ROTATABLE_BOND_COUNT>
8

> <JCHEM_RULE_OF_FIVE>
0

> <ALOGPS_SOLUBILITY>
9.34e-03 g/l

> <JCHEM_TRADITIONAL_IUPAC>
6-(2,6-dichlorophenyl)-2-{[3-(hydroxymethyl)phenyl]amino}-8-methylpyrido[2,3-d]pyrimidin-7-one

> <JCHEM_VEBER_RULE>
0

> <DRUGBANK_ID>
DB02868

> <SECONDARY_ACCESSION_NUMBERS>
EXPT01963

> <DRUG_GROUPS>
experimental

> <GENERIC_NAME>
Deacetoxyvinzolidine

$$$$
