
  Mrv1572003281622122D          

 33 35  0  0  0  0            999 V2000
    2.6383    0.8102    0.0000 Si  0  0  0  0  0  0  0  0  0  0  0  0
    3.8758    1.5246    0.0000 Si  0  0  0  0  0  0  0  0  0  0  0  0
    1.9238    2.0477    0.0000 Si  0  0  0  0  0  0  0  0  0  0  0  0
    3.4633    0.8102    0.0000 O   0  0  0  0  0  0  0  0  0  0  0  0
    2.6383    1.6352    0.0000 O   0  0  0  0  0  0  0  0  0  0  0  0
   -1.0741    0.0957    0.0000 O   0  0  0  0  0  0  0  0  0  0  0  0
   -1.8991   -1.3332    0.0000 N   0  0  0  0  0  0  0  0  0  0  0  0
   -2.3806   -0.6693    0.0000 N   0  0  0  0  0  0  0  0  0  0  0  0
   -2.3806   -1.9971    0.0000 N   0  0  0  0  0  0  0  0  0  0  0  0
    1.8133    0.8102    0.0000 C   0  0  0  0  0  0  0  0  0  0  0  0
    1.4008    0.0957    0.0000 C   0  0  0  0  0  0  0  0  0  0  0  0
    0.5758    0.0957    0.0000 C   0  0  0  0  0  0  0  0  0  0  0  0
    2.6383   -0.0147    0.0000 C   0  0  0  0  0  0  0  0  0  0  0  0
    1.8133   -0.6187    0.0000 C   0  0  0  0  0  0  0  0  0  0  0  0
    0.1633   -0.6187    0.0000 C   0  0  0  0  0  0  0  0  0  0  0  0
    4.2883    2.2391    0.0000 C   0  0  0  0  0  0  0  0  0  0  0  0
    4.5902    1.1121    0.0000 C   0  0  0  0  0  0  0  0  0  0  0  0
    3.1613    1.9371    0.0000 C   0  0  0  0  0  0  0  0  0  0  0  0
    1.2093    2.4602    0.0000 C   0  0  0  0  0  0  0  0  0  0  0  0
    2.3363    2.7621    0.0000 C   0  0  0  0  0  0  0  0  0  0  0  0
    1.5113    1.3332    0.0000 C   0  0  0  0  0  0  0  0  0  0  0  0
   -0.6616   -0.6187    0.0000 C   0  0  0  0  0  0  0  0  0  0  0  0
    0.5758   -1.3332    0.0000 C   0  0  0  0  0  0  0  0  0  0  0  0
   -1.0741   -1.3332    0.0000 C   0  0  0  0  0  0  0  0  0  0  0  0
    0.1633   -2.0477    0.0000 C   0  0  0  0  0  0  0  0  0  0  0  0
   -0.6616   -2.0477    0.0000 C   0  0  0  0  0  0  0  0  0  0  0  0
    0.5758   -2.7621    0.0000 C   0  0  0  0  0  0  0  0  0  0  0  0
   -3.1612   -0.9207    0.0000 C   0  0  0  0  0  0  0  0  0  0  0  0
   -3.1612   -1.7457    0.0000 C   0  0  0  0  0  0  0  0  0  0  0  0
   -3.8758   -0.5082    0.0000 C   0  0  0  0  0  0  0  0  0  0  0  0
   -3.8758   -2.1582    0.0000 C   0  0  0  0  0  0  0  0  0  0  0  0
   -4.5902   -0.9207    0.0000 C   0  0  0  0  0  0  0  0  0  0  0  0
   -4.5902   -1.7457    0.0000 C   0  0  0  0  0  0  0  0  0  0  0  0
  1  4  1  0  0  0  0
  1  5  1  0  0  0  0
  1 10  1  0  0  0  0
  1 13  1  0  0  0  0
  2  4  1  0  0  0  0
  2 16  1  0  0  0  0
  2 17  1  0  0  0  0
  2 18  1  0  0  0  0
  3  5  1  0  0  0  0
  3 19  1  0  0  0  0
  3 20  1  0  0  0  0
  3 21  1  0  0  0  0
  6 22  1  0  0  0  0
  7  8  1  0  0  0  0
  7  9  1  0  0  0  0
  7 24  1  0  0  0  0
  8 28  2  0  0  0  0
  9 29  2  0  0  0  0
 10 11  1  0  0  0  0
 11 12  1  0  0  0  0
 11 14  1  0  0  0  0
 12 15  1  0  0  0  0
 15 22  2  0  0  0  0
 15 23  1  0  0  0  0
 22 24  1  0  0  0  0
 23 25  2  0  0  0  0
 24 26  2  0  0  0  0
 25 26  1  0  0  0  0
 25 27  1  0  0  0  0
 28 29  1  0  0  0  0
 28 30  1  0  0  0  0
 29 31  1  0  0  0  0
 30 32  2  0  0  0  0
 31 33  2  0  0  0  0
 32 33  1  0  0  0  0
M  END
> <DATABASE_ID>
DB11585

> <DATABASE_NAME>
drugbank

> <SMILES>
CC(CC1=C(O)C(=CC(C)=C1)N1N=C2C=CC=CC2=N1)C[Si](C)(O[Si](C)(C)C)O[Si](C)(C)C

> <INCHI_IDENTIFIER>
InChI=1S/C24H39N3O3Si3/c1-18-14-20(15-19(2)17-33(9,29-31(3,4)5)30-32(6,7)8)24(28)23(16-18)27-25-21-12-10-11-13-22(21)26-27/h10-14,16,19,28H,15,17H2,1-9H3

> <INCHI_KEY>
HUVYTMDMDZRHBN-UHFFFAOYSA-N

> <FORMULA>
C24H39N3O3Si3

> <MOLECULAR_WEIGHT>
501.849

> <EXACT_MASS>
501.229921733

> <JCHEM_ACCEPTOR_COUNT>
5

> <JCHEM_ATOM_COUNT>
72

> <JCHEM_AVERAGE_POLARIZABILITY>
54.24305256456972

> <JCHEM_BIOAVAILABILITY>
0

> <JCHEM_DONOR_COUNT>
1

> <JCHEM_FORMAL_CHARGE>
0

> <JCHEM_GHOSE_FILTER>
0

> <JCHEM_IUPAC>
2-(2H-1,2,3-benzotriazol-2-yl)-4-methyl-6-[2-methyl-3-(2,2,4,6,6-pentamethyl-3,5-dioxa-2,4,6-trisilaheptan-4-yl)propyl]phenol

> <ALOGPS_LOGP>
6.50

> <JCHEM_LOGP>
7.251000000000001

> <ALOGPS_LOGS>
-5.85

> <JCHEM_MDDR_LIKE_RULE>
1

> <JCHEM_NUMBER_OF_RINGS>
3

> <JCHEM_PHYSIOLOGICAL_CHARGE>
0

> <JCHEM_PKA_STRONGEST_ACIDIC>
9.955166134224987

> <JCHEM_PKA_STRONGEST_BASIC>
-0.38297198879949523

> <JCHEM_POLAR_SURFACE_AREA>
69.4

> <JCHEM_REFRACTIVITY>
137.96749999999997

> <JCHEM_ROTATABLE_BOND_COUNT>
9

> <JCHEM_RULE_OF_FIVE>
0

> <ALOGPS_SOLUBILITY>
7.03e-04 g/l

> <JCHEM_TRADITIONAL_IUPAC>
drometrizole trisiloxane

> <JCHEM_VEBER_RULE>
0

> <DRUGBANK_ID>
DB11585

> <DRUG_GROUPS>
approved

> <GENERIC_NAME>
Drometrizole trisiloxane

> <SYNONYMS>
Silatrizole

> <PRODUCTS>
45 SPF High Protection Uva Uvb Cream; 60 SPF Stick Protection Ciblee Uva Uvb Anthelios XL; Anthelios Age Correct; Anthelios Dermo-kids; Anthelios Dermo-kids 50+; Anthelios SPF 45; Anthelios Spray SPF 45; Anthelios XL Cream SPF 60; Anthelios XL Melt-IN Cream; Anthelios XL Stick; Antherpos; Anti-shine Anthelios XL Dry Touch Gel-cream; Anti-shine Dry Touch Uv Lotion; Aqualia Thermal Uv; Bare Skin Feel Uv Lotion; Blue Therapy Multi-defender Dry Skin; Brume Solaire; Complete + Care & Protect (80 Minutes) Water / Sweat Resistant Lotion SPF 30; Complete + Care & Protect (80 Minutes) Water / Sweat Resistant Lotion SPF 50+; Complete Advanced (80 Minutes) Water / Sweat Resistant Lotion SPF 15; Complete Advanced (80 Minutes) Water / Sweat Resistant Lotion SPF 30; Complete Advanced (80 Minutes) Water / Sweat Resistant Lotion SPF 50+; Complete Advanced [80 Minutes] Water/sweat Resistant Lotion SPF 60; Complete Hypoallergenic Spf60 Lotion; Complete Lightweight Lotion SPF 15; Complete Lightweight Lotion SPF 45; Complete Sensitive Advanced (80 Minutes) Water / Sweat Resistant SPF 50+; Complete Sensitive Advanced [80 Minutes] Water/sweat Resistant Lotion SPF 60; Complete* Dry Touch; Complete* Dry Touch Sunscreen/écran Solaire; Complete+ Care & Protect [80 Minutes] Water/sweat Resistant Lotion SPF 60; Creme Visage Fps 30; Creme Visage Fps 45; Eco-designed Uv Lotion; Eye Contour Multi-protection Sun Care SPF 30; Face Anti-shine Cream; Face Daily Uv Anti-aging Moisturizer; Face Daily Uv Anti-dry Moisturizer; Face Daily Uv Tinted Moisturizer; Face Multi-protection Sun Cream SPF 15; Face Multi-protection Sun Cream SPF 30; Face Multi-protection Sun Cream SPF 50; Face Visage Hypoallergenic Sunscreen Lotion; Fps 15 Lait Solaire; Fps 30 Lait Solaire; Fps 30 Soin Complet; Fps 45 Soin Complet; Fps 50 Lait Solaire; Fps 60 CRème Uv Hydratante; Fps 60 Lotion Uv Ultra-Légère; Fps 60 Soin Complet; Garnier Ombrelle Clear Sport 45 Water Resistant 40 Minutes; Garnier Ombrelle Clear Sport 50 Plus Water Resistant 40 Minutes; Garnier Ombrelle Complete Sensitive Advanced Lightweight hypoallergenic SPF 45 Mexoryl Technology; Garnier Ombrelle Face Anti-Shine SPF 60 Mexoryl Technology; Garnier Ombrelle Kids Ultra Gentle Broad Spectrum SPF 50 Plus Sunscreen Water Resistant 80 Minutes; Garnier Ombrelle Kids Ultra Gentle SPF 50 Plus Water Resistant 80 Minutes; Garnier Ombrelle Kids Wet N Protect Hypoallergenic SPF 45 Mexoryl Technology; Garnier Ombrelle SPF 30 Complete Lightweight; Garnier Ombrelle SPF 30 Complete UVA UVB Sensitive Advanced Sunscreen for Sensitive Skin Hypoallergenic Non comedogenic Quick Absorption Water/sweat resistant 80 minutes; Garnier Ombrelle SPF 30 Face Ultra Light; Garnier Ombrelle SPF 30 Sport Endurance Water Resistant; Garnier Ombrelle SPF 30 UVA UVB Kids Wet N Protect Sunscreen Protection Even on Wet Skin Hypoallergenic Water/sweat resistant 80 minutes Quick Absorption; Garnier Ombrelle SPF 45 Complete Lightweight; Garnier Ombrelle SPF 45 Face Ultra Light; Garnier Ombrelle SPF 50 Kids Water Resistant; Garnier Ombrelle SPF 60 Complete Lightweight; Garnier Ombrelle SPF 60 Complete UVA UVB Sensitive Advanced Sunscreen for Sensitive Skin Hypoallergenic Non comedogenic Quick Absorption Water/sweat resistant 80 minutes; Garnier Ombrelle SPF 60 Face Ultra Light; Garnier Ombrelle SPF 60 UVA UVB Kids Wet N Protect Sunscreen Protection Even on Wet Skin Hypoallergenic Water/sweat resistant 80 minutes Quick Absorption; Garnier Ombrelle Sport Endurance 60; Garnier Ombrelle Ultra Light Advanced Broad Spectrum SPF 50 Plus Sunscreen Water Resistant 80 Minutes; Garnier Ombrelle Ultra Light Advanced SPF 60 Water Resistant 80 Minutes; Garnier Ombrelle Ultra Light Hydrating Face Sunscreen; Ideal Soleil SPF 50+; Idéal Soleil Spf30; Kids (80 Minutes) Water Resistant Lotion SPF 30; Kids Uv Lotion; Kiehls Activated Sun Protector Sunscreen SPF 30 For Face and Body For All Skin Types; Kiehls Activated Sun Protector Sunscreen SPF 50 For Face and Body For All Skin Types; Kiehls Dermatologist Solutions Ultra Light Daily Uv Defense Sunscreen SPF 50 High Protection Anti-pollution Lightweight Formula for All Skin Types; Kiehls Since 1851 Dermatologist Solutions Ultra Light Daily UV Defense Tone Up SPF 50 PA Plus Plus Plus Plus Antipollution; Kiehls Ultra Light Daily UV Defense Aqua Gel SPF 50 Anti-Pollution; Kiehls Ultra Light Daily UV Defense CC SPF 50 Anti Pollution; Lait Protecteur Fps 60; Lait Solaire Corps Lotion Protectrice Corps Fps 30; Lait Solaire Corps Lotion Protectrice Corps Fps 50 Plus; Lait Solaire Corps Protection Solaire Fps 15; Lip Protection Stick; Moisturizing Uv Cream; Ombrelle Cream SPF 60; Ombrelle Kids Lotion Wet'n Protect; Ombrelle Kids SPF 60; Ombrelle Sport Spray Spf15; Ombrelle Stick SPF 60; Ombrelle Ultra Light Advanced Lotion; Rosaliac Uv; Rosaliac Uv Legere; Rosaliac Uv Riche; SPF 30 Anthelios XL Lotion; SPF 30 Clear Protect Continuous Spray; SPF 30 Hydrating Mist; SPF 30 Ideal Soleil Lip Protection Stick; SPF 30 Invisible Mist; SPF 30 Kids Wet'n Protect; SPF 30 Sport Clear Continuous Spray; SPF 30 Sport Endurance; SPF 45 Clear; SPF 45 Clear Protect Continuous Spray; SPF 45 Sport Clear Continuous Spray; SPF 50+ Kids (80 Minutes) Water Resistant; SPF 50+ Kids Lotion; SPF 60 Anthelios XL Lightweight Lotion; SPF 60 Anthelios XL Lotion; SPF 60 Clear; SPF 60 Clear Protect Continuous Spray; SPF 60 Kids Wet'n Protect; SPF 60 Sport Clear Continuous Spray; SPF 60 Sport Endurance; Sensitive Expert+ Face; Sensitive Expert+ Sunscreen; Sheer Lotion SPF 45 Bare Skin Feel; Sheer Lotion SPF 60 Bare Skin Feel; Soin Solaire Visage CRème Protectrice Visage Fps 30; Soin Solaire Visage CRème Protectrice Visage Fps 50 Plus; Soin Solaire Visage Creme Multi-protection Fps 30; Spray Solaire Transparent; Sun Protection Cream SPF 30; Sun Protection Cream SPF 45; Sun Radiance SPF 15 Crystal Gloss; Ultra Fluide Corps; Ultra Fluide Visage; Ultra Light Advanced Continuous Spray Lotion; Ultra Light Advanced Lotion; Ultra Protection Sunscreen Stick SPF 60; Ultra-fluid Body Milk Sun Protection SPF 15; Ultra-fluid Body Milk Sun Protection SPF 30; Ultra-fluid Sun Protection SPF 30; Ultra-light Refreshing Uv Lotion; Ultra-light Uv Lotion; Uv+age Daily

$$$$
