
  Mrv1718001231811472D          

 12 12  0  0  0  0            999 V2000
    0.7145    0.4125    0.0000 C   0  0  2  0  0  0  0  0  0  0  0  0
    0.7145   -0.4125    0.0000 C   0  0  1  0  0  0  0  0  0  0  0  0
    0.0000   -0.8251    0.0000 C   0  0  1  0  0  0  0  0  0  0  0  0
   -0.7145   -0.4125    0.0000 C   0  0  2  0  0  0  0  0  0  0  0  0
   -0.7145    0.4125    0.0000 C   0  0  1  0  0  0  0  0  0  0  0  0
    0.0000    0.8251    0.0000 C   0  0  1  0  0  0  0  0  0  0  0  0
    1.4290    0.8251    0.0000 O   0  0  0  0  0  0  0  0  0  0  0  0
    1.4290   -0.8251    0.0000 O   0  0  0  0  0  0  0  0  0  0  0  0
    0.0000   -1.6501    0.0000 O   0  0  0  0  0  0  0  0  0  0  0  0
   -1.4290   -0.8251    0.0000 O   0  0  0  0  0  0  0  0  0  0  0  0
   -1.4290    0.8251    0.0000 O   0  0  0  0  0  0  0  0  0  0  0  0
    0.0000    1.6501    0.0000 O   0  0  0  0  0  0  0  0  0  0  0  0
  1  2  1  0  0  0  0
  1  6  1  0  0  0  0
  1  7  1  6  0  0  0
  2  3  1  0  0  0  0
  2  8  1  6  0  0  0
  3  4  1  0  0  0  0
  3  9  1  6  0  0  0
  4  5  1  0  0  0  0
  4 10  1  1  0  0  0
  5  6  1  0  0  0  0
  5 11  1  6  0  0  0
  6 12  1  1  0  0  0
M  END
> <DATABASE_ID>
DB13178

> <DATABASE_NAME>
drugbank

> <SMILES>
O[C@H]1[C@H](O)[C@@H](O)[C@H](O)[C@H](O)[C@@H]1O

> <INCHI_IDENTIFIER>
InChI=1S/C6H12O6/c7-1-2(8)4(10)6(12)5(11)3(1)9/h1-12H/t1-,2-,3-,4+,5-,6-

> <INCHI_KEY>
CDAISMWEOUEBRE-GPIVLXJGSA-N

> <FORMULA>
C6H12O6

> <MOLECULAR_WEIGHT>
180.1559

> <EXACT_MASS>
180.063388116

> <JCHEM_ACCEPTOR_COUNT>
6

> <JCHEM_ATOM_COUNT>
24

> <JCHEM_AVERAGE_POLARIZABILITY>
16.141745963720343

> <JCHEM_BIOAVAILABILITY>
1

> <JCHEM_DONOR_COUNT>
6

> <JCHEM_FORMAL_CHARGE>
0

> <JCHEM_GHOSE_FILTER>
0

> <JCHEM_IUPAC>
(1R,2R,3r,4S,5S,6s)-cyclohexane-1,2,3,4,5,6-hexol

> <ALOGPS_LOGP>
-2.59

> <JCHEM_LOGP>
-3.782009652

> <ALOGPS_LOGS>
0.43

> <JCHEM_MDDR_LIKE_RULE>
0

> <JCHEM_NUMBER_OF_RINGS>
1

> <JCHEM_PHYSIOLOGICAL_CHARGE>
0

> <JCHEM_PKA>
12.908097249605351

> <JCHEM_PKA_STRONGEST_ACIDIC>
12.285497953856298

> <JCHEM_PKA_STRONGEST_BASIC>
-3.645759838065448

> <JCHEM_POLAR_SURFACE_AREA>
121.38000000000001

> <JCHEM_REFRACTIVITY>
35.77499999999999

> <JCHEM_ROTATABLE_BOND_COUNT>
0

> <JCHEM_RULE_OF_FIVE>
0

> <ALOGPS_SOLUBILITY>
4.85e+02 g/l

> <JCHEM_TRADITIONAL_IUPAC>
L-inositol

> <JCHEM_VEBER_RULE>
0

> <DRUGBANK_ID>
DB13178

> <SECONDARY_ACCESSION_NUMBERS>
DB11196

> <DRUG_GROUPS>
approved; investigational; withdrawn

> <GENERIC_NAME>
Inositol

> <SYNONYMS>
1,2,3,5/4,6-cyclohexanehexol; cis-1,2,3,5-trans-4,6-cyclohexanehexol; Inositol; L-myo-Inositol; Meat sugar; meso-Inositol; myo-inositol

> <PRODUCTS>
24 Multivitamins + Minerals; 50 Plus; Advanced 2000 Capsules; Alertonic; Alkadrenergy Tablets; American Eagle Energizer Plus Vitamin Supplement Drink; American Plus Energy & Vitamin Drink; Amino-cerv; B 50 Capsules; B Complex 25mg Vitamin Supplement; B Complex 50 Vitamin Cap; B Complex 50+ Caplet; B Compound 50mg Tab; B-100 Caps; B-100 Vitamin Supplement; B-50 Complex; B-50 Hi Potency B Vitamins Tab; B-complex; B-complex 100; B-complex 50; B-complex Tab; B-complex With Vitamin C, Biotin, Folic Acid; B-complex-50 Tab; B-plex; B-plus - Tab; B50 Complex; Balanced B 125 Srt; Bev 29 Tab; Bev B-150; Bev-lipo-1000; Biosculpt; Body Rox; Body Tropics Plus Tab; C. Vit-min Formula; C.A.G. Tab; Calcium Magnesium Plus Vitamin D Liquid; Card-floe II Tab; Children's Chewable Multivitamins and Minerals; Children's Chewable Vit and Min Tab; Choline & Inositol Caps; Choline Inositol Methionine; Choline and Inositol 250mg/250mg; Chromium and Vanadium Mineral Supplement; Classic Swiss One 10 Multivitamin and Mineral Tab; Complete Mega B; Complete Multivitamins and Minerals Tablets Timed Release; Complete One A Day Tab; Complete One-A-day - Tab; Complexe B Compose 75; Cyruta Tab; Daily Energy Brand Vitamin & Mineral Drink Mix; Deriton; Derma-force; Doctor's Choice Brand for Men; Dp 2000; Essential B Tablets; Extra Once A Day; For-2; Formula 9 Tab; Formula C.I. Tab; Formula Cm; Formula F L W; Formula Gly; Formula Hh; Formula Lf; Formula Pro-B; Forty Plus Vitamin Supplement; Fusion PM Formula Tab; Gnc Choline/inositol 250mg Tablets; Grand Master Formula Tab; H.W. Children's Chewable Multi Vit & Mineral; Harvest Of Values All B Complex Tab; Hi Potency B Complex W Chelated Minerals; Hi Potency B52 B Complex Tab; Hi Potency Multi Tab; Hi Potency Stress B Tension With C; Hoa 1; Hyporyl - Tab; Innersource Tab; Inositol 250mg - Tab; Inositol 500mg; Inositol Caps 500mg; Inositol Ctr Srt 400mg; Inositol Nicotinate Plus CR; Inositol Tab 250mg; Inositol Tab 405mg; Inositol-S Tab 400mg; Inositolex 400mgms; Insur-all Vitamin Supplement; L Fac Tab; L.C. Supplement; Lip - Fac Formula; Lipall Plus Tab; Lipo Factors Plus B6; Lipo-B-C Tab; Lipotrope Tab; Lipotrope-plus B6 Tab; Lipotropic Adjunct; Lipotropic Ctr; Lipotropics 600 Tab; Lipovite; Liqui B Complex; Liqui B Complex Plus; Liqui Vita; Liquid B Complex 50; Low Potency B Complex Tab; Magnum-75 Vitamin and Mineral Supplement; Maintain Multiple Vitamin & Minerals; Master Key Multi Vitamin Multi Mineral Formula 2; Maximum Once A Day; Maxine Vitamin and Mineral Supplement; Maxum Multi-vite; Mega 13 Multivitamin Formula; Mega Balance; Mega Capsules; Mega Lipotropic Cap; Mega Plex III - Pck; Mega Plex IV - Pck; Mega Vitaminerals; Mega-vim 75 With Beta-carotene - Tablets; Men's 50+; Men's Biomultiple Vitamin and Mineral Supplement; Men's Multi Master Formula; Mic B12; Mini-B Tab; Multi B; Multi Flow Tablets; Multi II IV Vi Tab; Multi Plex I - Tab; Multi Plex II - Tab; Multi Spectrum - Tablet; Multi Tabs; Multi Vitamin-mineral Formula; Multi-force for Adults Tab; Multi-force for Women Tab; Multi-phyto Capsules; Multicaps; Multipack II; Multiple Vitamins and Minerals Capsules; Multitabs; Multivitamin & Minerals (iron Free); Multivitamin & Multimineral; Multivitamine; Multivitamins and Minerals With Betacarotene Tablets; Multivitamins and Minerals for Men; Multivitamins and Minerals for Women; Multivitamins and Minerals for Young Men; Multivitamins and Minerals for Young Women; Multra Plex; Multra With Iron; My Favorite Niacin and Inositol Tab; Natural Source Spectrum With Beta Carotene; Neomultivite; Neonatal Plus Vitamin; Neonatal Vitamin; New Chapter's D'adamo 4 Your Type Multiple for Type O; Niacin 500 Mg and Inositol; Nitro Vites - Tab; Nrg Plus Liq; Olympian Multi Vit Plus Minerals Tab; Onccor; One A Day Multiple Vit W Minerals; One A Day Tab; Only One - Tablet; Orti B; Palm Spring's PM Form Tab; Phytopure; Phytovim Cap; Prenatal Formula Tab; Prenatal Vi-min; Prenatvite; Prenatvite Plus; Protect Plus SO 60; Red American Eagle Vitamin Supplement Drink; Revit Multi-vitamins and Minerals; Revitalize Multi-vitamin and Mineral Complex; Revitex Ampoules Et Comprimes; Right Choice P.M. Multi Formula - Caplet; Rocky Mountain Multiple Vit and Min Mega Tab; Spectrum 2 Cap; Stom #2; Stress B & C Caplet; Stress B Capsules With Vitamin C; Stress B With 1000 Mg Vitamin C; Stress B&c Tab; Stress Ctr Srt; Stress Formula B-comp + 500mg Vit C Tab; Stress Formula Multi-B Comp + 500mg Vit C Cap; Stress Formula Vit B With C Complex; Stress Forte Plus Lipotropic Factors; Stress Vitamin B With C Complex Tablets; Stressmates; Super B Compound W 500mg Vit C; Super Daily No 2; Super Multi; Super Stress Capsules; Super Stress Mega B Plus 1000mg Vit C Tab; Super Vita Vim Multivitamins and Minerals; Super Vita-vim With Beta-carotene - Tab; Super-pote Vitamin Supplement; Swiss One; Swiss One Multi Vit & Chel Min Tab; Swiss One Multivitamin and Mineral Caplet; Swiss One Timed Release Tab; Time Release B 100 Compound - Tablet; Timed Release B Complex 100 Srt; Timed Release B-complex 100; Timed Release B-complex 50; Timed Release Vita-vim Srt; Twin G.F. Powder; Twin G.F. Powder Vanilla Flavor; Twin Opti Pwr; Ultimate Tab; Ultr F/b E.S. Mega Lipotropic Fmla W B6bet; Ultra Hr; Usana Megavitamin Tablets - Tab; Vasula Tab; Vege 1 Daily Tab; Vege Swiss One Multivitamin W Chel Mins Tab; Vit B Complex Ctr; Vit-HA Multi Vitamin and Zinc Supplement; Vita B Complex Tab; Vita Balance 2000; Vita Plex Tab; Vita Vim Multivitamins and Minerals Tab; Vita Vim With Beta Carotene-caplet; Vita-B; Vita-vim - Tab; Vita-vim With Beta-carotene - Tab; Vita-worth B-complex Tablets; Vitachrom Gc; Vitalife - Capsule; Vitamin & Mineral Formula 1 Dietary Supplement; Vitamin B + C Cap; Vitamin B Complex 100 Tab; Vitamin B Complex 50; Vitamin B Complex Suppl; Vitamin B Complex W C Tab; Vitamin B Compound W C Tab 500mg; Vitamin B Compound W Vit C 250mg Tab; Vitamin B Tablets; Vitaplex; Wellness Formula; Women's Biomultiple Vitamin and Mineral Supplement; Women's Formula

$$$$
