
  Mrv1652310211601222D          

 32 35  0  0  0  0            999 V2000
    4.7812    4.4104    0.0000 C   0  0  0  0  0  0  0  0  0  0  0  0
    4.7812    3.5854    0.0000 C   0  0  0  0  0  0  0  0  0  0  0  0
    5.4957    3.1729    0.0000 C   0  0  0  0  0  0  0  0  0  0  0  0
    5.4957    2.3479    0.0000 C   0  0  0  0  0  0  0  0  0  0  0  0
    4.7812    1.9354    0.0000 C   0  0  0  0  0  0  0  0  0  0  0  0
    4.0668    2.3479    0.0000 C   0  0  0  0  0  0  0  0  0  0  0  0
    4.0668    3.1729    0.0000 C   0  0  0  0  0  0  0  0  0  0  0  0
    3.3523    1.9354    0.0000 C   0  0  0  0  0  0  0  0  0  0  0  0
    3.3523    1.1104    0.0000 C   0  0  0  0  0  0  0  0  0  0  0  0
    2.6378    0.6979    0.0000 C   0  0  0  0  0  0  0  0  0  0  0  0
    1.9233    1.1104    0.0000 C   0  0  0  0  0  0  0  0  0  0  0  0
    1.9233    1.9354    0.0000 C   0  0  0  0  0  0  0  0  0  0  0  0
    2.6378    2.3479    0.0000 C   0  0  0  0  0  0  0  0  0  0  0  0
    1.1387    2.1904    0.0000 C   0  0  0  0  0  0  0  0  0  0  0  0
    0.6538    1.5229    0.0000 C   0  0  0  0  0  0  0  0  0  0  0  0
    1.1387    0.8555    0.0000 N   0  0  0  0  0  0  0  0  0  0  0  0
    0.8838    0.0709    0.0000 C   0  0  0  0  0  0  0  0  0  0  0  0
    0.0768   -0.1006    0.0000 C   0  0  0  0  0  0  0  0  0  0  0  0
   -0.1781   -0.8853    0.0000 C   0  0  0  0  0  0  0  0  0  0  0  0
   -0.9851   -1.0568    0.0000 C   0  0  0  0  0  0  0  0  0  0  0  0
   -1.5371   -0.4437    0.0000 C   0  0  0  0  0  0  0  0  0  0  0  0
   -1.2822    0.3409    0.0000 C   0  0  0  0  0  0  0  0  0  0  0  0
   -0.4752    0.5124    0.0000 C   0  0  0  0  0  0  0  0  0  0  0  0
   -2.3441   -0.6152    0.0000 C   0  0  0  0  0  0  0  0  0  0  0  0
   -3.1511   -0.7868    0.0000 C   0  0  0  0  0  0  0  0  0  0  0  0
   -2.5156    0.1917    0.0000 C   0  0  0  0  0  0  0  0  0  0  0  0
   -2.1726   -1.4222    0.0000 C   0  0  0  0  0  0  0  0  0  0  0  0
    0.8838    2.9750    0.0000 C   0  0  0  0  0  0  0  0  0  0  0  0
    1.4358    3.5881    0.0000 O   0  0  0  0  0  0  0  0  0  0  0  0
    0.0768    3.1465    0.0000 C   0  0  0  0  0  0  0  0  0  0  0  0
   -0.4752    2.5334    0.0000 O   0  0  0  0  0  0  0  0  0  0  0  0
   -0.1781    3.9312    0.0000 O   0  0  0  0  0  0  0  0  0  0  0  0
  1  2  1  0  0  0  0
  2  3  2  0  0  0  0
  3  4  1  0  0  0  0
  4  5  2  0  0  0  0
  5  6  1  0  0  0  0
  6  7  2  0  0  0  0
  2  7  1  0  0  0  0
  6  8  1  0  0  0  0
  8  9  2  0  0  0  0
  9 10  1  0  0  0  0
 10 11  2  0  0  0  0
 11 12  1  0  0  0  0
 12 13  2  0  0  0  0
  8 13  1  0  0  0  0
 12 14  1  0  0  0  0
 14 15  2  0  0  0  0
 15 16  1  0  0  0  0
 11 16  1  0  0  0  0
 16 17  1  0  0  0  0
 17 18  1  0  0  0  0
 18 19  2  0  0  0  0
 19 20  1  0  0  0  0
 20 21  2  0  0  0  0
 21 22  1  0  0  0  0
 22 23  2  0  0  0  0
 18 23  1  0  0  0  0
 21 24  1  0  0  0  0
 24 25  1  0  0  0  0
 24 26  1  0  0  0  0
 24 27  1  0  0  0  0
 14 28  1  0  0  0  0
 28 29  2  0  0  0  0
 28 30  1  0  0  0  0
 30 31  2  0  0  0  0
 30 32  1  0  0  0  0
M  END
> <DATABASE_ID>
DB12635

> <DATABASE_NAME>
drugbank

> <SMILES>
CC1=CC=CC(=C1)C1=CC=C2N(CC3=CC=C(C=C3)C(C)(C)C)C=C(C(=O)C(O)=O)C2=C1

> <INCHI_IDENTIFIER>
InChI=1S/C28H27NO3/c1-18-6-5-7-20(14-18)21-10-13-25-23(15-21)24(26(30)27(31)32)17-29(25)16-19-8-11-22(12-9-19)28(2,3)4/h5-15,17H,16H2,1-4H3,(H,31,32)

> <INCHI_KEY>
HSXLMAFNWCSZGP-UHFFFAOYSA-N

> <FORMULA>
C28H27NO3

> <MOLECULAR_WEIGHT>
425.528

> <EXACT_MASS>
425.199093733

> <JCHEM_ACCEPTOR_COUNT>
3

> <JCHEM_ATOM_COUNT>
59

> <JCHEM_AVERAGE_POLARIZABILITY>
48.88664147273349

> <JCHEM_BIOAVAILABILITY>
1

> <JCHEM_DONOR_COUNT>
1

> <JCHEM_FORMAL_CHARGE>
0

> <JCHEM_GHOSE_FILTER>
0

> <JCHEM_IUPAC>
2-{1-[(4-tert-butylphenyl)methyl]-5-(3-methylphenyl)-1H-indol-3-yl}-2-oxoacetic acid

> <ALOGPS_LOGP>
6.40

> <JCHEM_LOGP>
7.243101677666667

> <ALOGPS_LOGS>
-5.97

> <JCHEM_MDDR_LIKE_RULE>
1

> <JCHEM_NUMBER_OF_RINGS>
4

> <JCHEM_PHYSIOLOGICAL_CHARGE>
-1

> <JCHEM_PKA_STRONGEST_ACIDIC>
3.407895441739173

> <JCHEM_PKA_STRONGEST_BASIC>
-9.664523113928059

> <JCHEM_POLAR_SURFACE_AREA>
59.3

> <JCHEM_REFRACTIVITY>
127.69479999999997

> <JCHEM_ROTATABLE_BOND_COUNT>
6

> <JCHEM_RULE_OF_FIVE>
0

> <ALOGPS_SOLUBILITY>
4.61e-04 g/l

> <JCHEM_TRADITIONAL_IUPAC>
aleplasinin

> <JCHEM_VEBER_RULE>
0

> <DRUGBANK_ID>
DB12635

> <DRUG_GROUPS>
investigational

> <GENERIC_NAME>
Aleplasinin

> <SYNONYMS>
Aleplasinin

$$$$
