
  Mrv1909 01072022202D          

 36 36  0  0  0  0            999 V2000
    1.1192    0.0438    0.0000 S   0  0  0  0  0  0  0  0  0  0  0  0
    2.0166    1.9807    0.0000 O   0  0  0  0  0  0  0  0  0  0  0  0
    3.4687    1.7508    0.0000 O   0  0  0  0  0  0  0  0  0  0  0  0
    0.8204   -2.7984    0.0000 O   0  0  0  0  0  0  0  0  0  0  0  0
    0.0000   -2.7122    0.0000 O   0  0  0  0  0  0  0  0  0  0  0  0
   -3.7668   -3.0346    0.0000 O   0  0  0  0  0  0  0  0  0  0  0  0
   -2.6108   -3.8746    0.0000 O   0  0  0  0  0  0  0  0  0  0  0  0
    3.6174   -3.8108    0.0000 O   0  0  0  0  0  0  0  0  0  0  0  0
    3.7668   -2.3897    0.0000 O   0  0  0  0  0  0  0  0  0  0  0  0
    0.1493   -1.2911    0.0000 N   0  0  0  0  0  0  0  0  0  0  0  0
    2.1258   -2.2172    0.0000 N   0  0  0  0  0  0  0  0  0  0  0  0
   -2.7970   -1.6998    0.0000 N   0  0  0  0  0  0  0  0  0  0  0  0
    1.3492    1.4958    0.0000 C   0  0  1  0  0  0  0  0  0  0  0  0
    1.6041    0.7112    0.0000 C   0  0  2  0  0  0  0  0  0  0  0  0
    2.4291    0.7112    0.0000 C   0  0  0  0  0  0  0  0  0  0  0  0
    0.5645    1.7508    0.0000 C   0  0  0  0  0  0  0  0  0  0  0  0
    2.6840    1.4958    0.0000 C   0  0  1  0  0  0  0  0  0  0  0  0
    0.3930    2.5577    0.0000 C   0  0  0  0  0  0  0  0  0  0  0  0
   -0.3915    2.8126    0.0000 C   0  0  0  0  0  0  0  0  0  0  0  0
    1.4548   -0.7099    0.0000 C   0  0  0  0  0  0  0  0  0  0  0  0
    0.9698   -1.3773    0.0000 C   0  0  1  0  0  0  0  0  0  0  0  0
   -0.5630    3.6197    0.0000 C   0  0  0  0  0  0  0  0  0  0  0  0
    1.3054   -2.1309    0.0000 C   0  0  0  0  0  0  0  0  0  0  0  0
   -1.3477    3.8746    0.0000 C   0  0  0  0  0  0  0  0  0  0  0  0
   -0.3355   -1.9585    0.0000 C   0  0  0  0  0  0  0  0  0  0  0  0
   -1.1560   -1.8722    0.0000 C   0  0  0  0  0  0  0  0  0  0  0  0
   -1.6409   -2.5397    0.0000 C   0  0  0  0  0  0  0  0  0  0  0  0
   -2.4614   -2.4534    0.0000 C   0  0  1  0  0  0  0  0  0  0  0  0
    2.4614   -2.9709    0.0000 C   0  0  0  0  0  0  0  0  0  0  0  0
   -2.9464   -3.1209    0.0000 C   0  0  0  0  0  0  0  0  0  0  0  0
    3.2819   -3.0571    0.0000 C   0  0  0  0  0  0  0  0  0  0  0  0
    1.9037    0.1231    0.0000 H   0  0  0  0  0  0  0  0  0  0  0  0
   -0.0586   -0.8238    0.0000 H   0  0  0  0  0  0  0  0  0  0  0  0
    2.4265   -1.8034    0.0000 H   0  0  0  0  0  0  0  0  0  0  0  0
   -2.4963   -1.2860    0.0000 H   0  0  0  0  0  0  0  0  0  0  0  0
   -3.3057   -1.6463    0.0000 H   0  0  0  0  0  0  0  0  0  0  0  0
  1 14  1  0  0  0  0
  1 20  1  0  0  0  0
  2 13  1  0  0  0  0
  2 17  1  0  0  0  0
 17  3  1  1  0  0  0
  4 23  2  0  0  0  0
  5 25  2  0  0  0  0
  6 30  1  0  0  0  0
  7 30  2  0  0  0  0
  8 31  1  0  0  0  0
  9 31  2  0  0  0  0
 21 10  1  1  0  0  0
 10 25  1  0  0  0  0
 10 33  1  0  0  0  0
 11 23  1  0  0  0  0
 11 29  1  0  0  0  0
 11 34  1  0  0  0  0
 28 12  1  1  0  0  0
 12 35  1  0  0  0  0
 12 36  1  0  0  0  0
 13 14  1  0  0  0  0
 13 16  1  1  0  0  0
 14 15  1  0  0  0  0
 14 32  1  1  0  0  0
 15 17  1  0  0  0  0
 16 18  1  0  0  0  0
 18 19  1  0  0  0  0
 19 22  1  0  0  0  0
 20 21  1  0  0  0  0
 21 23  1  0  0  0  0
 22 24  1  0  0  0  0
 25 26  1  0  0  0  0
 26 27  1  0  0  0  0
 27 28  1  0  0  0  0
 28 30  1  0  0  0  0
 29 31  1  0  0  0  0
M  END
> <DATABASE_ID>
DB04521

> <DATABASE_NAME>
drugbank

> <SMILES>
[H]N([H])[C@@H](CCC(=O)N([H])[C@@H](CS[C@@]1([H])C[C@H](O)O[C@@H]1CCCCC)C(=O)N([H])CC(O)=O)C(O)=O

> <INCHI_IDENTIFIER>
InChI=1S/C19H33N3O8S/c1-2-3-4-5-13-14(8-17(26)30-13)31-10-12(18(27)21-9-16(24)25)22-15(23)7-6-11(20)19(28)29/h11-14,17,26H,2-10,20H2,1H3,(H,21,27)(H,22,23)(H,24,25)(H,28,29)/t11-,12-,13+,14-,17+/m0/s1

> <INCHI_KEY>
ICRIFHIWWXQBPY-JEJJNBGPSA-N

> <FORMULA>
C19H33N3O8S

> <MOLECULAR_WEIGHT>
463.546

> <EXACT_MASS>
463.198835737

> <JCHEM_ACCEPTOR_COUNT>
9

> <JCHEM_ATOM_COUNT>
64

> <JCHEM_AVERAGE_NEUTRAL_MICROSPECIES_CHARGE>
-1.004485015123333

> <JCHEM_AVERAGE_POLARIZABILITY>
48.67008402525897

> <JCHEM_BIOAVAILABILITY>
0

> <JCHEM_DONOR_COUNT>
6

> <JCHEM_FORMAL_CHARGE>
0

> <JCHEM_GHOSE_FILTER>
0

> <JCHEM_IUPAC>
(2S)-2-amino-4-{[(1R)-1-[(carboxymethyl)carbamoyl]-2-{[(2R,3S,5R)-5-hydroxy-2-pentyloxolan-3-yl]sulfanyl}ethyl]carbamoyl}butanoic acid

> <ALOGPS_LOGP>
-2.81

> <JCHEM_LOGP>
-2.7827532705036435

> <ALOGPS_LOGS>
-2.89

> <JCHEM_MDDR_LIKE_RULE>
0

> <JCHEM_NEUTRAL_CHARGE>
-1

> <JCHEM_NUMBER_OF_RINGS>
1

> <JCHEM_PHYSIOLOGICAL_CHARGE>
-1

> <JCHEM_PKA>
3.5859731836625457

> <JCHEM_PKA_STRONGEST_ACIDIC>
1.8048576696041692

> <JCHEM_PKA_STRONGEST_BASIC>
9.311207971095318

> <JCHEM_POLAR_SURFACE_AREA>
188.28000000000003

> <JCHEM_REFRACTIVITY>
110.91349999999997

> <JCHEM_ROTATABLE_BOND_COUNT>
15

> <JCHEM_RULE_OF_FIVE>
0

> <ALOGPS_SOLUBILITY>
5.94e-01 g/l

> <JCHEM_TRADITIONAL_IUPAC>
(E)-N''-(4-chlorophenyl)-N-hydroxyguanidine

> <JCHEM_VEBER_RULE>
0

> <DRUGBANK_ID>
DB04521

> <SECONDARY_ACCESSION_NUMBERS>
EXPT01689

> <DRUG_GROUPS>
experimental

> <GENERIC_NAME>
4-S-Glutathionyl-5-pentyl-tetrahydro-furan-2-ol

> <SYNONYMS>
GSHNA

$$$$
