
  Mrv1652310211602202D          

 34 36  0  0  1  0            999 V2000
   -3.5724    0.4125    0.0000 C   0  0  0  0  0  0  0  0  0  0  0  0
   -3.5724    1.2375    0.0000 O   0  0  0  0  0  0  0  0  0  0  0  0
   -2.8579    1.6500    0.0000 C   0  0  0  0  0  0  0  0  0  0  0  0
   -2.8579    2.4750    0.0000 C   0  0  0  0  0  0  0  0  0  0  0  0
   -2.1434    2.8875    0.0000 C   0  0  0  0  0  0  0  0  0  0  0  0
   -1.4289    2.4750    0.0000 C   0  0  0  0  0  0  0  0  0  0  0  0
   -1.4289    1.6500    0.0000 C   0  0  0  0  0  0  0  0  0  0  0  0
   -2.1434    1.2375    0.0000 C   0  0  0  0  0  0  0  0  0  0  0  0
   -2.1434    0.4125    0.0000 C   0  0  0  0  0  0  0  0  0  0  0  0
   -2.8579   -0.0000    0.0000 O   0  0  0  0  0  0  0  0  0  0  0  0
   -1.4289   -0.0000    0.0000 N   0  0  0  0  0  0  0  0  0  0  0  0
   -1.4289   -0.8250    0.0000 C   0  0  0  0  0  0  0  0  0  0  0  0
   -0.7145   -1.2375    0.0000 C   0  0  0  0  0  0  0  0  0  0  0  0
    0.0000   -0.8250    0.0000 C   0  0  0  0  0  0  0  0  0  0  0  0
    0.7145   -1.2375    0.0000 C   0  0  0  0  0  0  0  0  0  0  0  0
    0.7145   -2.0625    0.0000 N   0  0  0  0  0  0  0  0  0  0  0  0
    0.0000   -2.4750    0.0000 C   0  0  0  0  0  0  0  0  0  0  0  0
   -0.7145   -2.0625    0.0000 C   0  0  0  0  0  0  0  0  0  0  0  0
    1.4289   -2.4750    0.0000 C   0  0  0  0  0  0  0  0  0  0  0  0
    1.4289   -3.3000    0.0000 C   0  0  0  0  0  0  0  0  0  0  0  0
    2.1434   -3.7125    0.0000 C   0  0  1  0  0  0  0  0  0  0  0  0
    2.1434   -4.5375    0.0000 C   0  0  0  0  0  0  0  0  0  0  0  0
    2.8579   -4.9500    0.0000 C   0  0  0  0  0  0  0  0  0  0  0  0
    2.8579   -5.7750    0.0000 C   0  0  0  0  0  0  0  0  0  0  0  0
    2.1434   -6.1875    0.0000 C   0  0  0  0  0  0  0  0  0  0  0  0
    1.4289   -5.7750    0.0000 C   0  0  0  0  0  0  0  0  0  0  0  0
    1.4289   -4.9500    0.0000 C   0  0  0  0  0  0  0  0  0  0  0  0
    2.1434   -7.0125    0.0000 F   0  0  0  0  0  0  0  0  0  0  0  0
    2.8579   -3.3000    0.0000 O   0  0  0  0  0  0  0  0  0  0  0  0
    2.8579   -2.4750    0.0000 C   0  0  0  0  0  0  0  0  0  0  0  0
    2.1434   -2.0625    0.0000 O   0  0  0  0  0  0  0  0  0  0  0  0
    3.5724   -2.0625    0.0000 N   0  0  0  0  0  0  0  0  0  0  0  0
   -0.7145    2.8875    0.0000 Cl  0  0  0  0  0  0  0  0  0  0  0  0
   -2.1434    3.7125    0.0000 N   0  0  0  0  0  0  0  0  0  0  0  0
  1  2  1  0  0  0  0
  2  3  1  0  0  0  0
  3  4  2  0  0  0  0
  4  5  1  0  0  0  0
  5  6  2  0  0  0  0
  6  7  1  0  0  0  0
  7  8  2  0  0  0  0
  3  8  1  0  0  0  0
  8  9  1  0  0  0  0
  9 10  2  0  0  0  0
  9 11  1  0  0  0  0
 11 12  1  0  0  0  0
 12 13  1  0  0  0  0
 13 14  1  0  0  0  0
 14 15  1  0  0  0  0
 15 16  1  0  0  0  0
 16 17  1  0  0  0  0
 17 18  1  0  0  0  0
 13 18  1  0  0  0  0
 16 19  1  0  0  0  0
 19 20  1  0  0  0  0
 20 21  1  0  0  0  0
 21 22  1  0  0  0  0
 22 23  2  0  0  0  0
 23 24  1  0  0  0  0
 24 25  2  0  0  0  0
 25 26  1  0  0  0  0
 26 27  2  0  0  0  0
 22 27  1  0  0  0  0
 25 28  1  0  0  0  0
 21 29  1  6  0  0  0
 29 30  1  0  0  0  0
 30 31  2  0  0  0  0
 30 32  1  0  0  0  0
  6 33  1  0  0  0  0
  5 34  1  0  0  0  0
M  END
> <DATABASE_ID>
DB12798

> <DATABASE_NAME>
drugbank

> <SMILES>
COC1=CC(N)=C(Cl)C=C1C(=O)NCC1CCN(CC[C@H](OC(N)=O)C2=CC=C(F)C=C2)CC1

> <INCHI_IDENTIFIER>
InChI=1S/C24H30ClFN4O4/c1-33-22-13-20(27)19(25)12-18(22)23(31)29-14-15-6-9-30(10-7-15)11-8-21(34-24(28)32)16-2-4-17(26)5-3-16/h2-5,12-13,15,21H,6-11,14,27H2,1H3,(H2,28,32)(H,29,31)/t21-/m0/s1

> <INCHI_KEY>
KGMMSPVVHZGPHL-NRFANRHFSA-N

> <FORMULA>
C24H30ClFN4O4

> <MOLECULAR_WEIGHT>
492.98

> <EXACT_MASS>
492.1939613

> <JCHEM_ACCEPTOR_COUNT>
5

> <JCHEM_ATOM_COUNT>
64

> <JCHEM_AVERAGE_POLARIZABILITY>
50.95851176772027

> <JCHEM_BIOAVAILABILITY>
1

> <JCHEM_DONOR_COUNT>
3

> <JCHEM_FORMAL_CHARGE>
0

> <JCHEM_GHOSE_FILTER>
0

> <JCHEM_IUPAC>
(1S)-3-(4-{[(4-amino-5-chloro-2-methoxyphenyl)formamido]methyl}piperidin-1-yl)-1-(4-fluorophenyl)propyl carbamate

> <ALOGPS_LOGP>
3.57

> <JCHEM_LOGP>
2.5567962356666665

> <ALOGPS_LOGS>
-4.84

> <JCHEM_MDDR_LIKE_RULE>
1

> <JCHEM_NUMBER_OF_RINGS>
3

> <JCHEM_PHYSIOLOGICAL_CHARGE>
1

> <JCHEM_PKA>
15.235051708676274

> <JCHEM_PKA_STRONGEST_ACIDIC>
14.415185881902492

> <JCHEM_PKA_STRONGEST_BASIC>
8.71554724043135

> <JCHEM_POLAR_SURFACE_AREA>
119.91

> <JCHEM_REFRACTIVITY>
129.7557

> <JCHEM_ROTATABLE_BOND_COUNT>
10

> <JCHEM_RULE_OF_FIVE>
1

> <ALOGPS_SOLUBILITY>
7.13e-03 g/l

> <JCHEM_TRADITIONAL_IUPAC>
(1S)-3-(4-{[(4-amino-5-chloro-2-methoxyphenyl)formamido]methyl}piperidin-1-yl)-1-(4-fluorophenyl)propyl carbamate

> <JCHEM_VEBER_RULE>
0

> <DRUGBANK_ID>
DB12798

> <DRUG_GROUPS>
investigational

> <GENERIC_NAME>
Relenopride

> <SYNONYMS>
Relenopride

$$$$
