
  Mrv1909 05201915242D          

 39 43  0  0  0  0            999 V2000
    6.4041   -8.2809    0.0000 C   0  0  0  0  0  0  0  0  0  0  0  0
    5.5971   -8.4525    0.0000 N   0  0  0  0  0  0  0  0  0  0  0  0
    5.3422   -9.2371    0.0000 C   0  0  0  0  0  0  0  0  0  0  0  0
    4.5352   -9.4086    0.0000 C   0  0  0  0  0  0  0  0  0  0  0  0
    3.9832   -8.7955    0.0000 N   0  0  0  0  0  0  0  0  0  0  0  0
    3.1762   -8.9671    0.0000 C   0  0  0  0  0  0  0  0  0  0  0  0
    2.6242   -8.3540    0.0000 C   0  0  0  0  0  0  0  0  0  0  0  0
    1.8172   -8.5255    0.0000 C   0  0  0  0  0  0  0  0  0  0  0  0
    1.2652   -7.9124    0.0000 C   0  0  0  0  0  0  0  0  0  0  0  0
    1.5201   -7.1278    0.0000 C   0  0  0  0  0  0  0  0  0  0  0  0
    0.9681   -6.5147    0.0000 N   0  0  0  0  0  0  0  0  0  0  0  0
    1.2230   -5.7301    0.0000 C   0  0  0  0  0  0  0  0  0  0  0  0
    2.0300   -5.5585    0.0000 O   0  0  0  0  0  0  0  0  0  0  0  0
    0.6710   -5.1170    0.0000 C   0  0  0  0  0  0  0  0  0  0  0  0
   -0.1360   -5.2885    0.0000 C   0  0  0  0  0  0  0  0  0  0  0  0
   -0.6880   -4.6754    0.0000 C   0  0  0  0  0  0  0  0  0  0  0  0
   -0.4331   -3.8908    0.0000 C   0  0  0  0  0  0  0  0  0  0  0  0
   -0.9851   -3.2777    0.0000 C   0  0  0  0  0  0  0  0  0  0  0  0
    0.3739   -3.7192    0.0000 C   0  0  0  0  0  0  0  0  0  0  0  0
    0.9259   -4.3323    0.0000 C   0  0  0  0  0  0  0  0  0  0  0  0
    0.6288   -2.9346    0.0000 C   0  0  0  0  0  0  0  0  0  0  0  0
    0.8838   -2.1500    0.0000 C   0  0  0  0  0  0  0  0  0  0  0  0
    1.1387   -1.3654    0.0000 C   0  0  0  0  0  0  0  0  0  0  0  0
    0.6538   -0.6979    0.0000 N   0  0  0  0  0  0  0  0  0  0  0  0
    1.1387   -0.0305    0.0000 N   0  0  0  0  0  0  0  0  0  0  0  0
    1.9233   -0.2854    0.0000 C   0  0  0  0  0  0  0  0  0  0  0  0
    2.6378    0.1271    0.0000 C   0  0  0  0  0  0  0  0  0  0  0  0
    3.3523   -0.2854    0.0000 C   0  0  0  0  0  0  0  0  0  0  0  0
    3.3523   -1.1104    0.0000 C   0  0  0  0  0  0  0  0  0  0  0  0
    2.6378   -1.5229    0.0000 C   0  0  0  0  0  0  0  0  0  0  0  0
    1.9233   -1.1104    0.0000 N   0  0  0  0  0  0  0  0  0  0  0  0
    2.3271   -6.9562    0.0000 C   0  0  0  0  0  0  0  0  0  0  0  0
    2.8791   -7.5693    0.0000 C   0  0  0  0  0  0  0  0  0  0  0  0
    1.5623   -9.3101    0.0000 C   0  0  0  0  0  0  0  0  0  0  0  0
    1.3073  -10.0947    0.0000 F   0  0  0  0  0  0  0  0  0  0  0  0
    0.7777   -9.0552    0.0000 F   0  0  0  0  0  0  0  0  0  0  0  0
    2.3469   -9.5650    0.0000 F   0  0  0  0  0  0  0  0  0  0  0  0
    4.2381   -8.0109    0.0000 C   0  0  0  0  0  0  0  0  0  0  0  0
    5.0451   -7.8394    0.0000 C   0  0  0  0  0  0  0  0  0  0  0  0
  1  2  1  0  0  0  0
  2  3  1  0  0  0  0
  3  4  1  0  0  0  0
  4  5  1  0  0  0  0
  5  6  1  0  0  0  0
  6  7  1  0  0  0  0
  7  8  2  0  0  0  0
  8  9  1  0  0  0  0
  9 10  2  0  0  0  0
 10 11  1  0  0  0  0
 11 12  1  0  0  0  0
 12 13  2  0  0  0  0
 12 14  1  0  0  0  0
 14 15  2  0  0  0  0
 15 16  1  0  0  0  0
 16 17  2  0  0  0  0
 17 18  1  0  0  0  0
 17 19  1  0  0  0  0
 19 20  2  0  0  0  0
 14 20  1  0  0  0  0
 19 21  1  0  0  0  0
 21 22  3  0  0  0  0
 22 23  1  0  0  0  0
 23 24  2  0  0  0  0
 24 25  1  0  0  0  0
 25 26  2  0  0  0  0
 26 27  1  0  0  0  0
 27 28  2  0  0  0  0
 28 29  1  0  0  0  0
 29 30  2  0  0  0  0
 30 31  1  0  0  0  0
 23 31  1  0  0  0  0
 26 31  1  0  0  0  0
 10 32  1  0  0  0  0
 32 33  2  0  0  0  0
  7 33  1  0  0  0  0
  8 34  1  0  0  0  0
 34 35  1  0  0  0  0
 34 36  1  0  0  0  0
 34 37  1  0  0  0  0
  5 38  1  0  0  0  0
 38 39  1  0  0  0  0
  2 39  1  0  0  0  0
M  END
> <DATABASE_ID>
DB15396

> <DATABASE_NAME>
drugbank

> <SMILES>
CN1CCN(CC2=C(C=C(NC(=O)C3=CC=C(C)C(=C3)C#CC3=NN=C4C=CC=CN34)C=C2)C(F)(F)F)CC1

> <INCHI_IDENTIFIER>
InChI=1S/C29H27F3N6O/c1-20-6-7-22(17-21(20)9-11-27-35-34-26-5-3-4-12-38(26)27)28(39)33-24-10-8-23(25(18-24)29(30,31)32)19-37-15-13-36(2)14-16-37/h3-8,10,12,17-18H,13-16,19H2,1-2H3,(H,33,39)

> <INCHI_KEY>
SLIVDYMORZGPLW-UHFFFAOYSA-N

> <FORMULA>
C29H27F3N6O

> <MOLECULAR_WEIGHT>
532.571

> <EXACT_MASS>
532.219844002

> <JCHEM_ACCEPTOR_COUNT>
5

> <JCHEM_ATOM_COUNT>
66

> <JCHEM_AVERAGE_POLARIZABILITY>
55.11358939383059

> <JCHEM_BIOAVAILABILITY>
1

> <JCHEM_DONOR_COUNT>
1

> <JCHEM_FORMAL_CHARGE>
0

> <JCHEM_GHOSE_FILTER>
0

> <JCHEM_IUPAC>
4-methyl-N-{4-[(4-methylpiperazin-1-yl)methyl]-3-(trifluoromethyl)phenyl}-3-(2-{[1,2,4]triazolo[4,3-a]pyridin-3-yl}ethynyl)benzamide

> <ALOGPS_LOGP>
4.08

> <JCHEM_LOGP>
4.569383030666666

> <ALOGPS_LOGS>
-5.26

> <JCHEM_MDDR_LIKE_RULE>
1

> <JCHEM_NUMBER_OF_RINGS>
5

> <JCHEM_PHYSIOLOGICAL_CHARGE>
1

> <JCHEM_PKA_STRONGEST_ACIDIC>
15.36256370566928

> <JCHEM_PKA_STRONGEST_BASIC>
7.624670378308542

> <JCHEM_POLAR_SURFACE_AREA>
65.77

> <JCHEM_REFRACTIVITY>
144.6076

> <JCHEM_ROTATABLE_BOND_COUNT>
7

> <JCHEM_RULE_OF_FIVE>
0

> <ALOGPS_SOLUBILITY>
2.90e-03 g/l

> <JCHEM_TRADITIONAL_IUPAC>
(2R)-14-fluoro-2-methyl-6,9,10,19-tetraazapentacyclo[14.2.1.0^{2,6}.0^{8,18}.0^{12,17}]nonadeca-1(18),8,12(17),13,15-pentaen-11-one

> <JCHEM_VEBER_RULE>
0

> <DRUGBANK_ID>
DB15396

> <DRUG_GROUPS>
investigational

> <GENERIC_NAME>
Vamotinib

> <SYNONYMS>
Vamotinib

$$$$
