
  Mrv1909 12152018032D          

 32 36  0  0  0  0            999 V2000
   -4.3089    2.1511    0.0000 C   0  0  0  0  0  0  0  0  0  0  0  0
   -4.4805    1.3441    0.0000 N   0  0  0  0  0  0  0  0  0  0  0  0
   -5.2341    1.0085    0.0000 N   0  0  0  0  0  0  0  0  0  0  0  0
   -5.1479    0.1881    0.0000 C   0  0  0  0  0  0  0  0  0  0  0  0
   -4.3409    0.0165    0.0000 C   0  0  0  0  0  0  0  0  0  0  0  0
   -3.9284    0.7310    0.0000 C   0  0  0  0  0  0  0  0  0  0  0  0
   -3.1034    0.7310    0.0000 C   0  0  0  0  0  0  0  0  0  0  0  0
   -2.6909    0.0165    0.0000 C   0  0  0  0  0  0  0  0  0  0  0  0
   -3.1034   -0.6979    0.0000 C   0  0  0  0  0  0  0  0  0  0  0  0
   -3.9284   -0.6979    0.0000 C   0  0  0  0  0  0  0  0  0  0  0  0
   -2.6909   -1.4124    0.0000 C   0  0  0  0  0  0  0  0  0  0  0  0
   -1.8659   -1.4124    0.0000 C   0  0  0  0  0  0  0  0  0  0  0  0
   -1.4534   -0.6979    0.0000 O   0  0  0  0  0  0  0  0  0  0  0  0
   -0.6284   -0.6979    0.0000 C   0  0  0  0  0  0  0  0  0  0  0  0
   -0.1435   -1.3654    0.0000 C   0  0  0  0  0  0  0  0  0  0  0  0
    0.6411   -1.1104    0.0000 C   0  0  0  0  0  0  0  0  0  0  0  0
    0.6411   -0.2854    0.0000 C   0  0  0  0  0  0  0  0  0  0  0  0
   -0.1435   -0.0305    0.0000 C   0  0  0  0  0  0  0  0  0  0  0  0
    1.3556    0.1271    0.0000 C   0  0  0  0  0  0  0  0  0  0  0  0
    2.0701   -0.2854    0.0000 C   0  0  0  0  0  0  0  0  0  0  0  0
    2.0701   -1.1104    0.0000 C   0  0  0  0  0  0  0  0  0  0  0  0
    1.3556   -1.5229    0.0000 C   0  0  0  0  0  0  0  0  0  0  0  0
   -1.4534   -2.1269    0.0000 C   0  0  0  0  0  0  0  0  0  0  0  0
   -0.6284   -2.1269    0.0000 N   0  0  0  0  0  0  0  0  0  0  0  0
   -1.8659   -2.8414    0.0000 C   0  0  0  0  0  0  0  0  0  0  0  0
   -2.6909   -2.8414    0.0000 C   0  0  0  0  0  0  0  0  0  0  0  0
   -3.1034   -3.5558    0.0000 C   0  0  0  0  0  0  0  0  0  0  0  0
   -3.9284   -3.5558    0.0000 C   0  0  0  0  0  0  0  0  0  0  0  0
   -4.3409   -4.2703    0.0000 C   0  0  0  0  0  0  0  0  0  0  0  0
   -3.9284   -4.9848    0.0000 O   0  0  0  0  0  0  0  0  0  0  0  0
   -5.1659   -4.2703    0.0000 O   0  0  0  0  0  0  0  0  0  0  0  0
   -3.1034   -2.1269    0.0000 C   0  0  0  0  0  0  0  0  0  0  0  0
  1  2  1  0  0  0  0
  2  3  1  0  0  0  0
  3  4  2  0  0  0  0
  4  5  1  0  0  0  0
  5  6  2  0  0  0  0
  2  6  1  0  0  0  0
  6  7  1  0  0  0  0
  7  8  2  0  0  0  0
  8  9  1  0  0  0  0
  9 10  2  0  0  0  0
  5 10  1  0  0  0  0
  9 11  1  0  0  0  0
 11 12  2  0  0  0  0
 12 13  1  0  0  0  0
 13 14  1  0  0  0  0
 14 15  1  0  0  0  0
 15 16  1  0  0  0  0
 16 17  2  0  0  0  0
 17 18  1  0  0  0  0
 14 18  1  0  0  0  0
 17 19  1  0  0  0  0
 19 20  2  0  0  0  0
 20 21  1  0  0  0  0
 21 22  2  0  0  0  0
 16 22  1  0  0  0  0
 12 23  1  0  0  0  0
 23 24  1  0  0  0  0
 23 25  2  0  0  0  0
 25 26  1  0  0  0  0
 26 27  1  0  0  0  0
 27 28  1  0  0  0  0
 28 29  1  0  0  0  0
 29 30  1  0  0  0  0
 29 31  2  0  0  0  0
 26 32  2  0  0  0  0
 11 32  1  0  0  0  0
M  END
> <DATABASE_ID>
DB16058

> <DATABASE_NAME>
drugbank

> <SMILES>
CN1N=CC2=C1C=CC(=C2)C1=C(OC2CC3=C(C2)C=CC=C3)C(N)=CC(CCC(O)=O)=C1

> <INCHI_IDENTIFIER>
InChI=1S/C26H25N3O3/c1-29-24-8-7-19(12-20(24)15-28-29)22-10-16(6-9-25(30)31)11-23(27)26(22)32-21-13-17-4-2-3-5-18(17)14-21/h2-5,7-8,10-12,15,21H,6,9,13-14,27H2,1H3,(H,30,31)

> <INCHI_KEY>
ULNYPYSSPODXCS-UHFFFAOYSA-N

> <FORMULA>
C26H25N3O3

> <MOLECULAR_WEIGHT>
427.504

> <EXACT_MASS>
427.189591677

> <JCHEM_ACCEPTOR_COUNT>
5

> <JCHEM_ATOM_COUNT>
57

> <JCHEM_AVERAGE_NEUTRAL_MICROSPECIES_CHARGE>
-0.993233611631862

> <JCHEM_AVERAGE_POLARIZABILITY>
46.3260628736556

> <JCHEM_BIOAVAILABILITY>
1

> <JCHEM_DONOR_COUNT>
2

> <JCHEM_FORMAL_CHARGE>
0

> <JCHEM_GHOSE_FILTER>
0

> <JCHEM_IUPAC>
3-[3-amino-4-(2,3-dihydro-1H-inden-2-yloxy)-5-(1-methyl-1H-indazol-5-yl)phenyl]propanoic acid

> <ALOGPS_LOGP>
4.81

> <JCHEM_LOGP>
3.6453766226721527

> <ALOGPS_LOGS>
-5.37

> <JCHEM_MDDR_LIKE_RULE>
1

> <JCHEM_NEUTRAL_CHARGE>
-1

> <JCHEM_NUMBER_OF_RINGS>
5

> <JCHEM_PHYSIOLOGICAL_CHARGE>
-1

> <JCHEM_PKA_STRONGEST_ACIDIC>
3.64692844462231

> <JCHEM_PKA_STRONGEST_BASIC>
4.803876853072197

> <JCHEM_POLAR_SURFACE_AREA>
90.37

> <JCHEM_REFRACTIVITY>
135.8449

> <JCHEM_ROTATABLE_BOND_COUNT>
6

> <JCHEM_RULE_OF_FIVE>
1

> <ALOGPS_SOLUBILITY>
1.83e-03 g/l

> <JCHEM_TRADITIONAL_IUPAC>
2-methoxy-4-[(1E)-3-[4-(nitrooxy)butoxy]-3-oxoprop-1-en-1-yl]phenyl (4R)-4-[(1R,3aS,3bR,4S,5aS,7R,9aS,9bS,11aR)-4,7-dihydroxy-9a,11a-dimethyl-tetradecahydro-1H-cyclopenta[a]phenanthren-1-yl]pentanoate

> <JCHEM_VEBER_RULE>
0

> <DRUGBANK_ID>
DB16058

> <DRUG_GROUPS>
investigational

> <GENERIC_NAME>
AK106-001616

$$$$
