
  Mrv1718006281815442D          

  1  0  0  0  0  0            999 V2000
    0.0000    0.0000    0.0000 P   0  0  0  0  0 15  0  0  0  0  0  0
M  END
> <DATABASE_ID>
DB14151

> <DATABASE_NAME>
drugbank

> <SMILES>
[P]

> <INCHI_IDENTIFIER>
InChI=1S/P

> <INCHI_KEY>
OAICVXFJPJFONN-UHFFFAOYSA-N

> <FORMULA>
P

> <MOLECULAR_WEIGHT>
30.9738

> <EXACT_MASS>
30.973761512

> <JCHEM_ACCEPTOR_COUNT>
0

> <JCHEM_ATOM_COUNT>
1

> <JCHEM_AVERAGE_POLARIZABILITY>
1.7784

> <JCHEM_BIOAVAILABILITY>
1

> <JCHEM_DONOR_COUNT>
0

> <JCHEM_FORMAL_CHARGE>
0

> <JCHEM_GHOSE_FILTER>
0

> <JCHEM_IUPAC>
phosphorus

> <JCHEM_LOGP>
0.3

> <JCHEM_MDDR_LIKE_RULE>
0

> <JCHEM_NUMBER_OF_RINGS>
0

> <JCHEM_PHYSIOLOGICAL_CHARGE>
0

> <JCHEM_POLAR_SURFACE_AREA>
0.0

> <JCHEM_REFRACTIVITY>
5.2

> <JCHEM_ROTATABLE_BOND_COUNT>
0

> <JCHEM_RULE_OF_FIVE>
1

> <JCHEM_TRADITIONAL_IUPAC>
phosphorus

> <JCHEM_VEBER_RULE>
1

> <DRUGBANK_ID>
DB14151

> <DRUG_GROUPS>
approved; experimental

> <GENERIC_NAME>
Phosphorus

> <SYNONYMS>
Phosphorous; Phosphorus, elemental

> <PRODUCTS>
Advanced B & T Formula; Anaplex Tab; Calci A and D Tab; Calcium Phosphorus & Vitamin D; Chelamins Plus Tab; Complete One A Day Tab; Folgard; Grand Master Formula Tab; Liquid Calcium Mg Phosphorus and Vit.d-3; Multi-mins Minerals; Multipack II; Multiple Minerals; Nitro Vites - Tab; Nutra Boost; Paramettes Adults; Vc II; Vita Balance 2000; Vitamin C W Chelates Tab; Vyo Cylate - Pwr

$$$$
