
  Mrv1652310211600202D          

 23 24  0  0  1  0            999 V2000
    0.0000   -1.6500    0.0000 C   0  0  0  0  0  0  0  0  0  0  0  0
    0.0000   -2.4750    0.0000 C   0  0  0  0  0  0  0  0  0  0  0  0
   -0.7145   -2.8875    0.0000 C   0  0  0  0  0  0  0  0  0  0  0  0
   -1.4289   -2.4750    0.0000 C   0  0  0  0  0  0  0  0  0  0  0  0
   -1.4289   -1.6500    0.0000 C   0  0  0  0  0  0  0  0  0  0  0  0
   -0.7145   -1.2375    0.0000 C   0  0  0  0  0  0  0  0  0  0  0  0
   -0.7145   -0.4125    0.0000 O   0  0  0  0  0  0  0  0  0  0  0  0
   -1.4289   -0.0000    0.0000 C   0  0  0  0  0  0  0  0  0  0  0  0
   -2.1434   -0.4125    0.0000 C   0  0  0  0  0  0  0  0  0  0  0  0
   -2.8579   -0.0000    0.0000 C   0  0  0  0  0  0  0  0  0  0  0  0
   -2.8579    0.8250    0.0000 C   0  0  0  0  0  0  0  0  0  0  0  0
   -2.1434    1.2375    0.0000 C   0  0  0  0  0  0  0  0  0  0  0  0
   -1.4289    0.8250    0.0000 C   0  0  0  0  0  0  0  0  0  0  0  0
   -0.7145    1.2375    0.0000 I   0  0  0  0  0  0  0  0  0  0  0  0
   -3.5724    1.2375    0.0000 C   0  0  0  0  0  0  0  0  0  0  0  0
   -3.5724    2.0625    0.0000 C   0  0  1  0  0  0  0  0  0  0  0  0
   -4.2868    2.4750    0.0000 C   0  0  0  0  0  0  0  0  0  0  0  0
   -4.2868    3.3000    0.0000 O   0  0  0  0  0  0  0  0  0  0  0  0
   -5.0013    2.0625    0.0000 O   0  0  0  0  0  0  0  0  0  0  0  0
   -2.8579    2.4750    0.0000 N   0  0  0  0  0  0  0  0  0  0  0  0
   -2.1434   -1.2375    0.0000 I   0  0  0  0  0  0  0  0  0  0  0  0
   -2.1434   -2.8875    0.0000 I   0  0  0  0  0  0  0  0  0  0  0  0
   -0.7145   -3.7125    0.0000 O   0  0  0  0  0  0  0  0  0  0  0  0
  1  2  2  0  0  0  0
  2  3  1  0  0  0  0
  3  4  2  0  0  0  0
  4  5  1  0  0  0  0
  5  6  2  0  0  0  0
  1  6  1  0  0  0  0
  6  7  1  0  0  0  0
  7  8  1  0  0  0  0
  8  9  2  0  0  0  0
  9 10  1  0  0  0  0
 10 11  2  0  0  0  0
 11 12  1  0  0  0  0
 12 13  2  0  0  0  0
  8 13  1  0  0  0  0
 13 14  1  0  0  0  0
 11 15  1  0  0  0  0
 15 16  1  0  0  0  0
 16 17  1  0  0  0  0
 17 18  2  0  0  0  0
 17 19  1  0  0  0  0
 16 20  1  1  0  0  0
  9 21  1  0  0  0  0
  4 22  1  0  0  0  0
  3 23  1  0  0  0  0
M  ISO  3  14 131  21 131  22 131
M  END
> <DATABASE_ID>
DB12425

> <DATABASE_NAME>
drugbank

> <SMILES>
N[C@@H](CC1=CC([131I])=C(OC2=CC([131I])=C(O)C=C2)C([131I])=C1)C(O)=O

> <INCHI_IDENTIFIER>
InChI=1S/C15H12I3NO4/c16-9-6-8(1-2-13(9)20)23-14-10(17)3-7(4-11(14)18)5-12(19)15(21)22/h1-4,6,12,20H,5,19H2,(H,21,22)/t12-/m0/s1/i16+4,17+4,18+4

> <INCHI_KEY>
AUYYCJSJGJYCDS-UMVFHIKJSA-N

> <FORMULA>
C15H12I3NO4

> <MOLECULAR_WEIGHT>
662.982

> <EXACT_MASS>
662.795005374

> <JCHEM_ACCEPTOR_COUNT>
4

> <JCHEM_ATOM_COUNT>
35

> <JCHEM_AVERAGE_POLARIZABILITY>
44.038374774360534

> <JCHEM_BIOAVAILABILITY>
1

> <JCHEM_DONOR_COUNT>
3

> <JCHEM_FORMAL_CHARGE>
0

> <JCHEM_GHOSE_FILTER>
0

> <JCHEM_IUPAC>
(2S)-2-amino-3-{4-[4-hydroxy-3-(¹³¹I)iodophenoxy]-3,5-di(¹³¹I)iodophenyl}propanoic acid

> <ALOGPS_LOGP>
0.82

> <JCHEM_LOGP>
2.798504958851472

> <ALOGPS_LOGS>
-4.52

> <JCHEM_MDDR_LIKE_RULE>
0

> <JCHEM_NUMBER_OF_RINGS>
2

> <JCHEM_PHYSIOLOGICAL_CHARGE>
0

> <JCHEM_PKA>
8.49112819466963

> <JCHEM_PKA_STRONGEST_ACIDIC>
0.3025527340740384

> <JCHEM_PKA_STRONGEST_BASIC>
9.482304489227937

> <JCHEM_POLAR_SURFACE_AREA>
92.78

> <JCHEM_REFRACTIVITY>
113.42549999999999

> <JCHEM_ROTATABLE_BOND_COUNT>
5

> <JCHEM_RULE_OF_FIVE>
0

> <ALOGPS_SOLUBILITY>
1.95e-02 g/l

> <JCHEM_TRADITIONAL_IUPAC>
liothyronine I 131

> <JCHEM_VEBER_RULE>
0

> <DRUGBANK_ID>
DB12425

> <DRUG_GROUPS>
investigational

> <GENERIC_NAME>
Liothyronine I-131

> <SYNONYMS>
Liothyronine I 131

$$$$
