
  Mrv1909 03042017022D          

 15 16  0  0  0  0            999 V2000
    0.1754    0.0000    0.0000 N   0  0  0  0  0  0  0  0  0  0  0  0
    0.9600    0.2548    0.0000 N   0  0  0  0  0  0  0  0  0  0  0  0
    2.6827   -1.1271    0.0000 C   0  0  0  0  0  0  0  0  0  0  0  0
    2.2701   -0.4125    0.0000 S   0  0  0  0  0  0  0  0  0  0  0  0
    1.4451   -0.4125    0.0000 C   0  0  0  0  0  0  0  0  0  0  0  0
    0.9600   -1.0800    0.0000 N   0  0  0  0  0  0  0  0  0  0  0  0
    0.1754   -0.8251    0.0000 C   0  0  0  0  0  0  0  0  0  0  0  0
   -0.5391   -1.2376    0.0000 N   0  0  0  0  0  0  0  0  0  0  0  0
   -1.2536   -0.8251    0.0000 N   0  0  0  0  0  0  0  0  0  0  0  0
   -1.9682    1.2376    0.0000 O   0  5  0  0  0  0  0  0  0  0  0  0
   -2.6827    0.0000    0.0000 O   0  0  0  0  0  0  0  0  0  0  0  0
   -1.9682    0.4125    0.0000 N   0  3  0  0  0  0  0  0  0  0  0  0
   -1.2536    0.0000    0.0000 C   0  0  0  0  0  0  0  0  0  0  0  0
   -0.5391    0.4125    0.0000 C   0  0  0  0  0  0  0  0  0  0  0  0
   -0.5391    1.2376    0.0000 O   0  0  0  0  0  0  0  0  0  0  0  0
 14  1  1  0  0  0  0
  1  7  1  0  0  0  0
  1  2  1  0  0  0  0
  2  5  2  0  0  0  0
  4  3  1  0  0  0  0
  5  4  1  0  0  0  0
  6  5  1  0  0  0  0
  7  6  2  0  0  0  0
  7  8  1  0  0  0  0
  9  8  1  0  0  0  0
 13  9  2  0  0  0  0
 12 10  1  0  0  0  0
 12 11  2  0  0  0  0
 13 12  1  0  0  0  0
 14 13  1  0  0  0  0
 15 14  2  0  0  0  0
M  CHG  2  10  -1  12   1
M  END
> <DATABASE_ID>
DB15622

> <DATABASE_NAME>
drugbank

> <SMILES>
CSC1=NN2C(NN=C(C2=O)[N+]([O-])=O)=N1

> <INCHI_IDENTIFIER>
InChI=1S/C5H4N6O3S/c1-15-5-6-4-8-7-2(11(13)14)3(12)10(4)9-5/h1H3,(H,6,8,9)

> <INCHI_KEY>
IDVQGNMSSHPZSJ-UHFFFAOYSA-N

> <FORMULA>
C5H4N6O3S

> <MOLECULAR_WEIGHT>
228.19

> <EXACT_MASS>
228.006559187

> <JCHEM_ACCEPTOR_COUNT>
7

> <JCHEM_ATOM_COUNT>
19

> <JCHEM_AVERAGE_NEUTRAL_MICROSPECIES_CHARGE>
-0.6952714563364527

> <JCHEM_AVERAGE_POLARIZABILITY>
19.181375243578834

> <JCHEM_BIOAVAILABILITY>
1

> <JCHEM_DONOR_COUNT>
1

> <JCHEM_FORMAL_CHARGE>
0

> <JCHEM_GHOSE_FILTER>
0

> <JCHEM_IUPAC>
7-(methylsulfanyl)-3-nitro-1H,4H-[1,2,4]triazolo[3,2-c][1,2,4]triazin-4-one

> <ALOGPS_LOGP>
1.07

> <JCHEM_LOGP>
1.6702979586666669

> <ALOGPS_LOGS>
-2.13

> <JCHEM_MDDR_LIKE_RULE>
0

> <JCHEM_NEUTRAL_CHARGE>
-1

> <JCHEM_NUMBER_OF_RINGS>
2

> <JCHEM_PHYSIOLOGICAL_CHARGE>
-1

> <JCHEM_PKA_STRONGEST_ACIDIC>
6.641758735897117

> <JCHEM_PKA_STRONGEST_BASIC>
-4.68853306092467

> <JCHEM_POLAR_SURFACE_AREA>
115.31

> <JCHEM_REFRACTIVITY>
51.45150000000002

> <JCHEM_ROTATABLE_BOND_COUNT>
2

> <JCHEM_RULE_OF_FIVE>
1

> <ALOGPS_SOLUBILITY>
1.67e+00 g/l

> <JCHEM_TRADITIONAL_IUPAC>
6-bromo-4-[(dimethylamino)methyl]-3-(ethoxycarbonyl)-2-[(phenylsulfanyl)methyl]-1H-indol-5-yl sulfate

> <JCHEM_VEBER_RULE>
0

> <DRUGBANK_ID>
DB15622

> <DRUG_GROUPS>
experimental

> <GENERIC_NAME>
Triazavirin

> <SYNONYMS>
Riamilovir; Triazavirin

$$$$
