
  Mrv1572004221604192D          

 21 23  0  0  0  0            999 V2000
   -1.8659    0.8085    0.0000 C   0  0  0  0  0  0  0  0  0  0  0  0
    3.4990    4.4104    0.0000 C   0  0  0  0  0  0  0  0  0  0  0  0
    2.7845    4.8229    0.0000 C   0  0  0  0  0  0  0  0  0  0  0  0
    3.4990    3.5854    0.0000 C   0  0  0  0  0  0  0  0  0  0  0  0
    1.3556    0.6979    0.0000 C   0  0  0  0  0  0  0  0  0  0  0  0
    1.3556    2.3479    0.0000 C   0  0  0  0  0  0  0  0  0  0  0  0
    2.0701    4.4104    0.0000 C   0  0  0  0  0  0  0  0  0  0  0  0
    2.0701    1.1104    0.0000 C   0  0  0  0  0  0  0  0  0  0  0  0
    0.6411    1.1104    0.0000 C   0  0  0  0  0  0  0  0  0  0  0  0
    0.6411    1.9354    0.0000 C   0  0  0  0  0  0  0  0  0  0  0  0
    2.7845    3.1729    0.0000 C   0  0  0  0  0  0  0  0  0  0  0  0
    2.0701    1.9354    0.0000 C   0  0  0  0  0  0  0  0  0  0  0  0
    2.0701    3.5854    0.0000 C   0  0  0  0  0  0  0  0  0  0  0  0
   -0.6284    1.5229    0.0000 C   0  0  0  0  0  0  0  0  0  0  0  0
    1.3556    4.8229    0.0000 Cl  0  0  0  0  0  0  0  0  0  0  0  0
    2.7845    0.6979    0.0000 Cl  0  0  0  0  0  0  0  0  0  0  0  0
    1.3556    3.1729    0.0000 Cl  0  0  0  0  0  0  0  0  0  0  0  0
   -0.1435    0.8555    0.0000 N   0  0  0  0  0  0  0  0  0  0  0  0
   -0.1435    2.1904    0.0000 N   0  0  0  0  0  0  0  0  0  0  0  0
    2.7845    2.3479    0.0000 O   0  0  0  0  0  0  0  0  0  0  0  0
   -1.4534    1.5229    0.0000 S   0  0  0  0  0  0  0  0  0  0  0  0
  3  2  2  0  0  0  0
  4  2  1  0  0  0  0
  7  3  1  0  0  0  0
  8  5  2  0  0  0  0
  9  5  1  0  0  0  0
 10  6  1  0  0  0  0
 10  9  2  0  0  0  0
 11  4  2  0  0  0  0
 12  6  2  0  0  0  0
 12  8  1  0  0  0  0
 13  7  2  0  0  0  0
 13 11  1  0  0  0  0
 15  7  1  0  0  0  0
 16  8  1  0  0  0  0
 17 13  1  0  0  0  0
 18  9  1  0  0  0  0
 18 14  1  0  0  0  0
 19 10  1  0  0  0  0
 19 14  2  0  0  0  0
 20 11  1  0  0  0  0
 20 12  1  0  0  0  0
 21  1  1  0  0  0  0
 21 14  1  0  0  0  0
M  END
> <DATABASE_ID>
DB12245

> <DATABASE_NAME>
drugbank

> <SMILES>
CSC1=NC2=C(N1)C=C(Cl)C(OC1=CC=CC(Cl)=C1Cl)=C2

> <INCHI_IDENTIFIER>
InChI=1S/C14H9Cl3N2OS/c1-21-14-18-9-5-8(16)12(6-10(9)19-14)20-11-4-2-3-7(15)13(11)17/h2-6H,1H3,(H,18,19)

> <INCHI_KEY>
NQPDXQQQCQDHHW-UHFFFAOYSA-N

> <FORMULA>
C14H9Cl3N2OS

> <MOLECULAR_WEIGHT>
359.65

> <EXACT_MASS>
357.9501172

> <JCHEM_ACCEPTOR_COUNT>
1

> <JCHEM_ATOM_COUNT>
30

> <JCHEM_AVERAGE_POLARIZABILITY>
34.01811180668874

> <JCHEM_BIOAVAILABILITY>
1

> <JCHEM_DONOR_COUNT>
1

> <JCHEM_FORMAL_CHARGE>
0

> <JCHEM_GHOSE_FILTER>
0

> <JCHEM_IUPAC>
6-chloro-5-(2,3-dichlorophenoxy)-2-(methylsulfanyl)-1H-1,3-benzodiazole

> <ALOGPS_LOGP>
5.50

> <JCHEM_LOGP>
5.8843923543333325

> <ALOGPS_LOGS>
-5.85

> <JCHEM_MDDR_LIKE_RULE>
0

> <JCHEM_NUMBER_OF_RINGS>
3

> <JCHEM_PHYSIOLOGICAL_CHARGE>
0

> <JCHEM_PKA_STRONGEST_ACIDIC>
10.456478383138528

> <JCHEM_PKA_STRONGEST_BASIC>
4.54357029345663

> <JCHEM_POLAR_SURFACE_AREA>
37.91

> <JCHEM_REFRACTIVITY>
87.85589999999999

> <JCHEM_ROTATABLE_BOND_COUNT>
3

> <JCHEM_RULE_OF_FIVE>
0

> <ALOGPS_SOLUBILITY>
5.08e-04 g/l

> <JCHEM_TRADITIONAL_IUPAC>
triclabendazole

> <JCHEM_VEBER_RULE>
1

> <DRUGBANK_ID>
DB12245

> <DRUG_GROUPS>
approved; investigational

> <GENERIC_NAME>
Triclabendazole

> <SYNONYMS>
Triclabendazole

> <PRODUCTS>
Egaten

> <INTERNATIONAL_BRANDS>
Fasinex

$$$$
