
  Mrv1909 01172004252D          

 97103  0  0  0  0            999 V2000
   -1.9838   -3.2146    0.0000 N   0  0  0  0  0  0  0  0  0  0  0  0
   -2.6417   -2.7170    0.0000 C   0  0  0  0  0  0  0  0  0  0  0  0
   -2.5397   -1.8985    0.0000 O   0  0  0  0  0  0  0  0  0  0  0  0
   -3.4015   -3.0380    0.0000 C   0  0  2  0  0  0  0  0  0  0  0  0
   -3.4653   -3.8628    0.0000 C   0  0  0  0  0  0  0  0  0  0  0  0
   -4.3568   -3.9236    0.0000 C   0  0  0  0  0  0  0  0  0  0  0  0
   -4.6912   -3.0949    0.0000 C   0  0  0  0  0  0  0  0  0  0  0  0
   -4.0122   -2.5295    0.0000 N   0  0  0  0  0  0  0  0  0  0  0  0
   -4.0122   -1.7046    0.0000 C   0  0  0  0  0  0  0  0  0  0  0  0
   -3.2978   -1.2921    0.0000 O   0  0  0  0  0  0  0  0  0  0  0  0
   -4.7266   -1.2921    0.0000 C   0  0  2  0  0  0  0  0  0  0  0  0
   -4.7266   -0.4671    0.0000 C   0  0  0  0  0  0  0  0  0  0  0  0
   -4.0122   -0.0548    0.0000 C   0  0  0  0  0  0  0  0  0  0  0  0
   -4.0122    0.7700    0.0000 C   0  0  0  0  0  0  0  0  0  0  0  0
   -3.2978    1.1825    0.0000 N   0  0  0  0  0  0  0  0  0  0  0  0
   -3.2978    2.0075    0.0000 C   0  0  0  0  0  0  0  0  0  0  0  0
   -2.5835    2.4198    0.0000 N   0  0  0  0  0  0  0  0  0  0  0  0
   -4.0122    2.4198    0.0000 N   0  0  0  0  0  0  0  0  0  0  0  0
   -5.4409   -1.7046    0.0000 N   0  0  0  0  0  0  0  0  0  0  0  0
   -6.1554   -1.2921    0.0000 C   0  0  0  0  0  0  0  0  0  0  0  0
   -6.8698   -1.7046    0.0000 O   0  0  0  0  0  0  0  0  0  0  0  0
   -6.1554   -0.4671    0.0000 C   0  0  1  0  0  0  0  0  0  0  0  0
   -5.4409   -0.0548    0.0000 C   0  0  0  0  0  0  0  0  0  0  0  0
   -5.4409    0.7700    0.0000 C   0  0  0  0  0  0  0  0  0  0  0  0
   -6.1554    1.1825    0.0000 C   0  0  0  0  0  0  0  0  0  0  0  0
   -6.1554    2.0075    0.0000 N   0  0  0  0  0  0  0  0  0  0  0  0
   -6.8698    2.4198    0.0000 C   0  0  0  0  0  0  0  0  0  0  0  0
   -7.5842    2.0075    0.0000 N   0  0  0  0  0  0  0  0  0  0  0  0
   -6.8698    3.2447    0.0000 N   0  0  0  0  0  0  0  0  0  0  0  0
   -6.8698   -0.0548    0.0000 N   0  0  0  0  0  0  0  0  0  0  0  0
   -1.9311   -4.1092    0.0000 C   0  0  0  0  0  0  0  0  0  0  0  0
   -1.0671   -4.3382    0.0000 C   0  0  2  0  0  0  0  0  0  0  0  0
   -0.7700   -5.1077    0.0000 O   0  0  0  0  0  0  0  0  0  0  0  0
   -0.5813   -3.5883    0.0000 C   0  0  0  0  0  0  0  0  0  0  0  0
   -1.2036   -3.0427    0.0000 C   0  0  1  0  0  0  0  0  0  0  0  0
   -0.6263   -2.4534    0.0000 C   0  0  0  0  0  0  0  0  0  0  0  0
    0.1726   -2.6587    0.0000 O   0  0  0  0  0  0  0  0  0  0  0  0
   -0.2565   -1.0734    0.0000 C   0  0  0  0  0  0  0  0  0  0  0  0
    0.1132    0.3067    0.0000 N   0  0  0  0  0  0  0  0  0  0  0  0
    0.9100    0.0933    0.0000 C   0  0  1  0  0  0  0  0  0  0  0  0
    1.1235   -0.7035    0.0000 C   0  0  0  0  0  0  0  0  0  0  0  0
    1.9203   -0.9170    0.0000 C   0  0  0  0  0  0  0  0  0  0  0  0
    2.5641   -0.3960    0.0000 S   0  0  0  0  0  0  0  0  0  0  0  0
    3.2567   -0.8441    0.0000 C   0  0  0  0  0  0  0  0  0  0  0  0
    3.0412   -1.6450    0.0000 C   0  0  0  0  0  0  0  0  0  0  0  0
    2.2176   -1.6911    0.0000 C   0  0  0  0  0  0  0  0  0  0  0  0
    1.4933    0.6764    0.0000 C   0  0  0  0  0  0  0  0  0  0  0  0
    2.2901    0.4629    0.0000 O   0  0  0  0  0  0  0  0  0  0  0  0
    1.2797    1.4732    0.0000 N   0  0  0  0  0  0  0  0  0  0  0  0
    1.8631    2.0566    0.0000 C   0  0  1  0  0  0  0  0  0  0  0  0
    1.6496    2.8535    0.0000 C   0  0  0  0  0  0  0  0  0  0  0  0
    2.2328    3.4367    0.0000 O   0  0  0  0  0  0  0  0  0  0  0  0
    2.6599    1.8432    0.0000 C   0  0  0  0  0  0  0  0  0  0  0  0
    3.2432    2.4264    0.0000 N   0  0  0  0  0  0  0  0  0  0  0  0
    4.1089    2.1967    0.0000 C   0  0  2  0  0  0  0  0  0  0  0  0
    4.7454    2.8287    0.0000 C   0  0  0  0  0  0  0  0  0  0  0  0
    4.5131    3.7049    0.0000 C   0  0  0  0  0  0  0  0  0  0  0  0
    3.6450    3.9349    0.0000 C   0  0  0  0  0  0  0  0  0  0  0  0
    3.0118    3.2987    0.0000 C   0  0  0  0  0  0  0  0  0  0  0  0
    3.4190    4.8005    0.0000 C   0  0  0  0  0  0  0  0  0  0  0  0
    4.0530    5.4259    0.0000 C   0  0  0  0  0  0  0  0  0  0  0  0
    4.9245    5.1950    0.0000 C   0  0  0  0  0  0  0  0  0  0  0  0
    5.1497    4.3244    0.0000 C   0  0  0  0  0  0  0  0  0  0  0  0
    3.5262    1.6130    0.0000 H   0  0  0  0  0  0  0  0  0  0  0  0
    4.3219    1.3999    0.0000 C   0  0  0  0  0  0  0  0  0  0  0  0
    3.7383    0.8169    0.0000 O   0  0  0  0  0  0  0  0  0  0  0  0
    5.1185    1.1859    0.0000 N   0  0  0  0  0  0  0  0  0  0  0  0
    5.4410    0.3483    0.0000 C   0  0  2  0  0  0  0  0  0  0  0  0
    5.4410   -0.4765    0.0000 C   0  0  0  0  0  0  0  0  0  0  0  0
    4.7267   -0.8891    0.0000 O   0  0  0  0  0  0  0  0  0  0  0  0
    6.1554   -0.8891    0.0000 N   0  0  0  0  0  0  0  0  0  0  0  0
    6.1554   -1.7140    0.0000 C   0  0  1  0  0  0  0  0  0  0  0  0
    5.4410   -2.1263    0.0000 C   0  0  0  0  0  0  0  0  0  0  0  0
    5.4410   -2.9513    0.0000 C   0  0  0  0  0  0  0  0  0  0  0  0
    4.7267   -3.3638    0.0000 C   0  0  0  0  0  0  0  0  0  0  0  0
    4.7267   -4.1887    0.0000 N   0  0  0  0  0  0  0  0  0  0  0  0
    4.0123   -4.6011    0.0000 C   0  0  0  0  0  0  0  0  0  0  0  0
    4.0123   -5.4259    0.0000 N   0  0  0  0  0  0  0  0  0  0  0  0
    3.2979   -4.1887    0.0000 N   0  0  0  0  0  0  0  0  0  0  0  0
    6.8699   -2.1263    0.0000 C   0  0  0  0  0  0  0  0  0  0  0  0
    6.8699   -2.9513    0.0000 O   0  0  0  0  0  0  0  0  0  0  0  0
    7.5843   -1.7140    0.0000 O   0  0  0  0  0  0  0  0  0  0  0  0
    4.7267   -0.0642    0.0000 H   0  0  0  0  0  0  0  0  0  0  0  0
    6.3426    0.3483    0.0000 C   0  0  0  0  0  0  0  0  0  0  0  0
    6.5795    1.2727    0.0000 C   0  0  2  0  0  0  0  0  0  0  0  0
    7.3721    1.6671    0.0000 C   0  0  0  0  0  0  0  0  0  0  0  0
    7.3721    2.5594    0.0000 C   0  0  0  0  0  0  0  0  0  0  0  0
    6.6602    3.0424    0.0000 C   0  0  0  0  0  0  0  0  0  0  0  0
    5.8227    2.6455    0.0000 C   0  0  0  0  0  0  0  0  0  0  0  0
    5.8227    1.7537    0.0000 C   0  0  2  0  0  0  0  0  0  0  0  0
    5.1084    2.1662    0.0000 H   0  0  0  0  0  0  0  0  0  0  0  0
    7.2179    0.7503    0.0000 H   0  0  0  0  0  0  0  0  0  0  0  0
    2.8734    1.0464    0.0000 O   0  0  0  0  0  0  0  0  0  0  0  0
   -1.2667   -0.0630    0.0000 O   0  0  0  0  0  0  0  0  0  0  0  0
   -0.8398   -1.6565    0.0000 N   0  0  0  0  0  0  0  0  0  0  0  0
   -0.4700   -0.2766    0.0000 C   0  0  0  0  0  0  0  0  0  0  0  0
   -1.4252   -2.2480    0.0000 H   0  0  0  0  0  0  0  0  0  0  0  0
  2  1  1  0  0  0  0
  2  3  2  0  0  0  0
  4  2  1  6  0  0  0
  4  5  1  0  0  0  0
  6  5  1  0  0  0  0
  7  6  1  0  0  0  0
  7  8  1  0  0  0  0
  9  8  1  0  0  0  0
  9 10  2  0  0  0  0
 11  9  1  0  0  0  0
 11 12  1  1  0  0  0
 12 13  1  0  0  0  0
 13 14  1  0  0  0  0
 14 15  1  0  0  0  0
 15 16  1  0  0  0  0
 16 17  2  0  0  0  0
 16 18  1  0  0  0  0
 19 11  1  0  0  0  0
 20 19  1  0  0  0  0
 20 21  2  0  0  0  0
 22 20  1  0  0  0  0
 22 23  1  6  0  0  0
 23 24  1  0  0  0  0
 24 25  1  0  0  0  0
 25 26  1  0  0  0  0
 26 27  1  0  0  0  0
 27 28  2  0  0  0  0
 27 29  1  0  0  0  0
 30 22  1  0  0  0  0
  8  4  1  0  0  0  0
 31  1  1  0  0  0  0
 31 32  1  0  0  0  0
 32 33  1  1  0  0  0
 32 34  1  0  0  0  0
 35 34  1  0  0  0  0
  1 35  1  0  0  0  0
 35 36  1  6  0  0  0
 36 37  2  0  0  0  0
 36 95  1  0  0  0  0
 95 38  1  0  0  0  0
 38 96  1  0  0  0  0
 96 39  1  0  0  0  0
 40 39  1  6  0  0  0
 40 41  1  0  0  0  0
 41 42  1  0  0  0  0
 42 43  1  0  0  0  0
 43 44  1  0  0  0  0
 44 45  2  0  0  0  0
 45 46  1  0  0  0  0
 46 42  2  0  0  0  0
 40 47  1  0  0  0  0
 47 48  2  0  0  0  0
 47 49  1  0  0  0  0
 50 49  1  1  0  0  0
 50 51  1  0  0  0  0
 51 52  1  0  0  0  0
 50 53  1  0  0  0  0
 53 54  1  0  0  0  0
 54 55  1  0  0  0  0
 55 56  1  0  0  0  0
 56 57  1  0  0  0  0
 58 57  2  0  0  0  0
 59 58  1  0  0  0  0
 59 54  1  0  0  0  0
 60 58  1  0  0  0  0
 61 60  2  0  0  0  0
 62 61  1  0  0  0  0
 63 62  2  0  0  0  0
 57 63  1  0  0  0  0
 55 64  1  1  0  0  0
 55 65  1  0  0  0  0
 65 66  2  0  0  0  0
 65 67  1  0  0  0  0
 67 68  1  0  0  0  0
 68 69  1  1  0  0  0
 69 70  2  0  0  0  0
 69 71  1  0  0  0  0
 72 71  1  6  0  0  0
 72 73  1  0  0  0  0
 73 74  1  0  0  0  0
 74 75  1  0  0  0  0
 75 76  1  0  0  0  0
 76 77  1  0  0  0  0
 77 78  2  0  0  0  0
 77 79  1  0  0  0  0
 72 80  1  0  0  0  0
 80 81  1  0  0  0  0
 80 82  2  0  0  0  0
 68 83  1  6  0  0  0
 68 84  1  0  0  0  0
 84 85  1  0  0  0  0
 85 86  1  0  0  0  0
 86 87  1  0  0  0  0
 87 88  1  0  0  0  0
 88 89  1  0  0  0  0
 89 90  1  0  0  0  0
 90 91  1  6  0  0  0
 90 85  1  0  0  0  0
 90 67  1  0  0  0  0
 85 92  1  6  0  0  0
 53 93  2  0  0  0  0
 96 94  2  0  0  0  0
 35 97  1  1  0  0  0
M  END
> <DATABASE_ID>
DB06196

> <DATABASE_NAME>
drugbank

> <SMILES>
[H][C@]12C[C@]([H])(N(C(=O)[C@@]3([H])CC4=C(CN3C(=O)[C@H](CO)NC(=O)[C@H](CC3=CC=CS3)NC(=O)CNC(=O)[C@]3([H])C[C@@H](O)CN3C(=O)[C@@H]3CCCN3C(=O)[C@H](CCCNC(N)=N)NC(=O)[C@H](N)CCCNC(N)=N)C=CC=C4)[C@@]1([H])CCCC2)C(=O)N[C@@H](CCCNC(N)=N)C(O)=O

> <INCHI_IDENTIFIER>
InChI=1S/C59H89N19O13S/c60-37(14-5-19-67-57(61)62)48(82)72-38(15-6-20-68-58(63)64)52(86)75-22-8-18-43(75)54(88)77-30-35(80)26-44(77)50(84)70-28-47(81)71-40(27-36-13-9-23-92-36)49(83)74-41(31-79)53(87)76-29-34-12-2-1-10-32(34)24-46(76)55(89)78-42-17-4-3-11-33(42)25-45(78)51(85)73-39(56(90)91)16-7-21-69-59(65)66/h1-2,9-10,12-13,23,33,35,37-46,79-80H,3-8,11,14-22,24-31,60H2,(H,70,84)(H,71,81)(H,72,82)(H,73,85)(H,74,83)(H,90,91)(H4,61,62,67)(H4,63,64,68)(H4,65,66,69)/t33-,35+,37+,38-,39-,40-,41-,42-,43-,44-,45-,46+/m0/s1

> <INCHI_KEY>
QURWXBZNHXJZBE-SKXRKSCCSA-N

> <FORMULA>
C59H89N19O13S

> <MOLECULAR_WEIGHT>
1304.54

> <EXACT_MASS>
1303.660795176

> <JCHEM_ACCEPTOR_COUNT>
23

> <JCHEM_ATOM_COUNT>
181

> <JCHEM_AVERAGE_NEUTRAL_MICROSPECIES_CHARGE>
2.867051786558181

> <JCHEM_AVERAGE_POLARIZABILITY>
135.09823337352455

> <JCHEM_BIOAVAILABILITY>
0

> <JCHEM_DONOR_COUNT>
18

> <JCHEM_FORMAL_CHARGE>
0

> <JCHEM_GHOSE_FILTER>
0

> <JCHEM_IUPAC>
(2S)-2-{[(2S,3aS,7aS)-1-[(3R)-2-[(2S)-2-[(2S)-2-(2-{[(2S,4R)-1-[(2S)-1-[(2S)-2-[(2R)-2-amino-5-carbamimidamidopentanamido]-5-carbamimidamidopentanoyl]pyrrolidine-2-carbonyl]-4-hydroxypyrrolidin-2-yl]formamido}acetamido)-3-(thiophen-2-yl)propanamido]-3-hydroxypropanoyl]-1,2,3,4-tetrahydroisoquinoline-3-carbonyl]-octahydro-1H-indol-2-yl]formamido}-5-carbamimidamidopentanoic acid

> <ALOGPS_LOGP>
-2.17

> <JCHEM_LOGP>
-7.6640031383219505

> <ALOGPS_LOGS>
-4.56

> <JCHEM_MDDR_LIKE_RULE>
1

> <JCHEM_NEUTRAL_CHARGE>
3

> <JCHEM_NUMBER_OF_RINGS>
7

> <JCHEM_PHYSIOLOGICAL_CHARGE>
3

> <JCHEM_PKA_STRONGEST_ACIDIC>
3.46232269039359

> <JCHEM_PKA_STRONGEST_BASIC>
12.480342116837798

> <JCHEM_POLAR_SURFACE_AREA>
516.2199999999999

> <JCHEM_REFRACTIVITY>
363.7891

> <JCHEM_ROTATABLE_BOND_COUNT>
30

> <JCHEM_RULE_OF_FIVE>
0

> <ALOGPS_SOLUBILITY>
3.62e-02 g/l

> <JCHEM_TRADITIONAL_IUPAC>
bromopride

> <JCHEM_VEBER_RULE>
0

> <DRUGBANK_ID>
DB06196

> <DRUG_GROUPS>
approved; investigational

> <GENERIC_NAME>
Icatibant

> <SYNONYMS>
Icatibant

> <PRODUCTS>
Firazyr; Icatibant; Icatibant Accord; Sajazir

> <INTERNATIONAL_BRANDS>
Firazyr

> <SALTS>
Icatibant acetate

$$$$
