
  Mrv1652306231722462D          

 14 16  0  0  0  0            999 V2000
    4.7812    1.1104    0.0000 C   0  0  0  0  0  0  0  0  0  0  0  0
    4.7812    1.9354    0.0000 C   0  0  0  0  0  0  0  0  0  0  0  0
    4.0668    2.3479    0.0000 C   0  0  0  0  0  0  0  0  0  0  0  0
    3.3523    1.9354    0.0000 C   0  0  0  0  0  0  0  0  0  0  0  0
    3.3523    1.1104    0.0000 C   0  0  0  0  0  0  0  0  0  0  0  0
    2.6378    0.6979    0.0000 C   0  0  0  0  0  0  0  0  0  0  0  0
    1.9233    1.1104    0.0000 C   0  0  0  0  0  0  0  0  0  0  0  0
    1.9233    1.9354    0.0000 C   0  0  0  0  0  0  0  0  0  0  0  0
    2.6378    2.3479    0.0000 N   0  0  0  0  0  0  0  0  0  0  0  0
    1.1387    2.1904    0.0000 C   0  0  0  0  0  0  0  0  0  0  0  0
    0.6538    1.5229    0.0000 C   0  0  0  0  0  0  0  0  0  0  0  0
    1.1387    0.8555    0.0000 C   0  0  0  0  0  0  0  0  0  0  0  0
    2.6378   -0.1271    0.0000 N   0  0  0  0  0  0  0  0  0  0  0  0
    4.0668    0.6979    0.0000 C   0  0  0  0  0  0  0  0  0  0  0  0
  1  2  1  0  0  0  0
  2  3  1  0  0  0  0
  3  4  1  0  0  0  0
  4  5  2  0  0  0  0
  5  6  1  0  0  0  0
  6  7  2  0  0  0  0
  7  8  1  0  0  0  0
  8  9  2  0  0  0  0
  4  9  1  0  0  0  0
  8 10  1  0  0  0  0
 10 11  1  0  0  0  0
 11 12  1  0  0  0  0
  7 12  1  0  0  0  0
  6 13  1  0  0  0  0
  5 14  1  0  0  0  0
  1 14  1  0  0  0  0
M  END
> <DATABASE_ID>
DB13668

> <DATABASE_NAME>
drugbank

> <SMILES>
NC1=C2CCCC2=NC2=C1CCCC2

> <INCHI_IDENTIFIER>
InChI=1S/C12H16N2/c13-12-8-4-1-2-6-10(8)14-11-7-3-5-9(11)12/h1-7H2,(H2,13,14)

> <INCHI_KEY>
YLUSMKAJIQOXPV-UHFFFAOYSA-N

> <FORMULA>
C12H16N2

> <MOLECULAR_WEIGHT>
188.274

> <EXACT_MASS>
188.131348523

> <JCHEM_ACCEPTOR_COUNT>
2

> <JCHEM_ATOM_COUNT>
30

> <JCHEM_AVERAGE_POLARIZABILITY>
22.286529422110767

> <JCHEM_BIOAVAILABILITY>
1

> <JCHEM_DONOR_COUNT>
1

> <JCHEM_FORMAL_CHARGE>
0

> <JCHEM_GHOSE_FILTER>
1

> <JCHEM_IUPAC>
1H,2H,3H,5H,6H,7H,8H-cyclopenta[b]quinolin-9-amine

> <ALOGPS_LOGP>
2.52

> <JCHEM_LOGP>
2.134419105333333

> <ALOGPS_LOGS>
-2.07

> <JCHEM_MDDR_LIKE_RULE>
0

> <JCHEM_NUMBER_OF_RINGS>
3

> <JCHEM_PHYSIOLOGICAL_CHARGE>
1

> <JCHEM_PKA_STRONGEST_BASIC>
9.720842554903816

> <JCHEM_POLAR_SURFACE_AREA>
38.91

> <JCHEM_REFRACTIVITY>
58.1173

> <JCHEM_ROTATABLE_BOND_COUNT>
0

> <JCHEM_RULE_OF_FIVE>
1

> <ALOGPS_SOLUBILITY>
1.58e+00 g/l

> <JCHEM_TRADITIONAL_IUPAC>
1H,2H,3H,5H,6H,7H,8H-cyclopenta[b]quinolin-9-amine

> <JCHEM_VEBER_RULE>
1

> <DRUGBANK_ID>
DB13668

> <DRUG_GROUPS>
experimental

> <GENERIC_NAME>
Ipidacrine

> <SYNONYMS>
Ipidacrine

$$$$
