
  Mrv1902 03111916192D          

 29 32  0  0  0  0            999 V2000
   -2.3808   -1.0027    0.0000 N   0  0  0  0  0  0  0  0  0  0  0  0
   -2.9310   -0.3896    0.0000 C   0  0  0  0  0  0  0  0  0  0  0  0
    4.0828    0.1775    0.0000 C   0  0  0  0  0  0  0  0  0  0  0  0
   -2.5183    0.3323    0.0000 O   0  0  0  0  0  0  0  0  0  0  0  0
   -1.6302   -0.6647    0.0000 C   0  0  0  0  0  0  0  0  0  0  0  0
    4.8391    0.5100    0.0000 C   0  0  0  0  0  0  0  0  0  0  0  0
    4.1801   -0.6475    0.0000 C   0  0  0  0  0  0  0  0  0  0  0  0
    5.3892   -0.0973    0.0000 N   0  0  0  0  0  0  0  0  0  0  0  0
   -1.7104    0.1603    0.0000 C   0  0  0  0  0  0  0  0  0  0  0  0
    4.9767   -0.8136    0.0000 O   0  0  0  0  0  0  0  0  0  0  0  0
    3.3607    0.5787    0.0000 C   0  0  0  0  0  0  0  0  0  0  0  0
   -3.7447   -0.4756    0.0000 C   0  0  0  0  0  0  0  0  0  0  0  0
    5.0052    1.3179    0.0000 O   0  0  0  0  0  0  0  0  0  0  0  0
    3.5670   -1.1976    0.0000 O   0  0  0  0  0  0  0  0  0  0  0  0
   -0.9197   -1.0772    0.0000 C   0  0  0  0  0  0  0  0  0  0  0  0
    2.6559    0.1603    0.0000 C   0  0  0  0  0  0  0  0  0  0  0  0
    1.2291   -0.6647    0.0000 C   0  0  0  0  0  0  0  0  0  0  0  0
   -0.2034   -0.6647    0.0000 C   0  0  0  0  0  0  0  0  0  0  0  0
    2.6559   -0.6647    0.0000 C   0  0  0  0  0  0  0  0  0  0  0  0
    1.9339    0.5730    0.0000 C   0  0  0  0  0  0  0  0  0  0  0  0
    1.9339   -1.0772    0.0000 C   0  0  0  0  0  0  0  0  0  0  0  0
    1.2291    0.1603    0.0000 C   0  0  0  0  0  0  0  0  0  0  0  0
    0.5071   -1.0772    0.0000 O   0  0  0  0  0  0  0  0  0  0  0  0
   -1.0974    0.7105    0.0000 C   0  0  0  0  0  0  0  0  0  0  0  0
   -4.0828   -1.2262    0.0000 C   0  0  0  0  0  0  0  0  0  0  0  0
   -4.2374    0.1948    0.0000 C   0  0  0  0  0  0  0  0  0  0  0  0
   -5.0511    0.1088    0.0000 C   0  0  0  0  0  0  0  0  0  0  0  0
   -4.8965   -1.3179    0.0000 C   0  0  0  0  0  0  0  0  0  0  0  0
   -5.3892   -0.6475    0.0000 C   0  0  0  0  0  0  0  0  0  0  0  0
  2  1  2  0  0  0  0
  3 11  1  0  0  0  0
  4  2  1  0  0  0  0
  5  1  1  0  0  0  0
  6  3  1  0  0  0  0
  7  3  1  0  0  0  0
  8  6  1  0  0  0  0
  9  5  2  0  0  0  0
 10  7  1  0  0  0  0
 11 16  1  0  0  0  0
 12  2  1  0  0  0  0
 13  6  2  0  0  0  0
 14  7  2  0  0  0  0
 15  5  1  0  0  0  0
 16 20  2  0  0  0  0
 17 23  1  0  0  0  0
 18 15  1  0  0  0  0
 19 21  2  0  0  0  0
 20 22  1  0  0  0  0
 21 17  1  0  0  0  0
 22 17  2  0  0  0  0
 23 18  1  0  0  0  0
 24  9  1  0  0  0  0
 25 12  1  0  0  0  0
 26 12  2  0  0  0  0
 27 26  1  0  0  0  0
 28 25  2  0  0  0  0
 29 27  2  0  0  0  0
  9  4  1  0  0  0  0
 29 28  1  0  0  0  0
 16 19  1  0  0  0  0
  8 10  1  0  0  0  0
M  END
> <DATABASE_ID>
DB04971

> <DATABASE_NAME>
drugbank

> <SMILES>
CC1=C(CCOC2=CC=C(CC3C(=O)NOC3=O)C=C2)N=C(O1)C1=CC=CC=C1

> <INCHI_IDENTIFIER>
InChI=1S/C22H20N2O5/c1-14-19(23-21(28-14)16-5-3-2-4-6-16)11-12-27-17-9-7-15(8-10-17)13-18-20(25)24-29-22(18)26/h2-10,18H,11-13H2,1H3,(H,24,25)

> <INCHI_KEY>
QBQLYIISSRXYKL-UHFFFAOYSA-N

> <FORMULA>
C22H20N2O5

> <MOLECULAR_WEIGHT>
392.411

> <EXACT_MASS>
392.137221752

> <JCHEM_ACCEPTOR_COUNT>
4

> <JCHEM_ATOM_COUNT>
49

> <JCHEM_AVERAGE_POLARIZABILITY>
41.31536853645733

> <JCHEM_BIOAVAILABILITY>
1

> <JCHEM_DONOR_COUNT>
1

> <JCHEM_FORMAL_CHARGE>
0

> <JCHEM_GHOSE_FILTER>
1

> <JCHEM_IUPAC>
4-({4-[2-(5-methyl-2-phenyl-1,3-oxazol-4-yl)ethoxy]phenyl}methyl)-1,2-oxazolidine-3,5-dione

> <ALOGPS_LOGP>
3.85

> <JCHEM_LOGP>
3.3978654190000004

> <ALOGPS_LOGS>
-4.21

> <JCHEM_MDDR_LIKE_RULE>
1

> <JCHEM_NUMBER_OF_RINGS>
4

> <JCHEM_PHYSIOLOGICAL_CHARGE>
0

> <JCHEM_PKA>
9.978211537122206

> <JCHEM_PKA_STRONGEST_ACIDIC>
9.650723237400104

> <JCHEM_PKA_STRONGEST_BASIC>
0.93306425546629

> <JCHEM_POLAR_SURFACE_AREA>
90.66000000000001

> <JCHEM_REFRACTIVITY>
114.56660000000004

> <JCHEM_ROTATABLE_BOND_COUNT>
7

> <JCHEM_RULE_OF_FIVE>
1

> <ALOGPS_SOLUBILITY>
2.44e-02 g/l

> <JCHEM_TRADITIONAL_IUPAC>
nomifensine maleate

> <JCHEM_VEBER_RULE>
0

> <DRUGBANK_ID>
DB04971

> <DRUG_GROUPS>
investigational

> <GENERIC_NAME>
Reglitazar

> <SYNONYMS>
Reglitazar; Reglixane

$$$$
