
  Mrv1572001261616582D          

 17 17  0  0  0  0            999 V2000
   -1.2375   -0.9355    0.0000 C   0  0  0  0  0  0  0  0  0  0  0  0
   -0.0000   -3.0789    0.0000 C   0  0  0  0  0  0  0  0  0  0  0  0
    1.4289   -0.0000    0.0000 C   0  0  0  0  0  0  0  0  0  0  0  0
    0.0000   -0.0000    0.0000 C   0  0  0  0  0  0  0  0  0  0  0  0
    1.4289    0.8250    0.0000 C   0  0  0  0  0  0  0  0  0  0  0  0
    0.0000    0.8250    0.0000 C   0  0  0  0  0  0  0  0  0  0  0  0
    0.7145   -0.4125    0.0000 C   0  0  0  0  0  0  0  0  0  0  0  0
    0.7145    1.2375    0.0000 C   0  0  0  0  0  0  0  0  0  0  0  0
    0.7145    2.8875    0.0000 N   0  0  0  0  0  0  0  0  0  0  0  0
    1.5395    2.0625    0.0000 O   0  0  0  0  0  0  0  0  0  0  0  0
   -0.1105    2.0625    0.0000 O   0  0  0  0  0  0  0  0  0  0  0  0
   -0.4125   -0.9355    0.0000 O   0  0  0  0  0  0  0  0  0  0  0  0
    0.4125   -2.3645    0.0000 O   0  0  0  0  0  0  0  0  0  0  0  0
    0.7145   -1.2375    0.0000 O   0  0  0  0  0  0  0  0  0  0  0  0
   -0.0000   -1.6500    0.0000 P   0  0  0  0  0  0  0  0  0  0  0  0
   -0.7145   -2.0625    0.0000 S   0  0  0  0  0  0  0  0  0  0  0  0
    0.7145    2.0625    0.0000 S   0  0  0  0  0  0  0  0  0  0  0  0
  5  3  1  0  0  0  0
  6  4  2  0  0  0  0
  7  3  2  0  0  0  0
  7  4  1  0  0  0  0
  8  5  2  0  0  0  0
  8  6  1  0  0  0  0
 12  1  1  0  0  0  0
 13  2  1  0  0  0  0
 14  7  1  0  0  0  0
 15 12  1  0  0  0  0
 15 13  1  0  0  0  0
 15 14  1  0  0  0  0
 16 15  2  0  0  0  0
 17  8  1  0  0  0  0
 17  9  1  0  0  0  0
 17 10  2  0  0  0  0
 17 11  2  0  0  0  0
M  END
> <DATABASE_ID>
DB11392

> <DATABASE_NAME>
drugbank

> <SMILES>
COP(=S)(OC)OC1=CC=C(C=C1)S(N)(=O)=O

> <INCHI_IDENTIFIER>
InChI=1S/C8H12NO5PS2/c1-12-15(16,13-2)14-7-3-5-8(6-4-7)17(9,10)11/h3-6H,1-2H3,(H2,9,10,11)

> <INCHI_KEY>
BSBSDQUZDZXGFN-UHFFFAOYSA-N

> <FORMULA>
C8H12NO5PS2

> <MOLECULAR_WEIGHT>
297.28

> <EXACT_MASS>
296.989451836

> <JCHEM_ACCEPTOR_COUNT>
2

> <JCHEM_ATOM_COUNT>
29

> <JCHEM_AVERAGE_POLARIZABILITY>
26.088867116728984

> <JCHEM_BIOAVAILABILITY>
1

> <JCHEM_DONOR_COUNT>
1

> <JCHEM_FORMAL_CHARGE>
0

> <JCHEM_GHOSE_FILTER>
1

> <JCHEM_IUPAC>
O,O-dimethyl O-4-sulfamoylphenyl phosphorothioate

> <ALOGPS_LOGP>
1.92

> <JCHEM_LOGP>
1.2676371480000004

> <ALOGPS_LOGS>
-2.78

> <JCHEM_MDDR_LIKE_RULE>
0

> <JCHEM_NUMBER_OF_RINGS>
1

> <JCHEM_PHYSIOLOGICAL_CHARGE>
0

> <JCHEM_PKA_STRONGEST_ACIDIC>
10.27380911039557

> <JCHEM_POLAR_SURFACE_AREA>
87.85000000000001

> <JCHEM_REFRACTIVITY>
68.02520000000001

> <JCHEM_ROTATABLE_BOND_COUNT>
5

> <JCHEM_RULE_OF_FIVE>
1

> <ALOGPS_SOLUBILITY>
4.88e-01 g/l

> <JCHEM_TRADITIONAL_IUPAC>
proban

> <JCHEM_VEBER_RULE>
0

> <DRUGBANK_ID>
DB11392

> <DRUG_GROUPS>
vet_approved

> <GENERIC_NAME>
Cythioate

> <INTERNATIONAL_BRANDS>
Proban

$$$$
