
  Mrv1652301201722152D          

 35 39  0  0  0  0            999 V2000
    0.9920    6.1875    0.0000 C   0  0  0  0  0  0  0  0  0  0  0  0
    0.9920    5.3625    0.0000 N   0  0  0  0  0  0  0  0  0  0  0  0
    1.7064    4.9500    0.0000 C   0  0  0  0  0  0  0  0  0  0  0  0
    1.7064    4.1250    0.0000 C   0  0  0  0  0  0  0  0  0  0  0  0
    0.9920    3.7125    0.0000 N   0  0  0  0  0  0  0  0  0  0  0  0
    0.2775    4.1250    0.0000 C   0  0  0  0  0  0  0  0  0  0  0  0
    0.2775    4.9500    0.0000 C   0  0  0  0  0  0  0  0  0  0  0  0
    0.9920    2.8875    0.0000 C   0  0  0  0  0  0  0  0  0  0  0  0
    1.7064    2.4750    0.0000 C   0  0  0  0  0  0  0  0  0  0  0  0
    1.7064    1.6500    0.0000 C   0  0  0  0  0  0  0  0  0  0  0  0
    0.9920    1.2375    0.0000 C   0  0  0  0  0  0  0  0  0  0  0  0
    0.9920    0.4125    0.0000 N   0  0  0  0  0  0  0  0  0  0  0  0
    0.2775    0.0000    0.0000 C   0  0  0  0  0  0  0  0  0  0  0  0
    0.2775   -0.8250    0.0000 N   0  0  0  0  0  0  0  0  0  0  0  0
   -0.4369   -1.2375    0.0000 C   0  0  0  0  0  0  0  0  0  0  0  0
   -0.4369   -2.0625    0.0000 O   0  0  0  0  0  0  0  0  0  0  0  0
    0.2775   -2.4750    0.0000 C   0  0  0  0  0  0  0  0  0  0  0  0
    0.9920   -2.0625    0.0000 C   0  0  0  0  0  0  0  0  0  0  0  0
    1.7064   -2.4750    0.0000 C   0  0  0  0  0  0  0  0  0  0  0  0
    1.7064   -3.3000    0.0000 C   0  0  0  0  0  0  0  0  0  0  0  0
    0.9920   -3.7125    0.0000 C   0  0  0  0  0  0  0  0  0  0  0  0
    0.9920   -4.5375    0.0000 N   0  0  0  0  0  0  0  0  0  0  0  0
    1.7064   -4.9500    0.0000 C   0  0  0  0  0  0  0  0  0  0  0  0
    2.4209   -4.5375    0.0000 O   0  0  0  0  0  0  0  0  0  0  0  0
    1.7064   -5.7750    0.0000 C   0  0  0  0  0  0  0  0  0  0  0  0
    2.4209   -6.1875    0.0000 C   0  0  0  0  0  0  0  0  0  0  0  0
    0.2775   -3.3000    0.0000 C   0  0  0  0  0  0  0  0  0  0  0  0
   -1.1514   -0.8250    0.0000 C   0  0  0  0  0  0  0  0  0  0  0  0
   -1.9360   -1.0799    0.0000 S   0  0  0  0  0  0  0  0  0  0  0  0
   -2.4209   -0.4125    0.0000 C   0  0  0  0  0  0  0  0  0  0  0  0
   -1.9360    0.2549    0.0000 C   0  0  0  0  0  0  0  0  0  0  0  0
   -1.1514    0.0000    0.0000 C   0  0  0  0  0  0  0  0  0  0  0  0
   -0.4369    0.4125    0.0000 N   0  0  0  0  0  0  0  0  0  0  0  0
    0.2775    1.6500    0.0000 C   0  0  0  0  0  0  0  0  0  0  0  0
    0.2775    2.4750    0.0000 C   0  0  0  0  0  0  0  0  0  0  0  0
  1  2  1  0  0  0  0
  2  3  1  0  0  0  0
  3  4  1  0  0  0  0
  4  5  1  0  0  0  0
  5  6  1  0  0  0  0
  6  7  1  0  0  0  0
  2  7  1  0  0  0  0
  5  8  1  0  0  0  0
  8  9  2  0  0  0  0
  9 10  1  0  0  0  0
 10 11  2  0  0  0  0
 11 12  1  0  0  0  0
 12 13  1  0  0  0  0
 13 14  2  0  0  0  0
 14 15  1  0  0  0  0
 15 16  1  0  0  0  0
 16 17  1  0  0  0  0
 17 18  2  0  0  0  0
 18 19  1  0  0  0  0
 19 20  2  0  0  0  0
 20 21  1  0  0  0  0
 21 22  1  0  0  0  0
 22 23  1  0  0  0  0
 23 24  2  0  0  0  0
 23 25  1  0  0  0  0
 25 26  2  0  0  0  0
 21 27  2  0  0  0  0
 17 27  1  0  0  0  0
 15 28  2  0  0  0  0
 28 29  1  0  0  0  0
 29 30  1  0  0  0  0
 30 31  2  0  0  0  0
 31 32  1  0  0  0  0
 28 32  1  0  0  0  0
 32 33  2  0  0  0  0
 13 33  1  0  0  0  0
 11 34  1  0  0  0  0
 34 35  2  0  0  0  0
  8 35  1  0  0  0  0
M  END
> <DATABASE_ID>
DB13164

> <DATABASE_NAME>
drugbank

> <SMILES>
CN1CCN(CC1)C1=CC=C(NC2=NC(OC3=CC=CC(NC(=O)C=C)=C3)=C3SC=CC3=N2)C=C1

> <INCHI_IDENTIFIER>
InChI=1S/C26H26N6O2S/c1-3-23(33)27-19-5-4-6-21(17-19)34-25-24-22(11-16-35-24)29-26(30-25)28-18-7-9-20(10-8-18)32-14-12-31(2)13-15-32/h3-11,16-17H,1,12-15H2,2H3,(H,27,33)(H,28,29,30)

> <INCHI_KEY>
FDMQDKQUTRLUBU-UHFFFAOYSA-N

> <FORMULA>
C26H26N6O2S

> <MOLECULAR_WEIGHT>
486.59

> <EXACT_MASS>
486.183795275

> <JCHEM_ACCEPTOR_COUNT>
6

> <JCHEM_ATOM_COUNT>
61

> <JCHEM_AVERAGE_POLARIZABILITY>
53.20845497558544

> <JCHEM_BIOAVAILABILITY>
1

> <JCHEM_DONOR_COUNT>
2

> <JCHEM_FORMAL_CHARGE>
0

> <JCHEM_GHOSE_FILTER>
0

> <JCHEM_IUPAC>
N-{3-[(2-{[4-(4-methylpiperazin-1-yl)phenyl]amino}thieno[3,2-d]pyrimidin-4-yl)oxy]phenyl}prop-2-enamide

> <ALOGPS_LOGP>
5.22

> <JCHEM_LOGP>
5.474233900333334

> <ALOGPS_LOGS>
-4.79

> <JCHEM_MDDR_LIKE_RULE>
1

> <JCHEM_NUMBER_OF_RINGS>
5

> <JCHEM_PHYSIOLOGICAL_CHARGE>
1

> <JCHEM_PKA>
14.45282113967486

> <JCHEM_PKA_STRONGEST_ACIDIC>
13.84830371430349

> <JCHEM_PKA_STRONGEST_BASIC>
7.958210137355572

> <JCHEM_POLAR_SURFACE_AREA>
82.61999999999999

> <JCHEM_REFRACTIVITY>
140.66629999999998

> <JCHEM_ROTATABLE_BOND_COUNT>
7

> <JCHEM_RULE_OF_FIVE>
0

> <ALOGPS_SOLUBILITY>
7.92e-03 g/l

> <JCHEM_TRADITIONAL_IUPAC>
N-{3-[(2-{[4-(4-methylpiperazin-1-yl)phenyl]amino}thieno[3,2-d]pyrimidin-4-yl)oxy]phenyl}prop-2-enamide

> <JCHEM_VEBER_RULE>
0

> <DRUGBANK_ID>
DB13164

> <DRUG_GROUPS>
investigational

> <GENERIC_NAME>
Olmutinib

> <SYNONYMS>
Olmutinib

$$$$
