
  Mrv1652310211603052D          

 30 34  0  0  1  0            999 V2000
   -2.1730   -1.7309    0.0000 C   0  0  0  0  0  0  0  0  0  0  0  0
   -1.3480   -1.7309    0.0000 C   0  0  0  0  0  0  0  0  0  0  0  0
   -0.9355   -1.0164    0.0000 C   0  0  0  0  0  0  0  0  0  0  0  0
   -0.1105   -1.0164    0.0000 C   0  0  0  0  0  0  0  0  0  0  0  0
    0.3020   -1.7309    0.0000 C   0  0  0  0  0  0  0  0  0  0  0  0
   -0.1105   -2.4454    0.0000 C   0  0  0  0  0  0  0  0  0  0  0  0
   -0.9355   -2.4454    0.0000 N   0  0  0  0  0  0  0  0  0  0  0  0
    1.1270   -1.7309    0.0000 C   0  0  0  0  0  0  0  0  0  0  0  0
    1.5395   -1.0164    0.0000 C   0  0  0  0  0  0  0  0  0  0  0  0
    2.3645   -1.0164    0.0000 C   0  0  0  0  0  0  0  0  0  0  0  0
    2.7770   -0.3020    0.0000 C   0  0  0  0  0  0  0  0  0  0  0  0
    2.3645    0.4125    0.0000 C   0  0  0  0  0  0  0  0  0  0  0  0
    1.5395    0.4125    0.0000 C   0  0  0  0  0  0  0  0  0  0  0  0
    1.1270   -0.3020    0.0000 C   0  0  0  0  0  0  0  0  0  0  0  0
    0.3020   -0.3020    0.0000 C   0  0  0  0  0  0  0  0  0  0  0  0
   -0.1105    0.4125    0.0000 C   0  0  0  0  0  0  0  0  0  0  0  0
    0.3020    1.1270    0.0000 C   0  0  0  0  0  0  0  0  0  0  0  0
    1.1270    1.1270    0.0000 C   0  0  0  0  0  0  0  0  0  0  0  0
    2.7770    1.1270    0.0000 N   0  0  0  0  0  0  0  0  0  0  0  0
    3.6020    1.1270    0.0000 C   0  0  0  0  0  0  0  0  0  0  0  0
    4.0145    0.4125    0.0000 N   0  0  0  0  0  0  0  0  0  0  0  0
    3.6020   -0.3020    0.0000 C   0  0  0  0  0  0  0  0  0  0  0  0
    4.0145   -1.0164    0.0000 O   0  0  0  0  0  0  0  0  0  0  0  0
    4.8395    0.4125    0.0000 C   0  0  1  0  0  0  0  0  0  0  0  0
    5.2520    1.1270    0.0000 C   0  0  0  0  0  0  0  0  0  0  0  0
    6.0770    1.1270    0.0000 C   0  0  0  0  0  0  0  0  0  0  0  0
    6.4895    0.4125    0.0000 C   0  0  0  0  0  0  0  0  0  0  0  0
    6.0770   -0.3020    0.0000 C   0  0  0  0  0  0  0  0  0  0  0  0
    5.2520   -0.3020    0.0000 C   0  0  2  0  0  0  0  0  0  0  0  0
    4.8395   -1.0164    0.0000 O   0  0  0  0  0  0  0  0  0  0  0  0
  1  2  1  0  0  0  0
  2  3  2  0  0  0  0
  3  4  1  0  0  0  0
  4  5  2  0  0  0  0
  5  6  1  0  0  0  0
  6  7  2  0  0  0  0
  2  7  1  0  0  0  0
  5  8  1  0  0  0  0
  8  9  1  0  0  0  0
  9 10  2  0  0  0  0
 10 11  1  0  0  0  0
 11 12  2  0  0  0  0
 12 13  1  0  0  0  0
 13 14  1  0  0  0  0
  9 14  1  0  0  0  0
 14 15  2  0  0  0  0
 15 16  1  0  0  0  0
 16 17  2  0  0  0  0
 17 18  1  0  0  0  0
 13 18  2  0  0  0  0
 12 19  1  0  0  0  0
 19 20  2  0  0  0  0
 20 21  1  0  0  0  0
 21 22  1  0  0  0  0
 11 22  1  0  0  0  0
 22 23  2  0  0  0  0
 24 21  1  1  0  0  0
 24 25  1  0  0  0  0
 25 26  1  0  0  0  0
 26 27  1  0  0  0  0
 27 28  1  0  0  0  0
 28 29  1  0  0  0  0
 24 29  1  0  0  0  0
 29 30  1  6  0  0  0
M  END
> <DATABASE_ID>
DB12897

> <DATABASE_NAME>
drugbank

> <SMILES>
CC1=CC=C(CC2=CC3=C(N=CN([C@H]4CCCC[C@@H]4O)C3=O)C3=CC=CC=C23)C=N1

> <INCHI_IDENTIFIER>
InChI=1S/C25H25N3O2/c1-16-10-11-17(14-26-16)12-18-13-21-24(20-7-3-2-6-19(18)20)27-15-28(25(21)30)22-8-4-5-9-23(22)29/h2-3,6-7,10-11,13-15,22-23,29H,4-5,8-9,12H2,1H3/t22-,23-/m0/s1

> <INCHI_KEY>
JUVQLZBJFOGEEO-GOTSBHOMSA-N

> <FORMULA>
C25H25N3O2

> <MOLECULAR_WEIGHT>
399.494

> <EXACT_MASS>
399.194677057

> <JCHEM_ACCEPTOR_COUNT>
4

> <JCHEM_ATOM_COUNT>
55

> <JCHEM_AVERAGE_POLARIZABILITY>
44.87448448669201

> <JCHEM_BIOAVAILABILITY>
1

> <JCHEM_DONOR_COUNT>
1

> <JCHEM_FORMAL_CHARGE>
0

> <JCHEM_GHOSE_FILTER>
1

> <JCHEM_IUPAC>
3-[(1S,2S)-2-hydroxycyclohexyl]-6-[(6-methylpyridin-3-yl)methyl]-3H,4H-benzo[h]quinazolin-4-one

> <ALOGPS_LOGP>
3.56

> <JCHEM_LOGP>
3.6677533093333343

> <ALOGPS_LOGS>
-5.14

> <JCHEM_MDDR_LIKE_RULE>
0

> <JCHEM_NUMBER_OF_RINGS>
5

> <JCHEM_PHYSIOLOGICAL_CHARGE>
0

> <JCHEM_PKA_STRONGEST_ACIDIC>
14.562269178332315

> <JCHEM_PKA_STRONGEST_BASIC>
6.029349527840938

> <JCHEM_POLAR_SURFACE_AREA>
65.79

> <JCHEM_REFRACTIVITY>
118.79379999999999

> <JCHEM_ROTATABLE_BOND_COUNT>
3

> <JCHEM_RULE_OF_FIVE>
1

> <ALOGPS_SOLUBILITY>
2.90e-03 g/l

> <JCHEM_TRADITIONAL_IUPAC>
3-[(1S,2S)-2-hydroxycyclohexyl]-6-[(6-methylpyridin-3-yl)methyl]benzo[h]quinazolin-4-one

> <JCHEM_VEBER_RULE>
0

> <DRUGBANK_ID>
DB12897

> <DRUG_GROUPS>
investigational

> <GENERIC_NAME>
MK-7622

$$$$
