
  Mrv1909 03042004452D          

  5  4  0  0  0  0            999 V2000
   -0.1914   -0.7145    0.0000 C   0  0  0  0  0  0  0  0  0  0  0  0
    0.5230   -1.1270    0.0000 C   0  0  0  0  0  0  0  0  0  0  0  0
    1.2375   -0.7145    0.0000 C   0  0  0  0  0  0  0  0  0  0  0  0
    1.9520   -1.1270    0.0000 C   0  0  0  0  0  0  0  0  0  0  0  0
    2.6666   -0.7145    0.0000 Cl  0  0  0  0  0  0  0  0  0  0  0  0
  2  1  1  0  0  0  0
  3  2  1  0  0  0  0
  4  3  1  0  0  0  0
  5  4  1  0  0  0  0
M  END
> <DATABASE_ID>
DB11534

> <DATABASE_NAME>
drugbank

> <SMILES>
CCCCCl

> <INCHI_IDENTIFIER>
InChI=1S/C4H9Cl/c1-2-3-4-5/h2-4H2,1H3

> <INCHI_KEY>
VFWCMGCRMGJXDK-UHFFFAOYSA-N

> <FORMULA>
C4H9Cl

> <MOLECULAR_WEIGHT>
92.57

> <EXACT_MASS>
92.039278

> <JCHEM_ACCEPTOR_COUNT>
0

> <JCHEM_ATOM_COUNT>
14

> <JCHEM_AVERAGE_NEUTRAL_MICROSPECIES_CHARGE>
0.0

> <JCHEM_AVERAGE_POLARIZABILITY>
10.385705174108496

> <JCHEM_BIOAVAILABILITY>
1

> <JCHEM_DONOR_COUNT>
0

> <JCHEM_FORMAL_CHARGE>
0

> <JCHEM_GHOSE_FILTER>
0

> <JCHEM_IUPAC>
1-chlorobutane

> <ALOGPS_LOGP>
2.37

> <JCHEM_LOGP>
2.159913802

> <ALOGPS_LOGS>
-2.09

> <JCHEM_MDDR_LIKE_RULE>
0

> <JCHEM_NEUTRAL_CHARGE>
0

> <JCHEM_NUMBER_OF_RINGS>
0

> <JCHEM_PHYSIOLOGICAL_CHARGE>
0

> <JCHEM_POLAR_SURFACE_AREA>
0.0

> <JCHEM_REFRACTIVITY>
25.1859

> <JCHEM_ROTATABLE_BOND_COUNT>
2

> <JCHEM_RULE_OF_FIVE>
1

> <ALOGPS_SOLUBILITY>
7.51e-01 g/l

> <JCHEM_TRADITIONAL_IUPAC>
methyl (1R,15S,17S,18R,19S,20S)-6,17,18-trimethoxy-3,13-diazapentacyclo[11.8.0.0^{2,10}.0^{4,9}.0^{15,20}]henicosa-2(10),4(9),5,7-tetraene-19-carboxylate

> <JCHEM_VEBER_RULE>
1

> <DRUGBANK_ID>
DB11534

> <DRUG_GROUPS>
vet_approved

> <GENERIC_NAME>
Butyl chloride

> <SYNONYMS>
n-Butyl chloride; n-Propylcarbinyl chloride

$$$$
