
  Mrv1909 12022220592D          

 11 11  0  0  0  0            999 V2000
    0.7145    2.0625    0.0000 C   0  0  0  0  0  0  0  0  0  0  0  0
    0.7145    1.2375    0.0000 C   0  0  0  0  0  0  0  0  0  0  0  0
    1.4289    0.8250    0.0000 C   0  0  0  0  0  0  0  0  0  0  0  0
    1.4289   -0.0000    0.0000 C   0  0  0  0  0  0  0  0  0  0  0  0
    0.7145   -0.4125    0.0000 C   0  0  0  0  0  0  0  0  0  0  0  0
    0.0000    0.0000    0.0000 C   0  0  0  0  0  0  0  0  0  0  0  0
    0.0000    0.8250    0.0000 C   0  0  0  0  0  0  0  0  0  0  0  0
    0.7145   -1.2375    0.0000 S   0  0  0  0  0  0  0  0  0  0  0  0
    0.7145   -2.0625    0.0000 N   0  0  0  0  0  0  0  0  0  0  0  0
   -0.1105   -1.2375    0.0000 O   0  0  0  0  0  0  0  0  0  0  0  0
    1.5395   -1.2375    0.0000 O   0  0  0  0  0  0  0  0  0  0  0  0
  1  2  1  0  0  0  0
  2  3  2  0  0  0  0
  3  4  1  0  0  0  0
  4  5  2  0  0  0  0
  5  6  1  0  0  0  0
  6  7  2  0  0  0  0
  2  7  1  0  0  0  0
  5  8  1  0  0  0  0
  8  9  1  0  0  0  0
  8 10  2  0  0  0  0
  8 11  2  0  0  0  0
M  END
> <DATABASE_ID>
DB17299

> <DATABASE_NAME>
drugbank

> <SMILES>
CC1=CC=C(C=C1)S(N)(=O)=O

> <INCHI_IDENTIFIER>
InChI=1S/C7H9NO2S/c1-6-2-4-7(5-3-6)11(8,9)10/h2-5H,1H3,(H2,8,9,10)

> <INCHI_KEY>
LMYRWZFENFIFIT-UHFFFAOYSA-N

> <FORMULA>
C7H9NO2S

> <MOLECULAR_WEIGHT>
171.21

> <EXACT_MASS>
171.035399708

> <JCHEM_ACCEPTOR_COUNT>
2

> <JCHEM_ATOM_COUNT>
20

> <JCHEM_AVERAGE_NEUTRAL_MICROSPECIES_CHARGE>
-3.4988296282332503e-11

> <JCHEM_AVERAGE_POLARIZABILITY>
16.966871832815116

> <JCHEM_BIOAVAILABILITY>
1

> <JCHEM_DONOR_COUNT>
1

> <JCHEM_FORMAL_CHARGE>
0

> <JCHEM_GHOSE_FILTER>
1

> <JCHEM_IUPAC>
4-methylbenzene-1-sulfonamide

> <ALOGPS_LOGP>
0.72

> <JCHEM_LOGP>
1.0926979749999999

> <ALOGPS_LOGS>
-1.88

> <JCHEM_MDDR_LIKE_RULE>
0

> <JCHEM_NEUTRAL_CHARGE>
0

> <JCHEM_NUMBER_OF_RINGS>
1

> <JCHEM_PHYSIOLOGICAL_CHARGE>
0

> <JCHEM_PKA_STRONGEST_ACIDIC>
10.456077204492356

> <JCHEM_POLAR_SURFACE_AREA>
60.160000000000004

> <JCHEM_REFRACTIVITY>
43.2571

> <JCHEM_ROTATABLE_BOND_COUNT>
1

> <JCHEM_RULE_OF_FIVE>
1

> <ALOGPS_SOLUBILITY>
2.27e+00 g/l

> <JCHEM_TRADITIONAL_IUPAC>
p-toluenesulfonamide

> <JCHEM_VEBER_RULE>
0

> <DRUGBANK_ID>
DB17299

> <DRUG_GROUPS>
investigational

> <GENERIC_NAME>
p-Toluenesulfonamide

> <SYNONYMS>
4-methylbenzenesulfonamide; 4-toluenesulfonamide; Benzenesulfonamide, 4-methyl-; P-methylbenzenesulfonamide; P-toluenesulfonylamide; P-tosylamide; Para-toluenesulfonamide; Tolbutamide impurity a; Toluene-4-sulphonamide; Toluenesulfonamide, p-

$$$$
