
  Mrv1909 11212221522D          

 25 27  0  0  0  0            999 V2000
    4.0668    3.1729    0.0000 C   0  0  0  0  0  0  0  0  0  0  0  0
    4.0668    2.3479    0.0000 O   0  0  0  0  0  0  0  0  0  0  0  0
    3.3523    1.9354    0.0000 C   0  0  0  0  0  0  0  0  0  0  0  0
    3.3523    1.1104    0.0000 C   0  0  0  0  0  0  0  0  0  0  0  0
    2.6378    0.6979    0.0000 C   0  0  0  0  0  0  0  0  0  0  0  0
    1.9233    1.1104    0.0000 C   0  0  0  0  0  0  0  0  0  0  0  0
    1.9233    1.9354    0.0000 C   0  0  0  0  0  0  0  0  0  0  0  0
    1.1387    2.1904    0.0000 N   0  0  0  0  0  0  0  0  0  0  0  0
    0.6538    1.5229    0.0000 C   0  0  0  0  0  0  0  0  0  0  0  0
    1.1387    0.8555    0.0000 C   0  0  0  0  0  0  0  0  0  0  0  0
    0.8838    0.0709    0.0000 C   0  0  0  0  0  0  0  0  0  0  0  0
    1.4358   -0.5422    0.0000 O   0  0  0  0  0  0  0  0  0  0  0  0
    0.0768   -0.1006    0.0000 C   0  0  0  0  0  0  0  0  0  0  0  0
   -0.1781   -0.8853    0.0000 C   0  0  0  0  0  0  0  0  0  0  0  0
   -0.9851   -1.0568    0.0000 C   0  0  0  0  0  0  0  0  0  0  0  0
   -1.2400   -1.8414    0.0000 O   0  0  0  0  0  0  0  0  0  0  0  0
   -2.0470   -2.0129    0.0000 C   0  0  0  0  0  0  0  0  0  0  0  0
   -1.5371   -0.4437    0.0000 C   0  0  0  0  0  0  0  0  0  0  0  0
   -2.3441   -0.6152    0.0000 O   0  0  0  0  0  0  0  0  0  0  0  0
   -2.5990   -1.3998    0.0000 C   0  0  0  0  0  0  0  0  0  0  0  0
   -1.2822    0.3409    0.0000 C   0  0  0  0  0  0  0  0  0  0  0  0
   -1.8342    0.9540    0.0000 O   0  0  0  0  0  0  0  0  0  0  0  0
   -1.5793    1.7386    0.0000 C   0  0  0  0  0  0  0  0  0  0  0  0
   -0.4752    0.5124    0.0000 C   0  0  0  0  0  0  0  0  0  0  0  0
    2.6378    2.3479    0.0000 C   0  0  0  0  0  0  0  0  0  0  0  0
  1  2  1  0  0  0  0
  2  3  1  0  0  0  0
  3  4  2  0  0  0  0
  4  5  1  0  0  0  0
  5  6  2  0  0  0  0
  6  7  1  0  0  0  0
  7  8  1  0  0  0  0
  8  9  1  0  0  0  0
  9 10  2  0  0  0  0
  6 10  1  0  0  0  0
 10 11  1  0  0  0  0
 11 12  2  0  0  0  0
 11 13  1  0  0  0  0
 13 14  2  0  0  0  0
 14 15  1  0  0  0  0
 15 16  1  0  0  0  0
 16 17  1  0  0  0  0
 15 18  2  0  0  0  0
 18 19  1  0  0  0  0
 19 20  1  0  0  0  0
 18 21  1  0  0  0  0
 21 22  1  0  0  0  0
 22 23  1  0  0  0  0
 21 24  2  0  0  0  0
 13 24  1  0  0  0  0
  7 25  2  0  0  0  0
  3 25  1  0  0  0  0
M  END
> <DATABASE_ID>
DB17155

> <DATABASE_NAME>
drugbank

> <SMILES>
COC1=CC=C2C(NC=C2C(=O)C2=CC(OC)=C(OC)C(OC)=C2)=C1

> <INCHI_IDENTIFIER>
InChI=1S/C19H19NO5/c1-22-12-5-6-13-14(10-20-15(13)9-12)18(21)11-7-16(23-2)19(25-4)17(8-11)24-3/h5-10,20H,1-4H3

> <INCHI_KEY>
UZJVBXKFBQNDTQ-UHFFFAOYSA-N

> <FORMULA>
C19H19NO5

> <MOLECULAR_WEIGHT>
341.363

> <EXACT_MASS>
341.126322716

> <JCHEM_ACCEPTOR_COUNT>
5

> <JCHEM_ATOM_COUNT>
44

> <JCHEM_AVERAGE_NEUTRAL_MICROSPECIES_CHARGE>
7.566389227259271e-05

> <JCHEM_AVERAGE_POLARIZABILITY>
36.70351887066974

> <JCHEM_BIOAVAILABILITY>
1

> <JCHEM_DONOR_COUNT>
1

> <JCHEM_FORMAL_CHARGE>
0

> <JCHEM_GHOSE_FILTER>
1

> <JCHEM_IUPAC>
6-methoxy-3-(3,4,5-trimethoxybenzoyl)-1H-indole

> <ALOGPS_LOGP>
3.12

> <JCHEM_LOGP>
2.900675783666666

> <ALOGPS_LOGS>
-3.81

> <JCHEM_MDDR_LIKE_RULE>
1

> <JCHEM_NEUTRAL_CHARGE>
0

> <JCHEM_NUMBER_OF_RINGS>
3

> <JCHEM_PHYSIOLOGICAL_CHARGE>
0

> <JCHEM_PKA_STRONGEST_ACIDIC>
13.279636210338564

> <JCHEM_PKA_STRONGEST_BASIC>
-4.303537038970599

> <JCHEM_POLAR_SURFACE_AREA>
69.78000000000002

> <JCHEM_REFRACTIVITY>
93.5728

> <JCHEM_ROTATABLE_BOND_COUNT>
6

> <JCHEM_RULE_OF_FIVE>
1

> <ALOGPS_SOLUBILITY>
5.35e-02 g/l

> <JCHEM_TRADITIONAL_IUPAC>
6-methoxy-3-(3,4,5-trimethoxybenzoyl)-1H-indole

> <JCHEM_VEBER_RULE>
0

> <DRUGBANK_ID>
DB17155

> <DRUG_GROUPS>
investigational

> <GENERIC_NAME>
BPR-0L075

> <SYNONYMS>
6-methoxy-3-(3,4,5-trimethoxybenzoyl) indole; Methanone, (6-methoxy-1h-indol-3-yl)(3,4,5-trimethoxyphenyl)-

$$$$
