
  Mrv1909 11191922382D          

 12 11  0  0  0  0            999 V2000
   -1.4289    1.0312    0.0000 N   0  0  0  0  0  0  0  0  0  0  0  0
   -1.4289    0.2062    0.0000 C   0  0  2  0  0  0  0  0  0  0  0  0
   -2.1434   -0.2062    0.0000 C   0  0  0  0  0  0  0  0  0  0  0  0
   -2.8578    0.2062    0.0000 O   0  0  0  0  0  0  0  0  0  0  0  0
   -0.7144   -0.2062    0.0000 C   0  0  0  0  0  0  0  0  0  0  0  0
    0.0000    0.2062    0.0000 C   0  0  0  0  0  0  0  0  0  0  0  0
    0.7144   -0.2062    0.0000 N   0  0  0  0  0  0  0  0  0  0  0  0
    1.4289    0.2062    0.0000 C   0  0  0  0  0  0  0  0  0  0  0  0
    2.1434   -0.2062    0.0000 N   0  0  0  0  0  0  0  0  0  0  0  0
    1.4289    1.0312    0.0000 N   0  0  0  0  0  0  0  0  0  0  0  0
    2.8578    0.2062    0.0000 O   0  0  0  0  0  0  0  0  0  0  0  0
   -2.1434   -1.0312    0.0000 O   0  0  0  0  0  0  0  0  0  0  0  0
  2  1  1  1  0  0  0
  3  2  1  0  0  0  0
  2  5  1  0  0  0  0
  3  4  2  0  0  0  0
  3 12  1  0  0  0  0
  5  6  1  0  0  0  0
  6  7  1  0  0  0  0
  8  7  1  0  0  0  0
  8  9  1  0  0  0  0
  8 10  2  0  0  0  0
  9 11  1  0  0  0  0
M  END
> <DATABASE_ID>
DB02381

> <DATABASE_NAME>
drugbank

> <SMILES>
N[C@@H](CCNC(=N)NO)C(O)=O

> <INCHI_IDENTIFIER>
InChI=1S/C5H12N4O3/c6-3(4(10)11)1-2-8-5(7)9-12/h3,12H,1-2,6H2,(H,10,11)(H3,7,8,9)/t3-/m0/s1

> <INCHI_KEY>
KOBHCUDVWOTEKO-VKHMYHEASA-N

> <FORMULA>
C5H12N4O3

> <MOLECULAR_WEIGHT>
176.1738

> <EXACT_MASS>
176.09094027

> <JCHEM_ACCEPTOR_COUNT>
7

> <JCHEM_ATOM_COUNT>
24

> <JCHEM_AVERAGE_POLARIZABILITY>
16.729279581910667

> <JCHEM_BIOAVAILABILITY>
1

> <JCHEM_DONOR_COUNT>
6

> <JCHEM_FORMAL_CHARGE>
0

> <JCHEM_GHOSE_FILTER>
0

> <JCHEM_IUPAC>
(2S)-2-amino-4-(N'-hydroxycarbamimidamido)butanoic acid

> <ALOGPS_LOGP>
-3.62

> <JCHEM_LOGP>
-3.6980791273184193

> <ALOGPS_LOGS>
-1.90

> <JCHEM_MDDR_LIKE_RULE>
0

> <JCHEM_NUMBER_OF_RINGS>
0

> <JCHEM_PHYSIOLOGICAL_CHARGE>
1

> <JCHEM_PKA>
14.819951141075428

> <JCHEM_PKA_STRONGEST_ACIDIC>
2.081517602457128

> <JCHEM_PKA_STRONGEST_BASIC>
10.561240412081888

> <JCHEM_POLAR_SURFACE_AREA>
131.46

> <JCHEM_REFRACTIVITY>
61.535900000000005

> <JCHEM_ROTATABLE_BOND_COUNT>
4

> <JCHEM_RULE_OF_FIVE>
0

> <ALOGPS_SOLUBILITY>
2.24e+00 g/l

> <JCHEM_TRADITIONAL_IUPAC>
2lambda5-triaz-1-en-2-yn-1-ide hydrate diiron

> <JCHEM_VEBER_RULE>
0

> <DRUGBANK_ID>
DB02381

> <SECONDARY_ACCESSION_NUMBERS>
EXPT02371; DB12913

> <DRUG_GROUPS>
investigational

> <GENERIC_NAME>
nor-NOHA

> <SYNONYMS>
(2S)-2-amino-4-(((hydroxyamino)iminomethyl)amino)butanoic acid; N-hydroxy-nor-arginine; N-hydroxy-nor-L-arginine; Nomega-Hydroxy-nor-L-arginine

$$$$
