
  Mrv1652305311723092D          

 11 11  0  0  1  0            999 V2000
    0.5678    1.9393    0.0000 C   0  0  0  0  0  0  0  0  0  0  0  0
    1.2352    0.6294    0.0000 C   0  0  0  0  0  0  0  0  0  0  0  0
   -0.1467    3.1768    0.0000 C   0  0  0  0  0  0  0  0  0  0  0  0
    0.1553   -0.1553    0.0000 C   0  0  0  0  0  0  0  0  0  0  0  0
   -0.1467    2.3518    0.0000 C   0  0  1  0  0  0  0  0  0  0  0  0
    0.5678    1.1143    0.0000 C   0  0  0  0  0  0  0  0  0  0  0  0
   -0.8612    1.9393    0.0000 N   0  3  0  0  0  0  0  0  0  0  0  0
    0.9803   -0.1553    0.0000 N   0  0  0  0  0  0  0  0  0  0  0  0
   -0.0997    0.6294    0.0000 N   0  0  0  0  0  0  0  0  0  0  0  0
   -0.8612    3.5893    0.0000 O   0  0  0  0  0  0  0  0  0  0  0  0
    0.5678    2.7643    0.0000 H   0  0  0  0  0  0  0  0  0  0  0  0
  5  1  1  0  0  0  0
  5  3  1  0  0  0  0
  6  1  1  0  0  0  0
  6  2  2  0  0  0  0
  5  7  1  1  0  0  0
  8  2  1  0  0  0  0
  8  4  2  0  0  0  0
  9  4  1  0  0  0  0
  9  6  1  0  0  0  0
 10  3  1  0  0  0  0
  5 11  1  1  0  0  0
M  CHG  1   7   1
M  END
> <DATABASE_ID>
DB03811

> <DATABASE_NAME>
drugbank

> <SMILES>
[H][C@@]([NH3+])(CO)CC1=CN=CN1

> <INCHI_IDENTIFIER>
InChI=1S/C6H11N3O/c7-5(3-10)1-6-2-8-4-9-6/h2,4-5,10H,1,3,7H2,(H,8,9)/p+1/t5-/m0/s1

> <INCHI_KEY>
ZQISRDCJNBUVMM-YFKPBYRVSA-O

> <FORMULA>
C6H12N3O

> <MOLECULAR_WEIGHT>
142.181

> <EXACT_MASS>
142.097488439

> <JCHEM_ACCEPTOR_COUNT>
2

> <JCHEM_ATOM_COUNT>
22

> <JCHEM_AVERAGE_POLARIZABILITY>
15.04944483836164

> <JCHEM_BIOAVAILABILITY>
1

> <JCHEM_DONOR_COUNT>
3

> <JCHEM_FORMAL_CHARGE>
1

> <JCHEM_GHOSE_FILTER>
0

> <JCHEM_IUPAC>
(2S)-1-hydroxy-3-(1H-imidazol-5-yl)propan-2-aminium

> <ALOGPS_LOGP>
-2.60

> <JCHEM_LOGP>
-1.6698298503333333

> <ALOGPS_LOGS>
-0.11

> <JCHEM_MDDR_LIKE_RULE>
0

> <JCHEM_NUMBER_OF_RINGS>
1

> <JCHEM_PHYSIOLOGICAL_CHARGE>
2

> <JCHEM_PKA>
15.128179925243142

> <JCHEM_PKA_STRONGEST_ACIDIC>
13.445305409985384

> <JCHEM_PKA_STRONGEST_BASIC>
9.405190517544417

> <JCHEM_POLAR_SURFACE_AREA>
76.55

> <JCHEM_REFRACTIVITY>
49.484399999999994

> <JCHEM_ROTATABLE_BOND_COUNT>
3

> <JCHEM_RULE_OF_FIVE>
1

> <ALOGPS_SOLUBILITY>
1.36e+02 g/l

> <JCHEM_TRADITIONAL_IUPAC>
(2S)-1-hydroxy-3-(3H-imidazol-4-yl)propan-2-aminium

> <JCHEM_VEBER_RULE>
0

> <DRUGBANK_ID>
DB03811

> <SECONDARY_ACCESSION_NUMBERS>
EXPT01786

> <DRUG_GROUPS>
experimental

> <GENERIC_NAME>
Histidinol

$$$$
