
  Mrv1909 01272020322D          

  5  4  0  0  0  0            999 V2000
    0.3556   -0.6183    0.0000 N   0  0  0  0  0  0  0  0  0  0  0  0
   -0.3597   -0.2061    0.0000 C   0  0  0  0  0  0  0  0  0  0  0  0
   -1.0710   -0.6183    0.0000 N   0  0  0  0  0  0  0  0  0  0  0  0
   -0.3597    0.6183    0.0000 N   0  0  0  0  0  0  0  0  0  0  0  0
    1.0710   -0.2061    0.0000 N   0  0  0  0  0  0  0  0  0  0  0  0
  1  2  1  0  0  0  0
  2  3  1  0  0  0  0
  2  4  2  0  0  0  0
  1  5  1  0  0  0  0
M  END
> <DATABASE_ID>
DB05383

> <DATABASE_NAME>
drugbank

> <SMILES>
NNC(N)=N

> <INCHI_IDENTIFIER>
InChI=1S/CH6N4/c2-1(3)5-4/h4H2,(H4,2,3,5)

> <INCHI_KEY>
HAMNKKUPIHEESI-UHFFFAOYSA-N

> <FORMULA>
CH6N4

> <MOLECULAR_WEIGHT>
74.0851

> <EXACT_MASS>
74.059246212

> <JCHEM_ACCEPTOR_COUNT>
4

> <JCHEM_ATOM_COUNT>
11

> <JCHEM_AVERAGE_NEUTRAL_MICROSPECIES_CHARGE>
1.0230910364724108

> <JCHEM_AVERAGE_POLARIZABILITY>
6.882774760240847

> <JCHEM_BIOAVAILABILITY>
1

> <JCHEM_DONOR_COUNT>
4

> <JCHEM_FORMAL_CHARGE>
0

> <JCHEM_GHOSE_FILTER>
0

> <JCHEM_IUPAC>
N-aminoguanidine

> <ALOGPS_LOGP>
-1.76

> <JCHEM_LOGP>
-1.4684813746666663

> <ALOGPS_LOGS>
-0.95

> <JCHEM_MDDR_LIKE_RULE>
0

> <JCHEM_NEUTRAL_CHARGE>
1

> <JCHEM_NUMBER_OF_RINGS>
0

> <JCHEM_PHYSIOLOGICAL_CHARGE>
1

> <JCHEM_PKA_STRONGEST_BASIC>
12.01256734572811

> <JCHEM_POLAR_SURFACE_AREA>
87.91999999999999

> <JCHEM_REFRACTIVITY>
40.8357

> <JCHEM_ROTATABLE_BOND_COUNT>
0

> <JCHEM_RULE_OF_FIVE>
1

> <ALOGPS_SOLUBILITY>
8.36e+00 g/l

> <JCHEM_TRADITIONAL_IUPAC>
prinomastat

> <JCHEM_VEBER_RULE>
0

> <DRUGBANK_ID>
DB05383

> <SECONDARY_ACCESSION_NUMBERS>
EXPT00459; DB02533

> <DRUG_GROUPS>
investigational

> <GENERIC_NAME>
Pimagedine

> <SYNONYMS>
Aminate base; Aminoguanidine; Guanyl hydrazine; Hydrazinecarboximidamide; Monoaminoguanidine; Pimagedine

> <SALTS>
Pimagedine hydrochloride

$$$$
