
  Mrv1718007201817222D          

  1  0  0  0  0  0            999 V2000
    0.0000    0.0000    0.0000 Co  0  0  0  0  0  0  0  0  0  0  0  0
M  END
> <DATABASE_ID>
DB14574

> <DATABASE_NAME>
drugbank

> <SMILES>
[Co]

> <INCHI_IDENTIFIER>
InChI=1S/Co

> <INCHI_KEY>
GUTLYIVDDKVIGB-UHFFFAOYSA-N

> <FORMULA>
Co

> <MOLECULAR_WEIGHT>
58.9332

> <EXACT_MASS>
58.933200194

> <JCHEM_ACCEPTOR_COUNT>
0

> <JCHEM_ATOM_COUNT>
1

> <JCHEM_AVERAGE_POLARIZABILITY>
1.7784

> <JCHEM_BIOAVAILABILITY>
1

> <JCHEM_DONOR_COUNT>
0

> <JCHEM_FORMAL_CHARGE>
0

> <JCHEM_GHOSE_FILTER>
0

> <JCHEM_IUPAC>
cobalt

> <ALOGPS_LOGP>
-1.31

> <JCHEM_LOGP>
0.22999999999999998

> <ALOGPS_LOGS>
1.08

> <JCHEM_MDDR_LIKE_RULE>
0

> <JCHEM_NUMBER_OF_RINGS>
0

> <JCHEM_PHYSIOLOGICAL_CHARGE>
0

> <JCHEM_POLAR_SURFACE_AREA>
0.0

> <JCHEM_REFRACTIVITY>
0.0

> <JCHEM_ROTATABLE_BOND_COUNT>
0

> <JCHEM_RULE_OF_FIVE>
1

> <ALOGPS_SOLUBILITY>
0.00e+00 g/l

> <JCHEM_TRADITIONAL_IUPAC>
cobalt

> <JCHEM_VEBER_RULE>
1

> <DRUGBANK_ID>
DB14574

> <DRUG_GROUPS>
approved; experimental; withdrawn

> <GENERIC_NAME>
Cobalt

> <SYNONYMS>
Cobalt; Cobalt, elemental; Cobalto; Cobaltum; Kobalt

> <PRODUCTS>
Cobalt - Liq. 29.5 Mcg/ml; Oligofer Liq; Oligostim Manganese-cobalt

$$$$
