
  Mrv1572004221605012D          

 13 13  0  0  0  0            999 V2000
   -2.2820    0.5872    0.0000 C   0  0  0  0  0  0  0  0  0  0  0  0
   -0.3297   -0.8227    0.0000 C   0  0  0  0  0  0  0  0  0  0  0  0
    1.2352    0.6294    0.0000 C   0  0  0  0  0  0  0  0  0  0  0  0
   -0.8843    0.8843    0.0000 C   0  0  0  0  0  0  0  0  0  0  0  0
   -1.4974    0.3323    0.0000 C   0  0  0  0  0  0  0  0  0  0  0  0
    0.1553   -0.1553    0.0000 C   0  0  0  0  0  0  0  0  0  0  0  0
    0.5678    1.1143    0.0000 C   0  0  0  0  0  0  0  0  0  0  0  0
    0.9803   -0.1553    0.0000 N   0  0  0  0  0  0  0  0  0  0  0  0
   -0.0997    0.6294    0.0000 N   0  0  0  0  0  0  0  0  0  0  0  0
    0.5678    1.9393    0.0000 N   0  0  0  0  0  0  0  0  0  0  0  0
   -1.3259   -0.4747    0.0000 O   0  0  0  0  0  0  0  0  0  0  0  0
   -0.1467    2.3518    0.0000 O   0  0  0  0  0  0  0  0  0  0  0  0
    1.2822    2.3518    0.0000 O   0  0  0  0  0  0  0  0  0  0  0  0
  5  1  1  0  0  0  0
  5  4  1  0  0  0  0
  6  2  1  0  0  0  0
  7  3  2  0  0  0  0
  8  3  1  0  0  0  0
  8  6  2  0  0  0  0
  9  4  1  0  0  0  0
  9  6  1  0  0  0  0
  9  7  1  0  0  0  0
 10  7  1  0  0  0  0
 11  5  1  0  0  0  0
 12 10  2  0  0  0  0
 13 10  2  0  0  0  0
M  END
> <DATABASE_ID>
DB12834

> <DATABASE_NAME>
drugbank

> <SMILES>
CC(O)CN1C(C)=NC=C1N(=O)=O

> <INCHI_IDENTIFIER>
InChI=1S/C7H11N3O3/c1-5(11)4-9-6(2)8-3-7(9)10(12)13/h3,5,11H,4H2,1-2H3

> <INCHI_KEY>
KPQZUUQMTUIKBP-UHFFFAOYSA-N

> <FORMULA>
C7H11N3O3

> <MOLECULAR_WEIGHT>
185.183

> <EXACT_MASS>
185.080041226

> <JCHEM_ACCEPTOR_COUNT>
4

> <JCHEM_ATOM_COUNT>
24

> <JCHEM_AVERAGE_POLARIZABILITY>
17.56874438181771

> <JCHEM_BIOAVAILABILITY>
1

> <JCHEM_DONOR_COUNT>
1

> <JCHEM_FORMAL_CHARGE>
0

> <JCHEM_GHOSE_FILTER>
1

> <JCHEM_IUPAC>
1-(2-methyl-5-nitro-1H-imidazol-1-yl)propan-2-ol

> <ALOGPS_LOGP>
0.25

> <JCHEM_LOGP>
-0.04273520000000014

> <ALOGPS_LOGS>
-1.58

> <JCHEM_MDDR_LIKE_RULE>
0

> <JCHEM_NUMBER_OF_RINGS>
1

> <JCHEM_PHYSIOLOGICAL_CHARGE>
0

> <JCHEM_PKA_STRONGEST_ACIDIC>
15.158427567329909

> <JCHEM_PKA_STRONGEST_BASIC>
3.0849497376110038

> <JCHEM_POLAR_SURFACE_AREA>
83.87

> <JCHEM_REFRACTIVITY>
45.6393

> <JCHEM_ROTATABLE_BOND_COUNT>
3

> <JCHEM_RULE_OF_FIVE>
1

> <ALOGPS_SOLUBILITY>
4.88e+00 g/l

> <JCHEM_TRADITIONAL_IUPAC>
secnidazole

> <JCHEM_VEBER_RULE>
0

> <DRUGBANK_ID>
DB12834

> <DRUG_GROUPS>
approved

> <GENERIC_NAME>
Secnidazole

> <SYNONYMS>
1-(2­ hydroxypropyl)-2-methyl-5-nitroimidazole; 1-(2-methyl-5-nitro-1H-imidazol-1-yl) propan-2­ ol; Secnidazole

> <PRODUCTS>
Solosec

$$$$
