
  Mrv1909 02132019332D          

 28 30  0  0  0  0            999 V2000
    0.0000    1.4437    0.0000 C   0  0  0  0  0  0  0  0  0  0  0  0
   -0.7144    1.8562    0.0000 C   0  0  0  0  0  0  0  0  0  0  0  0
   -1.4289    1.4437    0.0000 C   0  0  0  0  0  0  0  0  0  0  0  0
   -1.4289    0.6187    0.0000 C   0  0  0  0  0  0  0  0  0  0  0  0
   -0.7144    0.2062    0.0000 C   0  0  0  0  0  0  0  0  0  0  0  0
    0.0000    0.6187    0.0000 C   0  0  0  0  0  0  0  0  0  0  0  0
   -2.1434    0.2062    0.0000 N   0  0  0  0  0  0  0  0  0  0  0  0
   -2.1434   -0.6187    0.0000 C   0  0  0  0  0  0  0  0  0  0  0  0
   -1.4289   -1.0312    0.0000 N   0  0  0  0  0  0  0  0  0  0  0  0
   -1.4289   -1.8562    0.0000 C   0  0  0  0  0  0  0  0  0  0  0  0
   -2.1434   -2.2687    0.0000 N   0  0  0  0  0  0  0  0  0  0  0  0
   -2.8579   -1.8562    0.0000 C   0  0  0  0  0  0  0  0  0  0  0  0
   -2.8579   -1.0312    0.0000 C   0  0  0  0  0  0  0  0  0  0  0  0
   -0.7144   -2.2687    0.0000 N   0  0  0  0  0  0  0  0  0  0  0  0
    0.0000   -1.8562    0.0000 C   0  0  0  0  0  0  0  0  0  0  0  0
    0.7144   -2.2687    0.0000 C   0  0  0  0  0  0  0  0  0  0  0  0
    1.4289   -1.8562    0.0000 C   0  0  0  0  0  0  0  0  0  0  0  0
    1.4289   -1.0312    0.0000 C   0  0  0  0  0  0  0  0  0  0  0  0
    0.7144   -0.6187    0.0000 C   0  0  0  0  0  0  0  0  0  0  0  0
    0.0000   -1.0312    0.0000 C   0  0  0  0  0  0  0  0  0  0  0  0
   -0.7144   -0.6187    0.0000 C   0  0  0  0  0  0  0  0  0  0  0  0
    2.1434   -0.6187    0.0000 C   0  0  0  0  0  0  0  0  0  0  0  0
    2.8579   -0.2062    0.0000 N   0  0  0  0  0  0  0  0  0  0  0  0
    0.7144    1.8562    0.0000 C   0  0  0  0  0  0  0  0  0  0  0  0
    1.4289    1.4437    0.0000 C   0  0  0  0  0  0  0  0  0  0  0  0
    2.1434    1.8562    0.0000 C   0  0  0  0  0  0  0  0  0  0  0  0
    2.8579    2.2687    0.0000 N   0  0  0  0  0  0  0  0  0  0  0  0
   -2.1434    1.8562    0.0000 C   0  0  0  0  0  0  0  0  0  0  0  0
  1  2  2  0  0  0  0
  2  3  1  0  0  0  0
  3  4  2  0  0  0  0
  4  5  1  0  0  0  0
  5  6  2  0  0  0  0
  1  6  1  0  0  0  0
  4  7  1  0  0  0  0
  7  8  1  0  0  0  0
  8  9  1  0  0  0  0
  9 10  2  0  0  0  0
 10 11  1  0  0  0  0
 11 12  2  0  0  0  0
 12 13  1  0  0  0  0
  8 13  2  0  0  0  0
 10 14  1  0  0  0  0
 14 15  1  0  0  0  0
 15 16  1  0  0  0  0
 16 17  2  0  0  0  0
 17 18  1  0  0  0  0
 18 19  2  0  0  0  0
 19 20  1  0  0  0  0
 15 20  2  0  0  0  0
  5 21  1  0  0  0  0
 18 22  1  0  0  0  0
 22 23  3  0  0  0  0
  1 24  1  0  0  0  0
 24 25  2  0  0  0  0
 25 26  1  0  0  0  0
 26 27  3  0  0  0  0
  3 28  1  0  0  0  0
M  END
> <DATABASE_ID>
DB08864

> <DATABASE_NAME>
drugbank

> <SMILES>
CC1=CC(\C=C\C#N)=CC(C)=C1NC1=CC=NC(NC2=CC=C(C=C2)C#N)=N1

> <INCHI_IDENTIFIER>
InChI=1S/C22H18N6/c1-15-12-18(4-3-10-23)13-16(2)21(15)27-20-9-11-25-22(28-20)26-19-7-5-17(14-24)6-8-19/h3-9,11-13H,1-2H3,(H2,25,26,27,28)/b4-3+

> <INCHI_KEY>
YIBOMRUWOWDFLG-ONEGZZNKSA-N

> <FORMULA>
C22H18N6

> <MOLECULAR_WEIGHT>
366.4185

> <EXACT_MASS>
366.159294606

> <JCHEM_ACCEPTOR_COUNT>
6

> <JCHEM_ATOM_COUNT>
46

> <JCHEM_AVERAGE_NEUTRAL_MICROSPECIES_CHARGE>
1.0029134918401656

> <JCHEM_AVERAGE_POLARIZABILITY>
40.63456560155651

> <JCHEM_BIOAVAILABILITY>
1

> <JCHEM_DONOR_COUNT>
2

> <JCHEM_FORMAL_CHARGE>
0

> <JCHEM_GHOSE_FILTER>
1

> <JCHEM_IUPAC>
4-{[4-({4-[(1E)-2-cyanoeth-1-en-1-yl]-2,6-dimethylphenyl}amino)pyrimidin-2-yl]amino}benzonitrile

> <ALOGPS_LOGP>
3.80

> <JCHEM_LOGP>
5.473225503

> <ALOGPS_LOGS>
-4.50

> <JCHEM_MDDR_LIKE_RULE>
0

> <JCHEM_NEUTRAL_CHARGE>
0

> <JCHEM_NUMBER_OF_RINGS>
3

> <JCHEM_PHYSIOLOGICAL_CHARGE>
0

> <JCHEM_PKA>
16.3341386857268

> <JCHEM_PKA_STRONGEST_ACIDIC>
11.426096450925945

> <JCHEM_PKA_STRONGEST_BASIC>
4.443565181146374

> <JCHEM_POLAR_SURFACE_AREA>
97.41999999999999

> <JCHEM_REFRACTIVITY>
111.73939999999999

> <JCHEM_ROTATABLE_BOND_COUNT>
5

> <JCHEM_RULE_OF_FIVE>
0

> <ALOGPS_SOLUBILITY>
1.16e-02 g/l

> <JCHEM_TRADITIONAL_IUPAC>
rilpivirine

> <JCHEM_VEBER_RULE>
0

> <DRUGBANK_ID>
DB08864

> <SECONDARY_ACCESSION_NUMBERS>
DB08592; DB05083

> <DRUG_GROUPS>
approved

> <GENERIC_NAME>
Rilpivirine

> <SYNONYMS>
4-{[4-({4-[(E)-2-cyanovinyl]-2,6-dimethylphenyl}amino)pyrimidin-2-yl]amino}benzonitrile; Rilpivirina; Rilpivirine

> <PRODUCTS>
COMPLERA Access; Cabenuva; Complera; Edurant; Eviplera; Juluca; Odefsey; Rekambys

> <SALTS>
Rilpivirine hydrochloride

$$$$
