
  Mrv1909 12181921422D          

 46 51  0  0  0  0            999 V2000
   -1.4288    1.3883    0.0000 C   0  0  0  0  0  0  0  0  0  0  0  0
   -2.8578    0.5633    0.0000 C   0  0  0  0  0  0  0  0  0  0  0  0
   -2.1433    0.1508    0.0000 C   0  0  0  0  0  0  0  0  0  0  0  0
   -1.4288    0.5633    0.0000 C   0  0  0  0  0  0  0  0  0  0  0  0
   -0.7144    0.1508    0.0000 C   0  0  0  0  0  0  0  0  0  0  0  0
    0.0000    0.5633    0.0000 C   0  0  0  0  0  0  0  0  0  0  0  0
    0.0000    1.3883    0.0000 C   0  0  0  0  0  0  0  0  0  0  0  0
   -0.7144    1.8008    0.0000 N   0  0  0  0  0  0  0  0  0  0  0  0
   -0.7144   -0.6741    0.0000 O   0  0  0  0  0  0  0  0  0  0  0  0
   -3.5723    0.1508    0.0000 O   0  0  0  0  0  0  0  0  0  0  0  0
   -3.5723   -0.6741    0.0000 C   0  0  0  0  0  0  0  0  0  0  0  0
   -7.1446    1.3884    0.0000 C   0  0  0  0  0  0  0  0  0  0  0  0
   -6.4302    1.8009    0.0000 N   0  0  0  0  0  0  0  0  0  0  0  0
   -5.7157    1.3884    0.0000 C   0  0  0  0  0  0  0  0  0  0  0  0
   -5.0012    1.8009    0.0000 C   0  0  0  0  0  0  0  0  0  0  0  0
   -4.2868    1.3883    0.0000 C   0  0  0  0  0  0  0  0  0  0  0  0
   -3.5723    1.8008    0.0000 O   0  0  0  0  0  0  0  0  0  0  0  0
   -2.8578    1.3883    0.0000 C   0  0  0  0  0  0  0  0  0  0  0  0
   -2.1433    1.8008    0.0000 C   0  0  0  0  0  0  0  0  0  0  0  0
   -7.1446    3.0385    0.0000 C   0  0  0  0  0  0  0  0  0  0  0  0
   -7.8590    2.6260    0.0000 O   0  0  0  0  0  0  0  0  0  0  0  0
   -7.8591    1.8010    0.0000 C   0  0  0  0  0  0  0  0  0  0  0  0
   -6.4301    2.6260    0.0000 C   0  0  0  0  0  0  0  0  0  0  0  0
    0.0000   -1.0866    0.0000 C   0  0  0  0  0  0  0  0  0  0  0  0
    0.7144   -0.6741    0.0000 C   0  0  0  0  0  0  0  0  0  0  0  0
    0.0000   -1.9116    0.0000 C   0  0  0  0  0  0  0  0  0  0  0  0
    0.7144   -2.3241    0.0000 C   0  0  0  0  0  0  0  0  0  0  0  0
    1.4289   -1.9116    0.0000 C   0  0  0  0  0  0  0  0  0  0  0  0
    1.4289   -1.0866    0.0000 C   0  0  0  0  0  0  0  0  0  0  0  0
   -0.7144   -2.3241    0.0000 F   0  0  0  0  0  0  0  0  0  0  0  0
    2.1434   -2.3241    0.0000 N   0  0  0  0  0  0  0  0  0  0  0  0
    2.8578   -1.9116    0.0000 C   0  0  0  0  0  0  0  0  0  0  0  0
    2.8578   -1.0866    0.0000 O   0  0  0  0  0  0  0  0  0  0  0  0
    3.5723   -2.3241    0.0000 C   0  0  0  0  0  0  0  0  0  0  0  0
    4.2868   -1.9116    0.0000 C   0  0  0  0  0  0  0  0  0  0  0  0
    4.2868   -1.0866    0.0000 O   0  0  0  0  0  0  0  0  0  0  0  0
    5.0012   -2.3241    0.0000 N   0  0  0  0  0  0  0  0  0  0  0  0
    5.7157   -1.9116    0.0000 C   0  0  0  0  0  0  0  0  0  0  0  0
    5.7157   -1.0866    0.0000 C   0  0  0  0  0  0  0  0  0  0  0  0
    6.4302   -0.6741    0.0000 C   0  0  0  0  0  0  0  0  0  0  0  0
    6.4302   -2.3241    0.0000 C   0  0  0  0  0  0  0  0  0  0  0  0
    7.1446   -1.9116    0.0000 C   0  0  0  0  0  0  0  0  0  0  0  0
    7.1446   -1.0866    0.0000 C   0  0  0  0  0  0  0  0  0  0  0  0
    7.8591   -0.6741    0.0000 F   0  0  0  0  0  0  0  0  0  0  0  0
    3.1598   -3.0385    0.0000 C   0  0  0  0  0  0  0  0  0  0  0  0
    3.9848   -3.0385    0.0000 C   0  0  0  0  0  0  0  0  0  0  0  0
  1 19  2  0  0  0  0
 18  2  2  0  0  0  0
  2  3  1  0  0  0  0
  3  4  2  0  0  0  0
  5  6  2  0  0  0  0
  6  7  1  0  0  0  0
  7  8  2  0  0  0  0
  1  4  1  0  0  0  0
  1  8  1  0  0  0  0
  4  5  1  0  0  0  0
  9  5  1  0  0  0  0
  2 10  1  0  0  0  0
 10 11  1  0  0  0  0
 13 14  1  0  0  0  0
 14 15  1  0  0  0  0
 15 16  1  0  0  0  0
 16 17  1  0  0  0  0
 17 18  1  0  0  0  0
 19 18  1  0  0  0  0
 13 23  1  0  0  0  0
 12 13  1  0  0  0  0
 22 12  1  0  0  0  0
 20 21  1  0  0  0  0
 21 22  1  0  0  0  0
 20 23  1  0  0  0  0
  9 24  1  0  0  0  0
 25 24  2  0  0  0  0
 24 26  1  0  0  0  0
 26 27  2  0  0  0  0
 27 28  1  0  0  0  0
 25 29  1  0  0  0  0
 26 30  1  0  0  0  0
 28 29  2  0  0  0  0
 28 31  1  0  0  0  0
 31 32  1  0  0  0  0
 33 32  2  0  0  0  0
 32 34  1  0  0  0  0
 34 35  1  0  0  0  0
 36 35  2  0  0  0  0
 35 37  1  0  0  0  0
 37 38  1  0  0  0  0
 40 39  2  0  0  0  0
 39 38  1  0  0  0  0
 38 41  2  0  0  0  0
 41 42  1  0  0  0  0
 42 43  2  0  0  0  0
 40 43  1  0  0  0  0
 43 44  1  0  0  0  0
 34 45  1  0  0  0  0
 46 34  1  0  0  0  0
 45 46  1  0  0  0  0
M  END
> <DATABASE_ID>
DB12307

> <DATABASE_NAME>
drugbank

> <SMILES>
COC1=C(OCCCN2CCOCC2)C=C2N=CC=C(OC3=CC=C(NC(=O)C4(CC4)C(=O)NC4=CC=C(F)C=C4)C=C3F)C2=C1

> <INCHI_IDENTIFIER>
InChI=1S/C34H34F2N4O6/c1-43-30-20-25-27(21-31(30)45-16-2-13-40-14-17-44-18-15-40)37-12-9-28(25)46-29-8-7-24(19-26(29)36)39-33(42)34(10-11-34)32(41)38-23-5-3-22(35)4-6-23/h3-9,12,19-21H,2,10-11,13-18H2,1H3,(H,38,41)(H,39,42)

> <INCHI_KEY>
CXQHYVUVSFXTMY-UHFFFAOYSA-N

> <FORMULA>
C34H34F2N4O6

> <MOLECULAR_WEIGHT>
632.6538

> <EXACT_MASS>
632.24464125

> <JCHEM_ACCEPTOR_COUNT>
7

> <JCHEM_ATOM_COUNT>
80

> <JCHEM_AVERAGE_NEUTRAL_MICROSPECIES_CHARGE>
0.44975051355088097

> <JCHEM_AVERAGE_POLARIZABILITY>
64.65142814182278

> <JCHEM_BIOAVAILABILITY>
0

> <JCHEM_DONOR_COUNT>
2

> <JCHEM_FORMAL_CHARGE>
0

> <JCHEM_GHOSE_FILTER>
0

> <JCHEM_IUPAC>
N'1-[3-fluoro-4-({6-methoxy-7-[3-(morpholin-4-yl)propoxy]quinolin-4-yl}oxy)phenyl]-N1-(4-fluorophenyl)cyclopropane-1,1-dicarboxamide

> <ALOGPS_LOGP>
4.78

> <JCHEM_LOGP>
4.660868193999999

> <ALOGPS_LOGS>
-5.24

> <JCHEM_MDDR_LIKE_RULE>
1

> <JCHEM_NEUTRAL_CHARGE>
1

> <JCHEM_NUMBER_OF_RINGS>
6

> <JCHEM_PHYSIOLOGICAL_CHARGE>
0

> <JCHEM_PKA>
14.238257899784628

> <JCHEM_PKA_STRONGEST_ACIDIC>
13.175543162356329

> <JCHEM_PKA_STRONGEST_BASIC>
6.879155175266221

> <JCHEM_POLAR_SURFACE_AREA>
111.25

> <JCHEM_REFRACTIVITY>
168.29599999999994

> <JCHEM_ROTATABLE_BOND_COUNT>
12

> <JCHEM_RULE_OF_FIVE>
0

> <ALOGPS_SOLUBILITY>
3.64e-03 g/l

> <JCHEM_TRADITIONAL_IUPAC>
doravirine

> <JCHEM_VEBER_RULE>
0

> <DRUGBANK_ID>
DB12307

> <SECONDARY_ACCESSION_NUMBERS>
DB05030

> <DRUG_GROUPS>
investigational

> <GENERIC_NAME>
Foretinib

> <SYNONYMS>
Foretinib

$$$$
