
  Mrv1909 12152020032D          

 25 27  0  0  1  0            999 V2000
    2.6378    3.1729    0.0000 C   0  0  0  0  0  0  0  0  0  0  0  0
    3.3523    3.5854    0.0000 O   0  0  0  0  0  0  0  0  0  0  0  0
    4.0668    3.1729    0.0000 C   0  0  0  0  0  0  0  0  0  0  0  0
    4.7812    3.5854    0.0000 O   0  0  0  0  0  0  0  0  0  0  0  0
    4.0668    2.3479    0.0000 C   0  0  1  0  0  0  0  0  0  0  0  0
    3.3523    1.9354    0.0000 N   0  0  0  0  0  0  0  0  0  0  0  0
    3.3523    1.1104    0.0000 C   0  0  0  0  0  0  0  0  0  0  0  0
    2.6378    0.6979    0.0000 C   0  0  0  0  0  0  0  0  0  0  0  0
    1.9233    1.1104    0.0000 C   0  0  0  0  0  0  0  0  0  0  0  0
    1.9233    1.9354    0.0000 C   0  0  0  0  0  0  0  0  0  0  0  0
    2.6378    2.3479    0.0000 C   0  0  0  0  0  0  0  0  0  0  0  0
    1.1387    2.1904    0.0000 C   0  0  0  0  0  0  0  0  0  0  0  0
    0.6538    1.5229    0.0000 C   0  0  0  0  0  0  0  0  0  0  0  0
   -0.1712    1.5229    0.0000 O   0  0  0  0  0  0  0  0  0  0  0  0
   -0.5837    0.8085    0.0000 C   0  0  0  0  0  0  0  0  0  0  0  0
   -1.4087    0.8085    0.0000 C   0  0  0  0  0  0  0  0  0  0  0  0
   -0.1712    0.0940    0.0000 O   0  0  0  0  0  0  0  0  0  0  0  0
    1.1387    0.8555    0.0000 S   0  0  0  0  0  0  0  0  0  0  0  0
    4.7812    1.9354    0.0000 C   0  0  0  0  0  0  0  0  0  0  0  0
    5.4957    2.3479    0.0000 C   0  0  0  0  0  0  0  0  0  0  0  0
    5.4957    3.1729    0.0000 Cl  0  0  0  0  0  0  0  0  0  0  0  0
    6.2102    1.9354    0.0000 C   0  0  0  0  0  0  0  0  0  0  0  0
    6.2102    1.1104    0.0000 C   0  0  0  0  0  0  0  0  0  0  0  0
    5.4957    0.6979    0.0000 C   0  0  0  0  0  0  0  0  0  0  0  0
    4.7812    1.1104    0.0000 C   0  0  0  0  0  0  0  0  0  0  0  0
  1  2  1  0  0  0  0
  2  3  1  0  0  0  0
  3  4  2  0  0  0  0
  5  3  1  6  0  0  0
  5  6  1  0  0  0  0
  6  7  1  0  0  0  0
  7  8  1  0  0  0  0
  8  9  1  0  0  0  0
  9 10  2  0  0  0  0
 10 11  1  0  0  0  0
  6 11  1  0  0  0  0
 10 12  1  0  0  0  0
 12 13  2  0  0  0  0
 13 14  1  0  0  0  0
 14 15  1  0  0  0  0
 15 16  1  0  0  0  0
 15 17  2  0  0  0  0
 13 18  1  0  0  0  0
  9 18  1  0  0  0  0
  5 19  1  0  0  0  0
 19 20  2  0  0  0  0
 20 21  1  0  0  0  0
 20 22  1  0  0  0  0
 22 23  2  0  0  0  0
 23 24  1  0  0  0  0
 24 25  2  0  0  0  0
 19 25  1  0  0  0  0
M  END
> <DATABASE_ID>
DB16349

> <DATABASE_NAME>
drugbank

> <SMILES>
COC(=O)[C@@H](N1CCC2=C(C1)C=C(OC(C)=O)S2)C1=C(Cl)C=CC=C1

> <INCHI_IDENTIFIER>
InChI=1S/C18H18ClNO4S/c1-11(21)24-16-9-12-10-20(8-7-15(12)25-16)17(18(22)23-2)13-5-3-4-6-14(13)19/h3-6,9,17H,7-8,10H2,1-2H3/t17-/m0/s1

> <INCHI_KEY>
GNHHCBSBCDGWND-KRWDZBQOSA-N

> <FORMULA>
C18H18ClNO4S

> <MOLECULAR_WEIGHT>
379.86

> <EXACT_MASS>
379.0645069

> <JCHEM_ACCEPTOR_COUNT>
3

> <JCHEM_ATOM_COUNT>
43

> <JCHEM_AVERAGE_NEUTRAL_MICROSPECIES_CHARGE>
0.0016762525771515174

> <JCHEM_AVERAGE_POLARIZABILITY>
38.03700379963375

> <JCHEM_BIOAVAILABILITY>
1

> <JCHEM_DONOR_COUNT>
0

> <JCHEM_FORMAL_CHARGE>
0

> <JCHEM_GHOSE_FILTER>
1

> <JCHEM_IUPAC>
methyl (2S)-2-[2-(acetyloxy)-4H,5H,6H,7H-thieno[3,2-c]pyridin-5-yl]-2-(2-chlorophenyl)acetate

> <ALOGPS_LOGP>
3.67

> <JCHEM_LOGP>
3.8050208539999995

> <ALOGPS_LOGS>
-4.99

> <JCHEM_MDDR_LIKE_RULE>
1

> <JCHEM_NEUTRAL_CHARGE>
0

> <JCHEM_NUMBER_OF_RINGS>
3

> <JCHEM_PHYSIOLOGICAL_CHARGE>
0

> <JCHEM_PKA_STRONGEST_BASIC>
4.225068056640948

> <JCHEM_POLAR_SURFACE_AREA>
55.839999999999996

> <JCHEM_REFRACTIVITY>
95.21929999999999

> <JCHEM_ROTATABLE_BOND_COUNT>
6

> <JCHEM_RULE_OF_FIVE>
1

> <ALOGPS_SOLUBILITY>
3.86e-03 g/l

> <JCHEM_TRADITIONAL_IUPAC>
revaprazan

> <JCHEM_VEBER_RULE>
0

> <DRUGBANK_ID>
DB16349

> <DRUG_GROUPS>
investigational

> <GENERIC_NAME>
Vicagrel

$$$$
