
  Mrv1652310201623522D          

 35 38  0  0  0  0            999 V2000
   -5.7158   11.5500    0.0000 C   0  0  0  0  0  0  0  0  0  0  0  0
   -5.0013   11.1375    0.0000 C   0  0  0  0  0  0  0  0  0  0  0  0
   -4.2868   11.5500    0.0000 C   0  0  0  0  0  0  0  0  0  0  0  0
   -3.5724   11.1375    0.0000 C   0  0  0  0  0  0  0  0  0  0  0  0
   -3.5724   10.3125    0.0000 C   0  0  0  0  0  0  0  0  0  0  0  0
   -4.2868    9.9000    0.0000 C   0  0  0  0  0  0  0  0  0  0  0  0
   -5.0013   10.3125    0.0000 N   0  0  0  0  0  0  0  0  0  0  0  0
   -2.8579    9.9000    0.0000 O   0  0  0  0  0  0  0  0  0  0  0  0
   -2.8579    9.0750    0.0000 C   0  0  0  0  0  0  0  0  0  0  0  0
   -2.1434    8.6625    0.0000 C   0  0  0  0  0  0  0  0  0  0  0  0
   -2.1434    7.8375    0.0000 C   0  0  0  0  0  0  0  0  0  0  0  0
   -2.8579    7.4250    0.0000 C   0  0  0  0  0  0  0  0  0  0  0  0
   -3.5724    7.8375    0.0000 C   0  0  0  0  0  0  0  0  0  0  0  0
   -3.5724    8.6625    0.0000 C   0  0  0  0  0  0  0  0  0  0  0  0
   -4.2868    9.0750    0.0000 C   0  0  0  0  0  0  0  0  0  0  0  0
   -2.8579    6.6000    0.0000 N   0  0  0  0  0  0  0  0  0  0  0  0
   -3.5724    6.1875    0.0000 C   0  0  0  0  0  0  0  0  0  0  0  0
   -3.5724    5.3625    0.0000 C   0  0  0  0  0  0  0  0  0  0  0  0
   -2.8579    4.9500    0.0000 C   0  0  0  0  0  0  0  0  0  0  0  0
   -2.8579    4.1250    0.0000 C   0  0  0  0  0  0  0  0  0  0  0  0
   -3.5724    3.7125    0.0000 C   0  0  0  0  0  0  0  0  0  0  0  0
   -4.2868    4.1250    0.0000 C   0  0  0  0  0  0  0  0  0  0  0  0
   -4.2868    4.9500    0.0000 C   0  0  0  0  0  0  0  0  0  0  0  0
   -5.0013    5.3625    0.0000 N   0  0  0  0  0  0  0  0  0  0  0  0
   -5.0013    6.1875    0.0000 C   0  0  0  0  0  0  0  0  0  0  0  0
   -4.2868    6.6000    0.0000 N   0  0  0  0  0  0  0  0  0  0  0  0
   -2.1434    3.7125    0.0000 C   0  0  0  0  0  0  0  0  0  0  0  0
   -2.1434    2.8875    0.0000 C   0  0  0  0  0  0  0  0  0  0  0  0
   -1.4289    2.4750    0.0000 C   0  0  0  0  0  0  0  0  0  0  0  0
   -0.7145    2.8875    0.0000 N   0  0  0  0  0  0  0  0  0  0  0  0
    0.0000    2.4750    0.0000 C   0  0  0  0  0  0  0  0  0  0  0  0
    0.0000    1.6500    0.0000 O   0  0  0  0  0  0  0  0  0  0  0  0
    0.7145    2.8875    0.0000 C   0  0  0  0  0  0  0  0  0  0  0  0
    1.4289    2.4750    0.0000 O   0  0  0  0  0  0  0  0  0  0  0  0
    2.1434    2.8875    0.0000 C   0  0  0  0  0  0  0  0  0  0  0  0
  1  2  1  0  0  0  0
  2  3  2  0  0  0  0
  3  4  1  0  0  0  0
  4  5  2  0  0  0  0
  5  6  1  0  0  0  0
  6  7  2  0  0  0  0
  2  7  1  0  0  0  0
  5  8  1  0  0  0  0
  8  9  1  0  0  0  0
  9 10  2  0  0  0  0
 10 11  1  0  0  0  0
 11 12  2  0  0  0  0
 12 13  1  0  0  0  0
 13 14  2  0  0  0  0
  9 14  1  0  0  0  0
 14 15  1  0  0  0  0
 12 16  1  0  0  0  0
 16 17  1  0  0  0  0
 17 18  1  0  0  0  0
 18 19  2  0  0  0  0
 19 20  1  0  0  0  0
 20 21  2  0  0  0  0
 21 22  1  0  0  0  0
 22 23  2  0  0  0  0
 18 23  1  0  0  0  0
 23 24  1  0  0  0  0
 24 25  2  0  0  0  0
 25 26  1  0  0  0  0
 17 26  2  0  0  0  0
 20 27  1  0  0  0  0
 27 28  2  0  0  0  0
 28 29  1  0  0  0  0
 29 30  1  0  0  0  0
 30 31  1  0  0  0  0
 31 32  2  0  0  0  0
 31 33  1  0  0  0  0
 33 34  1  0  0  0  0
 34 35  1  0  0  0  0
M  END
> <DATABASE_ID>
DB12302

> <DATABASE_NAME>
drugbank

> <SMILES>
COCC(=O)NC\C=C\C1=CC=C2N=CN=C(NC3=CC=C(OC4=CC=C(C)N=C4)C(C)=C3)C2=C1

> <INCHI_IDENTIFIER>
InChI=1S/C27H27N5O3/c1-18-13-21(8-11-25(18)35-22-9-6-19(2)29-15-22)32-27-23-14-20(7-10-24(23)30-17-31-27)5-4-12-28-26(33)16-34-3/h4-11,13-15,17H,12,16H2,1-3H3,(H,28,33)(H,30,31,32)/b5-4+

> <INCHI_KEY>
LLVZBTWPGQVVLW-SNAWJCMRSA-N

> <FORMULA>
C27H27N5O3

> <MOLECULAR_WEIGHT>
469.545

> <EXACT_MASS>
469.211389749

> <JCHEM_ACCEPTOR_COUNT>
6

> <JCHEM_ATOM_COUNT>
62

> <JCHEM_AVERAGE_POLARIZABILITY>
52.10359894210194

> <JCHEM_BIOAVAILABILITY>
1

> <JCHEM_DONOR_COUNT>
2

> <JCHEM_FORMAL_CHARGE>
0

> <JCHEM_GHOSE_FILTER>
0

> <JCHEM_IUPAC>
2-methoxy-N-[(2E)-3-[4-({3-methyl-4-[(6-methylpyridin-3-yl)oxy]phenyl}amino)quinazolin-6-yl]prop-2-en-1-yl]acetamide

> <ALOGPS_LOGP>
4.49

> <JCHEM_LOGP>
3.767261328000001

> <ALOGPS_LOGS>
-5.32

> <JCHEM_MDDR_LIKE_RULE>
1

> <JCHEM_NUMBER_OF_RINGS>
4

> <JCHEM_PHYSIOLOGICAL_CHARGE>
0

> <JCHEM_PKA>
16.562171909766004

> <JCHEM_PKA_STRONGEST_ACIDIC>
14.714443220102638

> <JCHEM_PKA_STRONGEST_BASIC>
5.194708730425857

> <JCHEM_POLAR_SURFACE_AREA>
98.26

> <JCHEM_REFRACTIVITY>
136.006

> <JCHEM_ROTATABLE_BOND_COUNT>
9

> <JCHEM_RULE_OF_FIVE>
1

> <ALOGPS_SOLUBILITY>
2.23e-03 g/l

> <JCHEM_TRADITIONAL_IUPAC>
2-methoxy-N-[(2E)-3-[4-({3-methyl-4-[(6-methylpyridin-3-yl)oxy]phenyl}amino)quinazolin-6-yl]prop-2-en-1-yl]acetamide

> <JCHEM_VEBER_RULE>
0

> <DRUGBANK_ID>
DB12302

> <DRUG_GROUPS>
investigational

> <GENERIC_NAME>
CP-724714

$$$$
