
  Mrv1652305311723052D          

 28 31  0  0  0  0            999 V2000
    1.4289    4.9500    0.0000 C   0  0  0  0  0  0  0  0  0  0  0  0
   -0.7145    1.2375    0.0000 C   0  0  0  0  0  0  0  0  0  0  0  0
    0.7145    4.5375    0.0000 C   0  0  0  0  0  0  0  0  0  0  0  0
    2.1434    4.5375    0.0000 C   0  0  0  0  0  0  0  0  0  0  0  0
    0.0000    0.8250    0.0000 C   0  0  0  0  0  0  0  0  0  0  0  0
   -0.7145    2.0625    0.0000 C   0  0  0  0  0  0  0  0  0  0  0  0
   -0.7145   -0.4125    0.0000 C   0  0  0  0  0  0  0  0  0  0  0  0
   -0.7145   -1.2375    0.0000 C   0  0  0  0  0  0  0  0  0  0  0  0
    0.7145    3.7125    0.0000 C   0  0  0  0  0  0  0  0  0  0  0  0
    2.1434    3.7125    0.0000 C   0  0  0  0  0  0  0  0  0  0  0  0
    0.7145    1.2375    0.0000 C   0  0  0  0  0  0  0  0  0  0  0  0
    0.0000    2.4750    0.0000 C   0  0  0  0  0  0  0  0  0  0  0  0
    0.0000    0.0000    0.0000 C   0  0  0  0  0  0  0  0  0  0  0  0
    0.0000   -1.6500    0.0000 C   0  0  0  0  0  0  0  0  0  0  0  0
    2.1434    2.0625    0.0000 C   0  0  0  0  0  0  0  0  0  0  0  0
    2.1434    1.2375    0.0000 C   0  0  0  0  0  0  0  0  0  0  0  0
    2.8579   -0.0000    0.0000 C   0  0  0  0  0  0  0  0  0  0  0  0
    1.4289    3.3000    0.0000 C   0  0  0  0  0  0  0  0  0  0  0  0
    0.7145    2.0625    0.0000 C   0  0  0  0  0  0  0  0  0  0  0  0
    1.4289    2.4750    0.0000 C   0  0  0  0  0  0  0  0  0  0  0  0
    0.7145   -0.4125    0.0000 C   0  0  0  0  0  0  0  0  0  0  0  0
    0.7145   -1.2375    0.0000 C   0  0  0  0  0  0  0  0  0  0  0  0
    2.1434   -0.4125    0.0000 C   0  0  0  0  0  0  0  0  0  0  0  0
    1.4289   -0.0000    0.0000 C   0  0  0  0  0  0  0  0  0  0  0  0
    3.5724   -0.4125    0.0000 N   0  0  0  0  0  0  0  0  0  0  0  0
    1.4289    0.8250    0.0000 N   0  0  0  0  0  0  0  0  0  0  0  0
    1.4289   -1.6500    0.0000 N   0  0  0  0  0  0  0  0  0  0  0  0
    2.1434   -1.2375    0.0000 N   0  0  0  0  0  0  0  0  0  0  0  0
  3  1  2  0  0  0  0
  4  1  1  0  0  0  0
  5  2  2  0  0  0  0
  6  2  1  0  0  0  0
  8  7  2  0  0  0  0
  9  3  1  0  0  0  0
 10  4  2  0  0  0  0
 11  5  1  0  0  0  0
 12  6  2  0  0  0  0
 13  7  1  0  0  0  0
 14  8  1  0  0  0  0
 16 15  1  0  0  0  0
 18  9  2  0  0  0  0
 18 10  1  0  0  0  0
 19 11  2  0  0  0  0
 19 12  1  0  0  0  0
 20 15  2  0  0  0  0
 20 18  1  0  0  0  0
 20 19  1  0  0  0  0
 21 13  2  0  0  0  0
 22 14  2  0  0  0  0
 22 21  1  0  0  0  0
 23 17  1  0  0  0  0
 24 21  1  0  0  0  0
 24 23  2  0  0  0  0
 25 17  1  0  0  0  0
 26 16  2  0  0  0  0
 26 24  1  4  0  0  0
 27 22  1  0  0  0  0
 28 23  1  0  0  0  0
 28 27  2  0  0  0  0
M  END
> <DATABASE_ID>
DB02882

> <DATABASE_NAME>
drugbank

> <SMILES>
NCC1=C(N=CC=C(C2=CC=CC=C2)C2=CC=CC=C2)C2=CC=CC=C2N=N1

> <INCHI_IDENTIFIER>
InChI=1S/C24H20N4/c25-17-23-24(21-13-7-8-14-22(21)27-28-23)26-16-15-20(18-9-3-1-4-10-18)19-11-5-2-6-12-19/h1-16H,17,25H2

> <INCHI_KEY>
CUWRVIIPSSUUDJ-UHFFFAOYSA-N

> <FORMULA>
C24H20N4

> <MOLECULAR_WEIGHT>
364.452

> <EXACT_MASS>
364.16879666

> <JCHEM_ACCEPTOR_COUNT>
4

> <JCHEM_ATOM_COUNT>
48

> <JCHEM_AVERAGE_POLARIZABILITY>
40.77603659569395

> <JCHEM_BIOAVAILABILITY>
1

> <JCHEM_DONOR_COUNT>
1

> <JCHEM_FORMAL_CHARGE>
0

> <JCHEM_GHOSE_FILTER>
1

> <JCHEM_IUPAC>
{4-[(3,3-diphenylprop-2-en-1-ylidene)amino]cinnolin-3-yl}methanamine

> <ALOGPS_LOGP>
4.17

> <JCHEM_LOGP>
3.957552183333334

> <ALOGPS_LOGS>
-6.19

> <JCHEM_MDDR_LIKE_RULE>
0

> <JCHEM_NUMBER_OF_RINGS>
4

> <JCHEM_PHYSIOLOGICAL_CHARGE>
1

> <JCHEM_PKA_STRONGEST_BASIC>
7.4852413765604915

> <JCHEM_POLAR_SURFACE_AREA>
64.16

> <JCHEM_REFRACTIVITY>
126.1686

> <JCHEM_ROTATABLE_BOND_COUNT>
5

> <JCHEM_RULE_OF_FIVE>
1

> <ALOGPS_SOLUBILITY>
2.33e-04 g/l

> <JCHEM_TRADITIONAL_IUPAC>
{4-[(3,3-diphenylprop-2-en-1-ylidene)amino]cinnolin-3-yl}methanamine

> <JCHEM_VEBER_RULE>
0

> <DRUGBANK_ID>
DB02882

> <SECONDARY_ACCESSION_NUMBERS>
EXPT02227

> <DRUG_GROUPS>
experimental

> <GENERIC_NAME>
Cyanocinnoline

$$$$
