
  Mrv1909 11252119182D          

 11 11  0  0  0  0            999 V2000
   -1.0670    0.6159    0.0000 C   0  0  0  0  0  0  0  0  0  0  0  0
   -1.0670   -0.2094    0.0000 C   0  0  0  0  0  0  0  0  0  0  0  0
   -0.3540   -0.6201    0.0000 C   0  0  0  0  0  0  0  0  0  0  0  0
    0.3548   -0.2094    0.0000 C   0  0  0  0  0  0  0  0  0  0  0  0
    0.3548    0.6159    0.0000 C   0  0  0  0  0  0  0  0  0  0  0  0
   -0.3540    1.0308    0.0000 C   0  0  0  0  0  0  0  0  0  0  0  0
   -0.3540   -1.4455    0.0000 C   0  0  0  0  0  0  0  0  0  0  0  0
   -1.0695   -1.8562    0.0000 C   0  0  0  0  0  0  0  0  0  0  0  0
    0.3573   -1.8562    0.0000 C   0  0  0  0  0  0  0  0  0  0  0  0
   -0.3540    1.8562    0.0000 C   0  0  0  0  0  0  0  0  0  0  0  0
    1.0695   -0.6252    0.0000 O   0  0  0  0  0  0  0  0  0  0  0  0
  4  5  1  0  0  0  0
  5  6  1  0  0  0  0
  3  7  1  0  0  0  0
  1  2  1  0  0  0  0
  7  8  1  0  0  0  0
  1  6  1  0  0  0  0
  7  9  1  0  0  0  0
  2  3  1  0  0  0  0
  6 10  1  0  0  0  0
  3  4  1  0  0  0  0
  4 11  1  0  0  0  0
M  END
> <DATABASE_ID>
DB14123

> <DATABASE_NAME>
drugbank

> <SMILES>
CC(C)C1CCC(C)CC1O

> <INCHI_IDENTIFIER>
InChI=1S/C10H20O/c1-7(2)9-5-4-8(3)6-10(9)11/h7-11H,4-6H2,1-3H3

> <INCHI_KEY>
NOOLISFMXDJSKH-UHFFFAOYSA-N

> <FORMULA>
C10H20O

> <MOLECULAR_WEIGHT>
156.269

> <EXACT_MASS>
156.151415264

> <JCHEM_ACCEPTOR_COUNT>
1

> <JCHEM_ATOM_COUNT>
31

> <JCHEM_AVERAGE_NEUTRAL_MICROSPECIES_CHARGE>
0.1344358291420549

> <JCHEM_AVERAGE_POLARIZABILITY>
19.684808844340488

> <JCHEM_BIOAVAILABILITY>
1

> <JCHEM_DONOR_COUNT>
1

> <JCHEM_FORMAL_CHARGE>
0

> <JCHEM_GHOSE_FILTER>
0

> <JCHEM_IUPAC>
5-methyl-2-(propan-2-yl)cyclohexan-1-ol

> <ALOGPS_LOGP>
2.68

> <JCHEM_LOGP>
2.6642731470000007

> <ALOGPS_LOGS>
-2.45

> <JCHEM_MDDR_LIKE_RULE>
0

> <JCHEM_NEUTRAL_CHARGE>
0

> <JCHEM_NUMBER_OF_RINGS>
1

> <JCHEM_PHYSIOLOGICAL_CHARGE>
0

> <JCHEM_PKA_STRONGEST_ACIDIC>
19.54964736878105

> <JCHEM_PKA_STRONGEST_BASIC>
-0.8087842408951698

> <JCHEM_POLAR_SURFACE_AREA>
20.23

> <JCHEM_REFRACTIVITY>
47.445299999999996

> <JCHEM_ROTATABLE_BOND_COUNT>
1

> <JCHEM_RULE_OF_FIVE>
1

> <ALOGPS_SOLUBILITY>
5.58e-01 g/l

> <JCHEM_TRADITIONAL_IUPAC>
menthol natural

> <JCHEM_VEBER_RULE>
1

> <DRUGBANK_ID>
DB14123

> <DRUG_GROUPS>
approved

> <GENERIC_NAME>
Menthol

> <SYNONYMS>
(+-)-Menthol; (1R,2S,5R)-Menthol; DL-menthol; Hexahydrothymol; Menthol natural; Menthol racemic; Menthol racemique; p-Menthan-3-ol; Racementhol; Racementholum; Racementol

> <PRODUCTS>
0 Degrees Pain Relieving; 1st Medxpatch With Lidocaine 4%; 1st Medxpatch With Lidocaine 4%-rx; 1st RELIEF TOPICAL; 2 in 1 Relief Value Pack; 24 Alopecia Reliefshampoo; 24/7 Life Medicated Chest Rub; 2x Med Liq; 365 Whole Foods Market Anticavity/Antigingivitis Mouthwash; 365 Whole Foods Market Antigingivitis Mouthwash; 3X Medicated Mouth Sore Gel; 3X Medicated Toothache and Gum Gel; 3x Medicated Mouth Sore Gel; 3x Medicated Toothache and Gum Gel; 4125 First Aid Kit; 4204 First Aid Kit; 4210 First Aid Kit; 4221 First Aid Kit; 4230 First Aid Kit; 4232 First Aid Kit; 4240 First Aid Kit; 4241 First Aid Kit; 4242 First Aid Kit; 4248 First Aid Kit; 4257 First Aid Kit; 4329 First Aid Kit; 4338 First Aid Kit; 4339 First Aid Kit; 4355 First Aid Kit; 4356 First Aid Kit; 4357 First Aid Kit; 4Jointz; 4RLF Topical Analgesic; 4X Medicated Severe Toothache and Gum Cream; 4X Medicated Severe Toothache and Gum Gel; 4X Medicated Toothache and Gum Gel; 4oz Medicated Chest Rub; 4x Medicated Gum Cream; 4x Medicated Severe Toothache and Gum Gel; 4x Medicated Toothache and Gum Cream; 4x Medicated Toothache and Gum Gel; 701 Dieda Zhengtong Yaogao Medicated; 999 Itch Relief; A.C.C Fresh and Cooling Scalp Mist; AA Top Medicated; ABSORBINE jr. PLUS Knee; ABSORBINE jr. PLUS Pain Relief MICRO; ACTIBEAU Sports Massage; ACTIVE-PAC with Gabapentin; AI Tape; AIM Muscle Pain Relief Cream; AK47 Cooling Roll-On; AK47 Menthol Cooling Cream Packet; AK47 Menthol Warming; AL0040600 Alba Cooling Aloe Burn Relief; ALGOMEND Pain Relief; AMORAY Analgesic Gel; AMORAY Chest Rub; AMP RELIEF Pain Relief Cream; AMPlify Relief MM; AMULDY SPORTS gel; ANC Neverpain External Analgesic; ANTIVENOM Workout Enhancer Pain Relief Cream; ARCTIC ICE pain relieving; ARNIMAX Penetrating Pain Relief Gel; ARTHRO LIFE Instant Pain Relief Cream; ASTONEA Cold Ice Analgesic Gel; ASTONEA GREEN gel; ASTONEA Medicated Body Powder Powder; ASYSTEM Radical Relief Gel Roll-On 300mg CBD; ATOPALM Deep Penetrating Pain Relieving; Abee Med; Abejas y Viboras Brand Roll-On; Aboniki Balm - Topical Pain Relief Balm; Abridge Cold Sore Treatment; Absorbine; Absorbine BACK Therapeutic Pain Relief; Absorbine Jr; Absorbine Jr Pain Relief Wipes; Absorbine Jr Plus Ultra Strength Pain; Absorbine Jr Ultra Strength Pain Relieving; Absorbine Jr.; Absorbine Jr. Back; Absorbine Jr. Extra Strength; Absorbine Jr. Pain Relief; Absorbine Jr. Plus; Absorbine Ultra Strength; Absorbine jr. BACK; Aching Head Rub; Achy; Actaflex; Actisep; ActivICE; ActivOn Ultra Strength Arthritis; ActivOn Ultra Strength Joint and Muscle; Activate Joint and Muscle Relief; Active Again; Active HYDROGEN PROFESSIONAL cream; Active HYDROGEN Professional gel; Active Hydrogen Professional; AcuPlus Advanced Therapy for Pain and Recovery; AcuPlus Pain Relief; Advanced Antiseptic; Advanced Antiseptic Citrus; Advanced Cherry Flavored Cough Drops; Advanced Citrus; Advanced Citrus Antiseptic; Advanced Honey Lemon Cough Drops; Aeroburn Burn First Aid; Aewajin HasuoShampoo; Ageless Pain Relief; Air Salonpas; Air Sinsin Pas; Ak47 Menthol Cooling; Ak47 Menthol Warming; Albertson Lidocaine, Menthol Pain Relief Medicated Patch; Aldamed; Alegenix Biofrequency Chip; AleveX; Aleveer Patch; Alhua Huogan Pain Relieving Patch; Alivio; Alivio Medicated Pain; All Natural Eye Patch; AllG Essentials Pain Relief Fast-Acting Pain Roller; Allevess; Alleviate; Allure Ice Cold Analgesic; Allure Vaporizing Chest Rub; Alo Therapeutic Massage; Alo Therapeutic Massage Pain Relieving; Aloe Vera Gel; Aloemint Skin Aid; Amar Ice; Amar Vaporizing Chest Rub; Amber Mouth Rinse; Amerfresh Medicated; Ameri Patch; AmeriPatch; Amoray Care Chest Rub; Amrut Balm; Amrutanjan Relief Cold Rub; Amrutanjan Relief Pain Balm; Amrutanjan Relief Strong Pain Balm; Analgesic; Analgesic Balm; Angidol Cherry Flavor; Angidol Honey Lemon Flavor; Anitseptic Mouth Rinse; AnodyneRx; Anodynz; Anodynz Biofrequency Chip; Anti Itch; Anti Itch Maximum Relief; Anti-Intch Well at Walgreens; Anti-Itch; Antiseptic; Antiseptic Blue Mint; Antiseptic Blue Mint Mouthwash; Antiseptic Lil Drug Store Products; Antiseptic Mouth Rinse; Antiseptic Mouth Sore; Antiseptic Mouth rinse; Antiseptic Mouthrinse; Antiseptic Rinse; Antiseptic Rinse Spring Mint; Antispetic; Antispetic Mouth Rinse; Apanol Arthritis Extra Strength; Apanol Athletics; Apanol Muscle Rub; Apeaz Ultra; Aqua Blue Mouthwash; Aquacool; Aquacool Air; Aquacool Blue 120; Aquacool Blue 500; Aquacool Blue Roll; Aquacool Multi 120; Aquacool Multi 500; Aquacool Multi Roll; Aquacool Red 120; Aquacool Red 500; Aquacool Red Roll; Aquacool Shower; Arctic Blast Pain Drops; Arctic Blast Pain Releiving; Arctic Heat; Arctic Ice; Arctic Ice Analgesic; Arctic Ice Analgesic Gel; Arctic Ice Pain Relieving; Arctic Relief; Arctic Relief Pain Relieving; Arctic Relief Roll On; Arhtri Plus; Army Health Pain Reliever; Arneu; Arnica Ice Cooling; Arnica Pain Relief; Arnicool; Aromalief Calming Pain Relief Cream Lavender; Aromalief Lidocaine Roll On; Aromalief Pain Relief Cream Orange Ginger; Aromalief Soothing Pain Relief Cream Spearmint; Art Of Sport Pain Relieving Ultra Strength; Arthmed Topical Analgesic; Arthri-Zen Relief; Arthri-support; ArthriMed-Plus; ArthriPain Relief; Arthrit-ease; Arthritis Hot; Arthritis Pain Relieving Cream; Arthritis Plus Gel; Arthritis Relief; Arthritis Relief Cream; Arthritis Wonder; Arthritis and Joint Pain Relief Thayers; Artico Ice; Artrex; Asana Kisser; AsperFlex Advance; AsperFlex HOT; AsperFlex MAX; AsperFlex Original Maximum Strength; Aspercreme Heat; Aspercreme Max No Mess Roll On; Ass Kisser; Assorted Fruit Cough Drops; Assured; Assured Cold N Hot Pain Relief Menthol; Assured Extra Strength Cold n hot; Assured Ice Cold Topical Analgesic; Assured Medicated Body Powder; Assured Medicated Foot Powder; Assured Menthol Relief Stick; Assured Muscle Rub; Assured Pain Relief Hot Menthol; Assured Pain Relief Hot Patch; Assured VAPORIZING CHEST RUB; Assured Vaporizing Chest Rub; Asthma Aide Synergy; Astonea Chest Rub; Astronic; At One With Nature; Atendia; AthletesGel; Atomy Hair Treatment; Atopalm Moisturizing Muscle Rub; Atopalm Muscle and Joint; Atopalm Pain Relieving; Aulief Topical Pain Reliever; Aurora Blue Mint; Aurora Fresh Burst; Aurorae Healing Pain Relieving Roll-On; AvaDerm; Avalin External Analgesic Patch; Avalin-RX; Avance Cure Barrier; Avapta; Aveda Active Composition; Avedana Cool Hot Ice; Avedana Medicated Chest Rub; Avedana Pain Relief; Avedana Pain Relieving Roll On; Axe Brand Medicated; Ay Bendito - Thermoactive; BADASS BOTANICALS Hemp Pain Relief; BAMA Freeze; BAROX Body Care Massage Relax Refresh Revital; BAROX S 60g; BENGAY Pain Relief and Massage; BIOCOOL Tube Type; BIOFREEZE Pain Relieving; BL3 Mineral Ice Gel; BLUE SPRING Foot and Leg Comfort Cream with Pain Relief; BRAZILIAN MENTHOL Pain Relieving; BRAZILIAN MENTHOL Pain Relieving Roll On; BRONCOLIN Herbal extracts and Honey; BRONCOLIN Honey Eucalyptus; BRONCOLIN Honey Lemon; BabyGanics Cold Relief Chest Rub; Back Pain Relieving Oil; Back and Large Extra Strength Cold-Hot Medicated Patches; Bai Healing Cold Patch; Bai Healing Heat Patch; Baker's Best Maximum Strength Pain Relief; Bakers Best Arthritis Pain Relief; Balm Stick; Banalg; Barox; Barox Body Care Massage; Barox Massage; Barox S; Barrier Protectant Cream; Base Laboratories Numb Gel; Base Numb Topical Anesthetic; Base Numb Topical Anorectal; Basic Care Cherry Cough Drops; Basic Care Honey Lemon Cough Drops; Basic Care SF Honey Lemon Cough Drops; Basic Care SF Menthol Cough Drops; BeKoool Itch Relief; Bee Brand Medicated; Being Well Antiseptic; Being Well Extra Strength Menthol Heat; Bene Patch; BenePatch; Bengay Arthritis Pain Relieving; Bengay Cold Therapy; Bengay Cold Therapy With PRO-COOL technology; Bengay Greaseless; Bengay Greaseless Pain Relieving; Bengay Pain Relieving Greaseless; Bengay Ultra Strength Large Size; Bengay Ultra Strength Non Greasy Pain Relieving; Bengay Ultra Strength Non-greasy; Bengay Ultra Strength Pain Relieving Large Size; Bengay Ultra Strength Pain Relieving Regular Size; Bengay Ultra Strength Regular Size; Bengay Vanishing Scent; Bengay Vanishing Scent Pain Relieving; Bengay Zero Degrees Menthol Pain Relieving; Bentasil SUGAR FREE BLACKCURRANT SOFT Texture; Bentasil SUGAR FREE CHERRY SOFT Texture; Bentasil SUGAR FREE EUCALYPTUS SOFT Texture; Bentasil SUGAR FREE HONEY LEMON SOFT Texture; Benzocaine; Benzocaine, Menthol, Zinc Chloride; Beol Cho Long; Berri-Freez; Berri-Freez Plus; Berry Medley Throat Drops; Best Choice Medicated anti itch; Best Choice Sugar Free Cherry Cough Drops; Best Health Menthol Cough Drops; Best Health Severe Menthol Cough Drops; Best Health Sore Throat Relief Cherry Flavor; BestCo Inc.; BestHealth Cherry; BestHealth Cough Relief Honey Lemon Flavor; BestHealth Cough Relief Sugar Free Cherry Flavor; BestHealth Cough Suppressant SUGAR FREE BLACK CHERRY FLAVOR; BestHealth Cough Suppressant SUGAR FREE HONEY LEMON FLAVOR; BestHealth Herbal Cough Drops; BestHealth Honey Lemon; BestHealth Menthol; Better Nature Pain Relief Cream; Better Nature Pain Relief Sport Gel; Biifenac 1000; Biifenac 500; Bing Cherry - Cough Relief; Bing Cherry Cough Antitussif Relief Antitussif; Bio 2 Brazilian Heat Brazilian Heat; Bio Healing; Bio-Relief; Bio-Relief H; Bio-Scriptives Extreme PR; Bio-ice; Bio-mega; BioBlast Pain Relief; BioFlexor; BioFlexor 04; BioMega Cold Pain Therapy; BioRelief Ice Pain Relieving; Bioaches; Bioactil; Biocool Focus On; Biocool Roll Type; Bioease Pain Relieving Cold Therapy; Biofreeze; Biofreeze Colorless; Biofreeze Colorless Roll-On; Biofreeze Flexible Relief Strip; Biofreeze Foam; Biofreeze Foot; Biofreeze Foot Cream; Biofreeze Foot Pain Relief Set; Biofreeze Menthol; Biofreeze Overnight Relief; Biofreeze Pain Relief; Biofreeze Pain Relieving Wipes; Biofreeze Patch Multi Pack; Biofreeze Portable Dry Solid; Biofreeze Precision Relief Pen; Biofreeze Professional; Biofreeze Professional Colorless; Biofreeze Professional Colorless Roll-On; Biofreeze Professional Roll-On; Biofreeze Roll-On; Biotemper; Biotemper Foot Cream; Biovanta Trip Action Green Apple and Honey; Biovanta Trip Action Lemon and Honey; Biovanta Trip Action Tart Cherry and Honey; Black Cherry Cough Drops; Black Ice Medicated Patches; Black Repair Hair Boosting Tonic; Blade for Men Medicated Body Powder; Blister Balm; Blistex Complete Care (Blistex Lip Medex, Blistex Medicated Lip, Blistex Five Star Lip Protection Broad Spectrum, and Blistex Complete Moisture); Blistex Ivarest Medicated Poison Ivy Cleansing Foam; Blistex Lip; Blistex Lip Medex; Blistex Medicated; Blistex Medicated Lip Balm Variety Pack (Blistex Medicated Berry Lip Balm, Blistex Medicated Lip Balm, Blistex Medicated Lip); Blistex Medicated Variety Pack (Blistex Medicated Berry Lip Balm, Blistex Medicated Lip Balm, Blistex Medicated Lip); Blistex Odor Eaters Medicated Foot; Blitz Relief; Blue Analgesic Gel; Blue Gel Pain Relieving; Blue Ice; Blue Ice Analgesic; Blue Ice Analgesic Gel; Blue Ice Fermented Cod Liver Oil Calm Balm; Blue Ice Pain Relieving; Blue Ice Topical Analgesic; Body; Bon Balm Penetrating Pain Relief; Borasol; Boroleum; Boroleum for Nasal Soreness; Bortons Menticol; Botanika Life Pain Relief Roller; Botanika Life Soothing Pain Serum; Botanika Life Ultra-Relief Pain Rub; Bouquet Cooling Formula; Braline Patch; Brazilian Heat Brazilian Heat; Breathe Deeply; Breathiezzz; Bronco Rub; Broncolin; Budpack Muscle Rub; Budpak Medicated Anti Itch; Budpak Muscle Rub; Buenos Dias de Personna citrus flavour; Buenos Dias de Personna cool mint; Buenos Dias de Personna mint; Buenos Dias de Personna original; Bump and Bruise Reliever; Burn N Bite; Burn Relief; Burn Relief Extra Strength Kool-Down; Burn Relief Kol-Down; Burn Relief Max Strength; Burn Relief Professional Kool-Down; Burn Water Soluble; C-Patch; C-Patch Grande; C-Patch Insect; C.D.M.A Icy Cool; CAMPHOR, EUCALYPTUS OIL and MENTHOL; CANNA NUMB Pain Relief; CANNA NUMB Roll On; CANNABICIN Joint and Muscle Pain Relief; CAREALL Muscle Rub Ultra Strength; CAREALL Musle and Joint; CARMEX original lip balm EXTERNAL ANALGESIC; CBD BEE DOO Arthritis Relief; CBD Clinic - Massage Oil - Level 2; CBD Clinic - Massage Oil - Level 3; CBD Clinic - Moderate Muscle and Joint Pain Relief; CBD Clinic Deep Muscle and Joint Pain Relief; CBD Clinic Deep-Rub Pain Relief - Level 3; CBD Clinic Deep-Rub Pain Relief - Level 5; CBD Clinic Pain Relief - Level 3; CBD Clinic Pain Relief - Level 4; CBD Clinic Pain Relief - Level 5; CBD Clinic Pro Sport - Deep Muscle and Joint Pain; CBD Clinic Pro Sport - Pain Stick; CBD Clinic Revive Massage; CBD Clinic Ultimate Massage; CBD Cryotherapy Pain Relief Roll-On; CBD Global Freeze; CBD Medic - Active Sport Extreme Relief; CBD Medic - Arthritis Deep Relief; CBD Medic - Intense Powerful Relief; CBD Menthol Pain Relief Fast Acting Pain Roller; CBD PAIN RELIEF Cream; CBD Pain Freeze Roll-On; CBD Pain Freeze Shrink; CBD Pain Relief Clinical Strength Menthol Formula; CBD Pain Relief CopperGel; CBD Pain Relief Roll On; CBD4 pain relief cream; CBDMEDIC Active Sport Pain Relief; CBDMEDIC Active Sport Pain Relief Stick; CBDMEDIC Arthritis Aches and Pain Relief; CBDMEDIC Arthritis Pain Relief; CBDMEDIC Back and Neck Pain Relief; CBDMEDIC Foot Pain Relief; CBDMEDIC Foot and Ankle Pain Relief; CBDMEDIC Massage Therapy Pain Relief; CBDMEDIC Muscle and Joint Pain Relief; CBDaF Topical Gel; CBDezic; CEPASTAT Sore throat and Cough; CHRIOLOGY Relax Up; CMC Pain Relieving; CMX Topical Pain; CSI Cooling Patch; CU Pain Away Pain Relief; CVS 2x Liq (CSR); CVS Anti-Itch; CVS Cherry Cough Drops; CVS Chest Rub; CVS Cold Hot Medicated; CVS Cold and Hot; CVS Cold and Hot Pain Relieving Stick; CVS Cold and Hot Roll-On; CVS Extra Strength Cold and Hot Medicated; CVS Extra Strength Cold and Hot Medicated Patch; CVS Extra Strength Cold and Hot Pain Relieving; CVS Extra Strength Pain Relief; CVS Health Cold and Hot Pain Relieving Extra Strength; CVS Health Cold and Hot Roll-On; CVS Health Cold and Hot Roll-On Menthol; CVS Health Lidocaine Pain Relief Plus Menthol; CVS Health Medicated Chest Rub; CVS Health Muscle Balm; CVS Health Muscle Rub Ultra Strength; CVS Health Pain Relief; CVS Health Pain Relief Foot; CVS Health Pain Relieving; CVS Health Roll-On Foot Pain Relief; CVS Honey Lemon Cough Drops; CVS Hot and Cold Balm; CVS Lidocaine Pain Relief Dry; CVS Maximum Strength Cold and Hot Pain Relief Topical Analgesic; CVS Maximum Toothache Relief Double Medicated; CVS Medicated Anti-Itch; CVS Medicated Chest Rub Cherry Scent; CVS Medicated Chest Rub Lavender scent; CVS Medicated Chest Rub Lemon Scent; CVS Medicated Chest Rub Roll-On; CVS Medicated Pain Relieving; CVS Medicated anti itch; CVS Menthol Cough Drops; CVS Menthol Medicated Throat Drops; CVS Muscle Rub; CVS Pain Relief; CVS Pain Relieving; CVS Peppermint Mocha Cough Drops; CVS Pharmacy Cough Relief Honey Lemon Flavor; CVS Pharmacy Toothache and Gum Reliever; CVS Pomegranate Cough; CVS SF Honey Lemon Cough Drops; CVS SF Menthol Cough Drops; CVS Severe Toothache and Gum Relief Triple Medicated; CVS Soothing Itch Relief; CVS Sore Muscle Rub Vanishing Scent; CVS Therapeutic Menthol Gel; CVS Therapeutic Menthol Pain Reliever; CVS Tropical Citrus Cough; CVS Tropical Fruit Cough Drops; CVS Ultra Strength Pain Relieving; CVS Vanishing Scent Muscle Rub; CVS Watermelon Cough; CVS Watermelon Cough Drops; CVS cold and Hot; CYHOT Cream with Lidocaine Well at WAlgreens; Cajun Hot Ice Muscle and Joint Pain Rub; Caladrox; CalmaFX Moisture Barrier; Calmadol; Calmodrox; Calmoseptine; Calorub; Calypxo HP Pain Relief; Calypxo Pain Relief; Camphomex; Camphor, Menthol; Camphotrex; Camphotrol; Canker Care Plus; Canker Complete Canker Sore Relief; CannaSerene Hot and Cold CBD Cream; Capasil Pain Relieving; Capment; Capsiderm; Captracin; Capxib; Capzasin Quick Relief; Caramel Apple Cough Drop; Care One Cool Heat Extra Strength; Care One Cool Heat Pain Relieving; Care One Pain Relief; CareAll Medicated Chest Rub; CareAll Vaporizing Chest Rub; CareOne Cold Sore Treatment; CareOne Cold and Hot; Careone Extra Strength Cold and Hot; Caring Mill Chest Rub; Carione Rg Toner; CarvaNum; Castiva Cooling; Cbd Cryotherapy Pain Relief; Cbd Unlimited Balm Topical Analgesic; Cbd Unlimited Balmx; Cbd Unlimited Balmx Topical Analgesic; Cbd Unlimited Mistx; Cbd Unlimited Mistx Topical Analgesic; Cbd Unlimited Topical Analgesic; Cbd-kings With Lidocaine 4%; Cbd4 Freeze Pump Vanishing Scent; Cbdmedic Back and Neck Relief; Cbdmedic Massage Therapy; Celadrin; Celadrin Joint and Muscle Pain Relieving; Celgen Advanced Hair Tonic; Cellandir Scalp Ampoule; Cellapy Haircell; Cellapy Haircell Meso Tonic; Cellbn Mega Plus; Cellulitica Synergy; Centipaine for Pain Control; Cepacol Extra Strength Sore Throat Cherry; Cepacol Extra Strength Sore Throat Tangerine; Cepacol Extra Strength Sore Throat cherry; Cepacol Extra Strength Sore Throat honey lemon; Cepacol Extra Strength Sore Throat sugar free cherry; Cepacol InstaMax Sore Throat Berry Frost Sugar Free; Cepacol Instamax Sore Throat Arctic Cherry; Cepacol Sensations Cooling; Cepacol Sensations Sore Throat Cooling ice cool; Cepacol Sore Throat; Cepacol Sore Throat Maximum Numbing Cherry; Cepacol Sore Throat Maximum Numbing Citrus; Cepacol Sore Throat Maximum Numbing Honey Lemon; Cepacol Sore Throat Maximum Numbing Sugar Free Cherry; Cepacol Sore Throat Regular Strength; Cepacol Sore Throat from Post Nasal Drip; Ceracos The Black; Ceracos The Black Hair Tonic; Chamosyn; Chamosyn Paraben Free; Chan Yat Hing She Kun Wool Lok Medicated Oil; ChapIce Medicated Balm; Chapstick Classic Medicated; Chapstick Medicated; Cherry Cough Drop; Cherry Cough Drops; Cherry Cough Drops 100ct; Cherry Cough Drops 50ct; Cherry Liquid Center Cough Drops; Cherry Sore Throat Lozenge; Cherry Sore Throat Lozenges; Cherry Sore Throat Lozenze; Cherry Sore Throat Relief Lozenge; Cherry Therastat; Cherry Throat Drops; Cherry Throat Relief Lozenges; Cherry cough drop; Cherry cough drops; Chest Comfort; Chest Rub; Chest Rub Vaporizing; Chest Rub Vaporizing Action; Chest Rub and Cough Suppressant; Chestrub; Chi Kung Huo Shiueh Kao; ChigaRid; Chigarid; China-Gel; China-Gel Topical Pain Reliever; Ching Wan Hung Soothing Herbal Balm; Chloraseptic; Chloraseptic Max; Chloraseptic Sore Throat Liquid Center; Chloraseptic Sore Throat Max Liquid Center; Chloraseptic Total Sore Throat and Cough; Chloraseptic Total Sore Throat and Cough, Sugar Free; Chloraspetic; Cho-a PAP; Choice Personal Care Theraputic Blue Ice; Choice Personal Care Vapor Rub; Chondro-Pro Pain Relief Roll On; Chun Gi So; Clean Remedies CR Pain Relief; Clear Skin Clarifying Cleanser; CliniStat Pain Relieving; Co Cool; Cold Hot Patch; Cold Leaf Nutrition Muscle and Joint Pain Relief; Cold Pain Relieving; Cold Rub; Cold Sore Support; Cold Sore Treatment; Cold Spot Point Relief; Cold Therapy; Cold Therapy Pain Relief; Cold Therapy Pain Relief 360 Meijer; Cold Therapy Pain Relief Medicated GNP; Cold Therapy Pain Relief Meijer; Cold Therapy Pain Relief Roll-On Meijer; Cold Zone Pain Relieving Gel- DG Health; Cold Zone Pain Relieving Gel- Rite Aid; Cold and Heat Lidocaine Patch Plus Menthol; Cold and Heat Pain Relieving Cream; Cold and Hot; Cold and Hot CVS; Cold and Hot Medicated; Cold and Hot Medicated Large; Cold and Hot Medicated Pain Relief Large; Cold and Hot Medicated Pain Relief Small; Cold and Hot Medicated Patch; Cold and Hot No Mess Medicated; Cold and Hot Pain Relief; Cold and Hot Pain Relief Sleeve; Cold and Hot Scherer Labs; Cold and Hot paim relieving CareOne; Cold-Hot Medicated Patches; Cold/Cough; Cold/Hot Medicated Patches; Coldaid; Coldsore Bomb; Comfort EZ Extra Strength Pain Relief Patch; Comfort EZ Extra StrengthTransdermal Patch; Comfort EZ Pain Relief Patch; Comfort and Ease; Complete Fortify; Complete hemp; Conquer Pain Relief Cream; Control Menstrual Cramp Relief; Cool Breeze; Cool Freeze; Cool Heat; Cool Hot Ice Analgesic Gel; Cool N Heat Lidocaine Dry; Cool Relief Lemon Frost Oral Anesthetic; Cool Relief Oral Anesthetic; Cool and Heat; Cool and Heat Evora Labs; Cool and Heat Pain Relieving Liquid; Cool and Heat Sore Muscle Roller; Cool and Heat Sore Muscle Roller Evora Labs; Cool n Heat; Cool n Heat Patch for Arm, Neck and Leg Extra Strength; Cool n Heat Patch for Back Extra Strength; Cool n Heat Well at Walgreens; Cooling; Cooling Epsom Rub; Cooling Pain Relief 3% Menthol Cream; Cooln Heat Micro Well at Walgreens; Cooln Heat Muscle Rub Well at Walgreens; CopperGel; Copperlife Pain Relief Liquid; Coral Analgesic; Coralite Blue Ice; Coralite Cold and Hot; Coralite Cold and Hot Medicated; Coralite Extra Strength Cool and Hot; Coralite Extra Strength Pain Relief Sleeve Knee; Coralite Extra Strength Pain Relief Sleeve Wrist; Coralite Muscle Joint; Coralite Muscle and Joint Pain Relief; Coralite Pain Relief; Coralite Pain Relief Hot; Coralite Pain Relief Stick; Coralite Ultra Strength Pain Relief; Corisin Arthritis Pain Relief; Cough Drop; Cough Drop Honey Lemon; Cough Drops; Cough Drops Cherry with Sugar; Cough Drops Honey Lemon with Sugar; Cough Drops Menthol Sugar Free; Cough Suppressant and Topical Analgesic; CounterAct Cough Drops Honey Lemon; CounterAct Cough Drops Orchard Cherry; Cramergesic; Crane Safety Cherry Cough Drops; Creations Garden Pain Relief Roll On; Cryofreeze Roll-On Extra Strength; Cryofreeze Roll-On Regular Strength; Cryofreeze Sport Icy Cold Roll-on; Cryogel Island Rain Natural Pain Relieving Vitaminerals; Crystal Chest Rub; Curetech Cold Ice Analgesic Gel; Cvs Anti Itch; Cvs Cold and Hot Medicated XL; Cvs Extra Strength Cold And Hot Medicated; Cvs Vanishing Scent Muscle Rub; Cycle; CyclobenzaprinePax; DAREDEVIL STRENGTH Muscle and Arthritis Pain Relieving; DAREDEVIL STRENGTH Muscle and Arthritis Pain Relieving Roll On; DCH Labs Cool and Heat Roll-On; DDM Herbal Cough Drop; DFS 75mg DR/MS 25%/MENTH 6%/CAP 0.025% PAK; DG 3x Medicated Toothache adn Gum Gel; DG 4x Medicated Tooth and Gum Cream; DG Health Cold Zone Pain Relieving Topical Analgesic; DG Health Cold n Hot Pain Relieving Topical Analgesic; DG Health Cough Drops Assorted Flavors; DG Health Cough Drops Cherry Flavor; DG Health Extra Strength Medicated; DG Health Maximum Toothache Relief; DG Health Medicated Anti-Itch Analgesic; DG Health Pain Relieving; DG Ice Cold Analgesic; DINGTAI PHARMATopical Analgesic; DIRT Pain Relieving Gel; DISCOUNT DRUG MART Original Flavor Mouthwash; DR JOE LAB PMS Menstrual Pain Relief Oil; DR. MIKES Ponos Pain Relief Cream Roll-On; DT Ice Cold Analgesic; DT Vaporizing Chest Rub; Dabur Honitus Herbal Cough Drops Ginger; Dabur Honitus Herbal Cough Drops Honey; Dabur Honitus Herbal Cough Drops Lemon; Dabur Honitus Herbal Cough Drops Mint; Dabur Honitus Herbal Cough Drops Orange; Dakota Muscle Relief; Dakota Muscle Relief Roll-On; Dancers Select; Ddsgen; Debbies Down and Dirty Deep Tissue Joint and Muscle; DeeDol Topical Analgesic; Deep Blue Copaiba; Deep Remedy; Delsym Cough Plus Soothing Action; Delsym Cough Relief Plus Soothing Action; Delsym No Mess Vapor Roll On; DenTek Canker Cover; DenTemp Canker Sore Single Dose; Dendracin Neurodendraxcin; Denorex Therapeutic; Dental C-Patch; Dentek Canker Cover; Dentemp Canker Cover; DermacinRx DPN Pak; DermacinRx Lexifen; Dermapak Plus; Dermawerx Zmt Pak; Dermoplast Anesthetic Pain Relieving Antibacterial; Dermoplast Anesthetic Pain and Itch; Dermoplast Pain Relieving; Dermoplast Pain relieving; Dfs 1.5%/ms 25%/menth 6%/cap 0.025% Pak; Dg Health Extra Strength Medicated; DiMentho; Diabetic Tussin Cough Drops; Diapedic Foot Treatment; Diapedic Foot and Leg Treatment; Diaper Cream; Diaperene Adult; DicloPR; Diclostream; Diclotrex; Diclovix CM; Diclovix M; Dieda Fengshi Gao Medicated; DiolPure Menthol Pain Relief Cream; Discount Drug Mart Anti-Itch; Discount Drug Mart Blue Mint Mouthwash; Discount Drug Mart Spring Mint Mouthwash; Dit Da Shui; Doans Pain Relieving; Doctor Hoys Natural Pain Relief; DoctorRelief; Doctors Touch ERASE THE PAIN; DolFrost Cool and Soothing Roll-On; Dollar General Cherry Cough Drops; Dollar General Cold-Hot Medicated Patches; Dollar General Honey Lemon Cough Drops; Dollar General Medicated Pain Relief Patch; Dolor-parche With Lidocaine-RX; Doloracin Rx; Doloracin/l Rx With Lidocaine; Doloran; Dorflex Icy Hot Flexible, Large; Dorflex Icy Hot Flexible, Small; Double Prawn Brand Herbal Oil; Douleurin Ice Pain Relief; Douleurin Topical Pain Relief; Dpheal Sul 16 Cool; Dr Bob Arnots Pain; Dr Bump gel 16; Dr Bump gel 4; Dr Demand Relief Pain Relief; Dr Goldsons; Dr Greenes Good Stuff Pain Relief Roll On; Dr Hos Pain Aid 5x Active Strength; Dr Hos Pain Relief Maximum Strength; Dr Iyers MyoRub; Dr MINERAL Anti-Itch; Dr MINERAL Anti-Itch Spray; Dr PAINES Pain Relief; Dr Sheffield Muscle Rub Cream; Dr Tans Arthritis Formula 3 day Patch; Dr Waltons Vapor Rub; Dr Wolfes Cool Therapy; Dr. Blue; Dr. Carrasco Pain Relief; Dr. Ds Super 7 Pain Relief; Dr. Hess Pain Relief; Dr. J.I.s Arthritis Plus Gel; Dr. JIs Arthritis Plus; Dr. OH BALM; Dr. OH PATCH; Dr. Phillips Formulations Muscle Joint Relief; Dr. Sheffield Barrier Cream; Dr. Sheffield Vapor Cream; Dr. Spensers Natural Herbal Pain Relief; Dr. Teals; Dr. Teals Pre and Post Workout Pain Relief; Dr. Waltons Cool and Hot Analgesic; Dr. Wolfes Warm Therapy; Dr.Graft; Dr.bro MAN OF SENSE Mans Cleanser; Dr.oh Patch; Dragon; Dragon Pain Relief; Dragon with Arnical Pain Relief; Dream Cream; Dry and Itchy Skin Relief Thayers; Dual Action Cherry Cough Suppressant Oral Anesthetic; Dual Action Glacier Mint Cough Suppressant Oral Anesthetic; Dual Action Honey Lemon Cough Suppressant Oral Anesthetic; Duane Reade Aloe Vera Pain Relieving; Duane Reade hot and cold balm; Dusel Cool Arthritis Dead Sea Salt Therapy; DynaRub; Dynarex Muscle Rub Cream; Dyninex; Dyve Comfort B; Dyve Comfort L; Dzul - Lido Creme Maximum Strength; E Mei Shan Medicated; EFAC Pain Relieving; EFAC Pain Relieving Cream; EH Hair Plus Regeneration Hair Care; EH Plus H2CO3 Cool; ENDOCAN RELIEF Roll-On; EQUILIBRIUM CBD Pain Relief Balm; EXTRA STRENGTH AND MUSCLE RELIEF 900 mg; EXTRA STRENGTH JOINT AND MUSCLE RELIEF 1500 mg; EXTRA STRENGTH eez-away; Eagle; Eagle Balm; Eagle Extra Strength; Eagle Green Balm; Eagle Medicated; Eagle Medicated Aromatic; Eagle Medicated Oil Refreshing; Earths Best Cold Relief Vapor; Earths Care Anti-Itch; Earths Care Anti-itch; Earths Care Hemorrhoid Relief; Earths Care Pain Relieving; Ease Your Pain; Easter Scalp Tonic; Easy; Eb301ap Pain Relief; Eb301ct Bruise Pain Relief; Eb302 Arthritis Relief; Ecolyptus Pain Relieving Muscle Rub; Elastic Relief Strip; Electric Medicated Balm; Elemar Patch; Elevate Cbd Heating Therapy; Elevate Cbd Warming Therapy; Elevate Heating Therapy TWIST UP; Elgin Pain Relief; Elixicure All Natural Lavender; Elixicure All Natural Original; Elixicure Lavender with CBD; Elixicure Original with CBD; Embrace Anti-itch Skin Protectant With Calamine and Menthol; Emerita Menstrual Comfort Cream; Endonesic; Endoxcin; Equaline Blue Ice Pain Relieving; Equaline Cold and Hot Medicated Large; Equaline Cold and Hot Medicated Small; Equaline Muscle Rub; Equaline cool heat; Equaline muscle rub ultra strength; Equate Barrier Cream; Equate Childrens Vaporizing; Equate Cold Therapy Pain Relieving Analgesic; Equate Cold Therapy Pain Relieving Roll-on Analgesic; Equate Cool and Heat; Equate Cool and Heat Extra Strength; Equate Cool and Heat Pain Relieving Liquid; Equate Lidocaine Cool and Heat; Equate Medicated Dry and Itch; Equate Menthol Pain Relieving; Equate Menthol extra strength; Equate Organic Honey Strawberry Cough Drop; Equate Pain Relief Balm; Equate Pain Relief Patch Camphor/Menthol/Salicylate; Equate Pain Relieving; Equate Pain Relieving Ultra Strength; Equate Tartar Control Plus; Equate Vaporizing; Eros Iron Man; Eternal Spirit Beauty Painless Pain Relieving Cream; Eucalyptamint; Eucamint; Eucerin Calming Itch Relief Treatment; Eucerin Itch Relief Intensive Calming; Eucerin Skin Calming; Eucerin Skin Calming Itch Relief Treatment; Evel Knievels Natural Choice Pain Relief; Evels Secret Natural Pain Relief Daredevil Strength; Everflex Topical Analgesic Pain Relief with MSM; ExaltHemp Hot and Cold Pain Cream; Exchange Select Cold Sore Treatment; Exchange Select Cool Heat; Exchange Select SF Cherry Cough Drops; Exigence; Exigence One Patch; Exoten-C; External Analgesic; Extra Large Cool and Heat Patch; Extra Strength; Extra Strength Cold and Hot Menthol Patch; Extra Strength Cold n Hot Pain Relief Medicated; Extra Strength Cold-Hot Medicated Patches; Extra Strength Hua Tuo Medicated Plaster; Extra Strength Hua Tuo Pain Relief; Extra Strength Hua Tuo Pain Relieving; Extra Strength Medicated Body; Extra Strength Pain Relief Cream; Extra Strength Pain Relief Therapy; Extra Strength Pain Reliever; Extra Strength Stopain Cold Pain Relieving; Extra Strength Stopain Cold Pain Relieving Roll On; Extra Strength With Natural Menthol Glacier Mint Cough Suppressant; Ez Massager 2 Original; Ez Massager 4 Extra Strength; Ez Massager 4 Extra strength; FEEL GOOD LAB Natural Pain Cream; FEEL GOOD YOU PLUS Relief, Pain Relief; FEELGOOD LAB Natural Pain Cream; FLANAX Honey Eucalyptus; FLEX FX Pain Relief; FROM EARTH Therapeutic Menthol Cream; FYZICAL SPORTS Pain Relief 1-COOL; Family Care Back Pain Therapy; Family Care Maximum Strength Medicated Anti Itch; Family Care Menthol Relief; Family Care Muscle Rub; Family Care Muscle Rub Pain Reliever; Family Care Muscle and Joint; Family Care Muscle and Joint Vanishing Scent; Family Care Pain Relief; Family Care Thera Flex; Family Care Thera Flex Pain; Family Care Ultra Strength Pain Relief; Family Dollar Antiseptic Mouth Rinse; Family Dollar Antiseptic Mouth Rinse Blue Mint; Family Dollar Antiseptic Mouth Rinse Spring Mint; Family Wellness Blue Mint; Family Wellness Cold Hot; Family Wellness Cold and Hot Pain Relief; Family Wellness Green Mint; Family Wellness Ice Blue; Family Wellness Original Amber; Family Wellness Pain Relieving; Family Wellness Ultra Mouthwash; Fast Freeze; Fast Freeze Pain Relieving; Fast Freeze Pain Relieving Continuous; Fast Relief Artrosamin; Fast Relief Reumacetin; Fastrin Aches and Pain Deep Relief; Feel Good Labs Natural Pain; Feel Good Labs Sport Recovery; Feminine Pain Relief; Fenovar; Fesi; Fire Out; First Aid Direct Soothe-A-Sting; First Aid Only Sting Relief; First Aid Research Chafe Away Medicated Healing; First Aid Research Zinc Oxyde Plus; First Aid Shot Therapy Cold Relief; Flanax; Flanax Cough Lozenges; Flanax Liniment; Flanax Liniment Unit Dose Display; Flanax Pain Relief Kit; Flavobac Health Guard Complete; Flex24 Pain; Flex24 Performance; Flex24 Tape; FlexGen; FlexSport Roll On; FlexSport Spary; FlexaCure; Flexall Pain Relieving; Flexall Plus; FlexePax; Flexigen; Flexilon; Flexin; Flower O Life Pain Relieving Balm; Fluaid; Folrex Cream; Foot Rehab Pain relief and moisturizer Mission; Foot Soak; Foot Works Achy Foot Massager Pain Relieving; Footscriptions Foot Repair; Fordagel Kit; Formula45 Arthritis Blend; Fors Pain Relief; Fortify; FourPainRX; Freds Medicated anti itch; Freegells Cough Drops Menthol Cherry; Freegells Cough Drops Menthol Eucalyptus; Freegells Cough Drops Menthol Honey Lemon; Freegells Cough Drops Menthol Strawberry; Freegells Cough Drops Menthol Strawberry 30 Drops; Freeze Cooling Pain Relief; Freeze Gel; Freezin Cold Toast; Friccilicont; From Earth Penetrating Menthol Pain Relief Roll On; Frozen Ice Fast Pain Relief; Fruit of the Earth Cool Blue Aloe Vera Cooling; Ft Crm Menthl Cvs; G-bucal-C; GADADERM Frozen Ice Advance Pain Relief; GASPARI Ageless Pain Relief Cream; GNP Anti Itch; GOLD ICE Pain Relief; GR Arthritis pain relief roll-on 1500 mg; GRANULOTION Hemorrhoidal; Gel Cooling Pain Relief; GelAzul Roll-On; Gems Cherry; Gems Honey Lemon; Gems Menthol Eucalyptus; Gen7T Plus; Genorthix Pain Relieving Roll On; Genuine Efficascent; GeriGentle FrostyHeat Pain Relief Patch Arm and Neck; GeriGentle FrostyHeat Pain Relief Patch Back; Giant Eagle Cool Burst Antiseptic; Giant Eagle Cool Burst Mouthwash; Giant Eagle Original Antiseptic; Giant Eagle Original Mouthwash; Giant Eagle Spring Fresh Antiseptic; Giant Eagle Spring Fresh Mouthwash; Giltuss Bucalsep; Glacierix; Global Care 4oz Vapor Rub; Global Care Ice Cold Analgesic; Gold Bond Anti Itch; Gold Bond Extra Strength; Gold Bond Foot Extra Strength; Gold Bond Intensive Relief Anti-Itch; Gold Bond Medicated Extra Strength Body; Gold Bond Medicated Foot; Gold Bond Medicated Maximum Strength Foot; Gold Bond Medicated Original Strength Body; Gold Bond Original Medicated; Gold Bond Original Strength; Gold Bond Pain Relieving Foot; Gold Bond Pain Relieving Foot Roll On; Gold Edition Ultra Zheng Gu Shui; Gold Ice; Golden Cup Balm 1950; Golden Sunshine Far Infrared COOL Herbal; Golden Sunshine Far Infrared HOT Herbal; Golden Sunshine Far Infrared Herbal; Golden Sunshine Herbal; Good FOR PAIN; Good Neighbor Pharmacy Anti-Itch Steroid Free; Good Neighbor Pharmacy Cold and Hot Therapy Pain Relief Balm Extra Strength; Good Neighbor Pharmacy Medicated Chest Rub; Good Neighbor Pharmacy Muscle Rub Ultra Strength; Good Neighbor Pharmacy Therapeutic Blue; Good Neighbor pharmacy muscle rub; Good Sense Cherry Benzocaine Lozenges; Good Sense Cherry Cough Drops; Good Sense Cool Heat; Good Sense Honey Lemon Cough Drops; Good Sense Hot and Cold Medicated Patch; Good Sense Hot and Cold Medicated Patch Small; Good Sense Muscle; Good Sense SF Cherry Cough Drops; Good Sense SF Honey Lemon Cough Drops; Good Sense Ultra Strength Muscle Rub; Good and Smart Honey Strawberry Cough Drops; GoodSense Cherry Cough Drops; GoodSense Menthol Cough Drops; Goodsense Extra Strength Cold and Hot Medicated; Goodsense Extra Strength Cold and Hot medicated; Goose Grease; Goose Grease Recovery and Pain Relief; Gout Reliever Synergy; GranuLotion; Green Apple Cough Drops; Green Bamboo; Green Compass Reduce Roll-On Pain Relief; Green Compass Reduce Topical Pain; Green Farm - Cbd Infused Pain Relief; Green Farm Cooling Pain Relief; Green Farm Potent Cooling Relief; Green Farm Potent Thermal Relief; Green Guard Burn First Aid; Green Guard Cough Drop Relief; Green Guard Cough Relief; Green Guard Honey Lemon Cough Drop; Green Guard Sore Throat Relief; Green MINT Mouth Rinse; Green Remedy Cooling Roll On; Gutong Tiegao Pain Relieving; H-E-B Medicated Corn Starch Foot Powder; HAIRNA Care; HAIRNA Care Toner; HAIRNA Care Treatment; HALLS Extra Strong Menthol Menthol; HALLS Honey; HALLS Honey Ginger; HARMON Extra Strength Pain Relieving; HARMON Extra Strength Pain Relieving Roll-On; HASOL Anagen Hair Tonic; HASOL Anagen Scalp; HASOL Anti Hair Loss; HASOL Intensive Scalp Tonic; HASOL Vital For Hair-Loss Tonic; HEB Cherry Cough Drops; HEB Honey Lemon Cough Drops; HEB Medicated Cornstarch Body Powder; HEB Menthol Cough Drops; HEB SF Honey Lemon Cough Drops; HEB Severe Toothache and Gum Relief Triple Medicated; HEMP Cream; HEMPSPORTS Hemp Pain Relief; HERSTAT GST Genital Sore Treatment; HERSTAT PLUS Cold Sore Treatment; Hair Loss Defeating Monster; Hair Loss Defeating Monster Premium; Hair Loss Defeating Monster Premium Scalp Serum; Hair Loss Defeating Monster Scalp Serum; Halls Apple Cider; Halls Butterscotch; Halls Cherry; Halls Extra Strong Menthol; Halls Frozen Cherry; Halls Honey; Halls Honey Chamomile; Halls Honey Lemon; Halls Honey Vanilla; Halls Ice Peppermint; Halls Kids Cherry; Halls Kids Honey Apple; Halls Kids Strawberry; Halls MENTHO-LYPTUS; Halls Melon Splash; Halls Menthol; Halls Mentholyptus; Halls Mint Bliss; Halls Mocha Mint; Halls Naturals Honey Lemon Chamomile; Halls Orange; Halls Plus Cherry; Halls Plus Honey; Halls Plus Strawberry; Halls Spearmint; Halls Strawberry; Halls Sugar Free Assorted Mints; Halls Sugar Free Black Cherry; Halls Sugar Free Cherry; Halls Sugar Free Citrus Blend; Halls Sugar Free Extra Strong Menthol; Halls Sugar Free Honey Berry; Halls Sugar Free Honey Lemon; Halls Sugar Free Mentho-Lyptus; Halls Sugar Free Mountain Menthol; Halls Sugar Free Watermelon; Halls Tropical Fruit; HallsMelon Splash Melon Splash; HallsSugar Free Extra Sugar Free Extra Strong Menthol; Han Honey Loquat Syrup; Han Kee In Cool; Hanbang Cataplasma; Handy Solutions Cool Mint Listerine Antiseptic Mouthwash; Handy Solutions Listerine Antiseptic Mouthwash; Handyman Freeze Pain Relief; Happy Elf CBD Pain Relief Cream; Happy Elf Hemp Pain Relief Cream; Harmony Flex 10.4% Menthol Pain Relief Spreay 1000mg; Harmony Flexible 4% Menthol Pain Relief Roll-On 1000mg; Harmony Hemp Flexible 10.4% Menthol Pain Relief 1000mg; Harmony Hemp Flexible 4% Menthol Pain Relief Cream-Gel 1000mg; Harmony Hemp Flexible Pain Relief Gel 1000; Harmony Hemp Flexible Pain Relief Gel 500; Harmony Hemp Flexible Pain Relief Lotion500; Harmony Hemp Flexible Pain Relief Roll-on 1000; Harmony Hemp Flexible Pain Relief Roll-on 500; Harmony Hemp Flexible Pain Relief Spray500; HealQu Warm Therapy Gel; Health Mart Extra Strength Pain Relief; Health Mart Muscle Rub; Health Mart Pain Relief; Health Mart muscle; Health Smart Blue Ice Topical Analgesic; Health Smart Medicated Body; Health Smart Medicated Foot; Health Smart Vaporizing Chest Rub; HealthWise Chest Rub; HealthWise Lidocaine and Menthol Pain Relief; HealthWise Menstrual Pain Relief Patch; Healthy Accents Muscle Rub; Healthy Accents muscle ultra strength; Heibaitong Pain Relieving Patch; Helix; Helix CBD Clinical Cream; Helix Tri-Active Therapy Cream; Hello Naturally Fresh Antiseptic; Hello naturally fresh antiseptic; Hemp Pain; Hemp Pain Balm Sacred Pain Balm; Hemp Pain Relief; Hemp Pain Relief Roller; Hemp Powered; Hemp The Point; Hemp Theory Fast Acting Pain; HempCin Pain Relief; HempNesic; Hempvana Cold As Ice Pain Relief; Hempvana Cold As Ice Pain Relief Gel-Patch; Hempvana Cold as Ice Gel; Hempvana Knee Bird Ultra Strength Pain Relief; Hempvana Ultra Strength Pain Relief Cream - Deep Freeze; Hempvana Ultra Strength Pain Relief Gel - Arthritis; Herb Street Arthritis Relief; Herb Street Backache and Sore Muscle Relief; Herbal; Herbal Balm; Herbal Cough Drop; Herbal Cough Drops; Herbal Freeze; Herbal Healers Menthol Warming Roll On; Herbal Heat; Herbal Menthol Cough Drop; Herbal Pain Relieving; Herbal UTAPLAS External Analgesic Plaster; Herbal UTAPLAS.TN; Herbal Utaplas External Analgesic Plaster; Herbal cough drops; Herbalgy; Herbion Naturals Cherry Cough Drops; Herbion Naturals Honey Lemon; Herbion Naturals Honey Lemon Cough Drops; Herbion Naturals Honey lemon Cough Drops; Herbion Naturals Honey lemon Cough Drops Sugar Free; Herbion Naturals Honey-Lemon Cough Drops; Herbion Naturals Ivy Leaf Cough Drops; Herbion Naturals Mint Cough Drops; Herbion Naturals Mint Cough drops; Herbion Naturals Mint Cough drops Sugar Free; Herbion Naturals Orange; Herbion Naturals Orange Cough Drops; Herbion Naturals Orange Cough drops Sugar Free; Herbion Naturals orange Cough drops; Herbojoint-US; Herbomint Cough Drops; Herbon Cinnagreen; Herbon Glacial Mint; Herbon Lemon Honey Herbal; Herbon Orange Tingle; Herbon Original Cherry; Herbon Original Lemon Honey; Herbon Rockhopper Chocomint; Herbon Rockhopper Wild Cherry; Herbon Sugar Free Cherry; Herbon Sugar Free Lemon Honey; Herbon Sugar Free Wild Cherry; Herbon Wild Cherry; Herpetrol; Hielo Ardiente; Hielo Mineral; Highpothecary Therapeutics CBD Zing; Histamine DHCl 0.10 Percent and Menthol 2 Percent; Ho Liang Kee; Home Farmacy; Honey Cough Drops; Honey Ginger Cough Drops; Honey Lemon Cough Drop; Honey Lemon Cough Drops; Honey Lemon Liquid Center Cough Drops; Honey Lemon Sore Throat Lozenges; Honey Lemon Thoracol; Honey Lemon Throat Drops; Honey Lemon cough drop; Honey Lemon cough drops; Honey Tulsi Cough Drops; Honey cough drop; Honey lemon menthol cough drop; Honibe; Horse; Hot Cold Lidocaine With Menthol; Hot Ice Soothing Analgesic; Hot Ice Soothing Analgesic Gel; Hot Pain Relieving; Hot Spice and Ice; Hot Stuff; Hot and Cold; Hot and Cold Cream with Lidocaine Pain Relieving; Hot and Cold Cream with Lidocaine- RA Pain Relieving; Hot and Cold Lidocaine with Menthol Patch Pain Relief; Hot and Cold Medicated Patch; Hot and Cold with Lidocaine Pain Relieving; Hot and Cold with Lidocaine-Careone Pain Relieving; Hot and Cold with Lidocaine-RA Pain Relieving; Hot/Cold Medicated Patch; Hot/Cold Menthol 16% Roll-On; Hua Tuo Huo Lu Oil; Hua Tuo Medicated Plaster Extra Strength; Huitomi Slimming Sports; Human Science Muscle Pain Relief; Human Science Pain Relief; Humphreys Bendito Alcoholado; Huo Luo Pain Relieving; Hydroseptine; Hysan Hua Tuo Medicated; Hysan Huo Lu Medicated; Hysan Pain Reliever; Hyvee Antiseptic Blue Mint; Hyvee Antiseptic Mint; Hyvee Antiseptic Original; Hyvee Blue Mint; Hyvee Health Cool Blue Sugar Free; Hyvee Health Green Mint Sugar Free; ICE COLD Analgesic; ICE MUSCLE RUB Leon M.C; ICE QUAKE Analgesic Cream White; ICEQUAKE Cold Hot; ICYHOT Medicated; INVIGO FLEX Pain Relief Gel; IRxAmigra; IRxMyoRub; IRxSinorel; Ice; Ice ANALGESIC; Ice Blue Pain Alleviating Rub; Ice Cold Analgesic; Ice Cold Analgesic Gel; Ice Cold Topical Analgesic Gel; Ice External Analgesic Leader; Ice Power Pain Relieving; Ice Quake; Ice Quake Muscle Rub; Ice Quake Muscle Rub Blue; Ice Quake Plus; Ice Quake Roll On; Ice Quake White; IceQuake Analgestic White; IceQuake Coldn Hot Medicated; Icequake Coldn Hot medicated patch; Icy Blue; Icy Cold Cool Pain Relieving; Icy Cool Maximum Strength; Icy Freeze; Icy Hot; Icy Hot Advanced Relief; Icy Hot Arm Neck Leg and Small Areas; Icy Hot Arthritis; Icy Hot Back; Icy Hot Back and Large Areas; Icy Hot Dry; Icy Hot Lidocaine Dry; Icy Hot Medicated; Icy Hot Medicated Micro; Icy Hot Medicated No Mess Applicator; Icy Hot Medicated Roll Large; Icy Hot Medicated Roll Medium; Icy Hot Medicated Roll, Large; Icy Hot Medicated Roll, Medium; Icy Hot Medicated, Advanced Relief; Icy Hot Medicated, Back; Icy Hot Medicated, Micro; Icy Hot Medicated, XL; Icy Hot Naturals; Icy Hot No Mess Vapor Cough Suppresant; Icy Hot No Mess Vapor Cough Suppresant for Kids; Icy Hot Original Foam; Icy Hot Pain Relieving Balm; Icy Hot Pain Relieving Cream; Icy Hot Pain Relieving Stick; Icy Hot Power; Icy Hot Pro Dry; Icy Hot Pro No-Mess; Icy Hot Pro Pain Relief Cream w/ microbeads; Icy Hot Vanishing Scent; Icy Hot XL Back and Large Areas; Icy Hot with Lidocaine; Icy Hot with Lidocaine No-Mess; Icy Hot with Lidocaine Pain Relieving; Imada Four Seasons Safe Analgesic Balm; Imbue Pain Relief; Imman coolbreeze; Inflammation OTC Deep Pain Care Cold; Inflammation OTC Deep Pain Care Hot; Inflatherm; Inmotion Pain Creme Original Strength; Inmotion Pain Creme Ultra Strength; Inspiration Academy Menthol Cooling Pain Cream; Inspiration Academy Menthol Cooling Roll On; Insta Relief DM; InstaNatural Pain Relief Gel; InstaSoothe Pain Relief; Instaflex Extra Strength Pain Relief Cream; Instaflex Pain Relief; Instaflex Pain Relief Cream; Instaflex Pain Relief Roll-On; Instant Therapy; Invisible Pain; Ion-TO Scalp Cleanser S; Itch Relief; Itch Relief Max Strength; Ivy Dry; Ivy-Dry Super; J9 Ultra Advanced Eyebrow Serum; J9 Ultra Advanced Intensive Scalp Serum; JOINT AND MUSCLE RELIEF 450 mg; JOINT AND MUSCLE RELIEF 750 mg; JOIYA Ease; JOY SKIN AND BODY Premium PAIN RELIEVING; Jack Black Performance Remedy Dragon Ice; Jade; Jakemans Blueberry; Jakemans Cherry; Jakemans Peppermint; Jakemans Throat and Chest Anise; Jakemans Throat and Chest Cherry; Jakemans Throat and Chest Honey and Lemon; Jakemans Throat and Chest Peppermint; Jimin Zhuifeng Gao; Jin Gu Wang; Jivamukti; Joint Maintenance Compliance Kit; Joint and Muscle Cream; Joint and Muscle Pain; Joint and Muscle Pain Relief; JointFlex ICE; Josephs Lion; Josephs Lion Pain Relieving; Jun Wai Lung Medicine Pain relieving; Just ADD HEAT Pain Relief; Just ADD the HEAT Pain Relief; Just Chill Pain Relief; K2 Cold Therapy; KGS Bao Zhen Gao Medicated Plaster Extra Strength; KGS Zhitong Gao Medicated Plaster Extra Strength; KINETIC ICE Muscle and Joint Pain Relief Cream; KINeSYS Analgesic Sport; KPP Triple Action; KRT HEAT Muscle Endurance Cream; KT Recovery Plus Pain Relief Gel; Kaewoon; Kalaya Breathe Easy Vaporizing Rub; Kalaya Pain Relief; Kalaya Pain Relief 6X with Arnica; Kangaroo Cbd Cooling Pain Relief; Kangaroo Cbd Heating Pain Relief; Kangaroo Cbd Pain Relief; Kangaroo Cbd Pain Relieving; Kanjo PAIN RELIEF Gel; Kank-A with Blistex Medicated Lip; Kannaco; Katinko Pain And Itch Relieving; Kay Medic Menthol Pain Relief; Kaydia Pain Relieving Patches Menthol 5 Kit; KeVUENO Pain Relieving; Kemagel Pain Relief; Keptrils; Keracare; Kerasal; Kerasal PF-10; Keratek; Kessler Family Wellness; Kinkan; Kinkan Cool; Kiss Therapy Medicated Lip Balm; Knee Pain Relief Patchs; Kofix Cherry and Blackberry; Kofix Ginger; Kool Comfort; Kroger Aloe Vera Pain Relieving; Kroger Cherry Cough Drops; Kroger Cool Mint Boost Mouth; Kroger Hot and Cold Medicated Patch; Kroger Maximum Strength; Kroger Menthol Cough Drops; Kung Fu Pain Relief; Kwan Loong; Kwik-moving; Kymaro Roll on Relief; LAV PREMIUM HEMP for Neck and Back Pain Arthritis Relief; LBri Super Aloe Stop The Pain; LCDO. ORLANDO RIVERA ARTHRITIS Topical Analgesic; LEADER Cough Drops Cherry Flavor; LEADER Cough Drops Honey Lemon; LEADER Cough Drops Menthol Flavor; LEADER Sugar Free Cough Drops Black Cherry; LEGEND COUGH lozenge; LILAS Feminine Pain Relief Patch; LISTERINE Original Antiseptic; LMR Plus; LONOL Forte Gel; La Jiao Feng Shi Gao; La Vaquita; La Vaquita Extra Strength; La Vaquita New Extra; La Vaquita New Regular; LaBella Linimento Obrero; LactiGo; Lactic Acid Free M Synergy for male; Lactic Acid Free for sportswoman Synergy for female; Lander Polar Ice; Lanlijen Menthol Pain Relief; Lanoguard Multi-Purpose; Lantiseptic CaldaZinc; Lao Wei Wood Lock Oil; Large Medicate Relief Patches; Large Medicated Pain Relief Patches; Large Pain Relieving; Lavaderm After Sun For Pain and Itching; Leader Anti-Itch; Leader Cherry Sore Throat Lozenges; Leader Cooling Pain Relief Topical Analgesic; Leader Extra Strength Medicated Pain Relief Patch; Leader Honey Lemon Benzocaine Throat Lozenge; Leader Ice Blue Analgesic; Leader Pain Relieving Rub Ultra; Leader Roll-On Cooling Pain Relief Topical Analgesic; Leader Ultra Strength Muscle Rub; Leader Ultra Strength Muscle Rub Topical Analgesic; Leader Ultra Strength Pain Relieving; Leg Strong Trifusion; Lekon Herbal Patch Green; Lenza Pro; LenzaGel; LenzaPatch; LenzaPro Flex; LenzaPro Flex Path; Levatio Patch; LevigoLT; Leximenth; Liberdol Analgesic; Liberdol Topical Analgesic; Lid O Creme Roll On; LidAll; Lidenza Patch; LidoMet-10 Kit; LidoPR; LidoPatch; LidoPatch Pain Relief; LidoPlus Pain Relief Patch; LidoPro; LidoPro Patch; LidoSport Pain Relief Patch; LidoStream; LidoXib; Lidocaine 4 Percent and Menthol 1 Percent Roll-On; Lidocaine 4% Menthol 4%; Lidocaine 4% plus Menthol 1%; Lidocaine Dry Patch Plus Menthol; Lidocaine HCl 4 Percent and Menthol 4 Percent; Lidocaine HCl 4% Menthol 1%; Lidocaine Menthol Pain Relief; Lidocaine Pain Relief Patch; Lidocaine Patch; Lidocaine Patchs; Lidocaine and Menthol; Lidocaine plus Menthol; Lidocaine with Menthol; Lidocaine with Menthol Patch Pain Releif; Lidodextrapine; Lidonexe; Lidopatch; Lidopro; Lidothal Relief; Lidothol; Lidothol Gel; Lidozen; Lidozen Gel; Lidozen Patch; Lightning Pain Relief; Limencin; Linkus Lozenges Cough Suppressant/Oral Anesthetic; Lip Clear Lysine Plus; Listerine Advanced with Tartar Protection Antiseptic Citrus; Listerine Antiseptic; Listerine Cool Mint Antiseptic; Listerine FreshBurst Antiseptic; Listerine Gum Therapy Antiseptic; Listerine Naturals Antiseptic; Listerine Naturals Antiseptic - Herbal Mint; Listerine Ultraclean Antiseptic Arctic Mint; Listerine Ultraclean Antiseptic Cool Mint; Listerine Ultraclean Antiseptic Fresh Citrus; Listerine Ultraclean Arctic Mint; Listerine Ultraclean Fresh Citrus; Little Ouchies Little Remedies Pain Relief; Littles All Natural Arthritic Pain Relief; Littles Vapor Rub; Lorenza Pain Relief Patch; Lornamead Lypsyl; Lorpur; Love Nose Easy Powder; Low Sugar Cherry Flavor Fishermans Friend Menthol Cough Suppressant; Lubracane; Lucky Blue Ice; Lucky Ice Cold Analgesic; Lucky SuperSoft Muscle and Joint; Lucky Supersoft Medicated Body Triple Action; Lucky Supersoft Premium; Ludens Dual Relief; Ludens Honey Lemon Throat Drops; Ludens Honey Licorice Throat Drops; Ludens Original Menthol Throat Drops; Lung Choy Shung Pain Relief Liquid; Lurosil; Lusti Profesional Vaporizing Rub; Lusti Therapeutic Ice Analgesic Rub; Lysimax; MAKESENSE with Aloe Vera and Vitamin E; MAXIMUM STRENGTH Lidocaine Plus Menthol; MAXIMUM STRENGTH MEDICATED ANTI-ITCH Rite Aid; MD CELL Scalp; MEDI-FIRST Cherry Cough Drops; MEDICATED ANTI-ITCH Well at Walgreens; MEDIQUE Medikoff Drops; MEDIQUE Sugar Free Medikoff; MENTHOGEL Pain Relief; MENTHOL PAIN RELIEF Gel-Patch; MHS Boo Boo Balm; MHS Dit Da Jow; MHS Herbal Ice; MHS Skin Care Salve; MHS Wong Family Iron Palm Jow; MINTED LEAF Cold Therapy Foot Relief with CBD and Menthol; MINTED LEAF Cold Therapy Relief; MINTED LEAF Cold Therapy Relief with CBD and Menthol; MINTED LEAF Cold Therapy Relief with CBD and Menthol Roll On; MIRACLE ICE Arthritis Pain Reliever; MMA Elite Pain Relief; MMM Ice Gel; MMM Topical Analgesic Cream; MOBILITY Topical Analgesic; MTX Topical Pain; MYGRIN Roll-On; MYOSPORT Relieve Kinesiology; MaC Patch; MaL; Mac; Mag 5 PT Cooling Formula Recovery; Mag 5 Pt Warming Formula Roll On; MagNificent Menthol Cooling Pain Cream; MagNificent Menthol Warming Cream; Magic Balm; Magic For Pain Relief; Magical Muscle Oil; Magictop Pain Relief Patch; Major Extra Strength Cold and Hot Pain Relief Therapy; MakeSense Extra Strength Muscle Rub; Mamisan Pain Relieving; Manteca Maslac; Marathon Pain Relief Topical Analgesic; Marcs Blue Mint; Marcs Original; Marcs Spring Mint; Market Basket Cherry Cough Drops; Market Basket Honey Lemon Cough Drops; Market Basket Menthol Cough Drops; Mastic Dent; Mata Balm; Max Pain Relief; Max Revive; Max Revive Plaster; Max-Relief with Boswellia and Aloe Vera; MaxRevive Pain relieving; MaxRevive Plaster; Maxfit Freeze; Maxim Ice Cold Analgesic; Maximum Strength Cold Sore Treatment; Maximum Strength Cold and Hot CVS; Maximum Strength Medicated Foot Powder; Maximum Strength Pain Cream with Pure Hemp Extract; Maximum Strength Pain Relief Sports Cream; Maximun Strength Lidocaine Patch Plus Menthol; Maxocaine Pain Relieving Roll-ON; Maxxima; Maybelline New York Baby Lips Dr Rescue Medicated Balm; McKesson Cough Supressant; McKesson Sugar Free Cough Suppressant Oral Anesthetic; Md Cell; Md80 Clinical Strength Topical Analgesic; Med Aid Chest Rub; MedPride Chest Rub; MedPride Cold Ice Analgesic Gel; MedPride Medicated Body Powder Powder; MedWorx; Medi First Plus Cherry Cough Drops; Medi-First Honey Lemon Cough Drops; Medi-First Pain Relief; Medi-First Plus Honey Lemon Cough Drops; Medi-First Plus Sore Throat Max; Medi-derm / L With Lidocaine; Medi-derm / L With Lidocaine Rx; Medi-derm Rx; Medi-derm Topical Pain Relief; Medi-first Burn First Aid; Medi-patch With Lidocaine; Medi-patch With Lidocaine Rx; Medi-sulting Topical Pain Relief; MediRelief Ultra; Medic Ice; Medicaine Sting and Bite; Medicaine Swabs; Medicated; Medicated Balm Arthritis Pain Relieving Cream; Medicated Body; Medicated Body Extra Strength Powder; Medicated Body Powder; Medicated Chest; Medicated Chest Rub; Medicated Chest Rub Family Wellness; Medicated Foot Powder; Medicated Green Oil; Medicated Lip Balm; Medicated No Mess Applicator; Medicated Oil; Medicated Pain Relief; Medicated Pain Relief Hot; Medicated Pain Relief Patch; Medicated Pain Relief Patches; Mediflex; Medique Sepasoothe; Medique Sugar Free Medikoff Drops; Medistik Cooling Roll-ON; Medistik Dual; Medistik Dual Hot and Cold; Medistik Ice; Medistik Professional Dual Action; Medistik Professional Ice Therapy; Medistik analgesic; Meditowel Pain Relief; Medline Remedy Phytoplex Calazime; Medrox; Medrox-Rx; Medterra Pain Cream; Medterra Pain Cream 1000; Medterra Pain Cream 500; Megrix; Megrix OTC; Meijer Aloe Gel; Meijer Anti-Itch; Meijer Cherry Cough Drops; Meijer Cold Therapy Pain Relief; Meijer Cold Therapy Pain Relief 360; Meijer Cold Therapy Roll On; Meijer Cold and Hot Medicated; Meijer Cold and Hot Pain Relieving; Meijer Cold and Hot Pain Relieving Analgesic; Meijer Cold and Hot Therapy; Meijer Extra Strength Cold And Hot TherapyPain Relieving Topical Analgesic; Meijer Extra Strength Cold and Hot Medicated; Meijer Honey Lemon Cough Drops; Meijer Large Cold-Hot Medicated Patches; Meijer Maximum Strength Pain Relieving Analgesic; Meijer Medicated Cold and Hot Pain Relieving; Meijer Menthol Cough Drops; Meijer Muscle Ultra; Meijer Pain Relief; Meijer Pain Relieving analgesic; Meijer Severe Toothache and Gum Relief Triple Medicated; Meijer Small Cold-Hot Medicated Patches; Meijer Ultra Strength Pain Relieving Cream; Meijer Ultra Strength Pain Relieving Topical Analgesic; Men-Phor; MenCaps; Mencaine; Mendex; Menstrual Comfort; Menstrual Pain Synergy for treatment of Menstrual Pain; Mentho patch cool; MenthoReal-10 Kit; Menthocin Patch with Lidocaine; Menthocin Patch with Lidocaine - Strong; Menthol; Menthol 10 percent plus Camphor 4 percent; Menthol 4.5% Capsaicin 0.0225%; Menthol 5%; Menthol 5% Hydrogel; Menthol 6.5%; Menthol Camphor Cough Suppressant Rub; Menthol Camphor Knee; Menthol Camphor Micro; Menthol Camphor Vapor Rub; Menthol Cough Drop; Menthol Cough Drops; Menthol Cough drop; Menthol Fresh Cough Suppressant; Menthol Pain Relief; Menthol Therastat; Menthol Vapor Cough Drops; Menthol and Methyl Salicylate; Menthol and Zinc Oxide; Menthol cough drop; Menthol cough drops; Menthol, Camphor; Menthol, Capsaicin; Menthol, Lidocaine, Camphor; Mentholatum; Mentholatum Cherry Vaporizing Rub; Mentholatum Childrens Nighttime Vaporizing Rub; Mentholatum Deep Heating Rub Extra Strength; Mentholatum Greaseless Vaporizing Cream; Mentholatum Ironman; Mentholatum Ironman Muscle Extra Strength; Mentholatum Ironman Muscle Rub; Mentholatum Lavender Vaporizing Rub; Mentholatum Lidocaine Ice; Mentholatum Natural Chest Rub; Mentholatum Nighttime Vaporizing Rub; Mentholatum No Mess Vaporizing Rub; Mentholatum Original; Mentholatum Pain Relief Deep Heating; Mentholatum Pain Relief Extra Strength; Mentholatum Pain Relief Muscle Rub; Mentholatum Pain Relieving; Mentholatum Sports Pain Relief Cold; Mentholatum Sports Pain Relief Hot; Mentholatum Sports Pain Relief Warm; Mentholatum for Kids Cough Suppressant; Mentholix; Menthopatch Hot; Menthozen; Menthozen Cream; Menthozen Hydrogel; Menthozen Hydrogel Patch; Menticol first aid antiseptic and external analgesic lotion; Meori Toktok; Mercy Pain Relieving; Meridian Balm; Meyer Lemon and Honey-Cough Relief; Meyer Lemon and Honey-Cough Relief Lozenges (Oral Anesthetic); Migranow; Migryl; Migryl Biofrequency Chip; Milan; Mind Body Matrix Pain Relief; Mineral Ice; Mineral Ice Pain Relieving; Mineral Ice Quick Dry Foam; Minted Leaf Cold Therapy Menthol Relief Roll On with CBD; Minted Leaf Cold Therapy Menthol Relief with CBD; Minted Leaf Cold Therapy Pain Relief; Minted Leaf Cold Therapy Pain Relief Roll-On; Minted Leaf Cold Therapy Relief Foot; Miracle Foot Repair; Miracle Foot Repair Cream; Miracle Ice; Miracle Ice Therapeutic; Miracle Ice Ultra Strength; Miracle Pain Cream; Miracle Rub; Miracle of Aloe Rub Roll On; Miractil; Mobility; Mobisyn Pain Relieving; Modere Sports Rub; Moisture Therapy Anti-Itch; Molyhen; Monkey Holding Peach Brand External Analgesic Balm; Moore Medical Cherry Cough Suppressant/Anesthetic Drops; Moore Medical Honey Lemon Cough Drops; Moore Medical Menthol Eucalyptus Cough Drops; Moore Medical Sugar Free Black Cherry Cough Suppressant/Anesthetic Drops; Moore Medical Sugar Free Menthol Cough Suppressant/Anesthetic Drops; MooreBrand Assorted Cough Drops; Motion Medicine; Mountain Herb Sugar Free With Stevia Cough Suppressant Oral Anesthetic; Mountain Ice Pain Relief; Mountain Ice Sports Pain Relief; Mountain Ice Sports Recovery; Mouth Oral Shield; Mouth Rinse; Mouthwash; Mr Dudleys Topical Cycle Relief with Nutmeg; Mr Dudleys Topical Pain Relief; Mucinex Instasoothe Sore Throat Plus Pain Relief; Muellergesic; Muscle; Muscle Balm; Muscle Care Extra Strength For Menstrual Pain Relief Extra Strength; Muscle Ease; Muscle Freeze Relief; Muscle Mist; Muscle Rub; Muscle Rub CVS; Muscle Rub Cream; Muscle Rub Greaseless; Muscle Rub Maximum Strength; Muscle Rub Non Greasy Pain Relieving; Muscle Rub Pain Reliever Gel; Muscle Rub Premier Value; Muscle Rub Ultra; Muscle Rub Ultra Strength; Muscle Rub Ultra Strength CVS; Muscle Rub Ultra Strength Pain Relieving; Muscle and Joint; Muscle and Joint Pain Relief; Muscle and Joint Pain Relief Gel; Muscle and Joint Vanishing Scent Fast Penetrating; Muscle and Joint pain relief GR Isolate 150 mg; Muscle and Joint pain relief GR Isolate 350 mg; Muscle and Joint pain relief GR Isolate 750 mg; Muscle rub; MuscleCare Pain Relieving; MuscleCare Professional Therapy Pain Relieving; Muscular Balm; Muse Apothecary Hemp Ritual Roll On; My Hemp MD CBD Muscle and Deep Tissue Cream; My Hemp MD CBD Muscle and Joint Cream; My Omega 3 Rub; MyOmega OMEGA 3PLUS PAIN RELIEF RUB; MyOmega Omega 3plus Targeted Relief; Myo-Breathe; MyoRx Low Dose Pain Relieving; MyoRx Pain Relieving; Myrrh Woman; N-LABS SOLAR MAX Topical Analgesic; NAMMAN MUAY Athletes Pain Relieving; NECK and LUMBAR PAIN RELIEVING BALM; NEUROFLEX Topical Pain Relieving Liquid; NICE Assorted Cough Drops; NICE Citrus Cough Drops; NICE Cool Mint; NICE Honey Lemon Cough Drops; NICE Menthol Cough Drops; NOSMO KING smoking deterrent; NOT POT CBD ICY Cooling Pain Relief; NOpioid-LMC; NULIDO Lidocaine Patch Plus Menthol; NUTRASTATE Soothing Relief Roll-on Gel; NUTRASTATE Soothing Relief Topical Gel; NUTURNA Arthritis Intensive Concentrate for Pain Relief and Recovery; NZT-1 Synergy; Namman Muay Pain Relieving; Nan San EASY FLEX Pain Relieving; Nan San MUSFLEX External Analgesic; NanoFreeze; NaproPax; Napropak; NaproxenPax; Nasal Decongestant; Naticura Alleviate Natural Hemorrhoid Relief; Natoral Korean Ginseng; Natralia Anti-Itch Soothing; Natural Cherry Cough Drops; Natural Cherry Honey Herb Throat Drops; Natural Herbal Cough Drop; Natural Herbal Cough Drops; Natural Honey Herb Cough Suppressant Throat Drops; Natural Honey Lemon Cough Drops; Natural Honey Lemon with Echinacea Cough Suppressant Throat Drops; Natural Lemon Mint Herb Throat Drops; Natural Lemon Verbena with White Tea Herb Throat Drops; Natural Pain Relieving Lavender Breeze Cryogel; Natural Throat Drops Honey; Natural Throat Drops Honey Lemon; Natural Throat Drops Honey Pomegranate; Natural herb cough drop; Natureance Miracle; Natureplex Extra Strength Muscle Rub; Natures Choice Cool Hot Ice; Natures Realm Cool Hot Ice Analgesic; Natures Realm Vaporizing Chest Rub; Natures Sunshine Products Everflex Topical Analgesic Pain Relief; Natures Willow; Natures Willow Balm; Natures Willow Bug Bite Balm; Natures Willow Itch Relief; Nawamo Sod Ultrabooster; Neck and Lumbar Pain Relieving Balm; NeilMed Hot and Cold Pain Relief; Neotica; Neptune Ice; Neptune Ice Patch; Nerve Reverse Pain Relief; Nervive Pain Relieving Cream; Nervive Pain Relieving Liquid Roll-on; Neuracin Topical Gel; Neuraxcin Neuromethacin; Neurodexx; Neurolatore Power Formula Pain Relief; Neuroxa Kit; Neuvaxin Patch; Neverpain; New Premium Notamo; New Premium Notamo Tonic; New Terocin; Nexalgia; Nice Assorted; Nice Cherry; Nice Cherry Cough Drops; Nice Citrus; Nice Honey Lemon; Nice Menthol; Nicotine Transdermal Patches; NitroVal Blue; Nivea A Kiss of Intense Moisture Healing Medicated Lip Care; No Pain More Gain; No Pain More Gain NPMG Foam; No Touch Application Chest Rub Well at Walgreens; No Touch Chest Rub; No Touch Chest Rub Rite Aid; Noble Lion Medicated Balm; Nopen Cool; Nopen Hot; Nopiate Topical Pain Relief; North Burn; North Cough Drop; Nosk EX Sleep; Nosmotea smoking deterrent; Novarnica; Novarnica Foot Pain Reliever; Novarnica Moisturizing Foot Cream; Novarnica Sport; Novex Sore Throat; Novex Sore Throat Honey Lemon Flavor; NovoPain; Novum Apr; NuDroxiPAK; NuDroxiPAK DSDR-50; NuDroxiPAK DSDR-75; NuDroxiPAK E-400; NuDroxiPAK I-800; NuDroxiPAK M-15; NuDroxiPAK N-500; NuDroxicin; NuDroxicin pain relief Roll-On; NuLido; Numbing Max Strength; Numotizine; Nuvalu Ice Therapy Menthol Pain Relieving; Nuvalu Vaporizing Chest Rub; Nvcare; ODEUR Senior Premium Cleanser; OPITOX TOPICAL Gel; ORAGESIC Oral Pain Reliever; ORAL-DENT Blue Mint; ORCA Complete Menthol Pain Reliever; ORCA Pain Reliever Putty with Menthol; OVERNIGHT RELIEF Gel-Patch; Oars and Alps Muscle Recovery Balm; Odeur Premium Body Cleanser; Odynia-R Regular; Offense Player Arthritis Pain; Offense Player Blue; Offense Player Sports; Offense Player Ultra; Olbas Lozenges Maximun Strength; Olbas Pastilles; Olp Muscle Rub; Olp Pain-X; Omax Cryofreeze Roll-On; Omega 3 Targeted Relief; Omega Pain Relieving; One Gel Sport Pain relieving; Oneback; Op 6 Menthol Cooling Roll On; Op 6 Menthol Warming Roll On; Open Nature Herbal Cough Drops; Orajel; Orajel 3X Medicated For All Mouth Sores; Orajel 3X Medicated For Toothache and Gum; Orajel 3X Medicated for Denture Pain; Orajel 4X Medicated For Toothache and Gum; Orajel 4X Medicated For Toothache and Gum, Cream; Orajel 4X Medicated PM For Toothache and Gum; Orajel Alcohol Free Antiseptic Rinse For All Mouth Sores; Orajel Antiseptic Alcohol-Free Mouth Sore Rinse; Orajel Antiseptic Rinse For All Mouth Sores; Orajel Cold Sore Moisturelock; Orajel Denture Pain Relief; Orajel Gum Pain 3X Medicated; Orajel Instant Pain Relief Maximum; Orajel Instant Pain Relief Maximum Strength; Orajel Instant Pain Relief Severe; Orajel Instant Pain Relief Severe PM; Orajel Instant Pain Relief for Severe Toothache Maximum Strength; Orajel Instant Pain Reliver for Canker Sores Extra Strength Pain Relief; Orajel Maximum Strength; Orajel Medicated for Toothache and Gum, Liquid; Orajel Toothache Strips; Orajel for Codl Sores Relief and Concealer; Orajel for Cold Sores Maximum Strength; Oral Analgesic Maximum Strength; Oral Care Antiseptic; Oral Dent Amber; Oral Dent Blue Mint; Oral Dent Citrus; Oral Dent Fresh Mint; Oral Sore Antiseptic; Orasep; Organic Peppermint Herb Throat Drops; Organix Complete; Oriental Magic Oil; Original Antiseptic; Original Extra Strong All Natural Fishermans Friend Menthol Cough Suppressant; Original Herb Cough Drops; Original Pain-A-Trate Pain-Relieving Cream; Ortho-Nesic; Ortho-Nesic With Capsaicin; OsmoFlex; Osteo Bi-Flex JOINT HEALTH PAIN RELIEVING; Osteo Bi-Flex Roll-on Extra Strength; Osteoarthritica Synergy for treatment of Osteoarthritis; Otis Clapp Thorets; Outback Pain Relief; Overtime; Overtime-HMP; Overtime-X; Overtime-hmp; Oxy Rub Pain Relief; OxyRub Max Pain Relief Cream, 2oz; OxyRub Pain Relief; OxyRub Pro Pain Relief Cream, 4oz; P.O.V Itch Relief Body; P.O.V. Blue Mint; P.O.V. Spring Mint; P.O.V. Sugarfree; PAIN RELIEF Gel-Patch; PAIN RELIEF Gel-Roll On; PAIN RELIEF Gel-Tube; PAIN Terminator Analgesic; PARAID Extra Strength Menthol Pain Relief Sleeve KNEE Large Ankles Elbows; PARAID Extra Strength Menthol Pain Relief Sleeve WRIST and Small Ankles and Elbows; PERFORM COOL and SOOTHING PAIN RELIEVING; PHS Hair Science Fem Hair Loss Tonic; PHS Hair Science Hom Hair Loss Tonic; PHS Hair Science Pro Hair Loss Tonic; PM Toothache Relief; PRFC HEMP Topical Analgesic; PURE PERSONAL All Natural Pain Relief Cream; Pain Away; Pain Bust R II; Pain Cream; Pain Crush; Pain Ease; Pain Free; Pain Freeze Roll-on Cold Therapy Pain Relief; Pain Goodbye Medicated Cream; Pain No More Therapy; Pain Reileving Herbal Oil; Pain Release; Pain Relief; Pain Relief 2%; Pain Relief 3%; Pain Relief Audacious Wreck Relief; Pain Relief Balm; Pain Relief BalmPreferred Plus Ph Preferred Plus Pharmacy; Pain Relief Cold Therapy Gel 3 FL OZ; Pain Relief Cooling, Extra Strength; Pain Relief CopperGel; Pain Relief Cream; Pain Relief Cream Extra Strength; Pain Relief Cream Topical Analgesic; Pain Relief Extra Strength, Cooling; Pain Relief Gel; Pain Relief Gel-Patch; Pain Relief Herbal; Pain Relief Herbal balm; Pain Relief Hot Patch; Pain Relief Liquid; Pain Relief Liquid Roller; Pain Relief Max Strength; Pain Relief Medicated; Pain Relief Patch; Pain Relief Patches; Pain Relief Patchs; Pain Relief Roll On; Pain Relief Roll On Extra Strength, Cooling; Pain Relief Roll-On; Pain Relief Roller Signature Care; Pain Relief Rub; Pain Relief Rub Iampur; Pain Relief Signature Care; Pain Relief Sleeve Extra Large; Pain Relief Sleeve Large; Pain Relief Sleeve Medium; Pain Relief Stick; Pain Relief Therapy Patch; Pain Relief Tincture; Pain Relief Well At Walgreens; Pain ReliefRoll On Roll On; Pain Reliever; Pain Relieving; Pain Relieving Analgesic; Pain Relieving Balm; Pain Relieving Chi Len Oil; Pain Relieving Cold Therapy; Pain Relieving Cooling; Pain Relieving Foot; Pain Relieving Iampur; Pain Relieving Liniment; Pain Relieving MUSFLEX; Pain Relieving Patch; Pain Relieving Patch Ultra Strength; Pain Relieving Patch Ultra Strength Ultra Strength; Pain Relieving Patches; Pain Relieving Po Tong Oil; Pain Relieving Roll-On; Pain Relieving Roll-On Gel; Pain Relieving Ultra Strength; Pain Relieving Warming Balm; Pain Rescue; Pain Therapy; Pain releiving Well at Walgreens; Pain-A-Trate Extra Strength Pain-Relieving; Pain-X; Pain-ease; PainAway with natural peppermint and Balsam Peru; PainBloc24 ProWomen Pain Relief Patch; PainBloc24 ProWomen Womens Discomforts Menthol Pain and Sleep Patch; PainFix Relief; PainFix Restore; PainGo KFT; PainKillerNaturalOintment; PainKoolers; PainKoolers Topical Analgesic; PainKoolers Topical Analgesic Patch; PainPatrol CBD Professional Pain Relief; PainPatrol Professional Pain Relief; PainShield; PainXIT; PainZone; PainZone Light; Painathol-MC Cool Penetrating Pain Relieving; Paingone Freeze; Paingone Freeze 5; Painzaway Pain Relieving Gel; Pallerix; Pallerix OTC BIOfrequency Chip; Panitrol XR; Paraid Pain Relief; Parche Leon; Parche Leon Milagroso; Parche Leon Milagroso Dual Action; Parche de Leon; Pasmol Pain Relieving; Patch; Patch Good Sense; Patch Kroger; Patch Scherer Labs; Patch Walgreens; Penetrating Pain Relief Jaxsens; Pepperment Cough Drops; Peppermint Cough Drops; Peppermint Mouth Rinse; PerCara Original Medicated Powder; Perfect Purity HotIce; Perfect Purity Medicated Body; Perfect Purity Medicated Body Powder; Perfect Purity Medicated Foot Powder; Perfect Purity Vaporizing Chest Rub; Perform; Perform Cool and Soothing Pain Relieving Foot; Perform Cool and Soothing Pain Relieving Roll-ON; Performance Brands Steel Releaf Pain Relieving Liquid; Perilla Fo ti; Perilla Fo ti Conditioner; Personal CARE ICE COLD ANALGESIC; Personal CARE Vaporizing Chestrub; Personal Care; Personal Care Extra Strength Cold Hot; Personal Care Ice Cold; Pete and Pedro; Pharmacist Choice Pain Relief Patch; Pharmacist Choice TSX Transdermal Patch; Pharmacys Prescription; Pharmacys Prescription Analgesic Gel; Pharmacys Prescription Ice Cold Analgesic; Pharmacys Prescription Vapor Rub; PharmapureRx Menthotral; Phoenix Balm; Phoenix KinetiCream Anti-inflammatory and Pain Relief; Phquirogel; Physicians Care Cough and Sore Throat; Phyto Therapy; PhytoRelief CC HERBAL; Picnic Honey Lemon Cough Drops; Plaster MandAHerbalPlaster; PlayMakar Roll On Cool Pain Relief; PlusCBD Pain Cream (Arthritis) 2oz; PlusCBD Pain Cream (Muscle) 4oz; PlusCBD Pain Cream (Penetrating) 2oz; PlusCBD Sport Recovery Stick 1oz; Po Sum On Healing Balm; Po Sum On Medicated; Pocket Farmacy; Point Relief Cold Spot Pain Relieving; Point Relief LidoSpot; Point Relief LidoSpot with Menthol; Point Relief cold Spot Pain Relieving; Point Relief cold Spot Pain Relieving roll-on; Point relief Lidospot; Polar Frost Cold; Poly Interferent Mouthwas; Pomada Dragon Pain Relieving; Ponos Natural Pain Relief; Power Pain Relief Stick; Power Relief; Powerbooster Mild; Poxiezzz; Pr; PrameGel; Pranicura; Pranicura 5; Pranicura II; Precise Pain Relieving; Preferred Plus Arthritis Cream; Preferred Plus Body Powder; Preferred Plus Medicated Lip Balm; Premier Value Medicated Body Powder; Premier Value Medicated Chest Rub; Premier Value Medicated Foot Powder; Premieres Pain; Premium HEMP Pain Relief; Prevention Wound and Burn; Priyal Chestrub; Priyal Cold Ice Analgesic Gel; Priyal Ice Gel; Priyal Pride Chest Rub; Pro-Flex; Pro-Sero Pain Relief; ProCBD Pain Cream (Arthritis) 2oz; ProCBD Pain Cream (Muscle) 4oz; ProCBD Pain Cream (Penetrating) 2oz; ProHEMP Soothing Menthol Rub 4%; ProStat Burn First Aid; Procicept B Benzocaine 20%; Procicept L Lidocaine 4%; Procure gel; Prof; Professional Therapy Muscle Care Pain Relieving Gel by Dr. Chris Oswald Maximum Strength; Professional Therapy Muscle Care Pain Relieving Ointment by Dr. Chris Oswald Maximum Strength; Professional Therapy MuscleCare; Professional Therapy MuscleCare Extra Strength; Professional Therapy MuscleCare Pain Relieving; Professional Therapy MuscleCare Turbo; Professional Therapy MuscleCare pain relieving gel Extra Strength; Profoot; Profoot Pain Relief Patches; Prolida; Proplex Greaseless Muscle Rub; Protec Pain Relief Cold Therapy; Protec Roll-ON; Provault Cooling Roll on; Provault DrySpray CBD Pain Relief; Provault Muscle Cream CBD; Provault Muscle Salve; Provenza; Prozero; Ps; Publix Burn Relief; Pumpkin Spice Cough Drops; Punchgunk; Pure InflaMedix Natural Pain Relief; Pure-Aid; Pure-Aid Blue Ice Gel; PureKana; Puroxcin; Q Health Pain Relief; QC Cold and Hot Pain Relief; QC Cool and Heat Roll-On; QC Medicated anti itch; Qian Li Zhui Feng Pain Relieving; Qr Pain; Qroxin Patch; Quali Cold; Quali Herbal; Quali Patch (Cold); Quali Patch Herbal Soultice; Quali Patch Warm; Quali Warm; Quality Choice Amber; Quality Choice Blue Mint; Quality Choice Medicated Chest Rub; Quality Choice Muscle and Joint; Quality Choice Sprng Mint; Quality Choice Ultra Strength Pain Relieving Cream Ultra Strength; Quantum Health Bing Cherry Flavor; Quantum Health Meyer Lemon and Honey Flavor; QuickFlex; R3; RANDEX HEMP cream; REMEDY Calazime Skin Protectant; REMEDY Pain Relief Cooling Menthol Roll-ON; RESTORE Fast Acting Pain; RX300 Topical Pain Cream Pain Cream; Ramedica; Rapid Pain-relief Topical; Rapid-Ease Pain Relief Topical Analgesic; Raw Heat; Raw Ice; Ray Dol; Re-leve; Re-leve Footlube Pain Relief; Reactheat Heat Baume; Reactice Reactivating Ice Baume; Real Time Pain Relief Cream; Real Time Pain Relief Foot Cream Topical Analgesic; Real Time Pain Relief MAXX Topical Analgesic; Real Time Pain Relief Sports Cream Topical Analgesic; Real Time Pain Relief Topical Analgesic; Real Time Pain Relief Vegan Select; RealLief Gel - I; Reciphexamine; Recover CBD Pro; Recover Hemp Powered TIDL; Recovery; Recovery Roll-On; Red Lion Relief; Red Oil; Redicare Cherry Menthol Cough Drops; Reed Therapeutics Pain Relieving Therapy; Refined Gou Pi Pain Relieving Plaster; Reina Cbd Infused Topical Pain Relief; Rejuvaflex Natural Pain Relieving; Releevia; Releevia LM Patch; Releevia MC; Relexo Oil; Reliaderm; Relief; Relief Assist; Relief Balm; Relief Pain Relieving Cream; Relief Recovery; Relief and Cooling; Reliefor; Relieve And Relax Pain Relieving; Relieve Well Pain Relief; Relieve Your Pain; Relieve and Relax Pain Relieving; RelieveIt Footspray Topical Analgesic; Reliever; Rematex; Reme D; Remedy Pain Relief Cream; Renewal Medicated; Renovo; Renovo Lido5; Restoral; Retadolor; Retadolor Penetrating Cool Therapy; Revalife; Revalife Pain Relief Cream; Revive 1; Revive 2; Rexall ICE COLD ANALGESIC; Rexall Vanishing Scent Pain Relieving; Rhemu; Rheumatica Synergy for treatment of Rheumatitis; Rhinitis Support Cream; Rhuli Gel; Rhulief Pain Relieving Balm; Ricola Max Nasal Care Cool Menthol; Ricola Max Throat Care Cool Peppermint; Ricola Max Throat Care Honey Lemon; Ricola Max Throat Care Swiss Cherry; Ricora; Rinse; Rite Aid; Rite Aid Cherry Cough Drops; Rite Aid Chest Rub; Rite Aid Cold and Hot Medicated; Rite Aid Cool Therapy Gel; Rite Aid Cooling Pain Relief; Rite Aid Extra Strength Pain Relief Cold and Hot Medicated; Rite Aid Herbal Cough Drops; Rite Aid Honey Lemon Cough Drops; Rite Aid Hot and Cold Extra Strength; Rite Aid Hot and Cold Pain Relief Pain Relieving; Rite Aid Maximum Toothache Reliever; Rite Aid Muscle Rub Ultra Strength; Rite Aid Pain Relieving; Rite Aid Roll-On; Rite Aid Severe Toothache and Gum Relief Triple Medicated; Rite Aid Soothing Medicated Anit-Itch; Rite Aid Ultra Strength Muscle Rub; Road to Wellness; Robitussin Medi-Soothers Cough DM; Rocainol; Rocainol TOPICAL ANALGESIC; Rock Sauce; Rock Sauce Chill (no color); RockSauce FIERY HOT PAIN RELIEF; RockSauce ICE; RockSauce ICY COLD PAIN RELIEF; Rocksauce Fire; Rocksauce Ice; Rolling Farmacy; Rootsallo Advanced Scalp Care Hair; Rotex; Royal Mouthwash Fresh and Clean Original Mint; Royal Whitening Pre-Brush; Rs; Rubber Arm Muscle Rub; Rubbing Dots Natural Cool Pain Relief; Rugby Anti-Itch; Rugby Barrier Cream; Rugby Cooling Pain; Rugby Ice Blue External Analgesic; Rugby Menthol Hot Cold Patch; Rugby Muscle Rub Cream; Rugby Pain Relieving Analgesic; Rut Hair Ageless Clinic Ampoule; Rut Hair Ageless Clinic Plus; Rut Hair Ageless Clinic Treatment Plus; S-Oint PRODERM SKIN PROTECTANT; SAINT External Pain Relieving Bandage; SANA SANA Menthol External Analgesic; SCALAR Pain Relief Cream; SE Sport Endurance Pain Freeze Recovery; SF Black Cherry Cough Drops; SF Cherry Cough Drop; SF Cherry Cough Drops; SF Honey Lemon Cough Drop; SF Honey Lemon Cough Drops; SF Menthol Cough Drop; SF Menthol Cough Drops; SF menthol cough drop; SHENG CHUN HERBAL Pain Relieving; SHINGBASE Topical Analgesic; SMITH BROS HONEY LEMON Cough Drops; SMITH BROS MENTHOL EUCALYPTUS Cough Drops; SMITH BROS Sugar-Free BLACK CHERRY Cough Drops; SMOOTH GATOR 60-second Pain Relief; SMOOTH GATOR Foot and Leg Rub; SPORTS gel; SUNMED Topical with Menthol; SUPER BLUE STUFF Pain Relief Cream; SUPER WHITE STUFF Pain Relief; SUPER WHITE Stuff Pain Relief; Salonpas; Salonpas Arthritis Pain; Salonpas DEEP RElieving TOPICAL ANALGESIC; Salonpas DEEP Relieving; Salonpas Pain Relief; Salonpas Pain Relieving; Salonpas pain relieving HOT; Salonpas pain relieving HOT-L; Salonpas pain relieving JET; Salonpas pain relieving MASSAGE; Salonpas pain relieving PATCH -L; Salonpas pain relieving hot; Salonsip Aqua-patch; SanaMax Menthol Pain Relief Cream CBD; Sanatos Lozenges; Sano Ti Amo Relief and Repair Pain Relief; Sarna; Sc Herbal Pain Relieving; Sc Pain Relief Balm; Scal-tonic intensive liquid hair care; Screamin Menthol Toast; Seldicine (Massage Cream); Select Brand Anti-Itch; Sella Natural; Severe Throat Sore Drops; Severe Triple Medicated Gel; Shang Shi Zhi Tong Gao; Shang Shi Zhi Tong Pain Relieving Plaster; Shanghai Shang Shi Zhi Tong Gao Pain Relieving; Shao Lin Gao Pain Relieving Plaster; Shao Lin Pain Relief Plaster; Shaping with workout - loose skin revitalizer; She Xiang Zhuang Gu Gao; She Xiang Zhuang Gu Gao Regular; SheXiang ZhuangGu Gao; Shelo NABEL Arnica Gel; Shelo NABEL Gel para Golpes; Shelo NABEL Hielo Mineral; Shelo NABEL Pomada Arnica; Shelo NABEL TherapyGel; Shelo NABEL Vibora de Cascabel Topical Analgesic Gel 250 ml; Sheng Chun Pain Relief; Shengguxiang Foot Care Bath Liquid; Shennong Analgesic Plaster; Shexiang Zhuanggugao; Shield and Heal Lip Balm; Shield and Heal Medicated Lip Balm; Shopko Blue Mint; Shopko Ice Mint; Shopko Medicated Lip Treatment; Shopko Spring Mint; Shu Jin Huo Luo Pain Relieving; Shu Jin Lu; Shuang Long Pain Relieving Oil; Sigform Herbal Muscle; Sigform Herbal Muscle Mist; Signature Care Cherry Cough Drops; Signature Care Cold and Hot; Signature Care Cold and Hot Medicated; Signature Care Cool Heat; Signature Care Honey Lemon Cough Drops; Signature Care Maximum Strength Cold Sore Treatment; Silvera Pain Relief Patch; Simanix; Simi-Tree Natural Pain Relief; Simply Vital Pain Relief Hemp; Sincere Pain Relief; Sinelee; Sinsin Mulpas; Sinsinpas Cold; Sintong; Siterol; Skin So Soft Bug Guard Plusitch Relief Itch Relief; Sky Wellness Max Pain Relief; Smart Choice Barrier; Smart Pro Medicated Analgesic Pain Relieving Cataplasm; Smart Sense Blue Mint; Smart Sense Citrus; Smart Sense Cold and Hot Extra Strength Medicated; Smart Sense Cool Heat; Smart Sense Iceberg Blue; Smart Sense Original Flavor; Smart Sense Spring Mint; SmartMouth Mouth Sore Zinc Activated Formula; SmartRx Gaba Kit; SmartRx Gaba-V Kit; Smith Amish Arthritis; Smith Amish Foot; Smith-amish Arthritis; Snap Crack Natural Pain Relieving Gel; Sno Swedish Arctic Gel Recovery; Sno Swedish Arctic Gel Relief; Sno Swedish Arctic Gel Support; Sof Skin Icy Blue; Sof Skin Vaporizing Chest Rub and Cough Suppressant; Sofskin Ice Analgesic; Soft Mint Listerine Antiseptic; Softlips Lip Relief; Solaice; Solep Premier Hi Gro Ampoule Pack; Solep Premier Hi Gro Tonic; Solid Roots Roll-ON Relief; Solmara; Solstice Pain Relieving; Sombra CBD Warm Therapy; Sombra Cool Therapy; Sombra Plus CBD 1000mg Warm Theapy; Sombra Plus CBD 2000mg Warm Theapy; Sombra Plus CBD 500MG Cool Therapy; Sombra Plus Cbd 1000mg Cool Therapy; Sombra Plus Cbd 2000mg Cool Therapy; Sombra Warm Therapy; Sooth-a-Sting; Soothanol X2; Soothe; Soothee Patch; Soothing Pain Relief Roll On; Sore No More; Sore No More Cool Therapy; Sore No More Plus CBD 500MG Cool Therapy; Sore No More Plus Cbd 1000mg Cool Therapy; Sore No More Plus Cbd 2000mg Cool Therapy; Sore No More Warm Therapry Plus CBD 1000mg; Sore No More Warm Therapy; Sore No More Warm Therapy Plus CBD 500mg Natural Pain Relieving Gel; Sore Throat Logenzes Sore Throat; Sore Throat Logenzes Sore Throat-; Sound Body Extra Strength Cold and Hot; Sound Body Extra Strength Cold and Hot Medicated; Sound Body Herbal Cough Drops; Sound Health Cherry Cough Drops; Sound Health SF Menthol Cough Drops; SoundHealth SF Honey Lemon Cough Drops; Soundbody; Soundbody Cold and Hot Pain Relief; Soundbody medicated patch; Sportcaine Patch; Sports Balm; Sports Pain Relief Balm; Sports Pain Relief Cream; Ssencare; Star Drops; Sting-Kill; Stopain Clinical; Stopain Clinical Continuous; Stopain Clinical Roll-On; Stopain Cold Pain Relieving; Stopain Cold Professional Strength Pain Relieving; Stopain Extra Strength Continuous; Stopain Extra Strength Gel; Stopain Extra Strength Pain Relieving; Strain Pain Relieving Cream; Strawberry Cough Drop; Strawberry Cough Drops; Stressa Back and Neck Pain Relieving; Stroke II Synergy; Strong Vaporizing; Studio 35 External Analgesic Medicated Body; Studio 35 Medicated Body; Studio35 Extra Strength Medicated Body; Sub-zero Cool Pain Relieving; Sucrets; Sucrets Complete Cool Citrus; Sucrets Complete Vapor Cherry; Sucrets Herbal Berry Pomegranate; Sucrets Herbal Honey Lemon Ginseng; Sucrets Ice Grape; Sucrets Ice Pomegranate; Sucrets Vapor Cherry; Sugar Free Black Cherry Cough Drops; Sugar Free Cherry Cough Drops; Sugar Free Cherry Fishermans Friend Menthol Cough Suppressant; Sugar Free Cherry Herb Throat Drops; Sugar Free Cough Drops; Sugar Free Green Tea With Echinacea Cough Suppressant Throat Drops; Sugar Free Hiney Lemon Cough Drops; Sugar Free Honey Lemon Cough Drop; Sugar Free Honey Lemon Cough Drops; Sugar Free Honey-Lemon Fishermans Friend Menthol Cough Suppressant; Sugar Free Lemon Mint Herb Throat Drops; Sugar Free Menthol Cough Drop; Sugar Free Menthol Cough Drops; Sugar Free Menthol cough drop; Sugar Free Menthol cough drops; Sugar Free Mountain Herb Cough Suppressant Throat Drops; Sugar Free Original Swiss Herb Cough Suppressant Throat Drops; Sugar Free Refreshing Mint Fishermans Friend Menthol Cough Suppressant; Sugar Free Swiss Cherry Herb Throat Drops; Sugar Free menthol cough drop; Sugar free menthol cough drop; SumaChip; Sun Moon Star Pain Relieving; Sunmark Muscle Rub; Sunmark muscle rub; Sunset Pain Relief - Cooling Relief; Sunset Pain Relief Heating Camphor and Amino Acids; Super Forte Xl10; Super Lysine plus; Super White Stuff Pain Relief; Superior Analgesic; Sweet Comfort; Swift River Pain Relief; Synergy Booster; SynoFlex Patch; Synvexia; Synvexia TC; TENHEALER Pain Rub; THE BLACK Patch; TIDL Sport Cryotherapy Joint Muscle; TIDL Sport Plant Powered; TJz Night-time Topical Pain Relief Balm; TOKUHON-A External Analgesic Pain Relieving Medicated; TOKUHON-A External Pain Relieving Medicated; TRIDERMA Power Gel Muscle Rub; TRIPLE CARE plus ARNICA ANALGESIC - RECOVERY; TVIA TOPICAL Gel; Talc-free Medicated Body; Tartar Control; Tartar Control Plus; Tartar control; Tartar control plus; Te-Fu Recovery Massage; Teeter ReNew Pain Relief; Teeter Renew Muscles Pain Relieving; Teeter reNEW MUSCLES Pain Relieving; Tempo cool; Tendinitica Synergy for treatment of Tendinitis; Terocin; Terphouse; TerraFreeze Pain Relief; Terrasil Arthritis Cream; Terrasil Back Pain Cream; Terrasil Burn Care and Relief; Terrasil Burn Care and Relief maximum strength; Terrasil FLEX -Pain Relief and Muscle Rub MAX; Terrasil FLEX Pain Relief and Muscle Rub; Terrasil Itch, Rash and Pain Relief; Terrasil Itch, Rash and Pain Relief Maximum Strength; Terrasil Joint Pain Cream; Tetrakam; Tetramex; Thai Herbal Balm Lavender; Thai Herbal Balm Lemon Grass; The Fact-HFN Cooling Anti-hair Loss TonicGel; The Fresh Market Medicated Lip Balm Soothing With Menthol Eucalyptus Oil And Clove; The Goo Medicated Pain Relief; The Medicine Shoppe Extra Strength Pain Relieving; The Nose Detox cream; The Nose Fragrance cream; The Original Natural Herb Cough Drops; The Relief Company; The Skateboarding Pain Relieving Liniment; Thera Care Cold Hot Medicated Patch; Thera Care Hot and Cold Medicated Patch; Thera Care Pain Relief Menthol Patchs; Thera Derm; TheraCare 4% Lidocaine and 1% Menthol Cream; TheraCare Medicated Chest Rub; TheraCare Muscle and Join Pain Relief Cream; TheraCare Pain Relieving Muscle Vanishing Scent; TheraDerm; TheraPlus Plus; Theracare Ice Blue Gel Pain Relieving; Theraderm Pain Relieving Patch; Therafreeze; Theragesic Creme; Theragesic Plus; Theraid; Theralast Clinical Strength MD3 Topical Analgesic; Theralast Maximum Strength Pain Relief Gel; Theralast Topical Analgesic Relief; Therapeutic Ice; Therapeutic Icy Cold Cooling Pain Relief; Therapeutic Icy Cold Cooling Pain Relief Roll-ON; Therapeutic Menthol; Therapeutic Relief Preferred Plus Pharmacy; Therapy Pain; Therapytion Natural Deep Clean; Therapytion Natural Relaxing; Theraseptin; Thermacare Ultra; Thieves Essential Oil-Infused Chest Rub; Thompson Cherry Cough Drops; Thritex; Throat Coat; Throat Coat Eucalyptus Mint; Throat Coat Sweet Orange Fennel; Throat Relief Lozenges; Throat and Chest Anise and Menthol; Throat and Chest Berry Menthol; Throat and Chest Cherry and Menthol; Throat and Chest Chili and Lime; Throat and Chest Honey Lemon and Menthol; Tianhe Guben Yaoshen Tie Gao; Tianhe Gutong Tiegao; Tianhe Gutong Tiegao (in Polyisobutylene Carrier); Tianhe Zhuanggu Gao; Tianhe Zhuifeng Gao; Tibet Gigi Itch Relief Cream; Tidl Pain Relief Massaging Roll-ON; Tidl Pain Relief Numbing Tidl; Tieso Foot; Tieso Rapido; Tieso for Man Male Cleanser; Tiger Balm; Tiger Balm Active Muscle; Tiger Balm Active Muscle Rub; Tiger Balm Arthritis Rub; Tiger Balm Muscle Rub Pain Relieving; Tiger Balm Neck and Shoulder Rub; Tiger Balm Pain Relieving; Tiger Balm Pain Relieving Muscle; Tiger Balm Red; Tiger Balm Red Extra Strength; Tiger Balm Ultra Strength; Tiger Balm Ultra Thin; Tiger Balm White Regular Strength; Timing Pain Savior Cool Herbal Patch; Timing Pain Savior Fragrant Ginger Patch; Tommie Copper Pain Relief; Tommie Copper Pain Relief Roller; Tommie Copper Sport; Tong Feng Ding Pain Relief; Tong Luo Qu Tong Gao; Tonys Warm Therapy; Toothache and Gum Relief; Toothache and Gum Relief Cushions; Top Care Medicated; Top Medicated; Top Medicated Pain Relieving; TopCare Cold and Hot Pain Relieving Analgesic; TopCare Cough Relief Honey Lemon Flavor; TopCare Cough Relief Sugar Free Cherry Flavor; TopCare Health Pain Relief; TopCare Maximum Strength Pain Relieving Analgesic; TopCare Medicated; TopCare Natural Cherry Cough Drops; TopCare Pain Relief Patch; TopCare Pain Relieving Roll-On Topical Analgesic; TopCare Sore Throat Cherry Flavor; TopCare Sore Throat Honey Lemon Flavor; Topcare Cold Sore Treatment; Topcare Cold and Hot Medicated; Topcare Natural Honey Lemon Cough Drops; Topcare Pain Relieving 40ct; Topco 4x Medicated Toothache and Gum Gel; TopiCool Pain Relief with Cats Claw; Topical Analgesic; Topical Analgesic Gel; Topical Edge; Topical Pain Relief; Topical Pain Relief Rx; Toplast Cool Menthol 2percent; Toplast Cool Menthol 4percent; Toplast Cool Menthol 5percent; Toplast Cool and Hot Menthol 1.25percent plus Capsaicin 0.025percent; Toplast Cool and Hot Menthol 4percent plus Capsaicin 0.025percent; Toplast Cool and Hot Menthol 5percent plus Capsaicin 0.025percent; Toplast Pain Relief Lidocaine 4percent plus Menthol 1percent; Total Muscle Relief; TotalArthritis; Trans-D; Transanosil; Transderm Iq; Transderm-IQ; Transderm-iQ; Trauma Less; Traveling Farmacy; TriMotion Pain Relief; Triceptin; Triderma Pain Relief; Triple Action Arthritis; Triple Power Pain Relief; Trivita Qpr; TruRelief RUBITON Rub It Where It Hurts; TruVitality CBD Muscle Freeze 4% Menthol; True Pain Relief Plus; Truu Balance Pain Relief; Turmeric Infused Hemp Pain Cream; Turmeric Pain Relieving Cream; Tuvivex; Tuvivex10; Two Old Goats Arthritis Formula Topical Analgesic; U Ice Cold; URIFLEX Fast Acting Analgesic Pain Relief; US Favorite Cold Pain Relieving; Ultimate Lidocaine Pain Relief Patch; Ultimate Topical Pain Relief Patch; Ultra Balm; Ultra Blue; Ultra Pain-A-Trate Pain-Relieving Cream; Ultra Strenght Muscle Rub; Ultra Strength Muscle Rub; Ultra Strength Pain Relief; Ultra Strength Pain Relief Balm; Ultra Strength Pain Relief Gel; Ultra Strength Stopain Pain Relieving; Ultra Therapy Pain Relief; Ultra Vedic; Ultra strength pain relief balm Ultra Strength; Ultracin; Ultracin M; Unishield Cherry Cough; Universal Ice Cold Analgesic; Universal Vaporizing Chest Rub; Up and Up Cold and Hot Medicated; Up and Up Hot and Cold Medicated; Up and Up Pain; Up and Up Pain Relief Extra Strength; Up and Up Pain Relief Ultra Strength; Up and Up Ultra Strength Pain Relieving; UtaSpray; VANTELIN COOL PAIN RELIEVING Gel Patch; VANTELIN COOL PAIN RELIEVING Gel Patch Large; ValleGel Prep; Vallement Flex; Valtrum Aerobic Sports; Valtrum Analgesic; Valtrum Soothing Topical Analgesic; Valtrum Topical Analgesic Roll On; Valtrum US Aerobic Sport IMMEDIATE ACTION; Valtrum US Soothing Topical Analgesic; Vanishing Scent Muscle Rub Gel; Vantelin Cool Pain Relieving; Vapor Plus; Vaporex; Vaporizing Chest; Vaporizing Chest Rub; Vaporizing Chest Rub 4 oz.; Vaporizing Chest Rub 4 oz. 3 pk; Vaporizing Chest Rub Cough Supressant; Vaporizing Chestrub; Vaporizing Colds Rub; Vaporx; Vaporx Balm; Vapour Rub; Varophen; Velatrin Pain Relief; Velma Pain Relief Patch; Veltrix; Venia Patch Premium Pain Patch; Vicks; Vicks Casero Cough Suppressant/Topical Analgesic; Vicks Formula 44 Cough Drops; Vicks Formula 44 Sore Throat; Vicks Vapo Rub; Vicks VapoCOOL; Vicks VapoCOOL HYDRASOOTHE; Vicks VapoCOOL HydraSoothe; Vicks VapoCOOL Severe; Vicks VapoCool SEVERE Cherry Freeze; Vicks VapoCool SEVERE Honey Lemon Chill Drops; Vicks VapoCool Sore Throat; Vicks VapoDrops Cough Relief; Vicks VapoRub; Vicks VapoRub Lavender Scent; Vicks VapoRub childrens; Vicks Vaporub; Viobin; Viobin, LLC; VitaCin; Vitabrid C12 Hair Tonic Professional; Vitabrid C12 Hair Tonic Scalp Relief; Vitabrid Scalp; Vital Vapor; Vitaminerals Inc. Cryogel Natural Pain Relieving; Vitapirena; Vting; WPR Plus; Wakaya RuRu Topical Analgesic; Walgreen Anti Itch; Walgreen Cool n Heat Maximum Strength Pain Relieving; Walgreen Vanishing Scent Muscle and Joint; Walgreens Aloe Vera Cooling; Walgreens Aloe Vera Pain Relieving; Walgreens Chest Rub; Walgreens Cold Pain Relief; Walgreens Cold Therapy Pain Relief Patch; Walgreens Cool N Heat Dry; Walgreens Cool N Heat Therapy Pain Relief Stick; Walgreens Cool and Heat Muscle and Joint Relief; Walgreens Cool n Heat; Walgreens Cool n Heat Muscle and Joint Pain Relief Extra Strength; Walgreens Cool n heat; Walgreens Ice Blue Gel; Walgreens Ice Blue Pain Relieving Topical Analgesic; Walgreens Instant Toothache and Gum Relief Triple Medicated; Walgreens Medicated Foot Powder; Walgreens Medicated Pain Relieving; Walgreens Moisture Barrier; Walgreens Muscle Rub Ulra Strength; Walgreens PAIN RELIEVING; Walgreens Pain Burn Itch Relief; Walgreens Pain Relieving Analgesic; Walgreens Pain Relieving Cream; Walgreens Sunburn Relief; Warming Epsom Rub; Warrior Pain Relieving; Wasabi Rub; Watermelon Frost Sore Throat; Weh-Weh Pain reliever gel; Welby Hot and Cold Medicated Patch; WellPatch Backache Pain Relief; WellPatch Cooling Pain Relief; Western Family Pain Relieving; White Flower Analgesic Balm; White Flower Analgesic Balm Floral Scented; White Flower Strain Relief; White Real Time Pain Relief Topical Analgesic; Whole Foods 365 Herbal Cough Drops; Will Cool Roll-On; Willow Balm; WinCo Extra Strength Cold and Hot Medicated; Winco Cold and Hot Medicated Patch Large; Wintermint Cough Drops; Wish Care; Wok Lok Pain Relieving Oil; Womens Relief Balm; Womens Sports Balm; Wong To Yick External Analgesic; Workvie; Workvie Roll On; Workvie Work Pain Relief Therapy Cream; Wu Yang Brand Medicated; Wu Yang Brand Pain Relieving Medicated; X Ray Pain Relieving; X-Treme Freeze; XRay DOL; Xiao Zhong Gao; Xjow; Xlear Cough Drops (Black Cherry); Xlear Cough Drops (Green Apple); Xlear Cough Drops (Honey Lemon); Xoten-C; Xpacaine; Xpect Cherry Menthol Cough Drop; Xpect Honey Lemon Cough Drops; XtraCare Ice Cold Topical Analgesic Gel; XtraCare Vaporizing Chest Rub; Xyphex Biofrequency Chip; Yan Ji Huo Jin Tou Gu Gao; Yao Shen Gao Pain Relieving Plaster; You Plus Relief Pain Relieving; You Relief Muscle and Joint Rub; Youngevity Invision CM; Your Logo Here Burn First Aid; Yu Long You Pain Relieving; Yulam Die Da Wan Hua Pain Relieving; Yun Xiang Jing; ZENSEZONE Arthmed Temporary Pain Relief Cream; ZHONG HUA FENG SHI DIE DA GAO External Analgesic Plaster; ZIHUA EMBROCATION Cooling Pain Relief; Zandu Balm; Zaol Doctors Order Synergy Booster; Zaxs Aches and Pain; Zcaine; Zen Hemp Balm; Zen Sports Balm; Zepol Topical Analgesic; Zeruvia; Zheng Gu Shui; Zhenweilong Huoluo You External Analgesic; Zhong Hua Feng Shi Die Da Gao; Zhong Hua Feng Shi Die Da Gao External Analgesic Plaster; Zhong Hua Jiu Patch; Zhuang Gu Feng Shi Pain Relieving Plaster; Zhuang Gu She Xiang Zhi Tong Gao; Zhuanggu Gao Pain Relieving; Zhuanggu Shexiang Zhitonggao Pain Relieving Plaster; Zhuifeng Gao Pain Relieving; Zihuadick Pain relieving; Ziks Arthritis Pain Relief; Zims Arnica Max; Zims Lido Freeze; Zims Max Freeze; Zims Max Freeze Continuous; Zims Max Freeze Leg Cramp; Zims Max Freeze Pro Formula; Zinc-oxyde Plus; Zostrix Diabetic Joint and Arthritis Pain Relief; Zostrix Hot and Cold Therapy System; Zostrix Joint and Arthritis Pain Relief; Zurflex; Zylotrol; Zylotrol Maximum Pain; Zylotrol Maximum Pain Patch; Zylotrol Pain Relieving; Zylotrol Plus; Zzip Cold Sore Treatment; comforte Natural Menstrual Cramp Relief Cream; curetech Chest Rub; dermaFIT Athlete Muscle Maintenance; dermaFIT Basic Muscle Maintenance; dermaFIT Slim Muscle Maintenance; dynaFreeze; eLenza Patch; eez-away Pain Relief; eez-away RELIEF; elevate COOLING THERAPY TWIST UP; elevate HEATING THERAPY; eos Medicated Cooling Chamomile; eos THE FIXER HEAL REPAIR MEDICATED ANALGESIC LIP; equate Severe Toothache and Gum Relief; iRELIEV Roll On Cool Pain Relief; myDerm Cooling Menthol Pain Relief Roll-On with 50 Percent More Menthol; myDerm Cooling Menthol Pain Relief with 50 Percent More Menthol; op6 Menthol Cooling Pain Cream; op6 Menthol Warming Pain Cream; smart sense Ultra Strength

$$$$
