
  Mrv1718009011814242D          

 31 32  0  0  0  0            999 V2000
    3.5724   -3.7125    0.0000 C   0  0  0  0  0  0  0  0  0  0  0  0
    4.2868   -4.1250    0.0000 O   0  0  0  0  0  0  0  0  0  0  0  0
    4.2868   -4.9500    0.0000 C   0  0  0  0  0  0  0  0  0  0  0  0
    5.0013   -5.3625    0.0000 C   0  0  0  0  0  0  0  0  0  0  0  0
    5.0013   -6.1875    0.0000 C   0  0  0  0  0  0  0  0  0  0  0  0
    4.2868   -6.6000    0.0000 C   0  0  0  0  0  0  0  0  0  0  0  0
    3.5724   -6.1875    0.0000 C   0  0  0  0  0  0  0  0  0  0  0  0
    3.5724   -5.3625    0.0000 C   0  0  0  0  0  0  0  0  0  0  0  0
    2.8579   -4.9500    0.0000 O   0  0  0  0  0  0  0  0  0  0  0  0
    5.7158   -6.6000    0.0000 C   0  0  0  0  0  0  0  0  0  0  0  0
    5.7158   -7.4250    0.0000 C   0  0  0  0  0  0  0  0  0  0  0  0
    6.4302   -7.8375    0.0000 C   0  0  0  0  0  0  0  0  0  0  0  0
    7.1447   -7.4250    0.0000 O   0  0  0  0  0  0  0  0  0  0  0  0
    6.4302   -8.6625    0.0000 C   0  0  0  0  0  0  0  0  0  0  0  0
    7.1447   -9.0750    0.0000 C   0  0  0  0  0  0  0  0  0  0  0  0
    7.8592   -8.6625    0.0000 O   0  0  0  0  0  0  0  0  0  0  0  0
    7.1447   -9.9000    0.0000 C   0  0  0  0  0  0  0  0  0  0  0  0
    7.8592  -10.3125    0.0000 C   0  0  0  0  0  0  0  0  0  0  0  0
    7.8592  -11.1375    0.0000 C   0  0  0  0  0  0  0  0  0  0  0  0
    8.5737  -11.5500    0.0000 C   0  0  0  0  0  0  0  0  0  0  0  0
    8.5737  -12.3750    0.0000 C   0  0  0  0  0  0  0  0  0  0  0  0
    7.8592  -12.7875    0.0000 C   0  0  0  0  0  0  0  0  0  0  0  0
    7.1447  -12.3750    0.0000 C   0  0  0  0  0  0  0  0  0  0  0  0
    7.1447  -11.5500    0.0000 C   0  0  0  0  0  0  0  0  0  0  0  0
    6.4302  -12.7875    0.0000 O   0  0  0  0  0  0  0  0  0  0  0  0
    5.7158  -12.3750    0.0000 C   0  0  0  0  0  0  0  0  0  0  0  0
    7.8592  -13.6125    0.0000 O   0  0  0  0  0  0  0  0  0  0  0  0
    8.5737  -14.0250    0.0000 S   0  0  0  0  0  0  0  0  0  0  0  0
    9.2881  -14.4375    0.0000 O   0  0  0  0  0  0  0  0  0  0  0  0
    8.1612  -14.7395    0.0000 O   0  0  0  0  0  0  0  0  0  0  0  0
    8.9862  -13.3105    0.0000 O   0  0  0  0  0  0  0  0  0  0  0  0
  1  2  1  0  0  0  0
  2  3  1  0  0  0  0
  3  4  2  0  0  0  0
  4  5  1  0  0  0  0
  5  6  2  0  0  0  0
  6  7  1  0  0  0  0
  7  8  2  0  0  0  0
  3  8  1  0  0  0  0
  8  9  1  0  0  0  0
  5 10  1  0  0  0  0
 10 11  2  0  0  0  0
 11 12  1  0  0  0  0
 12 13  2  0  0  0  0
 12 14  1  0  0  0  0
 14 15  1  0  0  0  0
 15 16  2  0  0  0  0
 15 17  1  0  0  0  0
 17 18  2  0  0  0  0
 18 19  1  0  0  0  0
 19 20  2  0  0  0  0
 20 21  1  0  0  0  0
 21 22  2  0  0  0  0
 22 23  1  0  0  0  0
 23 24  2  0  0  0  0
 19 24  1  0  0  0  0
 23 25  1  0  0  0  0
 25 26  1  0  0  0  0
 22 27  1  0  0  0  0
 27 28  1  0  0  0  0
 28 29  2  0  0  0  0
 28 30  2  0  0  0  0
 28 31  1  0  0  0  0
M  END
> <DATABASE_ID>
DB14635

> <DATABASE_NAME>
drugbank

> <SMILES>
COC1=CC(\C=C\C(=O)CC(=O)\C=C\C2=CC=C(OS(O)(=O)=O)C(OC)=C2)=CC=C1O

> <INCHI_IDENTIFIER>
InChI=1S/C21H20O9S/c1-28-20-11-14(5-9-18(20)24)3-7-16(22)13-17(23)8-4-15-6-10-19(21(12-15)29-2)30-31(25,26)27/h3-12,24H,13H2,1-2H3,(H,25,26,27)/b7-3+,8-4+

> <INCHI_KEY>
NEJVQQBBTRFOHB-FCXRPNKRSA-N

> <FORMULA>
C21H20O9S

> <MOLECULAR_WEIGHT>
448.44

> <EXACT_MASS>
448.082803398

> <JCHEM_ACCEPTOR_COUNT>
8

> <JCHEM_ATOM_COUNT>
51

> <JCHEM_AVERAGE_POLARIZABILITY>
43.535765632116615

> <JCHEM_BIOAVAILABILITY>
1

> <JCHEM_DONOR_COUNT>
2

> <JCHEM_FORMAL_CHARGE>
0

> <JCHEM_GHOSE_FILTER>
1

> <JCHEM_IUPAC>
{4-[(1E,6E)-7-(4-hydroxy-3-methoxyphenyl)-3,5-dioxohepta-1,6-dien-1-yl]-2-methoxyphenyl}oxidanesulfonic acid

> <ALOGPS_LOGP>
1.72

> <JCHEM_LOGP>
3.649211204666666

> <ALOGPS_LOGS>
-4.73

> <JCHEM_MDDR_LIKE_RULE>
0

> <JCHEM_NUMBER_OF_RINGS>
2

> <JCHEM_PHYSIOLOGICAL_CHARGE>
-1

> <JCHEM_PKA>
9.276596761455515

> <JCHEM_PKA_STRONGEST_ACIDIC>
-2.200076324399043

> <JCHEM_PKA_STRONGEST_BASIC>
-4.394795420965676

> <JCHEM_POLAR_SURFACE_AREA>
136.42999999999998

> <JCHEM_REFRACTIVITY>
113.80239999999999

> <JCHEM_ROTATABLE_BOND_COUNT>
10

> <JCHEM_RULE_OF_FIVE>
1

> <ALOGPS_SOLUBILITY>
8.31e-03 g/l

> <JCHEM_TRADITIONAL_IUPAC>
{4-[(1E,6E)-7-(4-hydroxy-3-methoxyphenyl)-3,5-dioxohepta-1,6-dien-1-yl]-2-methoxyphenyl}oxidanesulfonic acid

> <JCHEM_VEBER_RULE>
0

> <DRUGBANK_ID>
DB14635

> <SECONDARY_ACCESSION_NUMBERS>
DBSALT002044

> <DRUG_GROUPS>
experimental

> <GENERIC_NAME>
Curcumin sulfate

> <SYNONYMS>
Curcumin monosulfate; Curcumin sulphate

$$$$
