
  Mrv1652306031606232D          

 16 18  0  0  0  0            999 V2000
    1.4289    0.8250    0.0000 C   0  0  0  0  0  0  0  0  0  0  0  0
    1.4289    0.0000    0.0000 C   0  0  0  0  0  0  0  0  0  0  0  0
    4.2868    0.8250    0.0000 C   0  0  0  0  0  0  0  0  0  0  0  0
    2.1434    1.2375    0.0000 C   0  0  0  0  0  0  0  0  0  0  0  0
    3.5724    1.2375    0.0000 C   0  0  0  0  0  0  0  0  0  0  0  0
    2.1434   -0.4125    0.0000 C   0  0  0  0  0  0  0  0  0  0  0  0
    4.2868    0.0000    0.0000 C   0  0  0  0  0  0  0  0  0  0  0  0
    5.1800   -2.6420    0.0000 C   0  0  0  0  0  0  0  0  0  0  0  0
    5.5925   -1.9275    0.0000 C   0  0  0  0  0  0  0  0  0  0  0  0
    2.8579    0.8250    0.0000 C   0  0  0  0  0  0  0  0  0  0  0  0
    2.8579    0.0000    0.0000 C   0  0  0  0  0  0  0  0  0  0  0  0
    3.5724   -0.4125    0.0000 C   0  0  0  0  0  0  0  0  0  0  0  0
    4.2868   -1.6500    0.0000 C   0  0  0  0  0  0  0  0  0  0  0  0
    4.3731   -2.4705    0.0000 N   0  0  0  0  0  0  0  0  0  0  0  0
    5.0405   -1.3144    0.0000 N   0  0  0  0  0  0  0  0  0  0  0  0
    3.5724   -1.2375    0.0000 N   0  0  0  0  0  0  0  0  0  0  0  0
  2  1  1  0  0  0  0
  4  1  1  0  0  0  0
  5  3  2  0  0  0  0
  6  2  1  0  0  0  0
  7  3  1  0  0  0  0
  9  8  1  0  0  0  0
 10  4  1  0  0  0  0
 10  5  1  0  0  0  0
 11  6  1  0  0  0  0
 11 10  2  0  0  0  0
 12  7  2  0  0  0  0
 12 11  1  0  0  0  0
 14  8  1  0  0  0  0
 14 13  2  0  0  0  0
 15  9  1  0  0  0  0
 15 13  1  0  0  0  0
 16 12  1  0  0  0  0
 16 13  1  0  0  0  0
M  END
> <DATABASE_ID>
DB13064

> <DATABASE_NAME>
drugbank

> <SMILES>
C1CN=C(NC2=CC=CC3=C2CCCC3)N1

> <INCHI_IDENTIFIER>
InChI=1S/C13H17N3/c1-2-6-11-10(4-1)5-3-7-12(11)16-13-14-8-9-15-13/h3,5,7H,1-2,4,6,8-9H2,(H2,14,15,16)

> <INCHI_KEY>
QQJLHRRUATVHED-UHFFFAOYSA-N

> <FORMULA>
C13H17N3

> <MOLECULAR_WEIGHT>
215.3

> <EXACT_MASS>
215.142247559

> <JCHEM_ACCEPTOR_COUNT>
3

> <JCHEM_ATOM_COUNT>
33

> <JCHEM_AVERAGE_POLARIZABILITY>
25.050218487794012

> <JCHEM_BIOAVAILABILITY>
1

> <JCHEM_DONOR_COUNT>
2

> <JCHEM_FORMAL_CHARGE>
0

> <JCHEM_GHOSE_FILTER>
1

> <JCHEM_IUPAC>
N-(5,6,7,8-tetrahydronaphthalen-1-yl)-4,5-dihydro-1H-imidazol-2-amine

> <ALOGPS_LOGP>
2.27

> <JCHEM_LOGP>
2.729253557

> <ALOGPS_LOGS>
-2.72

> <JCHEM_MDDR_LIKE_RULE>
0

> <JCHEM_NUMBER_OF_RINGS>
3

> <JCHEM_PHYSIOLOGICAL_CHARGE>
1

> <JCHEM_PKA_STRONGEST_BASIC>
9.891016987245061

> <JCHEM_POLAR_SURFACE_AREA>
36.42

> <JCHEM_REFRACTIVITY>
66.96140000000001

> <JCHEM_ROTATABLE_BOND_COUNT>
1

> <JCHEM_RULE_OF_FIVE>
1

> <ALOGPS_SOLUBILITY>
4.08e-01 g/l

> <JCHEM_TRADITIONAL_IUPAC>
tramazoline

> <JCHEM_VEBER_RULE>
1

> <DRUGBANK_ID>
DB13064

> <DRUG_GROUPS>
investigational

> <GENERIC_NAME>
Tramazoline

> <SYNONYMS>
Tramazolina; Tramazoline

> <SALTS>
Tramazoline hydrochloride

$$$$
