
  Mrv1652306231722402D          

 13 13  0  0  0  0            999 V2000
   -1.4289    1.6500    0.0000 C   0  0  0  0  0  0  0  0  0  0  0  0
   -1.4289    2.4750    0.0000 C   0  0  0  0  0  0  0  0  0  0  0  0
   -0.7145    2.8875    0.0000 C   0  0  0  0  0  0  0  0  0  0  0  0
    0.0000    2.4750    0.0000 C   0  0  0  0  0  0  0  0  0  0  0  0
    0.0000    1.6500    0.0000 C   0  0  0  0  0  0  0  0  0  0  0  0
   -0.7145    1.2375    0.0000 C   0  0  0  0  0  0  0  0  0  0  0  0
    0.7145    2.8875    0.0000 C   0  0  0  0  0  0  0  0  0  0  0  0
    1.4289    2.4750    0.0000 C   0  0  0  0  0  0  0  0  0  0  0  0
    2.1434    2.8875    0.0000 O   0  0  0  0  0  0  0  0  0  0  0  0
    2.8579    2.4750    0.0000 C   0  0  0  0  0  0  0  0  0  0  0  0
    3.5724    2.8875    0.0000 O   0  0  0  0  0  0  0  0  0  0  0  0
    2.8579    1.6500    0.0000 N   0  0  0  0  0  0  0  0  0  0  0  0
    0.7145    3.7125    0.0000 O   0  0  0  0  0  0  0  0  0  0  0  0
  1  2  2  0  0  0  0
  2  3  1  0  0  0  0
  3  4  2  0  0  0  0
  4  5  1  0  0  0  0
  5  6  2  0  0  0  0
  1  6  1  0  0  0  0
  4  7  1  0  0  0  0
  7  8  1  0  0  0  0
  8  9  1  0  0  0  0
  9 10  1  0  0  0  0
 10 11  2  0  0  0  0
 10 12  1  0  0  0  0
  7 13  1  0  0  0  0
M  END
> <DATABASE_ID>
DB13357

> <DATABASE_NAME>
drugbank

> <SMILES>
NC(=O)OCC(O)C1=CC=CC=C1

> <INCHI_IDENTIFIER>
InChI=1S/C9H11NO3/c10-9(12)13-6-8(11)7-4-2-1-3-5-7/h1-5,8,11H,6H2,(H2,10,12)

> <INCHI_KEY>
OCSOHUROTFFTFO-UHFFFAOYSA-N

> <FORMULA>
C9H11NO3

> <MOLECULAR_WEIGHT>
181.191

> <EXACT_MASS>
181.073893218

> <JCHEM_ACCEPTOR_COUNT>
2

> <JCHEM_ATOM_COUNT>
24

> <JCHEM_AVERAGE_POLARIZABILITY>
18.35329776701265

> <JCHEM_BIOAVAILABILITY>
1

> <JCHEM_DONOR_COUNT>
2

> <JCHEM_FORMAL_CHARGE>
0

> <JCHEM_GHOSE_FILTER>
1

> <JCHEM_IUPAC>
2-hydroxy-2-phenylethyl carbamate

> <ALOGPS_LOGP>
0.34

> <JCHEM_LOGP>
0.6831409833333332

> <ALOGPS_LOGS>
-1.49

> <JCHEM_MDDR_LIKE_RULE>
0

> <JCHEM_NUMBER_OF_RINGS>
1

> <JCHEM_PHYSIOLOGICAL_CHARGE>
0

> <JCHEM_PKA>
15.552056613094212

> <JCHEM_PKA_STRONGEST_ACIDIC>
13.662096621340655

> <JCHEM_PKA_STRONGEST_BASIC>
-3.37980033687575

> <JCHEM_POLAR_SURFACE_AREA>
72.55

> <JCHEM_REFRACTIVITY>
46.6646

> <JCHEM_ROTATABLE_BOND_COUNT>
4

> <JCHEM_RULE_OF_FIVE>
1

> <ALOGPS_SOLUBILITY>
5.83e+00 g/l

> <JCHEM_TRADITIONAL_IUPAC>
styramate

> <JCHEM_VEBER_RULE>
0

> <DRUGBANK_ID>
DB13357

> <DRUG_GROUPS>
experimental

> <GENERIC_NAME>
Styramate

> <SYNONYMS>
Styramate

$$$$
