
  Mrv1902 03021918242D          

 39 43  0  0  0  0            999 V2000
   -0.7141    0.8877    0.0000 C   0  0  0  0  0  0  0  0  0  0  0  0
   -1.4286    1.3002    0.0000 C   0  0  0  0  0  0  0  0  0  0  0  0
   -2.1431    0.8877    0.0000 C   0  0  0  0  0  0  0  0  0  0  0  0
   -2.1431    0.0627    0.0000 C   0  0  0  0  0  0  0  0  0  0  0  0
   -1.4286   -0.3497    0.0000 C   0  0  0  0  0  0  0  0  0  0  0  0
   -0.7141    0.0627    0.0000 C   0  0  0  0  0  0  0  0  0  0  0  0
   -1.4286    2.1252    0.0000 N   0  0  0  0  0  0  0  0  0  0  0  0
    0.0002   -0.3497    0.0000 N   0  0  0  0  0  0  0  0  0  0  0  0
    0.7147    0.0627    0.0000 C   0  0  0  0  0  0  0  0  0  0  0  0
    1.4292   -0.3497    0.0000 C   0  0  0  0  0  0  0  0  0  0  0  0
    2.8581   -0.3497    0.0000 C   0  0  0  0  0  0  0  0  0  0  0  0
    2.1436    0.0627    0.0000 C   0  0  0  0  0  0  0  0  0  0  0  0
    1.4292   -1.1747    0.0000 C   0  0  0  0  0  0  0  0  0  0  0  0
    2.1436   -1.5872    0.0000 C   0  0  0  0  0  0  0  0  0  0  0  0
    2.8581   -1.1747    0.0000 C   0  0  0  0  0  0  0  0  0  0  0  0
    3.5725   -1.5872    0.0000 C   0  0  0  0  0  0  0  0  0  0  0  0
    2.1436   -2.4122    0.0000 N   0  0  0  0  0  0  0  0  0  0  0  0
    1.4292   -2.8247    0.0000 C   0  0  0  0  0  0  0  0  0  0  0  0
    1.4292   -3.6497    0.0000 N   0  0  0  0  0  0  0  0  0  0  0  0
    0.7147   -4.0622    0.0000 C   0  0  0  0  0  0  0  0  0  0  0  0
    0.0002   -3.6497    0.0000 C   0  0  0  0  0  0  0  0  0  0  0  0
    0.0002   -2.8247    0.0000 C   0  0  0  0  0  0  0  0  0  0  0  0
    0.7147   -2.4122    0.0000 N   0  0  0  0  0  0  0  0  0  0  0  0
   -0.7141   -2.4122    0.0000 C   0  0  0  0  0  0  0  0  0  0  0  0
   -0.7141   -1.5872    0.0000 C   0  0  0  0  0  0  0  0  0  0  0  0
   -1.4286   -2.8247    0.0000 C   0  0  0  0  0  0  0  0  0  0  0  0
   -2.1431   -2.4122    0.0000 C   0  0  0  0  0  0  0  0  0  0  0  0
   -2.1431   -1.5872    0.0000 C   0  0  0  0  0  0  0  0  0  0  0  0
   -1.4286   -1.1747    0.0000 N   0  0  0  0  0  0  0  0  0  0  0  0
   -1.8411    3.3947    0.0000 C   0  0  0  0  0  0  0  0  0  0  0  0
   -1.0161    3.3947    0.0000 N   0  0  0  0  0  0  0  0  0  0  0  0
   -0.7612    2.6101    0.0000 C   0  0  0  0  0  0  0  0  0  0  0  0
   -2.0961    2.6101    0.0000 C   0  0  0  0  0  0  0  0  0  0  0  0
   -2.3261    4.0622    0.0000 C   0  0  0  0  0  0  0  0  0  0  0  0
    0.7147    0.8877    0.0000 O   0  0  0  0  0  0  0  0  0  0  0  0
   -2.8575   -0.3497    0.0000 C   0  0  0  0  0  0  0  0  0  0  0  0
   -2.8560   -1.1799    0.0000 F   0  0  0  0  0  0  0  0  0  0  0  0
   -3.5725    0.0639    0.0000 F   0  0  0  0  0  0  0  0  0  0  0  0
   -3.5725   -0.7619    0.0000 F   0  0  0  0  0  0  0  0  0  0  0  0
  1  2  2  0  0  0  0
  1  6  1  0  0  0  0
  2  3  1  0  0  0  0
  3  4  2  0  0  0  0
  4  5  1  0  0  0  0
  5  6  2  0  0  0  0
  2  7  1  0  0  0  0
  6  8  1  0  0  0  0
  8  9  1  0  0  0  0
  9 10  1  0  0  0  0
 12 10  2  0  0  0  0
 10 13  1  0  0  0  0
 11 12  1  0  0  0  0
 11 15  2  0  0  0  0
 13 14  2  0  0  0  0
 14 15  1  0  0  0  0
 15 16  1  0  0  0  0
 14 17  1  0  0  0  0
 17 18  1  0  0  0  0
 18 19  2  0  0  0  0
 18 23  1  0  0  0  0
 19 20  1  0  0  0  0
 20 21  2  0  0  0  0
 21 22  1  0  0  0  0
 22 23  2  0  0  0  0
 22 24  1  0  0  0  0
 25 24  2  0  0  0  0
 24 26  1  0  0  0  0
 25 29  1  0  0  0  0
 26 27  2  0  0  0  0
 27 28  1  0  0  0  0
 28 29  2  0  0  0  0
 32  7  1  0  0  0  0
  7 33  1  0  0  0  0
 30 31  1  0  0  0  0
 30 33  2  0  0  0  0
 31 32  2  0  0  0  0
 30 34  1  0  0  0  0
  9 35  2  0  0  0  0
  4 36  1  0  0  0  0
 36 37  1  0  0  0  0
 36 38  1  0  0  0  0
 36 39  1  0  0  0  0
M  END
> <DATABASE_ID>
DB04868

> <DATABASE_NAME>
drugbank

> <SMILES>
CC1=CN(C=N1)C1=CC(NC(=O)C2=CC=C(C)C(NC3=NC=CC(=N3)C3=CN=CC=C3)=C2)=CC(=C1)C(F)(F)F

> <INCHI_IDENTIFIER>
InChI=1S/C28H22F3N7O/c1-17-5-6-19(10-25(17)37-27-33-9-7-24(36-27)20-4-3-8-32-14-20)26(39)35-22-11-21(28(29,30)31)12-23(13-22)38-15-18(2)34-16-38/h3-16H,1-2H3,(H,35,39)(H,33,36,37)

> <INCHI_KEY>
HHZIURLSWUIHRB-UHFFFAOYSA-N

> <FORMULA>
C28H22F3N7O

> <MOLECULAR_WEIGHT>
529.5158

> <EXACT_MASS>
529.183792976

> <JCHEM_ACCEPTOR_COUNT>
6

> <JCHEM_ATOM_COUNT>
61

> <JCHEM_AVERAGE_POLARIZABILITY>
52.34690394338325

> <JCHEM_BIOAVAILABILITY>
0

> <JCHEM_DONOR_COUNT>
2

> <JCHEM_FORMAL_CHARGE>
0

> <JCHEM_GHOSE_FILTER>
0

> <JCHEM_IUPAC>
4-methyl-N-[3-(4-methyl-1H-imidazol-1-yl)-5-(trifluoromethyl)phenyl]-3-{[4-(pyridin-3-yl)pyrimidin-2-yl]amino}benzamide

> <ALOGPS_LOGP>
4.51

> <JCHEM_LOGP>
5.361539851000001

> <ALOGPS_LOGS>
-5.42

> <JCHEM_MDDR_LIKE_RULE>
1

> <JCHEM_NUMBER_OF_RINGS>
5

> <JCHEM_PHYSIOLOGICAL_CHARGE>
0

> <JCHEM_PKA>
15.855869088033948

> <JCHEM_PKA_STRONGEST_ACIDIC>
12.381894938219121

> <JCHEM_PKA_STRONGEST_BASIC>
5.92246125825737

> <JCHEM_POLAR_SURFACE_AREA>
97.62

> <JCHEM_REFRACTIVITY>
152.85009999999997

> <JCHEM_ROTATABLE_BOND_COUNT>
7

> <JCHEM_RULE_OF_FIVE>
0

> <ALOGPS_SOLUBILITY>
2.01e-03 g/l

> <JCHEM_TRADITIONAL_IUPAC>
nilotinib

> <JCHEM_VEBER_RULE>
0

> <DRUGBANK_ID>
DB04868

> <DRUG_GROUPS>
approved; investigational

> <GENERIC_NAME>
Nilotinib

> <SYNONYMS>
Nilotinib; Nilotinibum

> <PRODUCTS>
Tasigna

> <SALTS>
Nilotinib hydrochloride monohydrate

$$$$
