
  Mrv1652306231722402D          

 52 54  0  0  1  0            999 V2000
    0.7145   -6.1875    0.0000 C   0  0  0  0  0  0  0  0  0  0  0  0
   -0.0000   -5.7750    0.0000 C   0  0  0  0  0  0  0  0  0  0  0  0
   -0.0000   -4.9500    0.0000 C   0  0  2  0  0  0  0  0  0  0  0  0
   -0.7145   -5.3625    0.0000 C   0  0  1  0  0  0  0  0  0  0  0  0
   -1.4289   -4.9500    0.0000 C   0  0  1  0  0  0  0  0  0  0  0  0
   -1.4289   -4.1250    0.0000 C   0  0  2  0  0  0  0  0  0  0  0  0
   -0.7145   -3.7125    0.0000 C   0  0  0  0  0  0  0  0  0  0  0  0
   -0.0000   -4.1250    0.0000 O   0  0  0  0  0  0  0  0  0  0  0  0
   -0.7145   -2.8875    0.0000 C   0  0  1  0  0  0  0  0  0  0  0  0
   -0.0000   -2.4750    0.0000 C   0  0  0  0  0  0  0  0  0  0  0  0
    0.7145   -2.8875    0.0000 C   0  0  1  0  0  0  0  0  0  0  0  0
    1.4289   -2.4750    0.0000 C   0  0  1  0  0  0  0  0  0  0  0  0
    2.1434   -2.8875    0.0000 C   0  0  2  0  0  0  0  0  0  0  0  0
    2.1434   -3.7125    0.0000 C   0  0  1  0  0  0  0  0  0  0  0  0
    1.4289   -4.1250    0.0000 C   0  0  2  0  0  0  0  0  0  0  0  0
    1.4289   -4.9500    0.0000 C   0  0  0  0  0  0  0  0  0  0  0  0
    2.1434   -5.3625    0.0000 O   0  0  0  0  0  0  0  0  0  0  0  0
    0.7145   -5.3625    0.0000 O   0  0  0  0  0  0  0  0  0  0  0  0
    0.7145   -3.7125    0.0000 C   0  0  0  0  0  0  0  0  0  0  0  0
    2.8579   -4.1250    0.0000 O   0  0  0  0  0  0  0  0  0  0  0  0
    3.5724   -3.7125    0.0000 C   0  0  1  0  0  0  0  0  0  0  0  0
    3.5724   -2.8875    0.0000 C   0  0  0  0  0  0  0  0  0  0  0  0
    4.2868   -2.4750    0.0000 C   0  0  1  0  0  0  0  0  0  0  0  0
    5.0013   -2.8875    0.0000 C   0  0  2  0  0  0  0  0  0  0  0  0
    5.0013   -3.7125    0.0000 C   0  0  1  0  0  0  0  0  0  0  0  0
    4.2868   -4.1250    0.0000 O   0  0  0  0  0  0  0  0  0  0  0  0
    5.7158   -4.1250    0.0000 C   0  0  0  0  0  0  0  0  0  0  0  0
    5.7158   -2.4750    0.0000 O   0  0  0  0  0  0  0  0  0  0  0  0
    3.8995   -1.7466    0.0000 C   0  0  0  0  0  0  0  0  0  0  0  0
    4.6741   -1.7466    0.0000 O   0  0  0  0  0  0  0  0  0  0  0  0
    5.4986   -1.7178    0.0000 C   0  0  0  0  0  0  0  0  0  0  0  0
    2.8579   -2.4750    0.0000 C   0  0  0  0  0  0  0  0  0  0  0  0
    1.4289   -1.6500    0.0000 O   0  0  0  0  0  0  0  0  0  0  0  0
    2.1434   -1.2375    0.0000 C   0  0  1  0  0  0  0  0  0  0  0  0
    2.1434   -0.4125    0.0000 C   0  0  1  0  0  0  0  0  0  0  0  0
    2.8579   -0.0000    0.0000 C   0  0  2  0  0  0  0  0  0  0  0  0
    3.5724   -0.4125    0.0000 C   0  0  0  0  0  0  0  0  0  0  0  0
    3.5724   -1.2375    0.0000 C   0  0  2  0  0  0  0  0  0  0  0  0
    2.8579   -1.6500    0.0000 O   0  0  0  0  0  0  0  0  0  0  0  0
    4.2868   -1.6500    0.0000 C   0  0  0  0  0  0  0  0  0  0  0  0
    2.8579    0.8250    0.0000 N   0  0  0  0  0  0  0  0  0  0  0  0
    2.1434    1.2375    0.0000 C   0  0  0  0  0  0  0  0  0  0  0  0
    3.5724    1.2375    0.0000 C   0  0  0  0  0  0  0  0  0  0  0  0
    1.4289   -0.0000    0.0000 O   0  0  0  0  0  0  0  0  0  0  0  0
    0.9141   -2.0870    0.0000 C   0  0  0  0  0  0  0  0  0  0  0  0
    0.5149   -2.0870    0.0000 O   0  0  0  0  0  0  0  0  0  0  0  0
   -1.5390   -2.8587    0.0000 C   0  0  0  0  0  0  0  0  0  0  0  0
   -1.1517   -2.1879    0.0000 F   0  0  0  0  0  0  0  0  0  0  0  0
   -2.1434   -3.7125    0.0000 C   0  0  0  0  0  0  0  0  0  0  0  0
   -2.1434   -5.3625    0.0000 O   0  0  0  0  0  0  0  0  0  0  0  0
   -0.3272   -6.0909    0.0000 C   0  0  0  0  0  0  0  0  0  0  0  0
   -1.1018   -6.0909    0.0000 O   0  0  0  0  0  0  0  0  0  0  0  0
  1  2  1  0  0  0  0
  3  2  1  1  0  0  0
  3  4  1  0  0  0  0
  4  5  1  0  0  0  0
  5  6  1  0  0  0  0
  6  7  1  0  0  0  0
  7  8  2  0  0  0  0
  7  9  1  0  0  0  0
  9 10  1  0  0  0  0
 10 11  1  0  0  0  0
 11 12  1  0  0  0  0
 12 13  1  0  0  0  0
 13 14  1  0  0  0  0
 14 15  1  0  0  0  0
 15 16  1  0  0  0  0
 16 17  2  0  0  0  0
 16 18  1  0  0  0  0
  3 18  1  0  0  0  0
 15 19  1  6  0  0  0
 14 20  1  6  0  0  0
 21 20  1  1  0  0  0
 21 22  1  0  0  0  0
 22 23  1  0  0  0  0
 23 24  1  0  0  0  0
 24 25  1  0  0  0  0
 25 26  1  0  0  0  0
 21 26  1  0  0  0  0
 25 27  1  6  0  0  0
 24 28  1  1  0  0  0
 23 29  1  6  0  0  0
 23 30  1  1  0  0  0
 30 31  1  0  0  0  0
 13 32  1  1  0  0  0
 12 33  1  6  0  0  0
 34 33  1  1  0  0  0
 34 35  1  0  0  0  0
 35 36  1  0  0  0  0
 36 37  1  0  0  0  0
 37 38  1  0  0  0  0
 38 39  1  0  0  0  0
 34 39  1  0  0  0  0
 38 40  1  1  0  0  0
 36 41  1  1  0  0  0
 41 42  1  0  0  0  0
 41 43  1  0  0  0  0
 35 44  1  6  0  0  0
 11 45  1  6  0  0  0
 11 46  1  1  0  0  0
  9 47  1  6  0  0  0
  9 48  1  1  0  0  0
  6 49  1  1  0  0  0
  5 50  1  6  0  0  0
  4 51  1  6  0  0  0
  4 52  1  1  0  0  0
M  END
> <DATABASE_ID>
DB13338

> <DATABASE_NAME>
drugbank

> <SMILES>
CC[C@H]1OC(=O)[C@H](C)[C@@H](O[C@H]2C[C@@](C)(OC)[C@@H](O)[C@H](C)O2)[C@H](C)[C@@H](O[C@@H]2O[C@H](C)C[C@@H]([C@H]2O)N(C)C)[C@](C)(O)C[C@](C)(F)C(=O)[C@H](C)[C@@H](O)[C@]1(C)O

> <INCHI_IDENTIFIER>
InChI=1S/C37H66FNO13/c1-14-24-37(10,46)29(42)21(5)28(41)34(7,38)17-35(8,45)31(52-33-26(40)23(39(11)12)15-18(2)48-33)19(3)27(20(4)32(44)50-24)51-25-16-36(9,47-13)30(43)22(6)49-25/h18-27,29-31,33,40,42-43,45-46H,14-17H2,1-13H3/t18-,19+,20-,21+,22+,23+,24-,25+,26-,27+,29-,30+,31-,33+,34+,35-,36-,37-/m1/s1

> <INCHI_KEY>
XOEUHCONYHZURQ-HNUBZJOYSA-N

> <FORMULA>
C37H66FNO13

> <MOLECULAR_WEIGHT>
751.927

> <EXACT_MASS>
751.451819352

> <JCHEM_ACCEPTOR_COUNT>
13

> <JCHEM_ATOM_COUNT>
118

> <JCHEM_AVERAGE_POLARIZABILITY>
79.53076636883978

> <JCHEM_BIOAVAILABILITY>
0

> <JCHEM_DONOR_COUNT>
5

> <JCHEM_FORMAL_CHARGE>
0

> <JCHEM_GHOSE_FILTER>
0

> <JCHEM_IUPAC>
(3R,4S,5S,6R,7R,9S,11R,12R,13S,14R)-6-{[(2S,3R,4S,6R)-4-(dimethylamino)-3-hydroxy-6-methyloxan-2-yl]oxy}-14-ethyl-9-fluoro-7,12,13-trihydroxy-4-{[(2R,4R,5S,6S)-5-hydroxy-4-methoxy-4,6-dimethyloxan-2-yl]oxy}-3,5,7,9,11,13-hexamethyl-1-oxacyclotetradecane-2,10-dione

> <ALOGPS_LOGP>
2.41

> <JCHEM_LOGP>
2.4334003023333306

> <ALOGPS_LOGS>
-3.33

> <JCHEM_MDDR_LIKE_RULE>
1

> <JCHEM_NUMBER_OF_RINGS>
3

> <JCHEM_PHYSIOLOGICAL_CHARGE>
1

> <JCHEM_PKA>
12.63499941722911

> <JCHEM_PKA_STRONGEST_ACIDIC>
11.819632066404134

> <JCHEM_PKA_STRONGEST_BASIC>
8.380854607561897

> <JCHEM_POLAR_SURFACE_AREA>
193.91

> <JCHEM_REFRACTIVITY>
185.93240000000003

> <JCHEM_ROTATABLE_BOND_COUNT>
7

> <JCHEM_RULE_OF_FIVE>
0

> <ALOGPS_SOLUBILITY>
3.55e-01 g/l

> <JCHEM_TRADITIONAL_IUPAC>
flurithromycin

> <JCHEM_VEBER_RULE>
0

> <DRUGBANK_ID>
DB13338

> <DRUG_GROUPS>
experimental

> <GENERIC_NAME>
Flurithromycin

> <SYNONYMS>
Flurithromycin; fluritromicina

$$$$
