
  Mrv1718004251816202D          

 17 17  0  0  0  0            999 V2000
   -0.7168    0.0000    0.0000 O   0  0  0  0  0  0  0  0  0  0  0  0
   -1.4263    1.2400    0.0000 O   0  0  0  0  0  0  0  0  0  0  0  0
   -2.1574    0.0000    0.0000 C   0  0  0  0  0  0  0  0  0  0  0  0
   -1.4263    0.4085    0.0000 C   0  0  0  0  0  0  0  0  0  0  0  0
   -2.8671    0.4085    0.0000 C   0  0  0  0  0  0  0  0  0  0  0  0
   -2.1574   -0.8314    0.0000 C   0  0  0  0  0  0  0  0  0  0  0  0
    0.7168    0.0000    0.0000 C   0  0  0  0  0  0  0  0  0  0  0  0
    0.0000    0.4085    0.0000 C   0  0  0  0  0  0  0  0  0  0  0  0
   -3.5838    0.0000    0.0000 C   0  0  0  0  0  0  0  0  0  0  0  0
   -2.8671   -1.2400    0.0000 C   0  0  0  0  0  0  0  0  0  0  0  0
   -3.5838   -0.8314    0.0000 C   0  0  0  0  0  0  0  0  0  0  0  0
    1.4263    0.4085    0.0000 C   0  0  0  0  0  0  0  0  0  0  0  0
    0.7168   -0.8314    0.0000 C   0  0  0  0  0  0  0  0  0  0  0  0
    2.1574    0.0000    0.0000 C   0  0  0  0  0  0  0  0  0  0  0  0
    1.4263   -1.2400    0.0000 C   0  0  0  0  0  0  0  0  0  0  0  0
    2.8671    0.4085    0.0000 C   0  0  0  0  0  0  0  0  0  0  0  0
    3.5838    0.0000    0.0000 C   0  0  0  0  0  0  0  0  0  0  0  0
  1  4  1  0  0  0  0
  1  8  1  0  0  0  0
  2  4  2  0  0  0  0
  3  4  1  0  0  0  0
  3  5  2  0  0  0  0
  3  6  1  0  0  0  0
  5  9  1  0  0  0  0
  6 10  2  0  0  0  0
  7  8  1  0  0  0  0
  7 12  1  0  0  0  0
  7 13  1  0  0  0  0
  9 11  2  0  0  0  0
 10 11  1  0  0  0  0
 12 14  1  0  0  0  0
 13 15  1  0  0  0  0
 14 16  1  0  0  0  0
 16 17  1  0  0  0  0
M  END
> <DATABASE_ID>
DB11291

> <DATABASE_NAME>
drugbank

> <SMILES>
CCCCC(CC)COC(=O)C1=CC=CC=C1

> <INCHI_IDENTIFIER>
InChI=1S/C15H22O2/c1-3-5-9-13(4-2)12-17-15(16)14-10-7-6-8-11-14/h6-8,10-11,13H,3-5,9,12H2,1-2H3

> <INCHI_KEY>
UADWUILHKRXHMM-UHFFFAOYSA-N

> <FORMULA>
C15H22O2

> <MOLECULAR_WEIGHT>
234.339

> <EXACT_MASS>
234.161979948

> <JCHEM_ACCEPTOR_COUNT>
1

> <JCHEM_ATOM_COUNT>
39

> <JCHEM_AVERAGE_POLARIZABILITY>
27.924256623669834

> <JCHEM_BIOAVAILABILITY>
1

> <JCHEM_DONOR_COUNT>
0

> <JCHEM_FORMAL_CHARGE>
0

> <JCHEM_GHOSE_FILTER>
1

> <JCHEM_IUPAC>
2-ethylhexyl benzoate

> <ALOGPS_LOGP>
5.03

> <JCHEM_LOGP>
4.999300616

> <ALOGPS_LOGS>
-5.06

> <JCHEM_MDDR_LIKE_RULE>
0

> <JCHEM_NUMBER_OF_RINGS>
1

> <JCHEM_PHYSIOLOGICAL_CHARGE>
0

> <JCHEM_PKA_STRONGEST_BASIC>
-6.891186882290056

> <JCHEM_POLAR_SURFACE_AREA>
26.3

> <JCHEM_REFRACTIVITY>
70.2315

> <JCHEM_ROTATABLE_BOND_COUNT>
8

> <JCHEM_RULE_OF_FIVE>
1

> <ALOGPS_SOLUBILITY>
2.06e-03 g/l

> <JCHEM_TRADITIONAL_IUPAC>
ethylhexyl benzoate

> <JCHEM_VEBER_RULE>
1

> <DRUGBANK_ID>
DB11291

> <DRUG_GROUPS>
experimental

> <GENERIC_NAME>
2-ethylhexyl benzoate

> <SYNONYMS>
2-Ethyl-1-hexanol benzoate; Ethylhexyl benzoate

> <PRODUCTS>
UV Capture Sebum Control Sun Cream; UV Capture Vita Sun Gel

$$$$
