
  Mrv1652310211601342D          

 31 35  0  0  1  0            999 V2000
    2.0701    1.1104    0.0000 C   0  0  0  0  0  0  0  0  0  0  0  0
    1.3556    0.6979    0.0000 C   0  0  0  0  0  0  0  0  0  0  0  0
    0.6411    1.1104    0.0000 C   0  0  0  0  0  0  0  0  0  0  0  0
    0.6411    1.9354    0.0000 C   0  0  0  0  0  0  0  0  0  0  0  0
    1.3556    2.3479    0.0000 C   0  0  0  0  0  0  0  0  0  0  0  0
    2.0701    1.9354    0.0000 C   0  0  0  0  0  0  0  0  0  0  0  0
    1.3556    3.1729    0.0000 O   0  0  0  0  0  0  0  0  0  0  0  0
    2.0701    3.5854    0.0000 C   0  0  2  0  0  0  0  0  0  0  0  0
    2.1563    4.4059    0.0000 C   0  0  0  0  0  0  0  0  0  0  0  0
    2.9633    4.5775    0.0000 C   0  0  0  0  0  0  0  0  0  0  0  0
    3.3758    3.8630    0.0000 O   0  0  0  0  0  0  0  0  0  0  0  0
    2.8237    3.2499    0.0000 C   0  0  0  0  0  0  0  0  0  0  0  0
   -0.1435    2.1904    0.0000 C   0  0  0  0  0  0  0  0  0  0  0  0
   -0.6284    1.5229    0.0000 N   0  0  0  0  0  0  0  0  0  0  0  0
   -0.1435    0.8555    0.0000 O   0  0  0  0  0  0  0  0  0  0  0  0
   -0.3984    2.9750    0.0000 O   0  0  0  0  0  0  0  0  0  0  0  0
   -1.2054    3.1465    0.0000 C   0  0  0  0  0  0  0  0  0  0  0  0
   -1.4604    3.9312    0.0000 C   0  0  0  0  0  0  0  0  0  0  0  0
   -2.2673    4.1027    0.0000 C   0  0  0  0  0  0  0  0  0  0  0  0
   -2.5223    4.8873    0.0000 C   0  0  0  0  0  0  0  0  0  0  0  0
   -1.9702    5.5004    0.0000 N   0  0  0  0  0  0  0  0  0  0  0  0
   -1.1633    5.3289    0.0000 C   0  0  0  0  0  0  0  0  0  0  0  0
   -0.9083    4.5442    0.0000 C   0  0  0  0  0  0  0  0  0  0  0  0
   -2.2252    6.2850    0.0000 C   0  0  0  0  0  0  0  0  0  0  0  0
   -3.0321    6.4565    0.0000 C   0  0  0  0  0  0  0  0  0  0  0  0
   -3.8491    6.3417    0.0000 C   0  0  0  0  0  0  0  0  0  0  0  0
   -4.3570    6.9918    0.0000 C   0  0  0  0  0  0  0  0  0  0  0  0
   -4.0480    7.7568    0.0000 O   0  0  0  0  0  0  0  0  0  0  0  0
   -3.2310    7.8716    0.0000 C   0  0  0  0  0  0  0  0  0  0  0  0
   -2.7231    7.2215    0.0000 C   0  0  0  0  0  0  0  0  0  0  0  0
   -3.0609    5.6320    0.0000 O   0  0  0  0  0  0  0  0  0  0  0  0
  1  2  1  0  0  0  0
  2  3  2  0  0  0  0
  3  4  1  0  0  0  0
  4  5  2  0  0  0  0
  5  6  1  0  0  0  0
  1  6  2  0  0  0  0
  5  7  1  0  0  0  0
  8  7  1  6  0  0  0
  8  9  1  0  0  0  0
  9 10  1  0  0  0  0
 10 11  1  0  0  0  0
 11 12  1  0  0  0  0
  8 12  1  0  0  0  0
  4 13  1  0  0  0  0
 13 14  2  0  0  0  0
 14 15  1  0  0  0  0
  3 15  1  0  0  0  0
 13 16  1  0  0  0  0
 16 17  1  0  0  0  0
 17 18  1  0  0  0  0
 18 19  1  0  0  0  0
 19 20  1  0  0  0  0
 20 21  1  0  0  0  0
 21 22  1  0  0  0  0
 22 23  1  0  0  0  0
 18 23  1  0  0  0  0
 21 24  1  0  0  0  0
 24 25  1  0  0  0  0
 25 26  1  0  0  0  0
 26 27  1  0  0  0  0
 27 28  1  0  0  0  0
 28 29  1  0  0  0  0
 29 30  1  0  0  0  0
 25 30  1  0  0  0  0
 25 31  1  0  0  0  0
M  END
> <DATABASE_ID>
DB12675

> <DATABASE_NAME>
drugbank

> <SMILES>
OC1(CN2CCC(COC3=NOC4=CC=CC(O[C@@H]5CCOC5)=C34)CC2)CCOCC1

> <INCHI_IDENTIFIER>
InChI=1S/C23H32N2O6/c26-23(7-12-27-13-8-23)16-25-9-4-17(5-10-25)14-29-22-21-19(30-18-6-11-28-15-18)2-1-3-20(21)31-24-22/h1-3,17-18,26H,4-16H2/t18-/m1/s1

> <INCHI_KEY>
WLLOFQROROXOMO-GOSISDBHSA-N

> <FORMULA>
C23H32N2O6

> <MOLECULAR_WEIGHT>
432.517

> <EXACT_MASS>
432.226036758

> <JCHEM_ACCEPTOR_COUNT>
7

> <JCHEM_ATOM_COUNT>
63

> <JCHEM_AVERAGE_POLARIZABILITY>
46.20415336367222

> <JCHEM_BIOAVAILABILITY>
1

> <JCHEM_DONOR_COUNT>
1

> <JCHEM_FORMAL_CHARGE>
0

> <JCHEM_GHOSE_FILTER>
1

> <JCHEM_IUPAC>
4-({4-[({4-[(3R)-oxolan-3-yloxy]-1,2-benzoxazol-3-yl}oxy)methyl]piperidin-1-yl}methyl)oxan-4-ol

> <ALOGPS_LOGP>
2.04

> <JCHEM_LOGP>
1.2192701256666671

> <ALOGPS_LOGS>
-3.32

> <JCHEM_MDDR_LIKE_RULE>
1

> <JCHEM_NUMBER_OF_RINGS>
5

> <JCHEM_PHYSIOLOGICAL_CHARGE>
1

> <JCHEM_PKA_STRONGEST_ACIDIC>
14.263027331578641

> <JCHEM_PKA_STRONGEST_BASIC>
9.58840476684052

> <JCHEM_POLAR_SURFACE_AREA>
86.42

> <JCHEM_REFRACTIVITY>
115.60419999999996

> <JCHEM_ROTATABLE_BOND_COUNT>
7

> <JCHEM_RULE_OF_FIVE>
1

> <ALOGPS_SOLUBILITY>
2.05e-01 g/l

> <JCHEM_TRADITIONAL_IUPAC>
4-({4-[({4-[(3R)-oxolan-3-yloxy]-1,2-benzoxazol-3-yl}oxy)methyl]piperidin-1-yl}methyl)oxan-4-ol

> <JCHEM_VEBER_RULE>
0

> <DRUGBANK_ID>
DB12675

> <DRUG_GROUPS>
investigational

> <GENERIC_NAME>
PF-04995274

$$$$
