
  Mrv1652310211603472D          

 26 29  0  0  0  0            999 V2000
   -0.1712   -0.6979    0.0000 C   0  0  0  0  0  0  0  0  0  0  0  0
    0.6538   -0.6979    0.0000 C   0  0  0  0  0  0  0  0  0  0  0  0
    1.1387   -0.0305    0.0000 N   0  0  0  0  0  0  0  0  0  0  0  0
    1.9233   -0.2854    0.0000 C   0  0  0  0  0  0  0  0  0  0  0  0
    2.6378    0.1271    0.0000 C   0  0  0  0  0  0  0  0  0  0  0  0
    3.3523   -0.2854    0.0000 N   0  0  0  0  0  0  0  0  0  0  0  0
    3.3523   -1.1104    0.0000 C   0  0  0  0  0  0  0  0  0  0  0  0
    2.6378   -1.5229    0.0000 N   0  0  0  0  0  0  0  0  0  0  0  0
    1.9233   -1.1104    0.0000 C   0  0  0  0  0  0  0  0  0  0  0  0
    1.1387   -1.3654    0.0000 N   0  0  0  0  0  0  0  0  0  0  0  0
    0.8838   -2.1500    0.0000 C   0  0  0  0  0  0  0  0  0  0  0  0
    0.0768   -2.3215    0.0000 C   0  0  0  0  0  0  0  0  0  0  0  0
    1.4358   -2.7631    0.0000 C   0  0  0  0  0  0  0  0  0  0  0  0
    4.0668   -1.5229    0.0000 N   0  0  0  0  0  0  0  0  0  0  0  0
    4.7812   -1.1104    0.0000 C   0  0  0  0  0  0  0  0  0  0  0  0
    5.4957   -1.5229    0.0000 C   0  0  0  0  0  0  0  0  0  0  0  0
    5.4957   -2.3479    0.0000 O   0  0  0  0  0  0  0  0  0  0  0  0
    4.7812   -2.7604    0.0000 C   0  0  0  0  0  0  0  0  0  0  0  0
    4.0668   -2.3479    0.0000 C   0  0  0  0  0  0  0  0  0  0  0  0
    2.6378    0.9521    0.0000 C   0  0  0  0  0  0  0  0  0  0  0  0
    1.9233    1.3646    0.0000 C   0  0  0  0  0  0  0  0  0  0  0  0
    1.9233    2.1896    0.0000 N   0  0  0  0  0  0  0  0  0  0  0  0
    2.6378    2.6021    0.0000 C   0  0  0  0  0  0  0  0  0  0  0  0
    3.3523    2.1896    0.0000 N   0  0  0  0  0  0  0  0  0  0  0  0
    3.3523    1.3646    0.0000 C   0  0  0  0  0  0  0  0  0  0  0  0
    2.6378    3.4271    0.0000 N   0  0  0  0  0  0  0  0  0  0  0  0
  1  2  1  0  0  0  0
  2  3  2  0  0  0  0
  3  4  1  0  0  0  0
  4  5  2  0  0  0  0
  5  6  1  0  0  0  0
  6  7  2  0  0  0  0
  7  8  1  0  0  0  0
  8  9  2  0  0  0  0
  4  9  1  0  0  0  0
  9 10  1  0  0  0  0
  2 10  1  0  0  0  0
 10 11  1  0  0  0  0
 11 12  1  0  0  0  0
 11 13  1  0  0  0  0
  7 14  1  0  0  0  0
 14 15  1  0  0  0  0
 15 16  1  0  0  0  0
 16 17  1  0  0  0  0
 17 18  1  0  0  0  0
 18 19  1  0  0  0  0
 14 19  1  0  0  0  0
  5 20  1  0  0  0  0
 20 21  2  0  0  0  0
 21 22  1  0  0  0  0
 22 23  2  0  0  0  0
 23 24  1  0  0  0  0
 24 25  2  0  0  0  0
 20 25  1  0  0  0  0
 23 26  1  0  0  0  0
M  END
> <DATABASE_ID>
DB12986

> <DATABASE_NAME>
drugbank

> <SMILES>
CC(C)N1C(C)=NC2=C(N=C(N=C12)N1CCOCC1)C1=CN=C(N)N=C1

> <INCHI_IDENTIFIER>
InChI=1S/C17H22N8O/c1-10(2)25-11(3)21-14-13(12-8-19-16(18)20-9-12)22-17(23-15(14)25)24-4-6-26-7-5-24/h8-10H,4-7H2,1-3H3,(H2,18,19,20)

> <INCHI_KEY>
QYBGBLQCOOISAR-UHFFFAOYSA-N

> <FORMULA>
C17H22N8O

> <MOLECULAR_WEIGHT>
354.418

> <EXACT_MASS>
354.19165736

> <JCHEM_ACCEPTOR_COUNT>
8

> <JCHEM_ATOM_COUNT>
48

> <JCHEM_AVERAGE_POLARIZABILITY>
38.531373137559974

> <JCHEM_BIOAVAILABILITY>
1

> <JCHEM_DONOR_COUNT>
1

> <JCHEM_FORMAL_CHARGE>
0

> <JCHEM_GHOSE_FILTER>
1

> <JCHEM_IUPAC>
5-[8-methyl-2-(morpholin-4-yl)-9-(propan-2-yl)-9H-purin-6-yl]pyrimidin-2-amine

> <ALOGPS_LOGP>
1.96

> <JCHEM_LOGP>
1.3513342943333333

> <ALOGPS_LOGS>
-2.80

> <JCHEM_MDDR_LIKE_RULE>
0

> <JCHEM_NUMBER_OF_RINGS>
4

> <JCHEM_PHYSIOLOGICAL_CHARGE>
0

> <JCHEM_PKA_STRONGEST_ACIDIC>
15.998033341068922

> <JCHEM_PKA_STRONGEST_BASIC>
3.1449058976014643

> <JCHEM_POLAR_SURFACE_AREA>
107.87

> <JCHEM_REFRACTIVITY>
99.61419999999998

> <JCHEM_ROTATABLE_BOND_COUNT>
3

> <JCHEM_RULE_OF_FIVE>
1

> <ALOGPS_SOLUBILITY>
5.57e-01 g/l

> <JCHEM_TRADITIONAL_IUPAC>
5-[9-isopropyl-8-methyl-2-(morpholin-4-yl)purin-6-yl]pyrimidin-2-amine

> <JCHEM_VEBER_RULE>
0

> <DRUGBANK_ID>
DB12986

> <DRUG_GROUPS>
investigational

> <GENERIC_NAME>
VS-5584

> <SYNONYMS>
2-pyrimidinamine, 5-(8-methyl-9-(1-methylethyl)-2-(4-morpholinyl)-9H-purin-6-yl)-; 5-[8-methyl-9-(1-methylethyl)-2-(4-morpholinyl)-9H-purin-6yl]-2-pyrimidinamine

$$$$
