
  Mrv1909 11061921512D          

 40 42  0  0  1  0            999 V2000
   -3.1109    2.0943    0.0000 C   0  0  1  0  0  0  0  0  0  0  0  0
   -3.9359    2.0943    0.0000 C   0  0  1  0  0  0  0  0  0  0  0  0
   -3.1109    3.5234    0.0000 O   0  0  0  0  0  0  0  0  0  0  0  0
   -2.6984    2.8089    0.0000 C   0  0  1  0  0  0  0  0  0  0  0  0
   -4.3484    2.8089    0.0000 C   0  0  2  0  0  0  0  0  0  0  0  0
   -3.9359    3.5234    0.0000 C   0  0  2  0  0  0  0  0  0  0  0  0
   -0.9759    4.7459    0.0000 C   0  0  2  0  0  0  0  0  0  0  0  0
   -0.9759    5.5709    0.0000 C   0  0  0  0  0  0  0  0  0  0  0  0
   -0.3084    4.2610    0.0000 O   0  0  0  0  0  0  0  0  0  0  0  0
   -0.5634    3.4763    0.0000 C   0  0  2  0  0  0  0  0  0  0  0  0
   -1.3884    3.4763    0.0000 C   0  0  2  0  0  0  0  0  0  0  0  0
   -0.0785    2.8089    0.0000 O   0  0  0  0  0  0  0  0  0  0  0  0
    1.9839    2.0944    0.0000 C   0  0  1  0  0  0  0  0  0  0  0  0
    2.3964    1.3800    0.0000 O   0  0  0  0  0  0  0  0  0  0  0  0
    0.7464    2.8089    0.0000 C   0  0  2  0  0  0  0  0  0  0  0  0
    1.9839    3.5234    0.0000 C   0  0  1  0  0  0  0  0  0  0  0  0
    2.3964    4.2378    0.0000 O   0  0  0  0  0  0  0  0  0  0  0  0
    1.1589    3.5234    0.0000 C   0  0  2  0  0  0  0  0  0  0  0  0
    2.3964    2.8089    0.0000 C   0  0  1  0  0  0  0  0  0  0  0  0
    1.1589    2.0944    0.0000 C   0  0  2  0  0  0  0  0  0  0  0  0
    0.7464    1.3799    0.0000 O   0  0  0  0  0  0  0  0  0  0  0  0
    0.7464    4.2378    0.0000 N   0  0  0  0  0  0  0  0  0  0  0  0
    0.7463    5.6667    0.0000 N   0  0  0  0  0  0  0  0  0  0  0  0
    1.1589    4.9523    0.0000 C   0  0  0  0  0  0  0  0  0  0  0  0
    1.9839    4.9523    0.0000 N   0  0  0  0  0  0  0  0  0  0  0  0
   -1.8734    2.8089    0.0000 O   0  0  0  0  0  0  0  0  0  0  0  0
   -5.1734    2.8088    0.0000 O   0  0  0  0  0  0  0  0  0  0  0  0
   -4.3484    1.3799    0.0000 O   0  0  0  0  0  0  0  0  0  0  0  0
   -4.3484    4.2378    0.0000 C   0  0  0  0  0  0  0  0  0  0  0  0
   -3.9359    4.9523    0.0000 O   0  0  0  0  0  0  0  0  0  0  0  0
   -3.1109    0.6654    0.0000 C   0  0  0  0  0  0  0  0  0  0  0  0
   -2.6984    1.3799    0.0000 N   0  0  0  0  0  0  0  0  0  0  0  0
    3.2213    2.8089    0.0000 N   0  0  0  0  0  0  0  0  0  0  0  0
    3.2213    1.3800    0.0000 N   0  0  0  0  0  0  0  0  0  0  0  0
    3.6339    2.0944    0.0000 C   0  0  0  0  0  0  0  0  0  0  0  0
    4.4589    2.0944    0.0000 N   0  0  0  0  0  0  0  0  0  0  0  0
   -2.3579    4.6735    0.0000 C   0  0  0  0  0  0  0  0  0  0  0  0
   -2.3579    5.4985    0.0000 O   0  0  0  0  0  0  0  0  0  0  0  0
   -1.6434    4.2610    0.0000 C   0  0  1  0  0  0  0  0  0  0  0  0
   -2.4402    4.0474    0.0000 O   0  0  0  0  0  0  0  0  0  0  0  0
  1 32  1  1  0  0  0
  2  1  1  0  0  0  0
  2 28  1  6  0  0  0
  3  4  1  0  0  0  0
  1  4  1  0  0  0  0
  4 26  1  1  0  0  0
  5  2  1  0  0  0  0
  5 27  1  1  0  0  0
  6  5  1  0  0  0  0
  3  6  1  0  0  0  0
  6 29  1  6  0  0  0
  9  7  1  0  0  0  0
  7 39  1  0  0  0  0
  7  8  1  6  0  0  0
  9 10  1  0  0  0  0
 11 10  1  0  0  0  0
 10 12  1  1  0  0  0
 39 11  1  0  0  0  0
 11 26  1  6  0  0  0
 15 12  1  6  0  0  0
 19 13  1  0  0  0  0
 20 13  1  0  0  0  0
 13 14  1  6  0  0  0
 18 15  1  0  0  0  0
 15 20  1  0  0  0  0
 19 16  1  0  0  0  0
 16 18  1  0  0  0  0
 16 17  1  6  0  0  0
 18 22  1  1  0  0  0
 19 33  1  1  0  0  0
 20 21  1  1  0  0  0
 22 24  1  0  0  0  0
 24 23  1  0  0  0  0
 24 25  2  0  0  0  0
 29 30  1  0  0  0  0
 32 31  1  0  0  0  0
 35 33  1  0  0  0  0
 34 35  1  0  0  0  0
 35 36  2  0  0  0  0
 39 37  1  1  0  0  0
 37 38  2  0  0  0  0
 39 40  1  0  0  0  0
M  END
> <DATABASE_ID>
DB01082

> <DATABASE_NAME>
drugbank

> <SMILES>
CN[C@H]1[C@H](O)[C@@H](O)[C@H](CO)O[C@H]1O[C@H]1[C@H](O[C@H]2[C@H](O)[C@@H](O)[C@H](NC(N)=N)[C@@H](O)[C@@H]2NC(N)=N)O[C@@H](C)[C@]1(O)C=O

> <INCHI_IDENTIFIER>
InChI=1S/C21H39N7O12/c1-5-21(36,4-30)16(40-17-9(26-2)13(34)10(31)6(3-29)38-17)18(37-5)39-15-8(28-20(24)25)11(32)7(27-19(22)23)12(33)14(15)35/h4-18,26,29,31-36H,3H2,1-2H3,(H4,22,23,27)(H4,24,25,28)/t5-,6-,7+,8-,9-,10-,11+,12-,13-,14+,15+,16-,17-,18-,21+/m0/s1

> <INCHI_KEY>
UCSJYZPVAKXKNQ-HZYVHMACSA-N

> <FORMULA>
C21H39N7O12

> <MOLECULAR_WEIGHT>
581.5741

> <EXACT_MASS>
581.265669747

> <JCHEM_ACCEPTOR_COUNT>
19

> <JCHEM_ATOM_COUNT>
79

> <JCHEM_AVERAGE_POLARIZABILITY>
55.86704117215727

> <JCHEM_BIOAVAILABILITY>
0

> <JCHEM_DONOR_COUNT>
14

> <JCHEM_FORMAL_CHARGE>
0

> <JCHEM_GHOSE_FILTER>
0

> <JCHEM_IUPAC>
N-[(1S,2R,3R,4S,5R,6R)-3-carbamimidamido-6-{[(2R,3R,4R,5S)-3-{[(2S,3S,4S,5R,6S)-4,5-dihydroxy-6-(hydroxymethyl)-3-(methylamino)oxan-2-yl]oxy}-4-formyl-4-hydroxy-5-methyloxolan-2-yl]oxy}-2,4,5-trihydroxycyclohexyl]guanidine

> <ALOGPS_LOGP>
-2.61

> <JCHEM_LOGP>
-7.581639358875209

> <ALOGPS_LOGS>
-1.66

> <JCHEM_MDDR_LIKE_RULE>
1

> <JCHEM_NUMBER_OF_RINGS>
3

> <JCHEM_PHYSIOLOGICAL_CHARGE>
3

> <JCHEM_PKA_STRONGEST_ACIDIC>
11.093732367605398

> <JCHEM_PKA_STRONGEST_BASIC>
11.600307091131262

> <JCHEM_POLAR_SURFACE_AREA>
331.43

> <JCHEM_REFRACTIVITY>
149.4707

> <JCHEM_ROTATABLE_BOND_COUNT>
9

> <JCHEM_RULE_OF_FIVE>
0

> <ALOGPS_SOLUBILITY>
1.28e+01 g/l

> <JCHEM_TRADITIONAL_IUPAC>
3-carbamoyl-1-[(2R,3R,4S,5R)-5-[({[(2R,3S,4R,5R)-3,4-dihydroxy-5-{imidazo[2,1-f]purin-3-yl}oxolan-2-yl]methoxy(hydroxy)phosphoryl phosphonato}oxy)methyl]-3,4-dihydroxyoxolan-2-yl]-1lambda5-pyridin-1-ylium

> <JCHEM_VEBER_RULE>
0

> <DRUGBANK_ID>
DB01082

> <SECONDARY_ACCESSION_NUMBERS>
APRD00412

> <DRUG_GROUPS>
approved; vet_approved

> <GENERIC_NAME>
Streptomycin

> <SYNONYMS>
2,4-diguanidino-3,5,6-trihydroxycyclohexyl 5-deoxy-2-O-(2-deoxy-2-methylamino-alpha-L-glucopyranosyl)-3-C-formyl-beta-L-lyxopentanofuranoside; Estreptomicina; Streptomicina; Streptomycin; Streptomyzin

> <PRODUCTS>
Streptomycin; Streptomycin Sulfate; Streptomycin Sulfate Injection USP 1g/2.5ml; Streptomycin for Injection USP

> <SALTS>
Streptomycin Sulfate

$$$$
