
  Mrv1909 05201914512D          

 25 26  0  0  1  0            999 V2000
   -1.0164   -2.5855    0.0000 H   0  0  0  0  0  0  0  0  0  0  0  0
   -1.4289   -3.3000    0.0000 C   0  0  0  0  0  0  0  0  0  0  0  0
   -2.1434   -2.8875    0.0000 H   0  0  0  0  0  0  0  0  0  0  0  0
   -1.8414   -4.0145    0.0000 H   0  0  0  0  0  0  0  0  0  0  0  0
   -0.7145   -3.7125    0.0000 C   0  0  2  0  0  0  0  0  0  0  0  0
   -0.7145   -4.5375    0.0000 O   0  0  0  0  0  0  0  0  0  0  0  0
    0.0000   -3.3000    0.0000 C   0  0  0  0  0  0  0  0  0  0  0  0
    0.3703   -2.5628    0.0000 H   0  0  0  0  0  0  0  0  0  0  0  0
   -0.3703   -2.5628    0.0000 H   0  0  0  0  0  0  0  0  0  0  0  0
    0.7145   -3.7125    0.0000 C   0  0  0  0  0  0  0  0  0  0  0  0
    1.4289   -3.3000    0.0000 C   0  0  0  0  0  0  0  0  0  0  0  0
    2.1434   -3.7125    0.0000 C   0  0  0  0  0  0  0  0  0  0  0  0
    2.8579   -3.3000    0.0000 N   0  0  0  0  0  0  0  0  0  0  0  0
    2.8579   -2.4750    0.0000 C   0  0  0  0  0  0  0  0  0  0  0  0
    2.1434   -2.0625    0.0000 O   0  0  0  0  0  0  0  0  0  0  0  0
    3.5724   -2.0625    0.0000 N   0  0  0  0  0  0  0  0  0  0  0  0
    3.5724   -1.2375    0.0000 C   0  0  0  0  0  0  0  0  0  0  0  0
    4.2868   -2.4750    0.0000 C   0  0  0  0  0  0  0  0  0  0  0  0
    4.2868   -3.3000    0.0000 C   0  0  0  0  0  0  0  0  0  0  0  0
    5.0714   -3.5549    0.0000 N   0  0  0  0  0  0  0  0  0  0  0  0
    5.3264   -4.3396    0.0000 C   0  0  0  0  0  0  0  0  0  0  0  0
    5.5564   -2.8875    0.0000 C   0  0  0  0  0  0  0  0  0  0  0  0
    5.0714   -2.2201    0.0000 N   0  0  0  0  0  0  0  0  0  0  0  0
    3.5724   -3.7125    0.0000 C   0  0  0  0  0  0  0  0  0  0  0  0
    3.5724   -4.5375    0.0000 O   0  0  0  0  0  0  0  0  0  0  0  0
  1  2  1  0  0  0  0
  2  3  1  0  0  0  0
  2  4  1  0  0  0  0
  5  2  1  0  0  0  0
  5  6  1  1  0  0  0
  5  7  1  0  0  0  0
  7  8  1  0  0  0  0
  7  9  1  0  0  0  0
  7 10  1  0  0  0  0
 10 11  1  0  0  0  0
 11 12  1  0  0  0  0
 12 13  1  0  0  0  0
 13 14  1  0  0  0  0
 14 15  2  0  0  0  0
 14 16  1  0  0  0  0
 16 17  1  0  0  0  0
 16 18  1  0  0  0  0
 18 19  2  0  0  0  0
 19 20  1  0  0  0  0
 20 21  1  0  0  0  0
 20 22  1  0  0  0  0
 22 23  2  0  0  0  0
 18 23  1  0  0  0  0
 19 24  1  0  0  0  0
 13 24  1  0  0  0  0
 24 25  2  0  0  0  0
M  ISO  5   1   2   3   2   4   2   8   2   9   2
M  END
> <DATABASE_ID>
DB15122

> <DATABASE_NAME>
drugbank

> <SMILES>
[2H]C([2H])([2H])[C@H](O)C([2H])([2H])CCCN1C(=O)N(C)C2=C(N(C)C=N2)C1=O

> <INCHI_IDENTIFIER>
InChI=1S/C13H20N4O3/c1-9(18)6-4-5-7-17-12(19)10-11(14-8-15(10)2)16(3)13(17)20/h8-9,18H,4-7H2,1-3H3/t9-/m0/s1/i1D3,6D2

> <INCHI_KEY>
NSMXQKNUPPXBRG-WHPHVCHMSA-N

> <FORMULA>
C13H20N4O3

> <MOLECULAR_WEIGHT>
285.359

> <EXACT_MASS>
285.18492425

> <JCHEM_ACCEPTOR_COUNT>
4

> <JCHEM_ATOM_COUNT>
40

> <JCHEM_AVERAGE_POLARIZABILITY>
30.028100188450384

> <JCHEM_BIOAVAILABILITY>
1

> <JCHEM_DONOR_COUNT>
1

> <JCHEM_FORMAL_CHARGE>
0

> <JCHEM_GHOSE_FILTER>
1

> <JCHEM_IUPAC>
1-[(5S)-5-hydroxy(4,4,6,6,6-2H5)hexyl]-3,7-dimethyl-2,3,6,7-tetrahydro-1H-purine-2,6-dione

> <ALOGPS_LOGP>
0.78

> <JCHEM_LOGP>
0.2027184959999991

> <ALOGPS_LOGS>
-1.56

> <JCHEM_MDDR_LIKE_RULE>
0

> <JCHEM_NUMBER_OF_RINGS>
2

> <JCHEM_PHYSIOLOGICAL_CHARGE>
0

> <JCHEM_PKA_STRONGEST_ACIDIC>
17.68303306498672

> <JCHEM_PKA_STRONGEST_BASIC>
-1.0333431381470095

> <JCHEM_POLAR_SURFACE_AREA>
78.67

> <JCHEM_REFRACTIVITY>
74.65329999999999

> <JCHEM_ROTATABLE_BOND_COUNT>
5

> <JCHEM_RULE_OF_FIVE>
1

> <ALOGPS_SOLUBILITY>
7.76e+00 g/l

> <JCHEM_TRADITIONAL_IUPAC>
(2R)-14-fluoro-2-methyl-6,9,10,19-tetraazapentacyclo[14.2.1.0^{2,6}.0^{8,18}.0^{12,17}]nonadeca-1(18),8,12(17),13,15-pentaen-11-one

> <JCHEM_VEBER_RULE>
0

> <DRUGBANK_ID>
DB15122

> <DRUG_GROUPS>
investigational

> <GENERIC_NAME>
PCS-499

$$$$
