
  Mrv1652306031606202D          

 24 25  0  0  0  0            999 V2000
   -3.5724   -3.7125    0.0000 C   0  0  0  0  0  0  0  0  0  0  0  0
    4.2868   -0.8250    0.0000 C   0  0  0  0  0  0  0  0  0  0  0  0
   -1.4289   -3.3000    0.0000 C   0  0  0  0  0  0  0  0  0  0  0  0
    2.1434   -1.2375    0.0000 C   0  0  0  0  0  0  0  0  0  0  0  0
   -2.1434   -1.2375    0.0000 C   0  0  0  0  0  0  0  0  0  0  0  0
    2.8579   -3.3000    0.0000 C   0  0  0  0  0  0  0  0  0  0  0  0
   -0.7145   -2.0625    0.0000 C   0  0  0  0  0  0  0  0  0  0  0  0
    1.4289   -2.4750    0.0000 C   0  0  0  0  0  0  0  0  0  0  0  0
   -2.8579   -3.3000    0.0000 C   0  0  0  0  0  0  0  0  0  0  0  0
    3.5724   -1.2375    0.0000 C   0  0  0  0  0  0  0  0  0  0  0  0
   -1.4289   -2.4750    0.0000 C   0  0  0  0  0  0  0  0  0  0  0  0
    2.1434   -2.0625    0.0000 C   0  0  0  0  0  0  0  0  0  0  0  0
   -2.1434   -2.0625    0.0000 C   0  0  0  0  0  0  0  0  0  0  0  0
    2.8579   -2.4750    0.0000 C   0  0  0  0  0  0  0  0  0  0  0  0
   -2.8579   -2.4750    0.0000 C   0  0  0  0  0  0  0  0  0  0  0  0
    3.5724   -2.0625    0.0000 C   0  0  0  0  0  0  0  0  0  0  0  0
   -2.1434   -3.7125    0.0000 N   0  0  0  0  0  0  0  0  0  0  0  0
    2.8579   -0.8250    0.0000 N   0  0  0  0  0  0  0  0  0  0  0  0
   -2.8579   -0.8250    0.0000 O   0  0  0  0  0  0  0  0  0  0  0  0
    3.5724   -3.7125    0.0000 O   0  0  0  0  0  0  0  0  0  0  0  0
   -3.5724   -2.0625    0.0000 O   0  0  0  0  0  0  0  0  0  0  0  0
    4.2868   -2.4750    0.0000 O   0  0  0  0  0  0  0  0  0  0  0  0
    0.0000   -2.4750    0.0000 S   0  0  0  0  0  0  0  0  0  0  0  0
    0.7145   -2.0625    0.0000 S   0  0  0  0  0  0  0  0  0  0  0  0
  9  1  1  0  0  0  0
 10  2  1  0  0  0  0
 11  3  1  0  0  0  0
 11  7  1  0  0  0  0
 12  4  1  0  0  0  0
 12  8  1  0  0  0  0
 13  5  1  0  0  0  0
 13 11  2  0  0  0  0
 14  6  1  0  0  0  0
 14 12  2  0  0  0  0
 15  9  2  0  0  0  0
 15 13  1  0  0  0  0
 16 10  2  0  0  0  0
 16 14  1  0  0  0  0
 17  3  2  0  0  0  0
 17  9  1  0  0  0  0
 18  4  2  0  0  0  0
 18 10  1  0  0  0  0
 19  5  1  0  0  0  0
 20  6  1  0  0  0  0
 21 15  1  0  0  0  0
 22 16  1  0  0  0  0
 23  7  1  0  0  0  0
 24  8  1  0  0  0  0
 24 23  1  0  0  0  0
M  END
> <DATABASE_ID>
DB13084

> <DATABASE_NAME>
drugbank

> <SMILES>
CC1=C(O)C(CO)=C(CSSCC2=C(CO)C(O)=C(C)N=C2)C=N1

> <INCHI_IDENTIFIER>
InChI=1S/C16H20N2O4S2/c1-9-15(21)13(5-19)11(3-17-9)7-23-24-8-12-4-18-10(2)16(22)14(12)6-20/h3-4,19-22H,5-8H2,1-2H3

> <INCHI_KEY>
SIXLXDIJGIWWFU-UHFFFAOYSA-N

> <FORMULA>
C16H20N2O4S2

> <MOLECULAR_WEIGHT>
368.47

> <EXACT_MASS>
368.08644948

> <JCHEM_ACCEPTOR_COUNT>
6

> <JCHEM_ATOM_COUNT>
44

> <JCHEM_AVERAGE_POLARIZABILITY>
38.59570435299464

> <JCHEM_BIOAVAILABILITY>
1

> <JCHEM_DONOR_COUNT>
4

> <JCHEM_FORMAL_CHARGE>
0

> <JCHEM_GHOSE_FILTER>
1

> <JCHEM_IUPAC>
5-[({[5-hydroxy-4-(hydroxymethyl)-6-methylpyridin-3-yl]methyl}disulfanyl)methyl]-4-(hydroxymethyl)-2-methylpyridin-3-ol

> <ALOGPS_LOGP>
1.57

> <JCHEM_LOGP>
0.4331187373333336

> <ALOGPS_LOGS>
-3.20

> <JCHEM_MDDR_LIKE_RULE>
0

> <JCHEM_NUMBER_OF_RINGS>
2

> <JCHEM_PHYSIOLOGICAL_CHARGE>
0

> <JCHEM_PKA>
9.773360567399932

> <JCHEM_PKA_STRONGEST_ACIDIC>
9.136698670508537

> <JCHEM_PKA_STRONGEST_BASIC>
6.0197069773136045

> <JCHEM_POLAR_SURFACE_AREA>
106.70000000000002

> <JCHEM_REFRACTIVITY>
98.77959999999999

> <JCHEM_ROTATABLE_BOND_COUNT>
7

> <JCHEM_RULE_OF_FIVE>
1

> <ALOGPS_SOLUBILITY>
2.32e-01 g/l

> <JCHEM_TRADITIONAL_IUPAC>
pyritinol

> <JCHEM_VEBER_RULE>
0

> <DRUGBANK_ID>
DB13084

> <DRUG_GROUPS>
investigational

> <GENERIC_NAME>
Pyritinol

> <SYNONYMS>
Pyritinol

> <SALTS>
Pyritinol hydrochloride

$$$$
