
  Mrv1902 01281903322D          

191192  0  0  0  0            999 V2000
   -9.0836    7.4656    0.0000 C   0  0  0  0  0  0  0  0  0  0  0  0
    0.9189   -4.9093    0.0000 C   0  0  0  0  0  0  0  0  0  0  0  0
    0.2044   -3.6718    0.0000 C   0  0  0  0  0  0  0  0  0  0  0  0
   -1.2244    6.2281    0.0000 C   0  0  0  0  0  0  0  0  0  0  0  0
    0.2044    6.2281    0.0000 C   0  0  0  0  0  0  0  0  0  0  0  0
   -8.5985    0.9603    0.0000 C   0  0  0  0  0  0  0  0  0  0  0  0
   -7.6424    2.0222    0.0000 C   0  0  0  0  0  0  0  0  0  0  0  0
   -2.6534    4.5781    0.0000 C   0  0  0  0  0  0  0  0  0  0  0  0
   -4.0823    4.5781    0.0000 C   0  0  0  0  0  0  0  0  0  0  0  0
   -4.2084   -5.8768    0.0000 C   0  0  0  0  0  0  0  0  0  0  0  0
   -4.6499   -4.5178    0.0000 C   0  0  0  0  0  0  0  0  0  0  0  0
   -0.5100    0.0406    0.0000 C   0  0  0  0  0  0  0  0  0  0  0  0
    0.9189    0.0406    0.0000 C   0  0  0  0  0  0  0  0  0  0  0  0
    3.0623    4.5781    0.0000 C   0  0  0  0  0  0  0  0  0  0  0  0
    3.7768    3.3406    0.0000 C   0  0  0  0  0  0  0  0  0  0  0  0
   -6.2257    9.9406    0.0000 C   0  0  0  0  0  0  0  0  0  0  0  0
   -4.7968    9.9406    0.0000 C   0  0  0  0  0  0  0  0  0  0  0  0
   -7.6547    8.2906    0.0000 C   0  0  0  0  0  0  0  0  0  0  0  0
   -5.9016    3.3390    0.0000 C   0  0  0  0  0  0  0  0  0  0  0  0
    2.5566   -5.7635    0.0000 C   0  0  0  0  0  0  0  0  0  0  0  0
    0.2044    4.5781    0.0000 C   0  0  0  0  0  0  0  0  0  0  0  0
   -1.3399   -2.6911    0.0000 C   0  0  0  0  0  0  0  0  0  0  0  0
   -8.3691    7.0531    0.0000 C   0  0  0  0  0  0  0  0  0  0  0  0
   -1.9389    8.2906    0.0000 C   0  0  0  0  0  0  0  0  0  0  0  0
   -8.9604    5.5381    0.0000 C   0  0  0  0  0  0  0  0  0  0  0  0
   -1.1242   -6.5651    0.0000 C   0  0  0  0  0  0  0  0  0  0  0  0
   -2.6534    8.7031    0.0000 C   0  0  0  0  0  0  0  0  0  0  0  0
   -8.5479    4.8236    0.0000 C   0  0  0  0  0  0  0  0  0  0  0  0
   -0.3173   -6.7367    0.0000 C   0  0  0  0  0  0  0  0  0  0  0  0
    6.3234   -6.0860    0.0000 C   0  0  0  0  0  0  0  0  0  0  0  0
    7.1439   -5.9997    0.0000 C   0  0  0  0  0  0  0  0  0  0  0  0
   -1.2244    8.7031    0.0000 C   0  0  0  0  0  0  0  0  0  0  0  0
   -8.4083    6.1512    0.0000 C   0  0  0  0  0  0  0  0  0  0  0  0
   -1.2105   -5.7447    0.0000 C   0  0  0  0  0  0  0  0  0  0  0  0
    1.6334   -3.6718    0.0000 C   0  0  0  0  0  0  0  0  0  0  0  0
   -0.5100    4.9906    0.0000 C   0  0  0  0  0  0  0  0  0  0  0  0
   -7.2008    0.6632    0.0000 C   0  0  0  0  0  0  0  0  0  0  0  0
   -3.3678    5.8156    0.0000 C   0  0  0  0  0  0  0  0  0  0  0  0
   -3.2522   -4.8149    0.0000 C   0  0  0  0  0  0  0  0  0  0  0  0
    3.6758   -8.5195    0.0000 C   0  0  0  0  0  0  0  0  0  0  0  0
   -3.6208    0.3239    0.0000 C   0  0  0  0  0  0  0  0  0  0  0  0
    7.4426   -8.8420    0.0000 C   0  0  0  0  0  0  0  0  0  0  0  0
    4.4912   -0.3718    0.0000 C   0  0  0  0  0  0  0  0  0  0  0  0
    3.7768   -2.4343    0.0000 C   0  0  0  0  0  0  0  0  0  0  0  0
    3.0623    1.2781    0.0000 C   0  0  0  0  0  0  0  0  0  0  0  0
   -4.9200   -2.3518    0.0000 C   0  0  0  0  0  0  0  0  0  0  0  0
    0.9189   -4.0843    0.0000 C   0  0  0  0  0  0  0  0  0  0  0  0
   -0.5100    5.8156    0.0000 C   0  0  0  0  0  0  0  0  0  0  0  0
   -7.8139    1.2152    0.0000 C   0  0  0  0  0  0  0  0  0  0  0  0
   -3.3678    4.9906    0.0000 C   0  0  0  0  0  0  0  0  0  0  0  0
   -4.0368   -5.0699    0.0000 C   0  0  0  0  0  0  0  0  0  0  0  0
    0.2044   -0.3718    0.0000 C   0  0  0  0  0  0  0  0  0  0  0  0
    3.0623    3.7531    0.0000 C   0  0  0  0  0  0  0  0  0  0  0  0
   -5.5113    9.5281    0.0000 C   0  0  0  0  0  0  0  0  0  0  0  0
   -7.6547    7.4656    0.0000 C   0  0  1  0  0  0  0  0  0  0  0  0
   -6.6862    3.0841    0.0000 C   0  0  1  0  0  0  0  0  0  0  0  0
    2.2210   -6.5172    0.0000 C   0  0  1  0  0  0  0  0  0  0  0  0
    0.2044    3.7531    0.0000 C   0  0  1  0  0  0  0  0  0  0  0  0
   -0.7268   -3.2431    0.0000 C   0  0  2  0  0  0  0  0  0  0  0  0
   -3.3678    8.2906    0.0000 C   0  0  1  0  0  0  0  0  0  0  0  0
    5.9879   -6.8397    0.0000 C   0  0  1  0  0  0  0  0  0  0  0  0
    1.6334   -2.8468    0.0000 C   0  0  1  0  0  0  0  0  0  0  0  0
   -1.2244    4.5781    0.0000 C   0  0  1  0  0  0  0  0  0  0  0  0
   -6.4162    0.9181    0.0000 C   0  0  1  0  0  0  0  0  0  0  0  0
   -2.6534    6.2281    0.0000 C   0  0  1  0  0  0  0  0  0  0  0  0
   -3.0807   -4.0079    0.0000 C   0  0  1  0  0  0  0  0  0  0  0  0
    4.0114   -7.7658    0.0000 C   0  0  1  0  0  0  0  0  0  0  0  0
   -4.4054    0.0690    0.0000 C   0  0  1  0  0  0  0  0  0  0  0  0
    7.7782   -8.0883    0.0000 C   0  0  1  0  0  0  0  0  0  0  0  0
   -4.1353   -2.0969    0.0000 C   0  0  1  0  0  0  0  0  0  0  0  0
   -7.7409    4.9951    0.0000 C   0  0  1  0  0  0  0  0  0  0  0  0
    0.0951   -6.0222    0.0000 C   0  0  1  0  0  0  0  0  0  0  0  0
    4.1607   -9.1869    0.0000 C   0  0  0  0  0  0  0  0  0  0  0  0
    3.7768    0.0406    0.0000 C   0  0  0  0  0  0  0  0  0  0  0  0
    3.7768   -1.6093    0.0000 C   0  0  0  0  0  0  0  0  0  0  0  0
    3.0623    2.1031    0.0000 C   0  0  0  0  0  0  0  0  0  0  0  0
    7.4795   -5.2461    0.0000 C   0  0  0  0  0  0  0  0  0  0  0  0
   -3.4492    1.1309    0.0000 C   0  0  0  0  0  0  0  0  0  0  0  0
    6.6222   -8.9282    0.0000 C   0  0  0  0  0  0  0  0  0  0  0  0
    0.2044   -1.1968    0.0000 C   0  0  1  0  0  0  0  0  0  0  0  0
    2.3478    3.3406    0.0000 C   0  0  1  0  0  0  0  0  0  0  0  0
   -5.5113    8.7031    0.0000 C   0  0  1  0  0  0  0  0  0  0  0  0
   -6.9402    7.0531    0.0000 C   0  0  1  0  0  0  0  0  0  0  0  0
   -0.8984   -4.0501    0.0000 C   0  0  1  0  0  0  0  0  0  0  0  0
   -6.8578    2.2771    0.0000 C   0  0  0  0  0  0  0  0  0  0  0  0
    2.7060   -7.1846    0.0000 C   0  0  0  0  0  0  0  0  0  0  0  0
   -0.5100    3.3406    0.0000 C   0  0  0  0  0  0  0  0  0  0  0  0
    2.3478   -2.4343    0.0000 C   0  0  0  0  0  0  0  0  0  0  0  0
    6.4728   -7.5071    0.0000 C   0  0  0  0  0  0  0  0  0  0  0  0
   -4.0823    8.7031    0.0000 C   0  0  0  0  0  0  0  0  0  0  0  0
   -2.6534    7.0531    0.0000 C   0  0  0  0  0  0  0  0  0  0  0  0
   -1.9389    4.9906    0.0000 C   0  0  0  0  0  0  0  0  0  0  0  0
   -5.8031    0.3661    0.0000 C   0  0  0  0  0  0  0  0  0  0  0  0
    4.8318   -7.6796    0.0000 C   0  0  0  0  0  0  0  0  0  0  0  0
   -4.5769   -0.7379    0.0000 C   0  0  0  0  0  0  0  0  0  0  0  0
   -2.2961   -3.7530    0.0000 C   0  0  0  0  0  0  0  0  0  0  0  0
   -3.5223   -2.6489    0.0000 C   0  0  0  0  0  0  0  0  0  0  0  0
   -7.1278    4.4431    0.0000 C   0  0  0  0  0  0  0  0  0  0  0  0
    0.9156   -5.9360    0.0000 C   0  0  0  0  0  0  0  0  0  0  0  0
    0.9189   -1.6093    0.0000 C   0  0  0  0  0  0  0  0  0  0  0  0
    1.6334    3.7531    0.0000 C   0  0  0  0  0  0  0  0  0  0  0  0
   -6.2257    8.2906    0.0000 C   0  0  0  0  0  0  0  0  0  0  0  0
   -6.9402    6.2281    0.0000 C   0  0  0  0  0  0  0  0  0  0  0  0
   -0.2853   -4.6021    0.0000 C   0  0  0  0  0  0  0  0  0  0  0  0
    8.5987   -8.0021    0.0000 C   0  0  0  0  0  0  0  0  0  0  0  0
    0.2044    8.7031    0.0000 C   0  0  0  0  0  0  0  0  0  0  0  0
    3.8252   -9.9406    0.0000 N   0  0  0  0  0  0  0  0  0  0  0  0
   -0.5100   -1.6093    0.0000 N   0  0  0  0  0  0  0  0  0  0  0  0
    0.9189    8.2906    0.0000 N   0  0  0  0  0  0  0  0  0  0  0  0
    0.2044    9.5281    0.0000 N   0  0  0  0  0  0  0  0  0  0  0  0
   -0.5100    8.2906    0.0000 N   0  0  0  0  0  0  0  0  0  0  0  0
    4.4912   -1.1968    0.0000 N   0  0  0  0  0  0  0  0  0  0  0  0
    3.7768    0.8656    0.0000 N   0  0  0  0  0  0  0  0  0  0  0  0
    3.0623   -2.8468    0.0000 N   0  0  0  0  0  0  0  0  0  0  0  0
   -7.2993    3.6361    0.0000 N   0  0  0  0  0  0  0  0  0  0  0  0
    1.4006   -6.6034    0.0000 N   0  0  0  0  0  0  0  0  0  0  0  0
    0.9189    3.3406    0.0000 N   0  0  0  0  0  0  0  0  0  0  0  0
   -3.3678    7.4656    0.0000 N   0  0  0  0  0  0  0  0  0  0  0  0
    5.1674   -6.9259    0.0000 N   0  0  0  0  0  0  0  0  0  0  0  0
   -6.2447    1.7251    0.0000 N   0  0  0  0  0  0  0  0  0  0  0  0
   -1.2244    3.7531    0.0000 N   0  0  0  0  0  0  0  0  0  0  0  0
    3.5264   -7.0984    0.0000 N   0  0  0  0  0  0  0  0  0  0  0  0
   -1.9389    5.8156    0.0000 N   0  0  0  0  0  0  0  0  0  0  0  0
   -3.6938   -3.4559    0.0000 N   0  0  0  0  0  0  0  0  0  0  0  0
   -5.0185    0.6210    0.0000 N   0  0  0  0  0  0  0  0  0  0  0  0
    0.9189   -2.4343    0.0000 N   0  0  0  0  0  0  0  0  0  0  0  0
    7.2933   -7.4209    0.0000 N   0  0  0  0  0  0  0  0  0  0  0  0
   -3.9638   -1.2899    0.0000 N   0  0  0  0  0  0  0  0  0  0  0  0
    2.3478    2.5156    0.0000 N   0  0  0  0  0  0  0  0  0  0  0  0
   -4.7968    8.2906    0.0000 N   0  0  0  0  0  0  0  0  0  0  0  0
   -6.2257    7.4656    0.0000 N   0  0  0  0  0  0  0  0  0  0  0  0
   -1.6830   -4.3050    0.0000 N   0  0  0  0  0  0  0  0  0  0  0  0
   -7.6547    5.8156    0.0000 N   0  0  0  0  0  0  0  0  0  0  0  0
   -0.4568   -5.4091    0.0000 N   0  0  0  0  0  0  0  0  0  0  0  0
   -5.5331   -1.7998    0.0000 O   0  0  0  0  0  0  0  0  0  0  0  0
    0.0577   -2.9882    0.0000 O   0  0  0  0  0  0  0  0  0  0  0  0
    4.9812   -9.1007    0.0000 O   0  0  0  0  0  0  0  0  0  0  0  0
    3.0623   -0.3718    0.0000 O   0  0  0  0  0  0  0  0  0  0  0  0
    3.0623   -1.1968    0.0000 O   0  0  0  0  0  0  0  0  0  0  0  0
    3.7768    2.5156    0.0000 O   0  0  0  0  0  0  0  0  0  0  0  0
    6.9946   -4.5786    0.0000 O   0  0  0  0  0  0  0  0  0  0  0  0
    8.3000   -5.1598    0.0000 O   0  0  0  0  0  0  0  0  0  0  0  0
   -4.0623    1.6829    0.0000 O   0  0  0  0  0  0  0  0  0  0  0  0
   -2.6646    1.3858    0.0000 O   0  0  0  0  0  0  0  0  0  0  0  0
    6.2866   -9.6819    0.0000 O   0  0  0  0  0  0  0  0  0  0  0  0
    6.1372   -8.2608    0.0000 O   0  0  0  0  0  0  0  0  0  0  0  0
   -7.6424    2.5320    0.0000 O   0  0  0  0  0  0  0  0  0  0  0  0
    2.3704   -7.9383    0.0000 O   0  0  0  0  0  0  0  0  0  0  0  0
   -0.5100    2.5156    0.0000 O   0  0  0  0  0  0  0  0  0  0  0  0
    2.3478   -1.6093    0.0000 O   0  0  0  0  0  0  0  0  0  0  0  0
    5.7583   -7.9196    0.0000 O   0  0  0  0  0  0  0  0  0  0  0  0
   -4.0823    9.5281    0.0000 O   0  0  0  0  0  0  0  0  0  0  0  0
   -1.9389    7.4656    0.0000 O   0  0  0  0  0  0  0  0  0  0  0  0
   -2.2745    4.2369    0.0000 O   0  0  0  0  0  0  0  0  0  0  0  0
   -5.9746   -0.4408    0.0000 O   0  0  0  0  0  0  0  0  0  0  0  0
    5.3168   -8.3470    0.0000 O   0  0  0  0  0  0  0  0  0  0  0  0
   -5.3615   -0.9928    0.0000 O   0  0  0  0  0  0  0  0  0  0  0  0
   -2.1245   -2.9460    0.0000 O   0  0  0  0  0  0  0  0  0  0  0  0
   -2.7376   -2.3940    0.0000 O   0  0  0  0  0  0  0  0  0  0  0  0
   -6.3432    4.6980    0.0000 O   0  0  0  0  0  0  0  0  0  0  0  0
    1.2512   -5.1823    0.0000 O   0  0  0  0  0  0  0  0  0  0  0  0
    1.6334   -1.1968    0.0000 O   0  0  0  0  0  0  0  0  0  0  0  0
    1.6334    4.5781    0.0000 O   0  0  0  0  0  0  0  0  0  0  0  0
   -6.9402    8.7031    0.0000 O   0  0  0  0  0  0  0  0  0  0  0  0
   -6.2257    5.8156    0.0000 O   0  0  0  0  0  0  0  0  0  0  0  0
    0.4993   -4.3472    0.0000 O   0  0  0  0  0  0  0  0  0  0  0  0
    9.0836   -8.6695    0.0000 O   0  0  0  0  0  0  0  0  0  0  0  0
    8.9342   -7.2484    0.0000 O   0  0  0  0  0  0  0  0  0  0  0  0
   -8.3691    7.8781    0.0000 H   0  0  0  0  0  0  0  0  0  0  0  0
   -6.0731    2.5320    0.0000 H   0  0  0  0  0  0  0  0  0  0  0  0
    3.0415   -6.4309    0.0000 H   0  0  0  0  0  0  0  0  0  0  0  0
   -0.5100    4.1656    0.0000 H   0  0  0  0  0  0  0  0  0  0  0  0
   -1.5114   -3.4981    0.0000 H   0  0  0  0  0  0  0  0  0  0  0  0
   -3.3678    9.1156    0.0000 H   0  0  0  0  0  0  0  0  0  0  0  0
    6.8084   -6.7534    0.0000 H   0  0  0  0  0  0  0  0  0  0  0  0
    2.3478   -3.2593    0.0000 H   0  0  0  0  0  0  0  0  0  0  0  0
   -1.2244    5.4031    0.0000 H   0  0  0  0  0  0  0  0  0  0  0  0
   -6.5877    0.1111    0.0000 H   0  0  0  0  0  0  0  0  0  0  0  0
   -3.3678    6.6406    0.0000 H   0  0  0  0  0  0  0  0  0  0  0  0
   -2.4676   -4.5600    0.0000 H   0  0  0  0  0  0  0  0  0  0  0  0
    4.4963   -8.4332    0.0000 H   0  0  0  0  0  0  0  0  0  0  0  0
   -3.7923   -0.4830    0.0000 H   0  0  0  0  0  0  0  0  0  0  0  0
    8.2631   -8.7557    0.0000 H   0  0  0  0  0  0  0  0  0  0  0  0
   -4.3069   -2.9039    0.0000 H   0  0  0  0  0  0  0  0  0  0  0  0
   -7.9544    4.1982    0.0000 H   0  0  0  0  0  0  0  0  0  0  0  0
    0.5445   -6.7141    0.0000 H   0  0  0  0  0  0  0  0  0  0  0  0
    0.9189   -0.7843    0.0000 H   0  0  0  0  0  0  0  0  0  0  0  0
    2.3478    4.1656    0.0000 H   0  0  0  0  0  0  0  0  0  0  0  0
   -6.2257    9.1156    0.0000 H   0  0  0  0  0  0  0  0  0  0  0  0
   -7.6547    6.6406    0.0000 H   0  0  0  0  0  0  0  0  0  0  0  0
   -0.1137   -3.7952    0.0000 H   0  0  0  0  0  0  0  0  0  0  0  0
 23  1  1  0  0  0  0
 27 24  1  0  0  0  0
 28 25  1  0  0  0  0
 29 26  1  0  0  0  0
 31 30  1  0  0  0  0
 32 24  1  0  0  0  0
 33 25  1  0  0  0  0
 34 26  1  0  0  0  0
 47  2  1  0  0  0  0
 47  3  1  0  0  0  0
 47 35  1  0  0  0  0
 48  4  1  0  0  0  0
 48  5  1  0  0  0  0
 48 36  1  0  0  0  0
 49  6  1  0  0  0  0
 49  7  1  0  0  0  0
 49 37  1  0  0  0  0
 50  8  1  0  0  0  0
 50  9  1  0  0  0  0
 50 38  1  0  0  0  0
 51 10  1  0  0  0  0
 51 11  1  0  0  0  0
 51 39  1  0  0  0  0
 52 12  1  0  0  0  0
 52 13  1  0  0  0  0
 53 14  1  0  0  0  0
 53 15  1  0  0  0  0
 54 16  1  0  0  0  0
 54 17  1  0  0  0  0
 55 18  1  0  0  0  0
 55 23  1  0  0  0  0
 56 19  1  0  0  0  0
 57 20  1  0  0  0  0
 58 21  1  0  0  0  0
 59 22  1  0  0  0  0
 60 27  1  0  0  0  0
 61 30  1  0  0  0  0
 62 35  1  0  0  0  0
 63 36  1  0  0  0  0
 64 37  1  0  0  0  0
 65 38  1  0  0  0  0
 66 39  1  0  0  0  0
 67 40  1  0  0  0  0
 68 41  1  0  0  0  0
 69 42  1  0  0  0  0
 70 46  1  0  0  0  0
 71 28  1  0  0  0  0
 72 29  1  0  0  0  0
 73 40  1  0  0  0  0
 74 43  1  0  0  0  0
 75 44  1  0  0  0  0
 76 45  1  0  0  0  0
 77 31  1  0  0  0  0
 78 41  1  0  0  0  0
 79 42  1  0  0  0  0
 80 52  1  0  0  0  0
 81 53  1  0  0  0  0
 82 54  1  0  0  0  0
 55 83  1  0  0  0  0
 59 84  1  0  0  0  0
 56 85  1  0  0  0  0
 57 86  1  0  0  0  0
 58 87  1  0  0  0  0
 62 88  1  0  0  0  0
 61 89  1  0  0  0  0
 60 90  1  0  0  0  0
 65 91  1  0  0  0  0
 63 92  1  0  0  0  0
 64 93  1  0  0  0  0
 67 94  1  0  0  0  0
 68 95  1  0  0  0  0
 66 96  1  0  0  0  0
 70 97  1  0  0  0  0
 71 98  1  6  0  0  0
 72 99  1  6  0  0  0
 80100  1  0  0  0  0
 81101  1  0  0  0  0
 82102  1  0  0  0  0
 83103  1  0  0  0  0
 84104  1  0  0  0  0
 69105  1  0  0  0  0
107 73  2  0  0  0  0
 80108  1  0  0  0  0
109106  2  0  0  0  0
110106  1  0  0  0  0
111 32  1  0  0  0  0
111106  1  0  0  0  0
112 43  1  4  0  0  0
112 75  2  0  0  0  0
113 45  1  4  0  0  0
113 74  2  0  0  0  0
114 44  1  4  0  0  0
114 88  2  0  0  0  0
 56115  1  0  0  0  0
115 98  2  0  0  0  0
 57116  1  0  0  0  0
116 99  2  0  0  0  0
 58117  1  0  0  0  0
117101  2  0  0  0  0
 60118  1  0  0  0  0
118 91  2  0  0  0  0
 61119  1  0  0  0  0
119 94  2  0  0  0  0
 64120  1  0  0  0  0
120 85  2  0  0  0  0
 63121  1  0  0  0  0
121 87  2  0  0  0  0
 67122  1  0  0  0  0
122 86  2  0  0  0  0
 65123  1  0  0  0  0
123 92  2  0  0  0  0
 66124  1  0  0  0  0
124 97  2  0  0  0  0
 68125  1  0  0  0  0
125 93  2  0  0  0  0
 62126  1  0  0  0  0
126100  2  0  0  0  0
 69127  1  0  0  0  0
127 89  2  0  0  0  0
 70128  1  0  0  0  0
128 95  2  0  0  0  0
129 76  2  0  0  0  0
 81129  1  0  0  0  0
 82130  1  0  0  0  0
130 90  2  0  0  0  0
 83131  1  0  0  0  0
131102  2  0  0  0  0
 84132  1  0  0  0  0
132 96  2  0  0  0  0
133 33  1  0  0  0  0
 71133  1  0  0  0  0
133103  1  0  0  0  0
134 34  1  0  0  0  0
 72134  1  0  0  0  0
134104  1  0  0  0  0
135 46  1  0  0  0  0
 59136  1  0  0  0  0
137 73  1  0  0  0  0
138 74  1  0  0  0  0
139 75  1  0  0  0  0
 76140  1  4  0  0  0
141 77  2  0  0  0  0
142 77  1  0  0  0  0
143 78  2  0  0  0  0
144 78  1  0  0  0  0
145 79  2  0  0  0  0
146 79  1  0  0  0  0
 85147  1  4  0  0  0
 86148  1  4  0  0  0
 87149  1  4  0  0  0
150 88  1  0  0  0  0
 89151  1  4  0  0  0
 90152  1  4  0  0  0
 91153  1  4  0  0  0
 92154  1  4  0  0  0
 93155  1  4  0  0  0
 94156  1  4  0  0  0
 95157  1  4  0  0  0
 96158  1  4  0  0  0
 97159  1  4  0  0  0
 98160  1  4  0  0  0
 99161  1  4  0  0  0
100162  1  4  0  0  0
101163  1  4  0  0  0
102164  1  4  0  0  0
165103  2  0  0  0  0
166104  2  0  0  0  0
167105  2  0  0  0  0
168105  1  0  0  0  0
 55169  1  1  0  0  0
 56170  1  6  0  0  0
 57171  1  6  0  0  0
 58172  1  1  0  0  0
 59173  1  6  0  0  0
 60174  1  1  0  0  0
 61175  1  6  0  0  0
 62176  1  1  0  0  0
 63177  1  1  0  0  0
 64178  1  1  0  0  0
 65179  1  6  0  0  0
 66180  1  1  0  0  0
 67181  1  1  0  0  0
 68182  1  6  0  0  0
 69183  1  1  0  0  0
 70184  1  1  0  0  0
 71185  1  1  0  0  0
 72186  1  1  0  0  0
 80187  1  6  0  0  0
 81188  1  1  0  0  0
 82189  1  1  0  0  0
 83190  1  1  0  0  0
 84191  1  6  0  0  0
M  END
> <DATABASE_ID>
DB06651

> <DATABASE_NAME>
drugbank

> <SMILES>
[H][C@](C)(O)[C@]([H])(N=C(O)[C@]([H])(CC(C)C)N=C(O)[C@]([H])(CO)N=C(O)[C@]([H])(CC(O)=O)N=C(O)[C@]([H])(CC(C)C)N=C(O)[C@]([H])(C)N=C(O)[C@]1([H])CCCN1C(=O)[C@@]([H])(N=C(O)[C@@]([H])(N=C(O)[C@]([H])(CCCNC(N)=N)N=C(O)[C@]([H])(CC(C)C)N=C(O)[C@]([H])(CC(C)C)N=C(O)[C@]([H])(C)N=C(O)[C@@]([H])(N=C(O)CN=C(O)CN=C(O)CN=C(O)[C@]([H])(CC(C)C)N=C(O)[C@@]([H])(N)C(C)C)C(C)C)C(C)C)[C@@]([H])(C)CC)C(=O)N1CCC[C@@]1([H])C(O)=N[C@@]([H])(C)C(O)=N[C@@]([H])(CC(O)=N)C(O)=N[C@@]([H])(CCC(O)=O)C(O)=N[C@@]([H])(CC(O)=O)C(O)=O

> <INCHI_IDENTIFIER>
InChI=1S/C106H180N28O34/c1-23-55(18)83(131-102(164)82(54(16)17)130-90(152)60(27-24-32-111-106(109)110)118-91(153)65(38-50(8)9)123-92(154)63(36-48(4)5)121-87(149)58(21)117-101(163)81(53(14)15)129-76(140)45-113-74(138)43-112-75(139)44-114-88(150)62(35-47(2)3)126-100(162)80(108)52(12)13)103(165)133-33-25-28-71(133)98(160)115-56(19)85(147)120-64(37-49(6)7)93(155)125-68(41-78(143)144)95(157)128-70(46-135)97(159)124-66(39-51(10)11)96(158)132-84(59(22)136)104(166)134-34-26-29-72(134)99(161)116-57(20)86(148)122-67(40-73(107)137)94(156)119-61(30-31-77(141)142)89(151)127-69(105(167)168)42-79(145)146/h47-72,80-84,135-136H,23-46,108H2,1-22H3,(H2,107,137)(H,112,139)(H,113,138)(H,114,150)(H,115,160)(H,116,161)(H,117,163)(H,118,153)(H,119,156)(H,120,147)(H,121,149)(H,122,148)(H,123,154)(H,124,159)(H,125,155)(H,126,162)(H,127,151)(H,128,157)(H,129,140)(H,130,152)(H,131,164)(H,132,158)(H,141,142)(H,143,144)(H,145,146)(H,167,168)(H4,109,110,111)/t55-,56-,57-,58-,59+,60-,61-,62-,63-,64-,65-,66-,67-,68-,69-,70-,71-,72-,80-,81-,82-,83-,84-/m0/s1

> <INCHI_KEY>
VGGRNGOEDNBLPH-YJHCMWSWSA-N

> <FORMULA>
C106H180N28O34

> <MOLECULAR_WEIGHT>
2390.768

> <EXACT_MASS>
2389.321674988

> <JCHEM_ACCEPTOR_COUNT>
60

> <JCHEM_ATOM_COUNT>
348

> <JCHEM_AVERAGE_POLARIZABILITY>
253.2335296273398

> <JCHEM_BIOAVAILABILITY>
0

> <JCHEM_DONOR_COUNT>
33

> <JCHEM_FORMAL_CHARGE>
0

> <JCHEM_GHOSE_FILTER>
0

> <JCHEM_IUPAC>
(2S)-2-{[(2S)-2-{[(2S)-2-{[(2S)-2-({[(2S)-1-[(2S,3R)-2-{[(2S)-2-{[(2S)-2-{[(2S)-2-{[(2S)-2-{[(2S)-2-({[(2S)-1-[(2S,3S)-2-{[(2S)-2-{[(2S)-2-{[(2S)-2-{[(2S)-2-{[(2S)-2-{[(2S)-2-{[2-({2-[(2-{[(2S)-2-{[(2S)-2-amino-1-hydroxy-3-methylbutylidene]amino}-1-hydroxy-4-methylpentylidene]amino}-1-hydroxyethylidene)amino]-1-hydroxyethylidene}amino)-1-hydroxyethylidene]amino}-1-hydroxy-3-methylbutylidene]amino}-1-hydroxypropylidene]amino}-1-hydroxy-4-methylpentylidene]amino}-1-hydroxy-4-methylpentylidene]amino}-5-carbamimidamido-1-hydroxypentylidene]amino}-1-hydroxy-3-methylbutylidene]amino}-3-methylpentanoyl]pyrrolidin-2-yl](hydroxy)methylidene}amino)-1-hydroxypropylidene]amino}-1-hydroxy-4-methylpentylidene]amino}-3-carboxy-1-hydroxypropylidene]amino}-1,3-dihydroxypropylidene]amino}-1-hydroxy-4-methylpentylidene]amino}-3-hydroxybutanoyl]pyrrolidin-2-yl](hydroxy)methylidene}amino)-1-hydroxypropylidene]amino}-1-hydroxy-3-(C-hydroxycarbonimidoyl)propylidene]amino}-4-carboxy-1-hydroxybutylidene]amino}butanedioic acid

> <ALOGPS_LOGP>
1.29

> <JCHEM_LOGP>
6.459167708823417

> <ALOGPS_LOGS>
-4.79

> <JCHEM_MDDR_LIKE_RULE>
0

> <JCHEM_NUMBER_OF_RINGS>
2

> <JCHEM_PHYSIOLOGICAL_CHARGE>
-12

> <JCHEM_PKA>
2.922828793478414

> <JCHEM_PKA_STRONGEST_ACIDIC>
2.4842315048440864

> <JCHEM_PKA_STRONGEST_BASIC>
11.864329251951991

> <JCHEM_POLAR_SURFACE_AREA>
1046.670000000001

> <JCHEM_REFRACTIVITY>
622.7285000000008

> <JCHEM_ROTATABLE_BOND_COUNT>
75

> <JCHEM_RULE_OF_FIVE>
0

> <ALOGPS_SOLUBILITY>
3.86e-02 g/l

> <JCHEM_TRADITIONAL_IUPAC>
(2S)-2-{[(2S)-2-{[(2S)-2-{[(2S)-2-({[(2S)-1-[(2S,3R)-2-{[(2S)-2-{[(2S)-2-{[(2S)-2-{[(2S)-2-{[(2S)-2-({[(2S)-1-[(2S,3S)-2-{[(2S)-2-{[(2S)-2-{[(2S)-2-{[(2S)-2-{[(2S)-2-{[(2S)-2-{[2-({2-[(2-{[(2S)-2-{[(2S)-2-amino-1-hydroxy-3-methylbutylidene]amino}-1-hydroxy-4-methylpentylidene]amino}-1-hydroxyethylidene)amino]-1-hydroxyethylidene}amino)-1-hydroxyethylidene]amino}-1-hydroxy-3-methylbutylidene]amino}-1-hydroxypropylidene]amino}-1-hydroxy-4-methylpentylidene]amino}-1-hydroxy-4-methylpentylidene]amino}-5-carbamimidamido-1-hydroxypentylidene]amino}-1-hydroxy-3-methylbutylidene]amino}-3-methylpentanoyl]pyrrolidin-2-yl](hydroxy)methylidene}amino)-1-hydroxypropylidene]amino}-1-hydroxy-4-methylpentylidene]amino}-3-carboxy-1-hydroxypropylidene]amino}-1,3-dihydroxypropylidene]amino}-1-hydroxy-4-methylpentylidene]amino}-3-hydroxybutanoyl]pyrrolidin-2-yl](hydroxy)methylidene}amino)-1-hydroxypropylidene]amino}-1-hydroxy-3-(C-hydroxycarbonimidoyl)propylidene]amino}-4-carboxy-1-hydroxybutylidene]amino}butanedioic acid

> <JCHEM_VEBER_RULE>
0

> <DRUGBANK_ID>
DB06651

> <DRUG_GROUPS>
investigational

> <GENERIC_NAME>
DiaPep 277

$$$$
