
  Mrv1718006121800282D          

 15 17  0  0  0  0            999 V2000
    0.4244   -1.4032    0.0000 C   0  0  0  0  0  0  0  0  0  0  0  0
    1.0987   -1.8756    0.0000 N   0  0  0  0  0  0  0  0  0  0  0  0
    1.7564   -1.3803    0.0000 C   0  0  0  0  0  0  0  0  0  0  0  0
    0.6655   -0.6160    0.0000 C   0  0  1  0  0  0  0  0  0  0  0  0
    1.4888   -0.6046    0.0000 C   0  0  2  0  0  0  0  0  0  0  0  0
    1.0673    0.1027    0.0000 C   0  0  0  0  0  0  0  0  0  0  0  0
   -0.0527   -0.2002    0.0000 C   0  0  0  0  0  0  0  0  0  0  0  0
    2.2014   -0.1877    0.0000 H   0  0  0  0  0  0  0  0  0  0  0  0
   -0.0491    0.6349    0.0000 C   0  0  0  0  0  0  0  0  0  0  0  0
   -0.7666    1.0506    0.0000 C   0  0  0  0  0  0  0  0  0  0  0  0
   -1.4867    0.6363    0.0000 C   0  0  0  0  0  0  0  0  0  0  0  0
   -1.4850   -0.1979    0.0000 C   0  0  0  0  0  0  0  0  0  0  0  0
   -0.7669   -0.6098    0.0000 C   0  0  0  0  0  0  0  0  0  0  0  0
   -2.2014    1.0486    0.0000 Cl  0  0  0  0  0  0  0  0  0  0  0  0
   -0.7653    1.8756    0.0000 Cl  0  0  0  0  0  0  0  0  0  0  0  0
  4  7  1  1  0  0  0
  4  1  1  0  0  0  0
  5  8  1  1  0  0  0
  5  4  1  0  0  0  0
  7  9  2  0  0  0  0
  6  5  1  0  0  0  0
  9 10  1  0  0  0  0
  4  6  1  0  0  0  0
 10 11  2  0  0  0  0
  1  2  1  0  0  0  0
 11 12  1  0  0  0  0
 12 13  2  0  0  0  0
 13  7  1  0  0  0  0
  2  3  1  0  0  0  0
 11 14  1  0  0  0  0
  3  5  1  0  0  0  0
 10 15  1  0  0  0  0
M  END
> <DATABASE_ID>
DB05964

> <DATABASE_NAME>
drugbank

> <SMILES>
[H][C@]12C[C@]1(CNC2)C1=CC(Cl)=C(Cl)C=C1

> <INCHI_IDENTIFIER>
InChI=1S/C11H11Cl2N/c12-9-2-1-7(3-10(9)13)11-4-8(11)5-14-6-11/h1-3,8,14H,4-6H2/t8-,11+/m1/s1

> <INCHI_KEY>
BSMNRYCSBFHEMQ-KCJUWKMLSA-N

> <FORMULA>
C11H11Cl2N

> <MOLECULAR_WEIGHT>
228.12

> <EXACT_MASS>
227.0268548

> <JCHEM_ACCEPTOR_COUNT>
1

> <JCHEM_ATOM_COUNT>
25

> <JCHEM_AVERAGE_POLARIZABILITY>
22.896524485702393

> <JCHEM_BIOAVAILABILITY>
1

> <JCHEM_DONOR_COUNT>
1

> <JCHEM_FORMAL_CHARGE>
0

> <JCHEM_GHOSE_FILTER>
1

> <JCHEM_IUPAC>
(1R,5S)-1-(3,4-dichlorophenyl)-3-azabicyclo[3.1.0]hexane

> <ALOGPS_LOGP>
2.80

> <JCHEM_LOGP>
2.7544642553333336

> <ALOGPS_LOGS>
-4.15

> <JCHEM_MDDR_LIKE_RULE>
0

> <JCHEM_NUMBER_OF_RINGS>
3

> <JCHEM_PHYSIOLOGICAL_CHARGE>
1

> <JCHEM_PKA_STRONGEST_BASIC>
10.481442873700141

> <JCHEM_POLAR_SURFACE_AREA>
12.03

> <JCHEM_REFRACTIVITY>
58.87710000000001

> <JCHEM_ROTATABLE_BOND_COUNT>
1

> <JCHEM_RULE_OF_FIVE>
1

> <ALOGPS_SOLUBILITY>
1.62e-02 g/l

> <JCHEM_TRADITIONAL_IUPAC>
amitifadine

> <JCHEM_VEBER_RULE>
1

> <DRUGBANK_ID>
DB05964

> <DRUG_GROUPS>
investigational

> <GENERIC_NAME>
Amitifadine

> <SALTS>
Amitifadine hydrochloride

$$$$
