
  Mrv1909 01012020572D          

130140  0  0  0  0            999 V2000
   -2.8578    1.4028    0.0000 Cl  0  0  0  0  0  0  0  0  0  0  0  0
    2.8578    1.4028    0.0000 Cl  0  0  0  0  0  0  0  0  0  0  0  0
   -2.4033    3.1554    0.0000 O   0  0  0  0  0  0  0  0  0  0  0  0
   -1.0605    2.6668    0.0000 O   0  0  0  0  0  0  0  0  0  0  0  0
   -3.1818    5.1946    0.0000 O   0  0  0  0  0  0  0  0  0  0  0  0
   -6.2504   -0.8586    0.0000 O   0  0  0  0  0  0  0  0  0  0  0  0
    1.0946    2.3213    0.0000 O   0  0  0  0  0  0  0  0  0  0  0  0
   -4.8701   -0.4888    0.0000 O   0  0  0  0  0  0  0  0  0  0  0  0
   -8.0577    0.3653    0.0000 O   0  0  0  0  0  0  0  0  0  0  0  0
    0.0000    1.4028    0.0000 O   0  0  0  0  0  0  0  0  0  0  0  0
   -0.4962    4.2172    0.0000 O   0  0  0  0  0  0  0  0  0  0  0  0
    1.1286    4.5038    0.0000 O   0  0  0  0  0  0  0  0  0  0  0  0
    2.4714    4.0151    0.0000 O   0  0  0  0  0  0  0  0  0  0  0  0
   -1.4289    0.5778    0.0000 O   0  0  0  0  0  0  0  0  0  0  0  0
    1.4289    0.5778    0.0000 O   0  0  0  0  0  0  0  0  0  0  0  0
   -5.8262   -2.3096    0.0000 O   0  0  0  0  0  0  0  0  0  0  0  0
   -2.1457   -1.4807    0.0000 O   0  0  0  0  0  0  0  0  0  0  0  0
   -0.7155   -3.1346    0.0000 O   0  0  0  0  0  0  0  0  0  0  0  0
   -2.9459   -4.0410    0.0000 O   0  0  0  0  0  0  0  0  0  0  0  0
   -2.9410   -2.7771    0.0000 O   0  0  0  0  0  0  0  0  0  0  0  0
   -2.1433   -5.6096    0.0000 O   0  0  0  0  0  0  0  0  0  0  0  0
    1.4289   -1.0721    0.0000 O   0  0  0  0  0  0  0  0  0  0  0  0
   -2.8578   -6.0221    0.0000 O   0  0  0  0  0  0  0  0  0  0  0  0
   -5.7158   -6.0221    0.0000 O   0  0  0  0  0  0  0  0  0  0  0  0
    4.8701   -0.4888    0.0000 O   0  0  0  0  0  0  0  0  0  0  0  0
    3.5723   -3.1346    0.0000 O   0  0  0  0  0  0  0  0  0  0  0  0
    4.7138   -3.4909    0.0000 O   0  0  0  0  0  0  0  0  0  0  0  0
    0.9766   -3.4763    0.0000 O   0  0  0  0  0  0  0  0  0  0  0  0
   -1.9822    5.5184    0.0000 N   0  3  0  0  0  0  0  0  0  0  0  0
   -7.2608    1.3185    0.0000 N   0  3  0  0  0  0  0  0  0  0  0  0
   -3.5723   -2.3096    0.0000 N   0  0  0  0  0  0  0  0  0  0  0  0
   -5.0012   -3.1346    0.0000 N   0  0  0  0  0  0  0  0  0  0  0  0
   -1.4289   -1.8971    0.0000 N   0  0  0  0  0  0  0  0  0  0  0  0
    0.7144   -2.3096    0.0000 N   0  0  0  0  0  0  0  0  0  0  0  0
    2.8579   -1.8971    0.0000 N   0  0  0  0  0  0  0  0  0  0  0  0
    5.0836   -2.1106    0.0000 N   0  0  0  0  0  0  0  0  0  0  0  0
    6.3076   -3.9180    0.0000 N   0  3  0  0  0  0  0  0  0  0  0  0
    1.9871   -4.4868    0.0000 N   0  0  0  0  0  0  0  0  0  0  0  0
   -1.8390    4.7059    0.0000 C   0  0  2  0  0  0  0  0  0  0  0  0
   -2.6515    4.5627    0.0000 C   0  0  2  0  0  0  0  0  0  0  0  0
   -1.3087    4.0740    0.0000 C   0  0  0  0  0  0  0  0  0  0  0  0
   -1.5908    3.2987    0.0000 C   0  0  1  0  0  0  0  0  0  0  0  0
   -2.9336    3.7874    0.0000 C   0  0  2  0  0  0  0  0  0  0  0  0
   -6.6775    0.7351    0.0000 C   0  0  2  0  0  0  0  0  0  0  0  0
   -1.1245    5.1184    0.0000 C   0  0  0  0  0  0  0  0  0  0  0  0
   -7.2608    0.1518    0.0000 C   0  0  2  0  0  0  0  0  0  0  0  0
   -0.2481    2.8100    0.0000 C   0  0  2  0  0  0  0  0  0  0  0  0
   -5.8805    0.5215    0.0000 C   0  0  0  0  0  0  0  0  0  0  0  0
    0.0340    3.5852    0.0000 C   0  0  2  0  0  0  0  0  0  0  0  0
   -7.0473   -0.6450    0.0000 C   0  0  2  0  0  0  0  0  0  0  0  0
   -5.6670   -0.2752    0.0000 C   0  0  1  0  0  0  0  0  0  0  0  0
   -3.7461    3.6441    0.0000 C   0  0  0  0  0  0  0  0  0  0  0  0
    0.2821    2.1780    0.0000 C   0  0  1  0  0  0  0  0  0  0  0  0
    0.8464    3.7285    0.0000 C   0  0  1  0  0  0  0  0  0  0  0  0
   -6.0941    1.3185    0.0000 C   0  0  0  0  0  0  0  0  0  0  0  0
    1.3768    3.0965    0.0000 C   0  0  1  0  0  0  0  0  0  0  0  0
   -7.6307   -1.2285    0.0000 C   0  0  0  0  0  0  0  0  0  0  0  0
    2.1892    3.2398    0.0000 C   0  0  0  0  0  0  0  0  0  0  0  0
   -4.2868   -1.0721    0.0000 C   0  0  1  0  0  0  0  0  0  0  0  0
   -4.2868   -1.8971    0.0000 C   0  0  1  0  0  0  0  0  0  0  0  0
   -3.5723   -0.6596    0.0000 C   0  0  0  0  0  0  0  0  0  0  0  0
    0.0000    0.5778    0.0000 C   0  0  0  0  0  0  0  0  0  0  0  0
   -5.0012   -2.3096    0.0000 C   0  0  0  0  0  0  0  0  0  0  0  0
   -0.7144    0.1653    0.0000 C   0  0  0  0  0  0  0  0  0  0  0  0
    0.7144    0.1653    0.0000 C   0  0  0  0  0  0  0  0  0  0  0  0
   -3.5723    0.1653    0.0000 C   0  0  0  0  0  0  0  0  0  0  0  0
   -2.8578   -1.0721    0.0000 C   0  0  0  0  0  0  0  0  0  0  0  0
   -2.8578   -1.8971    0.0000 C   0  0  0  0  0  0  0  0  0  0  0  0
   -0.7144   -0.6596    0.0000 C   0  0  0  0  0  0  0  0  0  0  0  0
    0.0000   -1.0721    0.0000 C   0  0  0  0  0  0  0  0  0  0  0  0
   -2.1433    0.1653    0.0000 C   0  0  0  0  0  0  0  0  0  0  0  0
    0.7144   -0.6596    0.0000 C   0  0  0  0  0  0  0  0  0  0  0  0
   -2.8578    0.5778    0.0000 C   0  0  0  0  0  0  0  0  0  0  0  0
   -2.1433   -0.6596    0.0000 C   0  0  0  0  0  0  0  0  0  0  0  0
   -2.1433   -2.3096    0.0000 C   0  0  1  0  0  0  0  0  0  0  0  0
    0.0000   -1.8971    0.0000 C   0  0  2  0  0  0  0  0  0  0  0  0
   -4.2868   -3.5471    0.0000 C   0  0  1  0  0  0  0  0  0  0  0  0
   -0.7144   -2.3096    0.0000 C   0  0  0  0  0  0  0  0  0  0  0  0
   -2.1433   -3.1346    0.0000 C   0  0  0  0  0  0  0  0  0  0  0  0
   -4.2868   -4.3721    0.0000 C   0  0  0  0  0  0  0  0  0  0  0  0
   -3.5723   -4.7846    0.0000 C   0  0  0  0  0  0  0  0  0  0  0  0
   -2.8578   -3.5471    0.0000 C   0  0  0  0  0  0  0  0  0  0  0  0
   -2.8578   -4.3721    0.0000 C   0  0  0  0  0  0  0  0  0  0  0  0
    2.1433    0.1653    0.0000 C   0  0  0  0  0  0  0  0  0  0  0  0
   -3.4737   -3.4070    0.0000 C   0  0  0  0  0  0  0  0  0  0  0  0
   -1.4289   -3.5471    0.0000 C   0  0  0  0  0  0  0  0  0  0  0  0
    1.4289   -1.8971    0.0000 C   0  0  0  0  0  0  0  0  0  0  0  0
   -5.0012   -4.7846    0.0000 C   0  0  0  0  0  0  0  0  0  0  0  0
   -2.1433   -4.7846    0.0000 C   0  0  0  0  0  0  0  0  0  0  0  0
    2.1433   -2.3096    0.0000 C   0  0  2  0  0  0  0  0  0  0  0  0
   -1.4289   -4.3721    0.0000 C   0  0  0  0  0  0  0  0  0  0  0  0
   -3.5723   -5.6096    0.0000 C   0  0  0  0  0  0  0  0  0  0  0  0
    2.8579    0.5778    0.0000 C   0  0  0  0  0  0  0  0  0  0  0  0
    2.1433   -0.6596    0.0000 C   0  0  0  0  0  0  0  0  0  0  0  0
   -5.0012   -5.6096    0.0000 C   0  0  0  0  0  0  0  0  0  0  0  0
    3.5723   -0.6596    0.0000 C   0  0  0  0  0  0  0  0  0  0  0  0
    4.2868   -1.8971    0.0000 C   0  0  2  0  0  0  0  0  0  0  0  0
    4.2868   -1.0721    0.0000 C   0  0  2  0  0  0  0  0  0  0  0  0
   -4.2868   -6.0221    0.0000 C   0  0  0  0  0  0  0  0  0  0  0  0
    3.5723    0.1653    0.0000 C   0  0  0  0  0  0  0  0  0  0  0  0
    2.8579   -1.0721    0.0000 C   0  0  0  0  0  0  0  0  0  0  0  0
    2.3569   -3.1066    0.0000 C   0  0  0  0  0  0  0  0  0  0  0  0
    3.5723   -2.3096    0.0000 C   0  0  0  0  0  0  0  0  0  0  0  0
    6.0941   -3.1211    0.0000 C   0  0  2  0  0  0  0  0  0  0  0  0
    6.6775   -2.5377    0.0000 C   0  0  0  0  0  0  0  0  0  0  0  0
    5.2972   -2.9076    0.0000 C   0  0  0  0  0  0  0  0  0  0  0  0
    7.4743   -2.7512    0.0000 C   0  0  0  0  0  0  0  0  0  0  0  0
    1.7735   -3.6899    0.0000 C   0  0  0  0  0  0  0  0  0  0  0  0
    7.6878   -3.5481    0.0000 C   0  0  0  0  0  0  0  0  0  0  0  0
    8.0577   -2.1679    0.0000 C   0  0  0  0  0  0  0  0  0  0  0  0
    6.5211   -4.7148    0.0000 C   0  0  0  0  0  0  0  0  0  0  0  0
   -2.0711    6.0221    0.0000 H   0  0  0  0  0  0  0  0  0  0  0  0
   -1.5016    5.6934    0.0000 H   0  0  0  0  0  0  0  0  0  0  0  0
   -2.4860    5.4296    0.0000 H   0  0  0  0  0  0  0  0  0  0  0  0
   -7.6224    0.9568    0.0000 H   0  0  0  0  0  0  0  0  0  0  0  0
   -6.8991    1.6801    0.0000 H   0  0  0  0  0  0  0  0  0  0  0  0
   -7.6225    1.6801    0.0000 H   0  0  0  0  0  0  0  0  0  0  0  0
   -4.8583   -1.5671    0.0000 H   0  0  0  0  0  0  0  0  0  0  0  0
   -3.5723   -2.8211    0.0000 H   0  0  0  0  0  0  0  0  0  0  0  0
   -5.4442   -3.3904    0.0000 H   0  0  0  0  0  0  0  0  0  0  0  0
   -1.6276   -2.7214    0.0000 H   0  0  0  0  0  0  0  0  0  0  0  0
    0.0000   -2.5571    0.0000 H   0  0  0  0  0  0  0  0  0  0  0  0
   -1.4289   -1.3856    0.0000 H   0  0  0  0  0  0  0  0  0  0  0  0
    0.7144   -2.8211    0.0000 H   0  0  0  0  0  0  0  0  0  0  0  0
    2.4494   -1.5891    0.0000 H   0  0  0  0  0  0  0  0  0  0  0  0
    5.4453   -1.7490    0.0000 H   0  0  0  0  0  0  0  0  0  0  0  0
    6.8017   -3.7855    0.0000 H   0  0  0  0  0  0  0  0  0  0  0  0
    5.8135   -4.0504    0.0000 H   0  0  0  0  0  0  0  0  0  0  0  0
    1.6254   -4.8485    0.0000 H   0  0  0  0  0  0  0  0  0  0  0  0
    2.4811   -4.6192    0.0000 H   0  0  0  0  0  0  0  0  0  0  0  0
  1 73  1  0  0  0  0
  2 93  1  0  0  0  0
  3 42  1  0  0  0  0
  3 43  1  0  0  0  0
 42  4  1  6  0  0  0
 47  4  1  6  0  0  0
 40  5  1  6  0  0  0
  6 50  1  0  0  0  0
  6 51  1  0  0  0  0
  7 53  1  0  0  0  0
  7 56  1  0  0  0  0
 51  8  1  6  0  0  0
 59  8  1  6  0  0  0
 46  9  1  6  0  0  0
 53 10  1  1  0  0  0
 10 62  1  0  0  0  0
 49 11  1  1  0  0  0
 54 12  1  6  0  0  0
 13 58  1  0  0  0  0
 14 64  1  0  0  0  0
 14 71  1  0  0  0  0
 15 65  1  0  0  0  0
 15 84  1  0  0  0  0
 16 63  2  0  0  0  0
 17 68  2  0  0  0  0
 18 78  2  0  0  0  0
 19 85  1  0  0  0  0
 20 85  2  0  0  0  0
 21 89  1  0  0  0  0
 22 87  2  0  0  0  0
 23 92  1  0  0  0  0
 24 95  1  0  0  0  0
 98 25  1  1  0  0  0
 26103  2  0  0  0  0
 27106  2  0  0  0  0
 28108  2  0  0  0  0
 39 29  1  1  0  0  0
 29112  1  0  0  0  0
 29113  1  0  0  0  0
 29114  1  0  0  0  0
 44 30  1  1  0  0  0
 30115  1  0  0  0  0
 30116  1  0  0  0  0
 30117  1  0  0  0  0
 31 60  1  0  0  0  0
 31 68  1  0  0  0  0
 31119  1  0  0  0  0
 32 63  1  0  0  0  0
 32 77  1  0  0  0  0
 32120  1  0  0  0  0
 33 75  1  0  0  0  0
 33 78  1  0  0  0  0
 33123  1  0  0  0  0
 34 76  1  0  0  0  0
 34 87  1  0  0  0  0
 34124  1  0  0  0  0
 35 90  1  0  0  0  0
 35103  1  0  0  0  0
 35125  1  0  0  0  0
 97 36  1  1  0  0  0
 36106  1  0  0  0  0
 36126  1  0  0  0  0
104 37  1  1  0  0  0
 37111  1  0  0  0  0
 37127  1  0  0  0  0
 37128  1  0  0  0  0
 38108  1  0  0  0  0
 38129  1  0  0  0  0
 38130  1  0  0  0  0
 39 40  1  0  0  0  0
 39 41  1  0  0  0  0
 39 45  1  0  0  0  0
 40 43  1  0  0  0  0
 41 42  1  0  0  0  0
 43 52  1  1  0  0  0
 44 46  1  0  0  0  0
 44 48  1  0  0  0  0
 44 55  1  0  0  0  0
 46 50  1  0  0  0  0
 47 49  1  0  0  0  0
 47 53  1  0  0  0  0
 48 51  1  0  0  0  0
 49 54  1  0  0  0  0
 50 57  1  1  0  0  0
 54 56  1  0  0  0  0
 56 58  1  1  0  0  0
 59 60  1  0  0  0  0
 59 61  1  0  0  0  0
 60 63  1  0  0  0  0
 60118  1  1  0  0  0
 61 66  2  0  0  0  0
 61 67  1  0  0  0  0
 62 64  1  0  0  0  0
 62 65  2  0  0  0  0
 64 69  2  0  0  0  0
 65 72  1  0  0  0  0
 66 73  1  0  0  0  0
 67 74  2  0  0  0  0
 68 75  1  0  0  0  0
 69 70  1  0  0  0  0
 70 72  2  0  0  0  0
 70 76  1  0  0  0  0
 71 73  2  0  0  0  0
 71 74  1  0  0  0  0
 75 79  1  0  0  0  0
 75121  1  1  0  0  0
 76 78  1  0  0  0  0
 76122  1  6  0  0  0
 77 80  1  0  0  0  0
 77 85  1  6  0  0  0
 79 82  2  0  0  0  0
 79 86  1  0  0  0  0
 80 81  2  0  0  0  0
 80 88  1  0  0  0  0
 81 83  1  0  0  0  0
 81 92  1  0  0  0  0
 82 83  1  0  0  0  0
 83 89  2  0  0  0  0
 84 93  2  0  0  0  0
 84 94  1  0  0  0  0
 86 91  2  0  0  0  0
 87 90  1  0  0  0  0
 88 95  2  0  0  0  0
 89 91  1  0  0  0  0
 90102  1  1  0  0  0
 92 99  2  0  0  0  0
 93100  1  0  0  0  0
 94101  2  0  0  0  0
 95 99  1  0  0  0  0
 96 98  1  0  0  0  0
 96100  2  0  0  0  0
 96101  1  0  0  0  0
 97 98  1  0  0  0  0
 97103  1  0  0  0  0
102108  1  0  0  0  0
104105  1  0  0  0  0
104106  1  0  0  0  0
105107  1  0  0  0  0
107109  1  0  0  0  0
107110  1  0  0  0  0
M  CHG  3  29   1  30   1  37   1
M  END
> <DATABASE_ID>
DB04431

> <DATABASE_NAME>
drugbank

> <SMILES>
[H]N([H])C(=O)C[C@@H]1N([H])C(=O)[C@H](N([H])C(=O)[C@@H](CC(C)C)[N+]([H])([H])C)[C@H](O)C2=CC(Cl)=C(OC3=C(O[C@@H]4O[C@H](CO)[C@@H](O)[C@H](O)[C@H]4O[C@H]4C[C@@](C)([C@@H](O)[C@H](C)O4)[N+]([H])([H])[H])C4=CC(=C3)[C@@]([H])(N([H])C1=O)C(=O)N([H])[C@]1([H])C3=CC(=C(O)C=C3)C3=C(C=C(O)C=C3O)[C@H](N([H])C(=O)[C@@]([H])(N([H])C1=O)[C@H](O[C@H]1C[C@@](C)([C@@H](O)[C@H](C)O1)[N+]([H])([H])[H])C1=CC(Cl)=C(O4)C=C1)C(O)=O)C=C2

> <INCHI_IDENTIFIER>
InChI=1S/C73H88Cl2N10O26/c1-26(2)14-38(79-7)64(96)84-54-56(91)30-9-12-42(36(74)16-30)106-44-18-32-19-45(60(44)111-71-61(58(93)57(92)46(25-86)108-71)110-49-24-73(6,78)63(95)28(4)105-49)107-43-13-10-31(17-37(43)75)59(109-48-23-72(5,77)62(94)27(3)104-48)55-69(101)83-53(70(102)103)35-20-33(87)21-41(89)50(35)34-15-29(8-11-40(34)88)51(66(98)85-55)82-67(99)52(32)81-65(97)39(22-47(76)90)80-68(54)100/h8-13,15-21,26-28,38-39,46,48-49,51-59,61-63,71,79,86-89,91-95H,14,22-25,77-78H2,1-7H3,(H2,76,90)(H,80,100)(H,81,97)(H,82,99)(H,83,101)(H,84,96)(H,85,98)(H,102,103)/p+3/t27-,28-,38+,39-,46+,48-,49-,51+,52+,53-,54+,55-,56+,57+,58-,59+,61+,62-,63-,71-,72-,73-/m0/s1

> <INCHI_KEY>
XJHXLMVKYIVZTE-LOALFDMRSA-Q

> <FORMULA>
C73H91Cl2N10O26

> <MOLECULAR_WEIGHT>
1595.47

> <EXACT_MASS>
1593.5466578

> <JCHEM_ACCEPTOR_COUNT>
24

> <JCHEM_ATOM_COUNT>
202

> <JCHEM_AVERAGE_NEUTRAL_MICROSPECIES_CHARGE>
1.9502387355040738

> <JCHEM_AVERAGE_POLARIZABILITY>
154.97923873056283

> <JCHEM_BIOAVAILABILITY>
0

> <JCHEM_DONOR_COUNT>
20

> <JCHEM_FORMAL_CHARGE>
3

> <JCHEM_GHOSE_FILTER>
0

> <JCHEM_IUPAC>
(2S,3R,4S,6S)-6-{[(2S,3R,4S,5S,6R)-2-{[(1S,2R,18R,19R,22S,25R,28R,40S)-2-{[(2R,4S,5R,6S)-4-azaniumyl-5-hydroxy-4,6-dimethyloxan-2-yl]oxy}-22-(carbamoylmethyl)-40-carboxy-5,15-dichloro-18,32,35,37-tetrahydroxy-19-[(2R)-4-methyl-2-(methylazaniumyl)pentanamido]-20,23,26,42,44-pentaoxo-7,13-dioxa-21,24,27,41,43-pentaazaoctacyclo[26.14.2.2^{3,6}.2^{14,17}.1^{8,12}.1^{29,33}.0^{10,25}.0^{34,39}]pentaconta-3,5,8,10,12(48),14,16,29(45),30,32,34(39),35,37,46,49-pentadecaen-48-yl]oxy}-4,5-dihydroxy-6-(hydroxymethyl)oxan-3-yl]oxy}-3-hydroxy-2,4-dimethyloxan-4-aminium

> <ALOGPS_LOGP>
1.16

> <JCHEM_LOGP>
-4.642544395944707

> <ALOGPS_LOGS>
-4.78

> <JCHEM_MDDR_LIKE_RULE>
1

> <JCHEM_NEUTRAL_CHARGE>
2

> <JCHEM_NUMBER_OF_RINGS>
11

> <JCHEM_PHYSIOLOGICAL_CHARGE>
2

> <JCHEM_PKA>
9.753043214156186

> <JCHEM_PKA_STRONGEST_ACIDIC>
2.97772997526739

> <JCHEM_PKA_STRONGEST_BASIC>
9.375134893458187

> <JCHEM_POLAR_SURFACE_AREA>
582.7899999999998

> <JCHEM_REFRACTIVITY>
416.2635999999998

> <JCHEM_ROTATABLE_BOND_COUNT>
15

> <JCHEM_RULE_OF_FIVE>
0

> <ALOGPS_SOLUBILITY>
2.82e-02 g/l

> <JCHEM_TRADITIONAL_IUPAC>
2-amino-3H,5H-pyrrolo[3,2-d]pyrimidin-4-one

> <JCHEM_VEBER_RULE>
0

> <DRUGBANK_ID>
DB04431

> <SECONDARY_ACCESSION_NUMBERS>
EXPT03218

> <DRUG_GROUPS>
experimental

> <GENERIC_NAME>
4-epi-vancosaminyl derivative of vancomycin

$$$$
