
  Mrv1909 12152018022D          

 14 13  0  0  0  0            999 V2000
    1.6500   -1.4289    0.0000 C   0  0  0  0  0  0  0  0  0  0  0  0
    1.2375   -0.7145    0.0000 C   0  0  0  0  0  0  0  0  0  0  0  0
    1.9520   -0.3020    0.0000 C   0  0  0  0  0  0  0  0  0  0  0  0
    1.9520    0.5230    0.0000 C   0  0  0  0  0  0  0  0  0  0  0  0
    2.6664    0.9355    0.0000 C   0  0  0  0  0  0  0  0  0  0  0  0
    2.6664    1.7605    0.0000 C   0  0  0  0  0  0  0  0  0  0  0  0
    3.3809    2.1730    0.0000 C   0  0  0  0  0  0  0  0  0  0  0  0
    3.3809    2.9980    0.0000 F   0  0  0  0  0  0  0  0  0  0  0  0
    0.5230   -1.1270    0.0000 C   0  0  0  0  0  0  0  0  0  0  0  0
    0.5230   -1.9520    0.0000 O   0  0  0  0  0  0  0  0  0  0  0  0
   -0.1914   -0.7145    0.0000 O   0  0  0  0  0  0  0  0  0  0  0  0
    0.8250    0.0000    0.0000 C   0  0  0  0  0  0  0  0  0  0  0  0
    1.2375    0.7145    0.0000 O   0  0  0  0  0  0  0  0  0  0  0  0
    0.0000    0.0000    0.0000 O   0  0  0  0  0  0  0  0  0  0  0  0
  1  2  1  0  0  0  0
  2  3  1  0  0  0  0
  3  4  1  0  0  0  0
  4  5  1  0  0  0  0
  5  6  1  0  0  0  0
  6  7  1  0  0  0  0
  7  8  1  0  0  0  0
  2  9  1  0  0  0  0
  9 10  1  0  0  0  0
  9 11  2  0  0  0  0
  2 12  1  0  0  0  0
 12 13  1  0  0  0  0
 12 14  2  0  0  0  0
M  ISO  1   8  18
M  END
> <DATABASE_ID>
DB16029

> <DATABASE_NAME>
drugbank

> <SMILES>
CC(CCCCC[18F])(C(O)=O)C(O)=O

> <INCHI_IDENTIFIER>
InChI=1S/C9H15FO4/c1-9(7(11)12,8(13)14)5-3-2-4-6-10/h2-6H2,1H3,(H,11,12)(H,13,14)/i10-1

> <INCHI_KEY>
BOYGOAXVKOOCKN-LMANFOLPSA-N

> <FORMULA>
C9H15FO4

> <MOLECULAR_WEIGHT>
205.216

> <EXACT_MASS>
205.09797163

> <JCHEM_ACCEPTOR_COUNT>
4

> <JCHEM_ATOM_COUNT>
29

> <JCHEM_AVERAGE_NEUTRAL_MICROSPECIES_CHARGE>
-1.5202098843632101

> <JCHEM_AVERAGE_POLARIZABILITY>
20.01996551635417

> <JCHEM_BIOAVAILABILITY>
1

> <JCHEM_DONOR_COUNT>
2

> <JCHEM_FORMAL_CHARGE>
0

> <JCHEM_GHOSE_FILTER>
1

> <JCHEM_IUPAC>
2-[5-(¹⁸F)fluoropentyl]-2-methylpropanedioic acid

> <ALOGPS_LOGP>
0.46

> <JCHEM_LOGP>
2.0005711293333337

> <ALOGPS_LOGS>
-1.55

> <JCHEM_MDDR_LIKE_RULE>
0

> <JCHEM_NEUTRAL_CHARGE>
-2

> <JCHEM_NUMBER_OF_RINGS>
0

> <JCHEM_PHYSIOLOGICAL_CHARGE>
-2

> <JCHEM_PKA>
7.265852428658758

> <JCHEM_PKA_STRONGEST_ACIDIC>
2.460712384311274

> <JCHEM_POLAR_SURFACE_AREA>
74.6

> <JCHEM_REFRACTIVITY>
46.703900000000004

> <JCHEM_ROTATABLE_BOND_COUNT>
7

> <JCHEM_RULE_OF_FIVE>
1

> <ALOGPS_SOLUBILITY>
5.78e+00 g/l

> <JCHEM_TRADITIONAL_IUPAC>
5-({4-[2-(3-methoxyphenyl)-2-oxoethoxy]phenyl}methyl)-1,3-thiazolidine-2,4-dione

> <JCHEM_VEBER_RULE>
0

> <DRUGBANK_ID>
DB16029

> <DRUG_GROUPS>
investigational

> <GENERIC_NAME>
2-(5-fluoro-pentyl)-2-methyl-malonic-acid

$$$$
