
  Mrv1909 01032022222D          

 53 55  0  0  0  0            999 V2000
   -4.2891    1.6481    0.0000 C   0  0  0  0  0  0  0  0  0  0  0  0
   -4.2891    2.4731    0.0000 C   0  0  0  0  0  0  0  0  0  0  0  0
   -5.7181    1.6481    0.0000 C   0  0  0  0  0  0  0  0  0  0  0  0
   -5.7181    2.4731    0.0000 C   0  0  0  0  0  0  0  0  0  0  0  0
   -6.4325    1.2358    0.0000 C   0  0  0  0  0  0  0  0  0  0  0  0
   -6.4325    2.8856    0.0000 C   0  0  0  0  0  0  0  0  0  0  0  0
   -7.1469    2.4731    0.0000 C   0  0  0  0  0  0  0  0  0  0  0  0
   -7.1469    1.6481    0.0000 C   0  0  0  0  0  0  0  0  0  0  0  0
   -2.8602    1.6481    0.0000 C   0  0  0  0  0  0  0  0  0  0  0  0
   -3.5747    1.2358    0.0000 N   0  0  0  0  0  0  0  0  0  0  0  0
   -3.5747    2.8856    0.0000 C   0  0  0  0  0  0  0  0  0  0  0  0
   -3.5747    3.7107    0.0000 O   0  0  0  0  0  0  0  0  0  0  0  0
   -2.1457    1.2358    0.0000 O   0  0  0  0  0  0  0  0  0  0  0  0
   -2.8602    2.4731    0.0000 N   0  0  0  0  0  0  0  0  0  0  0  0
   -5.0037    1.2358    0.0000 N   0  0  0  0  0  0  0  0  0  0  0  0
   -5.0037    0.4108    0.0000 C   0  0  0  0  0  0  0  0  0  0  0  0
   -4.2891   -0.0017    0.0000 C   0  0  1  0  0  0  0  0  0  0  0  0
   -4.2891   -0.8267    0.0000 C   0  0  1  0  0  0  0  0  0  0  0  0
   -3.5747    0.4108    0.0000 O   0  0  0  0  0  0  0  0  0  0  0  0
   -3.5747   -1.2392    0.0000 C   0  0  1  0  0  0  0  0  0  0  0  0
   -5.0037   -1.2392    0.0000 O   0  0  0  0  0  0  0  0  0  0  0  0
   -3.5747   -2.0642    0.0000 C   0  0  0  0  0  0  0  0  0  0  0  0
   -2.8602   -0.8267    0.0000 O   0  0  0  0  0  0  0  0  0  0  0  0
   -2.8602   -2.4767    0.0000 O   0  0  0  0  0  0  0  0  0  0  0  0
   -7.8615    1.2358    0.0000 O   0  0  0  0  0  0  0  0  0  0  0  0
   -5.0037    2.8856    0.0000 C   0  0  0  0  0  0  0  0  0  0  0  0
   -2.1409   -2.0612    0.0000 P   0  0  0  0  0  0  0  0  0  0  0  0
   -1.4263   -2.4736    0.0000 O   0  0  0  0  0  0  0  0  0  0  0  0
   -0.7119   -2.0610    0.0000 C   0  0  2  0  0  0  0  0  0  0  0  0
    0.0025   -2.4734    0.0000 C   0  0  0  0  0  0  0  0  0  0  0  0
    0.7169   -2.0608    0.0000 N   0  0  0  0  0  0  0  0  0  0  0  0
    0.0026   -3.2984    0.0000 O   0  0  0  0  0  0  0  0  0  0  0  0
   -0.7120   -1.2360    0.0000 C   0  0  0  0  0  0  0  0  0  0  0  0
   -2.1409   -1.2362    0.0000 O   0  0  0  0  0  0  0  0  0  0  0  0
   -2.3496   -2.8564    0.0000 O   0  0  0  0  0  0  0  0  0  0  0  0
    2.1459   -2.0608    0.0000 C   0  0  0  0  0  0  0  0  0  0  0  0
    1.4314   -3.2983    0.0000 C   0  0  0  0  0  0  0  0  0  0  0  0
    2.8604   -2.4733    0.0000 C   0  0  0  0  0  0  0  0  0  0  0  0
    0.7169   -3.7107    0.0000 O   0  0  0  0  0  0  0  0  0  0  0  0
    2.1459   -3.7107    0.0000 O   0  0  0  0  0  0  0  0  0  0  0  0
    3.5748   -2.0608    0.0000 C   0  0  0  0  0  0  0  0  0  0  0  0
    4.2892   -2.4733    0.0000 N   0  0  0  0  0  0  0  0  0  0  0  0
    3.5748   -1.2358    0.0000 O   0  0  0  0  0  0  0  0  0  0  0  0
    1.4314   -2.4733    0.0000 C   0  0  1  0  0  0  0  0  0  0  0  0
    5.7182   -2.4733    0.0000 C   0  0  0  0  0  0  0  0  0  0  0  0
    5.0037   -1.2358    0.0000 C   0  0  0  0  0  0  0  0  0  0  0  0
    6.4327   -2.0608    0.0000 C   0  0  0  0  0  0  0  0  0  0  0  0
    4.2892   -0.8233    0.0000 O   0  0  0  0  0  0  0  0  0  0  0  0
    5.7182   -0.8233    0.0000 O   0  0  0  0  0  0  0  0  0  0  0  0
    7.1471   -2.4733    0.0000 C   0  0  0  0  0  0  0  0  0  0  0  0
    7.8615   -2.0608    0.0000 O   0  0  0  0  0  0  0  0  0  0  0  0
    7.1471   -3.2983    0.0000 O   0  0  0  0  0  0  0  0  0  0  0  0
    5.0037   -2.0608    0.0000 C   0  0  1  0  0  0  0  0  0  0  0  0
 15  3  1  0  0  0  0
 15  1  1  0  0  0  0
  4 26  1  0  0  0  0
 26  2  2  0  0  0  0
 10  1  2  0  0  0  0
  2  1  1  0  0  0  0
  2 11  1  0  0  0  0
 10  9  1  0  0  0  0
 11 14  1  0  0  0  0
 14  9  1  0  0  0  0
  5  3  2  0  0  0  0
  3  4  1  0  0  0  0
  6  4  2  0  0  0  0
  5  8  1  0  0  0  0
  8  7  2  0  0  0  0
  7  6  1  0  0  0  0
  9 13  2  0  0  0  0
 11 12  2  0  0  0  0
 15 16  1  0  0  0  0
 16 17  1  0  0  0  0
 17 18  1  0  0  0  0
 17 19  1  6  0  0  0
 18 20  1  0  0  0  0
 18 21  1  1  0  0  0
 20 22  1  0  0  0  0
 20 23  1  6  0  0  0
 22 24  1  0  0  0  0
  8 25  1  0  0  0  0
 24 27  1  0  0  0  0
 27 28  1  0  0  0  0
 28 29  1  0  0  0  0
 29 30  1  0  0  0  0
 30 31  1  0  0  0  0
 30 32  2  0  0  0  0
 29 33  1  1  0  0  0
 27 34  2  0  0  0  0
 27 35  1  0  0  0  0
 44 31  1  0  0  0  0
 44 36  1  0  0  0  0
 44 37  1  1  0  0  0
 36 38  1  0  0  0  0
 37 39  2  0  0  0  0
 37 40  1  0  0  0  0
 38 41  1  0  0  0  0
 41 42  1  0  0  0  0
 41 43  2  0  0  0  0
 53 42  1  0  0  0  0
 53 45  1  0  0  0  0
 53 46  1  6  0  0  0
 45 47  1  0  0  0  0
 46 48  2  0  0  0  0
 46 49  1  0  0  0  0
 47 50  1  0  0  0  0
 50 51  1  0  0  0  0
 50 52  2  0  0  0  0
M  END
> <DATABASE_ID>
DB03913

> <DATABASE_NAME>
drugbank

> <SMILES>
C[C@H](OP(O)(=O)OC[C@@H](O)[C@@H](O)[C@@H](O)CN1C2=CC(O)=CC=C2C=C2C(=O)NC(=O)N=C12)C(=O)N[C@@H](CCC(=O)N[C@@H](CCC(O)=O)C(O)=O)C(O)=O

> <INCHI_IDENTIFIER>
InChI=1S/C29H36N5O18P/c1-12(25(42)31-17(28(46)47)4-6-21(38)30-16(27(44)45)5-7-22(39)40)52-53(49,50)51-11-20(37)23(41)19(36)10-34-18-9-14(35)3-2-13(18)8-15-24(34)32-29(48)33-26(15)43/h2-3,8-9,12,16-17,19-20,23,35-37,41H,4-7,10-11H2,1H3,(H,30,38)(H,31,42)(H,39,40)(H,44,45)(H,46,47)(H,49,50)(H,33,43,48)/t12-,16-,17-,19-,20+,23-/m0/s1

> <INCHI_KEY>
GEHSZWRGPHDXJO-NALJQGANSA-N

> <FORMULA>
C29H36N5O18P

> <MOLECULAR_WEIGHT>
773.5926

> <EXACT_MASS>
773.179295885

> <JCHEM_ACCEPTOR_COUNT>
18

> <JCHEM_ATOM_COUNT>
89

> <JCHEM_AVERAGE_NEUTRAL_MICROSPECIES_CHARGE>
-4.835699833131929

> <JCHEM_AVERAGE_POLARIZABILITY>
70.90403428267317

> <JCHEM_BIOAVAILABILITY>
0

> <JCHEM_DONOR_COUNT>
11

> <JCHEM_FORMAL_CHARGE>
0

> <JCHEM_GHOSE_FILTER>
0

> <JCHEM_IUPAC>
(2S)-2-[(4S)-4-carboxy-4-[(2S)-2-{[hydroxy({[(2R,3S,4S)-2,3,4-trihydroxy-5-{8-hydroxy-2,4-dioxo-2H,3H,4H,10H-pyrimido[4,5-b]quinolin-10-yl}pentyl]oxy})phosphoryl]oxy}propanamido]butanamido]pentanedioic acid

> <JCHEM_LOGP>
-3.7293095076666667

> <JCHEM_MDDR_LIKE_RULE>
1

> <JCHEM_NEUTRAL_CHARGE>
-5

> <JCHEM_NUMBER_OF_RINGS>
3

> <JCHEM_PHYSIOLOGICAL_CHARGE>
-5

> <JCHEM_PKA>
3.110308356023018

> <JCHEM_PKA_STRONGEST_ACIDIC>
1.7776866106615556

> <JCHEM_PKA_STRONGEST_BASIC>
-5.978147192646389

> <JCHEM_POLAR_SURFACE_AREA>
368.54999999999995

> <JCHEM_REFRACTIVITY>
170.88020000000012

> <JCHEM_ROTATABLE_BOND_COUNT>
20

> <JCHEM_RULE_OF_FIVE>
0

> <JCHEM_TRADITIONAL_IUPAC>
(2S)-2-({4-[(2E)-N-({2-amino-4-oxo-1H-pyrido[3,2-d]pyrimidin-6-yl}methyl)-3-{5-carbamoyl-3-[(2R,3R,4S,5R)-3,4-dihydroxy-5-[(phosphonooxy)methyl]oxolan-2-yl]imidazol-4-yl}prop-2-enamido]phenyl}formamido)pentanedioic acid

> <JCHEM_VEBER_RULE>
0

> <DRUGBANK_ID>
DB03913

> <SECONDARY_ACCESSION_NUMBERS>
EXPT01381

> <DRUG_GROUPS>
experimental

> <GENERIC_NAME>
Coenzyme F420

> <SYNONYMS>
Coenzyme F(420); coenzyme γ-F420-2; F420; Factor F420; N-{N-[O-(7,8-didemethyl-8-hydroxy-5-deazariboflavin phospho)-(S)-lactyl]-γ-L-glutamyl}-L-glutamate

$$$$
