
  Mrv1652306231722382D          

 13 14  0  0  0  0            999 V2000
    0.0000    0.8250    0.0000 C   0  0  0  0  0  0  0  0  0  0  0  0
    0.0000   -0.0000    0.0000 C   0  0  0  0  0  0  0  0  0  0  0  0
   -0.7145   -0.4125    0.0000 C   0  0  0  0  0  0  0  0  0  0  0  0
   -0.7145   -1.2375    0.0000 C   0  0  0  0  0  0  0  0  0  0  0  0
    0.0000   -1.6500    0.0000 C   0  0  0  0  0  0  0  0  0  0  0  0
    0.7145   -1.2375    0.0000 C   0  0  0  0  0  0  0  0  0  0  0  0
    0.7145   -0.4125    0.0000 C   0  0  0  0  0  0  0  0  0  0  0  0
    1.4289   -0.0000    0.0000 C   0  0  0  0  0  0  0  0  0  0  0  0
    2.1434   -0.4125    0.0000 C   0  0  0  0  0  0  0  0  0  0  0  0
    2.1434   -1.2375    0.0000 C   0  0  0  0  0  0  0  0  0  0  0  0
    1.4289   -1.6500    0.0000 N   0  0  0  0  0  0  0  0  0  0  0  0
    0.0000   -2.4750    0.0000 O   0  0  0  0  0  0  0  0  0  0  0  0
   -1.4289   -1.6500    0.0000 Br  0  0  0  0  0  0  0  0  0  0  0  0
  1  2  1  0  0  0  0
  2  3  1  0  0  0  0
  3  4  2  0  0  0  0
  4  5  1  0  0  0  0
  5  6  2  0  0  0  0
  6  7  1  0  0  0  0
  2  7  2  0  0  0  0
  7  8  1  0  0  0  0
  8  9  2  0  0  0  0
  9 10  1  0  0  0  0
 10 11  2  0  0  0  0
  6 11  1  0  0  0  0
  5 12  1  0  0  0  0
  4 13  1  0  0  0  0
M  END
> <DATABASE_ID>
DB13222

> <DATABASE_NAME>
drugbank

> <SMILES>
CC1=C2C=CC=NC2=C(O)C(Br)=C1

> <INCHI_IDENTIFIER>
InChI=1S/C10H8BrNO/c1-6-5-8(11)10(13)9-7(6)3-2-4-12-9/h2-5,13H,1H3

> <INCHI_KEY>
JMOVFFLYGIQXMM-UHFFFAOYSA-N

> <FORMULA>
C10H8BrNO

> <MOLECULAR_WEIGHT>
238.084

> <EXACT_MASS>
236.978927

> <JCHEM_ACCEPTOR_COUNT>
2

> <JCHEM_ATOM_COUNT>
21

> <JCHEM_AVERAGE_POLARIZABILITY>
20.403465257800775

> <JCHEM_BIOAVAILABILITY>
1

> <JCHEM_DONOR_COUNT>
1

> <JCHEM_FORMAL_CHARGE>
0

> <JCHEM_GHOSE_FILTER>
1

> <JCHEM_IUPAC>
7-bromo-5-methylquinolin-8-ol

> <ALOGPS_LOGP>
3.11

> <JCHEM_LOGP>
3.1095091643333332

> <ALOGPS_LOGS>
-2.90

> <JCHEM_MDDR_LIKE_RULE>
0

> <JCHEM_NUMBER_OF_RINGS>
2

> <JCHEM_PHYSIOLOGICAL_CHARGE>
0

> <JCHEM_PKA_STRONGEST_ACIDIC>
7.842888621808817

> <JCHEM_PKA_STRONGEST_BASIC>
4.45978976253757

> <JCHEM_POLAR_SURFACE_AREA>
33.120000000000005

> <JCHEM_REFRACTIVITY>
54.6242

> <JCHEM_ROTATABLE_BOND_COUNT>
0

> <JCHEM_RULE_OF_FIVE>
1

> <ALOGPS_SOLUBILITY>
2.99e-01 g/l

> <JCHEM_TRADITIONAL_IUPAC>
tilbroquinol

> <JCHEM_VEBER_RULE>
1

> <DRUGBANK_ID>
DB13222

> <DRUG_GROUPS>
approved

> <GENERIC_NAME>
Tilbroquinol

> <SYNONYMS>
Tilbroquinol

$$$$
