
  Mrv1909 12152020022D          

  5  4  0  0  0  0            999 V2000
    0.8250   -0.8250    0.0000 F   0  0  0  0  0  0  0  0  0  0  0  0
    0.8250    0.0000    0.0000 B   0  5  0  0  0  0  0  0  0  0  0  0
    0.8250    0.8250    0.0000 F   0  0  0  0  0  0  0  0  0  0  0  0
    1.6500   -0.0000    0.0000 F   0  0  0  0  0  0  0  0  0  0  0  0
    0.0000    0.0000    0.0000 F   0  0  0  0  0  0  0  0  0  0  0  0
  1  2  1  0  0  0  0
  2  3  1  0  0  0  0
  2  4  1  0  0  0  0
  2  5  1  0  0  0  0
M  CHG  1   2  -1
M  END
> <DATABASE_ID>
DB16340

> <DATABASE_NAME>
drugbank

> <SMILES>
F[B-](F)(F)F

> <INCHI_IDENTIFIER>
InChI=1S/BF4/c2-1(3,4)5/q-1

> <INCHI_KEY>
ODGCEQLVLXJUCC-UHFFFAOYSA-N

> <FORMULA>
BF4

> <MOLECULAR_WEIGHT>
86.8

> <EXACT_MASS>
87.003466

> <JCHEM_ACCEPTOR_COUNT>
0

> <JCHEM_ATOM_COUNT>
5

> <JCHEM_AVERAGE_NEUTRAL_MICROSPECIES_CHARGE>
0.0

> <JCHEM_AVERAGE_POLARIZABILITY>
3.5498097801759103

> <JCHEM_BIOAVAILABILITY>
1

> <JCHEM_DONOR_COUNT>
0

> <JCHEM_FORMAL_CHARGE>
-1

> <JCHEM_GHOSE_FILTER>
0

> <JCHEM_IUPAC>
tetrafluoroboranuide

> <JCHEM_LOGP>
-1.13

> <JCHEM_MDDR_LIKE_RULE>
0

> <JCHEM_NEUTRAL_CHARGE>
-1

> <JCHEM_NUMBER_OF_RINGS>
0

> <JCHEM_PHYSIOLOGICAL_CHARGE>
-1

> <JCHEM_POLAR_SURFACE_AREA>
0.0

> <JCHEM_REFRACTIVITY>
6.0052

> <JCHEM_ROTATABLE_BOND_COUNT>
0

> <JCHEM_RULE_OF_FIVE>
1

> <JCHEM_TRADITIONAL_IUPAC>
8-[(3R)-3-[1-({1-[(E)-{[(7S,9E,11S,12S,13S,14S,15R,16R,17S,18S,19E)-13-(acetyloxy)-2,15,17,27,29-pentahydroxy-11-methoxy-3,7,12,14,16,18,22-heptamethyl-6,23-dioxo-8,30-dioxa-24-azatetracyclo[23.3.1.1^{4,7}.0^{5,28}]triaconta-1(28),2,4,9,19,21,25(29),26-octaen-26-yl]methylidene}amino]piperidin-4-yl}(methyl)amino)cyclopropyl]pyrrolidin-1-yl]-1-cyclopropyl-7-fluoro-9-methyl-4-oxoquinolizine-3-carboxylic acid

> <JCHEM_VEBER_RULE>
1

> <DRUGBANK_ID>
DB16340

> <DRUG_GROUPS>
investigational

> <GENERIC_NAME>
Tetrafluoroborate

> <SYNONYMS>
Borate(1-), tetrafluoro-; Fluoroborate; Tetrafluoroborate; Tetrafluoroborate (bf41-); Tetrafluoroborate anion; Tetrafluoroborate ion; Tetrafluoroborate(1-)

$$$$
