
  Mrv1718001081909102D          

 23 26  0  0  0  0            999 V2000
   -0.3611   -0.3548    0.0000 C   0  0  0  0  0  0  0  0  0  0  0  0
   -1.0876    0.0585    0.0000 C   0  0  0  0  0  0  0  0  0  0  0  0
   -1.8016   -0.3548    0.0000 C   0  0  0  0  0  0  0  0  0  0  0  0
    0.0522    0.3674    0.0000 C   0  0  0  0  0  0  0  0  0  0  0  0
   -2.5156    0.0585    0.0000 C   0  0  0  0  0  0  0  0  0  0  0  0
    1.2797    1.0813    0.0000 N   0  0  0  0  0  0  0  0  0  0  0  0
   -2.5156    0.8809    0.0000 C   0  0  0  0  0  0  0  0  0  0  0  0
   -1.0876    0.8726    0.0000 C   0  0  0  0  0  0  0  0  0  0  0  0
   -1.8016    1.2943    0.0000 C   0  0  0  0  0  0  0  0  0  0  0  0
   -2.1398    0.4843    0.0000 C   0  0  0  0  0  0  0  0  0  0  0  0
   -0.7745   -1.0855    0.0000 C   0  0  0  0  0  0  0  0  0  0  0  0
    0.8663    0.3674    0.0000 C   0  0  0  0  0  0  0  0  0  0  0  0
    0.3528   -0.7682    0.0000 O   0  0  0  0  0  0  0  0  0  0  0  0
    0.8663    1.7995    0.0000 C   0  0  0  0  0  0  0  0  0  0  0  0
    2.1022    1.0688    0.0000 C   0  0  0  0  0  0  0  0  0  0  0  0
   -0.3737   -1.7995    0.0000 C   0  0  0  0  0  0  0  0  0  0  0  0
   -1.5928   -1.0730    0.0000 C   0  0  0  0  0  0  0  0  0  0  0  0
    2.5156    1.7827    0.0000 C   0  0  0  0  0  0  0  0  0  0  0  0
    1.2797    2.5093    0.0000 C   0  0  0  0  0  0  0  0  0  0  0  0
   -2.0270   -1.7995    0.0000 C   0  0  0  0  0  0  0  0  0  0  0  0
   -0.7745   -2.5093    0.0000 C   0  0  0  0  0  0  0  0  0  0  0  0
   -1.6012   -2.5093    0.0000 C   0  0  0  0  0  0  0  0  0  0  0  0
    2.1022    2.5093    0.0000 C   0  0  0  0  0  0  0  0  0  0  0  0
  2  1  1  0  0  0  0
  3  2  1  0  0  0  0
  4  1  1  0  0  0  0
  5  3  1  0  0  0  0
  6 12  1  0  0  0  0
  7  9  1  0  0  0  0
  8  2  1  0  0  0  0
  9  8  1  0  0  0  0
 10  3  1  0  0  0  0
 11  1  1  0  0  0  0
 12  4  1  0  0  0  0
 13  1  1  0  0  0  0
 14  6  1  0  0  0  0
 15  6  1  0  0  0  0
 16 11  2  0  0  0  0
 17 11  1  0  0  0  0
 18 15  1  0  0  0  0
 19 14  1  0  0  0  0
 20 17  2  0  0  0  0
 21 16  1  0  0  0  0
 22 20  1  0  0  0  0
 23 18  1  0  0  0  0
  9 10  1  0  0  0  0
 21 22  2  0  0  0  0
  5  7  2  0  0  0  0
 19 23  1  0  0  0  0
M  END
> <DATABASE_ID>
DB00810

> <DATABASE_NAME>
drugbank

> <SMILES>
OC(CCN1CCCCC1)(C1CC2CC1C=C2)C1=CC=CC=C1

> <INCHI_IDENTIFIER>
InChI=1S/C21H29NO/c23-21(19-7-3-1-4-8-19,11-14-22-12-5-2-6-13-22)20-16-17-9-10-18(20)15-17/h1,3-4,7-10,17-18,20,23H,2,5-6,11-16H2

> <INCHI_KEY>
YSXKPIUOCJLQIE-UHFFFAOYSA-N

> <FORMULA>
C21H29NO

> <MOLECULAR_WEIGHT>
311.4611

> <EXACT_MASS>
311.224914555

> <JCHEM_ACCEPTOR_COUNT>
2

> <JCHEM_ATOM_COUNT>
52

> <JCHEM_AVERAGE_POLARIZABILITY>
36.87896131605011

> <JCHEM_BIOAVAILABILITY>
1

> <JCHEM_DONOR_COUNT>
1

> <JCHEM_FORMAL_CHARGE>
0

> <JCHEM_GHOSE_FILTER>
1

> <JCHEM_IUPAC>
1-{bicyclo[2.2.1]hept-5-en-2-yl}-1-phenyl-3-(piperidin-1-yl)propan-1-ol

> <ALOGPS_LOGP>
4.28

> <JCHEM_LOGP>
3.5365074619999994

> <ALOGPS_LOGS>
-4.86

> <JCHEM_MDDR_LIKE_RULE>
0

> <JCHEM_NUMBER_OF_RINGS>
4

> <JCHEM_PHYSIOLOGICAL_CHARGE>
1

> <JCHEM_PKA_STRONGEST_ACIDIC>
13.820096784776485

> <JCHEM_PKA_STRONGEST_BASIC>
9.297995719799305

> <JCHEM_POLAR_SURFACE_AREA>
23.47

> <JCHEM_REFRACTIVITY>
97.0158

> <JCHEM_ROTATABLE_BOND_COUNT>
5

> <JCHEM_RULE_OF_FIVE>
1

> <ALOGPS_SOLUBILITY>
4.26e-03 g/l

> <JCHEM_TRADITIONAL_IUPAC>
biperiden

> <JCHEM_VEBER_RULE>
1

> <DRUGBANK_ID>
DB00810

> <SECONDARY_ACCESSION_NUMBERS>
APRD00725

> <DRUG_GROUPS>
approved; investigational

> <GENERIC_NAME>
Biperiden

> <SYNONYMS>
1-Bicyclo[2.2.1]hept-5-en-2-yl-1-phenyl-3-piperidin-1-yl-propan-1-ol; alpha-5-norbornen-2-yl-alpha-phenyl-1-piperidinepropanol; alpha-bicyclo[2.2.1]hept-5-en-2-yl-alpha-phenyl-1-piperidinepropanol; Biperiden; Biperidene; Biperideno; Biperidenum

> <PRODUCTS>
Akineton; Akineton Tab 2mg

> <INTERNATIONAL_BRANDS>
Bilino; Ipsatol

> <SALTS>
Biperiden hydrochloride; Biperiden lactate

$$$$
