
  Mrv1652310201622502D          

 31 34  0  0  1  0            999 V2000
    8.5050    0.8594    0.0000 C   0  0  0  0  0  0  0  0  0  0  0  0
    8.9899    1.5269    0.0000 C   0  0  1  0  0  0  0  0  0  0  0  0
    9.8104    1.4406    0.0000 C   0  0  0  0  0  0  0  0  0  0  0  0
   10.6309    1.3544    0.0000 F   0  0  0  0  0  0  0  0  0  0  0  0
    9.8967    2.2611    0.0000 F   0  0  0  0  0  0  0  0  0  0  0  0
    9.7242    0.6201    0.0000 F   0  0  0  0  0  0  0  0  0  0  0  0
    8.6544    2.2805    0.0000 O   0  0  0  0  0  0  0  0  0  0  0  0
    7.8339    2.3668    0.0000 C   0  0  0  0  0  0  0  0  0  0  0  0
    7.3490    1.6993    0.0000 C   0  0  0  0  0  0  0  0  0  0  0  0
    6.5285    1.7856    0.0000 C   0  0  0  0  0  0  0  0  0  0  0  0
    6.1929    2.5392    0.0000 C   0  0  0  0  0  0  0  0  0  0  0  0
    6.6779    3.2067    0.0000 C   0  0  0  0  0  0  0  0  0  0  0  0
    7.4983    3.1204    0.0000 C   0  0  0  0  0  0  0  0  0  0  0  0
    7.9833    3.7879    0.0000 C   0  0  0  0  0  0  0  0  0  0  0  0
    8.4682    4.4553    0.0000 F   0  0  0  0  0  0  0  0  0  0  0  0
    8.6507    3.3030    0.0000 F   0  0  0  0  0  0  0  0  0  0  0  0
    7.3158    4.2728    0.0000 F   0  0  0  0  0  0  0  0  0  0  0  0
    5.3725    2.6255    0.0000 C   0  0  0  0  0  0  0  0  0  0  0  0
    4.8204    2.0124    0.0000 N   0  0  0  0  0  0  0  0  0  0  0  0
    4.0668    2.3479    0.0000 C   0  0  0  0  0  0  0  0  0  0  0  0
    4.1530    3.1684    0.0000 N   0  0  0  0  0  0  0  0  0  0  0  0
    4.9600    3.3400    0.0000 O   0  0  0  0  0  0  0  0  0  0  0  0
    3.3523    1.9354    0.0000 C   0  0  0  0  0  0  0  0  0  0  0  0
    3.3523    1.1104    0.0000 C   0  0  0  0  0  0  0  0  0  0  0  0
    2.6378    0.6979    0.0000 C   0  0  0  0  0  0  0  0  0  0  0  0
    1.9233    1.1104    0.0000 C   0  0  0  0  0  0  0  0  0  0  0  0
    1.9233    1.9354    0.0000 C   0  0  0  0  0  0  0  0  0  0  0  0
    2.6378    2.3479    0.0000 C   0  0  0  0  0  0  0  0  0  0  0  0
    1.1387    2.1904    0.0000 N   0  0  0  0  0  0  0  0  0  0  0  0
    0.6538    1.5229    0.0000 C   0  0  0  0  0  0  0  0  0  0  0  0
    1.1387    0.8555    0.0000 N   0  0  0  0  0  0  0  0  0  0  0  0
  2  1  1  6  0  0  0
  2  3  1  0  0  0  0
  3  4  1  0  0  0  0
  3  5  1  0  0  0  0
  3  6  1  0  0  0  0
  2  7  1  0  0  0  0
  7  8  1  0  0  0  0
  8  9  2  0  0  0  0
  9 10  1  0  0  0  0
 10 11  2  0  0  0  0
 11 12  1  0  0  0  0
 12 13  2  0  0  0  0
  8 13  1  0  0  0  0
 13 14  1  0  0  0  0
 14 15  1  0  0  0  0
 14 16  1  0  0  0  0
 14 17  1  0  0  0  0
 11 18  1  0  0  0  0
 18 19  2  0  0  0  0
 19 20  1  0  0  0  0
 20 21  2  0  0  0  0
 21 22  1  0  0  0  0
 18 22  1  0  0  0  0
 20 23  1  0  0  0  0
 23 24  2  0  0  0  0
 24 25  1  0  0  0  0
 25 26  2  0  0  0  0
 26 27  1  0  0  0  0
 27 28  2  0  0  0  0
 23 28  1  0  0  0  0
 27 29  1  0  0  0  0
 29 30  2  0  0  0  0
 30 31  1  0  0  0  0
 26 31  1  0  0  0  0
M  END
> <DATABASE_ID>
DB11819

> <DATABASE_NAME>
drugbank

> <SMILES>
C[C@H](OC1=CC=C(C=C1C(F)(F)F)C1=NC(=NO1)C1=CC=C2NC=NC2=C1)C(F)(F)F

> <INCHI_IDENTIFIER>
InChI=1S/C19H12F6N4O2/c1-9(18(20,21)22)30-15-5-3-11(6-12(15)19(23,24)25)17-28-16(29-31-17)10-2-4-13-14(7-10)27-8-26-13/h2-9H,1H3,(H,26,27)/t9-/m0/s1

> <INCHI_KEY>
NJNXCJPSMWKXHO-VIFPVBQESA-N

> <FORMULA>
C19H12F6N4O2

> <MOLECULAR_WEIGHT>
442.321

> <EXACT_MASS>
442.08644462

> <JCHEM_ACCEPTOR_COUNT>
4

> <JCHEM_ATOM_COUNT>
43

> <JCHEM_AVERAGE_POLARIZABILITY>
37.8214568301957

> <JCHEM_BIOAVAILABILITY>
1

> <JCHEM_DONOR_COUNT>
1

> <JCHEM_FORMAL_CHARGE>
0

> <JCHEM_GHOSE_FILTER>
1

> <JCHEM_IUPAC>
5-{5-[3-(trifluoromethyl)-4-{[(2S)-1,1,1-trifluoropropan-2-yl]oxy}phenyl]-1,2,4-oxadiazol-3-yl}-1H-1,3-benzodiazole

> <ALOGPS_LOGP>
4.63

> <JCHEM_LOGP>
5.536884521666666

> <ALOGPS_LOGS>
-4.12

> <JCHEM_MDDR_LIKE_RULE>
1

> <JCHEM_NUMBER_OF_RINGS>
4

> <JCHEM_PHYSIOLOGICAL_CHARGE>
0

> <JCHEM_PKA_STRONGEST_ACIDIC>
11.509394340589882

> <JCHEM_PKA_STRONGEST_BASIC>
5.481728873683835

> <JCHEM_POLAR_SURFACE_AREA>
76.83000000000001

> <JCHEM_REFRACTIVITY>
118.40310000000001

> <JCHEM_ROTATABLE_BOND_COUNT>
6

> <JCHEM_RULE_OF_FIVE>
0

> <ALOGPS_SOLUBILITY>
3.35e-02 g/l

> <JCHEM_TRADITIONAL_IUPAC>
5-{5-[3-(trifluoromethyl)-4-{[(2S)-1,1,1-trifluoropropan-2-yl]oxy}phenyl]-1,2,4-oxadiazol-3-yl}-1H-1,3-benzodiazole

> <JCHEM_VEBER_RULE>
0

> <DRUGBANK_ID>
DB11819

> <DRUG_GROUPS>
investigational

> <GENERIC_NAME>
ASP-4058

> <SALTS>
Asp 4058 Hydrochloride

$$$$
