
  Mrv1718010311712092D          

 18 18  0  0  0  0            999 V2000
    1.4289    0.2062    0.0000 O   0  0  0  0  0  0  0  0  0  0  0  0
    0.7145   -1.0312    0.0000 O   0  0  0  0  0  0  0  0  0  0  0  0
    1.4289    1.0312    0.0000 O   0  0  0  0  0  0  0  0  0  0  0  0
    1.4289    2.6813    0.0000 O   0  0  0  0  0  0  0  0  0  0  0  0
    0.0000    1.0312    0.0000 N   0  0  0  0  0  0  0  0  0  0  0  0
    0.7145    2.2687    0.0000 N   0  0  0  0  0  0  0  0  0  0  0  0
    0.0000    0.2062    0.0000 C   0  0  2  0  0  0  0  0  0  0  0  0
   -0.7145   -0.2062    0.0000 C   0  0  0  0  0  0  0  0  0  0  0  0
   -0.7145   -1.0312    0.0000 C   0  0  0  0  0  0  0  0  0  0  0  0
    0.7145   -0.2062    0.0000 C   0  0  0  0  0  0  0  0  0  0  0  0
    0.0000   -1.4437    0.0000 C   0  0  0  0  0  0  0  0  0  0  0  0
   -1.4289   -1.4437    0.0000 C   0  0  0  0  0  0  0  0  0  0  0  0
    0.0000   -2.2687    0.0000 C   0  0  0  0  0  0  0  0  0  0  0  0
   -1.4289   -2.2687    0.0000 C   0  0  0  0  0  0  0  0  0  0  0  0
    0.7145    1.4437    0.0000 C   0  0  0  0  0  0  0  0  0  0  0  0
   -0.7145   -2.6813    0.0000 C   0  0  0  0  0  0  0  0  0  0  0  0
   -0.4429    1.2870    0.0000 H   0  0  0  0  0  0  0  0  0  0  0  0
    0.2714    2.5245    0.0000 H   0  0  0  0  0  0  0  0  0  0  0  0
  1 10  1  0  0  0  0
  2 10  2  0  0  0  0
  3 15  2  0  0  0  0
  4  6  1  0  0  0  0
  7  5  1  1  0  0  0
  5 15  1  0  0  0  0
  5 17  1  0  0  0  0
  6 15  1  0  0  0  0
  6 18  1  0  0  0  0
  7  8  1  0  0  0  0
  7 10  1  0  0  0  0
  8  9  1  0  0  0  0
  9 11  2  0  0  0  0
  9 12  1  0  0  0  0
 11 13  1  0  0  0  0
 12 14  2  0  0  0  0
 13 16  2  0  0  0  0
 14 16  1  0  0  0  0
M  END
> <DATABASE_ID>
DB04316

> <DATABASE_NAME>
drugbank

> <SMILES>
[H]N(O)C(=O)N([H])[C@H](CC1=CC=CC=C1)C(O)=O

> <INCHI_IDENTIFIER>
InChI=1S/C10H12N2O4/c13-9(14)8(11-10(15)12-16)6-7-4-2-1-3-5-7/h1-5,8,16H,6H2,(H,13,14)(H2,11,12,15)/t8-/m1/s1

> <INCHI_KEY>
IOFPEOPOAMOMBE-MRVPVSSYSA-N

> <FORMULA>
C10H12N2O4

> <MOLECULAR_WEIGHT>
224.2133

> <EXACT_MASS>
224.079706882

> <JCHEM_ACCEPTOR_COUNT>
6

> <JCHEM_ATOM_COUNT>
28

> <JCHEM_AVERAGE_POLARIZABILITY>
21.276245860558227

> <JCHEM_BIOAVAILABILITY>
1

> <JCHEM_DONOR_COUNT>
4

> <JCHEM_FORMAL_CHARGE>
0

> <JCHEM_GHOSE_FILTER>
1

> <JCHEM_IUPAC>
(2R)-2-[N-hydroxy-(C-hydroxycarbonimidoyl)amino]-3-phenylpropanoic acid

> <ALOGPS_LOGP>
0.08

> <JCHEM_LOGP>
0.8950756680357245

> <ALOGPS_LOGS>
-2.23

> <JCHEM_MDDR_LIKE_RULE>
0

> <JCHEM_NUMBER_OF_RINGS>
1

> <JCHEM_PHYSIOLOGICAL_CHARGE>
-1

> <JCHEM_PKA>
5.317484147499049

> <JCHEM_PKA_STRONGEST_ACIDIC>
4.026406722045276

> <JCHEM_PKA_STRONGEST_BASIC>
3.0645743436654085

> <JCHEM_POLAR_SURFACE_AREA>
102.15

> <JCHEM_REFRACTIVITY>
66.138

> <JCHEM_ROTATABLE_BOND_COUNT>
4

> <JCHEM_RULE_OF_FIVE>
1

> <ALOGPS_SOLUBILITY>
1.32e+00 g/l

> <JCHEM_TRADITIONAL_IUPAC>
(2R)-2-[N-hydroxy-(C-hydroxycarbonimidoyl)amino]-3-phenylpropanoic acid

> <JCHEM_VEBER_RULE>
0

> <DRUGBANK_ID>
DB04316

> <SECONDARY_ACCESSION_NUMBERS>
EXPT01884

> <DRUG_GROUPS>
experimental

> <GENERIC_NAME>
D-[(N-Hydroxyamino)Carbonyl]Phenylalanine

$$$$
