
  Mrv1652306031606522D          

 22 23  0  0  0  0            999 V2000
    5.7158   -0.8250    0.0000 C   0  0  0  0  0  0  0  0  0  0  0  0
    5.4138    0.3020    0.0000 C   0  0  0  0  0  0  0  0  0  0  0  0
    4.5888   -1.1270    0.0000 C   0  0  0  0  0  0  0  0  0  0  0  0
    0.0000    1.6500    0.0000 C   0  0  0  0  0  0  0  0  0  0  0  0
    1.1270    1.9520    0.0000 C   0  0  0  0  0  0  0  0  0  0  0  0
    0.3020    0.5230    0.0000 C   0  0  0  0  0  0  0  0  0  0  0  0
    2.1434   -0.4125    0.0000 C   0  0  0  0  0  0  0  0  0  0  0  0
    4.2868    0.8250    0.0000 C   0  0  0  0  0  0  0  0  0  0  0  0
    3.5724    1.2375    0.0000 C   0  0  0  0  0  0  0  0  0  0  0  0
    1.4289    0.0000    0.0000 C   0  0  0  0  0  0  0  0  0  0  0  0
    3.5724   -0.4125    0.0000 C   0  0  0  0  0  0  0  0  0  0  0  0
    2.8579    0.0000    0.0000 C   0  0  0  0  0  0  0  0  0  0  0  0
    4.2868    0.0000    0.0000 C   0  0  0  0  0  0  0  0  0  0  0  0
    2.8579    0.8250    0.0000 C   0  0  0  0  0  0  0  0  0  0  0  0
    1.4289    0.8250    0.0000 C   0  0  0  0  0  0  0  0  0  0  0  0
    2.1434    1.2375    0.0000 C   0  0  0  0  0  0  0  0  0  0  0  0
    5.0013   -0.4125    0.0000 C   0  0  0  0  0  0  0  0  0  0  0  0
    0.7145    1.2375    0.0000 C   0  0  0  0  0  0  0  0  0  0  0  0
    2.1434    2.8875    0.0000 O   0  0  0  0  0  0  0  0  0  0  0  0
    1.3588    2.3174    0.0000 O   0  0  0  0  0  0  0  0  0  0  0  0
    2.9684    2.0625    0.0000 O   0  0  0  0  0  0  0  0  0  0  0  0
    2.1434    2.0625    0.0000 S   0  0  0  0  0  0  0  0  0  0  0  0
  9  8  1  0  0  0  0
 10  7  2  0  0  0  0
 12  7  1  0  0  0  0
 12 11  2  0  0  0  0
 13  8  2  0  0  0  0
 13 11  1  0  0  0  0
 14  9  2  0  0  0  0
 14 12  1  0  0  0  0
 15 10  1  0  0  0  0
 16 14  1  0  0  0  0
 16 15  2  0  0  0  0
 17  1  1  0  0  0  0
 17  2  1  0  0  0  0
 17  3  1  0  0  0  0
 17 13  1  0  0  0  0
 18  4  1  0  0  0  0
 18  5  1  0  0  0  0
 18  6  1  0  0  0  0
 18 15  1  0  0  0  0
 22 16  1  0  0  0  0
 22 19  1  0  0  0  0
 22 20  2  0  0  0  0
 22 21  2  0  0  0  0
M  END
> <DATABASE_ID>
DB13796

> <DATABASE_NAME>
drugbank

> <SMILES>
CC(C)(C)C1=CC=C2C(C=CC(=C2S(O)(=O)=O)C(C)(C)C)=C1

> <INCHI_IDENTIFIER>
InChI=1S/C18H24O3S/c1-17(2,3)13-8-9-14-12(11-13)7-10-15(18(4,5)6)16(14)22(19,20)21/h7-11H,1-6H3,(H,19,20,21)

> <INCHI_KEY>
WBEBQCINXJDZCX-UHFFFAOYSA-N

> <FORMULA>
C18H24O3S

> <MOLECULAR_WEIGHT>
320.45

> <EXACT_MASS>
320.144615807

> <JCHEM_ACCEPTOR_COUNT>
3

> <JCHEM_ATOM_COUNT>
46

> <JCHEM_AVERAGE_POLARIZABILITY>
35.70369199784768

> <JCHEM_BIOAVAILABILITY>
1

> <JCHEM_DONOR_COUNT>
1

> <JCHEM_FORMAL_CHARGE>
0

> <JCHEM_GHOSE_FILTER>
1

> <JCHEM_IUPAC>
2,6-di-tert-butylnaphthalene-1-sulfonic acid

> <ALOGPS_LOGP>
2.48

> <JCHEM_LOGP>
5.233741830666667

> <ALOGPS_LOGS>
-5.48

> <JCHEM_MDDR_LIKE_RULE>
0

> <JCHEM_NUMBER_OF_RINGS>
2

> <JCHEM_PHYSIOLOGICAL_CHARGE>
-1

> <JCHEM_PKA_STRONGEST_ACIDIC>
-1.2050808878116541

> <JCHEM_POLAR_SURFACE_AREA>
54.37

> <JCHEM_REFRACTIVITY>
90.46249999999996

> <JCHEM_ROTATABLE_BOND_COUNT>
3

> <JCHEM_RULE_OF_FIVE>
0

> <ALOGPS_SOLUBILITY>
1.06e-03 g/l

> <JCHEM_TRADITIONAL_IUPAC>
dibunate

> <JCHEM_VEBER_RULE>
0

> <DRUGBANK_ID>
DB13796

> <DRUG_GROUPS>
experimental

> <GENERIC_NAME>
Dibunate

> <SYNONYMS>
Dibunate

$$$$
