
  Mrv1652306231722492D          

 15 16  0  0  0  0            999 V2000
    2.1434   -2.8875    0.0000 C   0  0  0  0  0  0  0  0  0  0  0  0
    1.4289   -2.4750    0.0000 C   0  0  0  0  0  0  0  0  0  0  0  0
    1.4289   -1.6500    0.0000 C   0  0  0  0  0  0  0  0  0  0  0  0
    2.1434   -1.2375    0.0000 C   0  0  0  0  0  0  0  0  0  0  0  0
    2.8579   -1.6500    0.0000 C   0  0  0  0  0  0  0  0  0  0  0  0
    2.8579   -2.4750    0.0000 C   0  0  0  0  0  0  0  0  0  0  0  0
    2.1434   -0.4125    0.0000 C   0  0  0  0  0  0  0  0  0  0  0  0
    2.8579    0.0000    0.0000 C   0  0  0  0  0  0  0  0  0  0  0  0
    2.8579    0.8250    0.0000 C   0  0  0  0  0  0  0  0  0  0  0  0
    3.5724    1.2375    0.0000 C   0  0  0  0  0  0  0  0  0  0  0  0
    3.5724    2.0625    0.0000 O   0  0  0  0  0  0  0  0  0  0  0  0
    4.2868    0.8250    0.0000 N   0  0  0  0  0  0  0  0  0  0  0  0
    4.2868    0.0000    0.0000 C   0  0  0  0  0  0  0  0  0  0  0  0
    5.0013   -0.4125    0.0000 S   0  0  0  0  0  0  0  0  0  0  0  0
    3.5724   -0.4125    0.0000 N   0  0  0  0  0  0  0  0  0  0  0  0
  1  2  2  0  0  0  0
  2  3  1  0  0  0  0
  3  4  2  0  0  0  0
  4  5  1  0  0  0  0
  5  6  2  0  0  0  0
  1  6  1  0  0  0  0
  4  7  1  0  0  0  0
  7  8  1  0  0  0  0
  8  9  2  0  0  0  0
  9 10  1  0  0  0  0
 10 11  2  0  0  0  0
 10 12  1  0  0  0  0
 12 13  1  0  0  0  0
 13 14  2  0  0  0  0
 13 15  1  0  0  0  0
  8 15  1  0  0  0  0
M  END
> <DATABASE_ID>
DB13804

> <DATABASE_NAME>
drugbank

> <SMILES>
O=C1NC(=S)NC(CC2=CC=CC=C2)=C1

> <INCHI_IDENTIFIER>
InChI=1S/C11H10N2OS/c14-10-7-9(12-11(15)13-10)6-8-4-2-1-3-5-8/h1-5,7H,6H2,(H2,12,13,14,15)

> <INCHI_KEY>
PNXBXCRWXNESOV-UHFFFAOYSA-N

> <FORMULA>
C11H10N2OS

> <MOLECULAR_WEIGHT>
218.27

> <EXACT_MASS>
218.051384124

> <JCHEM_ACCEPTOR_COUNT>
1

> <JCHEM_ATOM_COUNT>
25

> <JCHEM_AVERAGE_POLARIZABILITY>
22.267484757334536

> <JCHEM_BIOAVAILABILITY>
1

> <JCHEM_DONOR_COUNT>
2

> <JCHEM_FORMAL_CHARGE>
0

> <JCHEM_GHOSE_FILTER>
1

> <JCHEM_IUPAC>
6-benzyl-2-sulfanylidene-1,2,3,4-tetrahydropyrimidin-4-one

> <ALOGPS_LOGP>
2.06

> <JCHEM_LOGP>
1.8929776619999996

> <ALOGPS_LOGS>
-3.64

> <JCHEM_MDDR_LIKE_RULE>
0

> <JCHEM_NUMBER_OF_RINGS>
2

> <JCHEM_PHYSIOLOGICAL_CHARGE>
0

> <JCHEM_PKA>
12.849381821252646

> <JCHEM_PKA_STRONGEST_ACIDIC>
8.086759323489387

> <JCHEM_PKA_STRONGEST_BASIC>
-3.232060546294696

> <JCHEM_POLAR_SURFACE_AREA>
41.13

> <JCHEM_REFRACTIVITY>
64.39829999999999

> <JCHEM_ROTATABLE_BOND_COUNT>
2

> <JCHEM_RULE_OF_FIVE>
1

> <ALOGPS_SOLUBILITY>
5.04e-02 g/l

> <JCHEM_TRADITIONAL_IUPAC>
benzylthiouracil

> <JCHEM_VEBER_RULE>
0

> <DRUGBANK_ID>
DB13804

> <DRUG_GROUPS>
experimental

> <GENERIC_NAME>
Benzylthiouracil

$$$$
