
  Mrv1652310201622582D          

 33 36  0  0  0  0            999 V2000
   -0.6009    5.1746    0.0000 C   0  0  0  0  0  0  0  0  0  0  0  0
   -0.3459    4.3900    0.0000 N   0  0  0  0  0  0  0  0  0  0  0  0
    0.4610    4.2184    0.0000 C   0  0  0  0  0  0  0  0  0  0  0  0
    1.0131    4.8315    0.0000 O   0  0  0  0  0  0  0  0  0  0  0  0
    0.7160    3.4338    0.0000 C   0  0  0  0  0  0  0  0  0  0  0  0
    1.5229    3.2623    0.0000 C   0  0  0  0  0  0  0  0  0  0  0  0
    1.7779    2.4777    0.0000 C   0  0  0  0  0  0  0  0  0  0  0  0
    1.2258    1.8646    0.0000 C   0  0  0  0  0  0  0  0  0  0  0  0
    0.4189    2.0361    0.0000 C   0  0  0  0  0  0  0  0  0  0  0  0
    0.1639    2.8207    0.0000 C   0  0  0  0  0  0  0  0  0  0  0  0
   -0.6430    2.9922    0.0000 F   0  0  0  0  0  0  0  0  0  0  0  0
    1.4808    1.0799    0.0000 N   0  0  0  0  0  0  0  0  0  0  0  0
    2.2654    0.8250    0.0000 C   0  0  0  0  0  0  0  0  0  0  0  0
    2.9328    1.3099    0.0000 S   0  0  0  0  0  0  0  0  0  0  0  0
    2.2654   -0.0000    0.0000 N   0  0  0  0  0  0  0  0  0  0  0  0
    1.4808   -0.2549    0.0000 C   0  0  0  0  0  0  0  0  0  0  0  0
    1.2258   -1.0396    0.0000 O   0  0  0  0  0  0  0  0  0  0  0  0
    0.9959    0.4125    0.0000 C   0  0  0  0  0  0  0  0  0  0  0  0
    0.4125   -0.1709    0.0000 C   0  0  0  0  0  0  0  0  0  0  0  0
   -0.1709    0.4125    0.0000 C   0  0  0  0  0  0  0  0  0  0  0  0
    0.4125    0.9959    0.0000 C   0  0  0  0  0  0  0  0  0  0  0  0
    2.9328   -0.4849    0.0000 C   0  0  0  0  0  0  0  0  0  0  0  0
    3.6865   -0.1494    0.0000 C   0  0  0  0  0  0  0  0  0  0  0  0
    4.3540   -0.6343    0.0000 C   0  0  0  0  0  0  0  0  0  0  0  0
    4.2677   -1.4548    0.0000 C   0  0  0  0  0  0  0  0  0  0  0  0
    3.5140   -1.7903    0.0000 N   0  0  0  0  0  0  0  0  0  0  0  0
    2.8466   -1.3054    0.0000 C   0  0  0  0  0  0  0  0  0  0  0  0
    4.9352   -1.9397    0.0000 C   0  0  0  0  0  0  0  0  0  0  0  0
    5.6026   -2.4246    0.0000 N   0  0  0  0  0  0  0  0  0  0  0  0
    5.1076   -0.2987    0.0000 C   0  0  0  0  0  0  0  0  0  0  0  0
    5.8613    0.0368    0.0000 F   0  0  0  0  0  0  0  0  0  0  0  0
    5.4432   -1.0524    0.0000 F   0  0  0  0  0  0  0  0  0  0  0  0
    4.7721    0.4549    0.0000 F   0  0  0  0  0  0  0  0  0  0  0  0
  1  2  1  0  0  0  0
  2  3  1  0  0  0  0
  3  4  2  0  0  0  0
  3  5  1  0  0  0  0
  5  6  2  0  0  0  0
  6  7  1  0  0  0  0
  7  8  2  0  0  0  0
  8  9  1  0  0  0  0
  9 10  2  0  0  0  0
  5 10  1  0  0  0  0
 10 11  1  0  0  0  0
  8 12  1  0  0  0  0
 12 13  1  0  0  0  0
 13 14  2  0  0  0  0
 13 15  1  0  0  0  0
 15 16  1  0  0  0  0
 16 17  2  0  0  0  0
 16 18  1  0  0  0  0
 12 18  1  0  0  0  0
 18 19  1  0  0  0  0
 19 20  1  0  0  0  0
 20 21  1  0  0  0  0
 18 21  1  0  0  0  0
 15 22  1  0  0  0  0
 22 23  2  0  0  0  0
 23 24  1  0  0  0  0
 24 25  2  0  0  0  0
 25 26  1  0  0  0  0
 26 27  2  0  0  0  0
 22 27  1  0  0  0  0
 25 28  1  0  0  0  0
 28 29  3  0  0  0  0
 24 30  1  0  0  0  0
 30 31  1  0  0  0  0
 30 32  1  0  0  0  0
 30 33  1  0  0  0  0
M  END
> <DATABASE_ID>
DB11901

> <DATABASE_NAME>
drugbank

> <SMILES>
CNC(=O)C1=CC=C(C=C1F)N1C(=S)N(C(=O)C11CCC1)C1=CC(=C(N=C1)C#N)C(F)(F)F

> <INCHI_IDENTIFIER>
InChI=1S/C21H15F4N5O2S/c1-27-17(31)13-4-3-11(8-15(13)22)30-19(33)29(18(32)20(30)5-2-6-20)12-7-14(21(23,24)25)16(9-26)28-10-12/h3-4,7-8,10H,2,5-6H2,1H3,(H,27,31)

> <INCHI_KEY>
HJBWBFZLDZWPHF-UHFFFAOYSA-N

> <FORMULA>
C21H15F4N5O2S

> <MOLECULAR_WEIGHT>
477.44

> <EXACT_MASS>
477.088258569

> <JCHEM_ACCEPTOR_COUNT>
4

> <JCHEM_ATOM_COUNT>
48

> <JCHEM_AVERAGE_POLARIZABILITY>
43.44369263291651

> <JCHEM_BIOAVAILABILITY>
1

> <JCHEM_DONOR_COUNT>
1

> <JCHEM_FORMAL_CHARGE>
0

> <JCHEM_GHOSE_FILTER>
1

> <JCHEM_IUPAC>
4-{7-[6-cyano-5-(trifluoromethyl)pyridin-3-yl]-8-oxo-6-sulfanylidene-5,7-diazaspiro[3.4]octan-5-yl}-2-fluoro-N-methylbenzamide

> <ALOGPS_LOGP>
3.05

> <JCHEM_LOGP>
3.460339361

> <ALOGPS_LOGS>
-5.43

> <JCHEM_MDDR_LIKE_RULE>
0

> <JCHEM_NUMBER_OF_RINGS>
4

> <JCHEM_PHYSIOLOGICAL_CHARGE>
0

> <JCHEM_PKA_STRONGEST_ACIDIC>
13.053725703081092

> <JCHEM_PKA_STRONGEST_BASIC>
-0.7478180773878739

> <JCHEM_POLAR_SURFACE_AREA>
89.33000000000001

> <JCHEM_REFRACTIVITY>
113.5955

> <JCHEM_ROTATABLE_BOND_COUNT>
4

> <JCHEM_RULE_OF_FIVE>
1

> <ALOGPS_SOLUBILITY>
1.78e-03 g/l

> <JCHEM_TRADITIONAL_IUPAC>
4-{7-[6-cyano-5-(trifluoromethyl)pyridin-3-yl]-8-oxo-6-sulfanylidene-5,7-diazaspiro[3.4]octan-5-yl}-2-fluoro-N-methylbenzamide

> <JCHEM_VEBER_RULE>
0

> <DRUGBANK_ID>
DB11901

> <DRUG_GROUPS>
approved; investigational

> <GENERIC_NAME>
Apalutamide

> <SYNONYMS>
Apalutamide

> <PRODUCTS>
Erleada

$$$$
