
  Mrv1909 05201915332D          

 33 35  0  0  0  0            999 V2000
    7.8592   -2.8875    0.0000 O   0  0  0  0  0  0  0  0  0  0  0  0
    8.5737   -3.3000    0.0000 N   0  0  0  0  0  0  0  0  0  0  0  0
    9.2881   -2.8875    0.0000 C   0  0  0  0  0  0  0  0  0  0  0  0
    9.2881   -2.0625    0.0000 O   0  0  0  0  0  0  0  0  0  0  0  0
   10.0026   -3.3000    0.0000 C   0  0  0  0  0  0  0  0  0  0  0  0
   10.7171   -2.8875    0.0000 C   0  0  0  0  0  0  0  0  0  0  0  0
   11.4315   -3.3000    0.0000 C   0  0  0  0  0  0  0  0  0  0  0  0
   12.1460   -2.8875    0.0000 C   0  0  0  0  0  0  0  0  0  0  0  0
   12.8605   -3.3000    0.0000 C   0  0  0  0  0  0  0  0  0  0  0  0
   13.5749   -2.8875    0.0000 C   0  0  0  0  0  0  0  0  0  0  0  0
   14.2894   -3.3000    0.0000 N   0  0  0  0  0  0  0  0  0  0  0  0
   15.0039   -2.8875    0.0000 C   0  0  0  0  0  0  0  0  0  0  0  0
   15.0039   -2.0625    0.0000 O   0  0  0  0  0  0  0  0  0  0  0  0
   15.7184   -3.3000    0.0000 C   0  0  0  0  0  0  0  0  0  0  0  0
   16.4328   -2.8875    0.0000 C   0  0  0  0  0  0  0  0  0  0  0  0
   17.1473   -3.3000    0.0000 N   0  0  0  0  0  0  0  0  0  0  0  0
   17.1473   -4.1250    0.0000 C   0  0  0  0  0  0  0  0  0  0  0  0
   16.4328   -4.5375    0.0000 N   0  0  0  0  0  0  0  0  0  0  0  0
   15.7184   -4.1250    0.0000 C   0  0  0  0  0  0  0  0  0  0  0  0
   17.8618   -4.5375    0.0000 N   0  0  0  0  0  0  0  0  0  0  0  0
   18.5762   -4.1250    0.0000 C   0  0  0  0  0  0  0  0  0  0  0  0
   18.5762   -3.3000    0.0000 C   0  0  0  0  0  0  0  0  0  0  0  0
   19.2907   -2.8875    0.0000 C   0  0  0  0  0  0  0  0  0  0  0  0
   20.0052   -3.3000    0.0000 C   0  0  0  0  0  0  0  0  0  0  0  0
   20.0052   -4.1250    0.0000 C   0  0  0  0  0  0  0  0  0  0  0  0
   19.2907   -4.5375    0.0000 C   0  0  0  0  0  0  0  0  0  0  0  0
   17.8618   -5.3625    0.0000 C   0  0  0  0  0  0  0  0  0  0  0  0
   18.5762   -5.7750    0.0000 C   0  0  0  0  0  0  0  0  0  0  0  0
   18.5762   -6.6000    0.0000 C   0  0  0  0  0  0  0  0  0  0  0  0
   17.8618   -7.0125    0.0000 C   0  0  0  0  0  0  0  0  0  0  0  0
   17.1473   -6.6000    0.0000 C   0  0  0  0  0  0  0  0  0  0  0  0
   17.1473   -5.7750    0.0000 C   0  0  0  0  0  0  0  0  0  0  0  0
   16.4328   -5.3625    0.0000 Cl  0  0  0  0  0  0  0  0  0  0  0  0
  1  2  1  0  0  0  0
  2  3  1  0  0  0  0
  3  4  2  0  0  0  0
  3  5  1  0  0  0  0
  5  6  1  0  0  0  0
  6  7  1  0  0  0  0
  7  8  1  0  0  0  0
  8  9  1  0  0  0  0
  9 10  1  0  0  0  0
 10 11  1  0  0  0  0
 11 12  1  0  0  0  0
 12 13  2  0  0  0  0
 12 14  1  0  0  0  0
 14 15  2  0  0  0  0
 15 16  1  0  0  0  0
 16 17  2  0  0  0  0
 17 18  1  0  0  0  0
 18 19  2  0  0  0  0
 14 19  1  0  0  0  0
 17 20  1  0  0  0  0
 20 21  1  0  0  0  0
 21 22  2  0  0  0  0
 22 23  1  0  0  0  0
 23 24  2  0  0  0  0
 24 25  1  0  0  0  0
 25 26  2  0  0  0  0
 21 26  1  0  0  0  0
 20 27  1  0  0  0  0
 27 28  2  0  0  0  0
 28 29  1  0  0  0  0
 29 30  2  0  0  0  0
 30 31  1  0  0  0  0
 31 32  2  0  0  0  0
 27 32  1  0  0  0  0
 32 33  1  0  0  0  0
M  END
> <DATABASE_ID>
DB15449

> <DATABASE_NAME>
drugbank

> <SMILES>
ONC(=O)CCCCCCNC(=O)C1=CN=C(N=C1)N(C1=CC=CC=C1)C1=CC=CC=C1Cl

> <INCHI_IDENTIFIER>
InChI=1S/C24H26ClN5O3/c25-20-12-7-8-13-21(20)30(19-10-4-3-5-11-19)24-27-16-18(17-28-24)23(32)26-15-9-2-1-6-14-22(31)29-33/h3-5,7-8,10-13,16-17,33H,1-2,6,9,14-15H2,(H,26,32)(H,29,31)

> <INCHI_KEY>
VLIUIBXPEDFJRF-UHFFFAOYSA-N

> <FORMULA>
C24H26ClN5O3

> <MOLECULAR_WEIGHT>
467.95

> <EXACT_MASS>
467.1724174

> <JCHEM_ACCEPTOR_COUNT>
6

> <JCHEM_ATOM_COUNT>
59

> <JCHEM_AVERAGE_POLARIZABILITY>
50.0314575055195

> <JCHEM_BIOAVAILABILITY>
1

> <JCHEM_DONOR_COUNT>
3

> <JCHEM_FORMAL_CHARGE>
0

> <JCHEM_GHOSE_FILTER>
1

> <JCHEM_IUPAC>
7-({2-[(2-chlorophenyl)(phenyl)amino]pyrimidin-5-yl}formamido)-N-hydroxyheptanamide

> <ALOGPS_LOGP>
3.61

> <JCHEM_LOGP>
4.2556817076666675

> <ALOGPS_LOGS>
-4.69

> <JCHEM_MDDR_LIKE_RULE>
1

> <JCHEM_NUMBER_OF_RINGS>
3

> <JCHEM_PHYSIOLOGICAL_CHARGE>
0

> <JCHEM_PKA>
13.419498741379156

> <JCHEM_PKA_STRONGEST_ACIDIC>
8.907524813920443

> <JCHEM_PKA_STRONGEST_BASIC>
-1.3265258462891216

> <JCHEM_POLAR_SURFACE_AREA>
107.45

> <JCHEM_REFRACTIVITY>
127.53750000000001

> <JCHEM_ROTATABLE_BOND_COUNT>
11

> <JCHEM_RULE_OF_FIVE>
1

> <ALOGPS_SOLUBILITY>
9.59e-03 g/l

> <JCHEM_TRADITIONAL_IUPAC>
(2R)-14-fluoro-2-methyl-6,9,10,19-tetraazapentacyclo[14.2.1.0^{2,6}.0^{8,18}.0^{12,17}]nonadeca-1(18),8,12(17),13,15-pentaen-11-one

> <JCHEM_VEBER_RULE>
0

> <DRUGBANK_ID>
DB15449

> <DRUG_GROUPS>
investigational

> <GENERIC_NAME>
Citarinostat

> <SYNONYMS>
Citarinostat

$$$$
