
  Mrv1572004191604172D          

  2  0  0  0  0  0            999 V2000
    0.8250    0.0000    0.0000 I   0  5  0  0  0  0  0  0  0  0  0  0
    0.0000    0.0000    0.0000 Na  0  3  0  0  0  0  0  0  0  0  0  0
M  CHG  2   1  -1   2   1
M  END
> <DATABASE_ID>
DB11119

> <DATABASE_NAME>
drugbank

> <SMILES>
[Na+].[I-]

> <INCHI_IDENTIFIER>
InChI=1S/HI.Na/h1H;/q;+1/p-1

> <INCHI_KEY>
FVAUCKIRQBBSSJ-UHFFFAOYSA-M

> <FORMULA>
INa

> <MOLECULAR_WEIGHT>
149.8942

> <EXACT_MASS>
149.89424

> <JCHEM_ACCEPTOR_COUNT>
0

> <JCHEM_ATOM_COUNT>
2

> <JCHEM_AVERAGE_POLARIZABILITY>
5.07487188

> <JCHEM_BIOAVAILABILITY>
1

> <JCHEM_DONOR_COUNT>
0

> <JCHEM_FORMAL_CHARGE>
0

> <JCHEM_GHOSE_FILTER>
0

> <JCHEM_IUPAC>
sodium iodide

> <JCHEM_LOGP>
1.02055578

> <JCHEM_MDDR_LIKE_RULE>
0

> <JCHEM_NUMBER_OF_RINGS>
0

> <JCHEM_PHYSIOLOGICAL_CHARGE>
-1

> <JCHEM_PKA_STRONGEST_ACIDIC>
-8.999999999999996

> <JCHEM_POLAR_SURFACE_AREA>
0.0

> <JCHEM_REFRACTIVITY>
13.9462

> <JCHEM_ROTATABLE_BOND_COUNT>
0

> <JCHEM_RULE_OF_FIVE>
1

> <JCHEM_TRADITIONAL_IUPAC>
sodium iodide

> <JCHEM_VEBER_RULE>
1

> <DRUGBANK_ID>
DB11119

> <DRUG_GROUPS>
approved

> <GENERIC_NAME>
Sodium iodide

> <SYNONYMS>
Sodium iodide

> <PRODUCTS>
CVS Iodine; DDM Iodine Tincture Mild; De La Cruz Tincture of Iodine; GNP Idoinde Tincture 2% Mild; Harris Teeter Iodine Tincture Mild; Health Mart Iodine Tincture Mild; Iodine; Iodine Tincture; Iodine Tincture Mild; Iodopen Sodium Iodide; LEADER 2% Mild Iodine Tincture; LEADER Mild Iodine; M.T.E.-6 Concentrated; Micro I; Micro Plus 6 (concentrate); Micro Plus 6 (pediatric); Micro Plus 6 (regular); Micro+6 Concentrate; Paramettes Adults; Premier Value Iodine Tincture Mild; QC Iodine Tincture Mild; Quality Choice Iodine Tincture Mild; Sclerodine 6 Injection; Sodium Iodide Inj 100mg/ml; Sunmark Iodine

$$$$
