
  Mrv1652310201622532D          

 26 28  0  0  1  0            999 V2000
    3.4656    1.1759    0.0000 C   0  0  0  0  0  0  0  0  0  0  0  0
    3.4656    0.3509    0.0000 C   0  0  0  0  0  0  0  0  0  0  0  0
    4.1801   -0.0616    0.0000 C   0  0  0  0  0  0  0  0  0  0  0  0
    2.7512   -0.0616    0.0000 S   0  0  0  0  0  0  0  0  0  0  0  0
    2.3387    0.6529    0.0000 O   0  0  0  0  0  0  0  0  0  0  0  0
    3.1637   -0.7761    0.0000 O   0  0  0  0  0  0  0  0  0  0  0  0
    2.0367   -0.4741    0.0000 N   0  0  0  0  0  0  0  0  0  0  0  0
    2.0367   -1.2991    0.0000 C   0  0  1  0  0  0  0  0  0  0  0  0
    2.7041   -1.7840    0.0000 C   0  0  0  0  0  0  0  0  0  0  0  0
    2.4492   -2.5687    0.0000 O   0  0  0  0  0  0  0  0  0  0  0  0
    1.6242   -2.5687    0.0000 C   0  0  0  0  0  0  0  0  0  0  0  0
    1.3693   -1.7840    0.0000 C   0  0  1  0  0  0  0  0  0  0  0  0
    0.5846   -1.5291    0.0000 O   0  0  0  0  0  0  0  0  0  0  0  0
    0.4131   -0.7221    0.0000 C   0  0  0  0  0  0  0  0  0  0  0  0
   -0.3715   -0.4672    0.0000 C   0  0  0  0  0  0  0  0  0  0  0  0
   -0.5430    0.3398    0.0000 C   0  0  0  0  0  0  0  0  0  0  0  0
    0.0701    0.8918    0.0000 C   0  0  0  0  0  0  0  0  0  0  0  0
    0.8547    0.6369    0.0000 C   0  0  0  0  0  0  0  0  0  0  0  0
    1.0262   -0.1701    0.0000 C   0  0  0  0  0  0  0  0  0  0  0  0
   -0.1015    1.6988    0.0000 C   0  0  0  0  0  0  0  0  0  0  0  0
   -0.8551    2.0344    0.0000 C   0  0  0  0  0  0  0  0  0  0  0  0
   -0.7689    2.8548    0.0000 C   0  0  0  0  0  0  0  0  0  0  0  0
    0.0381    3.0264    0.0000 C   0  0  0  0  0  0  0  0  0  0  0  0
    0.4506    2.3119    0.0000 S   0  0  0  0  0  0  0  0  0  0  0  0
    0.3736    3.7800    0.0000 C   0  0  0  0  0  0  0  0  0  0  0  0
    0.7092    4.5337    0.0000 N   0  0  0  0  0  0  0  0  0  0  0  0
  1  2  1  0  0  0  0
  2  3  1  0  0  0  0
  2  4  1  0  0  0  0
  4  5  2  0  0  0  0
  4  6  2  0  0  0  0
  4  7  1  0  0  0  0
  8  7  1  1  0  0  0
  8  9  1  0  0  0  0
  9 10  1  0  0  0  0
 10 11  1  0  0  0  0
 11 12  1  0  0  0  0
  8 12  1  0  0  0  0
 12 13  1  1  0  0  0
 13 14  1  0  0  0  0
 14 15  2  0  0  0  0
 15 16  1  0  0  0  0
 16 17  2  0  0  0  0
 17 18  1  0  0  0  0
 18 19  2  0  0  0  0
 14 19  1  0  0  0  0
 17 20  1  0  0  0  0
 20 21  2  0  0  0  0
 21 22  1  0  0  0  0
 22 23  2  0  0  0  0
 23 24  1  0  0  0  0
 20 24  1  0  0  0  0
 23 25  1  0  0  0  0
 25 26  3  0  0  0  0
M  END
> <DATABASE_ID>
DB11843

> <DATABASE_NAME>
drugbank

> <SMILES>
CC(C)S(=O)(=O)N[C@H]1COC[C@H]1OC1=CC=C(C=C1)C1=CC=C(S1)C#N

> <INCHI_IDENTIFIER>
InChI=1S/C18H20N2O4S2/c1-12(2)26(21,22)20-16-10-23-11-17(16)24-14-5-3-13(4-6-14)18-8-7-15(9-19)25-18/h3-8,12,16-17,20H,10-11H2,1-2H3/t16-,17+/m0/s1

> <INCHI_KEY>
TTYKUKSFWHEBLI-DLBZAZTESA-N

> <FORMULA>
C18H20N2O4S2

> <MOLECULAR_WEIGHT>
392.49

> <EXACT_MASS>
392.08644948

> <JCHEM_ACCEPTOR_COUNT>
5

> <JCHEM_ATOM_COUNT>
46

> <JCHEM_AVERAGE_POLARIZABILITY>
41.0361016605526

> <JCHEM_BIOAVAILABILITY>
1

> <JCHEM_DONOR_COUNT>
1

> <JCHEM_FORMAL_CHARGE>
0

> <JCHEM_GHOSE_FILTER>
1

> <JCHEM_IUPAC>
N-[(3S,4S)-4-[4-(5-cyanothiophen-2-yl)phenoxy]oxolan-3-yl]propane-2-sulfonamide

> <ALOGPS_LOGP>
2.42

> <JCHEM_LOGP>
2.7241802696666655

> <ALOGPS_LOGS>
-4.35

> <JCHEM_MDDR_LIKE_RULE>
0

> <JCHEM_NUMBER_OF_RINGS>
3

> <JCHEM_PHYSIOLOGICAL_CHARGE>
0

> <JCHEM_PKA_STRONGEST_ACIDIC>
9.073209104626597

> <JCHEM_PKA_STRONGEST_BASIC>
-4.07870499168886

> <JCHEM_POLAR_SURFACE_AREA>
88.42000000000002

> <JCHEM_REFRACTIVITY>
98.87750000000004

> <JCHEM_ROTATABLE_BOND_COUNT>
5

> <JCHEM_RULE_OF_FIVE>
1

> <ALOGPS_SOLUBILITY>
1.76e-02 g/l

> <JCHEM_TRADITIONAL_IUPAC>
N-[(3S,4S)-4-[4-(5-cyanothiophen-2-yl)phenoxy]oxolan-3-yl]propane-2-sulfonamide

> <JCHEM_VEBER_RULE>
0

> <DRUGBANK_ID>
DB11843

> <DRUG_GROUPS>
investigational

> <GENERIC_NAME>
PF-04958242

$$$$
