
  Mrv1909 04202016032D          

 35 40  0  0  0  0            999 V2000
   -2.2394   -0.7540    0.0000 C   0  0  0  0  0  0  0  0  0  0  0  0
   -1.5260   -0.3400    0.0000 C   0  0  0  0  0  0  0  0  0  0  0  0
   -0.8124   -0.7533    0.0000 N   0  0  0  0  0  0  0  0  0  0  0  0
   -0.8124   -1.5775    0.0000 C   0  0  0  0  0  0  0  0  0  0  0  0
   -1.5233   -1.9860    0.0000 C   0  0  0  0  0  0  0  0  0  0  0  0
   -2.2394   -1.5834    0.0000 C   0  0  0  0  0  0  0  0  0  0  0  0
   -2.9527   -1.9930    0.0000 O   0  0  0  0  0  0  0  0  0  0  0  0
   -1.5233   -2.8146    0.0000 O   0  0  0  0  0  0  0  0  0  0  0  0
   -0.0989   -1.9873    0.0000 C   0  0  0  0  0  0  0  0  0  0  0  0
    0.6146   -1.5775    0.0000 N   0  0  0  0  0  0  0  0  0  0  0  0
    0.6146   -0.7534    0.0000 C   0  0  2  0  0  0  0  0  0  0  0  0
   -0.0989   -0.3389    0.0000 N   0  0  0  0  0  0  0  0  0  0  0  0
   -0.0989    0.4849    0.0000 C   0  0  2  0  0  0  0  0  0  0  0  0
   -0.8662    0.7901    0.0000 C   0  0  0  0  0  0  0  0  0  0  0  0
   -1.1082    1.5789    0.0000 C   0  0  0  0  0  0  0  0  0  0  0  0
   -0.6481    2.2574    0.0000 S   0  0  0  0  0  0  0  0  0  0  0  0
    0.1810    2.3230    0.0000 C   0  0  0  0  0  0  0  0  0  0  0  0
    0.7397    1.7188    0.0000 C   0  0  0  0  0  0  0  0  0  0  0  0
    0.6199    0.9004    0.0000 C   0  0  0  0  0  0  0  0  0  0  0  0
    1.2691    0.3849    0.0000 C   0  0  0  0  0  0  0  0  0  0  0  0
    2.0390    0.6889    0.0000 C   0  0  0  0  0  0  0  0  0  0  0  0
    2.1595    1.5058    0.0000 C   0  0  0  0  0  0  0  0  0  0  0  0
    1.5098    2.0180    0.0000 C   0  0  0  0  0  0  0  0  0  0  0  0
    1.7240    2.8159    0.0000 F   0  0  0  0  0  0  0  0  0  0  0  0
    2.9527    1.7199    0.0000 F   0  0  0  0  0  0  0  0  0  0  0  0
   -1.9139    1.7609    0.0000 C   0  0  0  0  0  0  0  0  0  0  0  0
   -2.4703    1.1572    0.0000 C   0  0  0  0  0  0  0  0  0  0  0  0
   -2.2273    0.3707    0.0000 C   0  0  0  0  0  0  0  0  0  0  0  0
   -1.4268    0.1854    0.0000 C   0  0  0  0  0  0  0  0  0  0  0  0
    1.3280   -0.3390    0.0000 C   0  0  0  0  0  0  0  0  0  0  0  0
    2.0415   -0.7534    0.0000 O   0  0  0  0  0  0  0  0  0  0  0  0
    2.0415   -1.5776    0.0000 C   0  0  0  0  0  0  0  0  0  0  0  0
    1.3280   -1.9874    0.0000 C   0  0  0  0  0  0  0  0  0  0  0  0
    0.6146   -0.1197    0.0000 H   0  0  0  0  0  0  0  0  0  0  0  0
   -0.0989   -2.8159    0.0000 O   0  0  0  0  0  0  0  0  0  0  0  0
  2  1  2  0  0  0  0
  3  2  1  0  0  0  0
  4  3  1  0  0  0  0
  5  4  2  0  0  0  0
  6  5  1  0  0  0  0
  1  6  1  0  0  0  0
  6  7  2  0  0  0  0
  5  8  1  0  0  0  0
  4  9  1  0  0  0  0
  9 10  1  0  0  0  0
 10 11  1  0  0  0  0
 11 12  1  0  0  0  0
  3 12  1  0  0  0  0
 13 12  1  6  0  0  0
 14 13  1  0  0  0  0
 14 15  2  0  0  0  0
 15 16  1  0  0  0  0
 16 17  1  0  0  0  0
 17 18  1  0  0  0  0
 19 18  2  0  0  0  0
 13 19  1  0  0  0  0
 19 20  1  0  0  0  0
 20 21  2  0  0  0  0
 21 22  1  0  0  0  0
 22 23  2  0  0  0  0
 18 23  1  0  0  0  0
 23 24  1  0  0  0  0
 22 25  1  0  0  0  0
 15 26  1  0  0  0  0
 26 27  2  0  0  0  0
 27 28  1  0  0  0  0
 28 29  2  0  0  0  0
 14 29  1  0  0  0  0
 11 30  1  0  0  0  0
 31 30  1  0  0  0  0
 32 31  1  0  0  0  0
 33 32  1  0  0  0  0
 10 33  1  0  0  0  0
 11 34  1  1  0  0  0
  9 35  2  0  0  0  0
M  END
> <DATABASE_ID>
DB15675

> <DATABASE_NAME>
drugbank

> <SMILES>
[H][C@@]12COCCN1C(=O)C1=C(O)C(=O)C=CN1N2[C@@H]1C2=C(SCC3=C1C=CC(F)=C3F)C=CC=C2

> <INCHI_IDENTIFIER>
InChI=1S/C24H19F2N3O4S/c25-16-6-5-13-15(20(16)26)12-34-18-4-2-1-3-14(18)21(13)29-19-11-33-10-9-27(19)24(32)22-23(31)17(30)7-8-28(22)29/h1-8,19,21,31H,9-12H2/t19-,21+/m1/s1

> <INCHI_KEY>
FIDLLEYNNRGVFR-CTNGQTDRSA-N

> <FORMULA>
C24H19F2N3O4S

> <MOLECULAR_WEIGHT>
483.49

> <EXACT_MASS>
483.106433604

> <JCHEM_ACCEPTOR_COUNT>
6

> <JCHEM_ATOM_COUNT>
53

> <JCHEM_AVERAGE_NEUTRAL_MICROSPECIES_CHARGE>
-0.0005674207346877914

> <JCHEM_AVERAGE_POLARIZABILITY>
45.52856171419015

> <JCHEM_BIOAVAILABILITY>
1

> <JCHEM_DONOR_COUNT>
1

> <JCHEM_FORMAL_CHARGE>
0

> <JCHEM_GHOSE_FILTER>
0

> <JCHEM_IUPAC>
(3R)-2-[(2S)-12,13-difluoro-9-thiatricyclo[9.4.0.0^{3,8}]pentadeca-1(11),3(8),4,6,12,14-hexaen-2-yl]-11-hydroxy-5-oxa-1,2,8-triazatricyclo[8.4.0.0^{3,8}]tetradeca-10,13-diene-9,12-dione

> <ALOGPS_LOGP>
2.01

> <JCHEM_LOGP>
2.791228073666666

> <ALOGPS_LOGS>
-3.93

> <JCHEM_MDDR_LIKE_RULE>
0

> <JCHEM_NEUTRAL_CHARGE>
0

> <JCHEM_NUMBER_OF_RINGS>
6

> <JCHEM_PHYSIOLOGICAL_CHARGE>
0

> <JCHEM_PKA_STRONGEST_ACIDIC>
10.245816608995238

> <JCHEM_PKA_STRONGEST_BASIC>
-0.8403983898601729

> <JCHEM_POLAR_SURFACE_AREA>
73.32000000000002

> <JCHEM_REFRACTIVITY>
124.1321

> <JCHEM_ROTATABLE_BOND_COUNT>
1

> <JCHEM_RULE_OF_FIVE>
1

> <ALOGPS_SOLUBILITY>
5.72e-02 g/l

> <JCHEM_TRADITIONAL_IUPAC>
(argentiooxy)silver

> <JCHEM_VEBER_RULE>
0

> <DRUGBANK_ID>
DB15675

> <DRUG_GROUPS>
investigational

> <GENERIC_NAME>
Baloxavir

> <SYNONYMS>
Baloxavir

$$$$
