
  Mrv1652310201622562D          

 25 27  0  0  0  0            999 V2000
   -2.5559    0.5230    0.0000 C   0  0  0  0  0  0  0  0  0  0  0  0
   -2.1434    1.2375    0.0000 C   0  0  0  0  0  0  0  0  0  0  0  0
   -1.7309    1.9520    0.0000 C   0  0  0  0  0  0  0  0  0  0  0  0
   -2.8579    1.6500    0.0000 C   0  0  0  0  0  0  0  0  0  0  0  0
   -3.5724    1.2375    0.0000 O   0  0  0  0  0  0  0  0  0  0  0  0
   -2.8579    2.4750    0.0000 O   0  0  0  0  0  0  0  0  0  0  0  0
   -1.4289    0.8250    0.0000 S   0  0  0  0  0  0  0  0  0  0  0  0
   -0.7145    1.2375    0.0000 C   0  0  0  0  0  0  0  0  0  0  0  0
   -0.7145    2.0625    0.0000 C   0  0  0  0  0  0  0  0  0  0  0  0
    0.0000    2.4750    0.0000 C   0  0  0  0  0  0  0  0  0  0  0  0
    0.7145    2.0625    0.0000 N   0  0  0  0  0  0  0  0  0  0  0  0
    0.7145    1.2375    0.0000 C   0  0  0  0  0  0  0  0  0  0  0  0
    0.0000    0.8250    0.0000 C   0  0  0  0  0  0  0  0  0  0  0  0
    0.0000   -0.0000    0.0000 C   0  0  0  0  0  0  0  0  0  0  0  0
   -0.7145   -0.4125    0.0000 C   0  0  0  0  0  0  0  0  0  0  0  0
   -0.7145   -1.2375    0.0000 C   0  0  0  0  0  0  0  0  0  0  0  0
    0.0000   -1.6500    0.0000 C   0  0  0  0  0  0  0  0  0  0  0  0
    0.7145   -1.2375    0.0000 C   0  0  0  0  0  0  0  0  0  0  0  0
    0.7145   -0.4125    0.0000 C   0  0  0  0  0  0  0  0  0  0  0  0
    1.4289   -0.0000    0.0000 C   0  0  0  0  0  0  0  0  0  0  0  0
    2.1434   -0.4125    0.0000 C   0  0  0  0  0  0  0  0  0  0  0  0
    2.1434   -1.2375    0.0000 C   0  0  0  0  0  0  0  0  0  0  0  0
    1.4289   -1.6500    0.0000 C   0  0  0  0  0  0  0  0  0  0  0  0
    0.0000   -2.4750    0.0000 C   0  0  0  0  0  0  0  0  0  0  0  0
    0.0000   -3.3000    0.0000 N   0  0  0  0  0  0  0  0  0  0  0  0
  1  2  1  0  0  0  0
  2  3  1  0  0  0  0
  2  4  1  0  0  0  0
  4  5  2  0  0  0  0
  4  6  1  0  0  0  0
  2  7  1  0  0  0  0
  7  8  1  0  0  0  0
  8  9  2  0  0  0  0
  9 10  1  0  0  0  0
 10 11  2  0  0  0  0
 11 12  1  0  0  0  0
 12 13  2  0  0  0  0
  8 13  1  0  0  0  0
 13 14  1  0  0  0  0
 14 15  1  0  0  0  0
 15 16  2  0  0  0  0
 16 17  1  0  0  0  0
 17 18  2  0  0  0  0
 18 19  1  0  0  0  0
 14 19  2  0  0  0  0
 19 20  1  0  0  0  0
 20 21  2  0  0  0  0
 21 22  1  0  0  0  0
 22 23  2  0  0  0  0
 18 23  1  0  0  0  0
 17 24  1  0  0  0  0
 24 25  3  0  0  0  0
M  END
> <DATABASE_ID>
DB11873

> <DATABASE_NAME>
drugbank

> <SMILES>
CC(C)(SC1=CC=NC=C1C1=C2C=CC=CC2=C(C=C1)C#N)C(O)=O

> <INCHI_IDENTIFIER>
InChI=1S/C20H16N2O2S/c1-20(2,19(23)24)25-18-9-10-22-12-17(18)16-8-7-13(11-21)14-5-3-4-6-15(14)16/h3-10,12H,1-2H3,(H,23,24)

> <INCHI_KEY>
YYBOLPLTQDKXPM-UHFFFAOYSA-N

> <FORMULA>
C20H16N2O2S

> <MOLECULAR_WEIGHT>
348.42

> <EXACT_MASS>
348.093248937

> <JCHEM_ACCEPTOR_COUNT>
4

> <JCHEM_ATOM_COUNT>
41

> <JCHEM_AVERAGE_POLARIZABILITY>
35.90984578362849

> <JCHEM_BIOAVAILABILITY>
1

> <JCHEM_DONOR_COUNT>
1

> <JCHEM_FORMAL_CHARGE>
0

> <JCHEM_GHOSE_FILTER>
1

> <JCHEM_IUPAC>
2-{[3-(4-cyanonaphthalen-1-yl)pyridin-4-yl]sulfanyl}-2-methylpropanoic acid

> <ALOGPS_LOGP>
4.40

> <JCHEM_LOGP>
3.12333572338411

> <ALOGPS_LOGS>
-4.87

> <JCHEM_MDDR_LIKE_RULE>
0

> <JCHEM_NUMBER_OF_RINGS>
3

> <JCHEM_PHYSIOLOGICAL_CHARGE>
-1

> <JCHEM_PKA_STRONGEST_ACIDIC>
3.593454445083701

> <JCHEM_PKA_STRONGEST_BASIC>
4.798501533008435

> <JCHEM_POLAR_SURFACE_AREA>
73.97999999999999

> <JCHEM_REFRACTIVITY>
99.40740000000002

> <JCHEM_ROTATABLE_BOND_COUNT>
4

> <JCHEM_RULE_OF_FIVE>
1

> <ALOGPS_SOLUBILITY>
4.71e-03 g/l

> <JCHEM_TRADITIONAL_IUPAC>
2-{[3-(4-cyanonaphthalen-1-yl)pyridin-4-yl]sulfanyl}-2-methylpropanoic acid

> <JCHEM_VEBER_RULE>
0

> <DRUGBANK_ID>
DB11873

> <DRUG_GROUPS>
investigational

> <GENERIC_NAME>
Verinurad

> <SYNONYMS>
Verinurad

$$$$
