
  Mrv1909 09142218002D          

 23 25  0  0  0  0            999 V2000
   -0.9373   -1.5316    0.0000 C   0  0  0  0  0  0  0  0  0  0  0  0
   -0.2228   -1.9441    0.0000 O   0  0  0  0  0  0  0  0  0  0  0  0
    0.4917   -1.5316    0.0000 C   0  0  0  0  0  0  0  0  0  0  0  0
    0.4917   -0.7066    0.0000 C   0  0  0  0  0  0  0  0  0  0  0  0
    1.2062   -0.2941    0.0000 C   0  0  0  0  0  0  0  0  0  0  0  0
    1.9206   -0.7066    0.0000 C   0  0  0  0  0  0  0  0  0  0  0  0
    2.5656   -0.1923    0.0000 S   0  0  0  0  0  0  0  0  0  0  0  0
    3.3700   -0.3758    0.0000 C   0  0  0  0  0  0  0  0  0  0  0  0
    3.7279   -1.1191    0.0000 C   0  0  0  0  0  0  0  0  0  0  0  0
    3.3700   -1.8624    0.0000 N   0  0  0  0  0  0  0  0  0  0  0  0
    3.8843   -2.5075    0.0000 C   0  0  0  0  0  0  0  0  0  0  0  0
    3.5829   -3.2754    0.0000 C   0  0  0  0  0  0  0  0  0  0  0  0
    4.0973   -3.9204    0.0000 C   0  0  0  0  0  0  0  0  0  0  0  0
    3.7959   -4.6884    0.0000 C   0  0  0  0  0  0  0  0  0  0  0  0
    2.9801   -4.8114    0.0000 C   0  0  0  0  0  0  0  0  0  0  0  0
    2.4657   -4.1664    0.0000 C   0  0  0  0  0  0  0  0  0  0  0  0
    2.7671   -3.3984    0.0000 C   0  0  0  0  0  0  0  0  0  0  0  0
    2.6787   -5.5793    0.0000 C   0  0  0  0  0  0  0  0  0  0  0  0
    3.1931   -6.2244    0.0000 O   0  0  0  0  0  0  0  0  0  0  0  0
    1.8629   -5.7023    0.0000 O   0  0  0  0  0  0  0  0  0  0  0  0
    2.5656   -2.0460    0.0000 C   0  0  0  0  0  0  0  0  0  0  0  0
    1.9206   -1.5316    0.0000 C   0  0  0  0  0  0  0  0  0  0  0  0
    1.2062   -1.9441    0.0000 C   0  0  0  0  0  0  0  0  0  0  0  0
  1  2  1  0  0  0  0
  2  3  1  0  0  0  0
  3  4  2  0  0  0  0
  4  5  1  0  0  0  0
  5  6  2  0  0  0  0
  6  7  1  0  0  0  0
  7  8  1  0  0  0  0
  8  9  1  0  0  0  0
  9 10  1  0  0  0  0
 10 11  1  0  0  0  0
 11 12  1  0  0  0  0
 12 13  2  0  0  0  0
 13 14  1  0  0  0  0
 14 15  2  0  0  0  0
 15 16  1  0  0  0  0
 16 17  2  0  0  0  0
 12 17  1  0  0  0  0
 15 18  1  0  0  0  0
 18 19  1  0  0  0  0
 18 20  2  0  0  0  0
 10 21  1  0  0  0  0
 21 22  1  0  0  0  0
  6 22  1  0  0  0  0
 22 23  2  0  0  0  0
  3 23  1  0  0  0  0
M  END
> <DATABASE_ID>
DB16944

> <DATABASE_NAME>
drugbank

> <SMILES>
COC1=CC=C2SCCN(CC3=CC=C(C=C3)C(O)=O)CC2=C1

> <INCHI_IDENTIFIER>
InChI=1S/C18H19NO3S/c1-22-16-6-7-17-15(10-16)12-19(8-9-23-17)11-13-2-4-14(5-3-13)18(20)21/h2-7,10H,8-9,11-12H2,1H3,(H,20,21)

> <INCHI_KEY>
JIGDAUOKKYKRKO-UHFFFAOYSA-N

> <FORMULA>
C18H19NO3S

> <MOLECULAR_WEIGHT>
329.41

> <EXACT_MASS>
329.10856465

> <JCHEM_ACCEPTOR_COUNT>
4

> <JCHEM_ATOM_COUNT>
42

> <JCHEM_AVERAGE_NEUTRAL_MICROSPECIES_CHARGE>
-0.16698325907136935

> <JCHEM_AVERAGE_POLARIZABILITY>
35.6294692860256

> <JCHEM_BIOAVAILABILITY>
1

> <JCHEM_DONOR_COUNT>
1

> <JCHEM_FORMAL_CHARGE>
0

> <JCHEM_GHOSE_FILTER>
1

> <JCHEM_IUPAC>
4-[(7-methoxy-2,3,4,5-tetrahydro-1,4-benzothiazepin-4-yl)methyl]benzoic acid

> <ALOGPS_LOGP>
3.01

> <JCHEM_LOGP>
0.6473879384272196

> <ALOGPS_LOGS>
-4.74

> <JCHEM_MDDR_LIKE_RULE>
0

> <JCHEM_NEUTRAL_CHARGE>
0

> <JCHEM_NUMBER_OF_RINGS>
3

> <JCHEM_PHYSIOLOGICAL_CHARGE>
0

> <JCHEM_PKA_STRONGEST_ACIDIC>
3.6807761944265454

> <JCHEM_PKA_STRONGEST_BASIC>
7.696587693070058

> <JCHEM_POLAR_SURFACE_AREA>
49.77

> <JCHEM_REFRACTIVITY>
93.9258

> <JCHEM_ROTATABLE_BOND_COUNT>
4

> <JCHEM_RULE_OF_FIVE>
1

> <ALOGPS_SOLUBILITY>
6.04e-03 g/l

> <JCHEM_TRADITIONAL_IUPAC>
6-cyclopropaneamido-N-[hydroxy(2H2)methyl]-4-{[2-methoxy-3-(1-methyl-1,2,4-triazol-3-yl)phenyl]amino}pyridazine-3-carboxamide

> <JCHEM_VEBER_RULE>
0

> <DRUGBANK_ID>
DB16944

> <DRUG_GROUPS>
investigational

> <GENERIC_NAME>
ARM-210

> <SYNONYMS>
4-((7-methoxy-2,3-dihydro-1,4-benzothiazepin-4(5h)-yl)methyl)benzoic acid; Benzoic acid, 4-((2,3-dihydro-7-methoxy-1,4-benzothiazepin-4(5h)-yl)methyl)-; Rycal dmd

> <SALTS>
ARM-210 hemifumarate

$$$$
