
  Mrv1909 12152018182D          

 37 40  0  0  0  0            999 V2000
    5.6091    1.5884    0.0000 O   0  0  0  0  0  0  0  0  0  0  0  0
    4.8946    1.1759    0.0000 C   0  0  0  0  0  0  0  0  0  0  0  0
    4.1801    0.7634    0.0000 C   0  0  0  0  0  0  0  0  0  0  0  0
    3.4656    1.1759    0.0000 N   0  0  0  0  0  0  0  0  0  0  0  0
    2.7512    0.7634    0.0000 C   0  0  0  0  0  0  0  0  0  0  0  0
    2.7512   -0.0616    0.0000 N   0  0  0  0  0  0  0  0  0  0  0  0
    2.0367   -0.4741    0.0000 C   0  0  0  0  0  0  0  0  0  0  0  0
    1.3222   -0.0616    0.0000 N   0  0  0  0  0  0  0  0  0  0  0  0
    1.3222    0.7634    0.0000 C   0  0  0  0  0  0  0  0  0  0  0  0
    2.0367    1.1759    0.0000 C   0  0  0  0  0  0  0  0  0  0  0  0
    2.0367    2.0009    0.0000 F   0  0  0  0  0  0  0  0  0  0  0  0
    2.0367   -1.2991    0.0000 C   0  0  0  0  0  0  0  0  0  0  0  0
    1.3693   -1.7840    0.0000 N   0  0  0  0  0  0  0  0  0  0  0  0
    1.6242   -2.5687    0.0000 N   0  0  0  0  0  0  0  0  0  0  0  0
    1.1393   -3.2361    0.0000 C   0  0  0  0  0  0  0  0  0  0  0  0
    0.3188   -3.1499    0.0000 C   0  0  0  0  0  0  0  0  0  0  0  0
   -0.1661   -3.8173    0.0000 C   0  0  0  0  0  0  0  0  0  0  0  0
    0.1694   -4.5710    0.0000 F   0  0  0  0  0  0  0  0  0  0  0  0
   -0.9866   -3.7311    0.0000 C   0  0  0  0  0  0  0  0  0  0  0  0
   -1.3222   -2.9774    0.0000 C   0  0  0  0  0  0  0  0  0  0  0  0
   -0.8372   -2.3099    0.0000 C   0  0  0  0  0  0  0  0  0  0  0  0
   -0.0168   -2.3962    0.0000 C   0  0  0  0  0  0  0  0  0  0  0  0
    2.4492   -2.5687    0.0000 C   0  0  0  0  0  0  0  0  0  0  0  0
    2.7041   -1.7840    0.0000 C   0  0  0  0  0  0  0  0  0  0  0  0
    2.9341   -3.2361    0.0000 C   0  0  0  0  0  0  0  0  0  0  0  0
    2.6792   -4.0207    0.0000 N   0  0  0  0  0  0  0  0  0  0  0  0
    3.3466   -4.5056    0.0000 O   0  0  0  0  0  0  0  0  0  0  0  0
    4.0141   -4.0207    0.0000 C   0  0  0  0  0  0  0  0  0  0  0  0
    3.7591   -3.2361    0.0000 C   0  0  0  0  0  0  0  0  0  0  0  0
    5.3071    0.4614    0.0000 C   0  0  0  0  0  0  0  0  0  0  0  0
    5.7196   -0.2530    0.0000 F   0  0  0  0  0  0  0  0  0  0  0  0
    4.5926    0.0489    0.0000 F   0  0  0  0  0  0  0  0  0  0  0  0
    6.0216    0.8739    0.0000 F   0  0  0  0  0  0  0  0  0  0  0  0
    4.4821    1.8904    0.0000 C   0  0  0  0  0  0  0  0  0  0  0  0
    4.0696    2.6048    0.0000 F   0  0  0  0  0  0  0  0  0  0  0  0
    5.1966    2.3029    0.0000 F   0  0  0  0  0  0  0  0  0  0  0  0
    3.7676    1.4779    0.0000 F   0  0  0  0  0  0  0  0  0  0  0  0
  1  2  1  0  0  0  0
  2  3  1  0  0  0  0
  3  4  1  0  0  0  0
  4  5  1  0  0  0  0
  5  6  2  0  0  0  0
  6  7  1  0  0  0  0
  7  8  2  0  0  0  0
  8  9  1  0  0  0  0
  9 10  2  0  0  0  0
  5 10  1  0  0  0  0
 10 11  1  0  0  0  0
  7 12  1  0  0  0  0
 12 13  2  0  0  0  0
 13 14  1  0  0  0  0
 14 15  1  0  0  0  0
 15 16  1  0  0  0  0
 16 17  2  0  0  0  0
 17 18  1  0  0  0  0
 17 19  1  0  0  0  0
 19 20  2  0  0  0  0
 20 21  1  0  0  0  0
 21 22  2  0  0  0  0
 16 22  1  0  0  0  0
 14 23  1  0  0  0  0
 23 24  2  0  0  0  0
 12 24  1  0  0  0  0
 23 25  1  0  0  0  0
 25 26  2  0  0  0  0
 26 27  1  0  0  0  0
 27 28  1  0  0  0  0
 28 29  2  0  0  0  0
 25 29  1  0  0  0  0
  2 30  1  0  0  0  0
 30 31  1  0  0  0  0
 30 32  1  0  0  0  0
 30 33  1  0  0  0  0
  2 34  1  0  0  0  0
 34 35  1  0  0  0  0
 34 36  1  0  0  0  0
 34 37  1  0  0  0  0
M  END
> <DATABASE_ID>
DB16300

> <DATABASE_NAME>
drugbank

> <SMILES>
OC(CNC1=NC(=NC=C1F)C1=NN(CC2=C(F)C=CC=C2)C(=C1)C1=NOC=C1)(C(F)(F)F)C(F)(F)F

> <INCHI_IDENTIFIER>
InChI=1S/C21H14F8N6O2/c22-12-4-2-1-3-11(12)9-35-16(14-5-6-37-34-14)7-15(33-35)18-30-8-13(23)17(32-18)31-10-19(36,20(24,25)26)21(27,28)29/h1-8,36H,9-10H2,(H,30,31,32)

> <INCHI_KEY>
CYSJNTQNMDWAJV-UHFFFAOYSA-N

> <FORMULA>
C21H14F8N6O2

> <MOLECULAR_WEIGHT>
534.37

> <EXACT_MASS>
534.105049019

> <JCHEM_ACCEPTOR_COUNT>
6

> <JCHEM_ATOM_COUNT>
51

> <JCHEM_AVERAGE_NEUTRAL_MICROSPECIES_CHARGE>
-0.187738517192024

> <JCHEM_AVERAGE_POLARIZABILITY>
43.09937206765435

> <JCHEM_BIOAVAILABILITY>
1

> <JCHEM_DONOR_COUNT>
2

> <JCHEM_FORMAL_CHARGE>
0

> <JCHEM_GHOSE_FILTER>
0

> <JCHEM_IUPAC>
1,1,1-trifluoro-3-[(5-fluoro-2-{1-[(2-fluorophenyl)methyl]-5-(1,2-oxazol-3-yl)-1H-pyrazol-3-yl}pyrimidin-4-yl)amino]-2-(trifluoromethyl)propan-2-ol

> <ALOGPS_LOGP>
4.54

> <JCHEM_LOGP>
4.781917317333333

> <ALOGPS_LOGS>
-4.26

> <JCHEM_MDDR_LIKE_RULE>
1

> <JCHEM_NEUTRAL_CHARGE>
0

> <JCHEM_NUMBER_OF_RINGS>
4

> <JCHEM_PHYSIOLOGICAL_CHARGE>
0

> <JCHEM_PKA>
15.392187159017508

> <JCHEM_PKA_STRONGEST_ACIDIC>
7.636140681963657

> <JCHEM_PKA_STRONGEST_BASIC>
0.8217895684976937

> <JCHEM_POLAR_SURFACE_AREA>
101.89000000000001

> <JCHEM_REFRACTIVITY>
135.0535

> <JCHEM_ROTATABLE_BOND_COUNT>
9

> <JCHEM_RULE_OF_FIVE>
0

> <ALOGPS_SOLUBILITY>
2.92e-02 g/l

> <JCHEM_TRADITIONAL_IUPAC>
5-({4-[2-(3-methoxyphenyl)-2-oxoethoxy]phenyl}methyl)-1,3-thiazolidine-2,4-dione

> <JCHEM_VEBER_RULE>
0

> <DRUGBANK_ID>
DB16300

> <DRUG_GROUPS>
investigational

> <GENERIC_NAME>
Praliciguat

> <SYNONYMS>
Praliciguat

$$$$
