
  Mrv1572004221603112D          

 17 18  0  0  0  0            999 V2000
    4.2868   -1.6500    0.0000 C   0  0  0  0  0  0  0  0  0  0  0  0
    5.0013   -1.2375    0.0000 C   0  0  0  0  0  0  0  0  0  0  0  0
    3.5724   -1.2375    0.0000 C   0  0  0  0  0  0  0  0  0  0  0  0
    5.0013   -0.4125    0.0000 C   0  0  0  0  0  0  0  0  0  0  0  0
    3.5724   -0.4125    0.0000 C   0  0  0  0  0  0  0  0  0  0  0  0
    2.8579    3.3000    0.0000 C   0  0  0  0  0  0  0  0  0  0  0  0
    2.8579    2.4750    0.0000 C   0  0  0  0  0  0  0  0  0  0  0  0
    4.2868    3.3000    0.0000 C   0  0  0  0  0  0  0  0  0  0  0  0
    3.5724    3.7125    0.0000 C   0  0  0  0  0  0  0  0  0  0  0  0
    4.2868    0.0000    0.0000 C   0  0  0  0  0  0  0  0  0  0  0  0
    3.5724    2.0625    0.0000 C   0  0  0  0  0  0  0  0  0  0  0  0
    4.2868    2.4750    0.0000 C   0  0  0  0  0  0  0  0  0  0  0  0
    3.5724    1.2375    0.0000 C   0  0  0  0  0  0  0  0  0  0  0  0
    3.5724    4.5375    0.0000 N   0  0  0  0  0  0  0  0  0  0  0  0
    5.0013    2.0625    0.0000 O   0  0  0  0  0  0  0  0  0  0  0  0
    2.8579    0.8250    0.0000 O   0  0  0  0  0  0  0  0  0  0  0  0
    4.2868    0.8250    0.0000 O   0  0  0  0  0  0  0  0  0  0  0  0
  2  1  2  0  0  0  0
  3  1  1  0  0  0  0
  4  2  1  0  0  0  0
  5  3  2  0  0  0  0
  7  6  2  0  0  0  0
  9  6  1  0  0  0  0
  9  8  2  0  0  0  0
 10  4  2  0  0  0  0
 10  5  1  0  0  0  0
 11  7  1  0  0  0  0
 12  8  1  0  0  0  0
 12 11  2  0  0  0  0
 13 11  1  0  0  0  0
 14  9  1  0  0  0  0
 15 12  1  0  0  0  0
 16 13  2  0  0  0  0
 17 10  1  0  0  0  0
 17 13  1  0  0  0  0
M  END
> <DATABASE_ID>
DB06807

> <DATABASE_NAME>
drugbank

> <SMILES>
NC1=CC(O)=C(C=C1)C(=O)OC1=CC=CC=C1

> <INCHI_IDENTIFIER>
InChI=1S/C13H11NO3/c14-9-6-7-11(12(15)8-9)13(16)17-10-4-2-1-3-5-10/h1-8,15H,14H2

> <INCHI_KEY>
DNVVZWSVACQWJE-UHFFFAOYSA-N

> <FORMULA>
C13H11NO3

> <MOLECULAR_WEIGHT>
229.235

> <EXACT_MASS>
229.073893218

> <JCHEM_ACCEPTOR_COUNT>
3

> <JCHEM_ATOM_COUNT>
28

> <JCHEM_AVERAGE_POLARIZABILITY>
23.52471333135903

> <JCHEM_BIOAVAILABILITY>
1

> <JCHEM_DONOR_COUNT>
2

> <JCHEM_FORMAL_CHARGE>
0

> <JCHEM_GHOSE_FILTER>
1

> <JCHEM_IUPAC>
phenyl 4-amino-2-hydroxybenzoate

> <ALOGPS_LOGP>
3.03

> <JCHEM_LOGP>
3.1521899529999997

> <ALOGPS_LOGS>
-3.12

> <JCHEM_MDDR_LIKE_RULE>
0

> <JCHEM_NUMBER_OF_RINGS>
2

> <JCHEM_PHYSIOLOGICAL_CHARGE>
0

> <JCHEM_PKA_STRONGEST_ACIDIC>
9.870259987961322

> <JCHEM_PKA_STRONGEST_BASIC>
2.3160689679436066

> <JCHEM_POLAR_SURFACE_AREA>
72.55

> <JCHEM_REFRACTIVITY>
64.54220000000001

> <JCHEM_ROTATABLE_BOND_COUNT>
3

> <JCHEM_RULE_OF_FIVE>
1

> <ALOGPS_SOLUBILITY>
1.73e-01 g/l

> <JCHEM_TRADITIONAL_IUPAC>
tebamin

> <JCHEM_VEBER_RULE>
0

> <DRUGBANK_ID>
DB06807

> <DRUG_GROUPS>
approved

> <GENERIC_NAME>
Phenyl aminosalicylate

> <SYNONYMS>
Fenamisal; Fenamisalum; p-Aminosalol; Phenyl 4-aminosalicylate; Phenyl aminosalicylate; Phenyl PAS

$$$$
