
  Mrv1909 03092021512D          

 63 69  0  0  0  0            999 V2000
   -5.0881    0.5877    0.0000 C   0  0  0  0  0  0  0  0  0  0  0  0
   -4.6353   -0.1018    0.0000 C   0  0  0  0  0  0  0  0  0  0  0  0
   -4.2646    0.6352    0.0000 C   0  0  0  0  0  0  0  0  0  0  0  0
   -2.3815   -1.9195    0.0000 C   0  0  0  0  0  0  0  0  0  0  0  0
   -1.8907   -1.2563    0.0000 C   0  0  1  0  0  0  0  0  0  0  0  0
   -1.5618   -2.0128    0.0000 C   0  0  2  0  0  0  0  0  0  0  0  0
   -2.5547   -0.7615    0.0000 C   0  0  0  0  0  0  0  0  0  0  0  0
   -3.3124   -1.0878    0.0000 N   0  0  0  0  0  0  0  0  0  0  0  0
   -2.4585    0.0579    0.0000 O   0  0  0  0  0  0  0  0  0  0  0  0
   -3.9739   -0.5947    0.0000 S   0  0  0  0  0  0  0  0  0  0  0  0
   -4.4669   -1.2563    0.0000 O   0  0  0  0  0  0  0  0  0  0  0  0
   -3.4808    0.0665    0.0000 O   0  0  0  0  0  0  0  0  0  0  0  0
   -5.2357   -0.6675    0.0000 C   0  0  0  0  0  0  0  0  0  0  0  0
    0.3546    0.2357    0.0000 C   0  0  1  0  0  0  0  0  0  0  0  0
    1.1237   -0.0619    0.0000 C   0  0  0  0  0  0  0  0  0  0  0  0
    1.0782   -0.8855    0.0000 N   0  0  0  0  0  0  0  0  0  0  0  0
    0.2808   -1.0967    0.0000 C   0  0  1  0  0  0  0  0  0  0  0  0
   -0.1663   -0.4037    0.0000 C   0  0  0  0  0  0  0  0  0  0  0  0
    3.9256    2.2775    0.0000 C   0  0  2  0  0  0  0  0  0  0  0  0
    4.6848    2.6100    0.0000 C   0  0  0  0  0  0  0  0  0  0  0  0
    5.2357    1.9909    0.0000 C   0  0  0  0  0  0  0  0  0  0  0  0
    4.8171    1.2754    0.0000 C   0  0  0  0  0  0  0  0  0  0  0  0
    4.0073    1.4526    0.0000 C   0  0  1  0  0  0  0  0  0  0  0  0
    3.2136    2.6940    0.0000 O   0  0  0  0  0  0  0  0  0  0  0  0
    3.3911    0.9042    0.0000 O   0  0  0  0  0  0  0  0  0  0  0  0
    3.8112    3.0975    0.0000 H   0  0  0  0  0  0  0  0  0  0  0  0
    4.1367    0.6395    0.0000 H   0  0  0  0  0  0  0  0  0  0  0  0
    2.4967    2.2859    0.0000 C   0  0  0  0  0  0  0  0  0  0  0  0
    1.7846    2.7026    0.0000 C   0  0  0  0  0  0  0  0  0  0  0  0
    1.0677    2.2944    0.0000 C   0  0  0  0  0  0  0  0  0  0  0  0
    0.3558    2.7110    0.0000 C   0  0  0  0  0  0  0  0  0  0  0  0
   -0.3610    2.3026    0.0000 C   0  0  0  0  0  0  0  0  0  0  0  0
    0.7473    3.4372    0.0000 F   0  0  0  0  0  0  0  0  0  0  0  0
   -0.0272    3.4417    0.0000 F   0  0  0  0  0  0  0  0  0  0  0  0
   -0.3614    1.4746    0.0000 C   0  0  0  0  0  0  0  0  0  0  0  0
   -1.0742    1.0663    0.0000 N   0  0  0  0  0  0  0  0  0  0  0  0
   -1.0685    2.7183    0.0000 N   0  0  0  0  0  0  0  0  0  0  0  0
   -1.7858    2.3056    0.0000 C   0  0  0  0  0  0  0  0  0  0  0  0
   -1.7858    1.4761    0.0000 C   0  0  0  0  0  0  0  0  0  0  0  0
   -2.5002    1.0635    0.0000 C   0  0  0  0  0  0  0  0  0  0  0  0
   -3.2192    1.4760    0.0000 C   0  0  0  0  0  0  0  0  0  0  0  0
   -3.2192    2.3056    0.0000 C   0  0  0  0  0  0  0  0  0  0  0  0
   -2.5003    2.7226    0.0000 C   0  0  0  0  0  0  0  0  0  0  0  0
    0.3521    1.0606    0.0000 O   0  0  0  0  0  0  0  0  0  0  0  0
   -0.3093    0.7329    0.0000 H   0  0  0  0  0  0  0  0  0  0  0  0
   -0.4714   -1.4231    0.0000 C   0  0  0  0  0  0  0  0  0  0  0  0
    0.4103   -1.9106    0.0000 H   0  0  0  0  0  0  0  0  0  0  0  0
   -0.5654   -2.2428    0.0000 O   0  0  0  0  0  0  0  0  0  0  0  0
   -1.1342   -0.9319    0.0000 N   0  0  0  0  0  0  0  0  0  0  0  0
    1.7178   -1.4066    0.0000 C   0  0  0  0  0  0  0  0  0  0  0  0
    2.4889   -1.1130    0.0000 C   0  0  1  0  0  0  0  0  0  0  0  0
    1.5865   -2.2211    0.0000 O   0  0  0  0  0  0  0  0  0  0  0  0
    2.6203   -0.2986    0.0000 N   0  0  0  0  0  0  0  0  0  0  0  0
    3.3913   -0.0052    0.0000 C   0  0  0  0  0  0  0  0  0  0  0  0
    4.0707   -0.4733    0.0000 O   0  0  0  0  0  0  0  0  0  0  0  0
    3.0384   -1.7286    0.0000 C   0  0  0  0  0  0  0  0  0  0  0  0
    3.3478   -0.9639    0.0000 H   0  0  0  0  0  0  0  0  0  0  0  0
    3.5876   -2.3441    0.0000 C   0  0  0  0  0  0  0  0  0  0  0  0
    3.7935   -1.3963    0.0000 C   0  0  0  0  0  0  0  0  0  0  0  0
    2.4777   -2.3508    0.0000 C   0  0  0  0  0  0  0  0  0  0  0  0
   -1.1493   -2.7273    0.0000 C   0  0  0  0  0  0  0  0  0  0  0  0
   -1.5618   -3.4417    0.0000 F   0  0  0  0  0  0  0  0  0  0  0  0
   -0.3524   -2.9407    0.0000 F   0  0  0  0  0  0  0  0  0  0  0  0
 24 28  1  0  0  0  0
  5  4  1  0  0  0  0
 28 29  1  0  0  0  0
 29 30  2  0  0  0  0
  7  8  1  0  0  0  0
 30 31  1  0  0  0  0
 31 32  1  0  0  0  0
 14 15  1  0  0  0  0
 31 33  1  0  0  0  0
  6  5  1  0  0  0  0
 31 34  1  0  0  0  0
 32 35  1  0  0  0  0
  7  9  2  0  0  0  0
  4  6  1  0  0  0  0
  8 10  1  0  0  0  0
 32 37  2  0  0  0  0
 35 36  2  0  0  0  0
 36 39  1  0  0  0  0
 38 37  1  0  0  0  0
 38 39  2  0  0  0  0
 10  2  1  0  0  0  0
 15 16  1  0  0  0  0
 16 17  1  0  0  0  0
 17 18  1  0  0  0  0
 18 14  1  0  0  0  0
 19 20  1  0  0  0  0
 38 43  1  0  0  0  0
 39 40  1  0  0  0  0
 40 41  2  0  0  0  0
 41 42  1  0  0  0  0
 42 43  2  0  0  0  0
  1  3  1  0  0  0  0
 35 44  1  0  0  0  0
 14 44  1  1  0  0  0
 10 11  2  0  0  0  0
 14 45  1  6  0  0  0
 17 46  1  6  0  0  0
 10 12  2  0  0  0  0
 17 47  1  1  0  0  0
  2  1  1  0  0  0  0
 46 48  2  0  0  0  0
 20 21  1  0  0  0  0
 46 49  1  0  0  0  0
 21 22  1  0  0  0  0
 16 50  1  0  0  0  0
 22 23  1  0  0  0  0
 50 51  1  0  0  0  0
 23 19  1  0  0  0  0
 50 52  2  0  0  0  0
  2 13  1  0  0  0  0
 51 53  1  0  0  0  0
 19 24  1  6  0  0  0
 53 54  1  0  0  0  0
 25 54  1  0  0  0  0
  3  2  1  0  0  0  0
 54 55  2  0  0  0  0
 23 25  1  1  0  0  0
 51 56  1  1  0  0  0
 51 57  1  6  0  0  0
 19 26  1  1  0  0  0
 56 58  1  0  0  0  0
 56 59  1  0  0  0  0
 23 27  1  6  0  0  0
 56 60  1  0  0  0  0
  5 49  1  1  0  0  0
  5  7  1  6  0  0  0
 61 62  1  0  0  0  0
 61 63  1  0  0  0  0
  6 61  1  6  0  0  0
M  END
> <DATABASE_ID>
DB13879

> <DATABASE_NAME>
drugbank

> <SMILES>
[H][C@@]12CN(C(=O)[C@@]([H])(NC(=O)O[C@]3([H])CCC[C@@]3([H])OC\C=C\C(F)(F)C3=NC4=C(C=CC=C4)N=C3O1)C(C)(C)C)[C@@]([H])(C2)C(=O)N[C@@]1(C[C@H]1C(F)F)C(=O)NS(=O)(=O)C1(C)CC1

> <INCHI_IDENTIFIER>
InChI=1S/C38H46F4N6O9S/c1-35(2,3)28-32(50)48-19-20(17-24(48)30(49)46-37(18-21(37)29(39)40)33(51)47-58(53,54)36(4)14-15-36)56-31-27(43-22-9-5-6-10-23(22)44-31)38(41,42)13-8-16-55-25-11-7-12-26(25)57-34(52)45-28/h5-6,8-10,13,20-21,24-26,28-29H,7,11-12,14-19H2,1-4H3,(H,45,52)(H,46,49)(H,47,51)/b13-8+/t20-,21+,24+,25-,26-,28-,37-/m1/s1

> <INCHI_KEY>
MLSQGNCUYAMAHD-ITNVBOSISA-N

> <FORMULA>
C38H46F4N6O9S

> <MOLECULAR_WEIGHT>
838.87

> <EXACT_MASS>
838.298310911

> <JCHEM_ACCEPTOR_COUNT>
10

> <JCHEM_ATOM_COUNT>
104

> <JCHEM_AVERAGE_NEUTRAL_MICROSPECIES_CHARGE>
-0.9995394206856912

> <JCHEM_AVERAGE_POLARIZABILITY>
78.88575215057253

> <JCHEM_BIOAVAILABILITY>
1

> <JCHEM_DONOR_COUNT>
3

> <JCHEM_FORMAL_CHARGE>
0

> <JCHEM_GHOSE_FILTER>
0

> <JCHEM_IUPAC>
(1R,14E,18R,22R,26S,29S)-26-tert-butyl-N-[(1R,2R)-2-(difluoromethyl)-1-{[(1-methylcyclopropyl)sulfonyl]carbamoyl}cyclopropyl]-13,13-difluoro-24,27-dioxo-2,17,23-trioxa-4,11,25,28-tetraazapentacyclo[26.2.1.0^{3,12}.0^{5,10}.0^{18,22}]hentriaconta-3,5(10),6,8,11,14-hexaene-29-carboxamide

> <ALOGPS_LOGP>
4.26

> <JCHEM_LOGP>
3.9549761359999973

> <ALOGPS_LOGS>
-4.26

> <JCHEM_MDDR_LIKE_RULE>
1

> <JCHEM_NEUTRAL_CHARGE>
-1

> <JCHEM_NUMBER_OF_RINGS>
7

> <JCHEM_PHYSIOLOGICAL_CHARGE>
-1

> <JCHEM_PKA>
11.119964403304545

> <JCHEM_PKA_STRONGEST_ACIDIC>
3.7443631239978403

> <JCHEM_PKA_STRONGEST_BASIC>
-1.196435525666657

> <JCHEM_POLAR_SURFACE_AREA>
195.22

> <JCHEM_REFRACTIVITY>
194.55090000000004

> <JCHEM_ROTATABLE_BOND_COUNT>
6

> <JCHEM_RULE_OF_FIVE>
0

> <ALOGPS_SOLUBILITY>
4.63e-02 g/l

> <JCHEM_TRADITIONAL_IUPAC>
(4S)-4-[({[(1S,2R)-1-{[(1S)-1-{[(1S,2R)-1-{[(1S)-1-{[(1S)-1-{[(1S)-1-{[(1S)-1-{[(1S)-5-amino-1-{[(1S)-1-{[(1S)-1-{[(1S)-1-{[(1S)-1-{[(1S)-1-{[(1S)-1-{[(1S)-1-{[(1S)-1-{[(1S)-1-{[(1S)-1-{[(1S,2S)-1-{[(1S)-1-{[(1S)-1-{[(1S)-1-{[(1S)-5-amino-1-{[(1S)-1-{[({2-[(2S)-2-{[(1S)-1-{[(1S)-1-[({[(2S)-1-[(2S)-2-[(2S)-2-{[(1S)-1-{[(1S)-5-amino-1-{[(1S)-5-amino-1-{[(1S)-5-amino-1-{[(1S)-5-amino-1-{[(1S)-5-amino-1-{[(1S)-5-amino-1-carbamoylpentyl]carbamoyl}pentyl]carbamoyl}pentyl]carbamoyl}pentyl]carbamoyl}pentyl]carbamoyl}pentyl]carbamoyl}-2-hydroxyethyl]carbamoyl}pyrrolidine-1-carbonyl]pyrrolidin-1-yl]-1-oxopropan-2-yl]carbamoyl}methyl)carbamoyl]-2-hydroxyethyl]carbamoyl}-2-hydroxyethyl]carbamoyl}pyrrolidin-1-yl]-2-oxoethyl}carbamoyl)methyl]carbamoyl}-2-carbamoylethyl]carbamoyl}pentyl]carbamoyl}-3-methylbutyl]carbamoyl}-2-(1H-indol-3-yl)ethyl]carbamoyl}-3-carboxypropyl]carbamoyl}-2-methylbutyl]carbamoyl}-2-phenylethyl]carbamoyl}-3-methylbutyl]carbamoyl}-4-carbamimidamidobutyl]carbamoyl}-2-methylpropyl]carbamoyl}ethyl]carbamoyl}-3-carboxypropyl]carbamoyl}-3-carboxypropyl]carbamoyl}-3-carboxypropyl]carbamoyl}-3-(methylsulfanyl)propyl]carbamoyl}-3-carbamoylpropyl]carbamoyl}pentyl]carbamoyl}-2-hydroxyethyl]carbamoyl}-3-methylbutyl]carbamoyl}-2-carboxyethyl]carbamoyl}-2-hydroxyethyl]carbamoyl}-2-hydroxypropyl]carbamoyl}-2-phenylethyl]carbamoyl}-2-hydroxypropyl]carbamoyl}methyl)carbamoyl]-4-{2-[(2S)-2-amino-3-(1H-imidazol-4-yl)propanamido]acetamido}butanoic acid

> <JCHEM_VEBER_RULE>
0

> <DRUGBANK_ID>
DB13879

> <DRUG_GROUPS>
approved; investigational

> <GENERIC_NAME>
Glecaprevir

> <SYNONYMS>
GlÃ©caprÃ©vir; Glecaprevir; Glecaprevirum

> <PRODUCTS>
Maviret; Mavyret

$$$$
