
  Mrv1572004101616362D          

 72 75  0  0  0  0            999 V2000
   -3.5644    3.0356    0.0000 N   0  0  0  0  0  0  0  0  0  0  0  0
   -2.8630    3.4482    0.0000 C   0  0  2  0  0  0  0  0  0  0  0  0
   -3.5644    2.2106    0.0000 C   0  0  0  0  0  0  0  0  0  0  0  0
   -4.3070    3.4482    0.0000 C   0  0  0  0  0  0  0  0  0  0  0  0
   -2.1617    3.0356    0.0000 C   0  0  0  0  0  0  0  0  0  0  0  0
   -2.8630    4.2732    0.0000 C   0  0  0  0  0  0  0  0  0  0  0  0
   -4.3070    1.7981    0.0000 C   0  0  0  0  0  0  0  0  0  0  0  0
   -2.8630    1.7981    0.0000 O   0  0  0  0  0  0  0  0  0  0  0  0
   -4.3070    4.2732    0.0000 C   0  0  0  0  0  0  0  0  0  0  0  0
   -1.4604    3.4482    0.0000 O   0  0  0  0  0  0  0  0  0  0  0  0
   -2.1617    2.3755    0.0000 O   0  0  0  0  0  0  0  0  0  0  0  0
   -3.5644    4.7270    0.0000 C   0  0  0  0  0  0  0  0  0  0  0  0
   -4.3070    0.9729    0.0000 C   0  0  2  0  0  0  0  0  0  0  0  0
   -5.0083    2.2518    0.0000 O   0  0  0  0  0  0  0  0  0  0  0  0
   -0.7178    3.0356    0.0000 C   0  0  2  0  0  0  0  0  0  0  0  0
   -3.6057    0.5603    0.0000 O   0  0  0  0  0  0  0  0  0  0  0  0
   -5.0496    0.5603    0.0000 C   0  0  1  0  0  0  0  0  0  0  0  0
   -3.6434    1.3755    0.0000 O   0  0  0  0  0  0  0  0  0  0  0  0
   -0.0165    3.4482    0.0000 C   0  0  1  0  0  0  0  0  0  0  0  0
   -0.7178    2.2106    0.0000 C   0  0  0  0  0  0  0  0  0  0  0  0
   -3.5062   -0.0988    0.0000 C   0  0  2  0  0  0  0  0  0  0  0  0
   -5.0496   -0.2234    0.0000 C   0  0  0  0  0  0  0  0  0  0  0  0
   -5.7509    1.0142    0.0000 C   0  0  0  0  0  0  0  0  0  0  0  0
    0.7260    3.0356    0.0000 C   0  0  0  0  0  0  0  0  0  0  0  0
   -0.0165    4.2732    0.0000 C   0  0  0  0  0  0  0  0  0  0  0  0
   -0.0165    1.7981    0.0000 C   0  0  0  0  0  0  0  0  0  0  0  0
   -2.9044   -0.6772    0.0000 C   0  0  0  0  0  0  0  0  0  0  0  0
   -4.3070   -0.6772    0.0000 C   0  0  0  0  0  0  0  0  0  0  0  0
    1.4275    3.4482    0.0000 C   0  0  1  0  0  0  0  0  0  0  0  0
   -0.0165    0.9729    0.0000 C   0  0  1  0  0  0  0  0  0  0  0  0
    0.7260    2.2518    0.0000 O   0  0  0  0  0  0  0  0  0  0  0  0
   -2.9044   -1.5024    0.0000 C   0  0  1  0  0  0  0  0  0  0  0  0
    2.1287    3.0356    0.0000 C   0  0  0  0  0  0  0  0  0  0  0  0
    1.4275    4.2732    0.0000 C   0  0  0  0  0  0  0  0  0  0  0  0
    0.7260    0.5603    0.0000 C   0  0  0  0  0  0  0  0  0  0  0  0
   -0.7178    0.5603    0.0000 C   0  0  0  0  0  0  0  0  0  0  0  0
   -2.2030   -1.9149    0.0000 C   0  0  0  0  0  0  0  0  0  0  0  0
   -3.6057   -1.9149    0.0000 O   0  0  0  0  0  0  0  0  0  0  0  0
    2.8300    3.4482    0.0000 C   0  0  2  0  0  0  0  0  0  0  0  0
    2.1287    4.6858    0.0000 C   0  0  0  0  0  0  0  0  0  0  0  0
    0.7260   -0.2234    0.0000 C   0  0  0  0  0  0  0  0  0  0  0  0
   -2.2030   -2.7400    0.0000 C   0  0  0  0  0  0  0  0  0  0  0  0
   -1.4604   -1.5024    0.0000 C   0  0  0  0  0  0  0  0  0  0  0  0
   -3.6057   -2.7400    0.0000 C   0  0  0  0  0  0  0  0  0  0  0  0
    2.8300    4.2732    0.0000 C   0  0  1  0  0  0  0  0  0  0  0  0
    3.5726    3.0356    0.0000 O   0  0  0  0  0  0  0  0  0  0  0  0
    1.4275   -0.6360    0.0000 C   0  0  2  0  0  0  0  0  0  0  0  0
   -0.0165   -0.6360    0.0000 C   0  0  0  0  0  0  0  0  0  0  0  0
   -1.5016   -3.1526    0.0000 C   0  0  0  0  0  0  0  0  0  0  0  0
    3.5726    4.7270    0.0000 O   0  0  0  0  0  0  0  0  0  0  0  0
    1.4275   -1.4611    0.0000 C   0  0  2  0  0  0  0  0  0  0  0  0
    2.1287   -0.2234    0.0000 O   0  0  0  0  0  0  0  0  0  0  0  0
   -1.5016   -3.9776    0.0000 C   0  0  0  0  0  0  0  0  0  0  0  0
    2.1287   -1.8736    0.0000 C   0  0  0  0  0  0  0  0  0  0  0  0
    0.6848   -1.8736    0.0000 O   0  0  0  0  0  0  0  0  0  0  0  0
   -0.7590   -4.3902    0.0000 C   0  0  0  0  0  0  0  0  0  0  0  0
    2.1287   -2.6988    0.0000 C   0  0  1  0  0  0  0  0  0  0  0  0
    2.8300   -1.4611    0.0000 O   0  0  0  0  0  0  0  0  0  0  0  0
    0.6848   -2.6988    0.0000 C   0  0  0  0  0  0  0  0  0  0  0  0
   -0.0578   -3.9776    0.0000 C   0  0  0  0  0  0  0  0  0  0  0  0
    1.4275   -3.1114    0.0000 C   0  0  0  0  0  0  0  0  0  0  0  0
    2.8300   -3.1114    0.0000 C   0  0  0  0  0  0  0  0  0  0  0  0
    0.7672   -3.9776    0.0000 C   0  0  2  0  0  0  0  0  0  0  0  0
    0.9736   -4.7616    0.0000 C   0  0  0  0  0  0  0  0  0  0  0  0
   -2.8630    2.6643    0.0000 H   0  0  0  0  0  0  0  0  0  0  0  0
   -0.7465    4.0498    0.0000 H   0  0  0  0  0  0  0  0  0  0  0  0
   -2.8093    0.3037    0.0000 H   0  0  0  0  0  0  0  0  0  0  0  0
    1.4275    2.7055    0.0000 H   0  0  0  0  0  0  0  0  0  0  0  0
    4.3082    4.3263    0.0000 C   0  0  0  0  0  0  0  0  0  0  0  0
    5.0199    4.7616    0.0000 C   0  0  0  0  0  0  0  0  0  0  0  0
    5.7509    4.3638    0.0000 O   0  0  0  0  0  0  0  0  0  0  0  0
    4.2803    3.4599    0.0000 C   0  0  0  0  0  0  0  0  0  0  0  0
  1  2  1  0  0  0  0
  1  3  1  0  0  0  0
  1  4  1  0  0  0  0
  2  5  1  1  0  0  0
  2  6  1  0  0  0  0
  3  7  1  0  0  0  0
  3  8  2  0  0  0  0
  4  9  1  0  0  0  0
  5 10  1  0  0  0  0
  5 11  2  0  0  0  0
  6 12  1  0  0  0  0
  7 13  1  0  0  0  0
  7 14  2  0  0  0  0
 10 15  1  0  0  0  0
 13 16  1  6  0  0  0
 13 17  1  0  0  0  0
 13 18  1  1  0  0  0
 15 19  1  0  0  0  0
 15 20  1  0  0  0  0
 21 16  1  6  0  0  0
 17 22  1  0  0  0  0
 17 23  1  1  0  0  0
 19 24  1  0  0  0  0
 19 25  1  6  0  0  0
 20 26  1  0  0  0  0
 21 27  1  0  0  0  0
 21 28  1  0  0  0  0
 24 29  1  0  0  0  0
 26 30  1  0  0  0  0
 26 31  2  0  0  0  0
 27 32  1  0  0  0  0
 29 33  1  0  0  0  0
 29 34  1  0  0  0  0
 30 35  1  0  0  0  0
 30 36  1  1  0  0  0
 32 37  1  0  0  0  0
 32 38  1  1  0  0  0
 33 39  1  0  0  0  0
 34 40  1  0  0  0  0
 35 41  2  0  0  0  0
 37 42  2  0  0  0  0
 37 43  1  0  0  0  0
 38 44  1  0  0  0  0
 39 45  1  0  0  0  0
 39 46  1  6  0  0  0
 41 47  1  0  0  0  0
 41 48  1  0  0  0  0
 42 49  1  0  0  0  0
 45 50  1  1  0  0  0
 47 51  1  0  0  0  0
 47 52  1  1  0  0  0
 49 53  2  0  0  0  0
 51 54  1  0  0  0  0
 51 55  1  6  0  0  0
 53 56  1  0  0  0  0
 54 57  1  0  0  0  0
 54 58  2  0  0  0  0
 55 59  1  0  0  0  0
 56 60  2  0  0  0  0
 57 61  1  0  0  0  0
 57 62  1  6  0  0  0
 60 63  1  0  0  0  0
 63 64  1  6  0  0  0
  9 12  1  0  0  0  0
 22 28  1  0  0  0  0
 40 45  1  0  0  0  0
 61 63  1  0  0  0  0
  2 65  1  6  0  0  0
 15 66  1  1  0  0  0
 21 67  1  1  0  0  0
 29 68  1  1  0  0  0
 50 69  1  0  0  0  0
 69 70  1  0  0  0  0
 70 71  1  0  0  0  0
 46 72  1  0  0  0  0
M  END
> <DATABASE_ID>
DB01590

> <DATABASE_NAME>
drugbank

> <SMILES>
[H][C@@]1(C[C@@H](C)[C@]2([H])CC(=O)[C@H](C)\C=C(C)\[C@@H](O)[C@@H](OC)C(=O)[C@H](C)C[C@H](C)\C=C\C=C\C=C(C)\[C@H](C[C@]3([H])CC[C@@H](C)[C@@](O)(O3)C(=O)C(=O)N3CCCC[C@@]3([H])C(=O)O2)OC)CC[C@@H](OCCO)[C@@H](C1)OC

> <INCHI_IDENTIFIER>
InChI=1S/C53H83NO14/c1-32-16-12-11-13-17-33(2)44(63-8)30-40-21-19-38(7)53(62,68-40)50(59)51(60)54-23-15-14-18-41(54)52(61)67-45(35(4)28-39-20-22-43(66-25-24-55)46(29-39)64-9)31-42(56)34(3)27-37(6)48(58)49(65-10)47(57)36(5)26-32/h11-13,16-17,27,32,34-36,38-41,43-46,48-49,55,58,62H,14-15,18-26,28-31H2,1-10H3/b13-11+,16-12+,33-17+,37-27+/t32-,34-,35-,36-,38-,39+,40+,41+,43-,44+,45+,46-,48-,49+,53-/m1/s1

> <INCHI_KEY>
HKVAMNSJSFKALM-GKUWKFKPSA-N

> <FORMULA>
C53H83NO14

> <MOLECULAR_WEIGHT>
958.24

> <EXACT_MASS>
957.581356357

> <JCHEM_ACCEPTOR_COUNT>
13

> <JCHEM_ATOM_COUNT>
151

> <JCHEM_AVERAGE_POLARIZABILITY>
106.60818282023908

> <JCHEM_BIOAVAILABILITY>
0

> <JCHEM_DONOR_COUNT>
3

> <JCHEM_FORMAL_CHARGE>
0

> <JCHEM_GHOSE_FILTER>
0

> <JCHEM_IUPAC>
(1R,9S,12S,15R,16E,18R,19R,21R,23S,24E,26E,28E,30S,32S,35R)-1,18-dihydroxy-12-[(2R)-1-[(1S,3R,4R)-4-(2-hydroxyethoxy)-3-methoxycyclohexyl]propan-2-yl]-19,30-dimethoxy-15,17,21,23,29,35-hexamethyl-11,36-dioxa-4-azatricyclo[30.3.1.0⁴,⁹]hexatriaconta-16,24,26,28-tetraene-2,3,10,14,20-pentone

> <ALOGPS_LOGP>
5.01

> <JCHEM_LOGP>
7.403864314333335

> <ALOGPS_LOGS>
-5.77

> <JCHEM_MDDR_LIKE_RULE>
1

> <JCHEM_NUMBER_OF_RINGS>
4

> <JCHEM_PHYSIOLOGICAL_CHARGE>
0

> <JCHEM_PKA>
13.428310667861762

> <JCHEM_PKA_STRONGEST_ACIDIC>
9.963749820946393

> <JCHEM_PKA_STRONGEST_BASIC>
-2.746132005058814

> <JCHEM_POLAR_SURFACE_AREA>
204.65999999999997

> <JCHEM_REFRACTIVITY>
261.70670000000007

> <JCHEM_ROTATABLE_BOND_COUNT>
9

> <JCHEM_RULE_OF_FIVE>
0

> <ALOGPS_SOLUBILITY>
1.63e-03 g/l

> <JCHEM_TRADITIONAL_IUPAC>
everolimus

> <JCHEM_VEBER_RULE>
0

> <DRUGBANK_ID>
DB01590

> <DRUG_GROUPS>
approved

> <GENERIC_NAME>
Everolimus

> <SYNONYMS>
40-O-(2-hydroxyethyl)-rapamycin; 42-O-(2-Hydroxyethyl)rapamycin; évérolimus; Everolimus

> <PRODUCTS>
Afinitor; Afinitor Disperz; Certican; Everolimus; Nat-everolimus; PMS-everolimus; Reddy-everolimus; Sandoz Everolimus; Teva-everolimus; Votubia; Zortress

$$$$
