
  Mrv1718004171813282D          

  6  4  0  0  0  0            999 V2000
   -0.4808   -0.0580    0.0000 Cl  0  0  0  0  0  0  0  0  0  0  0  0
    0.2294   -0.4735    0.0000 O   0  5  0  0  0  0  0  0  0  0  0  0
   -1.1959   -0.4735    0.0000 O   0  0  0  0  0  0  0  0  0  0  0  0
   -0.0797    0.6572    0.0000 O   0  0  0  0  0  0  0  0  0  0  0  0
   -0.8964    0.6572    0.0000 O   0  0  0  0  0  0  0  0  0  0  0  0
    1.1959   -0.6572    0.0000 K   0  3  0  0  0  0  0  0  0  0  0  0
  2  1  1  0  0  0  0
  3  1  2  0  0  0  0
  4  1  2  0  0  0  0
  5  1  2  0  0  0  0
M  CHG  2   2  -1   6   1
M  END
> <DATABASE_ID>
DB09418

> <DATABASE_NAME>
drugbank

> <SMILES>
[K+].[O-][Cl](=O)(=O)=O

> <INCHI_IDENTIFIER>
InChI=1S/ClHO4.K/c2-1(3,4)5;/h(H,2,3,4,5);/q;+1/p-1

> <INCHI_KEY>
YLMGFJXSLBMXHK-UHFFFAOYSA-M

> <FORMULA>
ClKO4

> <MOLECULAR_WEIGHT>
138.549

> <EXACT_MASS>
137.912218056

> <JCHEM_ACCEPTOR_COUNT>
4

> <JCHEM_ATOM_COUNT>
6

> <JCHEM_AVERAGE_POLARIZABILITY>
5.233355043578754

> <JCHEM_BIOAVAILABILITY>
1

> <JCHEM_DONOR_COUNT>
0

> <JCHEM_FORMAL_CHARGE>
0

> <JCHEM_GHOSE_FILTER>
0

> <JCHEM_IUPAC>
potassium perchlorate

> <ALOGPS_LOGP>
-0.97

> <JCHEM_LOGP>
-0.09765369733333332

> <ALOGPS_LOGS>
-0.13

> <JCHEM_MDDR_LIKE_RULE>
0

> <JCHEM_NUMBER_OF_RINGS>
0

> <JCHEM_PHYSIOLOGICAL_CHARGE>
-1

> <JCHEM_PKA_STRONGEST_ACIDIC>
-7.061066750225243

> <JCHEM_POLAR_SURFACE_AREA>
74.27

> <JCHEM_REFRACTIVITY>
11.9079

> <JCHEM_ROTATABLE_BOND_COUNT>
0

> <JCHEM_RULE_OF_FIVE>
1

> <ALOGPS_SOLUBILITY>
1.02e+02 g/l

> <JCHEM_TRADITIONAL_IUPAC>
potassium perchlorate

> <JCHEM_VEBER_RULE>
0

> <DRUGBANK_ID>
DB09418

> <DRUG_GROUPS>
approved; investigational

> <GENERIC_NAME>
Potassium perchlorate

> <SYNONYMS>
Perchloric acid, potassium salt; Potassium perchlorate

> <PRODUCTS>
Perchloracap Capsule 200mg

$$$$
