
  Mrv1909 03042017132D          

 46 49  0  0  0  0            999 V2000
    0.2243   -2.2136    0.0000 C   0  0  0  0  0  0  0  0  0  0  0  0
   -0.1847   -2.9276    0.0000 C   0  0  0  0  0  0  0  0  0  0  0  0
   -1.0076   -2.9301    0.0000 C   0  0  0  0  0  0  0  0  0  0  0  0
   -1.4213   -2.2189    0.0000 C   0  0  0  0  0  0  0  0  0  0  0  0
   -1.0122   -1.5049    0.0000 C   0  0  0  0  0  0  0  0  0  0  0  0
   -0.1893   -1.5023    0.0000 C   0  0  0  0  0  0  0  0  0  0  0  0
   -1.4279   -0.7903    0.0000 C   0  0  0  0  0  0  0  0  0  0  0  0
    4.2838    0.0363    0.0000 C   0  0  0  0  0  0  0  0  0  0  0  0
    3.5698    0.4497    0.0000 O   0  0  0  0  0  0  0  0  0  0  0  0
    2.8558    0.0363    0.0000 C   0  0  0  0  0  0  0  0  0  0  0  0
    2.1419    0.4497    0.0000 C   0  0  0  0  0  0  0  0  0  0  0  0
    1.4279    0.0363    0.0000 N   0  0  0  0  0  0  0  0  0  0  0  0
    0.7139    0.4497    0.0000 C   0  0  2  0  0  0  0  0  0  0  0  0
    0.0000    0.0363    0.0000 C   0  0  2  0  0  0  0  0  0  0  0  0
   -0.7139    0.4497    0.0000 C   0  0  0  0  0  0  0  0  0  0  0  0
   -1.4279    0.0363    0.0000 C   0  0  1  0  0  0  0  0  0  0  0  0
   -2.1419    0.4497    0.0000 N   0  0  0  0  0  0  0  0  0  0  0  0
   -2.8558    0.0363    0.0000 C   0  0  0  0  0  0  0  0  0  0  0  0
   -3.5697    0.4497    0.0000 C   0  0  1  0  0  0  0  0  0  0  0  0
   -4.2837    0.0363    0.0000 N   0  0  0  0  0  0  0  0  0  0  0  0
    4.9987    0.4480    0.0000 C   0  0  0  0  0  0  0  0  0  0  0  0
    5.7127    0.0346    0.0000 C   0  0  0  0  0  0  0  0  0  0  0  0
    5.7117   -0.7903    0.0000 C   0  0  0  0  0  0  0  0  0  0  0  0
    4.9967   -1.2019    0.0000 C   0  0  0  0  0  0  0  0  0  0  0  0
    4.2828   -0.7886    0.0000 C   0  0  0  0  0  0  0  0  0  0  0  0
    4.9997    1.2746    0.0000 C   0  0  0  0  0  0  0  0  0  0  0  0
    3.5664   -1.2010    0.0000 C   0  0  0  0  0  0  0  0  0  0  0  0
    2.1419    1.2764    0.0000 O   0  0  0  0  0  0  0  0  0  0  0  0
    0.7139    1.2764    0.0000 C   0  0  0  0  0  0  0  0  0  0  0  0
   -0.0018    1.6897    0.0000 C   0  0  0  0  0  0  0  0  0  0  0  0
   -0.7128    1.2768    0.0000 C   0  0  0  0  0  0  0  0  0  0  0  0
   -1.4287    1.6901    0.0000 C   0  0  0  0  0  0  0  0  0  0  0  0
   -1.4287    2.5168    0.0000 C   0  0  0  0  0  0  0  0  0  0  0  0
   -0.7128    2.9301    0.0000 C   0  0  0  0  0  0  0  0  0  0  0  0
    0.0031    2.5168    0.0000 C   0  0  0  0  0  0  0  0  0  0  0  0
    0.0028   -0.7882    0.0000 O   0  0  0  0  0  0  0  0  0  0  0  0
   -2.8558   -0.7903    0.0000 O   0  0  0  0  0  0  0  0  0  0  0  0
   -3.5697    1.5652    0.0000 C   0  0  0  0  0  0  0  0  0  0  0  0
   -4.2857    1.9785    0.0000 C   0  0  0  0  0  0  0  0  0  0  0  0
   -2.8538    1.9785    0.0000 C   0  0  0  0  0  0  0  0  0  0  0  0
   -4.2827   -0.7886    0.0000 C   0  0  0  0  0  0  0  0  0  0  0  0
   -4.9967   -1.2019    0.0000 C   0  0  0  0  0  0  0  0  0  0  0  0
   -5.7117   -0.7903    0.0000 C   0  0  0  0  0  0  0  0  0  0  0  0
   -5.7127    0.0346    0.0000 N   0  0  0  0  0  0  0  0  0  0  0  0
   -4.9987    0.4480    0.0000 C   0  0  0  0  0  0  0  0  0  0  0  0
   -4.9996    1.2746    0.0000 O   0  0  0  0  0  0  0  0  0  0  0  0
 21 22  1  0  0  0  0
 22 23  2  0  0  0  0
 23 24  1  0  0  0  0
 24 25  2  0  0  0  0
 25  8  1  0  0  0  0
 12 13  1  0  0  0  0
 21 26  1  0  0  0  0
 25 27  1  0  0  0  0
 13 14  1  0  0  0  0
 11 28  2  0  0  0  0
  5  7  1  0  0  0  0
 13 29  1  6  0  0  0
 14 15  1  0  0  0  0
 29 30  1  0  0  0  0
  1  2  2  0  0  0  0
 15 16  1  0  0  0  0
  2  3  1  0  0  0  0
 16 17  1  0  0  0  0
  8  9  1  0  0  0  0
 30 31  2  0  0  0  0
 31 32  1  0  0  0  0
 32 33  2  0  0  0  0
 33 34  1  0  0  0  0
 34 35  2  0  0  0  0
 35 30  1  0  0  0  0
 14 36  1  1  0  0  0
 16  7  1  6  0  0  0
 17 18  1  0  0  0  0
  3  4  2  0  0  0  0
 18 37  2  0  0  0  0
 18 19  1  0  0  0  0
 19 38  1  1  0  0  0
  9 10  1  0  0  0  0
 38 39  1  0  0  0  0
 19 20  1  0  0  0  0
 38 40  1  0  0  0  0
  4  5  1  0  0  0  0
 10 11  1  0  0  0  0
  5  6  2  0  0  0  0
 11 12  1  0  0  0  0
  6  1  1  0  0  0  0
 20 41  1  0  0  0  0
 41 42  1  0  0  0  0
 42 43  1  0  0  0  0
 43 44  1  0  0  0  0
 44 45  1  0  0  0  0
 45 20  1  0  0  0  0
  8 21  2  0  0  0  0
 45 46  2  0  0  0  0
M  END
> <DATABASE_ID>
DB01601

> <DATABASE_NAME>
drugbank

> <SMILES>
CC(C)[C@H](N1CCCNC1=O)C(=O)N[C@H](C[C@H](O)[C@H](CC1=CC=CC=C1)NC(=O)COC1=C(C)C=CC=C1C)CC1=CC=CC=C1

> <INCHI_IDENTIFIER>
InChI=1S/C37H48N4O5/c1-25(2)34(41-20-12-19-38-37(41)45)36(44)39-30(21-28-15-7-5-8-16-28)23-32(42)31(22-29-17-9-6-10-18-29)40-33(43)24-46-35-26(3)13-11-14-27(35)4/h5-11,13-18,25,30-32,34,42H,12,19-24H2,1-4H3,(H,38,45)(H,39,44)(H,40,43)/t30-,31-,32-,34-/m0/s1

> <INCHI_KEY>
KJHKTHWMRKYKJE-SUGCFTRWSA-N

> <FORMULA>
C37H48N4O5

> <MOLECULAR_WEIGHT>
628.8008

> <EXACT_MASS>
628.362470666

> <JCHEM_ACCEPTOR_COUNT>
5

> <JCHEM_ATOM_COUNT>
94

> <JCHEM_AVERAGE_NEUTRAL_MICROSPECIES_CHARGE>
-5.375058028411464e-07

> <JCHEM_AVERAGE_POLARIZABILITY>
68.78284360745138

> <JCHEM_BIOAVAILABILITY>
0

> <JCHEM_DONOR_COUNT>
4

> <JCHEM_FORMAL_CHARGE>
0

> <JCHEM_GHOSE_FILTER>
0

> <JCHEM_IUPAC>
(2S)-N-[(2S,4S,5S)-5-[2-(2,6-dimethylphenoxy)acetamido]-4-hydroxy-1,6-diphenylhexan-2-yl]-3-methyl-2-(2-oxo-1,3-diazinan-1-yl)butanamide

> <ALOGPS_LOGP>
3.91

> <JCHEM_LOGP>
4.687642082666667

> <ALOGPS_LOGS>
-5.51

> <JCHEM_MDDR_LIKE_RULE>
1

> <JCHEM_NEUTRAL_CHARGE>
0

> <JCHEM_NUMBER_OF_RINGS>
4

> <JCHEM_PHYSIOLOGICAL_CHARGE>
0

> <JCHEM_PKA>
13.97623170978601

> <JCHEM_PKA_STRONGEST_ACIDIC>
13.392426040910603

> <JCHEM_PKA_STRONGEST_BASIC>
-1.5303767692993353

> <JCHEM_POLAR_SURFACE_AREA>
120.0

> <JCHEM_REFRACTIVITY>
179.3637

> <JCHEM_ROTATABLE_BOND_COUNT>
15

> <JCHEM_RULE_OF_FIVE>
0

> <ALOGPS_SOLUBILITY>
1.92e-03 g/l

> <JCHEM_TRADITIONAL_IUPAC>
6-bromo-4-[(dimethylamino)methyl]-3-(ethoxycarbonyl)-2-[(phenylsulfanyl)methyl]-1H-indol-5-yl sulfate

> <JCHEM_VEBER_RULE>
0

> <DRUGBANK_ID>
DB01601

> <SECONDARY_ACCESSION_NUMBERS>
EXPT00388

> <DRUG_GROUPS>
approved

> <GENERIC_NAME>
Lopinavir

> <SYNONYMS>
Lopinavir

> <PRODUCTS>
Kaletra; Lopinavir and Ritonavir; Lopinavir and ritonavir; Lopinavir-Ritonavir; Lopinavir/ritonavir Mylan

$$$$
