
  Mrv1909 11162221432D          

 30 32  0  0  0  0            999 V2000
    2.1434   -4.5375    0.0000 C   0  0  0  0  0  0  0  0  0  0  0  0
    2.1434   -5.3625    0.0000 N   0  0  0  0  0  0  0  0  0  0  0  0
    2.8579   -5.7750    0.0000 C   0  0  0  0  0  0  0  0  0  0  0  0
    2.8579   -6.6000    0.0000 C   0  0  0  0  0  0  0  0  0  0  0  0
    2.1434   -7.0125    0.0000 N   0  0  0  0  0  0  0  0  0  0  0  0
    1.4289   -6.6000    0.0000 C   0  0  0  0  0  0  0  0  0  0  0  0
    1.4289   -5.7750    0.0000 C   0  0  0  0  0  0  0  0  0  0  0  0
    2.1434   -7.8375    0.0000 S   0  0  0  0  0  0  0  0  0  0  0  0
    1.3184   -7.8375    0.0000 O   0  0  0  0  0  0  0  0  0  0  0  0
    2.9684   -7.8375    0.0000 O   0  0  0  0  0  0  0  0  0  0  0  0
    2.1434   -8.6625    0.0000 C   0  0  0  0  0  0  0  0  0  0  0  0
    2.8579   -9.0750    0.0000 C   0  0  0  0  0  0  0  0  0  0  0  0
    2.8579   -9.9000    0.0000 C   0  0  0  0  0  0  0  0  0  0  0  0
    2.1434  -10.3125    0.0000 C   0  0  0  0  0  0  0  0  0  0  0  0
    1.4289   -9.9000    0.0000 C   0  0  0  0  0  0  0  0  0  0  0  0
    1.4289   -9.0750    0.0000 C   0  0  0  0  0  0  0  0  0  0  0  0
    0.7145  -10.3125    0.0000 C   0  0  0  0  0  0  0  0  0  0  0  0
    0.7145  -11.1375    0.0000 O   0  0  0  0  0  0  0  0  0  0  0  0
    0.0000   -9.9000    0.0000 N   0  0  0  0  0  0  0  0  0  0  0  0
   -0.7145  -10.3125    0.0000 N   0  0  0  0  0  0  0  0  0  0  0  0
   -1.4289   -9.9000    0.0000 C   0  0  0  0  0  0  0  0  0  0  0  0
   -1.4289   -9.0750    0.0000 C   0  0  0  0  0  0  0  0  0  0  0  0
   -2.1434  -10.3125    0.0000 C   0  0  0  0  0  0  0  0  0  0  0  0
   -2.1434  -11.1375    0.0000 C   0  0  0  0  0  0  0  0  0  0  0  0
   -1.4289  -11.5500    0.0000 O   0  0  0  0  0  0  0  0  0  0  0  0
   -2.8579  -11.5500    0.0000 C   0  0  0  0  0  0  0  0  0  0  0  0
   -3.5724  -11.1375    0.0000 C   0  0  0  0  0  0  0  0  0  0  0  0
   -3.5724  -10.3125    0.0000 C   0  0  0  0  0  0  0  0  0  0  0  0
   -4.2868   -9.9000    0.0000 Cl  0  0  0  0  0  0  0  0  0  0  0  0
   -2.8579   -9.9000    0.0000 C   0  0  0  0  0  0  0  0  0  0  0  0
  1  2  1  0  0  0  0
  2  3  1  0  0  0  0
  3  4  1  0  0  0  0
  4  5  1  0  0  0  0
  5  6  1  0  0  0  0
  6  7  1  0  0  0  0
  2  7  1  0  0  0  0
  5  8  1  0  0  0  0
  8  9  2  0  0  0  0
  8 10  2  0  0  0  0
  8 11  1  0  0  0  0
 11 12  2  0  0  0  0
 12 13  1  0  0  0  0
 13 14  2  0  0  0  0
 14 15  1  0  0  0  0
 15 16  2  0  0  0  0
 11 16  1  0  0  0  0
 15 17  1  0  0  0  0
 17 18  2  0  0  0  0
 17 19  1  0  0  0  0
 19 20  1  0  0  0  0
 20 21  2  0  0  0  0
 21 22  1  0  0  0  0
 21 23  1  0  0  0  0
 23 24  2  0  0  0  0
 24 25  1  0  0  0  0
 24 26  1  0  0  0  0
 26 27  2  0  0  0  0
 27 28  1  0  0  0  0
 28 29  1  0  0  0  0
 28 30  2  0  0  0  0
 23 30  1  0  0  0  0
M  END
> <DATABASE_ID>
DB17117

> <DATABASE_NAME>
drugbank

> <SMILES>
CN1CCN(CC1)S(=O)(=O)C1=CC=CC(=C1)C(=O)N\N=C(/C)C1=C(O)C=CC(Cl)=C1

> <INCHI_IDENTIFIER>
InChI=1S/C20H23ClN4O4S/c1-14(18-13-16(21)6-7-19(18)26)22-23-20(27)15-4-3-5-17(12-15)30(28,29)25-10-8-24(2)9-11-25/h3-7,12-13,26H,8-11H2,1-2H3,(H,23,27)/b22-14+

> <INCHI_KEY>
MVSQDUZRRVBYLA-HYARGMPZSA-N

> <FORMULA>
C20H23ClN4O4S

> <MOLECULAR_WEIGHT>
450.94

> <EXACT_MASS>
450.1128541

> <JCHEM_ACCEPTOR_COUNT>
6

> <JCHEM_ATOM_COUNT>
53

> <JCHEM_AVERAGE_NEUTRAL_MICROSPECIES_CHARGE>
1.4435361575101056

> <JCHEM_AVERAGE_POLARIZABILITY>
45.75438093975163

> <JCHEM_BIOAVAILABILITY>
1

> <JCHEM_DONOR_COUNT>
2

> <JCHEM_FORMAL_CHARGE>
0

> <JCHEM_GHOSE_FILTER>
1

> <JCHEM_IUPAC>
N'-[(1E)-1-(5-chloro-2-hydroxyphenyl)ethylidene]-3-[(4-methylpiperazin-1-yl)sulfonyl]benzohydrazide

> <ALOGPS_LOGP>
2.37

> <JCHEM_LOGP>
2.009261752333333

> <ALOGPS_LOGS>
-3.84

> <JCHEM_MDDR_LIKE_RULE>
0

> <JCHEM_NEUTRAL_CHARGE>
0

> <JCHEM_NUMBER_OF_RINGS>
3

> <JCHEM_PHYSIOLOGICAL_CHARGE>
0

> <JCHEM_PKA>
9.73839068020493

> <JCHEM_PKA_STRONGEST_ACIDIC>
8.153858492859507

> <JCHEM_PKA_STRONGEST_BASIC>
5.950624143902026

> <JCHEM_POLAR_SURFACE_AREA>
102.31

> <JCHEM_REFRACTIVITY>
116.84139999999998

> <JCHEM_ROTATABLE_BOND_COUNT>
4

> <JCHEM_RULE_OF_FIVE>
1

> <ALOGPS_SOLUBILITY>
6.58e-02 g/l

> <JCHEM_TRADITIONAL_IUPAC>
N'-[(1E)-1-(5-chloro-2-hydroxyphenyl)ethylidene]-3-(4-methylpiperazin-1-ylsulfonyl)benzohydrazide

> <JCHEM_VEBER_RULE>
0

> <DRUGBANK_ID>
DB17117

> <DRUG_GROUPS>
investigational

> <GENERIC_NAME>
Seclidemstat

> <SYNONYMS>
Benzoic acid, 3-((4-methyl-1-piperazinyl)sulfonyl)-, (2e)-2-(1-(5-chloro-2-hydroxyphenyl)ethylidene)hydrazide; N'-[(1E)-1-(5-chloro-2-hydroxyphenyl)ethylidene]- 3-(4-methylpiperazine-1-sulfonyl)benzohydrazide

> <SALTS>
(E)-Nâ€™-(1-(5-Chloro-2-Hydroxy Phenyl)Ethylidene)-3-((4-Methyl Piperazin-1-Yl) Sulfonyl) Benzohydrazide Mesylate

$$$$
