
  Mrv1652310211604242D          

  1  0  0  0  0  0            999 V2000
    0.0000    0.0000    0.0000 Sb  0  0  0  0  0  0  0  0  0  0  0  0
M  CHG  1   1   5
M  END
> <DATABASE_ID>
DB13047

> <DATABASE_NAME>
drugbank

> <SMILES>
[Sb+5]

> <INCHI_IDENTIFIER>
InChI=1S/Sb/q+5

> <INCHI_KEY>
ZDINGUUTWDGGFF-UHFFFAOYSA-N

> <FORMULA>
Sb

> <MOLECULAR_WEIGHT>
121.757

> <EXACT_MASS>
120.90107

> <JCHEM_ACCEPTOR_COUNT>
0

> <JCHEM_ATOM_COUNT>
1

> <JCHEM_AVERAGE_POLARIZABILITY>
1.7784

> <JCHEM_BIOAVAILABILITY>
1

> <JCHEM_DONOR_COUNT>
0

> <JCHEM_FORMAL_CHARGE>
5

> <JCHEM_GHOSE_FILTER>
0

> <JCHEM_IUPAC>
lambda5-antimony(5+) ion

> <JCHEM_LOGP>
0.0056

> <JCHEM_MDDR_LIKE_RULE>
0

> <JCHEM_NUMBER_OF_RINGS>
0

> <JCHEM_PHYSIOLOGICAL_CHARGE>
5

> <JCHEM_PKA>
3.55

> <JCHEM_PKA_STRONGEST_ACIDIC>
3.09

> <JCHEM_POLAR_SURFACE_AREA>
0.0

> <JCHEM_REFRACTIVITY>
0.0

> <JCHEM_ROTATABLE_BOND_COUNT>
0

> <JCHEM_RULE_OF_FIVE>
1

> <JCHEM_TRADITIONAL_IUPAC>
lambda5-antimony(5+) ion

> <JCHEM_VEBER_RULE>
1

> <DRUGBANK_ID>
DB13047

> <DRUG_GROUPS>
investigational

> <GENERIC_NAME>
Pentavalent Antimony

> <SYNONYMS>
Antimony cation (5+); SB5+

$$$$
