
  Mrv1909 05201914392D          

 11 11  0  0  0  0            999 V2000
    0.5678    1.9393    0.0000 C   0  0  0  0  0  0  0  0  0  0  0  0
    0.5678    1.1143    0.0000 C   0  0  0  0  0  0  0  0  0  0  0  0
    1.2352    0.6294    0.0000 C   0  0  0  0  0  0  0  0  0  0  0  0
    0.9803   -0.1553    0.0000 C   0  0  0  0  0  0  0  0  0  0  0  0
    0.1553   -0.1553    0.0000 C   0  0  0  0  0  0  0  0  0  0  0  0
   -0.0997    0.6294    0.0000 O   0  0  0  0  0  0  0  0  0  0  0  0
   -0.3297   -0.8227    0.0000 S   0  0  0  0  0  0  0  0  0  0  0  0
   -0.9971   -0.3378    0.0000 O   0  0  0  0  0  0  0  0  0  0  0  0
    0.3378   -1.3076    0.0000 O   0  0  0  0  0  0  0  0  0  0  0  0
   -0.8146   -1.4901    0.0000 N   0  0  0  0  0  0  0  0  0  0  0  0
   -0.4790   -2.2438    0.0000 O   0  0  0  0  0  0  0  0  0  0  0  0
  1  2  1  0  0  0  0
  2  3  2  0  0  0  0
  3  4  1  0  0  0  0
  4  5  2  0  0  0  0
  5  6  1  0  0  0  0
  2  6  1  0  0  0  0
  5  7  1  0  0  0  0
  7  8  2  0  0  0  0
  7  9  2  0  0  0  0
  7 10  1  0  0  0  0
 10 11  1  0  0  0  0
M  END
> <DATABASE_ID>
DB14983

> <DATABASE_NAME>
drugbank

> <SMILES>
CC1=CC=C(O1)S(=O)(=O)NO

> <INCHI_IDENTIFIER>
InChI=1S/C5H7NO4S/c1-4-2-3-5(10-4)11(8,9)6-7/h2-3,6-7H,1H3

> <INCHI_KEY>
LIXKIXWSKOENAB-UHFFFAOYSA-N

> <FORMULA>
C5H7NO4S

> <MOLECULAR_WEIGHT>
177.17

> <EXACT_MASS>
177.009578883

> <JCHEM_ACCEPTOR_COUNT>
3

> <JCHEM_ATOM_COUNT>
18

> <JCHEM_AVERAGE_POLARIZABILITY>
15.68646150676771

> <JCHEM_BIOAVAILABILITY>
1

> <JCHEM_DONOR_COUNT>
2

> <JCHEM_FORMAL_CHARGE>
0

> <JCHEM_GHOSE_FILTER>
0

> <JCHEM_IUPAC>
N-hydroxy-5-methylfuran-2-sulfonamide

> <ALOGPS_LOGP>
0.14

> <JCHEM_LOGP>
0.005192710333333531

> <ALOGPS_LOGS>
-1.40

> <JCHEM_MDDR_LIKE_RULE>
0

> <JCHEM_NUMBER_OF_RINGS>
1

> <JCHEM_PHYSIOLOGICAL_CHARGE>
0

> <JCHEM_PKA>
11.957055842801383

> <JCHEM_PKA_STRONGEST_ACIDIC>
7.933222338314282

> <JCHEM_PKA_STRONGEST_BASIC>
-3.117348984389268

> <JCHEM_POLAR_SURFACE_AREA>
79.54

> <JCHEM_REFRACTIVITY>
36.8969

> <JCHEM_ROTATABLE_BOND_COUNT>
1

> <JCHEM_RULE_OF_FIVE>
1

> <ALOGPS_SOLUBILITY>
7.12e+00 g/l

> <JCHEM_TRADITIONAL_IUPAC>
(2R)-14-fluoro-2-methyl-6,9,10,19-tetraazapentacyclo[14.2.1.0^{2,6}.0^{8,18}.0^{12,17}]nonadeca-1(18),8,12(17),13,15-pentaen-11-one

> <JCHEM_VEBER_RULE>
0

> <DRUGBANK_ID>
DB14983

> <DRUG_GROUPS>
investigational

> <GENERIC_NAME>
Cimlanod

> <SYNONYMS>
BMS-986231; Cimlanod

$$$$
