
  Mrv1652310211604062D          

 34 38  0  0  1  0            999 V2000
   -1.6275   -6.4077    0.0000 C   0  0  0  0  0  0  0  0  0  0  0  0
   -2.0400   -5.6933    0.0000 C   0  0  0  0  0  0  0  0  0  0  0  0
   -1.7044   -4.9396    0.0000 C   0  0  0  0  0  0  0  0  0  0  0  0
   -2.3175   -4.3876    0.0000 N   0  0  0  0  0  0  0  0  0  0  0  0
   -3.0320   -4.8001    0.0000 C   0  0  0  0  0  0  0  0  0  0  0  0
   -2.8604   -5.6070    0.0000 C   0  0  0  0  0  0  0  0  0  0  0  0
   -3.3844   -6.2443    0.0000 C   0  0  0  0  0  0  0  0  0  0  0  0
   -3.0376   -6.9929    0.0000 O   0  0  0  0  0  0  0  0  0  0  0  0
   -4.2093   -6.2319    0.0000 N   0  0  0  0  0  0  0  0  0  0  0  0
   -4.7140   -5.5793    0.0000 C   0  0  0  0  0  0  0  0  0  0  0  0
   -4.5184   -4.7778    0.0000 C   0  0  0  0  0  0  0  0  0  0  0  0
   -3.7698   -4.4310    0.0000 C   0  0  0  0  0  0  0  0  0  0  0  0
   -4.5783   -6.9698    0.0000 C   0  0  0  0  0  0  0  0  0  0  0  0
   -5.4019   -7.0191    0.0000 C   0  0  1  0  0  0  0  0  0  0  0  0
   -5.7709   -7.7570    0.0000 C   0  0  0  0  0  0  0  0  0  0  0  0
   -6.5944   -7.8063    0.0000 N   0  0  0  0  0  0  0  0  0  0  0  0
   -6.9635   -8.5442    0.0000 C   0  0  0  0  0  0  0  0  0  0  0  0
   -7.7870   -8.5935    0.0000 C   0  0  0  0  0  0  0  0  0  0  0  0
   -8.2415   -7.9050    0.0000 O   0  0  0  0  0  0  0  0  0  0  0  0
   -7.8724   -7.1672    0.0000 C   0  0  0  0  0  0  0  0  0  0  0  0
   -7.0489   -7.1178    0.0000 C   0  0  0  0  0  0  0  0  0  0  0  0
   -5.8564   -6.3306    0.0000 O   0  0  0  0  0  0  0  0  0  0  0  0
   -0.8974   -4.7681    0.0000 C   0  0  0  0  0  0  0  0  0  0  0  0
   -0.6425   -3.9835    0.0000 C   0  0  0  0  0  0  0  0  0  0  0  0
    0.1421   -3.7285    0.0000 C   0  0  0  0  0  0  0  0  0  0  0  0
    0.8566   -4.1410    0.0000 C   0  0  0  0  0  0  0  0  0  0  0  0
    1.5711   -3.7285    0.0000 C   0  0  0  0  0  0  0  0  0  0  0  0
    1.5711   -2.9035    0.0000 C   0  0  0  0  0  0  0  0  0  0  0  0
    0.8566   -2.4910    0.0000 C   0  0  0  0  0  0  0  0  0  0  0  0
    0.1421   -2.9035    0.0000 C   0  0  0  0  0  0  0  0  0  0  0  0
   -0.6425   -2.6486    0.0000 N   0  0  0  0  0  0  0  0  0  0  0  0
   -1.1274   -3.3160    0.0000 C   0  0  0  0  0  0  0  0  0  0  0  0
   -1.9524   -3.3160    0.0000 O   0  0  0  0  0  0  0  0  0  0  0  0
    2.2855   -4.1410    0.0000 F   0  0  0  0  0  0  0  0  0  0  0  0
  1  2  1  0  0  0  0
  2  3  2  0  0  0  0
  3  4  1  0  0  0  0
  4  5  1  0  0  0  0
  5  6  2  0  0  0  0
  2  6  1  0  0  0  0
  6  7  1  0  0  0  0
  7  8  2  0  0  0  0
  7  9  1  0  0  0  0
  9 10  1  0  0  0  0
 10 11  1  0  0  0  0
 11 12  1  0  0  0  0
  5 12  1  0  0  0  0
  9 13  1  0  0  0  0
 13 14  1  0  0  0  0
 14 15  1  0  0  0  0
 15 16  1  0  0  0  0
 16 17  1  0  0  0  0
 17 18  1  0  0  0  0
 18 19  1  0  0  0  0
 19 20  1  0  0  0  0
 20 21  1  0  0  0  0
 16 21  1  0  0  0  0
 14 22  1  1  0  0  0
  3 23  1  0  0  0  0
 23 24  2  0  0  0  0
 24 25  1  0  0  0  0
 25 26  2  0  0  0  0
 26 27  1  0  0  0  0
 27 28  2  0  0  0  0
 28 29  1  0  0  0  0
 29 30  2  0  0  0  0
 25 30  1  0  0  0  0
 30 31  1  0  0  0  0
 31 32  1  0  0  0  0
 24 32  1  0  0  0  0
 32 33  2  0  0  0  0
 27 34  1  0  0  0  0
M  END
> <DATABASE_ID>
DB13019

> <DATABASE_NAME>
drugbank

> <SMILES>
CC1=C(NC2=C1C(=O)N(C[C@H](O)CN1CCOCC1)CCC2)\C=C1/C(=O)NC2=CC=C(F)C=C12

> <INCHI_IDENTIFIER>
InChI=1S/C25H29FN4O4/c1-15-22(12-19-18-11-16(26)4-5-20(18)28-24(19)32)27-21-3-2-6-30(25(33)23(15)21)14-17(31)13-29-7-9-34-10-8-29/h4-5,11-12,17,27,31H,2-3,6-10,13-14H2,1H3,(H,28,32)/b19-12-/t17-/m1/s1

> <INCHI_KEY>
MCTXSDCWFQAGFS-UEXNTNOUSA-N

> <FORMULA>
C25H29FN4O4

> <MOLECULAR_WEIGHT>
468.529

> <EXACT_MASS>
468.217283593

> <JCHEM_ACCEPTOR_COUNT>
5

> <JCHEM_ATOM_COUNT>
63

> <JCHEM_AVERAGE_POLARIZABILITY>
48.94535409561397

> <JCHEM_BIOAVAILABILITY>
1

> <JCHEM_DONOR_COUNT>
3

> <JCHEM_FORMAL_CHARGE>
0

> <JCHEM_GHOSE_FILTER>
1

> <JCHEM_IUPAC>
(3Z)-5-fluoro-3-({5-[(2R)-2-hydroxy-3-(morpholin-4-yl)propyl]-3-methyl-4-oxo-1H,4H,5H,6H,7H,8H-pyrrolo[3,2-c]azepin-2-yl}methylidene)-2,3-dihydro-1H-indol-2-one

> <ALOGPS_LOGP>
1.90

> <JCHEM_LOGP>
1.6375910883333349

> <ALOGPS_LOGS>
-3.37

> <JCHEM_MDDR_LIKE_RULE>
0

> <JCHEM_NUMBER_OF_RINGS>
5

> <JCHEM_PHYSIOLOGICAL_CHARGE>
0

> <JCHEM_PKA>
14.441962674947362

> <JCHEM_PKA_STRONGEST_ACIDIC>
11.462440415767993

> <JCHEM_PKA_STRONGEST_BASIC>
6.458172217309771

> <JCHEM_POLAR_SURFACE_AREA>
97.9

> <JCHEM_REFRACTIVITY>
129.49519999999998

> <JCHEM_ROTATABLE_BOND_COUNT>
5

> <JCHEM_RULE_OF_FIVE>
1

> <ALOGPS_SOLUBILITY>
2.02e-01 g/l

> <JCHEM_TRADITIONAL_IUPAC>
(3Z)-5-fluoro-3-({5-[(2R)-2-hydroxy-3-(morpholin-4-yl)propyl]-3-methyl-4-oxo-1H,6H,7H,8H-pyrrolo[3,2-c]azepin-2-yl}methylidene)-1H-indol-2-one

> <JCHEM_VEBER_RULE>
0

> <DRUGBANK_ID>
DB13019

> <DRUG_GROUPS>
investigational

> <GENERIC_NAME>
Henatinib

$$$$
