
  Mrv1652306131722022D          

 24 27  0  0  0  0            999 V2000
   -3.1165   -1.2669    0.0000 C   0  0  0  0  0  0  0  0  0  0  0  0
   -2.5644   -1.8800    0.0000 C   0  0  0  0  0  0  0  0  0  0  0  0
   -1.7575   -1.7084    0.0000 C   0  0  0  0  0  0  0  0  0  0  0  0
   -1.2054   -2.3215    0.0000 C   0  0  0  0  0  0  0  0  0  0  0  0
   -1.4604   -3.1062    0.0000 C   0  0  0  0  0  0  0  0  0  0  0  0
   -2.2673   -3.2777    0.0000 C   0  0  0  0  0  0  0  0  0  0  0  0
   -2.8194   -2.6646    0.0000 C   0  0  0  0  0  0  0  0  0  0  0  0
   -3.6263   -2.8361    0.0000 N   0  0  0  0  0  0  0  0  0  0  0  0
   -0.3984   -2.1500    0.0000 C   0  0  0  0  0  0  0  0  0  0  0  0
   -0.1435   -1.3654    0.0000 N   0  0  0  0  0  0  0  0  0  0  0  0
    0.6411   -1.1104    0.0000 C   0  0  0  0  0  0  0  0  0  0  0  0
    0.6411   -0.2854    0.0000 C   0  0  0  0  0  0  0  0  0  0  0  0
    1.3556    0.1271    0.0000 C   0  0  0  0  0  0  0  0  0  0  0  0
    2.0701   -0.2854    0.0000 N   0  0  0  0  0  0  0  0  0  0  0  0
    2.0701   -1.1104    0.0000 C   0  0  0  0  0  0  0  0  0  0  0  0
    1.3556   -1.5229    0.0000 N   0  0  0  0  0  0  0  0  0  0  0  0
    2.7845   -1.5229    0.0000 N   0  0  0  0  0  0  0  0  0  0  0  0
    1.3556    0.9521    0.0000 C   0  0  0  0  0  0  0  0  0  0  0  0
    0.6881    1.4370    0.0000 C   0  0  0  0  0  0  0  0  0  0  0  0
    0.9431    2.2216    0.0000 C   0  0  0  0  0  0  0  0  0  0  0  0
    1.7681    2.2216    0.0000 C   0  0  0  0  0  0  0  0  0  0  0  0
    2.0230    1.4370    0.0000 O   0  0  0  0  0  0  0  0  0  0  0  0
   -0.1435   -0.0305    0.0000 N   0  0  0  0  0  0  0  0  0  0  0  0
   -0.6284   -0.6979    0.0000 N   0  0  0  0  0  0  0  0  0  0  0  0
  1  2  1  0  0  0  0
  2  3  2  0  0  0  0
  3  4  1  0  0  0  0
  4  5  2  0  0  0  0
  5  6  1  0  0  0  0
  6  7  2  0  0  0  0
  2  7  1  0  0  0  0
  7  8  1  0  0  0  0
  4  9  1  0  0  0  0
  9 10  1  0  0  0  0
 10 11  1  0  0  0  0
 11 12  1  0  0  0  0
 12 13  2  0  0  0  0
 13 14  1  0  0  0  0
 14 15  2  0  0  0  0
 15 16  1  0  0  0  0
 11 16  2  0  0  0  0
 15 17  1  0  0  0  0
 13 18  1  0  0  0  0
 18 19  2  0  0  0  0
 19 20  1  0  0  0  0
 20 21  2  0  0  0  0
 21 22  1  0  0  0  0
 18 22  1  0  0  0  0
 12 23  1  0  0  0  0
 23 24  2  0  0  0  0
 10 24  1  0  0  0  0
M  END
> <DATABASE_ID>
DB06625

> <DATABASE_NAME>
drugbank

> <SMILES>
CC1=CC(CN2N=NC3=C(N=C(N)N=C23)C2=CC=CO2)=CC=C1N

> <INCHI_IDENTIFIER>
InChI=1S/C16H15N7O/c1-9-7-10(4-5-11(9)17)8-23-15-14(21-22-23)13(19-16(18)20-15)12-3-2-6-24-12/h2-7H,8,17H2,1H3,(H2,18,19,20)

> <INCHI_KEY>
HQSBCDPYXDGTCL-UHFFFAOYSA-N

> <FORMULA>
C16H15N7O

> <MOLECULAR_WEIGHT>
321.344

> <EXACT_MASS>
321.133808131

> <JCHEM_ACCEPTOR_COUNT>
6

> <JCHEM_ATOM_COUNT>
39

> <JCHEM_AVERAGE_POLARIZABILITY>
33.06798022742971

> <JCHEM_BIOAVAILABILITY>
1

> <JCHEM_DONOR_COUNT>
2

> <JCHEM_FORMAL_CHARGE>
0

> <JCHEM_GHOSE_FILTER>
1

> <JCHEM_IUPAC>
3-[(4-amino-3-methylphenyl)methyl]-7-(furan-2-yl)-3H-[1,2,3]triazolo[4,5-d]pyrimidin-5-amine

> <ALOGPS_LOGP>
1.51

> <JCHEM_LOGP>
2.221060885666667

> <ALOGPS_LOGS>
-3.18

> <JCHEM_MDDR_LIKE_RULE>
0

> <JCHEM_NUMBER_OF_RINGS>
4

> <JCHEM_PHYSIOLOGICAL_CHARGE>
0

> <JCHEM_PKA_STRONGEST_ACIDIC>
15.775377857880223

> <JCHEM_PKA_STRONGEST_BASIC>
4.159988058607316

> <JCHEM_POLAR_SURFACE_AREA>
121.67

> <JCHEM_REFRACTIVITY>
102.04670000000002

> <JCHEM_ROTATABLE_BOND_COUNT>
3

> <JCHEM_RULE_OF_FIVE>
1

> <ALOGPS_SOLUBILITY>
2.12e-01 g/l

> <JCHEM_TRADITIONAL_IUPAC>
3-[(4-amino-3-methylphenyl)methyl]-7-(furan-2-yl)-[1,2,3]triazolo[4,5-d]pyrimidin-5-amine

> <JCHEM_VEBER_RULE>
0

> <DRUGBANK_ID>
DB06625

> <DRUG_GROUPS>
investigational

> <GENERIC_NAME>
Vipadenant

> <SYNONYMS>
Vipadenant

$$$$
