
  Mrv1652310211601502D          

 32 36  0  0  1  0            999 V2000
   -3.3722   -2.1582    0.0000 C   0  0  0  0  0  0  0  0  0  0  0  0
   -3.0366   -1.4045    0.0000 C   0  0  2  0  0  0  0  0  0  0  0  0
   -3.4491   -0.6900    0.0000 C   0  0  0  0  0  0  0  0  0  0  0  0
   -2.8971   -0.0769    0.0000 O   0  0  0  0  0  0  0  0  0  0  0  0
   -2.1434   -0.4125    0.0000 C   0  0  0  0  0  0  0  0  0  0  0  0
   -2.2296   -1.2330    0.0000 N   0  0  0  0  0  0  0  0  0  0  0  0
   -1.4289    0.0000    0.0000 N   0  0  0  0  0  0  0  0  0  0  0  0
   -0.7145   -0.4125    0.0000 C   0  0  0  0  0  0  0  0  0  0  0  0
   -0.7145   -1.2375    0.0000 C   0  0  0  0  0  0  0  0  0  0  0  0
    0.0000   -1.6500    0.0000 C   0  0  0  0  0  0  0  0  0  0  0  0
    0.7145   -1.2375    0.0000 C   0  0  0  0  0  0  0  0  0  0  0  0
    0.7145   -0.4125    0.0000 C   0  0  0  0  0  0  0  0  0  0  0  0
    0.0000   -0.0000    0.0000 C   0  0  0  0  0  0  0  0  0  0  0  0
    1.4289   -0.0000    0.0000 C   0  0  0  0  0  0  0  0  0  0  0  0
    2.1434   -0.4125    0.0000 N   0  0  0  0  0  0  0  0  0  0  0  0
    2.1434   -1.2375    0.0000 C   0  0  0  0  0  0  0  0  0  0  0  0
    1.4289   -1.6500    0.0000 N   0  0  0  0  0  0  0  0  0  0  0  0
    1.4289    0.8250    0.0000 N   0  0  0  0  0  0  0  0  0  0  0  0
    2.1434    1.2375    0.0000 C   0  0  0  0  0  0  0  0  0  0  0  0
    2.1434    2.0625    0.0000 C   0  0  0  0  0  0  0  0  0  0  0  0
    2.8579    2.4750    0.0000 C   0  0  0  0  0  0  0  0  0  0  0  0
    3.5724    2.0625    0.0000 C   0  0  0  0  0  0  0  0  0  0  0  0
    3.5724    1.2375    0.0000 C   0  0  0  0  0  0  0  0  0  0  0  0
    2.8579    0.8250    0.0000 C   0  0  0  0  0  0  0  0  0  0  0  0
    4.2868    0.8250    0.0000 Cl  0  0  0  0  0  0  0  0  0  0  0  0
    4.2868    2.4750    0.0000 O   0  0  0  0  0  0  0  0  0  0  0  0
    4.2868    3.3000    0.0000 C   0  0  0  0  0  0  0  0  0  0  0  0
    5.0013    3.7125    0.0000 C   0  0  0  0  0  0  0  0  0  0  0  0
    5.0875    4.5330    0.0000 N   0  0  0  0  0  0  0  0  0  0  0  0
    5.8945    4.7045    0.0000 C   0  0  0  0  0  0  0  0  0  0  0  0
    6.3070    3.9900    0.0000 C   0  0  0  0  0  0  0  0  0  0  0  0
    5.7550    3.3769    0.0000 S   0  0  0  0  0  0  0  0  0  0  0  0
  2  1  1  6  0  0  0
  2  3  1  0  0  0  0
  3  4  1  0  0  0  0
  4  5  1  0  0  0  0
  5  6  2  0  0  0  0
  2  6  1  0  0  0  0
  5  7  1  0  0  0  0
  7  8  1  0  0  0  0
  8  9  2  0  0  0  0
  9 10  1  0  0  0  0
 10 11  2  0  0  0  0
 11 12  1  0  0  0  0
 12 13  2  0  0  0  0
  8 13  1  0  0  0  0
 12 14  1  0  0  0  0
 14 15  2  0  0  0  0
 15 16  1  0  0  0  0
 16 17  2  0  0  0  0
 11 17  1  0  0  0  0
 14 18  1  0  0  0  0
 18 19  1  0  0  0  0
 19 20  2  0  0  0  0
 20 21  1  0  0  0  0
 21 22  2  0  0  0  0
 22 23  1  0  0  0  0
 23 24  2  0  0  0  0
 19 24  1  0  0  0  0
 23 25  1  0  0  0  0
 22 26  1  0  0  0  0
 26 27  1  0  0  0  0
 27 28  1  0  0  0  0
 28 29  2  0  0  0  0
 29 30  1  0  0  0  0
 30 31  2  0  0  0  0
 31 32  1  0  0  0  0
 28 32  1  0  0  0  0
M  END
> <DATABASE_ID>
DB05944

> <DATABASE_NAME>
drugbank

> <SMILES>
C[C@@H]1COC(NC2=CC=C3N=CN=C(NC4=CC=C(OCC5=NC=CS5)C(Cl)=C4)C3=C2)=N1

> <INCHI_IDENTIFIER>
InChI=1S/C22H19ClN6O2S/c1-13-10-31-22(27-13)29-14-2-4-18-16(8-14)21(26-12-25-18)28-15-3-5-19(17(23)9-15)30-11-20-24-6-7-32-20/h2-9,12-13H,10-11H2,1H3,(H,27,29)(H,25,26,28)/t13-/m1/s1

> <INCHI_KEY>
UWXSAYUXVSFDBQ-CYBMUJFWSA-N

> <FORMULA>
C22H19ClN6O2S

> <MOLECULAR_WEIGHT>
466.94

> <EXACT_MASS>
466.0978727

> <JCHEM_ACCEPTOR_COUNT>
8

> <JCHEM_ATOM_COUNT>
51

> <JCHEM_AVERAGE_POLARIZABILITY>
48.53300882406544

> <JCHEM_BIOAVAILABILITY>
1

> <JCHEM_DONOR_COUNT>
2

> <JCHEM_FORMAL_CHARGE>
0

> <JCHEM_GHOSE_FILTER>
1

> <JCHEM_IUPAC>
N4-{3-chloro-4-[(1,3-thiazol-2-yl)methoxy]phenyl}-N6-[(4R)-4-methyl-4,5-dihydro-1,3-oxazol-2-yl]quinazoline-4,6-diamine

> <ALOGPS_LOGP>
4.46

> <JCHEM_LOGP>
4.6675741010000005

> <ALOGPS_LOGS>
-5.00

> <JCHEM_MDDR_LIKE_RULE>
1

> <JCHEM_NUMBER_OF_RINGS>
5

> <JCHEM_PHYSIOLOGICAL_CHARGE>
0

> <JCHEM_PKA_STRONGEST_ACIDIC>
17.092012667943454

> <JCHEM_PKA_STRONGEST_BASIC>
4.642323765236216

> <JCHEM_POLAR_SURFACE_AREA>
93.55

> <JCHEM_REFRACTIVITY>
124.1753

> <JCHEM_ROTATABLE_BOND_COUNT>
6

> <JCHEM_RULE_OF_FIVE>
1

> <ALOGPS_SOLUBILITY>
4.70e-03 g/l

> <JCHEM_TRADITIONAL_IUPAC>
N4-[3-chloro-4-(1,3-thiazol-2-ylmethoxy)phenyl]-N6-[(4R)-4-methyl-4,5-dihydro-1,3-oxazol-2-yl]quinazoline-4,6-diamine

> <JCHEM_VEBER_RULE>
0

> <DRUGBANK_ID>
DB05944

> <SECONDARY_ACCESSION_NUMBERS>
DB12723

> <DRUG_GROUPS>
investigational

> <GENERIC_NAME>
Varlitinib

> <SYNONYMS>
Varlitinib

$$$$
