
  Mrv1909 05201915082D          

 31 34  0  0  1  0            999 V2000
    7.0380   -1.7116    0.0000 C   0  0  0  0  0  0  0  0  0  0  0  0
    7.0380   -2.5366    0.0000 N   0  0  0  0  0  0  0  0  0  0  0  0
    7.7054   -3.0215    0.0000 N   0  0  0  0  0  0  0  0  0  0  0  0
    7.4505   -3.8062    0.0000 C   0  0  0  0  0  0  0  0  0  0  0  0
    6.6255   -3.8062    0.0000 C   0  0  0  0  0  0  0  0  0  0  0  0
    6.3706   -3.0215    0.0000 C   0  0  0  0  0  0  0  0  0  0  0  0
    5.5859   -2.7666    0.0000 N   0  0  0  0  0  0  0  0  0  0  0  0
    4.9728   -3.3186    0.0000 C   0  0  0  0  0  0  0  0  0  0  0  0
    5.1444   -4.1256    0.0000 N   0  0  0  0  0  0  0  0  0  0  0  0
    4.5313   -4.6776    0.0000 C   0  0  0  0  0  0  0  0  0  0  0  0
    3.7467   -4.4227    0.0000 C   0  0  0  0  0  0  0  0  0  0  0  0
    3.5751   -3.6157    0.0000 C   0  0  0  0  0  0  0  0  0  0  0  0
    4.1882   -3.0637    0.0000 N   0  0  0  0  0  0  0  0  0  0  0  0
    2.7905   -3.3608    0.0000 C   0  0  0  0  0  0  0  0  0  0  0  0
    2.1774   -3.9128    0.0000 C   0  0  0  0  0  0  0  0  0  0  0  0
    1.3928   -3.6579    0.0000 C   0  0  0  0  0  0  0  0  0  0  0  0
    0.7797   -4.2099    0.0000 O   0  0  0  0  0  0  0  0  0  0  0  0
    1.2213   -2.8509    0.0000 N   0  0  0  0  0  0  0  0  0  0  0  0
    1.8344   -2.2989    0.0000 C   0  0  0  0  0  0  0  0  0  0  0  0
    2.6190   -2.5538    0.0000 C   0  0  0  0  0  0  0  0  0  0  0  0
    0.4366   -2.5960    0.0000 C   0  0  2  0  0  0  0  0  0  0  0  0
   -0.1764   -3.1480    0.0000 C   0  0  0  0  0  0  0  0  0  0  0  0
   -0.9611   -2.8931    0.0000 O   0  0  0  0  0  0  0  0  0  0  0  0
    0.2651   -1.7890    0.0000 C   0  0  0  0  0  0  0  0  0  0  0  0
   -0.5195   -1.5340    0.0000 C   0  0  0  0  0  0  0  0  0  0  0  0
   -0.6910   -0.7271    0.0000 C   0  0  0  0  0  0  0  0  0  0  0  0
   -1.4757   -0.4721    0.0000 F   0  0  0  0  0  0  0  0  0  0  0  0
   -0.0779   -0.1750    0.0000 C   0  0  0  0  0  0  0  0  0  0  0  0
   -0.2495    0.6319    0.0000 Cl  0  0  0  0  0  0  0  0  0  0  0  0
    0.7067   -0.4300    0.0000 C   0  0  0  0  0  0  0  0  0  0  0  0
    0.8782   -1.2370    0.0000 C   0  0  0  0  0  0  0  0  0  0  0  0
  1  2  1  0  0  0  0
  2  3  1  0  0  0  0
  3  4  2  0  0  0  0
  4  5  1  0  0  0  0
  5  6  2  0  0  0  0
  2  6  1  0  0  0  0
  6  7  1  0  0  0  0
  7  8  1  0  0  0  0
  8  9  2  0  0  0  0
  9 10  1  0  0  0  0
 10 11  2  0  0  0  0
 11 12  1  0  0  0  0
 12 13  2  0  0  0  0
  8 13  1  0  0  0  0
 12 14  1  0  0  0  0
 14 15  2  0  0  0  0
 15 16  1  0  0  0  0
 16 17  2  0  0  0  0
 16 18  1  0  0  0  0
 18 19  1  0  0  0  0
 19 20  2  0  0  0  0
 14 20  1  0  0  0  0
 21 18  1  0  0  0  0
 21 22  1  6  0  0  0
 22 23  1  0  0  0  0
 21 24  1  0  0  0  0
 24 25  2  0  0  0  0
 25 26  1  0  0  0  0
 26 27  1  0  0  0  0
 26 28  2  0  0  0  0
 28 29  1  0  0  0  0
 28 30  1  0  0  0  0
 30 31  2  0  0  0  0
 24 31  1  0  0  0  0
M  END
> <DATABASE_ID>
DB15281

> <DATABASE_NAME>
drugbank

> <SMILES>
CN1N=CC=C1NC1=NC=CC(=N1)C1=CC(=O)N(C=C1)[C@H](CO)C1=CC(F)=C(Cl)C=C1

> <INCHI_IDENTIFIER>
InChI=1S/C21H18ClFN6O2/c1-28-19(5-8-25-28)27-21-24-7-4-17(26-21)13-6-9-29(20(31)11-13)18(12-30)14-2-3-15(22)16(23)10-14/h2-11,18,30H,12H2,1H3,(H,24,26,27)/t18-/m1/s1

> <INCHI_KEY>
RZUOCXOYPYGSKL-GOSISDBHSA-N

> <FORMULA>
C21H18ClFN6O2

> <MOLECULAR_WEIGHT>
440.86

> <EXACT_MASS>
440.1163797

> <JCHEM_ACCEPTOR_COUNT>
6

> <JCHEM_ATOM_COUNT>
49

> <JCHEM_AVERAGE_POLARIZABILITY>
43.59114191340116

> <JCHEM_BIOAVAILABILITY>
1

> <JCHEM_DONOR_COUNT>
2

> <JCHEM_FORMAL_CHARGE>
0

> <JCHEM_GHOSE_FILTER>
1

> <JCHEM_IUPAC>
1-[(1S)-1-(4-chloro-3-fluorophenyl)-2-hydroxyethyl]-4-{2-[(1-methyl-1H-pyrazol-5-yl)amino]pyrimidin-4-yl}-1,2-dihydropyridin-2-one

> <ALOGPS_LOGP>
2.89

> <JCHEM_LOGP>
2.695524162000001

> <ALOGPS_LOGS>
-4.07

> <JCHEM_MDDR_LIKE_RULE>
1

> <JCHEM_NUMBER_OF_RINGS>
4

> <JCHEM_PHYSIOLOGICAL_CHARGE>
0

> <JCHEM_PKA>
14.9564608456162

> <JCHEM_PKA_STRONGEST_ACIDIC>
12.198344424533863

> <JCHEM_PKA_STRONGEST_BASIC>
3.0501084768346547

> <JCHEM_POLAR_SURFACE_AREA>
96.17

> <JCHEM_REFRACTIVITY>
125.79649999999995

> <JCHEM_ROTATABLE_BOND_COUNT>
6

> <JCHEM_RULE_OF_FIVE>
1

> <ALOGPS_SOLUBILITY>
3.75e-02 g/l

> <JCHEM_TRADITIONAL_IUPAC>
(2R)-14-fluoro-2-methyl-6,9,10,19-tetraazapentacyclo[14.2.1.0^{2,6}.0^{8,18}.0^{12,17}]nonadeca-1(18),8,12(17),13,15-pentaen-11-one

> <JCHEM_VEBER_RULE>
0

> <DRUGBANK_ID>
DB15281

> <DRUG_GROUPS>
investigational

> <GENERIC_NAME>
Ravoxertinib

> <SYNONYMS>
Ravoxertinib

$$$$
