
  Mrv1909 05201914272D          

 49 53  0  0  1  0            999 V2000
    3.7400   -4.3893    0.0000 C   0  0  0  0  0  0  0  0  0  0  0  0
    3.7400   -3.5643    0.0000 C   0  0  0  0  0  0  0  0  0  0  0  0
    3.0255   -3.1518    0.0000 O   0  0  0  0  0  0  0  0  0  0  0  0
    2.3110   -3.5643    0.0000 C   0  0  0  0  0  0  0  0  0  0  0  0
    1.5966   -3.1518    0.0000 C   0  0  0  0  0  0  0  0  0  0  0  0
    0.8821   -3.5643    0.0000 C   0  0  0  0  0  0  0  0  0  0  0  0
    0.8821   -4.3893    0.0000 C   0  0  0  0  0  0  0  0  0  0  0  0
    1.5966   -4.8018    0.0000 C   0  0  0  0  0  0  0  0  0  0  0  0
    2.3110   -4.3893    0.0000 C   0  0  0  0  0  0  0  0  0  0  0  0
    1.5966   -5.6268    0.0000 C   0  0  0  0  0  0  0  0  0  0  0  0
    1.5966   -6.4518    0.0000 C   0  0  0  0  0  0  0  0  0  0  0  0
    2.4216   -5.6268    0.0000 C   0  0  0  0  0  0  0  0  0  0  0  0
    0.7716   -5.6268    0.0000 C   0  0  0  0  0  0  0  0  0  0  0  0
    1.5966   -2.3268    0.0000 C   0  0  0  0  0  0  0  0  0  0  0  0
    0.7716   -2.3268    0.0000 N   0  0  0  0  0  0  0  0  0  0  0  0
    0.5166   -1.5422    0.0000 C   0  0  1  0  0  0  0  0  0  0  0  0
    0.1041   -0.8277    0.0000 C   0  0  0  0  0  0  0  0  0  0  0  0
   -0.2371   -1.8777    0.0000 C   0  0  0  0  0  0  0  0  0  0  0  0
   -0.3233   -2.6982    0.0000 C   0  0  0  0  0  0  0  0  0  0  0  0
   -1.0770   -3.0338    0.0000 C   0  0  0  0  0  0  0  0  0  0  0  0
   -1.7444   -2.5488    0.0000 C   0  0  0  0  0  0  0  0  0  0  0  0
   -2.4981   -2.8844    0.0000 Cl  0  0  0  0  0  0  0  0  0  0  0  0
   -1.6582   -1.7284    0.0000 C   0  0  0  0  0  0  0  0  0  0  0  0
   -0.9045   -1.3928    0.0000 C   0  0  0  0  0  0  0  0  0  0  0  0
    1.1841   -1.0572    0.0000 C   0  0  2  0  0  0  0  0  0  0  0  0
    0.6320   -0.4441    0.0000 C   0  0  0  0  0  0  0  0  0  0  0  0
    1.8515   -1.5422    0.0000 N   0  0  0  0  0  0  0  0  0  0  0  0
    2.6361   -1.2872    0.0000 C   0  0  0  0  0  0  0  0  0  0  0  0
    3.0486   -0.5728    0.0000 O   0  0  0  0  0  0  0  0  0  0  0  0
    3.2492   -1.8393    0.0000 N   0  0  0  0  0  0  0  0  0  0  0  0
    4.0338   -1.5843    0.0000 C   0  0  0  0  0  0  0  0  0  0  0  0
    4.6469   -2.1364    0.0000 C   0  0  0  0  0  0  0  0  0  0  0  0
    4.4754   -2.9433    0.0000 N   0  0  0  0  0  0  0  0  0  0  0  0
    5.0885   -3.4954    0.0000 C   0  0  0  0  0  0  0  0  0  0  0  0
    4.9170   -4.3023    0.0000 C   0  0  0  0  0  0  0  0  0  0  0  0
    4.1323   -4.5573    0.0000 C   0  0  0  0  0  0  0  0  0  0  0  0
    3.9608   -5.3642    0.0000 S   0  0  0  0  0  0  0  0  0  0  0  0
    3.7893   -6.1712    0.0000 C   0  0  0  0  0  0  0  0  0  0  0  0
    3.1538   -5.1927    0.0000 O   0  0  0  0  0  0  0  0  0  0  0  0
    4.7678   -5.5358    0.0000 O   0  0  0  0  0  0  0  0  0  0  0  0
    3.6908   -3.1983    0.0000 C   0  0  0  0  0  0  0  0  0  0  0  0
    3.0777   -2.6462    0.0000 C   0  0  0  0  0  0  0  0  0  0  0  0
    1.7361   -0.4441    0.0000 C   0  0  0  0  0  0  0  0  0  0  0  0
    1.4812    0.3405    0.0000 C   0  0  0  0  0  0  0  0  0  0  0  0
    2.0332    0.9536    0.0000 C   0  0  0  0  0  0  0  0  0  0  0  0
    2.8402    0.7820    0.0000 C   0  0  0  0  0  0  0  0  0  0  0  0
    3.3922    1.3951    0.0000 Cl  0  0  0  0  0  0  0  0  0  0  0  0
    3.0951   -0.0026    0.0000 C   0  0  0  0  0  0  0  0  0  0  0  0
    2.5431   -0.6157    0.0000 C   0  0  0  0  0  0  0  0  0  0  0  0
  1  2  1  0  0  0  0
  2  3  1  0  0  0  0
  3  4  1  0  0  0  0
  4  5  2  0  0  0  0
  5  6  1  0  0  0  0
  6  7  2  0  0  0  0
  7  8  1  0  0  0  0
  8  9  2  0  0  0  0
  4  9  1  0  0  0  0
  8 10  1  0  0  0  0
 10 11  1  0  0  0  0
 10 12  1  0  0  0  0
 10 13  1  0  0  0  0
  5 14  1  0  0  0  0
 14 15  2  0  0  0  0
 16 15  1  0  0  0  0
 16 17  1  6  0  0  0
 16 18  1  1  0  0  0
 18 19  2  0  0  0  0
 19 20  1  0  0  0  0
 20 21  2  0  0  0  0
 21 22  1  0  0  0  0
 21 23  1  0  0  0  0
 23 24  2  0  0  0  0
 18 24  1  0  0  0  0
 16 25  1  0  0  0  0
 25 26  1  6  0  0  0
 25 27  1  0  0  0  0
 14 27  1  0  0  0  0
 27 28  1  0  0  0  0
 28 29  2  0  0  0  0
 28 30  1  0  0  0  0
 30 31  1  0  0  0  0
 31 32  1  0  0  0  0
 32 33  1  0  0  0  0
 33 34  1  0  0  0  0
 34 35  1  0  0  0  0
 35 36  1  0  0  0  0
 36 37  1  0  0  0  0
 37 38  1  0  0  0  0
 37 39  2  0  0  0  0
 37 40  2  0  0  0  0
 33 41  1  0  0  0  0
 41 42  1  0  0  0  0
 30 42  1  0  0  0  0
 25 43  1  1  0  0  0
 43 44  2  0  0  0  0
 44 45  1  0  0  0  0
 45 46  2  0  0  0  0
 46 47  1  0  0  0  0
 46 48  1  0  0  0  0
 48 49  2  0  0  0  0
 43 49  1  0  0  0  0
M  END
> <DATABASE_ID>
DB14793

> <DATABASE_NAME>
drugbank

> <SMILES>
CCOC1=C(C=CC(=C1)C(C)(C)C)C1=N[C@@](C)(C2=CC=C(Cl)C=C2)[C@](C)(N1C(=O)N1CCN(CCCS(C)(=O)=O)CC1)C1=CC=C(Cl)C=C1

> <INCHI_IDENTIFIER>
InChI=1S/C38H48Cl2N4O4S/c1-8-48-33-26-29(36(2,3)4)14-19-32(33)34-41-37(5,27-10-15-30(39)16-11-27)38(6,28-12-17-31(40)18-13-28)44(34)35(45)43-23-21-42(22-24-43)20-9-25-49(7,46)47/h10-19,26H,8-9,20-25H2,1-7H3/t37-,38+/m0/s1

> <INCHI_KEY>
QBGKPEROWUKSBK-QPPIDDCLSA-N

> <FORMULA>
C38H48Cl2N4O4S

> <MOLECULAR_WEIGHT>
727.783

> <EXACT_MASS>
726.277332148

> <JCHEM_ACCEPTOR_COUNT>
6

> <JCHEM_ATOM_COUNT>
97

> <JCHEM_AVERAGE_POLARIZABILITY>
78.9256497472933

> <JCHEM_BIOAVAILABILITY>
0

> <JCHEM_DONOR_COUNT>
0

> <JCHEM_FORMAL_CHARGE>
0

> <JCHEM_GHOSE_FILTER>
0

> <JCHEM_IUPAC>
1-[(4S,5R)-2-(4-tert-butyl-2-ethoxyphenyl)-4,5-bis(4-chlorophenyl)-4,5-dimethyl-4,5-dihydro-1H-imidazole-1-carbonyl]-4-(3-methanesulfonylpropyl)piperazine

> <ALOGPS_LOGP>
7.31

> <JCHEM_LOGP>
6.883477587666668

> <ALOGPS_LOGS>
-7.14

> <JCHEM_MDDR_LIKE_RULE>
1

> <JCHEM_NUMBER_OF_RINGS>
5

> <JCHEM_PHYSIOLOGICAL_CHARGE>
0

> <JCHEM_PKA_STRONGEST_BASIC>
5.342906766694445

> <JCHEM_POLAR_SURFACE_AREA>
82.52000000000001

> <JCHEM_REFRACTIVITY>
199.7796999999999

> <JCHEM_ROTATABLE_BOND_COUNT>
10

> <JCHEM_RULE_OF_FIVE>
0

> <ALOGPS_SOLUBILITY>
5.24e-05 g/l

> <JCHEM_TRADITIONAL_IUPAC>
(2R)-14-fluoro-2-methyl-6,9,10,19-tetraazapentacyclo[14.2.1.0^{2,6}.0^{8,18}.0^{12,17}]nonadeca-1(18),8,12(17),13,15-pentaen-11-one

> <JCHEM_VEBER_RULE>
0

> <DRUGBANK_ID>
DB14793

> <DRUG_GROUPS>
investigational

> <GENERIC_NAME>
RO-5045337

$$$$
