
  Mrv1652310211600022D          

 27 31  0  0  1  0            999 V2000
    4.5466   -0.5086    0.0000 C   0  0  0  0  0  0  0  0  0  0  0  0
    4.8269    0.2673    0.0000 C   0  0  2  0  0  0  0  0  0  0  0  0
    5.3587   -0.3634    0.0000 C   0  0  0  0  0  0  0  0  0  0  0  0
    6.1708   -0.2182    0.0000 C   0  0  0  0  0  0  0  0  0  0  0  0
    6.4511    0.5577    0.0000 C   0  0  1  0  0  0  0  0  0  0  0  0
    5.9193    1.1884    0.0000 C   0  0  0  0  0  0  0  0  0  0  0  0
    5.1072    1.0432    0.0000 C   0  0  1  0  0  0  0  0  0  0  0  0
    4.5754    1.6739    0.0000 C   0  0  0  0  0  0  0  0  0  0  0  0
    3.7633    1.5287    0.0000 C   0  0  0  0  0  0  0  0  0  0  0  0
    3.4830    0.7528    0.0000 C   0  0  2  0  0  0  0  0  0  0  0  0
    4.0148    0.1221    0.0000 C   0  0  2  0  0  0  0  0  0  0  0  0
    3.7345   -0.6539    0.0000 C   0  0  0  0  0  0  0  0  0  0  0  0
    2.9224   -0.7991    0.0000 C   0  0  0  0  0  0  0  0  0  0  0  0
    2.3905   -0.1684    0.0000 C   0  0  1  0  0  0  0  0  0  0  0  0
    2.6708    0.6076    0.0000 C   0  0  2  0  0  0  0  0  0  0  0  0
    2.0195    1.1139    0.0000 C   0  0  0  0  0  0  0  0  0  0  0  0
    1.3367    0.6509    0.0000 C   0  0  0  0  0  0  0  0  0  0  0  0
    1.5660   -0.1416    0.0000 C   0  0  2  0  0  0  0  0  0  0  0  0
    0.8051   -0.4604    0.0000 C   0  0  0  0  0  0  0  0  0  0  0  0
    0.6158   -1.2634    0.0000 C   0  0  0  0  0  0  0  0  0  0  0  0
   -0.2064   -1.3316    0.0000 C   0  0  0  0  0  0  0  0  0  0  0  0
   -0.5252   -0.5707    0.0000 O   0  0  0  0  0  0  0  0  0  0  0  0
    0.0999   -0.0323    0.0000 C   0  0  0  0  0  0  0  0  0  0  0  0
    1.4446   -0.9576    0.0000 O   0  0  0  0  0  0  0  0  0  0  0  0
    2.8685    1.4085    0.0000 O   0  0  0  0  0  0  0  0  0  0  0  0
    2.0307   -0.9107    0.0000 C   0  0  0  0  0  0  0  0  0  0  0  0
    7.2632    0.7029    0.0000 O   0  0  0  0  0  0  0  0  0  0  0  0
  2  1  1  1  0  0  0
  2  3  1  0  0  0  0
  3  4  1  0  0  0  0
  4  5  1  0  0  0  0
  5  6  1  0  0  0  0
  7  6  1  6  0  0  0
  2  7  1  0  0  0  0
  7  8  1  0  0  0  0
  8  9  1  0  0  0  0
 10  9  1  6  0  0  0
 10 11  1  0  0  0  0
  2 11  1  0  0  0  0
 11 12  1  1  0  0  0
 12 13  1  0  0  0  0
 13 14  1  0  0  0  0
 14 15  1  0  0  0  0
 10 15  1  0  0  0  0
 15 16  1  0  0  0  0
 16 17  1  0  0  0  0
 17 18  1  0  0  0  0
 14 18  1  0  0  0  0
 18 19  1  1  0  0  0
 19 20  1  0  0  0  0
 20 21  2  0  0  0  0
 21 22  1  0  0  0  0
 22 23  1  0  0  0  0
 19 23  2  0  0  0  0
 18 24  1  6  0  0  0
 15 25  1  1  0  0  0
 14 26  1  1  0  0  0
  5 27  1  1  0  0  0
M  END
> <DATABASE_ID>
DB12350

> <DATABASE_NAME>
drugbank

> <SMILES>
C[C@]12CC[C@H]3[C@@H](CC[C@@H]4C[C@@H](O)CC[C@]34C)[C@@]1(O)CC[C@]2(O)C1=COC=C1

> <INCHI_IDENTIFIER>
InChI=1S/C23H34O4/c1-20-8-5-17(24)13-15(20)3-4-19-18(20)6-9-21(2)22(25,10-11-23(19,21)26)16-7-12-27-14-16/h7,12,14-15,17-19,24-26H,3-6,8-11,13H2,1-2H3/t15-,17+,18+,19-,20+,21-,22+,23+/m1/s1

> <INCHI_KEY>
AEAPORIZZWBIEX-DTBDINHYSA-N

> <FORMULA>
C23H34O4

> <MOLECULAR_WEIGHT>
374.521

> <EXACT_MASS>
374.245709575

> <JCHEM_ACCEPTOR_COUNT>
3

> <JCHEM_ATOM_COUNT>
61

> <JCHEM_AVERAGE_POLARIZABILITY>
41.785976311122404

> <JCHEM_BIOAVAILABILITY>
1

> <JCHEM_DONOR_COUNT>
3

> <JCHEM_FORMAL_CHARGE>
0

> <JCHEM_GHOSE_FILTER>
1

> <JCHEM_IUPAC>
(1S,2S,5S,7R,10R,11S,14R,15S)-14-(furan-3-yl)-2,15-dimethyltetracyclo[8.7.0.0^{2,7}.0^{11,15}]heptadecane-5,11,14-triol

> <ALOGPS_LOGP>
2.86

> <JCHEM_LOGP>
2.9108981473333335

> <ALOGPS_LOGS>
-4.03

> <JCHEM_MDDR_LIKE_RULE>
0

> <JCHEM_NUMBER_OF_RINGS>
5

> <JCHEM_PHYSIOLOGICAL_CHARGE>
0

> <JCHEM_PKA>
14.24466264638859

> <JCHEM_PKA_STRONGEST_ACIDIC>
13.218209198065416

> <JCHEM_PKA_STRONGEST_BASIC>
-1.3444087999039671

> <JCHEM_POLAR_SURFACE_AREA>
73.83000000000001

> <JCHEM_REFRACTIVITY>
103.09789999999998

> <JCHEM_ROTATABLE_BOND_COUNT>
1

> <JCHEM_RULE_OF_FIVE>
1

> <ALOGPS_SOLUBILITY>
3.47e-02 g/l

> <JCHEM_TRADITIONAL_IUPAC>
(1S,2S,5S,7R,10R,11S,14R,15S)-14-(furan-3-yl)-2,15-dimethyltetracyclo[8.7.0.0^{2,7}.0^{11,15}]heptadecane-5,11,14-triol

> <JCHEM_VEBER_RULE>
0

> <DRUGBANK_ID>
DB12350

> <DRUG_GROUPS>
investigational

> <GENERIC_NAME>
Rostafuroxin

> <SYNONYMS>
Rostafuroxin

$$$$
