
  Mrv1909 11252021352D          

 44 47  0  0  0  0            999 V2000
    0.4207   -0.1606    0.0000 O   0  0  0  0  0  0  0  0  0  0  0  0
    0.4283   -0.9883    0.0000 C   0  0  0  0  0  0  0  0  0  0  0  0
   -0.2821   -1.4076    0.0000 C   0  0  0  0  0  0  0  0  0  0  0  0
   -0.2749   -2.2355    0.0000 C   0  0  0  0  0  0  0  0  0  0  0  0
    0.4429   -2.6422    0.0000 O   0  0  0  0  0  0  0  0  0  0  0  0
   -0.9825   -2.6512    0.0000 C   0  0  0  0  0  0  0  0  0  0  0  0
   -1.7013   -2.2464    0.0000 C   0  0  0  0  0  0  0  0  0  0  0  0
   -2.4107   -2.6673    0.0000 O   0  0  0  0  0  0  0  0  0  0  0  0
   -3.1302   -2.2637    0.0000 C   0  0  2  0  0  0  0  0  0  0  0  0
   -3.1411   -1.4358    0.0000 O   0  0  0  0  0  0  0  0  0  0  0  0
   -3.8575   -1.0356    0.0000 C   0  0  1  0  0  0  0  0  0  0  0  0
   -4.5673   -1.4560    0.0000 C   0  0  1  0  0  0  0  0  0  0  0  0
   -5.2856   -1.0505    0.0000 O   0  0  0  0  0  0  0  0  0  0  0  0
   -4.5607   -2.2768    0.0000 C   0  0  2  0  0  0  0  0  0  0  0  0
   -5.2714   -2.6953    0.0000 O   0  0  0  0  0  0  0  0  0  0  0  0
   -3.8400   -2.6840    0.0000 C   0  0  1  0  0  0  0  0  0  0  0  0
   -3.8316   -3.5090    0.0000 O   0  0  0  0  0  0  0  0  0  0  0  0
   -3.8679   -0.2106    0.0000 C   0  0  0  0  0  0  0  0  0  0  0  0
   -3.2344    0.2245    0.0000 O   0  0  0  0  0  0  0  0  0  0  0  0
   -1.7125   -1.4257    0.0000 C   0  0  0  0  0  0  0  0  0  0  0  0
   -1.0009   -1.0028    0.0000 C   0  0  0  0  0  0  0  0  0  0  0  0
   -1.0105   -0.1778    0.0000 O   0  0  0  0  0  0  0  0  0  0  0  0
   -1.7296    0.2263    0.0000 C   0  0  0  0  0  0  0  0  0  0  0  0
    1.1432   -1.3915    0.0000 C   0  0  0  0  0  0  0  0  0  0  0  0
    1.8554   -0.9694    0.0000 C   0  0  0  0  0  0  0  0  0  0  0  0
    2.5744   -1.3740    0.0000 C   0  0  0  0  0  0  0  0  0  0  0  0
    2.5845   -2.2018    0.0000 C   0  0  0  0  0  0  0  0  0  0  0  0
    3.2949   -2.5994    0.0000 C   0  0  0  0  0  0  0  0  0  0  0  0
    4.0106   -2.1827    0.0000 C   0  0  0  0  0  0  0  0  0  0  0  0
    4.7286   -2.5890    0.0000 O   0  0  0  0  0  0  0  0  0  0  0  0
    5.2856   -2.2260    0.0000 C   0  0  0  0  0  0  0  0  0  0  0  0
    4.0028   -1.3610    0.0000 C   0  0  0  0  0  0  0  0  0  0  0  0
    3.2846   -0.9542    0.0000 C   0  0  0  0  0  0  0  0  0  0  0  0
   -3.2340    1.0356    0.0000 C   0  0  2  0  0  0  0  0  0  0  0  0
   -3.9452    1.4592    0.0000 O   0  0  0  0  0  0  0  0  0  0  0  0
   -3.9331    2.2799    0.0000 C   0  0  2  0  0  0  0  0  0  0  0  0
   -3.2139    2.6841    0.0000 C   0  0  2  0  0  0  0  0  0  0  0  0
   -3.2056    3.5090    0.0000 O   0  0  0  0  0  0  0  0  0  0  0  0
   -2.5067    2.2676    0.0000 C   0  0  1  0  0  0  0  0  0  0  0  0
   -1.7885    2.6735    0.0000 O   0  0  0  0  0  0  0  0  0  0  0  0
   -2.5147    1.4397    0.0000 C   0  0  1  0  0  0  0  0  0  0  0  0
   -1.8047    1.0197    0.0000 O   0  0  0  0  0  0  0  0  0  0  0  0
   -4.6421    2.7017    0.0000 C   0  0  0  0  0  0  0  0  0  0  0  0
    3.2882   -3.4080    0.0000 O   0  0  0  0  0  0  0  0  0  0  0  0
 11 12  1  0  0  0  0
 12 13  1  6  0  0  0
 12 14  1  0  0  0  0
 14 15  1  1  0  0  0
 14 16  1  0  0  0  0
 16  9  1  0  0  0  0
 16 17  1  6  0  0  0
 11 18  1  1  0  0  0
 18 19  1  0  0  0  0
  7 20  2  0  0  0  0
 20 21  1  0  0  0  0
 21  3  2  0  0  0  0
 21 22  1  0  0  0  0
 22 23  1  0  0  0  0
  2 24  1  0  0  0  0
 24 25  2  0  0  0  0
 25 26  1  0  0  0  0
 26 27  1  0  0  0  0
 27 28  2  0  0  0  0
 28 29  1  0  0  0  0
 29 30  1  0  0  0  0
 30 31  1  0  0  0  0
 29 32  2  0  0  0  0
 32 33  1  0  0  0  0
 33 26  2  0  0  0  0
  1  2  2  0  0  0  0
  2  3  1  0  0  0  0
  3  4  1  0  0  0  0
  4  5  1  0  0  0  0
  4  6  2  0  0  0  0
  6  7  1  0  0  0  0
  7  8  1  0  0  0  0
  9  8  1  1  0  0  0
  9 10  1  0  0  0  0
 34 35  1  0  0  0  0
 35 36  1  0  0  0  0
 36 37  1  0  0  0  0
 37 38  1  6  0  0  0
 37 39  1  0  0  0  0
 39 40  1  1  0  0  0
 39 41  1  0  0  0  0
 41 34  1  0  0  0  0
 41 42  1  1  0  0  0
 36 43  1  1  0  0  0
 34 19  1  6  0  0  0
 10 11  1  0  0  0  0
 28 44  1  0  0  0  0
M  END
> <DATABASE_ID>
DB15943

> <DATABASE_NAME>
drugbank

> <SMILES>
COC1=CC=C(\C=C\C(=O)C2=C(OC)C=C(O[C@@H]3O[C@H](CO[C@@H]4O[C@@H](C)[C@H](O)[C@@H](O)[C@H]4O)[C@@H](O)[C@H](O)[C@H]3O)C=C2O)C=C1O

> <INCHI_IDENTIFIER>
InChI=1S/C29H36O15/c1-12-22(33)24(35)26(37)28(42-12)41-11-20-23(34)25(36)27(38)29(44-20)43-14-9-17(32)21(19(10-14)40-3)15(30)6-4-13-5-7-18(39-2)16(31)8-13/h4-10,12,20,22-29,31-38H,11H2,1-3H3/b6-4+/t12-,20+,22-,23+,24+,25-,26+,27+,28+,29+/m0/s1

> <INCHI_KEY>
FDHNLHLOJLLXDH-JIYHLSBYSA-N

> <FORMULA>
C29H36O15

> <MOLECULAR_WEIGHT>
624.592

> <EXACT_MASS>
624.205420459

> <JCHEM_ACCEPTOR_COUNT>
15

> <JCHEM_ATOM_COUNT>
80

> <JCHEM_AVERAGE_NEUTRAL_MICROSPECIES_CHARGE>
-0.423077686890417

> <JCHEM_AVERAGE_POLARIZABILITY>
62.15732062154894

> <JCHEM_BIOAVAILABILITY>
0

> <JCHEM_DONOR_COUNT>
8

> <JCHEM_FORMAL_CHARGE>
0

> <JCHEM_GHOSE_FILTER>
0

> <JCHEM_IUPAC>
(2E)-3-(3-hydroxy-4-methoxyphenyl)-1-(2-hydroxy-6-methoxy-4-{[(2S,3R,4S,5S,6R)-3,4,5-trihydroxy-6-({[(2R,3R,4R,5R,6S)-3,4,5-trihydroxy-6-methyloxan-2-yl]oxy}methyl)oxan-2-yl]oxy}phenyl)prop-2-en-1-one

> <ALOGPS_LOGP>
0.28

> <JCHEM_LOGP>
0.32229304033333317

> <ALOGPS_LOGS>
-2.88

> <JCHEM_MDDR_LIKE_RULE>
1

> <JCHEM_NEUTRAL_CHARGE>
0

> <JCHEM_NUMBER_OF_RINGS>
4

> <JCHEM_PHYSIOLOGICAL_CHARGE>
-1

> <JCHEM_PKA>
9.827914085857783

> <JCHEM_PKA_STRONGEST_ACIDIC>
7.137381857237475

> <JCHEM_PKA_STRONGEST_BASIC>
-3.612182351683661

> <JCHEM_POLAR_SURFACE_AREA>
234.28999999999996

> <JCHEM_REFRACTIVITY>
148.76010000000005

> <JCHEM_ROTATABLE_BOND_COUNT>
10

> <JCHEM_RULE_OF_FIVE>
0

> <ALOGPS_SOLUBILITY>
8.16e-01 g/l

> <JCHEM_TRADITIONAL_IUPAC>
fimasartan potassium

> <JCHEM_VEBER_RULE>
0

> <DRUGBANK_ID>
DB15943

> <DRUG_GROUPS>
experimental

> <GENERIC_NAME>
Hesperidin methylchalcone

> <SYNONYMS>
Hesperidin methyl chalcone

$$$$
