
  Mrv1652306231722412D          

 14 14  0  0  0  0            999 V2000
    1.4289    0.8250    0.0000 C   0  0  0  0  0  0  0  0  0  0  0  0
    1.4289   -0.0000    0.0000 C   0  0  0  0  0  0  0  0  0  0  0  0
    0.7145   -0.4125    0.0000 C   0  0  0  0  0  0  0  0  0  0  0  0
    0.7145   -1.2375    0.0000 O   0  0  0  0  0  0  0  0  0  0  0  0
    0.0000   -0.0000    0.0000 C   0  0  0  0  0  0  0  0  0  0  0  0
    0.0000    0.8250    0.0000 C   0  0  0  0  0  0  0  0  0  0  0  0
    0.7145    1.2375    0.0000 N   0  0  0  0  0  0  0  0  0  0  0  0
    0.7145    2.0625    0.0000 C   0  0  0  0  0  0  0  0  0  0  0  0
   -0.0000    2.4750    0.0000 C   0  0  0  0  0  0  0  0  0  0  0  0
   -0.0000    3.3000    0.0000 C   0  0  0  0  0  0  0  0  0  0  0  0
   -0.7145    3.7125    0.0000 O   0  0  0  0  0  0  0  0  0  0  0  0
   -0.7145    2.0625    0.0000 O   0  0  0  0  0  0  0  0  0  0  0  0
   -0.7145   -0.4125    0.0000 I   0  0  0  0  0  0  0  0  0  0  0  0
    2.1434   -0.4125    0.0000 I   0  0  0  0  0  0  0  0  0  0  0  0
  1  2  2  0  0  0  0
  2  3  1  0  0  0  0
  3  4  2  0  0  0  0
  3  5  1  0  0  0  0
  5  6  2  0  0  0  0
  6  7  1  0  0  0  0
  1  7  1  0  0  0  0
  7  8  1  0  0  0  0
  8  9  1  0  0  0  0
  9 10  1  0  0  0  0
 10 11  1  0  0  0  0
  9 12  1  0  0  0  0
  5 13  1  0  0  0  0
  2 14  1  0  0  0  0
M  END
> <DATABASE_ID>
DB13389

> <DATABASE_NAME>
drugbank

> <SMILES>
OCC(O)CN1C=C(I)C(=O)C(I)=C1

> <INCHI_IDENTIFIER>
InChI=1S/C8H9I2NO3/c9-6-2-11(1-5(13)4-12)3-7(10)8(6)14/h2-3,5,12-13H,1,4H2

> <INCHI_KEY>
TZADDXVKYWMEHX-UHFFFAOYSA-N

> <FORMULA>
C8H9I2NO3

> <MOLECULAR_WEIGHT>
420.973

> <EXACT_MASS>
420.86718

> <JCHEM_ACCEPTOR_COUNT>
4

> <JCHEM_ATOM_COUNT>
23

> <JCHEM_AVERAGE_POLARIZABILITY>
27.85728311618573

> <JCHEM_BIOAVAILABILITY>
1

> <JCHEM_DONOR_COUNT>
2

> <JCHEM_FORMAL_CHARGE>
0

> <JCHEM_GHOSE_FILTER>
1

> <JCHEM_IUPAC>
1-(2,3-dihydroxypropyl)-3,5-diiodo-1,4-dihydropyridin-4-one

> <ALOGPS_LOGP>
0.27

> <JCHEM_LOGP>
1.307733538

> <ALOGPS_LOGS>
-1.94

> <JCHEM_MDDR_LIKE_RULE>
0

> <JCHEM_NUMBER_OF_RINGS>
1

> <JCHEM_PHYSIOLOGICAL_CHARGE>
0

> <JCHEM_PKA>
15.652730015840646

> <JCHEM_PKA_STRONGEST_ACIDIC>
13.9766794474296

> <JCHEM_PKA_STRONGEST_BASIC>
-2.9542256314388764

> <JCHEM_POLAR_SURFACE_AREA>
60.77000000000001

> <JCHEM_REFRACTIVITY>
71.8639

> <JCHEM_ROTATABLE_BOND_COUNT>
3

> <JCHEM_RULE_OF_FIVE>
1

> <ALOGPS_SOLUBILITY>
4.82e+00 g/l

> <JCHEM_TRADITIONAL_IUPAC>
iopydol

> <JCHEM_VEBER_RULE>
0

> <DRUGBANK_ID>
DB13389

> <DRUG_GROUPS>
experimental

> <GENERIC_NAME>
Iopydol

> <SYNONYMS>
Iopydol

$$$$
