
  Mrv1909 05082120292D          

 93 98  0  0  1  0            999 V2000
    0.1477    2.4936    0.0000 C   0  5  0  0  0  0  0  0  0  0  0  0
    0.1477    3.0706    0.0000 N   0  0  0  0  0  0  0  0  0  0  0  0
   -0.1671    1.5184    0.0000 Co  0  1  0  0  0  0  0  0  0  0  0  0
   -1.5389    2.4462    0.0000 C   0  0  1  0  0  0  0  0  0  0  0  0
   -1.3418   -0.2849    0.0000 C   0  0  2  0  0  0  0  0  0  0  0  0
   -1.8932    0.2517    0.0000 C   0  0  2  0  0  0  0  0  0  0  0  0
   -0.2683   -3.5818    0.0000 C   0  0  1  0  0  0  0  0  0  0  0  0
   -1.0898   -3.4430    0.0000 C   0  0  1  0  0  0  0  0  0  0  0  0
   -1.4659   -4.1879    0.0000 C   0  0  1  0  0  0  0  0  0  0  0  0
   -3.8244   -3.1400    0.0000 C   0  0  1  0  0  0  0  0  0  0  0  0
   -0.8853   -4.7830    0.0000 C   0  0  2  0  0  0  0  0  0  0  0  0
    1.5754   -0.2629    0.0000 C   0  0  2  0  0  0  0  0  0  0  0  0
    2.0902    3.2312    0.0000 C   0  0  1  0  0  0  0  0  0  0  0  0
    1.5389    3.7825    0.0000 C   0  0  1  0  0  0  0  0  0  0  0  0
   -1.3162    3.7204    0.0000 C   0  0  1  0  0  0  0  0  0  0  0  0
   -1.8895    3.1399    0.0000 C   0  0  2  0  0  0  0  0  0  0  0  0
   -0.7685    2.5959    0.0000 N   0  0  0  0  0  0  0  0  0  0  0  0
   -0.6005    3.3808    0.0000 C   0  0  0  0  0  0  0  0  0  0  0  0
    0.1114    3.7643    0.0000 C   0  0  0  0  0  0  0  0  0  0  0  0
    0.1076    4.5822    0.0000 C   0  0  0  0  0  0  0  0  0  0  0  0
    0.8014    3.3956    0.0000 C   0  0  0  0  0  0  0  0  0  0  0  0
    0.9511    2.5849    0.0000 N   0  0  0  0  0  0  0  0  0  0  0  0
    1.6996    2.4754    0.0000 C   0  0  0  0  0  0  0  0  0  0  0  0
    2.0975    1.7598    0.0000 C   0  0  0  0  0  0  0  0  0  0  0  0
    1.7360    1.0733    0.0000 C   0  0  0  0  0  0  0  0  0  0  0  0
    0.9401    0.8871    0.0000 N   0  0  0  0  0  0  0  0  0  0  0  0
    0.8014    0.1058    0.0000 C   0  0  0  0  0  0  0  0  0  0  0  0
    0.1114   -0.2703    0.0000 C   0  0  0  0  0  0  0  0  0  0  0  0
   -0.6005    0.1241    0.0000 C   0  0  0  0  0  0  0  0  0  0  0  0
   -1.5243    1.0112    0.0000 C   0  0  0  0  0  0  0  0  0  0  0  0
   -0.7246    0.8725    0.0000 N   0  5  0  0  0  0  0  0  0  0  0  0
    0.9621   -1.8146    0.0000 N   0  0  0  0  0  0  0  0  0  0  0  0
    0.2099   -2.1651    0.0000 C   0  0  0  0  0  0  0  0  0  0  0  0
    0.3122   -2.9903    0.0000 N   0  0  0  0  0  0  0  0  0  0  0  0
   -2.1888   -4.5968    0.0000 O   0  0  0  0  0  0  0  0  0  0  0  0
   -3.8282   -4.5749    0.0000 P   0  0  0  0  0  0  0  0  0  0  0  0
   -4.2371   -3.8557    0.0000 O   0  0  0  0  0  0  0  0  0  0  0  0
   -4.2371   -2.4243    0.0000 C   0  0  0  0  0  0  0  0  0  0  0  0
   -3.8135   -1.7051    0.0000 N   0  0  0  0  0  0  0  0  0  0  0  0
   -2.9957   -1.7088    0.0000 C   0  0  0  0  0  0  0  0  0  0  0  0
   -2.5758   -1.0003    0.0000 C   0  0  0  0  0  0  0  0  0  0  0  0
   -1.7616   -1.0041    0.0000 C   0  0  0  0  0  0  0  0  0  0  0  0
   -2.5867   -2.4317    0.0000 O   0  0  0  0  0  0  0  0  0  0  0  0
   -2.9994   -3.1400    0.0000 C   0  0  0  0  0  0  0  0  0  0  0  0
   -3.8318   -5.4000    0.0000 O   0  5  0  0  0  0  0  0  0  0  0  0
   -4.5511   -4.9875    0.0000 O   0  0  0  0  0  0  0  0  0  0  0  0
   -0.1442   -4.4070    0.0000 O   0  0  0  0  0  0  0  0  0  0  0  0
   -1.3016   -5.4913    0.0000 C   0  0  0  0  0  0  0  0  0  0  0  0
   -0.8891   -6.2105    0.0000 O   0  0  0  0  0  0  0  0  0  0  0  0
   -1.4951   -2.7274    0.0000 O   0  0  0  0  0  0  0  0  0  0  0  0
    1.1226   -3.1546    0.0000 C   0  0  0  0  0  0  0  0  0  0  0  0
    1.5243   -2.4243    0.0000 C   0  0  0  0  0  0  0  0  0  0  0  0
    2.3533   -2.4061    0.0000 C   0  0  0  0  0  0  0  0  0  0  0  0
    2.7803   -3.1217    0.0000 C   0  0  0  0  0  0  0  0  0  0  0  0
    2.3787   -3.8557    0.0000 C   0  0  0  0  0  0  0  0  0  0  0  0
    1.5536   -3.8630    0.0000 C   0  0  0  0  0  0  0  0  0  0  0  0
    2.7876   -4.5749    0.0000 C   0  0  0  0  0  0  0  0  0  0  0  0
    3.5982   -3.1145    0.0000 C   0  0  0  0  0  0  0  0  0  0  0  0
   -2.7182    0.2555    0.0000 C   0  0  0  0  0  0  0  0  0  0  0  0
   -3.4338    0.6753    0.0000 C   0  0  0  0  0  0  0  0  0  0  0  0
   -3.4338    1.5114    0.0000 O   0  0  0  0  0  0  0  0  0  0  0  0
   -4.1458    0.2555    0.0000 N   0  0  0  0  0  0  0  0  0  0  0  0
   -0.9329   -1.0078    0.0000 C   0  0  0  0  0  0  0  0  0  0  0  0
    0.1114   -1.1064    0.0000 C   0  0  0  0  0  0  0  0  0  0  0  0
    2.1157    0.2920    0.0000 C   0  0  0  0  0  0  0  0  0  0  0  0
    2.8241    0.7082    0.0000 C   0  0  0  0  0  0  0  0  0  0  0  0
    2.8277   -0.1241    0.0000 C   0  0  0  0  0  0  0  0  0  0  0  0
    1.5717   -1.0917    0.0000 C   0  0  0  0  0  0  0  0  0  0  0  0
    2.2801   -1.5043    0.0000 C   0  0  0  0  0  0  0  0  0  0  0  0
    3.0979   -1.5043    0.0000 C   0  0  0  0  0  0  0  0  0  0  0  0
    3.4959   -0.7923    0.0000 O   0  0  0  0  0  0  0  0  0  0  0  0
    3.4959   -2.2089    0.0000 N   0  0  0  0  0  0  0  0  0  0  0  0
    1.5389    4.6004    0.0000 C   0  0  0  0  0  0  0  0  0  0  0  0
    2.2435    5.0202    0.0000 C   0  0  0  0  0  0  0  0  0  0  0  0
    2.2435    5.8417    0.0000 O   0  0  0  0  0  0  0  0  0  0  0  0
    2.9630    4.6004    0.0000 N   0  0  0  0  0  0  0  0  0  0  0  0
    2.3604    3.7825    0.0000 C   0  0  0  0  0  0  0  0  0  0  0  0
    2.9081    3.2276    0.0000 C   0  0  0  0  0  0  0  0  0  0  0  0
    3.3170    2.5119    0.0000 C   0  0  0  0  0  0  0  0  0  0  0  0
    4.1458    2.5119    0.0000 C   0  0  0  0  0  0  0  0  0  0  0  0
    4.5511    3.2349    0.0000 O   0  0  0  0  0  0  0  0  0  0  0  0
    4.5511    1.7890    0.0000 N   0  0  0  0  0  0  0  0  0  0  0  0
   -2.6014    3.5562    0.0000 C   0  0  0  0  0  0  0  0  0  0  0  0
   -3.4338    3.5597    0.0000 C   0  0  0  0  0  0  0  0  0  0  0  0
   -3.8464    4.2755    0.0000 O   0  0  0  0  0  0  0  0  0  0  0  0
   -3.8464    2.8405    0.0000 N   0  0  0  0  0  0  0  0  0  0  0  0
   -2.6014    2.7274    0.0000 C   0  0  0  0  0  0  0  0  0  0  0  0
   -1.3235    4.5493    0.0000 C   0  0  0  0  0  0  0  0  0  0  0  0
   -0.6150    4.9619    0.0000 C   0  0  0  0  0  0  0  0  0  0  0  0
   -0.6188    5.7906    0.0000 C   0  0  0  0  0  0  0  0  0  0  0  0
   -1.3309    6.2105    0.0000 O   0  0  0  0  0  0  0  0  0  0  0  0
    0.0894    6.2069    0.0000 N   0  0  0  0  0  0  0  0  0  0  0  0
   -2.2582    2.0336    0.0000 C   0  0  0  0  0  0  0  0  0  0  0  0
  1  2  3  0  0  0  0
  5  6  1  0  0  0  0
  7  8  1  0  0  0  0
  8  9  1  0  0  0  0
 11  9  1  0  0  0  0
 13 14  1  0  0  0  0
 16  4  1  0  0  0  0
 15 16  1  0  0  0  0
 17  4  1  0  0  0  0
 18 17  2  0  0  0  0
 18 15  1  0  0  0  0
 19 18  1  0  0  0  0
 20 19  1  0  0  0  0
 14 21  1  0  0  0  0
 21 19  2  0  0  0  0
 22 21  1  0  0  0  0
 23 22  2  0  0  0  0
 23 13  1  0  0  0  0
 24 23  1  0  0  0  0
 24 25  2  0  0  0  0
 25 26  1  0  0  0  0
 26 27  2  0  0  0  0
 12 27  1  0  0  0  0
 27 28  1  0  0  0  0
 28 29  2  0  0  0  0
 29  5  1  0  0  0  0
 30  4  1  0  0  0  0
  6 30  1  0  0  0  0
 31 30  1  0  0  0  0
 29 31  1  0  0  0  0
 32 33  2  0  0  0  0
  7 34  1  1  0  0  0
 33 34  1  0  0  0  0
  9 35  1  1  0  0  0
 35 36  1  0  0  0  0
 36 37  1  0  0  0  0
 37 10  1  0  0  0  0
 10 38  1  0  0  0  0
 38 39  1  0  0  0  0
 39 40  1  0  0  0  0
 40 41  1  0  0  0  0
  5 42  1  6  0  0  0
 41 42  1  0  0  0  0
 43 40  2  0  0  0  0
 10 44  1  1  0  0  0
 45 36  1  0  0  0  0
 46 36  2  0  0  0  0
 47 11  1  0  0  0  0
  7 47  1  0  0  0  0
 11 48  1  6  0  0  0
 49 48  1  0  0  0  0
  8 50  1  1  0  0  0
 51 34  1  0  0  0  0
 52 51  2  0  0  0  0
 32 52  1  0  0  0  0
 53 52  1  0  0  0  0
 53 54  2  0  0  0  0
 54 55  1  0  0  0  0
 56 51  1  0  0  0  0
 55 56  2  0  0  0  0
 57 55  1  0  0  0  0
 58 54  1  0  0  0  0
  6 59  1  1  0  0  0
 60 59  1  0  0  0  0
 61 60  2  0  0  0  0
 62 60  1  0  0  0  0
  5 63  1  1  0  0  0
 64 28  1  0  0  0  0
 65 12  1  0  0  0  0
 25 65  1  0  0  0  0
 66 65  1  0  0  0  0
 67 65  1  0  0  0  0
 12 68  1  6  0  0  0
 69 68  1  0  0  0  0
 70 69  1  0  0  0  0
 71 70  2  0  0  0  0
 72 70  1  0  0  0  0
 14 73  1  1  0  0  0
 74 73  1  0  0  0  0
 75 74  2  0  0  0  0
 76 74  1  0  0  0  0
 14 77  1  6  0  0  0
 13 78  1  6  0  0  0
 79 78  1  0  0  0  0
 80 79  1  0  0  0  0
 81 80  2  0  0  0  0
 82 80  1  0  0  0  0
 16 83  1  1  0  0  0
 84 83  1  0  0  0  0
 85 84  2  0  0  0  0
 86 84  1  0  0  0  0
 16 87  1  6  0  0  0
 15 88  1  6  0  0  0
 89 88  1  0  0  0  0
 90 89  1  0  0  0  0
 91 90  2  0  0  0  0
 92 90  1  0  0  0  0
  4 93  1  6  0  0  0
M  CHG  4   1  -1   3   3  31  -1  45  -1
M  ISO  1   3  60
M  END
> <DATABASE_ID>
DB09387

> <DATABASE_NAME>
drugbank

> <SMILES>
[60Co+3].[C-]#N.C[C@H](CNC(=O)CC[C@]1(C)[C@@H](CC(N)=O)C2[N-]\C1=C(C)/C1=N/C(=C\C3=N\C(=C(C)/C4=N[C@]2(C)[C@@](C)(CC(N)=O)[C@@H]4CCC(N)=O)\[C@@](C)(CC(N)=O)[C@@H]3CCC(N)=O)/C(C)(C)[C@@H]1CCC(N)=O)OP([O-])(=O)O[C@@H]1[C@@H](CO)O[C@@H]([C@@H]1O)N1C=NC2=C1C=C(C)C(C)=C2

> <INCHI_IDENTIFIER>
InChI=1S/C62H90N13O14P.CN.Co/c1-29-20-39-40(21-30(29)2)75(28-70-39)57-52(84)53(41(27-76)87-57)89-90(85,86)88-31(3)26-69-49(83)18-19-59(8)37(22-46(66)80)56-62(11)61(10,25-48(68)82)36(14-17-45(65)79)51(74-62)33(5)55-60(9,24-47(67)81)34(12-15-43(63)77)38(71-55)23-42-58(6,7)35(13-16-44(64)78)50(72-42)32(4)54(59)73-56;1-2;/h20-21,23,28,31,34-37,41,52-53,56-57,76,84H,12-19,22,24-27H2,1-11H3,(H15,63,64,65,66,67,68,69,71,72,73,74,77,78,79,80,81,82,83,85,86);;/q;-1;+3/p-2/t31-,34-,35-,36-,37+,41-,52-,53-,56?,57+,59-,60+,61+,62+;;/m1../s1/i;;1+1

> <INCHI_KEY>
FDJOLVPMNUYSCM-BYCRCCONSA-L

> <FORMULA>
C63H88CoN14O14P

> <MOLECULAR_WEIGHT>
1356.389

> <EXACT_MASS>
1355.568027764

> <JCHEM_ACCEPTOR_COUNT>
17

> <JCHEM_ATOM_COUNT>
181

> <JCHEM_AVERAGE_NEUTRAL_MICROSPECIES_CHARGE>
1.56816517896652

> <JCHEM_AVERAGE_POLARIZABILITY>
133.97010832014487

> <JCHEM_BIOAVAILABILITY>
0

> <JCHEM_DONOR_COUNT>
9

> <JCHEM_FORMAL_CHARGE>
0

> <JCHEM_GHOSE_FILTER>
0

> <JCHEM_IUPAC>
(60Co)cobalt(3+) (2R,3S,4S,6Z,8S,9S,11Z,14S,16Z,18R,19R)-4,9,14-tris(2-carbamoylethyl)-3,8,19-tris(carbamoylmethyl)-18-(2-{[(2R)-2-{[(2R,3S,4R,5S)-5-(5,6-dimethyl-1H-1,3-benzodiazol-1-yl)-4-hydroxy-2-(hydroxymethyl)oxolan-3-yl phosphonato]oxy}propyl]carbamoyl}ethyl)-2,3,6,8,13,13,16,18-octamethyl-20,21,22,23-tetraazapentacyclo[15.2.1.1^{2,5}.1^{7,10}.1^{12,15}]tricosa-5(23),6,10(22),11,15(21),16-hexaen-20-ide iminomethanide

> <ALOGPS_LOGP>
1.97

> <JCHEM_LOGP>
-2.720434372886663

> <ALOGPS_LOGS>
-4.54

> <JCHEM_MDDR_LIKE_RULE>
1

> <JCHEM_NEUTRAL_CHARGE>
2

> <JCHEM_NUMBER_OF_RINGS>
8

> <JCHEM_PHYSIOLOGICAL_CHARGE>
2

> <JCHEM_PKA>
12.585866591795286

> <JCHEM_PKA_STRONGEST_ACIDIC>
1.8166326257877659

> <JCHEM_PKA_STRONGEST_BASIC>
8.974960904253237

> <JCHEM_POLAR_SURFACE_AREA>
460.04999999999984

> <JCHEM_REFRACTIVITY>
330.7190000000002

> <JCHEM_ROTATABLE_BOND_COUNT>
26

> <JCHEM_RULE_OF_FIVE>
0

> <ALOGPS_SOLUBILITY>
3.90e-02 g/l

> <JCHEM_TRADITIONAL_IUPAC>
mitoquinone cation mesylate

> <JCHEM_VEBER_RULE>
0

> <DRUGBANK_ID>
DB09387

> <DRUG_GROUPS>
approved; withdrawn

> <GENERIC_NAME>
Cyanocobalamin Co-60

> <SYNONYMS>
Cyanocobalamin (60Co); Cyanocobalamin Co 60; Cyanocobalamine (60 Co); Cyanocobalaminum (60 Co); Vitamin B12 - 60Co

$$$$
