
  Mrv1652310211601052D          

 21 23  0  0  0  0            999 V2000
   -0.3984    0.7541    0.0000 C   0  0  0  0  0  0  0  0  0  0  0  0
   -0.1435   -0.0305    0.0000 N   0  0  0  0  0  0  0  0  0  0  0  0
   -0.6284   -0.6979    0.0000 C   0  0  0  0  0  0  0  0  0  0  0  0
   -0.1435   -1.3654    0.0000 C   0  0  0  0  0  0  0  0  0  0  0  0
    0.6411   -1.1104    0.0000 C   0  0  0  0  0  0  0  0  0  0  0  0
    0.6411   -0.2854    0.0000 C   0  0  0  0  0  0  0  0  0  0  0  0
    1.3556    0.1271    0.0000 C   0  0  0  0  0  0  0  0  0  0  0  0
    1.3556    0.9521    0.0000 O   0  0  0  0  0  0  0  0  0  0  0  0
    2.0701   -0.2854    0.0000 C   0  0  0  0  0  0  0  0  0  0  0  0
    2.0701   -1.1104    0.0000 C   0  0  0  0  0  0  0  0  0  0  0  0
    1.3556   -1.5229    0.0000 C   0  0  0  0  0  0  0  0  0  0  0  0
    1.3556   -2.3479    0.0000 O   0  0  0  0  0  0  0  0  0  0  0  0
    2.7845   -1.5229    0.0000 N   0  0  0  0  0  0  0  0  0  0  0  0
    3.6095   -1.5229    0.0000 C   0  0  0  0  0  0  0  0  0  0  0  0
    3.1970   -2.2374    0.0000 C   0  0  0  0  0  0  0  0  0  0  0  0
   -0.3984   -2.1500    0.0000 C   0  0  0  0  0  0  0  0  0  0  0  0
    0.1536   -2.7631    0.0000 O   0  0  0  0  0  0  0  0  0  0  0  0
   -1.4534   -0.6979    0.0000 C   0  0  0  0  0  0  0  0  0  0  0  0
   -1.8659    0.0165    0.0000 C   0  0  0  0  0  0  0  0  0  0  0  0
   -2.6909    0.0165    0.0000 C   0  0  0  0  0  0  0  0  0  0  0  0
   -3.1034   -0.6979    0.0000 O   0  0  0  0  0  0  0  0  0  0  0  0
  1  2  1  0  0  0  0
  2  3  1  0  0  0  0
  3  4  2  0  0  0  0
  4  5  1  0  0  0  0
  5  6  2  0  0  0  0
  2  6  1  0  0  0  0
  6  7  1  0  0  0  0
  7  8  2  0  0  0  0
  7  9  1  0  0  0  0
  9 10  2  0  0  0  0
 10 11  1  0  0  0  0
  5 11  1  0  0  0  0
 11 12  2  0  0  0  0
 10 13  1  0  0  0  0
 13 14  1  0  0  0  0
 14 15  1  0  0  0  0
 13 15  1  0  0  0  0
  4 16  1  0  0  0  0
 16 17  1  0  0  0  0
  3 18  1  0  0  0  0
 18 19  2  0  0  0  0
 19 20  1  0  0  0  0
 20 21  1  0  0  0  0
M  END
> <DATABASE_ID>
DB12593

> <DATABASE_NAME>
drugbank

> <SMILES>
CN1C(\C=C\CO)=C(CO)C2=C1C(=O)C=C(N1CC1)C2=O

> <INCHI_IDENTIFIER>
InChI=1S/C15H16N2O4/c1-16-10(3-2-6-18)9(8-19)13-14(16)12(20)7-11(15(13)21)17-4-5-17/h2-3,7,18-19H,4-6,8H2,1H3/b3-2+

> <INCHI_KEY>
MXPOCMVWFLDDLZ-NSCUHMNNSA-N

> <FORMULA>
C15H16N2O4

> <MOLECULAR_WEIGHT>
288.303

> <EXACT_MASS>
288.111007003

> <JCHEM_ACCEPTOR_COUNT>
5

> <JCHEM_ATOM_COUNT>
37

> <JCHEM_AVERAGE_POLARIZABILITY>
30.28216431923878

> <JCHEM_BIOAVAILABILITY>
1

> <JCHEM_DONOR_COUNT>
2

> <JCHEM_FORMAL_CHARGE>
0

> <JCHEM_GHOSE_FILTER>
0

> <JCHEM_IUPAC>
5-(aziridin-1-yl)-3-(hydroxymethyl)-2-[(1E)-3-hydroxyprop-1-en-1-yl]-1-methyl-4,7-dihydro-1H-indole-4,7-dione

> <ALOGPS_LOGP>
0.60

> <JCHEM_LOGP>
-0.7986386896666668

> <ALOGPS_LOGS>
-1.78

> <JCHEM_MDDR_LIKE_RULE>
0

> <JCHEM_NUMBER_OF_RINGS>
3

> <JCHEM_PHYSIOLOGICAL_CHARGE>
0

> <JCHEM_PKA>
14.65791851846534

> <JCHEM_PKA_STRONGEST_ACIDIC>
13.47954068482634

> <JCHEM_PKA_STRONGEST_BASIC>
-2.5303854574426587

> <JCHEM_POLAR_SURFACE_AREA>
82.54

> <JCHEM_REFRACTIVITY>
81.26930000000002

> <JCHEM_ROTATABLE_BOND_COUNT>
4

> <JCHEM_RULE_OF_FIVE>
1

> <ALOGPS_SOLUBILITY>
4.80e+00 g/l

> <JCHEM_TRADITIONAL_IUPAC>
apaziquone

> <JCHEM_VEBER_RULE>
0

> <DRUGBANK_ID>
DB12593

> <DRUG_GROUPS>
investigational

> <GENERIC_NAME>
Apaziquone

> <SYNONYMS>
Apaziquone; EOQUIN

$$$$
