
  Mrv1652310211601322D          

 14 15  0  0  0  0            999 V2000
    3.3523    1.9354    0.0000 C   0  0  0  0  0  0  0  0  0  0  0  0
    3.3523    1.1104    0.0000 C   0  0  0  0  0  0  0  0  0  0  0  0
    2.6378    0.6979    0.0000 C   0  0  0  0  0  0  0  0  0  0  0  0
    1.9233    1.1104    0.0000 C   0  0  0  0  0  0  0  0  0  0  0  0
    1.9233    1.9354    0.0000 C   0  0  0  0  0  0  0  0  0  0  0  0
    2.6378    2.3479    0.0000 C   0  0  0  0  0  0  0  0  0  0  0  0
    1.1387    2.1904    0.0000 C   0  0  0  0  0  0  0  0  0  0  0  0
    0.6538    1.5229    0.0000 C   0  0  0  0  0  0  0  0  0  0  0  0
    1.1387    0.8555    0.0000 C   0  0  0  0  0  0  0  0  0  0  0  0
   -0.1712    1.5229    0.0000 N   0  0  0  0  0  0  0  0  0  0  0  0
   -0.5837    0.8085    0.0000 C   0  0  0  0  0  0  0  0  0  0  0  0
   -1.4087    0.8085    0.0000 C   0  0  0  0  0  0  0  0  0  0  0  0
   -1.8212    0.0940    0.0000 O   0  0  0  0  0  0  0  0  0  0  0  0
   -1.8212    1.5229    0.0000 N   0  0  0  0  0  0  0  0  0  0  0  0
  1  2  2  0  0  0  0
  2  3  1  0  0  0  0
  3  4  2  0  0  0  0
  4  5  1  0  0  0  0
  5  6  2  0  0  0  0
  1  6  1  0  0  0  0
  5  7  1  0  0  0  0
  7  8  1  0  0  0  0
  8  9  1  0  0  0  0
  4  9  1  0  0  0  0
  8 10  1  0  0  0  0
 10 11  1  0  0  0  0
 11 12  1  0  0  0  0
 12 13  2  0  0  0  0
 12 14  1  0  0  0  0
M  END
> <DATABASE_ID>
DB12664

> <DATABASE_NAME>
drugbank

> <SMILES>
NC(=O)CNC1CC2=CC=CC=C2C1

> <INCHI_IDENTIFIER>
InChI=1S/C11H14N2O/c12-11(14)7-13-10-5-8-3-1-2-4-9(8)6-10/h1-4,10,13H,5-7H2,(H2,12,14)

> <INCHI_KEY>
MNLULKBKWKTZPE-UHFFFAOYSA-N

> <FORMULA>
C11H14N2O

> <MOLECULAR_WEIGHT>
190.246

> <EXACT_MASS>
190.110613079

> <JCHEM_ACCEPTOR_COUNT>
2

> <JCHEM_ATOM_COUNT>
28

> <JCHEM_AVERAGE_POLARIZABILITY>
21.0682097380853

> <JCHEM_BIOAVAILABILITY>
1

> <JCHEM_DONOR_COUNT>
2

> <JCHEM_FORMAL_CHARGE>
0

> <JCHEM_GHOSE_FILTER>
1

> <JCHEM_IUPAC>
2-[(2,3-dihydro-1H-inden-2-yl)amino]acetamide

> <ALOGPS_LOGP>
0.79

> <JCHEM_LOGP>
0.5909521216666664

> <ALOGPS_LOGS>
-2.59

> <JCHEM_MDDR_LIKE_RULE>
0

> <JCHEM_NUMBER_OF_RINGS>
2

> <JCHEM_PHYSIOLOGICAL_CHARGE>
1

> <JCHEM_PKA_STRONGEST_ACIDIC>
16.39706034271702

> <JCHEM_PKA_STRONGEST_BASIC>
8.607536416272508

> <JCHEM_POLAR_SURFACE_AREA>
55.120000000000005

> <JCHEM_REFRACTIVITY>
54.94760000000001

> <JCHEM_ROTATABLE_BOND_COUNT>
3

> <JCHEM_RULE_OF_FIVE>
1

> <ALOGPS_SOLUBILITY>
4.85e-01 g/l

> <JCHEM_TRADITIONAL_IUPAC>
indantadol

> <JCHEM_VEBER_RULE>
0

> <DRUGBANK_ID>
DB12664

> <SECONDARY_ACCESSION_NUMBERS>
DB06296

> <DRUG_GROUPS>
investigational

> <GENERIC_NAME>
Indantadol

> <SYNONYMS>
Indantadol

> <SALTS>
Indantadol hydrochloride

$$$$
