
  Mrv1909 01132014052D          

 32 34  0  0  0  0            999 V2000
   -0.6190    2.3657    0.0000 P   0  0  0  0  0  0  0  0  0  0  0  0
    1.9554    1.3429    0.0000 P   0  0  0  0  0  0  0  0  0  0  0  0
    3.3769    1.4898    0.0000 P   0  0  0  0  0  0  0  0  0  0  0  0
   -0.1357   -0.1128    0.0000 O   0  0  0  0  0  0  0  0  0  0  0  0
   -1.1722    1.7536    0.0000 O   0  0  0  0  0  0  0  0  0  0  0  0
   -2.2297    0.3032    0.0000 O   0  0  0  0  0  0  0  0  0  0  0  0
    1.2871    0.8591    0.0000 O   0  0  0  0  0  0  0  0  0  0  0  0
   -0.0658    2.9779    0.0000 O   0  0  0  0  0  0  0  0  0  0  0  0
   -1.2311    2.9189    0.0000 O   0  0  0  0  0  0  0  0  0  0  0  0
   -0.0068    1.8126    0.0000 O   0  0  0  0  0  0  0  0  0  0  0  0
    2.6238    1.8266    0.0000 O   0  0  0  0  0  0  0  0  0  0  0  0
    2.4392    0.6745    0.0000 O   0  0  0  0  0  0  0  0  0  0  0  0
    1.4716    2.0112    0.0000 O   0  0  0  0  0  0  0  0  0  0  0  0
   -2.6724   -3.4647    0.0000 O   0  0  0  0  0  0  0  0  0  0  0  0
    4.1300    1.1529    0.0000 O   0  0  0  0  0  0  0  0  0  0  0  0
    3.7138    2.2430    0.0000 O   0  0  0  0  0  0  0  0  0  0  0  0
    3.0400    0.7366    0.0000 O   0  0  0  0  0  0  0  0  0  0  0  0
   -1.1772   -1.1507    0.0000 N   0  0  0  0  0  0  0  0  0  0  0  0
   -2.6724   -0.9895    0.0000 N   0  0  0  0  0  0  0  0  0  0  0  0
   -1.1772   -2.4786    0.0000 N   0  0  0  0  0  0  0  0  0  0  0  0
   -3.3869   -2.2271    0.0000 N   0  0  0  0  0  0  0  0  0  0  0  0
   -4.1015   -0.9895    0.0000 N   0  0  0  0  0  0  0  0  0  0  0  0
   -0.9185    0.9685    0.0000 C   0  0  1  0  0  0  0  0  0  0  0  0
   -1.4047    0.3018    0.0000 C   0  0  2  0  0  0  0  0  0  0  0  0
   -0.9208   -0.3664    0.0000 C   0  0  1  0  0  0  0  0  0  0  0  0
   -0.1343    0.7121    0.0000 C   0  0  1  0  0  0  0  0  0  0  0  0
    0.5339    1.1960    0.0000 C   0  0  0  0  0  0  0  0  0  0  0  0
   -1.9579   -1.4021    0.0000 C   0  0  0  0  0  0  0  0  0  0  0  0
   -0.6957   -1.8146    0.0000 C   0  0  0  0  0  0  0  0  0  0  0  0
   -1.9579   -2.2271    0.0000 C   0  0  0  0  0  0  0  0  0  0  0  0
   -2.6724   -2.6397    0.0000 C   0  0  0  0  0  0  0  0  0  0  0  0
   -3.3869   -1.4021    0.0000 C   0  0  0  0  0  0  0  0  0  0  0  0
  1  5  1  0  0  0  0
  1  8  1  0  0  0  0
  1  9  1  0  0  0  0
  1 10  2  0  0  0  0
  2  7  1  0  0  0  0
  2 11  1  0  0  0  0
  2 12  1  0  0  0  0
  2 13  2  0  0  0  0
  3 11  1  0  0  0  0
  3 15  1  0  0  0  0
  3 16  1  0  0  0  0
  3 17  2  0  0  0  0
  4 25  1  0  0  0  0
  4 26  1  0  0  0  0
 23  5  1  6  0  0  0
 24  6  1  6  0  0  0
  7 27  1  0  0  0  0
 14 31  2  0  0  0  0
 25 18  1  1  0  0  0
 18 28  1  0  0  0  0
 18 29  1  0  0  0  0
 19 28  1  0  0  0  0
 19 32  1  0  0  0  0
 20 29  2  0  0  0  0
 20 30  1  0  0  0  0
 21 31  1  0  0  0  0
 21 32  2  0  0  0  0
 22 32  1  0  0  0  0
 23 24  1  0  0  0  0
 23 26  1  0  0  0  0
 24 25  1  0  0  0  0
 26 27  1  1  0  0  0
 28 30  2  0  0  0  0
 30 31  1  0  0  0  0
M  END
> <DATABASE_ID>
DB04121

> <DATABASE_NAME>
drugbank

> <SMILES>
NC1=NC(=O)C2=C(N1)N(C=N2)[C@@H]1O[C@H](COP(O)(=O)OP(O)(O)=O)[C@@H](OP(O)(O)=O)[C@H]1O

> <INCHI_IDENTIFIER>
InChI=1S/C10H16N5O14P3/c11-10-13-7-4(8(17)14-10)12-2-15(7)9-5(16)6(28-30(18,19)20)3(27-9)1-26-32(24,25)29-31(21,22)23/h2-3,5-6,9,16H,1H2,(H,24,25)(H2,18,19,20)(H2,21,22,23)(H3,11,13,14,17)/t3-,5-,6-,9-/m1/s1

> <INCHI_KEY>
HEYSFDAMRDTCJM-UUOKFMHZSA-N

> <FORMULA>
C10H16N5O14P3

> <MOLECULAR_WEIGHT>
523.1804

> <EXACT_MASS>
522.990659781

> <JCHEM_ACCEPTOR_COUNT>
15

> <JCHEM_ATOM_COUNT>
48

> <JCHEM_AVERAGE_NEUTRAL_MICROSPECIES_CHARGE>
-4.391437275637739

> <JCHEM_AVERAGE_POLARIZABILITY>
40.132741341125566

> <JCHEM_BIOAVAILABILITY>
0

> <JCHEM_DONOR_COUNT>
9

> <JCHEM_FORMAL_CHARGE>
0

> <JCHEM_GHOSE_FILTER>
0

> <JCHEM_IUPAC>
{[hydroxy({[(2R,3S,4R,5R)-4-hydroxy-5-(6-hydroxy-2-imino-3,9-dihydro-2H-purin-9-yl)-3-(phosphonooxy)oxolan-2-yl]methoxy})phosphoryl]oxy}phosphonic acid

> <ALOGPS_LOGP>
-0.72

> <JCHEM_LOGP>
-4.369505690870379

> <ALOGPS_LOGS>
-1.67

> <JCHEM_MDDR_LIKE_RULE>
1

> <JCHEM_NEUTRAL_CHARGE>
-4

> <JCHEM_NUMBER_OF_RINGS>
3

> <JCHEM_PHYSIOLOGICAL_CHARGE>
-5

> <JCHEM_PKA>
0.8863265804749101

> <JCHEM_PKA_STRONGEST_ACIDIC>
-2.0171419300413325

> <JCHEM_PKA_STRONGEST_BASIC>
20.39944798134631

> <JCHEM_POLAR_SURFACE_AREA>
295.80000000000007

> <JCHEM_REFRACTIVITY>
107.82089999999997

> <JCHEM_ROTATABLE_BOND_COUNT>
8

> <JCHEM_RULE_OF_FIVE>
0

> <ALOGPS_SOLUBILITY>
1.11e+01 g/l

> <JCHEM_TRADITIONAL_IUPAC>
2-amino-9-[(2R,3R,4S,5R)-5-({[({[(2R,3S,4R,5R)-5-(2-amino-6-oxo-3H-purin-9-yl)-3,4-dihydroxyoxolan-2-yl]methoxy(hydroxy)phosphoryl}oxy(hydroxy)phosphoryl)oxy(hydroxy)phosphoryl]oxy}methyl)-3,4-dihydroxyoxolan-2-yl]-7-methyl-6-oxo-3H-9lambda5-purin-9-ylium

> <JCHEM_VEBER_RULE>
0

> <DRUGBANK_ID>
DB04121

> <SECONDARY_ACCESSION_NUMBERS>
EXPT01529

> <DRUG_GROUPS>
experimental

> <GENERIC_NAME>
Guanosine-3'-monophosphate-5'-diphosphate

> <SYNONYMS>
Guanosine 3'-(dihydrogen phosphate) 5'-(trihydrogen diphosphate)

$$$$
