
  Mrv1909 12062221172D          

 18 17  0  0  0  0            999 V2000
    5.4730    3.9849    0.0000 C   0  0  0  0  0  0  0  0  0  0  0  0
    6.1875    3.5724    0.0000 C   0  0  0  0  0  0  0  0  0  0  0  0
    6.9020    3.9849    0.0000 C   0  0  0  0  0  0  0  0  0  0  0  0
    7.6164    3.5724    0.0000 C   0  0  0  0  0  0  0  0  0  0  0  0
    8.3309    3.9849    0.0000 C   0  0  0  0  0  0  0  0  0  0  0  0
    9.0454    3.5724    0.0000 C   0  0  0  0  0  0  0  0  0  0  0  0
    9.7599    3.9849    0.0000 C   0  0  0  0  0  0  0  0  0  0  0  0
   10.4743    3.5724    0.0000 C   0  0  0  0  0  0  0  0  0  0  0  0
   11.1888    3.9849    0.0000 C   0  0  0  0  0  0  0  0  0  0  0  0
   11.9033    3.5724    0.0000 C   0  0  0  0  0  0  0  0  0  0  0  0
   12.6177    3.9849    0.0000 C   0  0  0  0  0  0  0  0  0  0  0  0
   13.3322    3.5724    0.0000 C   0  0  0  0  0  0  0  0  0  0  0  0
   14.0467    3.9849    0.0000 C   0  0  0  0  0  0  0  0  0  0  0  0
   14.7612    3.5724    0.0000 C   0  0  0  0  0  0  0  0  0  0  0  0
   15.4756    3.9849    0.0000 N   0  3  0  0  0  0  0  0  0  0  0  0
   16.1901    4.3974    0.0000 C   0  0  0  0  0  0  0  0  0  0  0  0
   15.8881    3.2704    0.0000 C   0  0  0  0  0  0  0  0  0  0  0  0
   15.0631    4.6993    0.0000 C   0  0  0  0  0  0  0  0  0  0  0  0
  1  2  1  0  0  0  0
  2  3  1  0  0  0  0
  3  4  1  0  0  0  0
  4  5  1  0  0  0  0
  5  6  1  0  0  0  0
  6  7  1  0  0  0  0
  7  8  1  0  0  0  0
  8  9  1  0  0  0  0
  9 10  1  0  0  0  0
 10 11  1  0  0  0  0
 11 12  1  0  0  0  0
 12 13  1  0  0  0  0
 13 14  1  0  0  0  0
 14 15  1  0  0  0  0
 15 16  1  0  0  0  0
 15 17  1  0  0  0  0
 15 18  1  0  0  0  0
M  CHG  1  15   1
M  END
> <DATABASE_ID>
DB17342

> <DATABASE_NAME>
drugbank

> <SMILES>
CCCCCCCCCCCCCC[N+](C)(C)C

> <INCHI_IDENTIFIER>
InChI=1S/C17H38N/c1-5-6-7-8-9-10-11-12-13-14-15-16-17-18(2,3)4/h5-17H2,1-4H3/q+1

> <INCHI_KEY>
GLFDLEXFOHUASB-UHFFFAOYSA-N

> <FORMULA>
C17H38N

> <MOLECULAR_WEIGHT>
256.497

> <EXACT_MASS>
256.299876648

> <JCHEM_ACCEPTOR_COUNT>
0

> <JCHEM_ATOM_COUNT>
56

> <JCHEM_AVERAGE_NEUTRAL_MICROSPECIES_CHARGE>
1.0

> <JCHEM_AVERAGE_POLARIZABILITY>
36.779150963414196

> <JCHEM_BIOAVAILABILITY>
1

> <JCHEM_DONOR_COUNT>
0

> <JCHEM_FORMAL_CHARGE>
1

> <JCHEM_GHOSE_FILTER>
1

> <JCHEM_IUPAC>
trimethyl(tetradecyl)azanium

> <ALOGPS_LOGP>
2.17

> <JCHEM_LOGP>
1.7974185138615872

> <ALOGPS_LOGS>
-7.64

> <JCHEM_MDDR_LIKE_RULE>
0

> <JCHEM_NEUTRAL_CHARGE>
1

> <JCHEM_NUMBER_OF_RINGS>
0

> <JCHEM_PHYSIOLOGICAL_CHARGE>
1

> <JCHEM_POLAR_SURFACE_AREA>
0.0

> <JCHEM_REFRACTIVITY>
95.78529999999998

> <JCHEM_ROTATABLE_BOND_COUNT>
13

> <JCHEM_RULE_OF_FIVE>
1

> <ALOGPS_SOLUBILITY>
6.68e-06 g/l

> <JCHEM_TRADITIONAL_IUPAC>
tetradonium

> <JCHEM_VEBER_RULE>
0

> <DRUGBANK_ID>
DB17342

> <DRUG_GROUPS>
investigational

> <GENERIC_NAME>
Trimethyltetradecylammonium

> <SYNONYMS>
1-tetradecanaminium, n,n,n-trimethyl-; Ammonium, trimethyltetradecyl-; Myristyltrimethylammonium; Tetradecyltrimethylammonium; Tetradonium; Tetradonium cation; Tetradonium ion

> <SALTS>
tetradonium bromide

$$$$
