
  Mrv1652310211600172D          

 42 46  0  0  1  0            999 V2000
    6.4302    3.7125    0.0000 C   0  0  0  0  0  0  0  0  0  0  0  0
    6.4302    4.5375    0.0000 O   0  0  0  0  0  0  0  0  0  0  0  0
    7.1447    4.9500    0.0000 C   0  0  0  0  0  0  0  0  0  0  0  0
    7.1447    5.7750    0.0000 O   0  0  0  0  0  0  0  0  0  0  0  0
    7.8592    4.5375    0.0000 C   0  0  1  0  0  0  0  0  0  0  0  0
    7.8592    3.7125    0.0000 C   0  0  0  0  0  0  0  0  0  0  0  0
    8.5737    3.3000    0.0000 C   0  0  0  0  0  0  0  0  0  0  0  0
    8.5737    2.4750    0.0000 C   0  0  0  0  0  0  0  0  0  0  0  0
    7.8592    2.0625    0.0000 C   0  0  0  0  0  0  0  0  0  0  0  0
    7.1447    2.4750    0.0000 C   0  0  0  0  0  0  0  0  0  0  0  0
    7.1447    3.3000    0.0000 C   0  0  0  0  0  0  0  0  0  0  0  0
    8.5737    4.9500    0.0000 N   0  0  0  0  0  0  0  0  0  0  0  0
    8.5737    5.7750    0.0000 C   0  0  0  0  0  0  0  0  0  0  0  0
    9.2881    6.1875    0.0000 C   0  0  0  0  0  0  0  0  0  0  0  0
   10.0026    5.7750    0.0000 C   0  0  0  0  0  0  0  0  0  0  0  0
   10.0026    4.9500    0.0000 C   0  0  0  0  0  0  0  0  0  0  0  0
    9.2881    4.5375    0.0000 C   0  0  0  0  0  0  0  0  0  0  0  0
   10.7171    6.1875    0.0000 C   0  0  0  0  0  0  0  0  0  0  0  0
   10.7171    7.0125    0.0000 C   0  0  0  0  0  0  0  0  0  0  0  0
   11.4315    7.4250    0.0000 C   0  0  0  0  0  0  0  0  0  0  0  0
   12.1460    7.0125    0.0000 C   0  0  0  0  0  0  0  0  0  0  0  0
   12.1460    6.1875    0.0000 C   0  0  0  0  0  0  0  0  0  0  0  0
   11.4315    5.7750    0.0000 C   0  0  0  0  0  0  0  0  0  0  0  0
   12.8605    7.4250    0.0000 N   0  0  0  0  0  0  0  0  0  0  0  0
   13.5749    7.0125    0.0000 C   0  0  0  0  0  0  0  0  0  0  0  0
   13.5749    6.1875    0.0000 O   0  0  0  0  0  0  0  0  0  0  0  0
   14.2894    7.4250    0.0000 C   0  0  0  0  0  0  0  0  0  0  0  0
   14.2894    8.2500    0.0000 C   0  0  0  0  0  0  0  0  0  0  0  0
   15.0039    8.6625    0.0000 C   0  0  0  0  0  0  0  0  0  0  0  0
   15.7184    8.2500    0.0000 C   0  0  0  0  0  0  0  0  0  0  0  0
   15.7184    7.4250    0.0000 C   0  0  0  0  0  0  0  0  0  0  0  0
   15.0039    7.0125    0.0000 C   0  0  0  0  0  0  0  0  0  0  0  0
   15.0039    6.1875    0.0000 C   0  0  0  0  0  0  0  0  0  0  0  0
   15.7184    5.7750    0.0000 C   0  0  0  0  0  0  0  0  0  0  0  0
   15.7184    4.9500    0.0000 C   0  0  0  0  0  0  0  0  0  0  0  0
   15.0039    4.5375    0.0000 C   0  0  0  0  0  0  0  0  0  0  0  0
   14.2894    4.9500    0.0000 C   0  0  0  0  0  0  0  0  0  0  0  0
   14.2894    5.7750    0.0000 C   0  0  0  0  0  0  0  0  0  0  0  0
   15.0039    3.7125    0.0000 C   0  0  0  0  0  0  0  0  0  0  0  0
   15.0039    2.8875    0.0000 F   0  0  0  0  0  0  0  0  0  0  0  0
   14.1789    3.7125    0.0000 F   0  0  0  0  0  0  0  0  0  0  0  0
   15.8289    3.7125    0.0000 F   0  0  0  0  0  0  0  0  0  0  0  0
  1  2  1  0  0  0  0
  2  3  1  0  0  0  0
  3  4  2  0  0  0  0
  5  3  1  6  0  0  0
  5  6  1  0  0  0  0
  6  7  2  0  0  0  0
  7  8  1  0  0  0  0
  8  9  2  0  0  0  0
  9 10  1  0  0  0  0
 10 11  2  0  0  0  0
  6 11  1  0  0  0  0
  5 12  1  0  0  0  0
 12 13  1  0  0  0  0
 13 14  1  0  0  0  0
 14 15  1  0  0  0  0
 15 16  1  0  0  0  0
 16 17  1  0  0  0  0
 12 17  1  0  0  0  0
 15 18  1  0  0  0  0
 18 19  2  0  0  0  0
 19 20  1  0  0  0  0
 20 21  2  0  0  0  0
 21 22  1  0  0  0  0
 22 23  2  0  0  0  0
 18 23  1  0  0  0  0
 21 24  1  0  0  0  0
 24 25  1  0  0  0  0
 25 26  2  0  0  0  0
 25 27  1  0  0  0  0
 27 28  2  0  0  0  0
 28 29  1  0  0  0  0
 29 30  2  0  0  0  0
 30 31  1  0  0  0  0
 31 32  2  0  0  0  0
 27 32  1  0  0  0  0
 32 33  1  0  0  0  0
 33 34  2  0  0  0  0
 34 35  1  0  0  0  0
 35 36  2  0  0  0  0
 36 37  1  0  0  0  0
 37 38  2  0  0  0  0
 33 38  1  0  0  0  0
 36 39  1  0  0  0  0
 39 40  1  0  0  0  0
 39 41  1  0  0  0  0
 39 42  1  0  0  0  0
M  END
> <DATABASE_ID>
DB12414

> <DATABASE_NAME>
drugbank

> <SMILES>
COC(=O)[C@H](N1CCC(CC1)C1=CC=C(NC(=O)C2=CC=CC=C2C2=CC=C(C=C2)C(F)(F)F)C=C1)C1=CC=CC=C1

> <INCHI_IDENTIFIER>
InChI=1S/C34H31F3N2O3/c1-42-33(41)31(26-7-3-2-4-8-26)39-21-19-24(20-22-39)23-13-17-28(18-14-23)38-32(40)30-10-6-5-9-29(30)25-11-15-27(16-12-25)34(35,36)37/h2-18,24,31H,19-22H2,1H3,(H,38,40)/t31-/m1/s1

> <INCHI_KEY>
WSYALRNYQFNNGP-WJOKGBTCSA-N

> <FORMULA>
C34H31F3N2O3

> <MOLECULAR_WEIGHT>
572.628

> <EXACT_MASS>
572.228677355

> <JCHEM_ACCEPTOR_COUNT>
3

> <JCHEM_ATOM_COUNT>
73

> <JCHEM_AVERAGE_POLARIZABILITY>
59.87541306622359

> <JCHEM_BIOAVAILABILITY>
0

> <JCHEM_DONOR_COUNT>
1

> <JCHEM_FORMAL_CHARGE>
0

> <JCHEM_GHOSE_FILTER>
0

> <JCHEM_IUPAC>
methyl (2R)-2-phenyl-2-(4-{4-[4'-(trifluoromethyl)-[1,1'-biphenyl]-2-amido]phenyl}piperidin-1-yl)acetate

> <ALOGPS_LOGP>
6.35

> <JCHEM_LOGP>
7.638624085

> <ALOGPS_LOGS>
-6.91

> <JCHEM_MDDR_LIKE_RULE>
1

> <JCHEM_NUMBER_OF_RINGS>
5

> <JCHEM_PHYSIOLOGICAL_CHARGE>
1

> <JCHEM_PKA_STRONGEST_ACIDIC>
14.086323820839016

> <JCHEM_PKA_STRONGEST_BASIC>
7.032491583229783

> <JCHEM_POLAR_SURFACE_AREA>
58.64

> <JCHEM_REFRACTIVITY>
158.62869999999998

> <JCHEM_ROTATABLE_BOND_COUNT>
9

> <JCHEM_RULE_OF_FIVE>
0

> <ALOGPS_SOLUBILITY>
6.97e-05 g/l

> <JCHEM_TRADITIONAL_IUPAC>
(R)-(methyl phenyl(4-{4-[4'-(trifluoromethyl)-[1,1'-biphenyl]-2-amido]phenyl}piperidin-1-yl)acetate)

> <JCHEM_VEBER_RULE>
0

> <DRUGBANK_ID>
DB12414

> <DRUG_GROUPS>
investigational

> <GENERIC_NAME>
Usistapide

> <SYNONYMS>
Usistapide

$$$$
