
  Mrv1652310211604192D          

 33 37  0  0  0  0            999 V2000
    6.0100    0.1898    0.0000 C   0  0  0  0  0  0  0  0  0  0  0  0
    5.6744    0.9434    0.0000 C   0  0  0  0  0  0  0  0  0  0  0  0
    4.8675    1.1150    0.0000 C   0  0  0  0  0  0  0  0  0  0  0  0
    4.7812    1.9354    0.0000 C   0  0  0  0  0  0  0  0  0  0  0  0
    5.5349    2.2710    0.0000 N   0  0  0  0  0  0  0  0  0  0  0  0
    6.0869    1.6579    0.0000 N   0  0  0  0  0  0  0  0  0  0  0  0
    4.0668    2.3479    0.0000 N   0  0  0  0  0  0  0  0  0  0  0  0
    3.3523    1.9354    0.0000 C   0  0  0  0  0  0  0  0  0  0  0  0
    3.3523    1.1104    0.0000 C   0  0  0  0  0  0  0  0  0  0  0  0
    2.6378    0.6979    0.0000 C   0  0  0  0  0  0  0  0  0  0  0  0
    1.9233    1.1104    0.0000 C   0  0  0  0  0  0  0  0  0  0  0  0
    1.1387    0.8555    0.0000 N   0  0  0  0  0  0  0  0  0  0  0  0
    0.6538    1.5229    0.0000 C   0  0  0  0  0  0  0  0  0  0  0  0
    1.1387    2.1904    0.0000 C   0  0  0  0  0  0  0  0  0  0  0  0
    1.9233    1.9354    0.0000 N   0  0  0  0  0  0  0  0  0  0  0  0
    2.6378    2.3479    0.0000 N   0  0  0  0  0  0  0  0  0  0  0  0
    0.8838    2.9750    0.0000 C   0  0  0  0  0  0  0  0  0  0  0  0
    1.4358    3.5881    0.0000 C   0  0  0  0  0  0  0  0  0  0  0  0
    2.2428    3.4166    0.0000 C   0  0  0  0  0  0  0  0  0  0  0  0
    2.7948    4.0297    0.0000 C   0  0  0  0  0  0  0  0  0  0  0  0
    2.5399    4.8143    0.0000 C   0  0  0  0  0  0  0  0  0  0  0  0
    1.7329    4.9858    0.0000 C   0  0  0  0  0  0  0  0  0  0  0  0
    1.1809    4.3727    0.0000 C   0  0  0  0  0  0  0  0  0  0  0  0
    0.3739    4.5442    0.0000 F   0  0  0  0  0  0  0  0  0  0  0  0
    3.0919    5.4274    0.0000 Cl  0  0  0  0  0  0  0  0  0  0  0  0
   -0.1712    1.5229    0.0000 C   0  0  0  0  0  0  0  0  0  0  0  0
    2.6378   -0.1271    0.0000 C   0  0  0  0  0  0  0  0  0  0  0  0
    1.9233   -0.5396    0.0000 N   0  0  0  0  0  0  0  0  0  0  0  0
    1.9233   -1.3646    0.0000 C   0  0  0  0  0  0  0  0  0  0  0  0
    1.2089   -1.7771    0.0000 C   0  0  0  0  0  0  0  0  0  0  0  0
    0.4944   -1.3646    0.0000 O   0  0  0  0  0  0  0  0  0  0  0  0
    0.4944   -0.5396    0.0000 C   0  0  0  0  0  0  0  0  0  0  0  0
    1.2089   -0.1271    0.0000 C   0  0  0  0  0  0  0  0  0  0  0  0
  1  2  1  0  0  0  0
  2  3  2  0  0  0  0
  3  4  1  0  0  0  0
  4  5  2  0  0  0  0
  5  6  1  0  0  0  0
  2  6  1  0  0  0  0
  4  7  1  0  0  0  0
  7  8  1  0  0  0  0
  8  9  1  0  0  0  0
  9 10  2  0  0  0  0
 10 11  1  0  0  0  0
 11 12  2  0  0  0  0
 12 13  1  0  0  0  0
 13 14  2  0  0  0  0
 14 15  1  0  0  0  0
 11 15  1  0  0  0  0
 15 16  1  0  0  0  0
  8 16  2  0  0  0  0
 14 17  1  0  0  0  0
 17 18  1  0  0  0  0
 18 19  2  0  0  0  0
 19 20  1  0  0  0  0
 20 21  2  0  0  0  0
 21 22  1  0  0  0  0
 22 23  2  0  0  0  0
 18 23  1  0  0  0  0
 23 24  1  0  0  0  0
 21 25  1  0  0  0  0
 13 26  1  0  0  0  0
 10 27  1  0  0  0  0
 27 28  1  0  0  0  0
 28 29  1  0  0  0  0
 29 30  1  0  0  0  0
 30 31  1  0  0  0  0
 31 32  1  0  0  0  0
 32 33  1  0  0  0  0
 28 33  1  0  0  0  0
M  END
> <DATABASE_ID>
DB13040

> <DATABASE_NAME>
drugbank

> <SMILES>
CC1=CC(NC2=NN3C(CC4=CC=C(Cl)C=C4F)=C(C)N=C3C(CN3CCOCC3)=C2)=NN1

> <INCHI_IDENTIFIER>
InChI=1S/C23H25ClFN7O/c1-14-9-21(29-28-14)27-22-11-17(13-31-5-7-33-8-6-31)23-26-15(2)20(32(23)30-22)10-16-3-4-18(24)12-19(16)25/h3-4,9,11-12H,5-8,10,13H2,1-2H3,(H2,27,28,29,30)

> <INCHI_KEY>
SQSZANZGUXWJEA-UHFFFAOYSA-N

> <FORMULA>
C23H25ClFN7O

> <MOLECULAR_WEIGHT>
469.95

> <EXACT_MASS>
469.1793143

> <JCHEM_ACCEPTOR_COUNT>
6

> <JCHEM_ATOM_COUNT>
58

> <JCHEM_AVERAGE_POLARIZABILITY>
49.208565806124795

> <JCHEM_BIOAVAILABILITY>
1

> <JCHEM_DONOR_COUNT>
2

> <JCHEM_FORMAL_CHARGE>
0

> <JCHEM_GHOSE_FILTER>
0

> <JCHEM_IUPAC>
N-{3-[(4-chloro-2-fluorophenyl)methyl]-2-methyl-8-[(morpholin-4-yl)methyl]imidazo[1,2-b]pyridazin-6-yl}-5-methyl-1H-pyrazol-3-amine

> <ALOGPS_LOGP>
4.05

> <JCHEM_LOGP>
4.242459559

> <ALOGPS_LOGS>
-4.51

> <JCHEM_MDDR_LIKE_RULE>
1

> <JCHEM_NUMBER_OF_RINGS>
5

> <JCHEM_PHYSIOLOGICAL_CHARGE>
0

> <JCHEM_PKA>
17.47684846298211

> <JCHEM_PKA_STRONGEST_ACIDIC>
12.561308615713127

> <JCHEM_PKA_STRONGEST_BASIC>
5.742218031966392

> <JCHEM_POLAR_SURFACE_AREA>
83.37

> <JCHEM_REFRACTIVITY>
138.72249999999997

> <JCHEM_ROTATABLE_BOND_COUNT>
6

> <JCHEM_RULE_OF_FIVE>
1

> <ALOGPS_SOLUBILITY>
1.44e-02 g/l

> <JCHEM_TRADITIONAL_IUPAC>
N-{3-[(4-chloro-2-fluorophenyl)methyl]-2-methyl-8-(morpholin-4-ylmethyl)imidazo[1,2-b]pyridazin-6-yl}-5-methyl-1H-pyrazol-3-amine

> <JCHEM_VEBER_RULE>
0

> <DRUGBANK_ID>
DB13040

> <DRUG_GROUPS>
investigational

> <GENERIC_NAME>
Gandotinib

> <SYNONYMS>
Gandotinib

$$$$
