
  Mrv1909 11151923462D          

 59 61  0  0  0  0            999 V2000
   -4.2868    1.4437    0.0000 C   0  0  0  0  0  0  0  0  0  0  0  0
   -5.0012    1.0312    0.0000 C   0  0  0  0  0  0  0  0  0  0  0  0
   -5.7158    1.4437    0.0000 C   0  0  0  0  0  0  0  0  0  0  0  0
   -6.4302    1.0312    0.0000 C   0  0  0  0  0  0  0  0  0  0  0  0
   -7.1446    1.4437    0.0000 C   0  0  0  0  0  0  0  0  0  0  0  0
   -7.8592    1.0312    0.0000 C   0  0  0  0  0  0  0  0  0  0  0  0
   -8.5736    1.4437    0.0000 C   0  0  0  0  0  0  0  0  0  0  0  0
   -9.2881    1.0312    0.0000 C   0  0  0  0  0  0  0  0  0  0  0  0
  -10.0025    1.4437    0.0000 C   0  0  0  0  0  0  0  0  0  0  0  0
   -9.2881    0.2062    0.0000 C   0  0  0  0  0  0  0  0  0  0  0  0
   -3.5723    1.0312    0.0000 C   0  0  0  0  0  0  0  0  0  0  0  0
   -2.8578    1.4437    0.0000 C   0  0  0  0  0  0  0  0  0  0  0  0
   -2.8578    2.2687    0.0000 O   0  0  0  0  0  0  0  0  0  0  0  0
   -2.1433    1.0312    0.0000 N   0  0  0  0  0  0  0  0  0  0  0  0
   -2.1433    0.2062    0.0000 C   0  0  0  0  0  0  0  0  0  0  0  0
   -1.4289    1.4437    0.0000 C   0  0  2  0  0  0  0  0  0  0  0  0
   -1.4289    2.2687    0.0000 C   0  0  0  0  0  0  0  0  0  0  0  0
   -0.7144    2.6812    0.0000 O   0  0  0  0  0  0  0  0  0  0  0  0
   -0.7144    1.0312    0.0000 C   0  0  0  0  0  0  0  0  0  0  0  0
   -0.7144    0.2062    0.0000 O   0  0  0  0  0  0  0  0  0  0  0  0
    0.0000    1.4437    0.0000 N   0  0  0  0  0  0  0  0  0  0  0  0
    0.7144    1.0312    0.0000 C   0  0  2  0  0  0  0  0  0  0  0  0
    0.7144    0.2062    0.0000 C   0  0  0  0  0  0  0  0  0  0  0  0
    1.4289    1.4437    0.0000 C   0  0  0  0  0  0  0  0  0  0  0  0
    1.4289    2.2687    0.0000 O   0  0  0  0  0  0  0  0  0  0  0  0
    2.1434    1.0312    0.0000 N   0  0  0  0  0  0  0  0  0  0  0  0
    2.8579    1.4437    0.0000 C   0  0  0  0  0  0  0  0  0  0  0  0
    3.5723    1.0312    0.0000 C   0  0  0  0  0  0  0  0  0  0  0  0
    3.5723    0.2062    0.0000 O   0  0  0  0  0  0  0  0  0  0  0  0
    4.2868    1.4437    0.0000 N   0  0  0  0  0  0  0  0  0  0  0  0
    4.2868    2.2687    0.0000 C   0  0  0  0  0  0  0  0  0  0  0  0
    5.0013    1.0312    0.0000 C   0  0  2  0  0  0  0  0  0  0  0  0
    5.7157    1.4437    0.0000 C   0  0  0  0  0  0  0  0  0  0  0  0
    5.7157    2.2687    0.0000 O   0  0  0  0  0  0  0  0  0  0  0  0
    6.4302    1.0312    0.0000 N   0  0  0  0  0  0  0  0  0  0  0  0
    7.1447    1.4437    0.0000 C   0  0  1  0  0  0  0  0  0  0  0  0
    7.1447    2.2687    0.0000 C   0  0  0  0  0  0  0  0  0  0  0  0
    7.8591    1.0312    0.0000 C   0  0  0  0  0  0  0  0  0  0  0  0
    8.5735    1.4437    0.0000 O   0  0  0  0  0  0  0  0  0  0  0  0
    7.8591    0.2062    0.0000 N   0  0  0  0  0  0  0  0  0  0  0  0
    8.5735   -0.2062    0.0000 C   0  0  2  0  0  0  0  0  0  0  0  0
    9.2881    0.2062    0.0000 C   0  0  0  0  0  0  0  0  0  0  0  0
    9.2881    1.0312    0.0000 O   0  0  0  0  0  0  0  0  0  0  0  0
   10.0026   -0.2062    0.0000 O   0  0  0  0  0  0  0  0  0  0  0  0
    8.5735   -1.0312    0.0000 C   0  0  0  0  0  0  0  0  0  0  0  0
    7.8591   -1.4437    0.0000 C   0  0  0  0  0  0  0  0  0  0  0  0
    7.1447   -1.0312    0.0000 C   0  0  0  0  0  0  0  0  0  0  0  0
    7.8591   -2.2687    0.0000 C   0  0  0  0  0  0  0  0  0  0  0  0
    7.1447   -2.6812    0.0000 C   0  0  0  0  0  0  0  0  0  0  0  0
    6.4302   -2.2687    0.0000 C   0  0  0  0  0  0  0  0  0  0  0  0
    5.7157   -2.6812    0.0000 O   0  0  0  0  0  0  0  0  0  0  0  0
    6.4302   -1.4437    0.0000 C   0  0  0  0  0  0  0  0  0  0  0  0
    5.7157   -1.0312    0.0000 C   0  0  0  0  0  0  0  0  0  0  0  0
    5.7157   -0.2062    0.0000 C   0  0  0  0  0  0  0  0  0  0  0  0
    5.0013    0.2062    0.0000 C   0  0  0  0  0  0  0  0  0  0  0  0
    4.2868   -0.2062    0.0000 C   0  0  0  0  0  0  0  0  0  0  0  0
    4.2868   -1.0312    0.0000 C   0  0  0  0  0  0  0  0  0  0  0  0
    5.0013   -1.4437    0.0000 C   0  0  0  0  0  0  0  0  0  0  0  0
    5.0013   -2.2687    0.0000 O   0  0  0  0  0  0  0  0  0  0  0  0
  1  2  1  0  0  0  0
 11  1  1  0  0  0  0
  2  3  1  0  0  0  0
  3  4  1  0  0  0  0
  4  5  1  0  0  0  0
  5  6  1  0  0  0  0
  6  7  1  0  0  0  0
  7  8  1  0  0  0  0
  8  9  1  0  0  0  0
  8 10  1  0  0  0  0
 12 11  1  0  0  0  0
 12 13  2  0  0  0  0
 12 14  1  0  0  0  0
 15 14  1  0  0  0  0
 16 14  1  6  0  0  0
 16 17  1  0  0  0  0
 16 19  1  0  0  0  0
 17 18  1  0  0  0  0
 19 20  2  0  0  0  0
 19 21  1  0  0  0  0
 22 21  1  0  0  0  0
 22 23  1  1  0  0  0
 24 22  1  0  0  0  0
 24 25  2  0  0  0  0
 24 26  1  0  0  0  0
 27 26  1  0  0  0  0
 27 28  1  0  0  0  0
 28 29  2  0  0  0  0
 28 30  1  0  0  0  0
 31 30  1  0  0  0  0
 32 30  1  6  0  0  0
 32 33  1  0  0  0  0
 32 55  1  0  0  0  0
 33 34  2  0  0  0  0
 33 35  1  0  0  0  0
 36 35  1  0  0  0  0
 36 37  1  1  0  0  0
 36 38  1  0  0  0  0
 38 39  2  0  0  0  0
 38 40  1  0  0  0  0
 41 40  1  0  0  0  0
 41 42  1  6  0  0  0
 41 45  1  0  0  0  0
 42 43  1  0  0  0  0
 42 44  2  0  0  0  0
 45 46  1  0  0  0  0
 46 47  1  0  0  0  0
 46 48  2  0  0  0  0
 47 52  2  0  0  0  0
 48 49  1  0  0  0  0
 49 50  2  0  0  0  0
 50 51  1  0  0  0  0
 52 50  1  0  0  0  0
 53 52  1  0  0  0  0
 54 53  1  0  0  0  0
 53 58  2  0  0  0  0
 55 54  2  0  0  0  0
 55 56  1  0  0  0  0
 56 57  2  0  0  0  0
 57 58  1  0  0  0  0
 58 59  1  0  0  0  0
M  END
> <DATABASE_ID>
DB01934

> <DATABASE_NAME>
drugbank

> <SMILES>
CC(C)CCCCCCCCC(=O)N(C)[C@H](CO)C(=O)N[C@H](C)C(=O)NCC(=O)N(C)[C@H]1C2=CC(=C(O)C=C2)C2=CC(C[C@H](NC(=O)[C@H](C)NC1=O)C(O)=O)=CC=C2O

> <INCHI_IDENTIFIER>
InChI=1S/C42H60N6O11/c1-24(2)13-11-9-7-8-10-12-14-35(52)47(5)32(23-49)40(56)44-25(3)38(54)43-22-36(53)48(6)37-28-16-18-34(51)30(21-28)29-19-27(15-17-33(29)50)20-31(42(58)59)46-39(55)26(4)45-41(37)57/h15-19,21,24-26,31-32,37,49-51H,7-14,20,22-23H2,1-6H3,(H,43,54)(H,44,56)(H,45,57)(H,46,55)(H,58,59)/t25-,26+,31+,32-,37+/m1/s1

> <INCHI_KEY>
YFSXYWAZCKMYJN-JBBOGOJTSA-N

> <FORMULA>
C42H60N6O11

> <MOLECULAR_WEIGHT>
824.973

> <EXACT_MASS>
824.432006776

> <JCHEM_ACCEPTOR_COUNT>
11

> <JCHEM_ATOM_COUNT>
119

> <JCHEM_AVERAGE_POLARIZABILITY>
88.58337312327484

> <JCHEM_BIOAVAILABILITY>
0

> <JCHEM_DONOR_COUNT>
8

> <JCHEM_FORMAL_CHARGE>
0

> <JCHEM_GHOSE_FILTER>
0

> <JCHEM_IUPAC>
(8S,11S,14S)-14-{2-[(2R)-2-[(2R)-2-(N,10-dimethylundecanamido)-3-hydroxypropanamido]propanamido]-N-methylacetamido}-3,18-dihydroxy-11-methyl-10,13-dioxo-9,12-diazatricyclo[13.3.1.1^{2,6}]icosa-1(18),2(20),3,5,15(19),16-hexaene-8-carboxylic acid

> <ALOGPS_LOGP>
2.92

> <JCHEM_LOGP>
2.0241629203333344

> <ALOGPS_LOGS>
-5.01

> <JCHEM_MDDR_LIKE_RULE>
1

> <JCHEM_NUMBER_OF_RINGS>
3

> <JCHEM_PHYSIOLOGICAL_CHARGE>
-1

> <JCHEM_PKA>
8.67706434982275

> <JCHEM_PKA_STRONGEST_ACIDIC>
3.535352999210764

> <JCHEM_PKA_STRONGEST_BASIC>
-2.847449974310183

> <JCHEM_POLAR_SURFACE_AREA>
255.00999999999996

> <JCHEM_REFRACTIVITY>
216.7778

> <JCHEM_ROTATABLE_BOND_COUNT>
18

> <JCHEM_RULE_OF_FIVE>
0

> <ALOGPS_SOLUBILITY>
8.15e-03 g/l

> <JCHEM_TRADITIONAL_IUPAC>
[(2R)-2-(4-aminobutanamido)-3-{[(4-methoxyphenyl)methyl]sulfanyl}propanamido]acetic acid

> <JCHEM_VEBER_RULE>
0

> <DRUGBANK_ID>
DB01934

> <SECONDARY_ACCESSION_NUMBERS>
EXPT00564

> <DRUG_GROUPS>
experimental

> <GENERIC_NAME>
Arylomycin A2

$$$$
