
  Mrv1909 01022004412D          

 65 68  0  0  0  0            999 V2000
    5.2220    1.5944    0.0000 S   0  0  0  0  0  0  0  0  0  0  0  0
   -8.0551    1.9258    0.0000 P   0  0  0  0  0  0  0  0  0  0  0  0
   -5.4807    0.9029    0.0000 P   0  0  0  0  0  0  0  0  0  0  0  0
   -4.0594    1.0498    0.0000 P   0  0  0  0  0  0  0  0  0  0  0  0
   -7.5719   -0.5527    0.0000 O   0  0  0  0  0  0  0  0  0  0  0  0
   -8.6082    1.3136    0.0000 O   0  0  0  0  0  0  0  0  0  0  0  0
   -9.6657   -0.1366    0.0000 O   0  0  0  0  0  0  0  0  0  0  0  0
   -6.1490    0.4191    0.0000 O   0  0  0  0  0  0  0  0  0  0  0  0
   -7.5020    2.5379    0.0000 O   0  0  0  0  0  0  0  0  0  0  0  0
   -8.6672    2.4789    0.0000 O   0  0  0  0  0  0  0  0  0  0  0  0
   -4.8124    1.3866    0.0000 O   0  0  0  0  0  0  0  0  0  0  0  0
   -7.4429    1.3726    0.0000 O   0  0  0  0  0  0  0  0  0  0  0  0
   -3.3062    0.7129    0.0000 O   0  0  0  0  0  0  0  0  0  0  0  0
   -4.9970    0.2346    0.0000 O   0  0  0  0  0  0  0  0  0  0  0  0
   -5.9645    1.5712    0.0000 O   0  0  0  0  0  0  0  0  0  0  0  0
   -1.0469   -0.2975    0.0000 O   0  0  0  0  0  0  0  0  0  0  0  0
   -3.7225    1.8029    0.0000 O   0  0  0  0  0  0  0  0  0  0  0  0
   -4.3962    0.2967    0.0000 O   0  0  0  0  0  0  0  0  0  0  0  0
   -0.5483    1.8274    0.0000 O   0  0  0  0  0  0  0  0  0  0  0  0
    2.2945    2.1212    0.0000 O   0  0  0  0  0  0  0  0  0  0  0  0
    6.0600    0.4369    0.0000 O   0  0  0  0  0  0  0  0  0  0  0  0
   -8.6132   -1.5905    0.0000 N   0  0  0  0  0  0  0  0  0  0  0  0
   -8.6132   -2.9183    0.0000 N   0  0  0  0  0  0  0  0  0  0  0  0
  -10.1084   -1.4294    0.0000 N   0  0  0  0  0  0  0  0  0  0  0  0
  -10.8228   -2.6669    0.0000 N   0  0  0  0  0  0  0  0  0  0  0  0
  -10.1084   -3.9044    0.0000 N   0  0  0  0  0  0  0  0  0  0  0  0
    0.2896    0.6699    0.0000 N   0  0  0  0  0  0  0  0  0  0  0  0
    3.1324    0.9637    0.0000 N   0  0  0  0  0  0  0  0  0  0  0  0
   10.0697    3.3395    0.0000 N   0  0  0  0  0  0  0  0  0  0  0  0
   -8.3546    0.5285    0.0000 C   0  0  1  0  0  0  0  0  0  0  0  0
   -8.8407   -0.1380    0.0000 C   0  0  2  0  0  0  0  0  0  0  0  0
   -7.5704    0.2722    0.0000 C   0  0  1  0  0  0  0  0  0  0  0  0
   -8.3569   -0.8063    0.0000 C   0  0  1  0  0  0  0  0  0  0  0  0
   -6.9021    0.7560    0.0000 C   0  0  0  0  0  0  0  0  0  0  0  0
   -9.3938   -1.8419    0.0000 C   0  0  0  0  0  0  0  0  0  0  0  0
   -8.1317   -2.2544    0.0000 C   0  0  0  0  0  0  0  0  0  0  0  0
   -9.3938   -2.6669    0.0000 C   0  0  0  0  0  0  0  0  0  0  0  0
   -1.8849    0.8599    0.0000 C   0  0  0  0  0  0  0  0  0  0  0  0
  -10.1084   -3.0794    0.0000 C   0  0  0  0  0  0  0  0  0  0  0  0
   -1.1317    0.5230    0.0000 C   0  0  2  0  0  0  0  0  0  0  0  0
   -2.6379    1.1967    0.0000 C   0  0  0  0  0  0  0  0  0  0  0  0
   -1.5479    1.6129    0.0000 C   0  0  0  0  0  0  0  0  0  0  0  0
   -2.2217    0.1067    0.0000 C   0  0  0  0  0  0  0  0  0  0  0  0
  -10.8228   -1.8419    0.0000 C   0  0  0  0  0  0  0  0  0  0  0  0
   -0.4634    1.0068    0.0000 C   0  0  0  0  0  0  0  0  0  0  0  0
    0.9579    1.1537    0.0000 C   0  0  0  0  0  0  0  0  0  0  0  0
    1.7109    0.8168    0.0000 C   0  0  0  0  0  0  0  0  0  0  0  0
    2.3793    1.3006    0.0000 C   0  0  0  0  0  0  0  0  0  0  0  0
    3.8006    1.4475    0.0000 C   0  0  0  0  0  0  0  0  0  0  0  0
    4.5538    1.1106    0.0000 C   0  0  0  0  0  0  0  0  0  0  0  0
    5.9752    1.2575    0.0000 C   0  0  0  0  0  0  0  0  0  0  0  0
    6.6435    1.7413    0.0000 C   0  0  0  0  0  0  0  0  0  0  0  0
    8.0649    1.8882    0.0000 C   0  0  0  0  0  0  0  0  0  0  0  0
    9.4014    2.8557    0.0000 C   0  0  0  0  0  0  0  0  0  0  0  0
    7.3965    1.4045    0.0000 C   0  0  0  0  0  0  0  0  0  0  0  0
    7.9800    2.7089    0.0000 C   0  0  0  0  0  0  0  0  0  0  0  0
    8.8180    1.5513    0.0000 C   0  0  0  0  0  0  0  0  0  0  0  0
    8.6483    3.1926    0.0000 C   0  0  0  0  0  0  0  0  0  0  0  0
    9.4862    2.0351    0.0000 C   0  0  0  0  0  0  0  0  0  0  0  0
   10.8228    3.0027    0.0000 C   0  0  0  0  0  0  0  0  0  0  0  0
    9.9849    4.1602    0.0000 C   0  0  0  0  0  0  0  0  0  0  0  0
  -10.5513   -4.1602    0.0000 H   0  0  0  0  0  0  0  0  0  0  0  0
   -9.6653   -4.1602    0.0000 H   0  0  0  0  0  0  0  0  0  0  0  0
    0.3422    0.1611    0.0000 H   0  0  0  0  0  0  0  0  0  0  0  0
    3.1849    0.4549    0.0000 H   0  0  0  0  0  0  0  0  0  0  0  0
  1 50  1  0  0  0  0
  1 51  1  0  0  0  0
  2  6  1  0  0  0  0
  2  9  1  0  0  0  0
  2 10  1  0  0  0  0
  2 12  2  0  0  0  0
  3  8  1  0  0  0  0
  3 11  1  0  0  0  0
  3 14  1  1  0  0  0
  3 15  2  0  0  0  0
  4 11  1  0  0  0  0
  4 13  1  0  0  0  0
  4 17  1  6  0  0  0
  4 18  2  0  0  0  0
  5 32  1  0  0  0  0
  5 33  1  0  0  0  0
 30  6  1  6  0  0  0
 31  7  1  6  0  0  0
  8 34  1  0  0  0  0
 13 41  1  0  0  0  0
 40 16  1  6  0  0  0
 19 45  2  0  0  0  0
 20 48  2  0  0  0  0
 21 51  2  0  0  0  0
 33 22  1  1  0  0  0
 22 35  1  0  0  0  0
 22 36  1  0  0  0  0
 23 36  2  0  0  0  0
 23 37  1  0  0  0  0
 24 35  2  0  0  0  0
 24 44  1  0  0  0  0
 25 39  1  0  0  0  0
 25 44  2  0  0  0  0
 26 39  1  0  0  0  0
 26 62  1  0  0  0  0
 26 63  1  0  0  0  0
 27 45  1  0  0  0  0
 27 46  1  0  0  0  0
 27 64  1  0  0  0  0
 28 48  1  0  0  0  0
 28 49  1  0  0  0  0
 28 65  1  0  0  0  0
 29 54  1  0  0  0  0
 29 60  1  0  0  0  0
 29 61  1  0  0  0  0
 30 31  1  0  0  0  0
 30 32  1  0  0  0  0
 31 33  1  0  0  0  0
 32 34  1  1  0  0  0
 35 37  1  0  0  0  0
 37 39  2  0  0  0  0
 38 40  1  0  0  0  0
 38 41  1  0  0  0  0
 38 42  1  0  0  0  0
 38 43  1  0  0  0  0
 40 45  1  0  0  0  0
 46 47  1  0  0  0  0
 47 48  1  0  0  0  0
 49 50  1  0  0  0  0
 51 52  1  0  0  0  0
 52 55  2  0  0  0  0
 53 55  1  0  0  0  0
 53 56  2  0  0  0  0
 53 57  1  0  0  0  0
 54 58  2  0  0  0  0
 54 59  1  0  0  0  0
 56 58  1  0  0  0  0
 57 59  2  0  0  0  0
M  END
> <DATABASE_ID>
DB04117

> <DATABASE_NAME>
drugbank

> <SMILES>
[H]N([H])C1=C2N=CN([C@@H]3O[C@H](COP(O)(=O)OP(O)(=O)OCC(C)(C)[C@@H](O)C(=O)N([H])CCC(=O)N([H])CCSC(=O)\C=C\C4=CC=C(C=C4)N(C)C)[C@@H](OP(O)(O)=O)[C@H]3O)C2=NC=N1

> <INCHI_IDENTIFIER>
InChI=1S/C32H47N8O17P3S/c1-32(2,27(44)30(45)35-12-11-22(41)34-13-14-61-23(42)10-7-19-5-8-20(9-6-19)39(3)4)16-54-60(51,52)57-59(49,50)53-15-21-26(56-58(46,47)48)25(43)31(55-21)40-18-38-24-28(33)36-17-37-29(24)40/h5-10,17-18,21,25-27,31,43-44H,11-16H2,1-4H3,(H,34,41)(H,35,45)(H,49,50)(H,51,52)(H2,33,36,37)(H2,46,47,48)/b10-7+/t21-,25-,26-,27+,31-/m1/s1

> <INCHI_KEY>
WWUPGKDRUIPTRA-XITLLWRLSA-N

> <FORMULA>
C32H47N8O17P3S

> <MOLECULAR_WEIGHT>
940.745

> <EXACT_MASS>
940.199272344

> <JCHEM_ACCEPTOR_COUNT>
18

> <JCHEM_ATOM_COUNT>
108

> <JCHEM_AVERAGE_NEUTRAL_MICROSPECIES_CHARGE>
-3.9482675350378043

> <JCHEM_AVERAGE_POLARIZABILITY>
86.66172422413565

> <JCHEM_BIOAVAILABILITY>
0

> <JCHEM_DONOR_COUNT>
9

> <JCHEM_FORMAL_CHARGE>
0

> <JCHEM_GHOSE_FILTER>
0

> <JCHEM_IUPAC>
{[(2R,3S,4R,5R)-5-(6-amino-9H-purin-9-yl)-2-({[({[(3R)-3-({2-[(2-{[(2E)-3-[4-(dimethylamino)phenyl]prop-2-enoyl]sulfanyl}ethyl)carbamoyl]ethyl}carbamoyl)-3-hydroxy-2,2-dimethylpropoxy](hydroxy)phosphoryl}oxy)(hydroxy)phosphoryl]oxy}methyl)-4-hydroxyoxolan-3-yl]oxy}phosphonic acid

> <ALOGPS_LOGP>
0.37

> <JCHEM_LOGP>
-5.111146431574549

> <ALOGPS_LOGS>
-2.56

> <JCHEM_MDDR_LIKE_RULE>
1

> <JCHEM_NEUTRAL_CHARGE>
-4

> <JCHEM_NUMBER_OF_RINGS>
4

> <JCHEM_PHYSIOLOGICAL_CHARGE>
-4

> <JCHEM_PKA>
1.9034827265503522

> <JCHEM_PKA_STRONGEST_ACIDIC>
0.8212863374518586

> <JCHEM_PKA_STRONGEST_BASIC>
5.086291514640011

> <JCHEM_POLAR_SURFACE_AREA>
366.8699999999999

> <JCHEM_REFRACTIVITY>
217.05280000000002

> <JCHEM_ROTATABLE_BOND_COUNT>
23

> <JCHEM_RULE_OF_FIVE>
0

> <ALOGPS_SOLUBILITY>
2.59e+00 g/l

> <JCHEM_TRADITIONAL_IUPAC>
3H,5H-pyrrolo[3,2-d]pyrimidin-4-one

> <JCHEM_VEBER_RULE>
0

> <DRUGBANK_ID>
DB04117

> <SECONDARY_ACCESSION_NUMBERS>
EXPT01108

> <DRUG_GROUPS>
experimental

> <GENERIC_NAME>
4-(N,N-Dimethylamino)cinnamoyl-CoA

$$$$
