
  Mrv1909 01032021002D          

 30 32  0  0  0  0            999 V2000
   -0.9806    0.3515    0.0000 O   0  0  0  0  0  0  0  0  0  0  0  0
    0.9547   -0.5491    0.0000 O   0  0  0  0  0  0  0  0  0  0  0  0
   -1.5547    1.9761    0.0000 O   0  0  0  0  0  0  0  0  0  0  0  0
    0.1199    2.4030    0.0000 O   0  0  0  0  0  0  0  0  0  0  0  0
    2.9627    2.6968    0.0000 O   0  0  0  0  0  0  0  0  0  0  0  0
   -0.7531   -1.1008    0.0000 N   0  0  0  0  0  0  0  0  0  0  0  0
    0.9578    1.2455    0.0000 N   0  0  0  0  0  0  0  0  0  0  0  0
   -0.7531   -2.4286    0.0000 N   0  0  0  0  0  0  0  0  0  0  0  0
   -2.2482   -0.9398    0.0000 N   0  0  0  0  0  0  0  0  0  0  0  0
    1.4565    3.3705    0.0000 N   0  0  0  0  0  0  0  0  0  0  0  0
   -2.9627   -2.1773    0.0000 N   0  0  0  0  0  0  0  0  0  0  0  0
   -2.2482   -3.4148    0.0000 N   0  0  0  0  0  0  0  0  0  0  0  0
    0.2896    0.7617    0.0000 C   0  0  1  0  0  0  0  0  0  0  0  0
    0.2881   -0.0631    0.0000 C   0  0  2  0  0  0  0  0  0  0  0  0
   -0.4945    1.0181    0.0000 C   0  0  1  0  0  0  0  0  0  0  0  0
   -0.4968   -0.3167    0.0000 C   0  0  1  0  0  0  0  0  0  0  0  0
   -0.7481    1.8031    0.0000 C   0  0  0  0  0  0  0  0  0  0  0  0
   -1.5337   -1.3523    0.0000 C   0  0  0  0  0  0  0  0  0  0  0  0
    0.8730    2.0661    0.0000 C   0  0  0  0  0  0  0  0  0  0  0  0
   -0.2716   -1.7648    0.0000 C   0  0  0  0  0  0  0  0  0  0  0  0
   -1.5337   -2.1773    0.0000 C   0  0  0  0  0  0  0  0  0  0  0  0
    1.5413    2.5499    0.0000 C   0  0  2  0  0  0  0  0  0  0  0  0
    2.2944    2.2131    0.0000 C   0  0  0  0  0  0  0  0  0  0  0  0
   -2.2482   -2.5898    0.0000 C   0  0  0  0  0  0  0  0  0  0  0  0
   -2.9627   -1.3523    0.0000 C   0  0  0  0  0  0  0  0  0  0  0  0
    1.4247    1.0367    0.0000 H   0  0  0  0  0  0  0  0  0  0  0  0
    1.8708    3.6705    0.0000 H   0  0  0  0  0  0  0  0  0  0  0  0
    0.9895    3.5794    0.0000 H   0  0  0  0  0  0  0  0  0  0  0  0
   -2.6912   -3.6705    0.0000 H   0  0  0  0  0  0  0  0  0  0  0  0
   -1.8052   -3.6705    0.0000 H   0  0  0  0  0  0  0  0  0  0  0  0
  1 15  1  0  0  0  0
  1 16  1  0  0  0  0
 14  2  1  1  0  0  0
  3 17  1  0  0  0  0
  4 19  2  0  0  0  0
  5 23  1  0  0  0  0
 16  6  1  6  0  0  0
  6 18  1  0  0  0  0
  6 20  1  0  0  0  0
 13  7  1  1  0  0  0
  7 19  1  0  0  0  0
  7 26  1  0  0  0  0
  8 20  2  0  0  0  0
  8 21  1  0  0  0  0
  9 18  2  0  0  0  0
  9 25  1  0  0  0  0
 22 10  1  1  0  0  0
 10 27  1  0  0  0  0
 10 28  1  0  0  0  0
 11 24  1  0  0  0  0
 11 25  2  0  0  0  0
 12 24  1  0  0  0  0
 12 29  1  0  0  0  0
 12 30  1  0  0  0  0
 13 14  1  0  0  0  0
 13 15  1  0  0  0  0
 14 16  1  0  0  0  0
 15 17  1  6  0  0  0
 18 21  1  0  0  0  0
 19 22  1  0  0  0  0
 21 24  2  0  0  0  0
 22 23  1  0  0  0  0
M  END
> <DATABASE_ID>
DB04024

> <DATABASE_NAME>
drugbank

> <SMILES>
[H]N([H])[C@@H](CO)C(=O)N([H])[C@@H]1[C@@H](CO)O[C@H]([C@@H]1O)N1C=NC2=C(N=CN=C12)N([H])[H]

> <INCHI_IDENTIFIER>
InChI=1S/C13H19N7O5/c14-5(1-21)12(24)19-7-6(2-22)25-13(9(7)23)20-4-18-8-10(15)16-3-17-11(8)20/h3-7,9,13,21-23H,1-2,14H2,(H,19,24)(H2,15,16,17)/t5-,6+,7+,9+,13+/m0/s1

> <INCHI_KEY>
ITDKSTILAWHDJI-AYEBZEFBSA-N

> <FORMULA>
C13H19N7O5

> <MOLECULAR_WEIGHT>
353.3339

> <EXACT_MASS>
353.144766753

> <JCHEM_ACCEPTOR_COUNT>
10

> <JCHEM_ATOM_COUNT>
44

> <JCHEM_AVERAGE_NEUTRAL_MICROSPECIES_CHARGE>
0.8841130841172802

> <JCHEM_AVERAGE_POLARIZABILITY>
33.54058228932236

> <JCHEM_BIOAVAILABILITY>
1

> <JCHEM_DONOR_COUNT>
6

> <JCHEM_FORMAL_CHARGE>
0

> <JCHEM_GHOSE_FILTER>
0

> <JCHEM_IUPAC>
(2S)-2-amino-N-[(2S,3S,4R,5R)-5-(6-amino-9H-purin-9-yl)-4-hydroxy-2-(hydroxymethyl)oxolan-3-yl]-3-hydroxypropanamide

> <JCHEM_LOGP>
-3.781274632333333

> <JCHEM_MDDR_LIKE_RULE>
0

> <JCHEM_NEUTRAL_CHARGE>
1

> <JCHEM_NUMBER_OF_RINGS>
3

> <JCHEM_PHYSIOLOGICAL_CHARGE>
1

> <JCHEM_PKA>
13.017069067520874

> <JCHEM_PKA_STRONGEST_ACIDIC>
12.170338665286318

> <JCHEM_PKA_STRONGEST_BASIC>
7.848702878951783

> <JCHEM_POLAR_SURFACE_AREA>
194.66

> <JCHEM_REFRACTIVITY>
83.69420000000001

> <JCHEM_ROTATABLE_BOND_COUNT>
5

> <JCHEM_RULE_OF_FIVE>
0

> <JCHEM_TRADITIONAL_IUPAC>
(2S)-2-({4-[(2E)-N-({2-amino-4-oxo-1H-pyrido[3,2-d]pyrimidin-6-yl}methyl)-3-{5-carbamoyl-3-[(2R,3R,4S,5R)-3,4-dihydroxy-5-[(phosphonooxy)methyl]oxolan-2-yl]imidazol-4-yl}prop-2-enamido]phenyl}formamido)pentanedioic acid

> <JCHEM_VEBER_RULE>
0

> <DRUGBANK_ID>
DB04024

> <SECONDARY_ACCESSION_NUMBERS>
EXPT00371

> <DRUG_GROUPS>
experimental

> <GENERIC_NAME>
Serine-3'-aminoadenosine

$$$$
