
  Mrv1652310211602112D          

 23 25  0  0  0  0            999 V2000
   -3.0366    2.2295    0.0000 C   0  0  0  0  0  0  0  0  0  0  0  0
   -2.2296    2.0580    0.0000 C   0  0  0  0  0  0  0  0  0  0  0  0
   -2.1434    1.2375    0.0000 C   0  0  0  0  0  0  0  0  0  0  0  0
   -2.8971    0.9019    0.0000 O   0  0  0  0  0  0  0  0  0  0  0  0
   -3.4491    1.5150    0.0000 C   0  0  0  0  0  0  0  0  0  0  0  0
   -1.4289    0.8250    0.0000 C   0  0  0  0  0  0  0  0  0  0  0  0
   -0.7145    1.2375    0.0000 O   0  0  0  0  0  0  0  0  0  0  0  0
   -1.4289    0.0000    0.0000 O   0  0  0  0  0  0  0  0  0  0  0  0
   -0.7145   -0.4125    0.0000 C   0  0  0  0  0  0  0  0  0  0  0  0
   -0.7145   -1.2375    0.0000 C   0  0  0  0  0  0  0  0  0  0  0  0
    0.0000   -1.6500    0.0000 C   0  0  0  0  0  0  0  0  0  0  0  0
    0.7145   -1.2375    0.0000 C   0  0  0  0  0  0  0  0  0  0  0  0
    0.7145   -0.4125    0.0000 C   0  0  0  0  0  0  0  0  0  0  0  0
    0.0000   -0.0000    0.0000 C   0  0  0  0  0  0  0  0  0  0  0  0
    1.4289   -0.0000    0.0000 C   0  0  0  0  0  0  0  0  0  0  0  0
    2.1434   -0.4125    0.0000 C   0  0  0  0  0  0  0  0  0  0  0  0
    2.1434   -1.2375    0.0000 C   0  0  0  0  0  0  0  0  0  0  0  0
    1.4289   -1.6500    0.0000 N   0  0  0  0  0  0  0  0  0  0  0  0
    1.4289   -2.4750    0.0000 C   0  0  0  0  0  0  0  0  0  0  0  0
    2.1434   -2.8875    0.0000 O   0  0  0  0  0  0  0  0  0  0  0  0
    0.7145   -2.8875    0.0000 C   0  0  0  0  0  0  0  0  0  0  0  0
    0.7145   -3.7125    0.0000 Cl  0  0  0  0  0  0  0  0  0  0  0  0
    0.0000   -2.4750    0.0000 Cl  0  0  0  0  0  0  0  0  0  0  0  0
  1  2  1  0  0  0  0
  2  3  2  0  0  0  0
  3  4  1  0  0  0  0
  4  5  1  0  0  0  0
  1  5  2  0  0  0  0
  3  6  1  0  0  0  0
  6  7  2  0  0  0  0
  6  8  1  0  0  0  0
  8  9  1  0  0  0  0
  9 10  2  0  0  0  0
 10 11  1  0  0  0  0
 11 12  2  0  0  0  0
 12 13  1  0  0  0  0
 13 14  2  0  0  0  0
  9 14  1  0  0  0  0
 13 15  1  0  0  0  0
 15 16  1  0  0  0  0
 16 17  1  0  0  0  0
 17 18  1  0  0  0  0
 12 18  1  0  0  0  0
 18 19  1  0  0  0  0
 19 20  2  0  0  0  0
 19 21  1  0  0  0  0
 21 22  1  0  0  0  0
 21 23  1  0  0  0  0
M  END
> <DATABASE_ID>
DB12780

> <DATABASE_NAME>
drugbank

> <SMILES>
ClC(Cl)C(=O)N1CCCC2=CC(OC(=O)C3=CC=CO3)=CC=C12

> <INCHI_IDENTIFIER>
InChI=1S/C16H13Cl2NO4/c17-14(18)15(20)19-7-1-3-10-9-11(5-6-12(10)19)23-16(21)13-4-2-8-22-13/h2,4-6,8-9,14H,1,3,7H2

> <INCHI_KEY>
SBJGFIXQRZOVTO-UHFFFAOYSA-N

> <FORMULA>
C16H13Cl2NO4

> <MOLECULAR_WEIGHT>
354.18

> <EXACT_MASS>
353.0221633

> <JCHEM_ACCEPTOR_COUNT>
2

> <JCHEM_ATOM_COUNT>
36

> <JCHEM_AVERAGE_POLARIZABILITY>
34.39934783347323

> <JCHEM_BIOAVAILABILITY>
1

> <JCHEM_DONOR_COUNT>
0

> <JCHEM_FORMAL_CHARGE>
0

> <JCHEM_GHOSE_FILTER>
1

> <JCHEM_IUPAC>
1-(2,2-dichloroacetyl)-1,2,3,4-tetrahydroquinolin-6-yl furan-2-carboxylate

> <ALOGPS_LOGP>
2.87

> <JCHEM_LOGP>
3.5626898076666667

> <ALOGPS_LOGS>
-4.05

> <JCHEM_MDDR_LIKE_RULE>
0

> <JCHEM_NUMBER_OF_RINGS>
3

> <JCHEM_PHYSIOLOGICAL_CHARGE>
0

> <JCHEM_PKA_STRONGEST_ACIDIC>
13.065918356738297

> <JCHEM_PKA_STRONGEST_BASIC>
-3.102786737394338

> <JCHEM_POLAR_SURFACE_AREA>
59.75

> <JCHEM_REFRACTIVITY>
86.11710000000001

> <JCHEM_ROTATABLE_BOND_COUNT>
4

> <JCHEM_RULE_OF_FIVE>
1

> <ALOGPS_SOLUBILITY>
3.15e-02 g/l

> <JCHEM_TRADITIONAL_IUPAC>
quinfamide

> <JCHEM_VEBER_RULE>
0

> <DRUGBANK_ID>
DB12780

> <DRUG_GROUPS>
investigational

> <GENERIC_NAME>
Quinfamide

> <SYNONYMS>
Quinfamide

$$$$
