
  Mrv1909 09132216432D          

 36 41  0  0  1  0            999 V2000
    7.7973   -1.4576    0.0000 H   0  0  0  0  0  0  0  0  0  0  0  0
    7.9311   -2.2716    0.0000 C   0  0  1  0  0  0  0  0  0  0  0  0
    8.6640   -1.8929    0.0000 C   0  0  0  0  0  0  0  0  0  0  0  0
    9.2507   -2.4728    0.0000 C   0  0  1  0  0  0  0  0  0  0  0  0
    9.7040   -3.1621    0.0000 H   0  0  0  0  0  0  0  0  0  0  0  0
   10.0743   -2.4249    0.0000 C   0  0  2  0  0  0  0  0  0  0  0  0
    9.6210   -1.7356    0.0000 H   0  0  0  0  0  0  0  0  0  0  0  0
   10.4446   -1.6877    0.0000 C   0  0  0  0  0  0  0  0  0  0  0  0
   11.2682   -1.6397    0.0000 C   0  0  0  0  0  0  0  0  0  0  0  0
   11.7215   -2.3290    0.0000 C   0  0  2  0  0  0  0  0  0  0  0  0
   12.1748   -3.0183    0.0000 H   0  0  0  0  0  0  0  0  0  0  0  0
   12.5451   -2.2811    0.0000 C   0  0  0  0  0  0  0  0  0  0  0  0
   12.9984   -2.9704    0.0000 C   0  0  1  0  0  0  0  0  0  0  0  0
   13.8221   -2.9224    0.0000 O   0  0  0  0  0  0  0  0  0  0  0  0
   12.6282   -3.7076    0.0000 C   0  0  0  0  0  0  0  0  0  0  0  0
   11.8046   -3.7555    0.0000 C   0  0  0  0  0  0  0  0  0  0  0  0
   11.3512   -3.0662    0.0000 C   0  0  1  0  0  0  0  0  0  0  0  0
   10.9810   -3.8035    0.0000 C   0  0  0  0  0  0  0  0  0  0  0  0
   10.5276   -3.1142    0.0000 C   0  0  1  0  0  0  0  0  0  0  0  0
   10.8979   -2.3769    0.0000 H   0  0  0  0  0  0  0  0  0  0  0  0
   10.1573   -3.8514    0.0000 C   0  0  0  0  0  0  0  0  0  0  0  0
    9.3337   -3.8994    0.0000 C   0  0  0  0  0  0  0  0  0  0  0  0
    8.8804   -3.2101    0.0000 C   0  0  1  0  0  0  0  0  0  0  0  0
    8.4351   -3.9046    0.0000 C   0  0  0  0  0  0  0  0  0  0  0  0
    8.0648   -3.0857    0.0000 C   0  0  1  0  0  0  0  0  0  0  0  0
    7.3276   -2.7154    0.0000 H   0  0  0  0  0  0  0  0  0  0  0  0
    7.3319   -3.4645    0.0000 C   0  0  2  0  0  0  0  0  0  0  0  0
    7.2076   -4.2801    0.0000 C   0  0  0  0  0  0  0  0  0  0  0  0
    6.7452   -2.8845    0.0000 C   0  0  2  0  0  0  0  0  0  0  0  0
    6.4540   -3.6564    0.0000 C   0  0  0  0  0  0  0  0  0  0  0  0
    5.6399   -3.7902    0.0000 C   0  0  0  0  0  0  0  0  0  0  0  0
    5.1170   -3.1521    0.0000 C   0  0  2  0  0  0  0  0  0  0  0  0
    4.3030   -3.2858    0.0000 C   0  0  0  0  0  0  0  0  0  0  0  0
    5.4082   -2.3802    0.0000 C   0  0  0  0  0  0  0  0  0  0  0  0
    6.2223   -2.2464    0.0000 O   0  0  0  0  0  0  0  0  0  0  0  0
    7.1155   -2.1473    0.0000 O   0  0  0  0  0  0  0  0  0  0  0  0
  2  1  1  6  0  0  0
  2  3  1  0  0  0  0
  4  3  1  0  0  0  0
  4  5  1  6  0  0  0
  4  6  1  0  0  0  0
  6  7  1  1  0  0  0
  6  8  1  0  0  0  0
  8  9  1  0  0  0  0
 10  9  1  0  0  0  0
 10 11  1  1  0  0  0
 10 12  1  0  0  0  0
 13 12  1  0  0  0  0
 13 14  1  1  0  0  0
 13 15  1  0  0  0  0
 15 16  1  0  0  0  0
 17 16  1  0  0  0  0
 17 10  1  0  0  0  0
 17 18  1  1  0  0  0
 19 17  1  0  0  0  0
  6 19  1  0  0  0  0
 19 20  1  6  0  0  0
 19 21  1  0  0  0  0
 21 22  1  0  0  0  0
 23 22  1  0  0  0  0
 23  4  1  0  0  0  0
 23 24  1  1  0  0  0
 25 23  1  0  0  0  0
 25  2  1  0  0  0  0
 25 26  1  6  0  0  0
 25 27  1  0  0  0  0
 27 28  1  6  0  0  0
 27 29  1  0  0  0  0
 29 30  1  0  0  0  0
 30 31  1  0  0  0  0
 32 31  1  0  0  0  0
 32 33  1  6  0  0  0
 32 34  1  0  0  0  0
 34 35  1  0  0  0  0
 29 35  1  0  0  0  0
 29 36  1  1  0  0  0
  2 36  1  0  0  0  0
M  END
> <DATABASE_ID>
DB16928

> <DATABASE_NAME>
drugbank

> <SMILES>
[H][C@]12C[C@@]3([H])[C@]4([H])CC[C@]5([H])C[C@@H](O)CC[C@]5(C)[C@@]4([H])CC[C@]3(C)[C@@]1([H])[C@H](C)[C@@]1(CC[C@H](C)CO1)O2

> <INCHI_IDENTIFIER>
InChI=1S/C27H44O3/c1-16-7-12-27(29-15-16)17(2)24-23(30-27)14-22-20-6-5-18-13-19(28)8-10-25(18,3)21(20)9-11-26(22,24)4/h16-24,28H,5-15H2,1-4H3/t16-,17-,18+,19-,20+,21-,22-,23-,24-,25-,26-,27+/m0/s1

> <INCHI_KEY>
GMBQZIIUCVWOCD-WWASVFFGSA-N

> <FORMULA>
C27H44O3

> <MOLECULAR_WEIGHT>
416.646

> <EXACT_MASS>
416.329045277

> <JCHEM_ACCEPTOR_COUNT>
3

> <JCHEM_ATOM_COUNT>
74

> <JCHEM_AVERAGE_NEUTRAL_MICROSPECIES_CHARGE>
4.400930364156222e-09

> <JCHEM_AVERAGE_POLARIZABILITY>
50.82034526271224

> <JCHEM_BIOAVAILABILITY>
1

> <JCHEM_DONOR_COUNT>
1

> <JCHEM_FORMAL_CHARGE>
0

> <JCHEM_GHOSE_FILTER>
0

> <JCHEM_IUPAC>
(1'R,2R,2'S,4'S,5S,7'S,8'R,9'S,12'S,13'S,16'S,18'R)-5,7',9',13'-tetramethyl-5'-oxaspiro[oxane-2,6'-pentacyclo[10.8.0.0^{2,9}.0^{4,8}.0^{13,18}]icosan]-16'-ol

> <ALOGPS_LOGP>
4.52

> <JCHEM_LOGP>
5.332884935333334

> <ALOGPS_LOGS>
-7.10

> <JCHEM_MDDR_LIKE_RULE>
0

> <JCHEM_NEUTRAL_CHARGE>
0

> <JCHEM_NUMBER_OF_RINGS>
6

> <JCHEM_PHYSIOLOGICAL_CHARGE>
0

> <JCHEM_PKA_STRONGEST_ACIDIC>
18.2963963211217

> <JCHEM_PKA_STRONGEST_BASIC>
-1.3560752133131748

> <JCHEM_POLAR_SURFACE_AREA>
38.69

> <JCHEM_REFRACTIVITY>
119.41590000000002

> <JCHEM_ROTATABLE_BOND_COUNT>
0

> <JCHEM_RULE_OF_FIVE>
0

> <ALOGPS_SOLUBILITY>
3.28e-05 g/l

> <JCHEM_TRADITIONAL_IUPAC>
6-cyclopropaneamido-N-[hydroxy(2H2)methyl]-4-{[2-methoxy-3-(1-methyl-1,2,4-triazol-3-yl)phenyl]amino}pyridazine-3-carboxamide

> <JCHEM_VEBER_RULE>
1

> <DRUGBANK_ID>
DB16928

> <DRUG_GROUPS>
investigational

> <GENERIC_NAME>
Sarsagenin

> <SYNONYMS>
(3.beta.,5.beta.,25s)-spirostan-3-ol; Myogane; NSC 1615; NSC-1615; Parigenin; Pure sarsasapogenin; Sarsasapogenin; Spirostan-3-ol, (3.beta.,5.beta.,25s)-

$$$$
