
  Mrv1909 05201915032D          

 36 36  0  0  0  0            999 V2000
    0.7145  -11.1375    0.0000 C   0  0  0  0  0  0  0  0  0  0  0  0
    1.4289  -11.5500    0.0000 N   0  3  0  0  0  0  0  0  0  0  0  0
    1.0164  -12.2645    0.0000 C   0  0  0  0  0  0  0  0  0  0  0  0
    1.8414  -10.8355    0.0000 C   0  0  0  0  0  0  0  0  0  0  0  0
    2.1434  -11.9625    0.0000 C   0  0  0  0  0  0  0  0  0  0  0  0
    2.8579  -11.5500    0.0000 C   0  0  0  0  0  0  0  0  0  0  0  0
    3.5724  -11.9625    0.0000 O   0  0  0  0  0  0  0  0  0  0  0  0
    4.2868  -11.5500    0.0000 P   0  0  0  0  0  0  0  0  0  0  0  0
    4.6993  -12.2645    0.0000 O   0  5  0  0  0  0  0  0  0  0  0  0
    3.8743  -10.8355    0.0000 O   0  0  0  0  0  0  0  0  0  0  0  0
    5.0013  -11.1375    0.0000 O   0  0  0  0  0  0  0  0  0  0  0  0
    5.7158  -11.5500    0.0000 C   0  0  0  0  0  0  0  0  0  0  0  0
    6.4302  -11.1375    0.0000 C   0  0  0  0  0  0  0  0  0  0  0  0
    7.1447  -11.5500    0.0000 C   0  0  0  0  0  0  0  0  0  0  0  0
    7.8592  -11.1375    0.0000 C   0  0  0  0  0  0  0  0  0  0  0  0
    8.5737  -11.5500    0.0000 C   0  0  0  0  0  0  0  0  0  0  0  0
    9.2881  -11.1375    0.0000 C   0  0  0  0  0  0  0  0  0  0  0  0
   10.0026  -11.5500    0.0000 C   0  0  0  0  0  0  0  0  0  0  0  0
   10.7171  -11.1375    0.0000 C   0  0  0  0  0  0  0  0  0  0  0  0
   11.4315  -11.5500    0.0000 C   0  0  0  0  0  0  0  0  0  0  0  0
   12.1460  -11.1375    0.0000 C   0  0  0  0  0  0  0  0  0  0  0  0
   12.8605  -11.5500    0.0000 C   0  0  0  0  0  0  0  0  0  0  0  0
   13.5749  -11.1375    0.0000 C   0  0  0  0  0  0  0  0  0  0  0  0
   14.2894  -11.5500    0.0000 C   0  0  0  0  0  0  0  0  0  0  0  0
   15.0039  -11.1375    0.0000 C   0  0  0  0  0  0  0  0  0  0  0  0
   15.7184  -11.5500    0.0000 C   0  0  0  0  0  0  0  0  0  0  0  0
   16.4328  -11.1375    0.0000 C   0  0  0  0  0  0  0  0  0  0  0  0
   17.1473  -11.5500    0.0000 C   0  0  0  0  0  0  0  0  0  0  0  0
   17.8618  -11.1375    0.0000 C   0  0  0  0  0  0  0  0  0  0  0  0
   18.5762  -11.5500    0.0000 C   0  0  0  0  0  0  0  0  0  0  0  0
   19.2907  -11.1375    0.0000 C   0  0  0  0  0  0  0  0  0  0  0  0
   20.0052  -11.5500    0.0000 C   0  0  0  0  0  0  0  0  0  0  0  0
   20.0052  -12.3750    0.0000 C   0  0  0  0  0  0  0  0  0  0  0  0
   20.7197  -12.7875    0.0000 I   0  0  0  0  0  0  0  0  0  0  0  0
   19.2907  -12.7875    0.0000 C   0  0  0  0  0  0  0  0  0  0  0  0
   18.5762  -12.3750    0.0000 C   0  0  0  0  0  0  0  0  0  0  0  0
  1  2  1  0  0  0  0
  2  3  1  0  0  0  0
  2  4  1  0  0  0  0
  2  5  1  0  0  0  0
  5  6  1  0  0  0  0
  6  7  1  0  0  0  0
  7  8  1  0  0  0  0
  8  9  1  0  0  0  0
  8 10  2  0  0  0  0
  8 11  1  0  0  0  0
 11 12  1  0  0  0  0
 12 13  1  0  0  0  0
 13 14  1  0  0  0  0
 14 15  1  0  0  0  0
 15 16  1  0  0  0  0
 16 17  1  0  0  0  0
 17 18  1  0  0  0  0
 18 19  1  0  0  0  0
 19 20  1  0  0  0  0
 20 21  1  0  0  0  0
 21 22  1  0  0  0  0
 22 23  1  0  0  0  0
 23 24  1  0  0  0  0
 24 25  1  0  0  0  0
 25 26  1  0  0  0  0
 26 27  1  0  0  0  0
 27 28  1  0  0  0  0
 28 29  1  0  0  0  0
 29 30  1  0  0  0  0
 30 31  2  0  0  0  0
 31 32  1  0  0  0  0
 32 33  2  0  0  0  0
 33 34  1  0  0  0  0
 33 35  1  0  0  0  0
 35 36  2  0  0  0  0
 30 36  1  0  0  0  0
M  CHG  2   2   1   9  -1
M  ISO  1  34 131
M  END
> <DATABASE_ID>
DB15244

> <DATABASE_NAME>
drugbank

> <SMILES>
C[N+](C)(C)CCOP([O-])(=O)OCCCCCCCCCCCCCCCCCCC1=CC=C([131I])C=C1

> <INCHI_IDENTIFIER>
InChI=1S/C29H53INO4P/c1-31(2,3)25-27-35-36(32,33)34-26-19-17-15-13-11-9-7-5-4-6-8-10-12-14-16-18-20-28-21-23-29(30)24-22-28/h21-24H,4-20,25-27H2,1-3H3/i30+4

> <INCHI_KEY>
ZOAIEFWMQLYMTF-YRKXUXMHSA-N

> <FORMULA>
C29H53INO4P

> <MOLECULAR_WEIGHT>
641.626

> <EXACT_MASS>
641.277345357

> <JCHEM_ACCEPTOR_COUNT>
2

> <JCHEM_ATOM_COUNT>
89

> <JCHEM_AVERAGE_POLARIZABILITY>
69.90423206668976

> <JCHEM_BIOAVAILABILITY>
0

> <JCHEM_DONOR_COUNT>
0

> <JCHEM_FORMAL_CHARGE>
0

> <JCHEM_GHOSE_FILTER>
0

> <JCHEM_IUPAC>
18-[4-(¹³¹I)iodophenyl]octadecyl 2-(trimethylazaniumyl)ethyl phosphate

> <ALOGPS_LOGP>
4.38

> <JCHEM_LOGP>
5.64730296919492

> <ALOGPS_LOGS>
-7.81

> <JCHEM_MDDR_LIKE_RULE>
0

> <JCHEM_NUMBER_OF_RINGS>
1

> <JCHEM_PHYSIOLOGICAL_CHARGE>
0

> <JCHEM_PKA_STRONGEST_ACIDIC>
1.8803148742183158

> <JCHEM_POLAR_SURFACE_AREA>
58.59

> <JCHEM_REFRACTIVITY>
172.7736

> <JCHEM_ROTATABLE_BOND_COUNT>
24

> <JCHEM_RULE_OF_FIVE>
0

> <ALOGPS_SOLUBILITY>
1.06e-05 g/l

> <JCHEM_TRADITIONAL_IUPAC>
(2R)-14-fluoro-2-methyl-6,9,10,19-tetraazapentacyclo[14.2.1.0^{2,6}.0^{8,18}.0^{12,17}]nonadeca-1(18),8,12(17),13,15-pentaen-11-one

> <JCHEM_VEBER_RULE>
0

> <DRUGBANK_ID>
DB15244

> <DRUG_GROUPS>
investigational

> <GENERIC_NAME>
Iopofosine I-131

> <SYNONYMS>
18-(p-(131I)-iodophenyl)octadecyl phosphocholine; 18-(p-[131]-iodophenyl)octadecyl phosphocholine; Ethanaminium, 2-((hydroxy((18-(4-(iodo-131I)phenyl)octadecyl)oxy)phosphinyl)oxy)-N,N,N-trimethyl-, inner salt; I-131-CLR1404

$$$$
