
  Mrv1652306231722392D          

 15 15  0  0  1  0            999 V2000
    0.0000   -2.4750    0.0000 C   0  0  0  0  0  0  0  0  0  0  0  0
    0.7145   -2.8875    0.0000 O   0  0  0  0  0  0  0  0  0  0  0  0
    1.4289   -2.4750    0.0000 C   0  0  0  0  0  0  0  0  0  0  0  0
    1.4289   -1.6500    0.0000 O   0  0  0  0  0  0  0  0  0  0  0  0
    2.1434   -2.8875    0.0000 C   0  0  2  0  0  0  0  0  0  0  0  0
    2.8579   -2.4750    0.0000 C   0  0  0  0  0  0  0  0  0  0  0  0
    3.5724   -2.8875    0.0000 C   0  0  0  0  0  0  0  0  0  0  0  0
    4.2868   -2.4750    0.0000 C   0  0  0  0  0  0  0  0  0  0  0  0
    5.0013   -2.8875    0.0000 C   0  0  0  0  0  0  0  0  0  0  0  0
    5.0013   -3.7125    0.0000 C   0  0  0  0  0  0  0  0  0  0  0  0
    4.2868   -4.1250    0.0000 C   0  0  0  0  0  0  0  0  0  0  0  0
    3.5724   -3.7125    0.0000 C   0  0  0  0  0  0  0  0  0  0  0  0
    4.2868   -4.9500    0.0000 O   0  0  0  0  0  0  0  0  0  0  0  0
    5.7158   -4.1250    0.0000 O   0  0  0  0  0  0  0  0  0  0  0  0
    2.1434   -3.7125    0.0000 N   0  0  0  0  0  0  0  0  0  0  0  0
  1  2  1  0  0  0  0
  2  3  1  0  0  0  0
  3  4  2  0  0  0  0
  3  5  1  0  0  0  0
  5  6  1  0  0  0  0
  6  7  1  0  0  0  0
  7  8  2  0  0  0  0
  8  9  1  0  0  0  0
  9 10  2  0  0  0  0
 10 11  1  0  0  0  0
 11 12  2  0  0  0  0
  7 12  1  0  0  0  0
 11 13  1  0  0  0  0
 10 14  1  0  0  0  0
  5 15  1  6  0  0  0
M  END
> <DATABASE_ID>
DB13313

> <DATABASE_NAME>
drugbank

> <SMILES>
COC(=O)[C@@H](N)CC1=CC=C(O)C(O)=C1

> <INCHI_IDENTIFIER>
InChI=1S/C10H13NO4/c1-15-10(14)7(11)4-6-2-3-8(12)9(13)5-6/h2-3,5,7,12-13H,4,11H2,1H3/t7-/m0/s1

> <INCHI_KEY>
XBBDACCLCFWBSI-ZETCQYMHSA-N

> <FORMULA>
C10H13NO4

> <MOLECULAR_WEIGHT>
211.217

> <EXACT_MASS>
211.084457903

> <JCHEM_ACCEPTOR_COUNT>
4

> <JCHEM_ATOM_COUNT>
28

> <JCHEM_AVERAGE_POLARIZABILITY>
21.247740029888888

> <JCHEM_BIOAVAILABILITY>
1

> <JCHEM_DONOR_COUNT>
3

> <JCHEM_FORMAL_CHARGE>
0

> <JCHEM_GHOSE_FILTER>
1

> <JCHEM_IUPAC>
methyl (2S)-2-amino-3-(3,4-dihydroxyphenyl)propanoate

> <ALOGPS_LOGP>
-0.20

> <JCHEM_LOGP>
0.6163784656666667

> <ALOGPS_LOGS>
-1.99

> <JCHEM_MDDR_LIKE_RULE>
0

> <JCHEM_NUMBER_OF_RINGS>
1

> <JCHEM_PHYSIOLOGICAL_CHARGE>
1

> <JCHEM_PKA>
12.735157434138372

> <JCHEM_PKA_STRONGEST_ACIDIC>
9.287385164328645

> <JCHEM_PKA_STRONGEST_BASIC>
6.971131532520737

> <JCHEM_POLAR_SURFACE_AREA>
92.78

> <JCHEM_REFRACTIVITY>
53.8472

> <JCHEM_ROTATABLE_BOND_COUNT>
4

> <JCHEM_RULE_OF_FIVE>
1

> <ALOGPS_SOLUBILITY>
2.15e+00 g/l

> <JCHEM_TRADITIONAL_IUPAC>
melevodopa

> <JCHEM_VEBER_RULE>
0

> <DRUGBANK_ID>
DB13313

> <DRUG_GROUPS>
experimental

> <GENERIC_NAME>
Melevodopa

> <SYNONYMS>
Melevodopa

$$$$
