
  Mrv1572004191603122D          

  7  6  0  0  0  0            999 V2000
   -0.4125   -0.7145    0.0000 F   0  0  0  0  0  0  0  0  0  0  0  0
    0.4125    0.7145    0.0000 F   0  0  0  0  0  0  0  0  0  0  0  0
   -0.4125    0.7145    0.0000 F   0  0  0  0  0  0  0  0  0  0  0  0
   -0.8250   -0.0000    0.0000 F   0  0  0  0  0  0  0  0  0  0  0  0
    0.4125   -0.7145    0.0000 F   0  0  0  0  0  0  0  0  0  0  0  0
    0.8250    0.0000    0.0000 F   0  0  0  0  0  0  0  0  0  0  0  0
    0.0000    0.0000    0.0000 S   0  0  0  0  0  0  0  0  0  0  0  0
  7  1  1  0  0  0  0
  7  2  1  0  0  0  0
  7  3  1  0  0  0  0
  7  4  1  0  0  0  0
  7  5  1  0  0  0  0
  7  6  1  0  0  0  0
M  END
> <DATABASE_ID>
DB11104

> <DATABASE_NAME>
drugbank

> <SMILES>
FS(F)(F)(F)(F)F

> <INCHI_IDENTIFIER>
InChI=1S/F6S/c1-7(2,3,4,5)6

> <INCHI_KEY>
SFZCNBIFKDRMGX-UHFFFAOYSA-N

> <FORMULA>
F6S

> <MOLECULAR_WEIGHT>
146.05

> <EXACT_MASS>
145.962490152

> <JCHEM_ACCEPTOR_COUNT>
0

> <JCHEM_ATOM_COUNT>
7

> <JCHEM_AVERAGE_POLARIZABILITY>
7.111278349049226

> <JCHEM_BIOAVAILABILITY>
1

> <JCHEM_DONOR_COUNT>
0

> <JCHEM_FORMAL_CHARGE>
0

> <JCHEM_GHOSE_FILTER>
0

> <JCHEM_IUPAC>
hexafluoro-λ⁶-sulfane

> <JCHEM_LOGP>
2.276488861333333

> <JCHEM_MDDR_LIKE_RULE>
0

> <JCHEM_NUMBER_OF_RINGS>
0

> <JCHEM_PHYSIOLOGICAL_CHARGE>
0

> <JCHEM_POLAR_SURFACE_AREA>
0.0

> <JCHEM_REFRACTIVITY>
18.4416

> <JCHEM_ROTATABLE_BOND_COUNT>
0

> <JCHEM_RULE_OF_FIVE>
1

> <JCHEM_TRADITIONAL_IUPAC>
sulfur hexafluoride

> <JCHEM_VEBER_RULE>
1

> <DRUGBANK_ID>
DB11104

> <DRUG_GROUPS>
approved

> <GENERIC_NAME>
Sulfur hexafluoride

> <SYNONYMS>
hexafluoridosulfur; Sulfur fluoride; Sulfur hexafluoride; sulfur(6+) fluoride; sulfur(VI) fluoride; Sulphur hexafluoride

> <PRODUCTS>
LumaSon; Sonovue

$$$$
