
  Mrv1718012151819242D          

 53 56  0  0  0  0            999 V2000
   -0.3388    0.3145    0.0000 C   0  0  2  0  0  0  0  0  0  0  0  0
    0.3268   -0.0971    0.0000 C   0  0  1  0  0  0  0  0  0  0  0  0
   -1.1733    0.3145    0.0000 O   0  0  0  0  0  0  0  0  0  0  0  0
   -0.3388    1.1369    0.0000 C   0  0  0  0  0  0  0  0  0  0  0  0
    0.2418    0.9225    0.0000 C   0  0  0  0  0  0  0  0  0  0  0  0
    0.3268   -0.9437    0.0000 C   0  0  2  0  0  0  0  0  0  0  0  0
    1.0562    0.2902    0.0000 O   0  0  0  0  0  0  0  0  0  0  0  0
   -1.7660    1.1369    0.0000 C   0  0  0  0  0  0  0  0  0  0  0  0
   -1.0560    1.5516    0.0000 C   0  0  0  0  0  0  0  0  0  0  0  0
   -0.3590   -1.3586    0.0000 C   0  0  2  0  0  0  0  0  0  0  0  0
    1.0439   -1.3464    0.0000 C   0  0  0  0  0  0  0  0  0  0  0  0
    1.7491    0.7051    0.0000 C   0  0  1  0  0  0  0  0  0  0  0  0
   -1.7660    0.3145    0.0000 C   0  0  1  0  0  0  0  0  0  0  0  0
   -1.0560    2.3740    0.0000 C   0  0  0  0  0  0  0  0  0  0  0  0
    0.5442   -1.8227    0.0000 O   0  0  0  0  0  0  0  0  0  0  0  0
   -0.3590   -2.1688    0.0000 C   0  0  2  0  0  0  0  0  0  0  0  0
    1.7491    1.5395    0.0000 C   0  0  1  0  0  0  0  0  0  0  0  0
    2.4712    0.2902    0.0000 O   0  0  0  0  0  0  0  0  0  0  0  0
   -2.5036   -0.1092    0.0000 C   0  0  0  0  0  0  0  0  0  0  0  0
   -2.4712    0.7859    0.0000 C   0  0  0  0  0  0  0  0  0  0  0  0
    1.2978   -2.2174    0.0000 C   0  0  1  0  0  0  0  0  0  0  0  0
   -1.0763   -2.5763    0.0000 C   0  0  0  0  0  0  0  0  0  0  0  0
    0.3024   -2.6006    0.0000 C   0  0  0  0  0  0  0  0  0  0  0  0
    2.4590    1.9714    0.0000 C   0  0  2  0  0  0  0  0  0  0  0  0
    1.0318    1.9228    0.0000 O   0  0  0  0  0  0  0  0  0  0  0  0
    3.1641    0.7051    0.0000 C   0  0  1  0  0  0  0  0  0  0  0  0
   -2.5036   -0.9437    0.0000 C   0  0  1  0  0  0  0  0  0  0  0  0
   -3.2135    0.2902    0.0000 O   0  0  0  0  0  0  0  0  0  0  0  0
    1.2978   -3.0398    0.0000 C   0  0  0  0  0  0  0  0  0  0  0  0
    2.0150   -1.7782    0.0000 O   0  0  0  0  0  0  0  0  0  0  0  0
   -1.7742   -2.1809    0.0000 O   0  0  0  0  0  0  0  0  0  0  0  0
   -1.0763   -3.3987    0.0000 O   0  0  0  0  0  0  0  0  0  0  0  0
    3.1641    1.5638    0.0000 C   0  0  0  0  0  0  0  0  0  0  0  0
    2.4712    2.8180    0.0000 N   0  0  0  0  0  0  0  0  0  0  0  0
    3.8741    0.2780    0.0000 C   0  0  0  0  0  0  0  0  0  0  0  0
   -1.7742   -1.3707    0.0000 C   0  0  2  0  0  0  0  0  0  0  0  0
   -3.1892   -0.5362    0.0000 O   0  0  0  0  0  0  0  0  0  0  0  0
   -3.0477   -1.4151    0.0000 C   0  0  0  0  0  0  0  0  0  0  0  0
    2.0150   -3.4593    0.0000 C   0  0  2  0  0  0  0  0  0  0  0  0
    2.7130   -2.1931    0.0000 C   0  0  2  0  0  0  0  0  0  0  0  0
    3.1762    3.2449    0.0000 C   0  0  0  0  0  0  0  0  0  0  0  0
    1.7491    3.2329    0.0000 C   0  0  0  0  0  0  0  0  0  0  0  0
   -2.5884   -1.7904    0.0000 C   0  0  0  0  0  0  0  0  0  0  0  0
   -3.8944   -0.9558    0.0000 C   0  0  0  0  0  0  0  0  0  0  0  0
    2.7130   -3.0398    0.0000 C   0  0  2  0  0  0  0  0  0  0  0  0
    2.6645   -4.0643    0.0000 O   0  0  0  0  0  0  0  0  0  0  0  0
    1.3666   -4.0643    0.0000 C   0  0  0  0  0  0  0  0  0  0  0  0
    3.4302   -1.7539    0.0000 C   0  0  0  0  0  0  0  0  0  0  0  0
    3.8944    2.8495    0.0000 C   0  0  0  0  0  0  0  0  0  0  0  0
    3.1843    4.0643    0.0000 C   0  0  0  0  0  0  0  0  0  0  0  0
   -2.5884   -2.5643    0.0000 C   0  0  0  0  0  0  0  0  0  0  0  0
    3.4059   -3.4715    0.0000 O   0  0  0  0  0  0  0  0  0  0  0  0
    3.4990   -4.0643    0.0000 C   0  0  0  0  0  0  0  0  0  0  0  0
 22 32  2  0  0  0  0
 24 33  1  0  0  0  0
 24 34  1  1  0  0  0
 26 35  1  1  0  0  0
 27 36  1  0  0  0  0
 27 37  1  0  0  0  0
 27 38  1  6  0  0  0
 29 39  1  0  0  0  0
 30 40  1  0  0  0  0
 34 41  1  0  0  0  0
 34 42  1  0  0  0  0
 36 43  1  1  0  0  0
 37 44  1  0  0  0  0
 39 45  1  0  0  0  0
 39 46  1  0  0  0  0
 39 47  1  1  0  0  0
 40 48  1  1  0  0  0
 41 49  1  0  0  0  0
 41 50  1  0  0  0  0
 43 51  1  0  0  0  0
 45 52  1  6  0  0  0
 46 53  1  0  0  0  0
  8  9  2  0  0  0  0
 26 33  1  0  0  0  0
 31 36  1  0  0  0  0
 40 45  1  0  0  0  0
  1  2  1  0  0  0  0
  1  3  1  0  0  0  0
  1  4  1  0  0  0  0
  1  5  1  1  0  0  0
  2  6  1  0  0  0  0
  2  7  1  6  0  0  0
  3  8  1  0  0  0  0
  4  9  1  0  0  0  0
  6 10  1  0  0  0  0
  6 11  1  1  0  0  0
 12  7  1  1  0  0  0
  8 13  1  0  0  0  0
  9 14  1  0  0  0  0
 10 15  1  1  0  0  0
 10 16  1  0  0  0  0
 12 17  1  0  0  0  0
 12 18  1  0  0  0  0
 13 19  1  0  0  0  0
 13 20  1  6  0  0  0
 21 15  1  6  0  0  0
 16 22  1  0  0  0  0
 16 23  1  1  0  0  0
 17 24  1  0  0  0  0
 17 25  1  6  0  0  0
 18 26  1  0  0  0  0
 19 27  1  0  0  0  0
 19 28  2  0  0  0  0
 21 29  1  0  0  0  0
 21 30  1  0  0  0  0
 22 31  1  0  0  0  0
M  END
> <DATABASE_ID>
DB06587

> <DATABASE_NAME>
drugbank

> <SMILES>
CC[C@H]1OC(=O)[C@H](C)[C@@H](O[C@H]2C[C@@](C)(OC)[C@@H](O)[C@H](C)O2)[C@H](C)[C@@H](O[C@@H]2O[C@H](C)C[C@@H]([C@H]2O)N(C)C(C)C)[C@@]2(C)CC(C)=C(O2)[C@H](C)C(=O)[C@]1(C)OC

> <INCHI_IDENTIFIER>
InChI=1S/C40H69NO12/c1-16-28-40(12,47-15)33(43)23(6)31-21(4)18-39(11,53-31)35(52-37-30(42)27(17-22(5)48-37)41(13)20(2)3)24(7)32(25(8)36(45)50-28)51-29-19-38(10,46-14)34(44)26(9)49-29/h20,22-30,32,34-35,37,42,44H,16-19H2,1-15H3/t22-,23+,24+,25-,26+,27+,28-,29+,30-,32+,34+,35-,37+,38-,39-,40-/m1/s1

> <INCHI_KEY>
BELMMAAWNYFCGF-PZXAHSFZSA-N

> <FORMULA>
C40H69NO12

> <MOLECULAR_WEIGHT>
755.987

> <EXACT_MASS>
755.481976666

> <JCHEM_ACCEPTOR_COUNT>
12

> <JCHEM_ATOM_COUNT>
122

> <JCHEM_AVERAGE_POLARIZABILITY>
83.0917463294009

> <JCHEM_BIOAVAILABILITY>
0

> <JCHEM_DONOR_COUNT>
2

> <JCHEM_FORMAL_CHARGE>
0

> <JCHEM_GHOSE_FILTER>
0

> <JCHEM_IUPAC>
(2S,4R,5R,8R,9S,10S,11R,12R)-5-ethyl-9-{[(2R,4R,5S,6S)-5-hydroxy-4-methoxy-4,6-dimethyloxan-2-yl]oxy}-11-{[(2S,3R,4S,6R)-3-hydroxy-6-methyl-4-[methyl(propan-2-yl)amino]oxan-2-yl]oxy}-4-methoxy-2,4,8,10,12,14-hexamethyl-6,15-dioxabicyclo[10.2.1]pentadec-1(14)-ene-3,7-dione

> <ALOGPS_LOGP>
4.20

> <JCHEM_LOGP>
4.8987471970000005

> <ALOGPS_LOGS>
-4.30

> <JCHEM_MDDR_LIKE_RULE>
1

> <JCHEM_NUMBER_OF_RINGS>
4

> <JCHEM_PHYSIOLOGICAL_CHARGE>
1

> <JCHEM_PKA>
13.263963372817944

> <JCHEM_PKA_STRONGEST_ACIDIC>
12.633328273791903

> <JCHEM_PKA_STRONGEST_BASIC>
9.631354050261457

> <JCHEM_POLAR_SURFACE_AREA>
151.67999999999998

> <JCHEM_REFRACTIVITY>
197.85229999999999

> <JCHEM_ROTATABLE_BOND_COUNT>
9

> <JCHEM_RULE_OF_FIVE>
0

> <ALOGPS_SOLUBILITY>
3.80e-02 g/l

> <JCHEM_TRADITIONAL_IUPAC>
mitemcinal

> <JCHEM_VEBER_RULE>
0

> <DRUGBANK_ID>
DB06587

> <DRUG_GROUPS>
investigational

> <GENERIC_NAME>
Mitemcinal

> <SYNONYMS>
Mitemcinal

> <SALTS>
Mitemcinal fumarate

$$$$
