
  Mrv1652310201623042D          

 31 33  0  0  0  0            999 V2000
   -1.5356   -1.7116    0.0000 C   0  0  0  0  0  0  0  0  0  0  0  0
   -0.8212   -1.2991    0.0000 C   0  0  1  0  0  0  0  0  0  0  0  0
   -0.8212   -0.4741    0.0000 C   0  0  0  0  0  0  0  0  0  0  0  0
   -0.1067   -0.0616    0.0000 C   0  0  0  0  0  0  0  0  0  0  0  0
    0.6078   -0.4741    0.0000 C   0  0  1  0  0  0  0  0  0  0  0  0
    0.6078   -1.2991    0.0000 C   0  0  0  0  0  0  0  0  0  0  0  0
   -0.1067   -1.7116    0.0000 C   0  0  0  0  0  0  0  0  0  0  0  0
    1.3222   -0.0616    0.0000 C   0  0  0  0  0  0  0  0  0  0  0  0
    1.3222    0.7634    0.0000 O   0  0  0  0  0  0  0  0  0  0  0  0
    2.0367   -0.4741    0.0000 N   0  0  0  0  0  0  0  0  0  0  0  0
    2.7512   -0.0616    0.0000 C   0  0  1  0  0  0  0  0  0  0  0  0
    2.7512    0.7634    0.0000 C   0  0  0  0  0  0  0  0  0  0  0  0
    3.4656    1.1759    0.0000 C   0  0  0  0  0  0  0  0  0  0  0  0
    4.1801    0.7634    0.0000 C   0  0  1  0  0  0  0  0  0  0  0  0
    4.1801   -0.0616    0.0000 C   0  0  0  0  0  0  0  0  0  0  0  0
    3.4656   -0.4741    0.0000 C   0  0  0  0  0  0  0  0  0  0  0  0
    4.8946    1.1759    0.0000 O   0  0  0  0  0  0  0  0  0  0  0  0
    2.0367   -1.2991    0.0000 C   0  0  0  0  0  0  0  0  0  0  0  0
    2.7041   -1.7840    0.0000 C   0  0  0  0  0  0  0  0  0  0  0  0
    2.4492   -2.5687    0.0000 S   0  0  0  0  0  0  0  0  0  0  0  0
    1.6242   -2.5687    0.0000 C   0  0  0  0  0  0  0  0  0  0  0  0
    1.3693   -1.7840    0.0000 C   0  0  0  0  0  0  0  0  0  0  0  0
    1.1393   -3.2361    0.0000 C   0  0  0  0  0  0  0  0  0  0  0  0
    0.6544   -3.9035    0.0000 C   0  0  0  0  0  0  0  0  0  0  0  0
    0.1694   -4.5710    0.0000 C   0  0  0  0  0  0  0  0  0  0  0  0
   -0.3155   -5.2384    0.0000 C   0  0  0  0  0  0  0  0  0  0  0  0
   -0.4980   -4.0860    0.0000 C   0  0  0  0  0  0  0  0  0  0  0  0
    0.8369   -5.0559    0.0000 C   0  0  0  0  0  0  0  0  0  0  0  0
    3.4888   -1.5291    0.0000 C   0  0  0  0  0  0  0  0  0  0  0  0
    4.1019   -2.0811    0.0000 O   0  0  0  0  0  0  0  0  0  0  0  0
    3.6603   -0.7221    0.0000 O   0  0  0  0  0  0  0  0  0  0  0  0
  2  1  1  1  0  0  0
  2  3  1  0  0  0  0
  3  4  1  0  0  0  0
  4  5  1  0  0  0  0
  5  6  1  0  0  0  0
  6  7  1  0  0  0  0
  2  7  1  0  0  0  0
  5  8  1  6  0  0  0
  8  9  2  0  0  0  0
  8 10  1  0  0  0  0
 11 10  1  1  0  0  0
 11 12  1  0  0  0  0
 12 13  1  0  0  0  0
 13 14  1  0  0  0  0
 14 15  1  0  0  0  0
 15 16  1  0  0  0  0
 11 16  1  0  0  0  0
 14 17  1  6  0  0  0
 10 18  1  0  0  0  0
 18 19  2  0  0  0  0
 19 20  1  0  0  0  0
 20 21  1  0  0  0  0
 21 22  2  0  0  0  0
 18 22  1  0  0  0  0
 21 23  1  0  0  0  0
 23 24  3  0  0  0  0
 24 25  1  0  0  0  0
 25 26  1  0  0  0  0
 25 27  1  0  0  0  0
 25 28  1  0  0  0  0
 19 29  1  0  0  0  0
 29 30  2  0  0  0  0
 29 31  1  0  0  0  0
M  END
> <DATABASE_ID>
DB11954

> <DATABASE_NAME>
drugbank

> <SMILES>
C[C@H]1CC[C@@H](CC1)C(=O)N([C@H]1CC[C@H](O)CC1)C1=C(SC(=C1)C#CC(C)(C)C)C(O)=O

> <INCHI_IDENTIFIER>
InChI=1S/C25H35NO4S/c1-16-5-7-17(8-6-16)23(28)26(18-9-11-19(27)12-10-18)21-15-20(13-14-25(2,3)4)31-22(21)24(29)30/h15-19,27H,5-12H2,1-4H3,(H,29,30)/t16-,17-,18-,19-

> <INCHI_KEY>
WPMJNLCLKAKMLA-VVPTUSLJSA-N

> <FORMULA>
C25H35NO4S

> <MOLECULAR_WEIGHT>
445.62

> <EXACT_MASS>
445.228679785

> <JCHEM_ACCEPTOR_COUNT>
4

> <JCHEM_ATOM_COUNT>
66

> <JCHEM_AVERAGE_POLARIZABILITY>
50.942333225078954

> <JCHEM_BIOAVAILABILITY>
1

> <JCHEM_DONOR_COUNT>
2

> <JCHEM_FORMAL_CHARGE>
0

> <JCHEM_GHOSE_FILTER>
0

> <JCHEM_IUPAC>
5-(3,3-dimethylbut-1-yn-1-yl)-3-{N-[(1r,4r)-4-hydroxycyclohexyl](1r,4r)-4-methylcyclohexaneamido}thiophene-2-carboxylic acid

> <ALOGPS_LOGP>
3.95

> <JCHEM_LOGP>
5.609899537

> <ALOGPS_LOGS>
-5.00

> <JCHEM_MDDR_LIKE_RULE>
1

> <JCHEM_NUMBER_OF_RINGS>
3

> <JCHEM_PHYSIOLOGICAL_CHARGE>
-1

> <JCHEM_PKA>
15.256503118825332

> <JCHEM_PKA_STRONGEST_ACIDIC>
4.0845892149584015

> <JCHEM_PKA_STRONGEST_BASIC>
-1.4638931172161165

> <JCHEM_POLAR_SURFACE_AREA>
77.84

> <JCHEM_REFRACTIVITY>
120.69939999999998

> <JCHEM_ROTATABLE_BOND_COUNT>
6

> <JCHEM_RULE_OF_FIVE>
0

> <ALOGPS_SOLUBILITY>
4.43e-03 g/l

> <JCHEM_TRADITIONAL_IUPAC>
5-(3,3-dimethylbut-1-yn-1-yl)-3-{N-[(1r,4r)-4-hydroxycyclohexyl](1r,4r)-4-methylcyclohexaneamido}thiophene-2-carboxylic acid

> <JCHEM_VEBER_RULE>
0

> <DRUGBANK_ID>
DB11954

> <DRUG_GROUPS>
investigational

> <GENERIC_NAME>
Lomibuvir

> <SYNONYMS>
Lomibuvir

$$$$
