
  Mrv1909 05201914312D          

 41 44  0  0  0  0            999 V2000
   -4.8879    6.1914    0.0000 C   0  0  0  0  0  0  0  0  0  0  0  0
   -4.9038    5.3666    0.0000 C   0  0  0  0  0  0  0  0  0  0  0  0
   -4.1975    4.9403    0.0000 C   0  0  0  0  0  0  0  0  0  0  0  0
   -4.2134    4.1155    0.0000 C   0  0  0  0  0  0  0  0  0  0  0  0
   -3.5070    3.6893    0.0000 O   0  0  0  0  0  0  0  0  0  0  0  0
   -3.5230    2.8644    0.0000 C   0  0  0  0  0  0  0  0  0  0  0  0
   -2.8166    2.4382    0.0000 N   0  0  0  0  0  0  0  0  0  0  0  0
   -2.8325    1.6134    0.0000 C   0  0  0  0  0  0  0  0  0  0  0  0
   -3.5548    1.2147    0.0000 C   0  0  0  0  0  0  0  0  0  0  0  0
   -3.3989    0.4046    0.0000 N   0  0  0  0  0  0  0  0  0  0  0  0
   -2.5803    0.3025    0.0000 C   0  0  0  0  0  0  0  0  0  0  0  0
   -2.1816   -0.4198    0.0000 O   0  0  0  0  0  0  0  0  0  0  0  0
   -2.2302    1.0496    0.0000 N   0  0  0  0  0  0  0  0  0  0  0  0
   -1.4201    1.2055    0.0000 C   0  0  0  0  0  0  0  0  0  0  0  0
   -1.1500    1.9851    0.0000 C   0  0  0  0  0  0  0  0  0  0  0  0
   -0.3399    2.1410    0.0000 C   0  0  0  0  0  0  0  0  0  0  0  0
    0.2002    1.5173    0.0000 N   0  0  0  0  0  0  0  0  0  0  0  0
    1.0103    1.6732    0.0000 C   0  0  0  0  0  0  0  0  0  0  0  0
    1.5504    1.0496    0.0000 C   0  0  0  0  0  0  0  0  0  0  0  0
    2.3606    1.2055    0.0000 C   0  0  0  0  0  0  0  0  0  0  0  0
    2.9006    0.5819    0.0000 N   0  0  0  0  0  0  0  0  0  0  0  0
    3.7108    0.7378    0.0000 C   0  0  0  0  0  0  0  0  0  0  0  0
    4.2509    0.1141    0.0000 C   0  0  0  0  0  0  0  0  0  0  0  0
    3.9808   -0.6654    0.0000 O   0  0  0  0  0  0  0  0  0  0  0  0
    3.1707   -0.8213    0.0000 C   0  0  0  0  0  0  0  0  0  0  0  0
    2.6306   -0.1977    0.0000 C   0  0  0  0  0  0  0  0  0  0  0  0
   -0.0698    0.7378    0.0000 C   0  0  0  0  0  0  0  0  0  0  0  0
    0.4702    0.1141    0.0000 C   0  0  0  0  0  0  0  0  0  0  0  0
    1.2804    0.2700    0.0000 C   0  0  0  0  0  0  0  0  0  0  0  0
    1.8205   -0.3536    0.0000 C   0  0  0  0  0  0  0  0  0  0  0  0
    1.5504   -1.1331    0.0000 C   0  0  0  0  0  0  0  0  0  0  0  0
    0.7403   -1.2891    0.0000 C   0  0  0  0  0  0  0  0  0  0  0  0
    0.4702   -2.0686    0.0000 C   0  0  0  0  0  0  0  0  0  0  0  0
    1.0103   -2.6923    0.0000 C   0  0  0  0  0  0  0  0  0  0  0  0
    1.8205   -2.5363    0.0000 O   0  0  0  0  0  0  0  0  0  0  0  0
    0.7403   -3.4718    0.0000 O   0  0  0  0  0  0  0  0  0  0  0  0
    1.2804   -4.0954    0.0000 C   0  0  0  0  0  0  0  0  0  0  0  0
    0.2002   -0.6654    0.0000 C   0  0  0  0  0  0  0  0  0  0  0  0
   -4.2612    1.6410    0.0000 C   0  0  0  0  0  0  0  0  0  0  0  0
   -4.9835    1.2423    0.0000 N   0  0  0  0  0  0  0  0  0  0  0  0
   -4.2453    2.4658    0.0000 N   0  0  0  0  0  0  0  0  0  0  0  0
  1  2  1  0  0  0  0
  2  3  1  0  0  0  0
  3  4  1  0  0  0  0
  4  5  1  0  0  0  0
  5  6  1  0  0  0  0
  6  7  2  0  0  0  0
  7  8  1  0  0  0  0
  8  9  2  0  0  0  0
  9 10  1  0  0  0  0
 10 11  1  0  0  0  0
 11 12  2  0  0  0  0
 11 13  1  0  0  0  0
  8 13  1  0  0  0  0
 13 14  1  0  0  0  0
 14 15  1  0  0  0  0
 15 16  1  0  0  0  0
 16 17  1  0  0  0  0
 17 18  1  0  0  0  0
 18 19  1  0  0  0  0
 19 20  1  0  0  0  0
 20 21  1  0  0  0  0
 21 22  1  0  0  0  0
 22 23  1  0  0  0  0
 23 24  1  0  0  0  0
 24 25  1  0  0  0  0
 25 26  1  0  0  0  0
 21 26  1  0  0  0  0
 17 27  1  0  0  0  0
 27 28  1  0  0  0  0
 28 29  2  0  0  0  0
 29 30  1  0  0  0  0
 30 31  2  0  0  0  0
 31 32  1  0  0  0  0
 32 33  1  0  0  0  0
 33 34  1  0  0  0  0
 34 35  2  0  0  0  0
 34 36  1  0  0  0  0
 36 37  1  0  0  0  0
 32 38  2  0  0  0  0
 28 38  1  0  0  0  0
  9 39  1  0  0  0  0
 39 40  1  0  0  0  0
 39 41  2  0  0  0  0
  6 41  1  0  0  0  0
M  END
> <DATABASE_ID>
DB14868

> <DATABASE_NAME>
drugbank

> <SMILES>
CCCCOC1=NC2=C(NC(=O)N2CCCN(CCCN2CCOCC2)CC2=CC=CC(CC(=O)OC)=C2)C(N)=N1

> <INCHI_IDENTIFIER>
InChI=1S/C29H43N7O5/c1-3-4-16-41-28-32-26(30)25-27(33-28)36(29(38)31-25)13-7-12-35(11-6-10-34-14-17-40-18-15-34)21-23-9-5-8-22(19-23)20-24(37)39-2/h5,8-9,19H,3-4,6-7,10-18,20-21H2,1-2H3,(H,31,38)(H2,30,32,33)

> <INCHI_KEY>
FEFIBEHSXLKJGI-UHFFFAOYSA-N

> <FORMULA>
C29H43N7O5

> <MOLECULAR_WEIGHT>
569.707

> <EXACT_MASS>
569.332567513

> <JCHEM_ACCEPTOR_COUNT>
9

> <JCHEM_ATOM_COUNT>
84

> <JCHEM_AVERAGE_POLARIZABILITY>
62.83185083782295

> <JCHEM_BIOAVAILABILITY>
0

> <JCHEM_DONOR_COUNT>
2

> <JCHEM_FORMAL_CHARGE>
0

> <JCHEM_GHOSE_FILTER>
0

> <JCHEM_IUPAC>
methyl 2-[3-({[3-(6-amino-2-butoxy-8-oxo-8,9-dihydro-7H-purin-9-yl)propyl][3-(morpholin-4-yl)propyl]amino}methyl)phenyl]acetate

> <ALOGPS_LOGP>
2.95

> <JCHEM_LOGP>
2.918724797666668

> <ALOGPS_LOGS>
-3.87

> <JCHEM_MDDR_LIKE_RULE>
1

> <JCHEM_NUMBER_OF_RINGS>
4

> <JCHEM_PHYSIOLOGICAL_CHARGE>
1

> <JCHEM_PKA>
19.145278893756053

> <JCHEM_PKA_STRONGEST_ACIDIC>
12.339369095446456

> <JCHEM_PKA_STRONGEST_BASIC>
8.533445070466389

> <JCHEM_POLAR_SURFACE_AREA>
135.38

> <JCHEM_REFRACTIVITY>
160.91799999999998

> <JCHEM_ROTATABLE_BOND_COUNT>
17

> <JCHEM_RULE_OF_FIVE>
0

> <ALOGPS_SOLUBILITY>
7.63e-02 g/l

> <JCHEM_TRADITIONAL_IUPAC>
(2R)-14-fluoro-2-methyl-6,9,10,19-tetraazapentacyclo[14.2.1.0^{2,6}.0^{8,18}.0^{12,17}]nonadeca-1(18),8,12(17),13,15-pentaen-11-one

> <JCHEM_VEBER_RULE>
0

> <DRUGBANK_ID>
DB14868

> <DRUG_GROUPS>
investigational

> <GENERIC_NAME>
AZD-8848

$$$$
