
  Mrv1909 12152018132D          

 10  9  0  0  1  0            999 V2000
   -0.1914    0.7145    0.0000 C   0  0  0  0  0  0  0  0  0  0  0  0
    0.5230    1.1270    0.0000 N   0  0  0  0  0  0  0  0  0  0  0  0
    1.2375    0.7145    0.0000 C   0  0  2  0  0  0  0  0  0  0  0  0
    1.2375   -0.1105    0.0000 C   0  0  0  0  0  0  0  0  0  0  0  0
    1.9520    1.1270    0.0000 C   0  0  0  0  0  0  0  0  0  0  0  0
    2.6664    0.7145    0.0000 C   0  0  0  0  0  0  0  0  0  0  0  0
    3.3809    1.1270    0.0000 C   0  0  0  0  0  0  0  0  0  0  0  0
    4.0954    0.7145    0.0000 C   0  0  0  0  0  0  0  0  0  0  0  0
    4.8099    1.1270    0.0000 C   0  0  0  0  0  0  0  0  0  0  0  0
    4.0954   -0.1105    0.0000 C   0  0  0  0  0  0  0  0  0  0  0  0
  1  2  1  0  0  0  0
  3  2  1  0  0  0  0
  3  4  1  1  0  0  0
  3  5  1  0  0  0  0
  5  6  1  0  0  0  0
  6  7  1  0  0  0  0
  7  8  2  0  0  0  0
  8  9  1  0  0  0  0
  8 10  1  0  0  0  0
M  END
> <DATABASE_ID>
DB16136

> <DATABASE_NAME>
drugbank

> <SMILES>
CN[C@H](C)CCC=C(C)C

> <INCHI_IDENTIFIER>
InChI=1S/C9H19N/c1-8(2)6-5-7-9(3)10-4/h6,9-10H,5,7H2,1-4H3/t9-/m1/s1

> <INCHI_KEY>
XVQUOJBERHHONY-SECBINFHSA-N

> <FORMULA>
C9H19N

> <MOLECULAR_WEIGHT>
141.258

> <EXACT_MASS>
141.151749616

> <JCHEM_ACCEPTOR_COUNT>
1

> <JCHEM_ATOM_COUNT>
29

> <JCHEM_AVERAGE_NEUTRAL_MICROSPECIES_CHARGE>
0.9997838845331967

> <JCHEM_AVERAGE_POLARIZABILITY>
18.47214807797547

> <JCHEM_BIOAVAILABILITY>
1

> <JCHEM_DONOR_COUNT>
1

> <JCHEM_FORMAL_CHARGE>
0

> <JCHEM_GHOSE_FILTER>
0

> <JCHEM_IUPAC>
methyl[(2R)-6-methylhept-5-en-2-yl]amine

> <ALOGPS_LOGP>
2.07

> <JCHEM_LOGP>
2.3181725126666666

> <ALOGPS_LOGS>
-1.66

> <JCHEM_MDDR_LIKE_RULE>
0

> <JCHEM_NEUTRAL_CHARGE>
1

> <JCHEM_NUMBER_OF_RINGS>
0

> <JCHEM_PHYSIOLOGICAL_CHARGE>
1

> <JCHEM_PKA_STRONGEST_BASIC>
10.665220282817

> <JCHEM_POLAR_SURFACE_AREA>
12.03

> <JCHEM_REFRACTIVITY>
47.5864

> <JCHEM_ROTATABLE_BOND_COUNT>
4

> <JCHEM_RULE_OF_FIVE>
1

> <ALOGPS_SOLUBILITY>
3.06e+00 g/l

> <JCHEM_TRADITIONAL_IUPAC>
2-methoxy-4-[(1E)-3-[4-(nitrooxy)butoxy]-3-oxoprop-1-en-1-yl]phenyl (4R)-4-[(1R,3aS,3bR,4S,5aS,7R,9aS,9bS,11aR)-4,7-dihydroxy-9a,11a-dimethyl-tetradecahydro-1H-cyclopenta[a]phenanthren-1-yl]pentanoate

> <JCHEM_VEBER_RULE>
1

> <DRUGBANK_ID>
DB16136

> <DRUG_GROUPS>
investigational

> <GENERIC_NAME>
Dexisometheptene mucate

> <SYNONYMS>
(R)-isometheptene; Dexisometheptene; Isometheptene, (r)-

$$$$
