
  Mrv1909 02102020202D          

 48 52  0  0  0  0            999 V2000
    3.5445    0.5394    0.0000 N   0  0  0  0  0  0  0  0  0  0  0  0
    4.3291    0.7944    0.0000 C   0  0  0  0  0  0  0  0  0  0  0  0
    3.2896   -0.2451    0.0000 C   0  0  2  0  0  0  0  0  0  0  0  0
    3.0596    1.2069    0.0000 C   0  0  0  0  0  0  0  0  0  0  0  0
    4.3291    1.6194    0.0000 C   0  0  0  0  0  0  0  0  0  0  0  0
    5.0436    0.3818    0.0000 N   0  0  0  0  0  0  0  0  0  0  0  0
    2.5049   -0.5000    0.0000 O   0  0  0  0  0  0  0  0  0  0  0  0
    3.7745   -0.9126    0.0000 C   0  0  1  0  0  0  0  0  0  0  0  0
    3.5445    1.8744    0.0000 N   0  0  0  0  0  0  0  0  0  0  0  0
    5.0436    2.0319    0.0000 C   0  0  0  0  0  0  0  0  0  0  0  0
    5.7581    0.7944    0.0000 C   0  0  0  0  0  0  0  0  0  0  0  0
    2.5049   -1.3251    0.0000 C   0  0  1  0  0  0  0  0  0  0  0  0
    3.2896   -1.5799    0.0000 C   0  0  1  0  0  0  0  0  0  0  0  0
    5.7581    1.6194    0.0000 N   0  0  0  0  0  0  0  0  0  0  0  0
    5.0436    2.8569    0.0000 N   0  0  0  0  0  0  0  0  0  0  0  0
    1.8375   -1.8100    0.0000 C   0  0  0  0  0  0  0  0  0  0  0  0
    3.5445   -2.3645    0.0000 O   0  0  0  0  0  0  0  0  0  0  0  0
    1.0838   -1.4744    0.0000 O   0  0  0  0  0  0  0  0  0  0  0  0
   -1.7739   -1.4746    0.0000 O   0  0  0  0  0  0  0  0  0  0  0  0
   -2.4414   -1.9595    0.0000 C   0  0  0  0  0  0  0  0  0  0  0  0
   -3.1950   -1.6238    0.0000 C   0  0  1  0  0  0  0  0  0  0  0  0
   -3.3666   -0.8169    0.0000 O   0  0  0  0  0  0  0  0  0  0  0  0
   -3.9095   -2.0364    0.0000 C   0  0  2  0  0  0  0  0  0  0  0  0
   -4.1870   -0.7307    0.0000 C   0  0  2  0  0  0  0  0  0  0  0  0
   -4.5226   -1.4844    0.0000 C   0  0  2  0  0  0  0  0  0  0  0  0
   -3.9957   -2.8569    0.0000 O   0  0  0  0  0  0  0  0  0  0  0  0
   -4.5995   -0.0162    0.0000 N   0  0  0  0  0  0  0  0  0  0  0  0
   -5.3296   -1.6559    0.0000 O   0  0  0  0  0  0  0  0  0  0  0  0
   -4.1870    0.6982    0.0000 C   0  0  0  0  0  0  0  0  0  0  0  0
   -5.4245   -0.0162    0.0000 C   0  0  0  0  0  0  0  0  0  0  0  0
   -4.5995    1.4126    0.0000 C   0  0  0  0  0  0  0  0  0  0  0  0
   -5.8370    0.6982    0.0000 C   0  0  0  0  0  0  0  0  0  0  0  0
   -5.4245    1.4126    0.0000 C   0  0  0  0  0  0  0  0  0  0  0  0
   -4.1870    2.1272    0.0000 C   0  0  0  0  0  0  0  0  0  0  0  0
   -4.5995    2.8415    0.0000 O   0  0  0  0  0  0  0  0  0  0  0  0
   -3.3620    2.1272    0.0000 N   0  0  0  0  0  0  0  0  0  0  0  0
   -0.3450   -1.4745    0.0000 O   0  0  0  0  0  0  0  0  0  0  0  0
    0.3694   -2.7119    0.0000 O   0  0  0  0  0  0  0  0  0  0  0  0
   -1.0594   -2.7119    0.0000 O   0  0  0  0  0  0  0  0  0  0  0  0
   -1.0594   -1.8870    0.0000 P   0  0  0  0  0  0  0  0  0  0  0  0
   -1.0595   -1.0621    0.0000 O   0  0  0  0  0  0  0  0  0  0  0  0
    0.3694   -1.8870    0.0000 P   0  0  0  0  0  0  0  0  0  0  0  0
    0.3693   -1.0620    0.0000 O   0  0  0  0  0  0  0  0  0  0  0  0
    4.5995   -0.9126    0.0000 O   0  0  0  0  0  0  0  0  0  0  0  0
    4.5995   -2.3415    0.0000 O   0  0  0  0  0  0  0  0  0  0  0  0
    5.8370   -1.6271    0.0000 O   0  0  0  0  0  0  0  0  0  0  0  0
    5.0120   -1.6271    0.0000 P   0  0  0  0  0  0  0  0  0  0  0  0
    5.4245   -2.3415    0.0000 O   0  0  0  0  0  0  0  0  0  0  0  0
  1  2  1  0  0  0  0
  3  1  1  1  0  0  0
  1  4  1  0  0  0  0
  2  5  2  0  0  0  0
  2  6  1  0  0  0  0
  3  7  1  0  0  0  0
  3  8  1  0  0  0  0
  4  9  2  0  0  0  0
  5 10  1  0  0  0  0
  6 11  2  0  0  0  0
  7 12  1  0  0  0  0
  8 13  1  0  0  0  0
  8 44  1  6  0  0  0
 10 14  2  0  0  0  0
 10 15  1  0  0  0  0
 12 16  1  1  0  0  0
 13 17  1  6  0  0  0
 16 18  1  0  0  0  0
 19 20  1  0  0  0  0
 21 20  1  6  0  0  0
 21 22  1  0  0  0  0
 21 23  1  0  0  0  0
 22 24  1  0  0  0  0
 23 25  1  0  0  0  0
 23 26  1  1  0  0  0
 24 27  1  6  0  0  0
 25 28  1  1  0  0  0
 27 29  1  0  0  0  0
 27 30  1  0  0  0  0
 29 31  2  0  0  0  0
 30 32  2  0  0  0  0
 31 33  1  0  0  0  0
 31 34  1  0  0  0  0
 34 35  2  0  0  0  0
 34 36  1  0  0  0  0
  5  9  1  0  0  0  0
 11 14  1  0  0  0  0
 12 13  1  0  0  0  0
 24 25  1  0  0  0  0
 32 33  1  0  0  0  0
 18 42  1  0  0  0  0
 42 37  1  0  0  0  0
 37 40  1  0  0  0  0
 42 38  2  0  0  0  0
 40 19  1  0  0  0  0
 40 39  2  0  0  0  0
 40 41  1  0  0  0  0
 42 43  1  0  0  0  0
 44 47  1  0  0  0  0
 47 45  2  0  0  0  0
 47 46  1  0  0  0  0
 47 48  1  0  0  0  0
M  END
> <DATABASE_ID>
DB02338

> <DATABASE_NAME>
drugbank

> <SMILES>
NC(=O)C1=CN(C=CC1)[C@@H]1O[C@H](COP(O)(=O)OP(O)(=O)OC[C@H]2O[C@H]([C@H](OP(O)(O)=O)[C@@H]2O)N2C=NC3=C2N=CN=C3N)[C@@H](O)[C@H]1O

> <INCHI_IDENTIFIER>
InChI=1S/C21H30N7O17P3/c22-17-12-19(25-7-24-17)28(8-26-12)21-16(44-46(33,34)35)14(30)11(43-21)6-41-48(38,39)45-47(36,37)40-5-10-13(29)15(31)20(42-10)27-3-1-2-9(4-27)18(23)32/h1,3-4,7-8,10-11,13-16,20-21,29-31H,2,5-6H2,(H2,23,32)(H,36,37)(H,38,39)(H2,22,24,25)(H2,33,34,35)/t10-,11-,13-,14-,15-,16-,20-,21-/m1/s1

> <INCHI_KEY>
ACFIXJIJDZMPPO-NNYOXOHSSA-N

> <FORMULA>
C21H30N7O17P3

> <MOLECULAR_WEIGHT>
745.4209

> <EXACT_MASS>
745.091102105

> <JCHEM_ACCEPTOR_COUNT>
18

> <JCHEM_ATOM_COUNT>
78

> <JCHEM_AVERAGE_NEUTRAL_MICROSPECIES_CHARGE>
2.068525387112593

> <JCHEM_AVERAGE_POLARIZABILITY>
63.542294008111696

> <JCHEM_BIOAVAILABILITY>
0

> <JCHEM_DONOR_COUNT>
9

> <JCHEM_FORMAL_CHARGE>
0

> <JCHEM_GHOSE_FILTER>
0

> <JCHEM_IUPAC>
{[(2R,3R,4R,5R)-2-(6-amino-9H-purin-9-yl)-5-[({[({[(2R,3S,4R,5R)-5-(3-carbamoyl-1,4-dihydropyridin-1-yl)-3,4-dihydroxyoxolan-2-yl]methoxy}(hydroxy)phosphoryl)oxy](hydroxy)phosphoryl}oxy)methyl]-4-hydroxyoxolan-3-yl]oxy}phosphonic acid

> <ALOGPS_LOGP>
-1.13

> <JCHEM_LOGP>
-6.588738559487985

> <ALOGPS_LOGS>
-2.14

> <JCHEM_MDDR_LIKE_RULE>
1

> <JCHEM_NEUTRAL_CHARGE>
-4

> <JCHEM_NUMBER_OF_RINGS>
5

> <JCHEM_PHYSIOLOGICAL_CHARGE>
-4

> <JCHEM_PKA>
0.9022836228701442

> <JCHEM_PKA_STRONGEST_ACIDIC>
0.6629260683535513

> <JCHEM_PKA_STRONGEST_BASIC>
4.866344490168525

> <JCHEM_POLAR_SURFACE_AREA>
364.1500000000001

> <JCHEM_REFRACTIVITY>
153.8726

> <JCHEM_ROTATABLE_BOND_COUNT>
13

> <JCHEM_RULE_OF_FIVE>
0

> <ALOGPS_SOLUBILITY>
5.45e+00 g/l

> <JCHEM_TRADITIONAL_IUPAC>
nadph

> <JCHEM_VEBER_RULE>
0

> <DRUGBANK_ID>
DB02338

> <SECONDARY_ACCESSION_NUMBERS>
EXPT02321

> <DRUG_GROUPS>
experimental

> <GENERIC_NAME>
NADPH

> <SYNONYMS>
Dihydronicotinamide-adenine dinucleotide phosphate; Reduced nicotinamide adenine dinucleotide phosphate; TPNH

$$$$
