
  Mrv1533004251513322D          

 17 19  0  0  0  0            999 V2000
    2.1434   -3.7125    0.0000 O   0  0  0  0  0  0  0  0  0  0  0  0
    2.1434   -2.8875    0.0000 C   0  0  0  0  0  0  0  0  0  0  0  0
    1.4289   -2.4750    0.0000 C   0  0  0  0  0  0  0  0  0  0  0  0
    1.4289   -1.6500    0.0000 C   0  0  0  0  0  0  0  0  0  0  0  0
    2.1434   -1.2375    0.0000 C   0  0  0  0  0  0  0  0  0  0  0  0
    2.8579   -1.6500    0.0000 C   0  0  0  0  0  0  0  0  0  0  0  0
    3.5724   -1.2375    0.0000 C   0  0  0  0  0  0  0  0  0  0  0  0
    4.2868   -1.6500    0.0000 C   0  0  0  0  0  0  0  0  0  0  0  0
    5.0013   -1.2375    0.0000 C   0  0  0  0  0  0  0  0  0  0  0  0
    5.7158   -1.6500    0.0000 C   0  0  0  0  0  0  0  0  0  0  0  0
    5.7158   -2.4750    0.0000 C   0  0  0  0  0  0  0  0  0  0  0  0
    5.0013   -2.8875    0.0000 C   0  0  0  0  0  0  0  0  0  0  0  0
    5.0013   -3.7125    0.0000 O   0  0  0  0  0  0  0  0  0  0  0  0
    4.2868   -2.4750    0.0000 C   0  0  0  0  0  0  0  0  0  0  0  0
    3.5724   -2.8875    0.0000 C   0  0  0  0  0  0  0  0  0  0  0  0
    3.5724   -3.7125    0.0000 O   0  0  0  0  0  0  0  0  0  0  0  0
    2.8579   -2.4750    0.0000 C   0  0  0  0  0  0  0  0  0  0  0  0
  1  2  1  0  0  0  0
  2  3  2  0  0  0  0
  3  4  1  0  0  0  0
  4  5  2  0  0  0  0
  5  6  1  0  0  0  0
  6  7  1  0  0  0  0
  7  8  1  0  0  0  0
  8  9  2  0  0  0  0
  9 10  1  0  0  0  0
 10 11  2  0  0  0  0
 11 12  1  0  0  0  0
 12 13  1  0  0  0  0
 12 14  2  0  0  0  0
  8 14  1  0  0  0  0
 14 15  1  0  0  0  0
 15 16  2  0  0  0  0
 15 17  1  0  0  0  0
  2 17  1  0  0  0  0
  6 17  2  0  0  0  0
M  END
> <DATABASE_ID>
DB11157

> <DATABASE_NAME>
drugbank

> <SMILES>
OC1=CC=CC2=C1C(=O)C1=C(O)C=CC=C1C2

> <INCHI_IDENTIFIER>
InChI=1S/C14H10O3/c15-10-5-1-3-8-7-9-4-2-6-11(16)13(9)14(17)12(8)10/h1-6,15-16H,7H2

> <INCHI_KEY>
NUZWLKWWNNJHPT-UHFFFAOYSA-N

> <FORMULA>
C14H10O3

> <MOLECULAR_WEIGHT>
226.231

> <EXACT_MASS>
226.062994182

> <JCHEM_ACCEPTOR_COUNT>
3

> <JCHEM_ATOM_COUNT>
27

> <JCHEM_AVERAGE_POLARIZABILITY>
23.12178471239394

> <JCHEM_BIOAVAILABILITY>
1

> <JCHEM_DONOR_COUNT>
2

> <JCHEM_FORMAL_CHARGE>
0

> <JCHEM_GHOSE_FILTER>
1

> <JCHEM_IUPAC>
1,8-dihydroxy-9,10-dihydroanthracen-9-one

> <ALOGPS_LOGP>
2.73

> <JCHEM_LOGP>
4.2440164209999995

> <ALOGPS_LOGS>
-3.09

> <JCHEM_MDDR_LIKE_RULE>
0

> <JCHEM_NUMBER_OF_RINGS>
3

> <JCHEM_PHYSIOLOGICAL_CHARGE>
0

> <JCHEM_PKA>
9.116311869440775

> <JCHEM_PKA_STRONGEST_ACIDIC>
8.46973376480972

> <JCHEM_PKA_STRONGEST_BASIC>
-5.615257650588583

> <JCHEM_POLAR_SURFACE_AREA>
57.53

> <JCHEM_REFRACTIVITY>
64.2745

> <JCHEM_ROTATABLE_BOND_COUNT>
0

> <JCHEM_RULE_OF_FIVE>
1

> <ALOGPS_SOLUBILITY>
1.84e-01 g/l

> <JCHEM_TRADITIONAL_IUPAC>
anthralin

> <JCHEM_VEBER_RULE>
0

> <DRUGBANK_ID>
DB11157

> <DRUG_GROUPS>
approved

> <GENERIC_NAME>
Anthralin

> <SYNONYMS>
Anthralin; Dithranol; Ditranol

> <PRODUCTS>
Anthraforte 1 Ointment 1%; Anthraforte 2 Ointment 2%; Anthranol Cream 0.1%; Anthranol Cream 0.2%; Anthranol Cream 0.4%; Anthrascalp Lotion 0.4%; Dritho-creme Hp; Micanol 3% Cream; Micanol Cream; Zithranol; Zithranol-RR

$$$$
