
  Mrv1533004241521032D          

 14 15  0  0  0  0            999 V2000
    0.3020   -2.5070    0.0000 C   0  0  0  0  0  0  0  0  0  0  0  0
    0.0470   -1.7224    0.0000 C   0  0  0  0  0  0  0  0  0  0  0  0
    0.7145   -1.2375    0.0000 C   0  0  0  0  0  0  0  0  0  0  0  0
    1.3819   -1.7224    0.0000 O   0  0  0  0  0  0  0  0  0  0  0  0
    1.1270   -2.5070    0.0000 C   0  0  0  0  0  0  0  0  0  0  0  0
    0.7145   -0.4125    0.0000 N   0  0  0  0  0  0  0  0  0  0  0  0
    0.0000    0.0000    0.0000 C   0  0  0  0  0  0  0  0  0  0  0  0
    0.0000    0.8250    0.0000 C   0  0  0  0  0  0  0  0  0  0  0  0
    0.7145    1.2375    0.0000 C   0  0  0  0  0  0  0  0  0  0  0  0
    0.7145    2.0625    0.0000 O   0  0  0  0  0  0  0  0  0  0  0  0
    1.4289    0.8250    0.0000 N   0  0  0  0  0  0  0  0  0  0  0  0
    1.4289    0.0000    0.0000 C   0  0  0  0  0  0  0  0  0  0  0  0
    2.1434   -0.4125    0.0000 O   0  0  0  0  0  0  0  0  0  0  0  0
   -0.7145    1.2375    0.0000 F   0  0  0  0  0  0  0  0  0  0  0  0
  1  2  1  0  0  0  0
  2  3  1  0  0  0  0
  3  4  1  0  0  0  0
  4  5  1  0  0  0  0
  1  5  1  0  0  0  0
  3  6  1  0  0  0  0
  6  7  1  0  0  0  0
  7  8  2  0  0  0  0
  8  9  1  0  0  0  0
  9 10  2  0  0  0  0
  9 11  1  0  0  0  0
 11 12  1  0  0  0  0
  6 12  1  0  0  0  0
 12 13  2  0  0  0  0
  8 14  1  0  0  0  0
M  END
> <DATABASE_ID>
DB09256

> <DATABASE_NAME>
drugbank

> <SMILES>
FC1=CN(C2CCCO2)C(=O)NC1=O

> <INCHI_IDENTIFIER>
InChI=1S/C8H9FN2O3/c9-5-4-11(6-2-1-3-14-6)8(13)10-7(5)12/h4,6H,1-3H2,(H,10,12,13)

> <INCHI_KEY>
WFWLQNSHRPWKFK-UHFFFAOYSA-N

> <FORMULA>
C8H9FN2O3

> <MOLECULAR_WEIGHT>
200.169

> <EXACT_MASS>
200.059720321

> <JCHEM_ACCEPTOR_COUNT>
3

> <JCHEM_ATOM_COUNT>
23

> <JCHEM_AVERAGE_POLARIZABILITY>
17.52480574484032

> <JCHEM_BIOAVAILABILITY>
1

> <JCHEM_DONOR_COUNT>
1

> <JCHEM_FORMAL_CHARGE>
0

> <JCHEM_GHOSE_FILTER>
1

> <JCHEM_IUPAC>
5-fluoro-1-(oxolan-2-yl)-1,2,3,4-tetrahydropyrimidine-2,4-dione

> <ALOGPS_LOGP>
-0.09

> <JCHEM_LOGP>
0.023826538333333702

> <ALOGPS_LOGS>
-1.16

> <JCHEM_MDDR_LIKE_RULE>
0

> <JCHEM_NUMBER_OF_RINGS>
2

> <JCHEM_PHYSIOLOGICAL_CHARGE>
0

> <JCHEM_PKA_STRONGEST_ACIDIC>
8.078830885976586

> <JCHEM_PKA_STRONGEST_BASIC>
-4.251792191433699

> <JCHEM_POLAR_SURFACE_AREA>
58.64

> <JCHEM_REFRACTIVITY>
44.501400000000004

> <JCHEM_ROTATABLE_BOND_COUNT>
1

> <JCHEM_RULE_OF_FIVE>
1

> <ALOGPS_SOLUBILITY>
1.40e+01 g/l

> <JCHEM_TRADITIONAL_IUPAC>
tegafur

> <JCHEM_VEBER_RULE>
0

> <DRUGBANK_ID>
DB09256

> <DRUG_GROUPS>
approved; investigational

> <GENERIC_NAME>
Tegafur

> <SYNONYMS>
1-(2-Tetrahydrofuryl)-5-fluorouracil; Tegafur

> <PRODUCTS>
Teysuno

> <INTERNATIONAL_BRANDS>
Ai Yi; ESUEEW AN T; Fimer; Ftorafur; Furil; Futraful; Icarus; Lunacin; NKS-1 T; Qi Xing; S-1; Sterozine; Tefudex; Tegacin; Tegracil; Teroful; TS-1; TS-ONE; UFT; Ufur; Unitoral; Utefos

$$$$
