
  Mrv1718007121817432D          

  1  0  0  0  0  0            999 V2000
    0.0000    0.0000    0.0000 Cl  0  5  0  0  0  0  0  0  0  0  0  0
M  CHG  1   1  -1
M  END
> <DATABASE_ID>
DB14547

> <DATABASE_NAME>
drugbank

> <SMILES>
[Cl-]

> <INCHI_IDENTIFIER>
InChI=1S/ClH/h1H/p-1

> <INCHI_KEY>
VEXZGXHMUGYJMC-UHFFFAOYSA-M

> <FORMULA>
Cl

> <MOLECULAR_WEIGHT>
35.453

> <EXACT_MASS>
34.968852707

> <JCHEM_ACCEPTOR_COUNT>
0

> <JCHEM_ATOM_COUNT>
1

> <JCHEM_AVERAGE_POLARIZABILITY>
2.3881688999999993

> <JCHEM_BIOAVAILABILITY>
1

> <JCHEM_DONOR_COUNT>
0

> <JCHEM_FORMAL_CHARGE>
-1

> <JCHEM_GHOSE_FILTER>
0

> <JCHEM_IUPAC>
chloride

> <JCHEM_LOGP>
0.6123387216666667

> <JCHEM_MDDR_LIKE_RULE>
0

> <JCHEM_NUMBER_OF_RINGS>
0

> <JCHEM_PHYSIOLOGICAL_CHARGE>
-1

> <JCHEM_PKA_STRONGEST_ACIDIC>
-7.000000000000001

> <JCHEM_POLAR_SURFACE_AREA>
0.0

> <JCHEM_REFRACTIVITY>
5.6156

> <JCHEM_ROTATABLE_BOND_COUNT>
0

> <JCHEM_RULE_OF_FIVE>
1

> <JCHEM_TRADITIONAL_IUPAC>
chloride

> <JCHEM_VEBER_RULE>
1

> <DRUGBANK_ID>
DB14547

> <DRUG_GROUPS>
experimental

> <GENERIC_NAME>
Chloride ion

> <SYNONYMS>
Chloride; Chloride (ion); Chloride ions; Chloride(1-); Chlorine anion

> <PRODUCTS>
Rurina; Telom-X-gene

$$$$
