
  Mrv1909 05201914452D          

 40 43  0  0  1  0            999 V2000
    5.2703  -10.2896    0.0000 C   0  0  0  0  0  0  0  0  0  0  0  0
    6.0907  -10.2033    0.0000 C   0  0  2  0  0  0  0  0  0  0  0  0
    6.4263   -9.4496    0.0000 N   0  0  0  0  0  0  0  0  0  0  0  0
    5.9414   -8.7822    0.0000 P   0  0  0  0  0  0  0  0  0  0  0  0
    6.6088   -8.2973    0.0000 O   0  0  0  0  0  0  0  0  0  0  0  0
    5.4565   -8.1148    0.0000 O   0  0  0  0  0  0  0  0  0  0  0  0
    5.7920   -7.3611    0.0000 C   0  0  0  0  0  0  0  0  0  0  0  0
    5.3071   -6.6937    0.0000 C   0  0  1  0  0  0  0  0  0  0  0  0
    4.4821   -6.6937    0.0000 O   0  0  0  0  0  0  0  0  0  0  0  0
    4.2272   -5.9090    0.0000 C   0  0  1  0  0  0  0  0  0  0  0  0
    3.4425   -5.6541    0.0000 N   0  0  0  0  0  0  0  0  0  0  0  0
    2.8294   -6.2061    0.0000 C   0  0  0  0  0  0  0  0  0  0  0  0
    2.0448   -5.9512    0.0000 C   0  0  0  0  0  0  0  0  0  0  0  0
    1.8733   -5.1442    0.0000 C   0  0  0  0  0  0  0  0  0  0  0  0
    1.0887   -4.8893    0.0000 N   0  0  0  0  0  0  0  0  0  0  0  0
    2.4864   -4.5922    0.0000 N   0  0  0  0  0  0  0  0  0  0  0  0
    3.2710   -4.8471    0.0000 C   0  0  0  0  0  0  0  0  0  0  0  0
    3.8841   -4.2951    0.0000 O   0  0  0  0  0  0  0  0  0  0  0  0
    4.8946   -5.4241    0.0000 C   0  0  0  0  0  0  0  0  0  0  0  0
    4.3426   -4.8110    0.0000 F   0  0  0  0  0  0  0  0  0  0  0  0
    5.4466   -4.8110    0.0000 F   0  0  0  0  0  0  0  0  0  0  0  0
    5.5620   -5.9090    0.0000 C   0  0  2  0  0  0  0  0  0  0  0  0
    6.3467   -5.6541    0.0000 O   0  0  0  0  0  0  0  0  0  0  0  0
    5.2739   -9.2671    0.0000 O   0  0  0  0  0  0  0  0  0  0  0  0
    4.5203   -8.9316    0.0000 C   0  0  0  0  0  0  0  0  0  0  0  0
    3.8528   -9.4165    0.0000 C   0  0  0  0  0  0  0  0  0  0  0  0
    3.0992   -9.0809    0.0000 C   0  0  0  0  0  0  0  0  0  0  0  0
    3.0129   -8.2605    0.0000 C   0  0  0  0  0  0  0  0  0  0  0  0
    3.6804   -7.7755    0.0000 C   0  0  0  0  0  0  0  0  0  0  0  0
    4.4340   -8.1111    0.0000 C   0  0  0  0  0  0  0  0  0  0  0  0
    6.5757  -10.8708    0.0000 C   0  0  0  0  0  0  0  0  0  0  0  0
    7.3961  -10.7845    0.0000 O   0  0  0  0  0  0  0  0  0  0  0  0
    6.2401  -11.6244    0.0000 O   0  0  0  0  0  0  0  0  0  0  0  0
    6.7250  -12.2919    0.0000 C   0  0  0  0  0  0  0  0  0  0  0  0
    6.3895  -13.0455    0.0000 C   0  0  0  0  0  0  0  0  0  0  0  0
    6.8744  -13.7130    0.0000 C   0  0  0  0  0  0  0  0  0  0  0  0
    6.5388  -14.4667    0.0000 C   0  0  0  0  0  0  0  0  0  0  0  0
    5.7184  -14.5529    0.0000 C   0  0  0  0  0  0  0  0  0  0  0  0
    5.2334  -13.8855    0.0000 C   0  0  0  0  0  0  0  0  0  0  0  0
    5.5690  -13.1318    0.0000 C   0  0  0  0  0  0  0  0  0  0  0  0
  2  1  1  6  0  0  0
  2  3  1  0  0  0  0
  3  4  1  0  0  0  0
  4  5  2  0  0  0  0
  4  6  1  0  0  0  0
  6  7  1  0  0  0  0
  8  7  1  1  0  0  0
  8  9  1  0  0  0  0
 10  9  1  0  0  0  0
 10 11  1  1  0  0  0
 11 12  1  0  0  0  0
 12 13  2  0  0  0  0
 13 14  1  0  0  0  0
 14 15  1  0  0  0  0
 14 16  2  0  0  0  0
 16 17  1  0  0  0  0
 11 17  1  0  0  0  0
 17 18  2  0  0  0  0
 10 19  1  0  0  0  0
 19 20  1  0  0  0  0
 19 21  1  0  0  0  0
 22 19  1  0  0  0  0
  8 22  1  0  0  0  0
 22 23  1  6  0  0  0
  4 24  1  0  0  0  0
 24 25  1  0  0  0  0
 25 26  2  0  0  0  0
 26 27  1  0  0  0  0
 27 28  2  0  0  0  0
 28 29  1  0  0  0  0
 29 30  2  0  0  0  0
 25 30  1  0  0  0  0
  2 31  1  0  0  0  0
 31 32  2  0  0  0  0
 31 33  1  0  0  0  0
 33 34  1  0  0  0  0
 34 35  1  0  0  0  0
 35 36  2  0  0  0  0
 36 37  1  0  0  0  0
 37 38  2  0  0  0  0
 38 39  1  0  0  0  0
 39 40  2  0  0  0  0
 35 40  1  0  0  0  0
M  END
> <DATABASE_ID>
DB15057

> <DATABASE_NAME>
drugbank

> <SMILES>
C[C@H](NP(=O)(OC[C@H]1O[C@@H](N2C=CC(N)=NC2=O)C(F)(F)[C@@H]1O)OC1=CC=CC=C1)C(=O)OCC1=CC=CC=C1

> <INCHI_IDENTIFIER>
InChI=1S/C25H27F2N4O8P/c1-16(22(33)36-14-17-8-4-2-5-9-17)30-40(35,39-18-10-6-3-7-11-18)37-15-19-21(32)25(26,27)23(38-19)31-13-12-20(28)29-24(31)34/h2-13,16,19,21,23,32H,14-15H2,1H3,(H,30,35)(H2,28,29,34)/t16-,19+,21+,23+,40?/m0/s1

> <INCHI_KEY>
NHTKGYOMICWFQZ-KKQYNPQSSA-N

> <FORMULA>
C25H27F2N4O8P

> <MOLECULAR_WEIGHT>
580.482

> <EXACT_MASS>
580.153457169

> <JCHEM_ACCEPTOR_COUNT>
7

> <JCHEM_ATOM_COUNT>
67

> <JCHEM_AVERAGE_POLARIZABILITY>
53.239535070081686

> <JCHEM_BIOAVAILABILITY>
0

> <JCHEM_DONOR_COUNT>
3

> <JCHEM_FORMAL_CHARGE>
0

> <JCHEM_GHOSE_FILTER>
0

> <JCHEM_IUPAC>
benzyl (2S)-2-[({[(2R,3R,5R)-5-(4-amino-2-oxo-1,2-dihydropyrimidin-1-yl)-4,4-difluoro-3-hydroxyoxolan-2-yl]methoxy}(phenoxy)phosphoryl)amino]propanoate

> <ALOGPS_LOGP>
2.43

> <JCHEM_LOGP>
2.0117283546666664

> <ALOGPS_LOGS>
-3.94

> <JCHEM_MDDR_LIKE_RULE>
1

> <JCHEM_NUMBER_OF_RINGS>
4

> <JCHEM_PHYSIOLOGICAL_CHARGE>
0

> <JCHEM_PKA>
11.564829866883127

> <JCHEM_PKA_STRONGEST_ACIDIC>
10.217315949888283

> <JCHEM_PKA_STRONGEST_BASIC>
3.643373503499828

> <JCHEM_POLAR_SURFACE_AREA>
162.01

> <JCHEM_REFRACTIVITY>
134.7754

> <JCHEM_ROTATABLE_BOND_COUNT>
12

> <JCHEM_RULE_OF_FIVE>
0

> <ALOGPS_SOLUBILITY>
6.64e-02 g/l

> <JCHEM_TRADITIONAL_IUPAC>
(2R)-14-fluoro-2-methyl-6,9,10,19-tetraazapentacyclo[14.2.1.0^{2,6}.0^{8,18}.0^{12,17}]nonadeca-1(18),8,12(17),13,15-pentaen-11-one

> <JCHEM_VEBER_RULE>
0

> <DRUGBANK_ID>
DB15057

> <DRUG_GROUPS>
investigational

> <GENERIC_NAME>
NUC-1031

> <SYNONYMS>
ACELARIN; Fosgemcitabine palabenamide, p(rs)-

$$$$
