
  Mrv1909 02082019532D          

 31 32  0  0  0  0            999 V2000
   -1.5353   -1.2232    0.0000 C   0  0  0  0  0  0  0  0  0  0  0  0
   -1.9495   -1.9367    0.0000 C   0  0  0  0  0  0  0  0  0  0  0  0
   -1.9495   -0.5096    0.0000 C   0  0  0  0  0  0  0  0  0  0  0  0
   -2.7713   -1.9367    0.0000 C   0  0  0  0  0  0  0  0  0  0  0  0
   -2.7713   -0.5096    0.0000 C   0  0  0  0  0  0  0  0  0  0  0  0
   -3.1854   -1.2232    0.0000 C   0  0  0  0  0  0  0  0  0  0  0  0
   -0.7135   -1.2232    0.0000 S   0  0  0  0  0  0  0  0  0  0  0  0
    0.1083   -1.2232    0.0000 N   0  0  0  0  0  0  0  0  0  0  0  0
   -0.7135   -2.0450    0.0000 O   0  0  0  0  0  0  0  0  0  0  0  0
   -0.7135   -0.3950    0.0000 O   0  0  0  0  0  0  0  0  0  0  0  0
    0.5224   -1.9367    0.0000 C   0  0  0  0  0  0  0  0  0  0  0  0
    1.3442   -1.9367    0.0000 C   0  0  0  0  0  0  0  0  0  0  0  0
    1.3442    0.9174    0.0000 C   0  0  0  0  0  0  0  0  0  0  0  0
    1.7584    0.2038    0.0000 C   0  0  0  0  0  0  0  0  0  0  0  0
    0.5224    0.9174    0.0000 C   0  0  0  0  0  0  0  0  0  0  0  0
    1.3442   -0.5096    0.0000 C   0  0  0  0  0  0  0  0  0  0  0  0
    0.1083    0.2038    0.0000 C   0  0  0  0  0  0  0  0  0  0  0  0
    0.5224   -0.5096    0.0000 C   0  0  0  0  0  0  0  0  0  0  0  0
    1.7584    1.6309    0.0000 C   0  0  0  0  0  0  0  0  0  0  0  0
    1.0448    2.0450    0.0000 C   0  0  0  0  0  0  0  0  0  0  0  0
    2.1724    2.3444    0.0000 O   0  0  0  0  0  0  0  0  0  0  0  0
    2.4719    1.2232    0.0000 C   0  0  0  0  0  0  0  0  0  0  0  0
    0.3312    2.4591    0.0000 F   0  0  0  0  0  0  0  0  0  0  0  0
    0.6307    1.3315    0.0000 F   0  0  0  0  0  0  0  0  0  0  0  0
    1.4589    2.7586    0.0000 F   0  0  0  0  0  0  0  0  0  0  0  0
    1.3442   -2.7586    0.0000 F   0  0  0  0  0  0  0  0  0  0  0  0
    1.3442   -1.1085    0.0000 F   0  0  0  0  0  0  0  0  0  0  0  0
    2.1724   -1.9367    0.0000 F   0  0  0  0  0  0  0  0  0  0  0  0
    3.1854    0.8027    0.0000 F   0  0  0  0  0  0  0  0  0  0  0  0
    2.0577    0.5096    0.0000 F   0  0  0  0  0  0  0  0  0  0  0  0
    2.8860    1.9367    0.0000 F   0  0  0  0  0  0  0  0  0  0  0  0
  1  2  1  0  0  0  0
  1  3  2  0  0  0  0
  1  7  1  0  0  0  0
  2  4  2  0  0  0  0
  3  5  1  0  0  0  0
  4  6  1  0  0  0  0
  5  6  2  0  0  0  0
  7  8  1  0  0  0  0
  7  9  2  0  0  0  0
  7 10  2  0  0  0  0
  8 11  1  0  0  0  0
  8 18  1  0  0  0  0
 11 12  1  0  0  0  0
 12 26  1  0  0  0  0
 12 27  1  0  0  0  0
 12 28  1  0  0  0  0
 13 14  1  0  0  0  0
 13 15  2  0  0  0  0
 13 19  1  0  0  0  0
 14 16  2  0  0  0  0
 15 17  1  0  0  0  0
 16 18  1  0  0  0  0
 17 18  2  0  0  0  0
 19 20  1  0  0  0  0
 19 21  1  0  0  0  0
 19 22  1  0  0  0  0
 20 23  1  0  0  0  0
 20 24  1  0  0  0  0
 20 25  1  0  0  0  0
 22 29  1  0  0  0  0
 22 30  1  0  0  0  0
 22 31  1  0  0  0  0
M  END
> <DATABASE_ID>
DB07080

> <DATABASE_NAME>
drugbank

> <SMILES>
OC(C1=CC=C(C=C1)N(CC(F)(F)F)S(=O)(=O)C1=CC=CC=C1)(C(F)(F)F)C(F)(F)F

> <INCHI_IDENTIFIER>
InChI=1S/C17H12F9NO3S/c18-14(19,20)10-27(31(29,30)13-4-2-1-3-5-13)12-8-6-11(7-9-12)15(28,16(21,22)23)17(24,25)26/h1-9,28H,10H2

> <INCHI_KEY>
SGIWFELWJPNFDH-UHFFFAOYSA-N

> <FORMULA>
C17H12F9NO3S

> <MOLECULAR_WEIGHT>
481.333

> <EXACT_MASS>
481.03941779

> <JCHEM_ACCEPTOR_COUNT>
3

> <JCHEM_ATOM_COUNT>
43

> <JCHEM_AVERAGE_NEUTRAL_MICROSPECIES_CHARGE>
-0.26400719211057466

> <JCHEM_AVERAGE_POLARIZABILITY>
35.13691264324163

> <JCHEM_BIOAVAILABILITY>
1

> <JCHEM_DONOR_COUNT>
1

> <JCHEM_FORMAL_CHARGE>
0

> <JCHEM_GHOSE_FILTER>
0

> <JCHEM_IUPAC>
N-[4-(1,1,1,3,3,3-hexafluoro-2-hydroxypropan-2-yl)phenyl]-N-(2,2,2-trifluoroethyl)benzenesulfonamide

> <ALOGPS_LOGP>
3.83

> <JCHEM_LOGP>
4.766061893

> <ALOGPS_LOGS>
-4.74

> <JCHEM_MDDR_LIKE_RULE>
0

> <JCHEM_NEUTRAL_CHARGE>
0

> <JCHEM_NUMBER_OF_RINGS>
2

> <JCHEM_PHYSIOLOGICAL_CHARGE>
0

> <JCHEM_PKA>
16.64379302260819

> <JCHEM_PKA_STRONGEST_ACIDIC>
7.445257812546665

> <JCHEM_PKA_STRONGEST_BASIC>
-6.103244232671826

> <JCHEM_POLAR_SURFACE_AREA>
57.61

> <JCHEM_REFRACTIVITY>
90.51290000000003

> <JCHEM_ROTATABLE_BOND_COUNT>
7

> <JCHEM_RULE_OF_FIVE>
1

> <ALOGPS_SOLUBILITY>
8.67e-03 g/l

> <JCHEM_TRADITIONAL_IUPAC>
11-[(1S,3aS,3bR,4R,9bS,11aS)-1,7-dihydroxy-11a-methyl-1H,2H,3H,3aH,3bH,4H,5H,9bH,10H,11H-cyclopenta[a]phenanthren-4-yl]-N-butyl-N-methylundecanamide

> <JCHEM_VEBER_RULE>
0

> <DRUGBANK_ID>
DB07080

> <DRUG_GROUPS>
experimental

> <GENERIC_NAME>
TO-901317

$$$$
