
  Mrv1718007131814052D          

  1  0  0  0  0  0            999 V2000
    0.0000    0.0000    0.0000 Cu  0  2  0  0  0  0  0  0  0  0  0  0
M  CHG  1   1   2
M  END
> <DATABASE_ID>
DB14552

> <DATABASE_NAME>
drugbank

> <SMILES>
[Cu++]

> <INCHI_IDENTIFIER>
InChI=1S/Cu/q+2

> <INCHI_KEY>
JPVYNHNXODAKFH-UHFFFAOYSA-N

> <FORMULA>
Cu

> <MOLECULAR_WEIGHT>
63.546

> <EXACT_MASS>
62.929601079

> <JCHEM_ACCEPTOR_COUNT>
0

> <JCHEM_ATOM_COUNT>
1

> <JCHEM_AVERAGE_POLARIZABILITY>
1.7784

> <JCHEM_BIOAVAILABILITY>
1

> <JCHEM_DONOR_COUNT>
0

> <JCHEM_FORMAL_CHARGE>
2

> <JCHEM_GHOSE_FILTER>
0

> <JCHEM_IUPAC>
copper(2+) ion

> <JCHEM_LOGP>
0.156

> <JCHEM_MDDR_LIKE_RULE>
0

> <JCHEM_NUMBER_OF_RINGS>
0

> <JCHEM_PHYSIOLOGICAL_CHARGE>
2

> <JCHEM_PKA>
3.55

> <JCHEM_PKA_STRONGEST_ACIDIC>
3.09

> <JCHEM_POLAR_SURFACE_AREA>
0.0

> <JCHEM_REFRACTIVITY>
0.0

> <JCHEM_ROTATABLE_BOND_COUNT>
0

> <JCHEM_RULE_OF_FIVE>
1

> <JCHEM_TRADITIONAL_IUPAC>
copper(2+) ion

> <JCHEM_VEBER_RULE>
1

> <DRUGBANK_ID>
DB14552

> <DRUG_GROUPS>
experimental

> <GENERIC_NAME>
Cupric cation

> <SYNONYMS>
Copper ion (Cu++); Copper ions; copper(2+); Copper(2+)ions; Cupric ion

> <PRODUCTS>
Moms Choice Rx

$$$$
