
  Mrv1909 12152018162D          

 26 28  0  0  0  0            999 V2000
   -7.1239   -3.6822    0.0000 C   0  0  0  0  0  0  0  0  0  0  0  0
   -6.6389   -3.0147    0.0000 O   0  0  0  0  0  0  0  0  0  0  0  0
   -5.8185   -3.1010    0.0000 C   0  0  0  0  0  0  0  0  0  0  0  0
   -5.3335   -2.4335    0.0000 C   0  0  0  0  0  0  0  0  0  0  0  0
   -5.6691   -1.6799    0.0000 C   0  0  0  0  0  0  0  0  0  0  0  0
   -4.5131   -2.5198    0.0000 C   0  0  0  0  0  0  0  0  0  0  0  0
   -4.0281   -1.8523    0.0000 C   0  0  0  0  0  0  0  0  0  0  0  0
   -3.2077   -1.9386    0.0000 N   0  0  0  0  0  0  0  0  0  0  0  0
   -2.6556   -1.3255    0.0000 C   0  0  0  0  0  0  0  0  0  0  0  0
   -1.9019   -1.6610    0.0000 C   0  0  0  0  0  0  0  0  0  0  0  0
   -1.1875   -1.2485    0.0000 C   0  0  0  0  0  0  0  0  0  0  0  0
   -1.1875   -0.4235    0.0000 O   0  0  0  0  0  0  0  0  0  0  0  0
   -0.4730   -1.6610    0.0000 N   0  0  0  0  0  0  0  0  0  0  0  0
    0.2415   -1.2485    0.0000 C   0  0  0  0  0  0  0  0  0  0  0  0
    0.9559   -1.6610    0.0000 C   0  0  0  0  0  0  0  0  0  0  0  0
    1.6704   -1.2485    0.0000 O   0  0  0  0  0  0  0  0  0  0  0  0
   -1.9882   -2.4815    0.0000 C   0  0  0  0  0  0  0  0  0  0  0  0
   -1.4362   -3.0946    0.0000 N   0  0  0  0  0  0  0  0  0  0  0  0
   -1.6911   -3.8792    0.0000 C   0  0  0  0  0  0  0  0  0  0  0  0
   -2.4981   -4.0508    0.0000 C   0  0  0  0  0  0  0  0  0  0  0  0
   -2.7530   -4.8354    0.0000 C   0  0  0  0  0  0  0  0  0  0  0  0
   -3.0501   -3.4377    0.0000 C   0  0  0  0  0  0  0  0  0  0  0  0
   -2.7952   -2.6530    0.0000 C   0  0  0  0  0  0  0  0  0  0  0  0
   -4.1775   -3.2735    0.0000 N   0  0  0  0  0  0  0  0  0  0  0  0
   -4.6624   -3.9409    0.0000 C   0  0  0  0  0  0  0  0  0  0  0  0
   -5.4829   -3.8547    0.0000 N   0  0  0  0  0  0  0  0  0  0  0  0
  1  2  1  0  0  0  0
  2  3  1  0  0  0  0
  3  4  2  0  0  0  0
  4  5  1  0  0  0  0
  4  6  1  0  0  0  0
  6  7  1  0  0  0  0
  7  8  1  0  0  0  0
  8  9  1  0  0  0  0
  9 10  2  0  0  0  0
 10 11  1  0  0  0  0
 11 12  2  0  0  0  0
 11 13  1  0  0  0  0
 13 14  1  0  0  0  0
 14 15  1  0  0  0  0
 15 16  1  0  0  0  0
 10 17  1  0  0  0  0
 17 18  2  0  0  0  0
 18 19  1  0  0  0  0
 19 20  2  0  0  0  0
 20 21  1  0  0  0  0
 20 22  1  0  0  0  0
 22 23  2  0  0  0  0
  8 23  1  0  0  0  0
 17 23  1  0  0  0  0
  6 24  2  0  0  0  0
 24 25  1  0  0  0  0
 25 26  2  0  0  0  0
  3 26  1  0  0  0  0
M  END
> <DATABASE_ID>
DB16243

> <DATABASE_NAME>
drugbank

> <SMILES>
COC1=C(C)C(CN2C=C(C(=O)NCCO)C3=NC=C(C)C=C23)=NC=N1

> <INCHI_IDENTIFIER>
InChI=1S/C18H21N5O3/c1-11-6-15-16(20-7-11)13(17(25)19-4-5-24)8-23(15)9-14-12(2)18(26-3)22-10-21-14/h6-8,10,24H,4-5,9H2,1-3H3,(H,19,25)

> <INCHI_KEY>
VDRYGTNDKXIPSK-UHFFFAOYSA-N

> <FORMULA>
C18H21N5O3

> <MOLECULAR_WEIGHT>
355.398

> <EXACT_MASS>
355.164439556

> <JCHEM_ACCEPTOR_COUNT>
6

> <JCHEM_ATOM_COUNT>
47

> <JCHEM_AVERAGE_NEUTRAL_MICROSPECIES_CHARGE>
0.0016482834056088106

> <JCHEM_AVERAGE_POLARIZABILITY>
37.42936731638598

> <JCHEM_BIOAVAILABILITY>
1

> <JCHEM_DONOR_COUNT>
2

> <JCHEM_FORMAL_CHARGE>
0

> <JCHEM_GHOSE_FILTER>
1

> <JCHEM_IUPAC>
N-(2-hydroxyethyl)-1-[(6-methoxy-5-methylpyrimidin-4-yl)methyl]-6-methyl-1H-pyrrolo[3,2-b]pyridine-3-carboxamide

> <ALOGPS_LOGP>
0.75

> <JCHEM_LOGP>
1.1941398119999995

> <ALOGPS_LOGS>
-3.19

> <JCHEM_MDDR_LIKE_RULE>
1

> <JCHEM_NEUTRAL_CHARGE>
0

> <JCHEM_NUMBER_OF_RINGS>
3

> <JCHEM_PHYSIOLOGICAL_CHARGE>
0

> <JCHEM_PKA>
15.570995746694402

> <JCHEM_PKA_STRONGEST_ACIDIC>
14.419543397966784

> <JCHEM_PKA_STRONGEST_BASIC>
3.9372911303528495

> <JCHEM_POLAR_SURFACE_AREA>
102.16

> <JCHEM_REFRACTIVITY>
97.3935

> <JCHEM_ROTATABLE_BOND_COUNT>
6

> <JCHEM_RULE_OF_FIVE>
1

> <ALOGPS_SOLUBILITY>
2.29e-01 g/l

> <JCHEM_TRADITIONAL_IUPAC>
5-({4-[2-(3-methoxyphenyl)-2-oxoethoxy]phenyl}methyl)-1,3-thiazolidine-2,4-dione

> <JCHEM_VEBER_RULE>
0

> <DRUGBANK_ID>
DB16243

> <DRUG_GROUPS>
investigational

> <GENERIC_NAME>
TBA-7371

$$$$
