
  Mrv1909 12091902042D          

 43 46  0  0  0  0            999 V2000
   -1.4150    2.0625    0.0000 O   0  0  0  0  0  0  0  0  0  0  0  0
   -0.7464    4.8800    0.0000 O   0  0  0  0  0  0  0  0  0  0  0  0
   -2.5322    1.1715    0.0000 O   0  0  0  0  0  0  0  0  0  0  0  0
    2.9663    4.1654    0.0000 O   0  0  0  0  0  0  0  0  0  0  0  0
    1.1570   -1.1627    0.0000 O   0  0  0  0  0  0  0  0  0  0  0  0
   -1.2904   -1.5317    0.0000 O   0  0  0  0  0  0  0  0  0  0  0  0
    0.7672   -4.1119    0.0000 O   0  0  0  0  0  0  0  0  0  0  0  0
   -2.7338    4.3778    0.0000 N   0  0  0  0  0  0  0  0  0  0  0  0
   -0.7464    3.4509    0.0000 N   0  0  0  0  0  0  0  0  0  0  0  0
   -1.5715    3.4509    0.0000 C   0  0  1  0  0  0  0  0  0  0  0  0
   -1.9294    2.7075    0.0000 C   0  0  1  0  0  0  0  0  0  0  0  0
   -2.7338    2.5239    0.0000 C   0  0  0  0  0  0  0  0  0  0  0  0
   -1.9294    4.1943    0.0000 C   0  0  0  0  0  0  0  0  0  0  0  0
   -3.3788    3.0383    0.0000 C   0  0  0  0  0  0  0  0  0  0  0  0
   -3.3788    3.8634    0.0000 C   0  0  0  0  0  0  0  0  0  0  0  0
   -0.3339    4.1654    0.0000 C   0  0  0  0  0  0  0  0  0  0  0  0
    0.4911    4.1654    0.0000 C   0  0  0  0  0  0  0  0  0  0  0  0
   -1.7164    1.2944    0.0000 C   0  0  0  0  0  0  0  0  0  0  0  0
    2.1412    2.7364    0.0000 C   0  0  2  0  0  0  0  0  0  0  0  0
    1.7287    3.4509    0.0000 C   0  0  0  0  0  0  0  0  0  0  0  0
    0.9036    3.4509    0.0000 C   0  0  0  0  0  0  0  0  0  0  0  0
    2.9663    2.7364    0.0000 C   0  0  0  0  0  0  0  0  0  0  0  0
    0.9036    4.8800    0.0000 C   0  0  0  0  0  0  0  0  0  0  0  0
   -1.2020    0.6494    0.0000 C   0  0  0  0  0  0  0  0  0  0  0  0
    2.1412    4.1654    0.0000 C   0  0  0  0  0  0  0  0  0  0  0  0
    1.7287    2.0219    0.0000 C   0  0  0  0  0  0  0  0  0  0  0  0
    1.7287    4.8800    0.0000 C   0  0  0  0  0  0  0  0  0  0  0  0
    3.3788    2.0219    0.0000 C   0  0  0  0  0  0  0  0  0  0  0  0
   -0.3862    0.7724    0.0000 C   0  0  0  0  0  0  0  0  0  0  0  0
   -1.5034   -0.1186    0.0000 C   0  0  0  0  0  0  0  0  0  0  0  0
    0.1282    0.1273    0.0000 C   0  0  0  0  0  0  0  0  0  0  0  0
   -0.9890   -0.7636    0.0000 C   0  0  0  0  0  0  0  0  0  0  0  0
   -0.1731   -0.6407    0.0000 C   0  0  0  0  0  0  0  0  0  0  0  0
    0.3412   -1.2857    0.0000 C   0  0  0  0  0  0  0  0  0  0  0  0
    0.0397   -2.0538    0.0000 C   0  0  0  0  0  0  0  0  0  0  0  0
   -0.7760   -2.1767    0.0000 C   0  0  0  0  0  0  0  0  0  0  0  0
    0.5541   -2.6988    0.0000 C   0  0  0  0  0  0  0  0  0  0  0  0
    0.2528   -3.4669    0.0000 C   0  0  0  0  0  0  0  0  0  0  0  0
   -1.0774   -2.9448    0.0000 C   0  0  0  0  0  0  0  0  0  0  0  0
   -0.5631   -3.5898    0.0000 C   0  0  0  0  0  0  0  0  0  0  0  0
    0.4657   -4.8800    0.0000 C   0  0  0  0  0  0  0  0  0  0  0  0
   -2.8476    4.8766    0.0000 H   0  0  0  0  0  0  0  0  0  0  0  0
   -0.4906    3.0079    0.0000 H   0  0  0  0  0  0  0  0  0  0  0  0
 11  1  1  6  0  0  0
  1 18  1  0  0  0  0
  2 16  2  0  0  0  0
  3 18  2  0  0  0  0
  4 25  1  0  0  0  0
  5 34  2  0  0  0  0
  6 36  1  0  0  0  0
  7 38  1  0  0  0  0
  7 41  1  0  0  0  0
  8 13  1  0  0  0  0
  8 15  1  0  0  0  0
  8 42  1  0  0  0  0
 10  9  1  1  0  0  0
  9 16  1  0  0  0  0
  9 43  1  0  0  0  0
 10 11  1  0  0  0  0
 10 13  1  0  0  0  0
 11 12  1  0  0  0  0
 12 14  1  0  0  0  0
 14 15  1  0  0  0  0
 16 17  1  0  0  0  0
 17 21  2  0  0  0  0
 17 23  1  0  0  0  0
 18 24  1  0  0  0  0
 19 20  1  0  0  0  0
 19 22  1  0  0  0  0
 19 26  1  6  0  0  0
 20 21  1  0  0  0  0
 20 25  2  0  0  0  0
 22 28  1  0  0  0  0
 23 27  2  0  0  0  0
 24 29  2  0  0  0  0
 24 30  1  0  0  0  0
 25 27  1  0  0  0  0
 29 31  1  0  0  0  0
 30 32  2  0  0  0  0
 31 33  2  0  0  0  0
 32 33  1  0  0  0  0
 33 34  1  0  0  0  0
 34 35  1  0  0  0  0
 35 36  2  0  0  0  0
 35 37  1  0  0  0  0
 36 39  1  0  0  0  0
 37 38  2  0  0  0  0
 38 40  1  0  0  0  0
 39 40  2  0  0  0  0
M  END
> <DATABASE_ID>
DB02155

> <DATABASE_NAME>
drugbank

> <SMILES>
[H]N([C@@H]1CN([H])CCC[C@H]1OC(=O)C1=CC=C(C=C1)C(=O)C1=C(O)C=CC(OC)=C1)C(=O)C1=CC([C@@H](C)CC)=C(O)C=C1

> <INCHI_IDENTIFIER>
InChI=1S/C32H36N2O7/c1-4-19(2)24-16-22(11-13-27(24)35)31(38)34-26-18-33-15-5-6-29(26)41-32(39)21-9-7-20(8-10-21)30(37)25-17-23(40-3)12-14-28(25)36/h7-14,16-17,19,26,29,33,35-36H,4-6,15,18H2,1-3H3,(H,34,38)/t19-,26+,29+/m0/s1

> <INCHI_KEY>
XVLMXAUKCDSMMW-YXLARRHKSA-N

> <FORMULA>
C32H36N2O7

> <MOLECULAR_WEIGHT>
560.6374

> <EXACT_MASS>
560.252251516

> <JCHEM_ACCEPTOR_COUNT>
7

> <JCHEM_ATOM_COUNT>
77

> <JCHEM_AVERAGE_POLARIZABILITY>
60.71733076419606

> <JCHEM_BIOAVAILABILITY>
1

> <JCHEM_DONOR_COUNT>
4

> <JCHEM_FORMAL_CHARGE>
0

> <JCHEM_GHOSE_FILTER>
0

> <JCHEM_IUPAC>
(3R,4R)-3-{3-[(2S)-butan-2-yl]-4-hydroxybenzamido}azepan-4-yl 4-(2-hydroxy-5-methoxybenzoyl)benzoate

> <ALOGPS_LOGP>
4.38

> <JCHEM_LOGP>
4.804937189207221

> <ALOGPS_LOGS>
-5.61

> <JCHEM_MDDR_LIKE_RULE>
1

> <JCHEM_NUMBER_OF_RINGS>
4

> <JCHEM_PHYSIOLOGICAL_CHARGE>
1

> <JCHEM_PKA>
8.885705082274603

> <JCHEM_PKA_STRONGEST_ACIDIC>
7.557002515237409

> <JCHEM_PKA_STRONGEST_BASIC>
9.69509252020959

> <JCHEM_POLAR_SURFACE_AREA>
134.19000000000003

> <JCHEM_REFRACTIVITY>
155.54549999999998

> <JCHEM_ROTATABLE_BOND_COUNT>
10

> <JCHEM_RULE_OF_FIVE>
0

> <ALOGPS_SOLUBILITY>
1.36e-03 g/l

> <JCHEM_TRADITIONAL_IUPAC>
(3R,4R)-3-{3-[(2S)-butan-2-yl]-4-hydroxybenzamido}azepan-4-yl 4-(2-hydroxy-5-methoxybenzoyl)benzoate

> <JCHEM_VEBER_RULE>
0

> <DRUGBANK_ID>
DB02155

> <SECONDARY_ACCESSION_NUMBERS>
EXPT00615

> <DRUG_GROUPS>
experimental

> <GENERIC_NAME>
3-[(3-sec-butyl-4-hydroxybenzoyl)amino]azepan-4-yl 4-(2-hydroxy-5-methoxybenzoyl)benzoate

> <SYNONYMS>
Balanol analog 8

$$$$
