
  Mrv1909 12201918442D          

 33 35  0  0  0  0            999 V2000
   -2.4587    0.1058    0.0000 C   0  0  0  0  0  0  0  0  0  0  0  0
   -3.1769   -0.3084    0.0000 C   0  0  0  0  0  0  0  0  0  0  0  0
   -3.1769   -1.1372    0.0000 C   0  0  0  0  0  0  0  0  0  0  0  0
   -2.4587   -1.5424    0.0000 C   0  0  0  0  0  0  0  0  0  0  0  0
   -1.7404   -1.1372    0.0000 C   0  0  0  0  0  0  0  0  0  0  0  0
   -1.7404   -0.3084    0.0000 C   0  0  0  0  0  0  0  0  0  0  0  0
   -4.6043   -1.9568    0.0000 O   0  0  0  0  0  0  0  0  0  0  0  0
   -3.8861   -1.5424    0.0000 S   0  0  0  0  0  0  0  0  0  0  0  0
   -4.3004   -0.8334    0.0000 O   0  0  0  0  0  0  0  0  0  0  0  0
   -3.4808   -2.2607    0.0000 O   0  0  0  0  0  0  0  0  0  0  0  0
   -1.0313   -1.5424    0.0000 C   0  0  0  0  0  0  0  0  0  0  0  0
   -0.2855    1.2109    0.0000 C   0  0  0  0  0  0  0  0  0  0  0  0
   -0.2302   -0.1242    0.0000 C   0  0  0  0  0  0  0  0  0  0  0  0
    0.2302    0.5663    0.0000 C   0  0  0  0  0  0  0  0  0  0  0  0
   -1.0313    0.1058    0.0000 N   0  0  0  0  0  0  0  0  0  0  0  0
   -1.0589    0.9347    0.0000 N   0  0  0  0  0  0  0  0  0  0  0  0
   -0.0552    2.0121    0.0000 C   0  0  0  0  0  0  0  0  0  0  0  0
    0.0459   -0.8978    0.0000 O   0  0  0  0  0  0  0  0  0  0  0  0
    1.0498    0.5939    0.0000 N   0  0  0  0  0  0  0  0  0  0  0  0
    1.6391    0.0138    0.0000 N   0  0  0  0  0  0  0  0  0  0  0  0
    2.4587    0.0138    0.0000 C   0  0  0  0  0  0  0  0  0  0  0  0
    2.8270    0.7505    0.0000 C   0  0  0  0  0  0  0  0  0  0  0  0
    2.9191   -0.6768    0.0000 C   0  0  0  0  0  0  0  0  0  0  0  0
    3.7386   -0.6216    0.0000 C   0  0  0  0  0  0  0  0  0  0  0  0
    4.1070    0.1151    0.0000 C   0  0  0  0  0  0  0  0  0  0  0  0
    3.6558    0.8057    0.0000 C   0  0  0  0  0  0  0  0  0  0  0  0
    4.4293    2.2607    0.0000 O   0  0  0  0  0  0  0  0  0  0  0  0
    4.0242    1.5424    0.0000 S   0  0  0  0  0  0  0  0  0  0  0  0
    3.4348    2.1225    0.0000 O   0  0  0  0  0  0  0  0  0  0  0  0
    4.6043    0.9623    0.0000 O   0  0  0  0  0  0  0  0  0  0  0  0
    2.5507   -1.4134    0.0000 C   0  0  0  0  0  0  0  0  0  0  0  0
    3.0019   -2.1042    0.0000 O   0  0  0  0  0  0  0  0  0  0  0  0
    1.7220   -1.4688    0.0000 O   0  0  0  0  0  0  0  0  0  0  0  0
  1  2  2  0  0  0  0
  1  6  1  0  0  0  0
  2  3  1  0  0  0  0
  3  4  2  0  0  0  0
  3  8  1  0  0  0  0
  4  5  1  0  0  0  0
  5  6  2  0  0  0  0
  5 11  1  0  0  0  0
  6 15  1  0  0  0  0
  7  8  1  0  0  0  0
  8 10  2  0  0  0  0
  8  9  2  0  0  0  0
 12 16  2  0  0  0  0
 12 14  1  0  0  0  0
 12 17  1  0  0  0  0
 13 15  1  0  0  0  0
 13 14  2  0  0  0  0
 13 18  1  0  0  0  0
 14 19  1  0  0  0  0
 15 16  1  0  0  0  0
 19 20  2  0  0  0  0
 20 21  1  0  0  0  0
 21 22  2  0  0  0  0
 21 23  1  0  0  0  0
 22 26  1  0  0  0  0
 23 24  2  0  0  0  0
 23 31  1  0  0  0  0
 24 25  1  0  0  0  0
 25 26  2  0  0  0  0
 26 28  1  0  0  0  0
 27 28  1  0  0  0  0
 28 30  2  0  0  0  0
 28 29  2  0  0  0  0
 31 32  2  0  0  0  0
 31 33  1  0  0  0  0
M  END
> <DATABASE_ID>
DB03442

> <DATABASE_NAME>
drugbank

> <SMILES>
CC1=NN(C(O)=C1\N=N\C1=CC(=CC=C1C(O)=O)S(O)(=O)=O)C1=C(C)C=C(C=C1)S(O)(=O)=O

> <INCHI_IDENTIFIER>
InChI=1S/C18H16N4O9S2/c1-9-7-11(32(26,27)28)4-6-15(9)22-17(23)16(10(2)21-22)20-19-14-8-12(33(29,30)31)3-5-13(14)18(24)25/h3-8,23H,1-2H3,(H,24,25)(H,26,27,28)(H,29,30,31)/b20-19+

> <INCHI_KEY>
NOQURKNIKJDEPW-FMQUCBEESA-N

> <FORMULA>
C18H16N4O9S2

> <MOLECULAR_WEIGHT>
496.471

> <EXACT_MASS>
496.03586951

> <JCHEM_ACCEPTOR_COUNT>
12

> <JCHEM_ATOM_COUNT>
49

> <JCHEM_AVERAGE_NEUTRAL_MICROSPECIES_CHARGE>
-3.9989011198054087

> <JCHEM_AVERAGE_POLARIZABILITY>
47.147786730933845

> <JCHEM_BIOAVAILABILITY>
0

> <JCHEM_DONOR_COUNT>
4

> <JCHEM_FORMAL_CHARGE>
0

> <JCHEM_GHOSE_FILTER>
0

> <JCHEM_IUPAC>
2-[(1E)-2-[5-hydroxy-3-methyl-1-(2-methyl-4-sulfophenyl)-1H-pyrazol-4-yl]diazen-1-yl]-4-sulfobenzoic acid

> <ALOGPS_LOGP>
-0.35

> <JCHEM_LOGP>
-1.8914052944614177

> <ALOGPS_LOGS>
-3.50

> <JCHEM_MDDR_LIKE_RULE>
1

> <JCHEM_NEUTRAL_CHARGE>
-4

> <JCHEM_NUMBER_OF_RINGS>
3

> <JCHEM_PHYSIOLOGICAL_CHARGE>
-4

> <JCHEM_PKA>
-2.193595628093194

> <JCHEM_PKA_STRONGEST_ACIDIC>
-2.836979088921295

> <JCHEM_PKA_STRONGEST_BASIC>
1.4810688593656784

> <JCHEM_POLAR_SURFACE_AREA>
208.80999999999997

> <JCHEM_REFRACTIVITY>
118.10679999999995

> <JCHEM_ROTATABLE_BOND_COUNT>
6

> <JCHEM_RULE_OF_FIVE>
0

> <ALOGPS_SOLUBILITY>
1.56e-01 g/l

> <JCHEM_TRADITIONAL_IUPAC>
N-{3-[4-(3-aminopropyl)piperazin-1-yl]propyl}-3-[2-(thiophen-2-yl)acetamido]-5-{[(2R,3R,4S,5R,6R)-3,4,5-trihydroxy-6-(hydroxymethyl)oxan-2-yl]oxy}benzamide

> <JCHEM_VEBER_RULE>
0

> <DRUGBANK_ID>
DB03442

> <SECONDARY_ACCESSION_NUMBERS>
EXPT00150

> <DRUG_GROUPS>
experimental

> <GENERIC_NAME>
Acid yellow 54 free acid

> <SYNONYMS>
2-(5-hydroxy-3-methyl-1-(2-methyl-4-sulfophenyl)-1H-pyrazol-4-ylazo)-4-sulfobenzoic acid

$$$$
