
  Mrv1652310201623112D          

 29 31  0  0  0  0            999 V2000
   -0.1712   -0.6979    0.0000 C   0  0  0  0  0  0  0  0  0  0  0  0
    0.6538   -0.6979    0.0000 C   0  0  0  0  0  0  0  0  0  0  0  0
    1.1387   -0.0305    0.0000 C   0  0  0  0  0  0  0  0  0  0  0  0
    1.9233   -0.2854    0.0000 C   0  0  0  0  0  0  0  0  0  0  0  0
    2.6378    0.1271    0.0000 C   0  0  0  0  0  0  0  0  0  0  0  0
    3.3523   -0.2854    0.0000 C   0  0  0  0  0  0  0  0  0  0  0  0
    3.3523   -1.1104    0.0000 C   0  0  0  0  0  0  0  0  0  0  0  0
    2.6378   -1.5229    0.0000 N   0  0  0  0  0  0  0  0  0  0  0  0
    1.9233   -1.1104    0.0000 C   0  0  0  0  0  0  0  0  0  0  0  0
    1.1387   -1.3654    0.0000 N   0  0  0  0  0  0  0  0  0  0  0  0
    0.8838   -2.1500    0.0000 C   0  0  0  0  0  0  0  0  0  0  0  0
    1.4358   -2.7631    0.0000 C   0  0  0  0  0  0  0  0  0  0  0  0
    2.2428   -2.5916    0.0000 C   0  0  0  0  0  0  0  0  0  0  0  0
    2.7948   -3.2047    0.0000 C   0  0  0  0  0  0  0  0  0  0  0  0
    2.5399   -3.9893    0.0000 C   0  0  0  0  0  0  0  0  0  0  0  0
    1.7329   -4.1608    0.0000 C   0  0  0  0  0  0  0  0  0  0  0  0
    1.1809   -3.5477    0.0000 C   0  0  0  0  0  0  0  0  0  0  0  0
    0.3739   -3.7192    0.0000 C   0  0  0  0  0  0  0  0  0  0  0  0
   -0.4331   -3.8908    0.0000 F   0  0  0  0  0  0  0  0  0  0  0  0
    0.2024   -2.9123    0.0000 F   0  0  0  0  0  0  0  0  0  0  0  0
    0.5454   -4.5262    0.0000 F   0  0  0  0  0  0  0  0  0  0  0  0
    3.0919   -4.6024    0.0000 S   0  0  0  0  0  0  0  0  0  0  0  0
    3.6439   -5.2155    0.0000 O   0  0  0  0  0  0  0  0  0  0  0  0
    3.7050   -4.0503    0.0000 O   0  0  0  0  0  0  0  0  0  0  0  0
    2.4788   -5.1544    0.0000 C   0  0  0  0  0  0  0  0  0  0  0  0
    0.8838    0.7541    0.0000 C   0  0  0  0  0  0  0  0  0  0  0  0
    1.4358    1.3672    0.0000 C   0  0  0  0  0  0  0  0  0  0  0  0
    1.1809    2.1518    0.0000 O   0  0  0  0  0  0  0  0  0  0  0  0
    2.2428    1.1957    0.0000 O   0  0  0  0  0  0  0  0  0  0  0  0
  1  2  1  0  0  0  0
  2  3  2  0  0  0  0
  3  4  1  0  0  0  0
  4  5  2  0  0  0  0
  5  6  1  0  0  0  0
  6  7  2  0  0  0  0
  7  8  1  0  0  0  0
  8  9  2  0  0  0  0
  4  9  1  0  0  0  0
  9 10  1  0  0  0  0
  2 10  1  0  0  0  0
 10 11  1  0  0  0  0
 11 12  1  0  0  0  0
 12 13  2  0  0  0  0
 13 14  1  0  0  0  0
 14 15  2  0  0  0  0
 15 16  1  0  0  0  0
 16 17  2  0  0  0  0
 12 17  1  0  0  0  0
 17 18  1  0  0  0  0
 18 19  1  0  0  0  0
 18 20  1  0  0  0  0
 18 21  1  0  0  0  0
 15 22  1  0  0  0  0
 22 23  2  0  0  0  0
 22 24  2  0  0  0  0
 22 25  1  0  0  0  0
  3 26  1  0  0  0  0
 26 27  1  0  0  0  0
 27 28  2  0  0  0  0
 27 29  1  0  0  0  0
M  END
> <DATABASE_ID>
DB12011

> <DATABASE_NAME>
drugbank

> <SMILES>
CC1=C(CC(O)=O)C2=CC=CN=C2N1CC1=CC=C(C=C1C(F)(F)F)S(C)(=O)=O

> <INCHI_IDENTIFIER>
InChI=1S/C19H17F3N2O4S/c1-11-15(9-17(25)26)14-4-3-7-23-18(14)24(11)10-12-5-6-13(29(2,27)28)8-16(12)19(20,21)22/h3-8H,9-10H2,1-2H3,(H,25,26)

> <INCHI_KEY>
GFPPXZDRVCSVNR-UHFFFAOYSA-N

> <FORMULA>
C19H17F3N2O4S

> <MOLECULAR_WEIGHT>
426.41

> <EXACT_MASS>
426.086112698

> <JCHEM_ACCEPTOR_COUNT>
5

> <JCHEM_ATOM_COUNT>
46

> <JCHEM_AVERAGE_POLARIZABILITY>
38.6560275540777

> <JCHEM_BIOAVAILABILITY>
1

> <JCHEM_DONOR_COUNT>
1

> <JCHEM_FORMAL_CHARGE>
0

> <JCHEM_GHOSE_FILTER>
1

> <JCHEM_IUPAC>
2-(1-{[4-methanesulfonyl-2-(trifluoromethyl)phenyl]methyl}-2-methyl-1H-pyrrolo[2,3-b]pyridin-3-yl)acetic acid

> <ALOGPS_LOGP>
2.87

> <JCHEM_LOGP>
2.2678737182571616

> <ALOGPS_LOGS>
-4.70

> <JCHEM_MDDR_LIKE_RULE>
1

> <JCHEM_NUMBER_OF_RINGS>
3

> <JCHEM_PHYSIOLOGICAL_CHARGE>
-1

> <JCHEM_PKA>
19.696909068595307

> <JCHEM_PKA_STRONGEST_ACIDIC>
4.394854844362116

> <JCHEM_PKA_STRONGEST_BASIC>
3.7308082005128207

> <JCHEM_POLAR_SURFACE_AREA>
89.26

> <JCHEM_REFRACTIVITY>
100.88409999999999

> <JCHEM_ROTATABLE_BOND_COUNT>
6

> <JCHEM_RULE_OF_FIVE>
1

> <ALOGPS_SOLUBILITY>
8.57e-03 g/l

> <JCHEM_TRADITIONAL_IUPAC>
(1-{[4-methanesulfonyl-2-(trifluoromethyl)phenyl]methyl}-2-methylpyrrolo[2,3-b]pyridin-3-yl)acetic acid

> <JCHEM_VEBER_RULE>
0

> <DRUGBANK_ID>
DB12011

> <DRUG_GROUPS>
investigational

> <GENERIC_NAME>
Fevipiprant

> <SYNONYMS>
Fevipiprant

$$$$
