
  Mrv1909 05201914272D          

137145  0  0  1  0            999 V2000
   -4.0523  -14.8918    0.0000 C   0  0  0  0  0  0  0  0  0  0  0  0
   -3.2896  -14.5773    0.0000 C   0  0  0  0  0  0  0  0  0  0  0  0
   -2.6359  -15.0805    0.0000 C   0  0  0  0  0  0  0  0  0  0  0  0
   -3.1807  -13.7595    0.0000 C   0  0  0  0  0  0  0  0  0  0  0  0
   -2.4180  -13.4450    0.0000 C   0  0  1  0  0  0  0  0  0  0  0  0
   -2.3090  -12.6272    0.0000 N   0  0  0  0  0  0  0  0  0  0  0  0
   -2.9628  -12.1240    0.0000 C   0  0  0  0  0  0  0  0  0  0  0  0
   -3.7255  -12.4385    0.0000 O   0  0  0  0  0  0  0  0  0  0  0  0
   -2.8538  -11.3062    0.0000 C   0  0  2  0  0  0  0  0  0  0  0  0
   -3.5075  -10.8029    0.0000 N   0  0  0  0  0  0  0  0  0  0  0  0
   -3.3986   -9.9852    0.0000 C   0  0  0  0  0  0  0  0  0  0  0  0
   -2.6359   -9.6706    0.0000 O   0  0  0  0  0  0  0  0  0  0  0  0
   -4.0523   -9.4819    0.0000 C   0  0  1  0  0  0  0  0  0  0  0  0
   -4.8150   -9.7964    0.0000 C   0  0  0  0  0  0  0  0  0  0  0  0
   -4.9240  -10.6142    0.0000 O   0  0  0  0  0  0  0  0  0  0  0  0
   -3.9434   -8.6641    0.0000 N   0  0  0  0  0  0  0  0  0  0  0  0
   -4.5971   -8.1609    0.0000 C   0  0  0  0  0  0  0  0  0  0  0  0
   -5.3598   -8.4754    0.0000 O   0  0  0  0  0  0  0  0  0  0  0  0
   -4.4881   -7.3431    0.0000 C   0  0  1  0  0  0  0  0  0  0  0  0
   -5.0857   -6.7743    0.0000 C   0  0  0  0  0  0  0  0  0  0  0  0
   -4.7294   -6.0302    0.0000 C   0  0  0  0  0  0  0  0  0  0  0  0
   -3.9116   -6.1392    0.0000 C   0  0  0  0  0  0  0  0  0  0  0  0
   -3.7625   -6.9506    0.0000 N   0  0  0  0  0  0  0  0  0  0  0  0
   -3.0184   -7.3069    0.0000 C   0  0  0  0  0  0  0  0  0  0  0  0
   -2.9550   -8.1295    0.0000 O   0  0  0  0  0  0  0  0  0  0  0  0
   -2.3378   -6.8407    0.0000 C   0  0  1  0  0  0  0  0  0  0  0  0
   -1.5937   -7.1970    0.0000 C   0  0  0  0  0  0  0  0  0  0  0  0
   -0.9131   -6.7308    0.0000 C   0  0  0  0  0  0  0  0  0  0  0  0
   -0.4809   -6.0280    0.0000 C   0  0  0  0  0  0  0  0  0  0  0  0
   -0.1690   -7.0871    0.0000 C   0  0  0  0  0  0  0  0  0  0  0  0
   -2.4012   -6.0181    0.0000 N   0  0  0  0  0  0  0  0  0  0  0  0
   -3.1453   -5.6618    0.0000 C   0  0  0  0  0  0  0  0  0  0  0  0
   -3.9700   -5.6389    0.0000 O   0  0  0  0  0  0  0  0  0  0  0  0
   -3.2088   -4.8393    0.0000 C   0  0  1  0  0  0  0  0  0  0  0  0
   -2.5281   -4.3730    0.0000 C   0  0  0  0  0  0  0  0  0  0  0  0
   -1.7841   -4.7294    0.0000 C   0  0  0  0  0  0  0  0  0  0  0  0
   -1.1034   -4.2631    0.0000 C   0  0  0  0  0  0  0  0  0  0  0  0
   -0.3594   -4.6195    0.0000 C   0  0  0  0  0  0  0  0  0  0  0  0
   -0.2959   -5.4420    0.0000 C   0  0  0  0  0  0  0  0  0  0  0  0
   -0.9765   -5.9082    0.0000 C   0  0  0  0  0  0  0  0  0  0  0  0
   -1.7206   -5.5519    0.0000 C   0  0  0  0  0  0  0  0  0  0  0  0
   -3.9529   -4.4829    0.0000 N   0  0  0  0  0  0  0  0  0  0  0  0
   -4.0163   -3.6604    0.0000 C   0  0  0  0  0  0  0  0  0  0  0  0
   -3.3357   -3.1941    0.0000 O   0  0  0  0  0  0  0  0  0  0  0  0
   -4.7604   -3.3040    0.0000 C   0  0  1  0  0  0  0  0  0  0  0  0
   -5.5518   -3.5371    0.0000 C   0  0  0  0  0  0  0  0  0  0  0  0
   -5.7456   -4.3390    0.0000 C   0  0  0  0  0  0  0  0  0  0  0  0
   -5.1481   -4.9078    0.0000 C   0  0  0  0  0  0  0  0  0  0  0  0
   -5.3419   -5.7098    0.0000 C   0  0  0  0  0  0  0  0  0  0  0  0
   -6.1333   -5.9428    0.0000 C   0  0  0  0  0  0  0  0  0  0  0  0
   -6.7308   -5.3740    0.0000 C   0  0  0  0  0  0  0  0  0  0  0  0
   -6.5370   -4.5721    0.0000 C   0  0  0  0  0  0  0  0  0  0  0  0
   -4.5665   -2.5021    0.0000 N   0  0  0  0  0  0  0  0  0  0  0  0
   -5.1641   -1.9333    0.0000 C   0  0  0  0  0  0  0  0  0  0  0  0
   -5.9555   -2.1664    0.0000 O   0  0  0  0  0  0  0  0  0  0  0  0
   -4.9703   -1.1314    0.0000 C   0  0  2  0  0  0  0  0  0  0  0  0
   -5.5678   -0.5626    0.0000 N   0  0  0  0  0  0  0  0  0  0  0  0
   -5.3740    0.2393    0.0000 C   0  0  0  0  0  0  0  0  0  0  0  0
   -4.5826    0.4724    0.0000 O   0  0  0  0  0  0  0  0  0  0  0  0
   -5.9715    0.8081    0.0000 C   0  0  1  0  0  0  0  0  0  0  0  0
   -6.7629    0.5751    0.0000 C   0  0  0  0  0  0  0  0  0  0  0  0
   -6.9567   -0.2268    0.0000 C   0  0  0  0  0  0  0  0  0  0  0  0
   -6.4219   -0.8550    0.0000 C   0  0  0  0  0  0  0  0  0  0  0  0
   -6.8541   -1.5578    0.0000 N   0  0  0  0  0  0  0  0  0  0  0  0
   -7.6560   -1.3639    0.0000 C   0  0  0  0  0  0  0  0  0  0  0  0
   -7.7194   -0.5414    0.0000 C   0  0  0  0  0  0  0  0  0  0  0  0
   -8.4635   -0.1850    0.0000 C   0  0  0  0  0  0  0  0  0  0  0  0
   -9.1441   -0.6513    0.0000 C   0  0  0  0  0  0  0  0  0  0  0  0
   -9.0807   -1.4738    0.0000 C   0  0  0  0  0  0  0  0  0  0  0  0
   -8.3366   -1.8302    0.0000 C   0  0  0  0  0  0  0  0  0  0  0  0
   -5.7777    1.6100    0.0000 N   0  0  0  0  0  0  0  0  0  0  0  0
   -6.3752    2.1789    0.0000 C   0  0  0  0  0  0  0  0  0  0  0  0
   -7.1666    1.9458    0.0000 O   0  0  0  0  0  0  0  0  0  0  0  0
   -6.1814    2.9808    0.0000 C   0  0  2  0  0  0  0  0  0  0  0  0
   -5.3900    3.2139    0.0000 N   0  0  0  0  0  0  0  0  0  0  0  0
   -6.7789    3.5496    0.0000 C   0  0  0  0  0  0  0  0  0  0  0  0
   -6.5851    4.3515    0.0000 C   0  0  0  0  0  0  0  0  0  0  0  0
   -5.8224    4.6660    0.0000 C   0  0  0  0  0  0  0  0  0  0  0  0
   -5.8859    5.4886    0.0000 N   0  0  0  0  0  0  0  0  0  0  0  0
   -6.6878    5.6824    0.0000 C   0  0  0  0  0  0  0  0  0  0  0  0
   -7.1199    4.9797    0.0000 C   0  0  0  0  0  0  0  0  0  0  0  0
   -7.9446    5.0025    0.0000 C   0  0  0  0  0  0  0  0  0  0  0  0
   -8.3371    5.7282    0.0000 C   0  0  0  0  0  0  0  0  0  0  0  0
   -7.9050    6.4309    0.0000 C   0  0  0  0  0  0  0  0  0  0  0  0
   -7.0803    6.4081    0.0000 C   0  0  0  0  0  0  0  0  0  0  0  0
   -4.1789   -0.8983    0.0000 C   0  0  1  0  0  0  0  0  0  0  0  0
   -3.5813   -1.4671    0.0000 C   0  0  0  0  0  0  0  0  0  0  0  0
   -3.9850   -0.0964    0.0000 O   0  0  0  0  0  0  0  0  0  0  0  0
   -2.0911  -10.9916    0.0000 C   0  0  1  0  0  0  0  0  0  0  0  0
   -1.4374  -11.4949    0.0000 C   0  0  0  0  0  0  0  0  0  0  0  0
   -1.9822  -10.1739    0.0000 O   0  0  0  0  0  0  0  0  0  0  0  0
   -1.7642  -13.9482    0.0000 C   0  0  0  0  0  0  0  0  0  0  0  0
   -1.0016  -13.6337    0.0000 O   0  0  0  0  0  0  0  0  0  0  0  0
   -1.8732  -14.7660    0.0000 N   0  0  0  0  0  0  0  0  0  0  0  0
   -1.2195  -15.2692    0.0000 C   0  0  2  0  0  0  0  0  0  0  0  0
   -1.3284  -16.0870    0.0000 C   0  0  0  0  0  0  0  0  0  0  0  0
   -2.0911  -16.4015    0.0000 C   0  0  0  0  0  0  0  0  0  0  0  0
   -2.7939  -15.9694    0.0000 C   0  0  0  0  0  0  0  0  0  0  0  0
   -3.4220  -16.5042    0.0000 N   0  0  0  0  0  0  0  0  0  0  0  0
   -3.1075  -17.2669    0.0000 C   0  0  0  0  0  0  0  0  0  0  0  0
   -2.2850  -17.2034    0.0000 C   0  0  0  0  0  0  0  0  0  0  0  0
   -1.8187  -17.8841    0.0000 C   0  0  0  0  0  0  0  0  0  0  0  0
   -2.1751  -18.6281    0.0000 C   0  0  0  0  0  0  0  0  0  0  0  0
   -2.9976  -18.6916    0.0000 C   0  0  0  0  0  0  0  0  0  0  0  0
   -3.4638  -18.0110    0.0000 C   0  0  0  0  0  0  0  0  0  0  0  0
   -0.4568  -14.9547    0.0000 C   0  0  0  0  0  0  0  0  0  0  0  0
    0.1970  -15.4580    0.0000 O   0  0  0  0  0  0  0  0  0  0  0  0
   -0.3478  -14.1369    0.0000 N   0  0  0  0  0  0  0  0  0  0  0  0
    0.4149  -13.8224    0.0000 C   0  0  2  0  0  0  0  0  0  0  0  0
    1.0686  -14.3256    0.0000 C   0  0  0  0  0  0  0  0  0  0  0  0
    1.8313  -14.0111    0.0000 C   0  0  0  0  0  0  0  0  0  0  0  0
    2.4850  -14.5144    0.0000 C   0  0  0  0  0  0  0  0  0  0  0  0
    2.3761  -15.3321    0.0000 O   0  0  0  0  0  0  0  0  0  0  0  0
    3.2477  -14.1998    0.0000 O   0  0  0  0  0  0  0  0  0  0  0  0
    0.5238  -13.0046    0.0000 C   0  0  0  0  0  0  0  0  0  0  0  0
   -0.1299  -12.5014    0.0000 O   0  0  0  0  0  0  0  0  0  0  0  0
    1.2865  -12.6901    0.0000 N   0  0  0  0  0  0  0  0  0  0  0  0
    1.3955  -11.8723    0.0000 C   0  0  2  0  0  0  0  0  0  0  0  0
    0.7417  -11.3691    0.0000 C   0  0  0  0  0  0  0  0  0  0  0  0
    0.8507  -10.5513    0.0000 C   0  0  0  0  0  0  0  0  0  0  0  0
    0.1970  -10.0481    0.0000 C   0  0  0  0  0  0  0  0  0  0  0  0
    0.3059   -9.2303    0.0000 N   0  0  0  0  0  0  0  0  0  0  0  0
   -0.3478   -8.7270    0.0000 C   0  0  0  0  0  0  0  0  0  0  0  0
   -1.1105   -9.0416    0.0000 N   0  0  0  0  0  0  0  0  0  0  0  0
   -0.2389   -7.9093    0.0000 N   0  0  0  0  0  0  0  0  0  0  0  0
    2.1582  -11.5578    0.0000 C   0  0  0  0  0  0  0  0  0  0  0  0
    2.8119  -12.0610    0.0000 O   0  0  0  0  0  0  0  0  0  0  0  0
    2.2671  -10.7400    0.0000 N   0  0  0  0  0  0  0  0  0  0  0  0
    3.0298  -10.4255    0.0000 C   0  0  2  0  0  0  0  0  0  0  0  0
    3.1388   -9.6077    0.0000 C   0  0  0  0  0  0  0  0  0  0  0  0
    3.9015   -9.2932    0.0000 C   0  0  0  0  0  0  0  0  0  0  0  0
    4.0104   -8.4754    0.0000 C   0  0  0  0  0  0  0  0  0  0  0  0
    4.7731   -8.1609    0.0000 C   0  0  0  0  0  0  0  0  0  0  0  0
    4.8821   -7.3431    0.0000 N   0  0  0  0  0  0  0  0  0  0  0  0
    3.6835  -10.9287    0.0000 C   0  0  0  0  0  0  0  0  0  0  0  0
    4.4462  -10.6142    0.0000 O   0  0  0  0  0  0  0  0  0  0  0  0
    3.5746  -11.7465    0.0000 O   0  0  0  0  0  0  0  0  0  0  0  0
  1  2  1  0  0  0  0
  2  3  1  0  0  0  0
  2  4  1  0  0  0  0
  5  4  1  0  0  0  0
  5  6  1  1  0  0  0
  6  7  1  0  0  0  0
  7  8  2  0  0  0  0
  9  7  1  0  0  0  0
  9 10  1  6  0  0  0
 10 11  1  0  0  0  0
 11 12  2  0  0  0  0
 13 11  1  0  0  0  0
 13 14  1  0  0  0  0
 14 15  1  0  0  0  0
 13 16  1  1  0  0  0
 16 17  1  0  0  0  0
 17 18  2  0  0  0  0
 19 17  1  1  0  0  0
 19 20  1  0  0  0  0
 20 21  1  0  0  0  0
 21 22  1  0  0  0  0
 22 23  1  0  0  0  0
 19 23  1  0  0  0  0
 23 24  1  0  0  0  0
 24 25  2  0  0  0  0
 26 24  1  0  0  0  0
 26 27  1  0  0  0  0
 27 28  1  0  0  0  0
 28 29  1  0  0  0  0
 28 30  1  0  0  0  0
 26 31  1  6  0  0  0
 31 32  1  0  0  0  0
 32 33  2  0  0  0  0
 34 32  1  0  0  0  0
 34 35  1  0  0  0  0
 35 36  1  0  0  0  0
 36 37  2  0  0  0  0
 37 38  1  0  0  0  0
 38 39  2  0  0  0  0
 39 40  1  0  0  0  0
 40 41  2  0  0  0  0
 36 41  1  0  0  0  0
 34 42  1  6  0  0  0
 42 43  1  0  0  0  0
 43 44  2  0  0  0  0
 45 43  1  0  0  0  0
 45 46  1  0  0  0  0
 46 47  1  0  0  0  0
 47 48  2  0  0  0  0
 48 49  1  0  0  0  0
 49 50  2  0  0  0  0
 50 51  1  0  0  0  0
 51 52  2  0  0  0  0
 47 52  1  0  0  0  0
 45 53  1  1  0  0  0
 53 54  1  0  0  0  0
 54 55  2  0  0  0  0
 56 54  1  0  0  0  0
 56 57  1  6  0  0  0
 57 58  1  0  0  0  0
 58 59  2  0  0  0  0
 60 58  1  0  0  0  0
 60 61  1  0  0  0  0
 61 62  1  0  0  0  0
 62 63  2  0  0  0  0
 63 64  1  0  0  0  0
 64 65  1  0  0  0  0
 65 66  2  0  0  0  0
 62 66  1  0  0  0  0
 66 67  1  0  0  0  0
 67 68  2  0  0  0  0
 68 69  1  0  0  0  0
 69 70  2  0  0  0  0
 65 70  1  0  0  0  0
 60 71  1  1  0  0  0
 71 72  1  0  0  0  0
 72 73  2  0  0  0  0
 74 72  1  0  0  0  0
 74 75  1  1  0  0  0
 74 76  1  0  0  0  0
 76 77  1  0  0  0  0
 77 78  2  0  0  0  0
 78 79  1  0  0  0  0
 79 80  1  0  0  0  0
 80 81  2  0  0  0  0
 77 81  1  0  0  0  0
 81 82  1  0  0  0  0
 82 83  2  0  0  0  0
 83 84  1  0  0  0  0
 84 85  2  0  0  0  0
 80 85  1  0  0  0  0
 56 86  1  0  0  0  0
 86 87  1  0  0  0  0
 86 88  1  6  0  0  0
  9 89  1  0  0  0  0
 89 90  1  0  0  0  0
 89 91  1  6  0  0  0
  5 92  1  0  0  0  0
 92 93  2  0  0  0  0
 92 94  1  0  0  0  0
 95 94  1  1  0  0  0
 95 96  1  0  0  0  0
 96 97  1  0  0  0  0
 97 98  2  0  0  0  0
 98 99  1  0  0  0  0
 99100  1  0  0  0  0
100101  2  0  0  0  0
 97101  1  0  0  0  0
101102  1  0  0  0  0
102103  2  0  0  0  0
103104  1  0  0  0  0
104105  2  0  0  0  0
100105  1  0  0  0  0
 95106  1  0  0  0  0
106107  2  0  0  0  0
106108  1  0  0  0  0
109108  1  1  0  0  0
109110  1  0  0  0  0
110111  1  0  0  0  0
111112  1  0  0  0  0
112113  1  0  0  0  0
112114  2  0  0  0  0
109115  1  0  0  0  0
115116  2  0  0  0  0
115117  1  0  0  0  0
118117  1  6  0  0  0
118119  1  0  0  0  0
119120  1  0  0  0  0
120121  1  0  0  0  0
121122  1  0  0  0  0
122123  1  0  0  0  0
123124  1  0  0  0  0
123125  2  0  0  0  0
118126  1  0  0  0  0
126127  2  0  0  0  0
126128  1  0  0  0  0
129128  1  6  0  0  0
129130  1  0  0  0  0
130131  1  0  0  0  0
131132  1  0  0  0  0
132133  1  0  0  0  0
133134  1  0  0  0  0
129135  1  0  0  0  0
135136  1  0  0  0  0
135137  2  0  0  0  0
M  END
> <DATABASE_ID>
DB14786

> <DATABASE_NAME>
drugbank

> <SMILES>
CC(C)C[C@@H](NC(=O)[C@H](NC(=O)[C@@H](CO)NC(=O)[C@H]1CCCN1C(=O)[C@@H](CC(C)C)NC(=O)[C@@H](CC1=CC=CC=C1)NC(=O)[C@@H](CC1=CC=CC=C1)NC(=O)[C@H](NC(=O)[C@@H](CC1=CNC2=C1C=CC=C2)NC(=O)[C@H](N)CC1=CNC2=C1C=CC=C2)[C@@H](C)O)[C@@H](C)O)C(=O)N[C@H](CC1=CNC2=C1C=CC=C2)C(=O)N[C@H](CCC(O)=O)C(=O)N[C@H](CCCNC(N)=N)C(=O)N[C@H](CCCCN)C(O)=O

> <INCHI_IDENTIFIER>
InChI=1S/C96H129N21O20/c1-52(2)41-71(85(126)110-74(46-59-49-103-66-31-17-14-28-62(59)66)88(129)106-69(36-37-79(121)122)84(125)105-68(34-21-39-101-96(99)100)83(124)107-70(95(136)137)33-19-20-38-97)111-92(133)81(55(6)120)116-90(131)77(51-118)114-91(132)78-35-22-40-117(78)94(135)76(42-53(3)4)113-87(128)72(43-56-23-9-7-10-24-56)109-86(127)73(44-57-25-11-8-12-26-57)112-93(134)80(54(5)119)115-89(130)75(47-60-50-104-67-32-18-15-29-63(60)67)108-82(123)64(98)45-58-48-102-65-30-16-13-27-61(58)65/h7-18,23-32,48-50,52-55,64,68-78,80-81,102-104,118-120H,19-22,33-47,51,97-98H2,1-6H3,(H,105,125)(H,106,129)(H,107,124)(H,108,123)(H,109,127)(H,110,126)(H,111,133)(H,112,134)(H,113,128)(H,114,132)(H,115,130)(H,116,131)(H,121,122)(H,136,137)(H4,99,100,101)/t54-,55-,64-,68-,69-,70-,71-,72-,73-,74-,75-,76-,77-,78-,80-,81-/m1/s1

> <INCHI_KEY>
FNQVICDIQNFNHD-AXBBNSRTSA-N

> <FORMULA>
C96H129N21O20

> <MOLECULAR_WEIGHT>
1897.215

> <EXACT_MASS>
1895.972275638

> <JCHEM_ACCEPTOR_COUNT>
25

> <JCHEM_ATOM_COUNT>
266

> <JCHEM_AVERAGE_POLARIZABILITY>
199.4129945937332

> <JCHEM_BIOAVAILABILITY>
0

> <JCHEM_DONOR_COUNT>
25

> <JCHEM_FORMAL_CHARGE>
0

> <JCHEM_GHOSE_FILTER>
0

> <JCHEM_IUPAC>
(2R)-6-amino-2-[(2R)-2-[(2R)-2-[(2R)-2-[(2R)-2-[(2R,3R)-2-[(2R)-2-{[(2R)-1-[(2R)-2-[(2R)-2-[(2R)-2-[(2R,3R)-2-[(2R)-2-[(2R)-2-amino-3-(1H-indol-3-yl)propanamido]-3-(1H-indol-3-yl)propanamido]-3-hydroxybutanamido]-3-phenylpropanamido]-3-phenylpropanamido]-4-methylpentanoyl]pyrrolidin-2-yl]formamido}-3-hydroxypropanamido]-3-hydroxybutanamido]-4-methylpentanamido]-3-(1H-indol-3-yl)propanamido]-4-carboxybutanamido]-5-carbamimidamidopentanamido]hexanoic acid

> <ALOGPS_LOGP>
-0.76

> <JCHEM_LOGP>
-3.8492661360065146

> <ALOGPS_LOGS>
-5.23

> <JCHEM_MDDR_LIKE_RULE>
1

> <JCHEM_NUMBER_OF_RINGS>
9

> <JCHEM_PHYSIOLOGICAL_CHARGE>
1

> <JCHEM_PKA>
3.9147647900246367

> <JCHEM_PKA_STRONGEST_ACIDIC>
3.3085562235651405

> <JCHEM_PKA_STRONGEST_BASIC>
11.474279012031664

> <JCHEM_POLAR_SURFACE_AREA>
666.11

> <JCHEM_REFRACTIVITY>
511.75139999999993

> <JCHEM_ROTATABLE_BOND_COUNT>
54

> <JCHEM_RULE_OF_FIVE>
0

> <ALOGPS_SOLUBILITY>
1.11e-02 g/l

> <JCHEM_TRADITIONAL_IUPAC>
(2R)-14-fluoro-2-methyl-6,9,10,19-tetraazapentacyclo[14.2.1.0^{2,6}.0^{8,18}.0^{12,17}]nonadeca-1(18),8,12(17),13,15-pentaen-11-one

> <JCHEM_VEBER_RULE>
0

> <DRUGBANK_ID>
DB14786

> <DRUG_GROUPS>
investigational

> <GENERIC_NAME>
Nerofe

> <SYNONYMS>
TRP-TRP-THR-PHE-PHE-LEU-PRO-SER-THR-LEU-TRP-GLU-ARG-LYS, (ALL D)-; tumor-cells apoptosis factor; tumor-cells apoptosis factor hormone-peptide; WWTFFLPSTLWERK, (ALL D)-

$$$$
