
  Mrv1909 12152018132D          

122133  0  0  1  0            999 V2000
   -8.5148   -1.9266    0.0000 H   0  0  0  0  0  0  0  0  0  0  0  0
   -8.8426   -2.6837    0.0000 C   0  0  2  0  0  0  0  0  0  0  0  0
   -9.1705   -3.4408    0.0000 C   0  0  0  0  0  0  0  0  0  0  0  0
   -9.9900   -3.5354    0.0000 C   0  0  0  0  0  0  0  0  0  0  0  0
  -10.4681   -4.2078    0.0000 C   0  0  0  0  0  0  0  0  0  0  0  0
  -11.2553   -3.9609    0.0000 N   0  0  0  0  0  0  0  0  0  0  0  0
  -11.2637   -3.1359    0.0000 C   0  0  0  0  0  0  0  0  0  0  0  0
  -10.4818   -2.8730    0.0000 C   0  0  0  0  0  0  0  0  0  0  0  0
  -10.1539   -2.1159    0.0000 C   0  0  0  0  0  0  0  0  0  0  0  0
  -10.9372   -1.5186    0.0000 C   0  0  0  0  0  0  0  0  0  0  0  0
  -11.7192   -1.7815    0.0000 C   0  0  0  0  0  0  0  0  0  0  0  0
  -11.8824   -2.5902    0.0000 C   0  0  0  0  0  0  0  0  0  0  0  0
   -9.3344   -2.0213    0.0000 C   0  0  1  0  0  0  0  0  0  0  0  0
   -9.8261   -1.3588    0.0000 H   0  0  0  0  0  0  0  0  0  0  0  0
   -9.0066   -1.2642    0.0000 C   0  0  0  0  0  0  0  0  0  0  0  0
   -8.1870   -1.1696    0.0000 C   0  0  1  0  0  0  0  0  0  0  0  0
   -7.8592   -0.4125    0.0000 C   0  0  0  0  0  0  0  0  0  0  0  0
   -7.0396   -0.3179    0.0000 S   0  0  0  0  0  0  0  0  0  0  0  0
   -6.7118    0.4392    0.0000 C   0  0  0  0  0  0  0  0  0  0  0  0
   -5.8922    0.5338    0.0000 C   0  0  0  0  0  0  0  0  0  0  0  0
   -5.4005   -0.1286    0.0000 O   0  0  0  0  0  0  0  0  0  0  0  0
   -5.5644    1.2909    0.0000 N   0  0  0  0  0  0  0  0  0  0  0  0
   -4.7449    1.3855    0.0000 C   0  0  0  0  0  0  0  0  0  0  0  0
   -4.4171    2.1426    0.0000 C   0  0  0  0  0  0  0  0  0  0  0  0
   -3.5975    2.2373    0.0000 C   0  0  0  0  0  0  0  0  0  0  0  0
   -3.2697    2.9943    0.0000 C   0  0  0  0  0  0  0  0  0  0  0  0
   -2.4501    3.0890    0.0000 C   0  0  1  0  0  0  0  0  0  0  0  0
   -1.9584    2.4265    0.0000 N   0  0  0  0  0  0  0  0  0  0  0  0
   -2.2862    1.6694    0.0000 C   0  0  0  0  0  0  0  0  0  0  0  0
   -3.1058    1.5748    0.0000 O   0  0  0  0  0  0  0  0  0  0  0  0
   -1.7945    1.0070    0.0000 C   0  0  0  0  0  0  0  0  0  0  0  0
   -2.1223    0.2499    0.0000 S   0  0  0  0  0  0  0  0  0  0  0  0
   -1.6306   -0.4125    0.0000 C   0  0  0  0  0  0  0  0  0  0  0  0
   -1.9584   -1.1696    0.0000 C   0  0  1  0  0  0  0  0  0  0  0  0
   -1.4667   -1.8320    0.0000 C   0  0  0  0  0  0  0  0  0  0  0  0
   -1.7945   -2.5891    0.0000 N   0  0  0  0  0  0  0  0  0  0  0  0
   -1.3027   -3.2515    0.0000 C   0  0  0  0  0  0  0  0  0  0  0  0
   -0.4832   -3.1569    0.0000 C   0  0  0  0  0  0  0  0  0  0  0  0
    0.0085   -3.8193    0.0000 C   0  0  0  0  0  0  0  0  0  0  0  0
   -2.6140   -2.6837    0.0000 C   0  0  2  0  0  0  0  0  0  0  0  0
   -3.4336   -2.7783    0.0000 H   0  0  0  0  0  0  0  0  0  0  0  0
   -2.9419   -3.4408    0.0000 C   0  0  0  0  0  0  0  0  0  0  0  0
   -3.7614   -3.5354    0.0000 C   0  0  0  0  0  0  0  0  0  0  0  0
   -4.2395   -4.2078    0.0000 C   0  0  0  0  0  0  0  0  0  0  0  0
   -5.0267   -3.9609    0.0000 N   0  0  0  0  0  0  0  0  0  0  0  0
   -5.0351   -3.1359    0.0000 C   0  0  0  0  0  0  0  0  0  0  0  0
   -4.2531   -2.8730    0.0000 C   0  0  0  0  0  0  0  0  0  0  0  0
   -3.9253   -2.1159    0.0000 C   0  0  0  0  0  0  0  0  0  0  0  0
   -4.7086   -1.5186    0.0000 C   0  0  0  0  0  0  0  0  0  0  0  0
   -5.4906   -1.7815    0.0000 C   0  0  0  0  0  0  0  0  0  0  0  0
   -5.6538   -2.5902    0.0000 C   0  0  0  0  0  0  0  0  0  0  0  0
   -3.1058   -2.0213    0.0000 C   0  0  1  0  0  0  0  0  0  0  0  0
   -3.5975   -1.3588    0.0000 H   0  0  0  0  0  0  0  0  0  0  0  0
   -2.7779   -1.2642    0.0000 C   0  0  0  0  0  0  0  0  0  0  0  0
   -2.1223    3.8460    0.0000 C   0  0  0  0  0  0  0  0  0  0  0  0
   -2.6140    4.5085    0.0000 O   0  0  0  0  0  0  0  0  0  0  0  0
   -1.3027    3.9407    0.0000 N   0  0  0  0  0  0  0  0  0  0  0  0
   -0.9749    4.6977    0.0000 C   0  0  1  0  0  0  0  0  0  0  0  0
   -1.7945    4.6031    0.0000 C   0  0  0  0  0  0  0  0  0  0  0  0
   -2.2862    5.2655    0.0000 S   0  0  0  0  0  0  0  0  0  0  0  0
   -1.9584    6.0226    0.0000 S   0  0  0  0  0  0  0  0  0  0  0  0
   -1.1388    6.1172    0.0000 C   0  0  0  0  0  0  0  0  0  0  0  0
   -0.8110    6.8743    0.0000 C   0  0  2  0  0  0  0  0  0  0  0  0
    0.0085    6.9690    0.0000 N   0  0  0  0  0  0  0  0  0  0  0  0
    0.3364    7.7260    0.0000 C   0  0  0  0  0  0  0  0  0  0  0  0
   -0.1554    8.3885    0.0000 O   0  0  0  0  0  0  0  0  0  0  0  0
    1.1559    7.8207    0.0000 C   0  0  2  0  0  0  0  0  0  0  0  0
    0.6642    8.4831    0.0000 C   0  0  0  0  0  0  0  0  0  0  0  0
    0.9920    9.2402    0.0000 C   0  0  0  0  0  0  0  0  0  0  0  0
    1.4837    8.5777    0.0000 N   0  0  0  0  0  0  0  0  0  0  0  0
    2.3033    8.6724    0.0000 C   0  0  0  0  0  0  0  0  0  0  0  0
    2.6311    9.4294    0.0000 O   0  0  0  0  0  0  0  0  0  0  0  0
    2.7950    8.0099    0.0000 C   0  0  2  0  0  0  0  0  0  0  0  0
    3.6146    8.1046    0.0000 C   0  0  0  0  0  0  0  0  0  0  0  0
    3.9424    8.8616    0.0000 C   0  0  0  0  0  0  0  0  0  0  0  0
    3.4507    9.5241    0.0000 C   0  0  0  0  0  0  0  0  0  0  0  0
    3.7785   10.2811    0.0000 C   0  0  0  0  0  0  0  0  0  0  0  0
    3.2868   10.9436    0.0000 N   0  0  0  0  0  0  0  0  0  0  0  0
    2.4672    7.2529    0.0000 N   0  0  0  0  0  0  0  0  0  0  0  0
    2.9589    6.5904    0.0000 C   0  0  0  0  0  0  0  0  0  0  0  0
    3.7785    6.6850    0.0000 O   0  0  0  0  0  0  0  0  0  0  0  0
    2.6311    5.8333    0.0000 C   0  0  1  0  0  0  0  0  0  0  0  0
    3.1228    5.1709    0.0000 C   0  0  0  0  0  0  0  0  0  0  0  0
    3.9424    5.2655    0.0000 C   0  0  0  0  0  0  0  0  0  0  0  0
    4.3476    5.9842    0.0000 C   0  0  0  0  0  0  0  0  0  0  0  0
    5.1563    5.8209    0.0000 N   0  0  0  0  0  0  0  0  0  0  0  0
    5.2509    5.0014    0.0000 C   0  0  0  0  0  0  0  0  0  0  0  0
    4.5007    4.6581    0.0000 C   0  0  0  0  0  0  0  0  0  0  0  0
    4.4229    3.8368    0.0000 C   0  0  0  0  0  0  0  0  0  0  0  0
    5.0952    3.3587    0.0000 C   0  0  0  0  0  0  0  0  0  0  0  0
    5.8454    3.7020    0.0000 C   0  0  0  0  0  0  0  0  0  0  0  0
    5.9233    4.5233    0.0000 C   0  0  0  0  0  0  0  0  0  0  0  0
    1.8116    5.7387    0.0000 N   0  0  0  0  0  0  0  0  0  0  0  0
    1.4837    4.9816    0.0000 C   0  0  0  0  0  0  0  0  0  0  0  0
    1.9755    4.3192    0.0000 O   0  0  0  0  0  0  0  0  0  0  0  0
    0.6642    4.8870    0.0000 C   0  0  2  0  0  0  0  0  0  0  0  0
    1.1559    4.2246    0.0000 C   0  0  0  0  0  0  0  0  0  0  0  0
    0.8281    3.4675    0.0000 C   0  0  0  0  0  0  0  0  0  0  0  0
    1.3198    2.8051    0.0000 C   0  0  0  0  0  0  0  0  0  0  0  0
    0.9920    2.0480    0.0000 C   0  0  0  0  0  0  0  0  0  0  0  0
    0.1725    1.9533    0.0000 C   0  0  0  0  0  0  0  0  0  0  0  0
   -0.1554    1.1963    0.0000 O   0  0  0  0  0  0  0  0  0  0  0  0
   -0.3193    2.6158    0.0000 C   0  0  0  0  0  0  0  0  0  0  0  0
    0.0085    3.3729    0.0000 C   0  0  0  0  0  0  0  0  0  0  0  0
    0.3364    4.1299    0.0000 N   0  0  0  0  0  0  0  0  0  0  0  0
   -0.4832    4.0353    0.0000 C   0  0  0  0  0  0  0  0  0  0  0  0
   -0.8110    3.2782    0.0000 O   0  0  0  0  0  0  0  0  0  0  0  0
   -1.3027    7.5368    0.0000 C   0  0  0  0  0  0  0  0  0  0  0  0
   -0.9749    8.2938    0.0000 O   0  0  0  0  0  0  0  0  0  0  0  0
   -2.1223    7.4421    0.0000 N   0  0  0  0  0  0  0  0  0  0  0  0
   -2.6140    8.1046    0.0000 C   0  0  1  0  0  0  0  0  0  0  0  0
   -2.2862    8.8616    0.0000 C   0  0  1  0  0  0  0  0  0  0  0  0
   -2.7779    9.5241    0.0000 C   0  0  0  0  0  0  0  0  0  0  0  0
   -1.4667    8.9563    0.0000 O   0  0  0  0  0  0  0  0  0  0  0  0
   -3.4336    8.0099    0.0000 C   0  0  0  0  0  0  0  0  0  0  0  0
   -3.7614    7.2529    0.0000 N   0  0  0  0  0  0  0  0  0  0  0  0
   -3.9253    8.6724    0.0000 O   0  0  0  0  0  0  0  0  0  0  0  0
   -7.6953   -1.8320    0.0000 C   0  0  0  0  0  0  0  0  0  0  0  0
   -8.0231   -2.5891    0.0000 N   0  0  0  0  0  0  0  0  0  0  0  0
   -7.5314   -3.2515    0.0000 C   0  0  0  0  0  0  0  0  0  0  0  0
   -6.7118   -3.1569    0.0000 C   0  0  0  0  0  0  0  0  0  0  0  0
   -6.2201   -3.8193    0.0000 C   0  0  0  0  0  0  0  0  0  0  0  0
  2  1  1  1  0  0  0
  2  3  1  0  0  0  0
  3  4  1  0  0  0  0
  4  5  2  0  0  0  0
  5  6  1  0  0  0  0
  6  7  1  0  0  0  0
  7  8  2  0  0  0  0
  4  8  1  0  0  0  0
  8  9  1  0  0  0  0
  9 10  2  0  0  0  0
 10 11  1  0  0  0  0
 11 12  2  0  0  0  0
  7 12  1  0  0  0  0
 13  9  1  0  0  0  0
  2 13  1  0  0  0  0
 13 14  1  6  0  0  0
 13 15  1  0  0  0  0
 16 15  1  0  0  0  0
 16 17  1  1  0  0  0
 17 18  1  0  0  0  0
 18 19  1  0  0  0  0
 19 20  1  0  0  0  0
 20 21  2  0  0  0  0
 20 22  1  0  0  0  0
 22 23  1  0  0  0  0
 23 24  1  0  0  0  0
 24 25  1  0  0  0  0
 25 26  1  0  0  0  0
 27 26  1  0  0  0  0
 27 28  1  6  0  0  0
 28 29  1  0  0  0  0
 29 30  2  0  0  0  0
 29 31  1  0  0  0  0
 31 32  1  0  0  0  0
 32 33  1  0  0  0  0
 34 33  1  1  0  0  0
 34 35  1  0  0  0  0
 35 36  1  0  0  0  0
 36 37  1  0  0  0  0
 37 38  1  0  0  0  0
 38 39  1  0  0  0  0
 40 36  1  0  0  0  0
 40 41  1  1  0  0  0
 40 42  1  0  0  0  0
 42 43  1  0  0  0  0
 43 44  2  0  0  0  0
 44 45  1  0  0  0  0
 45 46  1  0  0  0  0
 46 47  2  0  0  0  0
 43 47  1  0  0  0  0
 47 48  1  0  0  0  0
 48 49  2  0  0  0  0
 49 50  1  0  0  0  0
 50 51  2  0  0  0  0
 46 51  1  0  0  0  0
 52 48  1  0  0  0  0
 40 52  1  0  0  0  0
 52 53  1  6  0  0  0
 52 54  1  0  0  0  0
 34 54  1  0  0  0  0
 27 55  1  0  0  0  0
 55 56  2  0  0  0  0
 55 57  1  0  0  0  0
 58 57  1  6  0  0  0
 58 59  1  1  0  0  0
 59 60  1  0  0  0  0
 60 61  1  0  0  0  0
 61 62  1  0  0  0  0
 63 62  1  0  0  0  0
 63 64  1  0  0  0  0
 64 65  1  0  0  0  0
 65 66  2  0  0  0  0
 67 65  1  0  0  0  0
 67 68  1  1  0  0  0
 68 69  1  0  0  0  0
 67 70  1  6  0  0  0
 70 71  1  0  0  0  0
 71 72  2  0  0  0  0
 73 71  1  0  0  0  0
 73 74  1  6  0  0  0
 74 75  1  0  0  0  0
 75 76  1  0  0  0  0
 76 77  1  0  0  0  0
 77 78  1  0  0  0  0
 73 79  1  0  0  0  0
 79 80  1  0  0  0  0
 80 81  2  0  0  0  0
 82 80  1  0  0  0  0
 82 83  1  1  0  0  0
 83 84  1  0  0  0  0
 84 85  2  0  0  0  0
 85 86  1  0  0  0  0
 86 87  1  0  0  0  0
 87 88  2  0  0  0  0
 84 88  1  0  0  0  0
 88 89  1  0  0  0  0
 89 90  2  0  0  0  0
 90 91  1  0  0  0  0
 91 92  2  0  0  0  0
 87 92  1  0  0  0  0
 82 93  1  0  0  0  0
 93 94  1  0  0  0  0
 94 95  2  0  0  0  0
 96 94  1  0  0  0  0
 96 97  1  1  0  0  0
 97 98  1  0  0  0  0
 98 99  2  0  0  0  0
 99100  1  0  0  0  0
100101  2  0  0  0  0
101102  1  0  0  0  0
101103  1  0  0  0  0
103104  2  0  0  0  0
 98104  1  0  0  0  0
 96105  1  6  0  0  0
105106  1  0  0  0  0
 58106  1  0  0  0  0
106107  2  0  0  0  0
 63108  1  1  0  0  0
108109  2  0  0  0  0
108110  1  0  0  0  0
111110  1  6  0  0  0
111112  1  0  0  0  0
112113  1  0  0  0  0
112114  1  1  0  0  0
111115  1  0  0  0  0
115116  1  0  0  0  0
115117  2  0  0  0  0
 16118  1  0  0  0  0
118119  1  0  0  0  0
  2119  1  0  0  0  0
119120  1  0  0  0  0
120121  1  0  0  0  0
121122  1  0  0  0  0
M  END
> <DATABASE_ID>
DB16144

> <DATABASE_NAME>
drugbank

> <SMILES>
[H][C@@]12CC3=CNC4=C3C(=CC=C4)[C@@]1([H])C[C@@H](CSCC(=O)NCCCC[C@@H](NC(=O)CSC[C@H]1CN(CCC)[C@]3([H])CC4=CNC5=C4C(=CC=C5)[C@@]3([H])C1)C(=O)N[C@H]1CSSC[C@H](NC(=O)[C@H](CC)NC(=O)[C@H](CCCCN)NC(=O)[C@@H](CC3=CNC4=C3C=CC=C4)NC(=O)[C@H](CC3=CC=C(O)C=C3)NC1=O)C(=O)N[C@@H]([C@@H](C)O)C(N)=O)CN2CCC

> <INCHI_IDENTIFIER>
InChI=1S/C86H116N16O12S4/c1-5-30-101-41-51(32-60-58-17-14-22-64-76(58)54(39-91-64)36-72(60)101)43-115-47-74(105)89-29-13-11-21-66(93-75(106)48-116-44-52-33-61-59-18-15-23-65-77(59)55(40-92-65)37-73(61)102(42-52)31-6-2)81(109)99-70-45-117-118-46-71(86(114)100-78(49(4)103)79(88)107)98-80(108)62(7-3)94-82(110)67(20-10-12-28-87)95-84(112)69(35-53-38-90-63-19-9-8-16-57(53)63)97-83(111)68(96-85(70)113)34-50-24-26-56(104)27-25-50/h8-9,14-19,22-27,38-40,49,51-52,60-62,66-73,78,90-92,103-104H,5-7,10-13,20-21,28-37,41-48,87H2,1-4H3,(H2,88,107)(H,89,105)(H,93,106)(H,94,110)(H,95,112)(H,96,113)(H,97,111)(H,98,108)(H,99,109)(H,100,114)/t49-,51-,52-,60-,61-,62?,66-,67+,68?,69-,70?,71+,72-,73-,78+/m1/s1

> <INCHI_KEY>
WLBJBODHTIKYSL-RXHQQAJBSA-N

> <FORMULA>
C86H116N16O12S4

> <MOLECULAR_WEIGHT>
1694.21

> <EXACT_MASS>
1692.784147935

> <JCHEM_ACCEPTOR_COUNT>
15

> <JCHEM_ATOM_COUNT>
234

> <JCHEM_AVERAGE_NEUTRAL_MICROSPECIES_CHARGE>
2.9893278503715512

> <JCHEM_AVERAGE_POLARIZABILITY>
185.66392041330587

> <JCHEM_BIOAVAILABILITY>
0

> <JCHEM_DONOR_COUNT>
16

> <JCHEM_FORMAL_CHARGE>
0

> <JCHEM_GHOSE_FILTER>
0

> <JCHEM_IUPAC>
(2R)-N-[(4R,7S,10S,13R,16S,19R)-10-(4-aminobutyl)-4-{[(1S,2R)-1-carbamoyl-2-hydroxypropyl]carbamoyl}-7-ethyl-16-[(4-hydroxyphenyl)methyl]-13-[(1H-indol-3-yl)methyl]-6,9,12,15,18-pentaoxo-1,2-dithia-5,8,11,14,17-pentaazacycloicosan-19-yl]-2,6-bis[2-({[(2R,4R,7R)-6-propyl-6,11-diazatetracyclo[7.6.1.0^{2,7}.0^{12,16}]hexadeca-1(15),9,12(16),13-tetraen-4-yl]methyl}sulfanyl)acetamido]hexanamide

> <ALOGPS_LOGP>
4.88

> <JCHEM_LOGP>
3.2046458867851646

> <ALOGPS_LOGS>
-5.81

> <JCHEM_MDDR_LIKE_RULE>
1

> <JCHEM_NEUTRAL_CHARGE>
3

> <JCHEM_NUMBER_OF_RINGS>
12

> <JCHEM_PHYSIOLOGICAL_CHARGE>
3

> <JCHEM_PKA>
11.408408760621798

> <JCHEM_PKA_STRONGEST_ACIDIC>
9.809646601645122

> <JCHEM_PKA_STRONGEST_BASIC>
10.358513581835778

> <JCHEM_POLAR_SURFACE_AREA>
425.31999999999994

> <JCHEM_REFRACTIVITY>
464.79279999999994

> <JCHEM_ROTATABLE_BOND_COUNT>
33

> <JCHEM_RULE_OF_FIVE>
0

> <ALOGPS_SOLUBILITY>
2.65e-03 g/l

> <JCHEM_TRADITIONAL_IUPAC>
2-methoxy-4-[(1E)-3-[4-(nitrooxy)butoxy]-3-oxoprop-1-en-1-yl]phenyl (4R)-4-[(1R,3aS,3bR,4S,5aS,7R,9aS,9bS,11aR)-4,7-dihydroxy-9a,11a-dimethyl-tetradecahydro-1H-cyclopenta[a]phenanthren-1-yl]pentanoate

> <JCHEM_VEBER_RULE>
0

> <DRUGBANK_ID>
DB16144

> <DRUG_GROUPS>
investigational

> <GENERIC_NAME>
Dopastatin

$$$$
