
  Mrv1909 05112117412D          

 69 72  0  0  1  0            999 V2000
   -0.2674    0.7894    0.0000 C   0  0  0  0  0  0  0  0  0  0  0  0
    1.1615   -0.0357    0.0000 O   0  0  0  0  0  0  0  0  0  0  0  0
    0.4470   -0.4480    0.0000 C   0  0  1  0  0  0  0  0  0  0  0  0
   -0.2674   -0.0357    0.0000 C   0  0  0  0  0  0  0  0  0  0  0  0
    2.5905   -0.0357    0.0000 C   0  0  0  0  0  0  0  0  0  0  0  0
    1.8760   -0.4481    0.0000 C   0  0  2  0  0  0  0  0  0  0  0  0
    3.3050    1.2019    0.0000 C   0  0  0  0  0  0  0  0  0  0  0  0
    4.0195    0.7893    0.0000 C   0  0  0  0  0  0  0  0  0  0  0  0
    4.0195   -0.0357    0.0000 O   0  0  0  0  0  0  0  0  0  0  0  0
    3.3050   -0.4481    0.0000 C   0  0  1  0  0  0  0  0  0  0  0  0
    1.8760   -1.2731    0.0000 C   0  0  0  0  0  0  0  0  0  0  0  0
    1.1615   -1.6857    0.0000 C   0  0  0  0  0  0  0  0  0  0  0  0
    0.4470   -1.2731    0.0000 C   0  0  2  0  0  0  0  0  0  0  0  0
   -0.9818    1.2019    0.0000 C   0  0  0  0  0  0  0  0  0  0  0  0
   -0.9818    2.0269    0.0000 C   0  0  1  0  0  0  0  0  0  0  0  0
   -1.6963    2.4394    0.0000 C   0  0  0  0  0  0  0  0  0  0  0  0
   -1.6963    3.2644    0.0000 C   0  0  0  0  0  0  0  0  0  0  0  0
   -0.9818    3.6769    0.0000 C   0  0  0  0  0  0  0  0  0  0  0  0
   -0.2674    3.2644    0.0000 C   0  0  2  0  0  0  0  0  0  0  0  0
   -0.2674    2.4394    0.0000 O   0  0  0  0  0  0  0  0  0  0  0  0
    0.4470    3.6769    0.0000 C   0  0  0  0  0  0  0  0  0  0  0  0
    1.1616    3.2644    0.0000 C   0  0  2  0  0  0  0  0  0  0  0  0
    1.1616    2.4394    0.0000 O   0  0  0  0  0  0  0  0  0  0  0  0
    1.8761    3.6768    0.0000 C   0  0  0  0  0  0  0  0  0  0  0  0
    2.5905    3.2643    0.0000 C   0  0  2  0  0  0  0  0  0  0  0  0
    2.5905    2.4393    0.0000 C   0  0  0  0  0  0  0  0  0  0  0  0
    1.8760    2.0268    0.0000 C   0  0  1  0  0  0  0  0  0  0  0  0
    2.5695    0.8943    0.0000 C   0  0  1  0  0  0  0  0  0  0  0  0
    1.8760    1.2019    0.0000 C   0  0  0  0  0  0  0  0  0  0  0  0
   -1.0924   -0.0357    0.0000 C   0  0  0  0  0  0  0  0  0  0  0  0
   -0.2674   -0.8607    0.0000 C   0  0  0  0  0  0  0  0  0  0  0  0
    0.4296    0.3697    0.0000 O   0  0  0  0  0  0  0  0  0  0  0  0
    1.8688    0.3293    0.0000 H   0  0  0  0  0  0  0  0  0  0  0  0
    2.7216   -1.0316    0.0000 H   0  0  0  0  0  0  0  0  0  0  0  0
    4.7340    1.2018    0.0000 O   0  0  0  0  0  0  0  0  0  0  0  0
    3.3050   -1.2731    0.0000 C   0  0  2  0  0  0  0  0  0  0  0  0
    3.9340   -1.7596    0.0000 O   0  0  0  0  0  0  0  0  0  0  0  0
    2.9053   -1.7487    0.0000 C   0  0  0  0  0  0  0  0  0  0  0  0
    2.5978    0.3494    0.0000 O   0  0  0  0  0  0  0  0  0  0  0  0
    1.7125    4.1763    0.0000 C   0  0  0  0  0  0  0  0  0  0  0  0
    2.2886    4.1814    0.0000 C   0  0  0  0  0  0  0  0  0  0  0  0
    3.1739    3.8477    0.0000 O   0  0  0  0  0  0  0  0  0  0  0  0
    3.9708    3.6342    0.0000 C   0  0  0  0  0  0  0  0  0  0  0  0
    4.5542    4.2175    0.0000 C   0  0  0  0  0  0  0  0  0  0  0  0
    4.2647    2.8930    0.0000 O   0  0  0  0  0  0  0  0  0  0  0  0
    1.8934    2.6139    0.0000 H   0  0  0  0  0  0  0  0  0  0  0  0
    1.1615   -2.5107    0.0000 C   0  0  0  0  0  0  0  0  0  0  0  0
    1.8760   -2.9231    0.0000 C   0  0  0  0  0  0  0  0  0  0  0  0
    1.8760   -3.7482    0.0000 O   0  0  0  0  0  0  0  0  0  0  0  0
    2.5905   -2.5107    0.0000 O   0  0  0  0  0  0  0  0  0  0  0  0
    3.1790   -2.9376    0.0000 C   0  0  0  0  0  0  0  0  0  0  0  0
   -0.1363   -1.8566    0.0000 O   0  0  0  0  0  0  0  0  0  0  0  0
   -0.0097   -2.5245    0.0000 C   0  0  0  0  0  0  0  0  0  0  0  0
   -0.5930   -3.1079    0.0000 C   0  0  0  0  0  0  0  0  0  0  0  0
   -1.3899   -2.8943    0.0000 C   0  0  0  0  0  0  0  0  0  0  0  0
   -1.9733   -3.4778    0.0000 C   0  0  0  0  0  0  0  0  0  0  0  0
   -2.7702   -3.2643    0.0000 C   0  0  0  0  0  0  0  0  0  0  0  0
   -3.3536   -3.8476    0.0000 C   0  0  0  0  0  0  0  0  0  0  0  0
   -4.1506   -3.6341    0.0000 C   0  0  0  0  0  0  0  0  0  0  0  0
    0.5287   -2.8193    0.0000 O   0  0  0  0  0  0  0  0  0  0  0  0
   -4.7340   -4.2175    0.0000 C   0  0  0  0  0  0  0  0  0  0  0  0
    1.1406    3.9215    0.0000 O   0  0  0  0  0  0  0  0  0  0  0  0
   -0.9992    2.6979    0.0000 H   0  0  0  0  0  0  0  0  0  0  0  0
   -0.3057    3.9564    0.0000 H   0  0  0  0  0  0  0  0  0  0  0  0
   -2.2797    3.8478    0.0000 C   0  0  0  0  0  0  0  0  0  0  0  0
   -3.0767    3.6342    0.0000 C   0  0  0  0  0  0  0  0  0  0  0  0
   -3.0767    2.8093    0.0000 O   0  0  0  0  0  0  0  0  0  0  0  0
   -3.7021    3.8608    0.0000 O   0  0  0  0  0  0  0  0  0  0  0  0
   -4.2470    3.5213    0.0000 C   0  0  0  0  0  0  0  0  0  0  0  0
  3  2  1  0  0  0  0
  1  4  1  0  0  0  0
  4  3  1  0  0  0  0
  6  5  1  0  0  0  0
  2  6  1  0  0  0  0
  8  7  1  0  0  0  0
  9  8  1  0  0  0  0
 10  9  1  0  0  0  0
  5 10  1  0  0  0  0
 11  6  1  0  0  0  0
 12 11  1  0  0  0  0
 13 12  1  0  0  0  0
  3 13  1  0  0  0  0
  1 14  2  0  0  0  0
 15 14  1  0  0  0  0
 16 15  1  0  0  0  0
 17 16  1  0  0  0  0
 18 17  1  0  0  0  0
 19 18  1  0  0  0  0
 20 19  1  0  0  0  0
 15 20  1  0  0  0  0
 19 21  1  0  0  0  0
 22 21  1  0  0  0  0
 23 22  1  0  0  0  0
 22 24  1  0  0  0  0
 25 24  1  0  0  0  0
 26 25  1  0  0  0  0
 27 26  1  0  0  0  0
 23 27  1  0  0  0  0
 28  7  1  0  0  0  0
 28 29  1  0  0  0  0
 27 29  1  0  0  0  0
  4 30  1  0  0  0  0
  4 31  1  0  0  0  0
  3 32  1  1  0  0  0
  6 33  1  1  0  0  0
 10 34  1  6  0  0  0
  8 35  2  0  0  0  0
 10 36  1  0  0  0  0
 36 37  1  6  0  0  0
 36 38  1  0  0  0  0
 28 39  1  6  0  0  0
 24 40  1  0  0  0  0
 24 41  1  0  0  0  0
 25 42  1  1  0  0  0
 42 43  1  0  0  0  0
 43 44  1  0  0  0  0
 43 45  2  0  0  0  0
 27 46  1  6  0  0  0
 12 47  2  0  0  0  0
 47 48  1  0  0  0  0
 48 49  2  0  0  0  0
 48 50  1  0  0  0  0
 50 51  1  0  0  0  0
 13 52  1  6  0  0  0
 52 53  1  0  0  0  0
 53 54  1  0  0  0  0
 54 55  2  0  0  0  0
 55 56  1  0  0  0  0
 56 57  2  0  0  0  0
 57 58  1  0  0  0  0
 58 59  1  0  0  0  0
 53 60  2  0  0  0  0
 59 61  1  0  0  0  0
 22 62  1  6  0  0  0
 15 63  1  6  0  0  0
 19 64  1  6  0  0  0
 17 65  2  0  0  0  0
 65 66  1  0  0  0  0
 66 67  2  0  0  0  0
 66 68  1  0  0  0  0
 68 69  1  0  0  0  0
M  END
> <DATABASE_ID>
DB11752

> <DATABASE_NAME>
drugbank

> <SMILES>
[H][C@]12C[C@H](OC(C)=O)C(C)(C)[C@](O)(C[C@]3([H])C\C(C[C@@]([H])(O3)\C=C\C(C)(C)[C@]3(O)O[C@@]([H])(C\C(=C/C(=O)OC)[C@@H]3OC(=O)\C=C\C=C\CCC)C[C@@]([H])(OC(=O)C[C@H](O)C1)[C@@H](C)O)=C\C(=O)OC)O2

> <INCHI_IDENTIFIER>
InChI=1S/C47H68O17/c1-10-11-12-13-14-15-39(51)62-43-31(22-41(53)58-9)21-34-25-37(28(2)48)61-42(54)24-32(50)23-35-26-38(59-29(3)49)45(6,7)46(55,63-35)27-36-19-30(20-40(52)57-8)18-33(60-36)16-17-44(4,5)47(43,56)64-34/h12-17,20,22,28,32-38,43,48,50,55-56H,10-11,18-19,21,23-27H2,1-9H3/b13-12+,15-14+,17-16+,30-20+,31-22+/t28-,32-,33+,34+,35-,36+,37-,38+,43+,46+,47-/m1/s1

> <INCHI_KEY>
MJQUEDHRCUIRLF-TVIXENOKSA-N

> <FORMULA>
C47H68O17

> <MOLECULAR_WEIGHT>
905.044

> <EXACT_MASS>
904.44565073

> <JCHEM_ACCEPTOR_COUNT>
12

> <JCHEM_ATOM_COUNT>
132

> <JCHEM_AVERAGE_NEUTRAL_MICROSPECIES_CHARGE>
-0.0002899385865198076

> <JCHEM_AVERAGE_POLARIZABILITY>
95.40497916086208

> <JCHEM_BIOAVAILABILITY>
0

> <JCHEM_DONOR_COUNT>
4

> <JCHEM_FORMAL_CHARGE>
0

> <JCHEM_GHOSE_FILTER>
0

> <JCHEM_IUPAC>
(1S,3S,5Z,7R,8E,11S,12S,13E,15S,17R,21R,23R,25S)-25-(acetyloxy)-1,11,21-trihydroxy-17-[(1R)-1-hydroxyethyl]-5,13-bis(2-methoxy-2-oxoethylidene)-10,10,26,26-tetramethyl-19-oxo-18,27,28,29-tetraoxatetracyclo[21.3.1.1^{3,7}.1^{11,15}]nonacos-8-en-12-yl (2E,4E)-octa-2,4-dienoate

> <ALOGPS_LOGP>
2.86

> <JCHEM_LOGP>
5.039990318333333

> <ALOGPS_LOGS>
-5.18

> <JCHEM_MDDR_LIKE_RULE>
1

> <JCHEM_NEUTRAL_CHARGE>
0

> <JCHEM_NUMBER_OF_RINGS>
4

> <JCHEM_PHYSIOLOGICAL_CHARGE>
0

> <JCHEM_PKA>
11.575660975406128

> <JCHEM_PKA_STRONGEST_ACIDIC>
10.585157638260217

> <JCHEM_PKA_STRONGEST_BASIC>
-2.8358312834899726

> <JCHEM_POLAR_SURFACE_AREA>
240.10999999999996

> <JCHEM_REFRACTIVITY>
233.05060000000012

> <JCHEM_ROTATABLE_BOND_COUNT>
13

> <JCHEM_RULE_OF_FIVE>
0

> <ALOGPS_SOLUBILITY>
5.95e-03 g/l

> <JCHEM_TRADITIONAL_IUPAC>
octocrylene

> <JCHEM_VEBER_RULE>
0

> <DRUGBANK_ID>
DB11752

> <DRUG_GROUPS>
investigational

> <GENERIC_NAME>
Bryostatin 1

> <SYNONYMS>
Bryostatin-1

$$$$
