
  Mrv1909 05201915122D          

 57 63  0  0  1  0            999 V2000
   -2.3597    4.7309    0.0000 C   0  0  0  0  0  0  0  0  0  0  0  0
   -1.5392    4.6446    0.0000 O   0  0  0  0  0  0  0  0  0  0  0  0
   -1.0543    5.3121    0.0000 C   0  0  0  0  0  0  0  0  0  0  0  0
   -1.3899    6.0658    0.0000 O   0  0  0  0  0  0  0  0  0  0  0  0
   -0.2338    5.2258    0.0000 N   0  0  0  0  0  0  0  0  0  0  0  0
    0.2511    5.8933    0.0000 C   0  0  1  0  0  0  0  0  0  0  0  0
   -0.0845    6.6470    0.0000 C   0  0  0  0  0  0  0  0  0  0  0  0
    0.4005    7.3144    0.0000 C   0  0  0  0  0  0  0  0  0  0  0  0
   -0.9049    6.7332    0.0000 C   0  0  0  0  0  0  0  0  0  0  0  0
    1.0716    5.8070    0.0000 C   0  0  0  0  0  0  0  0  0  0  0  0
    1.4071    5.0534    0.0000 O   0  0  0  0  0  0  0  0  0  0  0  0
    1.5565    6.4745    0.0000 N   0  0  0  0  0  0  0  0  0  0  0  0
    1.3016    7.2591    0.0000 C   0  0  0  0  0  0  0  0  0  0  0  0
    1.9690    7.7440    0.0000 C   0  0  0  0  0  0  0  0  0  0  0  0
    2.6364    7.2591    0.0000 C   0  0  0  0  0  0  0  0  0  0  0  0
    2.3815    6.4745    0.0000 C   0  0  1  0  0  0  0  0  0  0  0  0
    2.8664    5.8070    0.0000 C   0  0  0  0  0  0  0  0  0  0  0  0
    3.6914    5.8070    0.0000 N   0  0  0  0  0  0  0  0  0  0  0  0
    3.9464    5.0224    0.0000 C   0  0  0  0  0  0  0  0  0  0  0  0
    3.2789    4.5375    0.0000 C   0  0  0  0  0  0  0  0  0  0  0  0
    2.6115    5.0224    0.0000 N   0  0  0  0  0  0  0  0  0  0  0  0
    3.2789    3.7125    0.0000 C   0  0  0  0  0  0  0  0  0  0  0  0
    3.9934    3.3000    0.0000 C   0  0  0  0  0  0  0  0  0  0  0  0
    3.9934    2.4750    0.0000 C   0  0  0  0  0  0  0  0  0  0  0  0
    3.2789    2.0625    0.0000 C   0  0  0  0  0  0  0  0  0  0  0  0
    2.5645    2.4750    0.0000 C   0  0  0  0  0  0  0  0  0  0  0  0
    2.5645    3.3000    0.0000 C   0  0  0  0  0  0  0  0  0  0  0  0
    3.2789    1.2375    0.0000 C   0  0  0  0  0  0  0  0  0  0  0  0
    3.9934    0.8250    0.0000 C   0  0  0  0  0  0  0  0  0  0  0  0
    3.9934    0.0000    0.0000 C   0  0  0  0  0  0  0  0  0  0  0  0
    3.2789   -0.4125    0.0000 C   0  0  0  0  0  0  0  0  0  0  0  0
    3.2789   -1.2375    0.0000 C   0  0  0  0  0  0  0  0  0  0  0  0
    3.9464   -1.7224    0.0000 C   0  0  0  0  0  0  0  0  0  0  0  0
    3.6914   -2.5070    0.0000 N   0  0  0  0  0  0  0  0  0  0  0  0
    2.8664   -2.5070    0.0000 C   0  0  0  0  0  0  0  0  0  0  0  0
    2.6115   -1.7224    0.0000 N   0  0  0  0  0  0  0  0  0  0  0  0
    2.3815   -3.1745    0.0000 C   0  0  2  0  0  0  0  0  0  0  0  0
    2.6364   -3.9591    0.0000 C   0  0  0  0  0  0  0  0  0  0  0  0
    1.9690   -4.4440    0.0000 C   0  0  0  0  0  0  0  0  0  0  0  0
    1.3016   -3.9591    0.0000 C   0  0  0  0  0  0  0  0  0  0  0  0
    1.5565   -3.1745    0.0000 N   0  0  0  0  0  0  0  0  0  0  0  0
    1.0716   -2.5070    0.0000 C   0  0  0  0  0  0  0  0  0  0  0  0
    1.4071   -1.7534    0.0000 O   0  0  0  0  0  0  0  0  0  0  0  0
    0.2511   -2.5933    0.0000 C   0  0  1  0  0  0  0  0  0  0  0  0
   -0.2338   -1.9258    0.0000 N   0  0  0  0  0  0  0  0  0  0  0  0
   -1.0543   -2.0121    0.0000 C   0  0  0  0  0  0  0  0  0  0  0  0
   -1.3899   -2.7658    0.0000 O   0  0  0  0  0  0  0  0  0  0  0  0
   -1.5392   -1.3446    0.0000 O   0  0  0  0  0  0  0  0  0  0  0  0
   -2.3597   -1.4309    0.0000 C   0  0  0  0  0  0  0  0  0  0  0  0
   -0.0845   -3.3470    0.0000 C   0  0  0  0  0  0  0  0  0  0  0  0
    0.4005   -4.0144    0.0000 C   0  0  0  0  0  0  0  0  0  0  0  0
   -0.9049   -3.4332    0.0000 C   0  0  0  0  0  0  0  0  0  0  0  0
    2.5645    0.0000    0.0000 C   0  0  0  0  0  0  0  0  0  0  0  0
    2.5645    0.8250    0.0000 C   0  0  0  0  0  0  0  0  0  0  0  0
    1.7798    1.0799    0.0000 O   0  0  0  0  0  0  0  0  0  0  0  0
    1.2949    0.4125    0.0000 C   0  0  0  0  0  0  0  0  0  0  0  0
    1.7798   -0.2549    0.0000 O   0  0  0  0  0  0  0  0  0  0  0  0
  1  2  1  0  0  0  0
  2  3  1  0  0  0  0
  3  4  2  0  0  0  0
  3  5  1  0  0  0  0
  6  5  1  1  0  0  0
  6  7  1  0  0  0  0
  7  8  1  0  0  0  0
  7  9  1  0  0  0  0
  6 10  1  0  0  0  0
 10 11  2  0  0  0  0
 10 12  1  0  0  0  0
 12 13  1  0  0  0  0
 13 14  1  0  0  0  0
 14 15  1  0  0  0  0
 16 15  1  0  0  0  0
 16 12  1  0  0  0  0
 16 17  1  1  0  0  0
 17 18  2  0  0  0  0
 18 19  1  0  0  0  0
 19 20  2  0  0  0  0
 20 21  1  0  0  0  0
 17 21  1  0  0  0  0
 20 22  1  0  0  0  0
 22 23  2  0  0  0  0
 23 24  1  0  0  0  0
 24 25  2  0  0  0  0
 25 26  1  0  0  0  0
 26 27  2  0  0  0  0
 22 27  1  0  0  0  0
 25 28  1  0  0  0  0
 28 29  2  0  0  0  0
 29 30  1  0  0  0  0
 30 31  2  0  0  0  0
 31 32  1  0  0  0  0
 32 33  2  0  0  0  0
 33 34  1  0  0  0  0
 34 35  2  0  0  0  0
 35 36  1  0  0  0  0
 32 36  1  0  0  0  0
 37 35  1  6  0  0  0
 37 38  1  0  0  0  0
 38 39  1  0  0  0  0
 39 40  1  0  0  0  0
 40 41  1  0  0  0  0
 37 41  1  0  0  0  0
 41 42  1  0  0  0  0
 42 43  2  0  0  0  0
 44 42  1  0  0  0  0
 44 45  1  6  0  0  0
 45 46  1  0  0  0  0
 46 47  2  0  0  0  0
 46 48  1  0  0  0  0
 48 49  1  0  0  0  0
 44 50  1  0  0  0  0
 50 51  1  0  0  0  0
 50 52  1  0  0  0  0
 31 53  1  0  0  0  0
 53 54  2  0  0  0  0
 28 54  1  0  0  0  0
 54 55  1  0  0  0  0
 55 56  1  0  0  0  0
 56 57  1  0  0  0  0
 53 57  1  0  0  0  0
M  END
> <DATABASE_ID>
DB15315

> <DATABASE_NAME>
drugbank

> <SMILES>
COC(=O)N[C@@H](C(C)C)C(=O)N1CCC[C@H]1C1=NC=C(N1)C1=CC=C(C=C1)C1=CC=C(C2=CN=C(N2)[C@@H]2CCCN2C(=O)[C@@H](NC(=O)OC)C(C)C)C2=C1OCO2

> <INCHI_IDENTIFIER>
InChI=1S/C41H50N8O8/c1-22(2)32(46-40(52)54-5)38(50)48-17-7-9-30(48)36-42-19-28(44-36)25-13-11-24(12-14-25)26-15-16-27(35-34(26)56-21-57-35)29-20-43-37(45-29)31-10-8-18-49(31)39(51)33(23(3)4)47-41(53)55-6/h11-16,19-20,22-23,30-33H,7-10,17-18,21H2,1-6H3,(H,42,44)(H,43,45)(H,46,52)(H,47,53)/t30-,31-,32-,33-/m0/s1

> <INCHI_KEY>
JBYJTCVXUMWTJJ-YRCZKMHPSA-N

> <FORMULA>
C41H50N8O8

> <MOLECULAR_WEIGHT>
782.899

> <EXACT_MASS>
782.375160602

> <JCHEM_ACCEPTOR_COUNT>
8

> <JCHEM_ATOM_COUNT>
107

> <JCHEM_AVERAGE_POLARIZABILITY>
85.97987896070165

> <JCHEM_BIOAVAILABILITY>
0

> <JCHEM_DONOR_COUNT>
4

> <JCHEM_FORMAL_CHARGE>
0

> <JCHEM_GHOSE_FILTER>
0

> <JCHEM_IUPAC>
methyl N-[(2S)-1-[(2S)-2-{5-[4-(7-{2-[(2S)-1-[(2S)-2-[(methoxycarbonyl)amino]-3-methylbutanoyl]pyrrolidin-2-yl]-1H-imidazol-5-yl}-2H-1,3-benzodioxol-4-yl)phenyl]-1H-imidazol-2-yl}pyrrolidin-1-yl]-3-methyl-1-oxobutan-2-yl]carbamate

> <ALOGPS_LOGP>
4.29

> <JCHEM_LOGP>
3.800174912999999

> <ALOGPS_LOGS>
-4.69

> <JCHEM_MDDR_LIKE_RULE>
1

> <JCHEM_NUMBER_OF_RINGS>
7

> <JCHEM_PHYSIOLOGICAL_CHARGE>
0

> <JCHEM_PKA>
11.571745402606297

> <JCHEM_PKA_STRONGEST_ACIDIC>
10.88466635505091

> <JCHEM_PKA_STRONGEST_BASIC>
5.963960496911999

> <JCHEM_POLAR_SURFACE_AREA>
193.09999999999997

> <JCHEM_REFRACTIVITY>
207.58570000000006

> <JCHEM_ROTATABLE_BOND_COUNT>
13

> <JCHEM_RULE_OF_FIVE>
0

> <ALOGPS_SOLUBILITY>
1.59e-02 g/l

> <JCHEM_TRADITIONAL_IUPAC>
(2R)-14-fluoro-2-methyl-6,9,10,19-tetraazapentacyclo[14.2.1.0^{2,6}.0^{8,18}.0^{12,17}]nonadeca-1(18),8,12(17),13,15-pentaen-11-one

> <JCHEM_VEBER_RULE>
0

> <DRUGBANK_ID>
DB15315

> <DRUG_GROUPS>
investigational

> <GENERIC_NAME>
Coblopasvir

> <SYNONYMS>
Coblopasvir

$$$$
