
  Mrv1652306131722042D          

  1  0  0  0  0  0            999 V2000
    0.0000    0.0000    0.0000 Cr  0  0  0  0  0  0  0  0  0  0  0  0
M  ISO  1   1  51
M  END
> <DATABASE_ID>
DB11140

> <DATABASE_NAME>
drugbank

> <SMILES>
[51Cr]

> <INCHI_IDENTIFIER>
InChI=1S/Cr/i1-1

> <INCHI_KEY>
VYZAMTAEIAYCRO-BJUDXGSMSA-N

> <FORMULA>
Cr

> <MOLECULAR_WEIGHT>
50.9448

> <EXACT_MASS>
50.944771767

> <JCHEM_ACCEPTOR_COUNT>
0

> <JCHEM_ATOM_COUNT>
1

> <JCHEM_AVERAGE_POLARIZABILITY>
1.7784

> <JCHEM_BIOAVAILABILITY>
1

> <JCHEM_DONOR_COUNT>
0

> <JCHEM_FORMAL_CHARGE>
0

> <JCHEM_GHOSE_FILTER>
0

> <JCHEM_IUPAC>
(51Cr)chromium

> <ALOGPS_LOGP>
-1.31

> <JCHEM_LOGP>
-0.156

> <ALOGPS_LOGS>
1.08

> <JCHEM_MDDR_LIKE_RULE>
0

> <JCHEM_NUMBER_OF_RINGS>
0

> <JCHEM_PHYSIOLOGICAL_CHARGE>
0

> <JCHEM_POLAR_SURFACE_AREA>
0.0

> <JCHEM_REFRACTIVITY>
0.0

> <JCHEM_ROTATABLE_BOND_COUNT>
0

> <JCHEM_RULE_OF_FIVE>
1

> <ALOGPS_SOLUBILITY>
0.00e+00 g/l

> <JCHEM_TRADITIONAL_IUPAC>
(51Cr)chromium

> <JCHEM_VEBER_RULE>
1

> <DRUGBANK_ID>
DB11140

> <DRUG_GROUPS>
approved

> <GENERIC_NAME>
Chromium Cr-51

> <SYNONYMS>
Chromium (51 Cr); Chromium Cr 51; Chromium-51

> <PRODUCTS>
Bacmin; Sodium Chromate 51; Tricare Prenatal 2-part Daily Prenatal Vitamin System; Tricare Prenatal Quick Dissolve

> <SALTS>
Chromium Cr-51 chloride; Chromium Cr-51 edetate

$$$$
