
  Mrv1572004221605082D          

 22 24  0  0  0  0            999 V2000
    0.5450   -0.9817    0.0000 C   0  0  0  0  0  0  0  0  0  0  0  0
    0.8806   -0.2280    0.0000 C   0  0  0  0  0  0  0  0  0  0  0  0
   -0.2754   -1.0679    0.0000 C   0  0  0  0  0  0  0  0  0  0  0  0
    0.3957    0.4394    0.0000 C   0  0  0  0  0  0  0  0  0  0  0  0
   -0.7604   -0.4005    0.0000 C   0  0  0  0  0  0  0  0  0  0  0  0
   -2.9458    2.8672    0.0000 C   0  0  0  0  0  0  0  0  0  0  0  0
   -3.3874    1.5082    0.0000 C   0  0  0  0  0  0  0  0  0  0  0  0
   -3.7304    3.1221    0.0000 C   0  0  0  0  0  0  0  0  0  0  0  0
   -4.1720    1.7631    0.0000 C   0  0  0  0  0  0  0  0  0  0  0  0
   -1.3222    3.1152    0.0000 C   0  0  0  0  0  0  0  0  0  0  0  0
   -0.6548    1.8053    0.0000 C   0  0  0  0  0  0  0  0  0  0  0  0
   -2.7743    2.0602    0.0000 C   0  0  0  0  0  0  0  0  0  0  0  0
   -1.3222    2.2902    0.0000 C   0  0  0  0  0  0  0  0  0  0  0  0
   -4.3435    2.5701    0.0000 C   0  0  0  0  0  0  0  0  0  0  0  0
   -0.4248    0.3532    0.0000 C   0  0  0  0  0  0  0  0  0  0  0  0
   -0.6078    3.5277    0.0000 C   0  0  0  0  0  0  0  0  0  0  0  0
   -1.9897    1.8053    0.0000 C   0  0  0  0  0  0  0  0  0  0  0  0
   -5.1282    2.8250    0.0000 Cl  0  0  0  0  0  0  0  0  0  0  0  0
   -1.7347    1.0206    0.0000 N   0  0  0  0  0  0  0  0  0  0  0  0
   -0.9097    1.0206    0.0000 N   0  0  0  0  0  0  0  0  0  0  0  0
    0.1067    3.1152    0.0000 O   0  0  0  0  0  0  0  0  0  0  0  0
   -0.6078    4.3527    0.0000 O   0  0  0  0  0  0  0  0  0  0  0  0
  2  1  2  0  0  0  0
  3  1  1  0  0  0  0
  4  2  1  0  0  0  0
  5  3  2  0  0  0  0
  8  6  1  0  0  0  0
  9  7  2  0  0  0  0
 12  6  2  0  0  0  0
 12  7  1  0  0  0  0
 13 10  1  0  0  0  0
 13 11  2  0  0  0  0
 14  8  2  0  0  0  0
 14  9  1  0  0  0  0
 15  4  2  0  0  0  0
 15  5  1  0  0  0  0
 16 10  1  0  0  0  0
 17 12  1  0  0  0  0
 17 13  1  0  0  0  0
 18 14  1  0  0  0  0
 19 17  2  0  0  0  0
 20 11  1  0  0  0  0
 20 15  1  0  0  0  0
 20 19  1  0  0  0  0
 21 16  2  0  0  0  0
 22 16  1  0  0  0  0
M  END
> <DATABASE_ID>
DB13432

> <DATABASE_NAME>
drugbank

> <SMILES>
OC(=O)CC1=CN(N=C1C1=CC=C(Cl)C=C1)C1=CC=CC=C1

> <INCHI_IDENTIFIER>
InChI=1S/C17H13ClN2O2/c18-14-8-6-12(7-9-14)17-13(10-16(21)22)11-20(19-17)15-4-2-1-3-5-15/h1-9,11H,10H2,(H,21,22)

> <INCHI_KEY>
XVUQHFRQHBLHQD-UHFFFAOYSA-N

> <FORMULA>
C17H13ClN2O2

> <MOLECULAR_WEIGHT>
312.75

> <EXACT_MASS>
312.0665554

> <JCHEM_ACCEPTOR_COUNT>
3

> <JCHEM_ATOM_COUNT>
35

> <JCHEM_AVERAGE_POLARIZABILITY>
32.24618312256422

> <JCHEM_BIOAVAILABILITY>
1

> <JCHEM_DONOR_COUNT>
1

> <JCHEM_FORMAL_CHARGE>
0

> <JCHEM_GHOSE_FILTER>
1

> <JCHEM_IUPAC>
2-[3-(4-chlorophenyl)-1-phenyl-1H-pyrazol-4-yl]acetic acid

> <ALOGPS_LOGP>
4.01

> <JCHEM_LOGP>
4.3339329756666665

> <ALOGPS_LOGS>
-4.52

> <JCHEM_MDDR_LIKE_RULE>
0

> <JCHEM_NUMBER_OF_RINGS>
3

> <JCHEM_PHYSIOLOGICAL_CHARGE>
-1

> <JCHEM_PKA_STRONGEST_ACIDIC>
4.311391619324394

> <JCHEM_PKA_STRONGEST_BASIC>
1.8885032961180543

> <JCHEM_POLAR_SURFACE_AREA>
55.120000000000005

> <JCHEM_REFRACTIVITY>
85.29629999999999

> <JCHEM_ROTATABLE_BOND_COUNT>
4

> <JCHEM_RULE_OF_FIVE>
1

> <ALOGPS_SOLUBILITY>
9.37e-03 g/l

> <JCHEM_TRADITIONAL_IUPAC>
lonazolac

> <JCHEM_VEBER_RULE>
0

> <DRUGBANK_ID>
DB13432

> <DRUG_GROUPS>
experimental

> <GENERIC_NAME>
Lonazolac

> <SYNONYMS>
Lonazolac; lonazolaco

$$$$
