
  Mrv1718006271812542D          

  2  1  0  0  0  0            999 V2000
    0.4125    0.0000    0.0000 O   0  0  0  0  0  0  0  0  0  0  0  0
   -0.4125    0.0000    0.0000 Cl  0  0  0  0  0  0  0  0  0  0  0  0
  1  2  1  0  0  0  0
M  END
> <DATABASE_ID>
DB14135

> <DATABASE_NAME>
drugbank

> <SMILES>
OCl

> <INCHI_IDENTIFIER>
InChI=1S/ClHO/c1-2/h2H

> <INCHI_KEY>
QWPPOHNGKGFGJK-UHFFFAOYSA-N

> <FORMULA>
ClHO

> <MOLECULAR_WEIGHT>
52.46

> <EXACT_MASS>
51.971592361

> <JCHEM_ACCEPTOR_COUNT>
1

> <JCHEM_ATOM_COUNT>
3

> <JCHEM_AVERAGE_POLARIZABILITY>
3.4948286075623303

> <JCHEM_BIOAVAILABILITY>
1

> <JCHEM_DONOR_COUNT>
1

> <JCHEM_FORMAL_CHARGE>
0

> <JCHEM_GHOSE_FILTER>
0

> <JCHEM_IUPAC>
hypochlorous acid

> <ALOGPS_LOGP>
-0.37

> <JCHEM_LOGP>
0.31819389766666667

> <ALOGPS_LOGS>
0.99

> <JCHEM_MDDR_LIKE_RULE>
0

> <JCHEM_NUMBER_OF_RINGS>
0

> <JCHEM_PHYSIOLOGICAL_CHARGE>
0

> <JCHEM_PKA_STRONGEST_ACIDIC>
7.9270968931592

> <JCHEM_PKA_STRONGEST_BASIC>
-5.892487818932165

> <JCHEM_POLAR_SURFACE_AREA>
20.23

> <JCHEM_REFRACTIVITY>
8.7009

> <JCHEM_ROTATABLE_BOND_COUNT>
0

> <JCHEM_RULE_OF_FIVE>
1

> <ALOGPS_SOLUBILITY>
5.12e+02 g/l

> <JCHEM_TRADITIONAL_IUPAC>
hypochlorous acid

> <JCHEM_VEBER_RULE>
1

> <DRUGBANK_ID>
DB14135

> <DRUG_GROUPS>
experimental

> <GENERIC_NAME>
Hypochlorous acid

> <SYNONYMS>
Chlor(I)-säure; Chloranol; Hydroxidochlorine; Hypochlorige Säure

> <PRODUCTS>
AN XIN Disinfectant; AbsoClean-S Sanitizing Mist; Acid oxidation potential water disinfection wet towel; Aeidar Hand Disinfectant; Air raid card Wash free disinfectant; Aktive Multi Purpose Antibacterial; All Clean Water; Allvirusu; Aqunova. Water Innovation; BabyO2; Bactericidal fluid; Beklyn Absolute Purifying Hand Gel; Beklyn Absolute Purifying Hand Gel Refreshing Aloe 180ml; Beklyn Absolute Purifying Hand Gel Refreshing Aloe 60ml; Beklyn Absolute Purifying-Spray; Belson Alcohol Free Hand Saniziter; Brille brille sterilizing water mist; CELA No-clean hypochlorous acid disinfectant; CLEAN-US PURICHLO SANITIZER-Spray; CLEN GERM KILLER-Spray; CLOH Living Hand Sanitizer; Caruche Premium Hypochlorous Acid Water; Champuregreen; Chlorinie disinfectant; Claon Hocl; Cloravir Hand Sanitizer; DEZINFEKCE Disinfectant; Daily Doctor Hypochlorous acid disinfectant liquid; Daisy Clean Sanitizer; Demon Gun; Dfenze HOCL Sanitizer and Disinfectant; Diabek-100; Disinfectant; Disinfectant Solution; Disinfectant Solution for air; Disinfectant Solution for hand-use; Disinfectant liquid Antibacterial; Disinfecting Wipes; Disinfection-Tablets; Dr VIRUR SAFE; Dr VIRURSOLUTION; Dr. Bluetech; Dr.Devirus; Dr.URBAN V Zero Hand Cleaner; EKO Disinfectant; Eanclean; Ecotok Magic Water; Electrolyzed Water; Electrolyzed oxidizing water disinfection wipes; Electrolyzed-oxidizing Water Disinfectant; Enaclean; Family Disinfectant; GERM KILLER-Spray; Gold Mate; Good Bye-rus; H Biotics; HCIO disnfectant; HClO disinfectant; HICC Kids Rinse-Free Disinfectant; HICC Kitchen Deodorizer; HICC Portable Rinse-Free Disinfectant Deodorizer; HOCI Antibacterial Cleanser; Hand Sanitizer; Hand sanitizer; Hi Cleaner; Hi Hand Clean; High Efficiency Disinfectant; Huaqingyuan Disinfectant; Huoting slight acid hypochlorite disinfectant; Huureka Sanitizer; Hypochlorous Acid; Hypochlorous Acid Disinfectant; Hypochlorous Acid Hand Sanitizer; Hypochlorous acid Disinfectant; Hypochlorous acid disinfectant wipes; Hypochlorous acid disinfecting; INCARE All in one Plus; JIKIMI GERM KILLER-Spray; JIKIMI Phytoncide; JOOBIRY Hypochlorous Acid Disinfectant; K-100; Khurb clean disinfection water; Mandabang Brand Hand Sanitizer; Mediaqua premium; Mediblue; Mistthirty; Multi-Purpose Sanitiser; Mundus Hypochlorous Acid Hand Sanitizer; NuRinse; Orak-100; Oxicleanse; PENACOM Hypochlorous acid disinfectant; PhoebusBio Hypochlorous acid disinfectant; Physical Water; Popoq; Purecle; Purehocl; Puro Medi; Purple K; QSYH Hypochlorite Disinfectant; RAYSAIN Wash Free Hand Sanitizer; RUNYI MIAOJIE Bacteriostatic solution; Raon Bio Safe Sanitizer Water; S9 Soseang-SU; SANe Water; SCI Multi-Purpose Antibacterial Wipes; SSACSU Hand sanitizer; Saerasu; Safety Hypochlorous Acid Disinfectant; Sanit-Aqua (Sanitizer); Sanitized Pro Multi-Purpose Antibacterial Wipes; Sanitizer; Sanitizer RefreshingSpray; Shield V; Sibarc; Slight Acid Hypochlorous Acid Disinfectant; Solenal SuLv Disinfectant; Ssacsu; Ste-medi; Sufiya; Tok and Care Sanitizer; V Cider; V kill; VIRURcatcher; VISBELLA Hypochlorous acid disinfectant; Vi-Clean; Vi-trap; Vitaplus eco hygiene; Vitaplus ore; Water Guard Slightly Acidic Electrolyzed Hypochlorous Acid Water Disinfectant; YESDENTOK Khurb clean disinfection water; Zero Hocl; Zero Hocl Mist; bioDefender (Hypochlorous Acid Water)

$$$$
