
  Mrv1652306231722412D          

 27 29  0  0  0  0            999 V2000
   -1.1912    0.3347    0.0000 C   0  0  0  0  0  0  0  0  0  0  0  0
   -0.5238    0.8196    0.0000 C   0  0  0  0  0  0  0  0  0  0  0  0
    0.2299    0.4841    0.0000 C   0  0  0  0  0  0  0  0  0  0  0  0
    0.3161   -0.3364    0.0000 C   0  0  0  0  0  0  0  0  0  0  0  0
   -0.3513   -0.8213    0.0000 C   0  0  0  0  0  0  0  0  0  0  0  0
   -1.1050   -0.4858    0.0000 C   0  0  0  0  0  0  0  0  0  0  0  0
    1.0698   -0.6720    0.0000 C   0  0  0  0  0  0  0  0  0  0  0  0
    1.8768   -0.8435    0.0000 C   0  0  0  0  0  0  0  0  0  0  0  0
    2.4899   -0.2915    0.0000 O   0  0  0  0  0  0  0  0  0  0  0  0
    1.9630   -1.6640    0.0000 N   0  0  0  0  0  0  0  0  0  0  0  0
    1.2093   -1.9995    0.0000 C   0  0  0  0  0  0  0  0  0  0  0  0
    1.0378   -2.8065    0.0000 O   0  0  0  0  0  0  0  0  0  0  0  0
    0.6573   -1.3864    0.0000 N   0  0  0  0  0  0  0  0  0  0  0  0
    2.6775   -2.0765    0.0000 C   0  0  0  0  0  0  0  0  0  0  0  0
    3.3920   -1.6640    0.0000 C   0  0  0  0  0  0  0  0  0  0  0  0
    4.1064   -2.0765    0.0000 C   0  0  0  0  0  0  0  0  0  0  0  0
    4.8209   -1.6640    0.0000 C   0  0  0  0  0  0  0  0  0  0  0  0
    5.5354   -2.0765    0.0000 C   0  0  0  0  0  0  0  0  0  0  0  0
    6.2498   -1.6640    0.0000 O   0  0  0  0  0  0  0  0  0  0  0  0
    5.5354   -2.9015    0.0000 O   0  0  0  0  0  0  0  0  0  0  0  0
    4.8209   -0.8390    0.0000 N   0  0  0  0  0  0  0  0  0  0  0  0
    1.3247    0.1127    0.0000 C   0  0  0  0  0  0  0  0  0  0  0  0
    0.7727    0.7258    0.0000 C   0  0  0  0  0  0  0  0  0  0  0  0
    1.0276    1.5104    0.0000 C   0  0  0  0  0  0  0  0  0  0  0  0
    1.8346    1.6819    0.0000 C   0  0  0  0  0  0  0  0  0  0  0  0
    2.3867    1.0688    0.0000 C   0  0  0  0  0  0  0  0  0  0  0  0
    2.1317    0.2842    0.0000 C   0  0  0  0  0  0  0  0  0  0  0  0
  1  2  2  0  0  0  0
  2  3  1  0  0  0  0
  3  4  2  0  0  0  0
  4  5  1  0  0  0  0
  5  6  2  0  0  0  0
  1  6  1  0  0  0  0
  4  7  1  0  0  0  0
  7  8  1  0  0  0  0
  8  9  2  0  0  0  0
  8 10  1  0  0  0  0
 10 11  1  0  0  0  0
 11 12  2  0  0  0  0
 11 13  1  0  0  0  0
  7 13  1  0  0  0  0
 10 14  1  0  0  0  0
 14 15  1  0  0  0  0
 15 16  1  0  0  0  0
 16 17  1  0  0  0  0
 17 18  1  0  0  0  0
 18 19  2  0  0  0  0
 18 20  1  0  0  0  0
 17 21  1  0  0  0  0
  7 22  1  0  0  0  0
 22 23  2  0  0  0  0
 23 24  1  0  0  0  0
 24 25  2  0  0  0  0
 25 26  1  0  0  0  0
 26 27  2  0  0  0  0
 22 27  1  0  0  0  0
M  END
> <DATABASE_ID>
DB13396

> <DATABASE_NAME>
drugbank

> <SMILES>
NC(CCCN1C(=O)NC(C1=O)(C1=CC=CC=C1)C1=CC=CC=C1)C(O)=O

> <INCHI_IDENTIFIER>
InChI=1S/C20H21N3O4/c21-16(17(24)25)12-7-13-23-18(26)20(22-19(23)27,14-8-3-1-4-9-14)15-10-5-2-6-11-15/h1-6,8-11,16H,7,12-13,21H2,(H,22,27)(H,24,25)

> <INCHI_KEY>
PAJBBDCZSMDSFL-UHFFFAOYSA-N

> <FORMULA>
C20H21N3O4

> <MOLECULAR_WEIGHT>
367.405

> <EXACT_MASS>
367.153206168

> <JCHEM_ACCEPTOR_COUNT>
5

> <JCHEM_ATOM_COUNT>
48

> <JCHEM_AVERAGE_POLARIZABILITY>
38.127126128109154

> <JCHEM_BIOAVAILABILITY>
1

> <JCHEM_DONOR_COUNT>
3

> <JCHEM_FORMAL_CHARGE>
0

> <JCHEM_GHOSE_FILTER>
0

> <JCHEM_IUPAC>
2-amino-5-(2,5-dioxo-4,4-diphenylimidazolidin-1-yl)pentanoic acid

> <ALOGPS_LOGP>
0.82

> <JCHEM_LOGP>
-0.4206971295968036

> <ALOGPS_LOGS>
-4.32

> <JCHEM_MDDR_LIKE_RULE>
1

> <JCHEM_NUMBER_OF_RINGS>
3

> <JCHEM_PHYSIOLOGICAL_CHARGE>
0

> <JCHEM_PKA>
10.747803474386345

> <JCHEM_PKA_STRONGEST_ACIDIC>
1.6810751337982226

> <JCHEM_PKA_STRONGEST_BASIC>
9.203122936791923

> <JCHEM_POLAR_SURFACE_AREA>
112.73

> <JCHEM_REFRACTIVITY>
98.3687

> <JCHEM_ROTATABLE_BOND_COUNT>
7

> <JCHEM_RULE_OF_FIVE>
1

> <ALOGPS_SOLUBILITY>
1.77e-02 g/l

> <JCHEM_TRADITIONAL_IUPAC>
2-amino-5-(2,5-dioxo-4,4-diphenylimidazolidin-1-yl)pentanoic acid

> <JCHEM_VEBER_RULE>
0

> <DRUGBANK_ID>
DB13396

> <DRUG_GROUPS>
experimental

> <GENERIC_NAME>
Neocitrullamon

> <SYNONYMS>
amino(diphenylhydantoin) valeric acid; Citrullamon V; Phenytoin-3-norvaline

$$$$
