
  Mrv1909 12102023272D          

 39 41  0  0  0  0            999 V2000
   -2.4250    3.4476    0.0000 C   0  0  0  0  0  0  0  0  0  0  0  0
   -3.1395    3.0351    0.0000 C   0  0  0  0  0  0  0  0  0  0  0  0
   -3.1395    2.2101    0.0000 C   0  0  0  0  0  0  0  0  0  0  0  0
   -2.4250    1.7976    0.0000 C   0  0  0  0  0  0  0  0  0  0  0  0
   -1.7105    2.2101    0.0000 C   0  0  0  0  0  0  0  0  0  0  0  0
   -1.7105    3.0351    0.0000 C   0  0  0  0  0  0  0  0  0  0  0  0
   -0.9259    3.2901    0.0000 O   0  0  0  0  0  0  0  0  0  0  0  0
   -0.9259    1.9552    0.0000 C   0  0  0  0  0  0  0  0  0  0  0  0
   -0.4410    2.6226    0.0000 C   0  0  0  0  0  0  0  0  0  0  0  0
   -3.8540    1.7976    0.0000 C   0  0  0  0  0  0  0  0  0  0  0  0
   -4.5685    2.2101    0.0000 O   0  0  0  0  0  0  0  0  0  0  0  0
   -3.8540    0.9726    0.0000 O   0  0  0  0  0  0  0  0  0  0  0  0
   -5.2829    1.7976    0.0000 C   0  0  0  0  0  0  0  0  0  0  0  0
   -5.9975    2.2101    0.0000 C   0  0  0  0  0  0  0  0  0  0  0  0
   -5.2829    0.9726    0.0000 C   0  0  0  0  0  0  0  0  0  0  0  0
    0.3839    2.6226    0.0000 C   0  0  0  0  0  0  0  0  0  0  0  0
    0.7964    3.3371    0.0000 C   0  0  0  0  0  0  0  0  0  0  0  0
    1.6214    3.3371    0.0000 C   0  0  0  0  0  0  0  0  0  0  0  0
    2.0339    4.0516    0.0000 C   0  0  0  0  0  0  0  0  0  0  0  0
   -0.6710    1.1706    0.0000 C   0  0  0  0  0  0  0  0  0  0  0  0
    0.1359    0.9990    0.0000 C   0  0  0  0  0  0  0  0  0  0  0  0
   -1.2230    0.5575    0.0000 O   0  0  0  0  0  0  0  0  0  0  0  0
    0.6879    1.6121    0.0000 C   0  0  0  0  0  0  0  0  0  0  0  0
    0.3908    0.2144    0.0000 C   0  0  0  0  0  0  0  0  0  0  0  0
    1.1978    0.0429    0.0000 C   0  0  0  0  0  0  0  0  0  0  0  0
    1.7498    0.6560    0.0000 C   0  0  0  0  0  0  0  0  0  0  0  0
    1.4949    1.4406    0.0000 C   0  0  0  0  0  0  0  0  0  0  0  0
    2.5568    0.4845    0.0000 C   0  0  0  0  0  0  0  0  0  0  0  0
    2.8117   -0.3001    0.0000 C   0  0  0  0  0  0  0  0  0  0  0  0
    3.6187   -0.4716    0.0000 C   0  0  0  0  0  0  0  0  0  0  0  0
    3.8737   -1.2562    0.0000 N   0  0  0  0  0  0  0  0  0  0  0  0
    4.6806   -1.4277    0.0000 C   0  0  0  0  0  0  0  0  0  0  0  0
    4.9356   -2.2124    0.0000 C   0  0  0  0  0  0  0  0  0  0  0  0
    5.7425   -2.3839    0.0000 C   0  0  0  0  0  0  0  0  0  0  0  0
    5.9975   -3.1685    0.0000 C   0  0  0  0  0  0  0  0  0  0  0  0
    3.3216   -1.8693    0.0000 C   0  0  0  0  0  0  0  0  0  0  0  0
    3.5766   -2.6539    0.0000 C   0  0  0  0  0  0  0  0  0  0  0  0
    3.0245   -3.2670    0.0000 C   0  0  0  0  0  0  0  0  0  0  0  0
    3.2795   -4.0516    0.0000 C   0  0  0  0  0  0  0  0  0  0  0  0
  1  2  2  0  0  0  0
  1  6  1  0  0  0  0
  2  3  1  0  0  0  0
  3  4  2  0  0  0  0
  4  5  1  0  0  0  0
  5  8  1  0  0  0  0
  6  5  2  0  0  0  0
  7  6  1  0  0  0  0
  7  9  1  0  0  0  0
  8  9  2  0  0  0  0
  3 10  1  0  0  0  0
 10 11  1  0  0  0  0
 10 12  2  0  0  0  0
 11 13  1  0  0  0  0
 13 14  1  0  0  0  0
 13 15  1  0  0  0  0
  9 16  1  0  0  0  0
 16 17  1  0  0  0  0
 17 18  1  0  0  0  0
 18 19  1  0  0  0  0
  8 20  1  0  0  0  0
 20 21  1  0  0  0  0
 20 22  2  0  0  0  0
 23 21  2  0  0  0  0
 21 24  1  0  0  0  0
 23 27  1  0  0  0  0
 24 25  2  0  0  0  0
 25 26  1  0  0  0  0
 26 27  2  0  0  0  0
 26 28  1  0  0  0  0
 28 29  1  0  0  0  0
 29 30  1  0  0  0  0
 30 31  1  0  0  0  0
 31 32  1  0  0  0  0
 32 33  1  0  0  0  0
 33 34  1  0  0  0  0
 34 35  1  0  0  0  0
 31 36  1  0  0  0  0
 36 37  1  0  0  0  0
 37 38  1  0  0  0  0
 38 39  1  0  0  0  0
M  END
> <DATABASE_ID>
DB16012

> <DATABASE_NAME>
drugbank

> <SMILES>
CCCCN(CCCC)CCCC1=CC=C(C=C1)C(=O)C1=C(CCCC)OC2=C1C=C(C=C2)C(=O)OC(C)C

> <INCHI_IDENTIFIER>
InChI=1S/C34H47NO4/c1-6-9-14-31-32(29-24-28(19-20-30(29)39-31)34(37)38-25(4)5)33(36)27-17-15-26(16-18-27)13-12-23-35(21-10-7-2)22-11-8-3/h15-20,24-25H,6-14,21-23H2,1-5H3

> <INCHI_KEY>
ZCENNVQCOZQSGH-UHFFFAOYSA-N

> <FORMULA>
C34H47NO4

> <MOLECULAR_WEIGHT>
533.753

> <EXACT_MASS>
533.350508997

> <JCHEM_ACCEPTOR_COUNT>
3

> <JCHEM_ATOM_COUNT>
86

> <JCHEM_AVERAGE_NEUTRAL_MICROSPECIES_CHARGE>
0.9997089891190848

> <JCHEM_AVERAGE_POLARIZABILITY>
66.01421208950788

> <JCHEM_BIOAVAILABILITY>
0

> <JCHEM_DONOR_COUNT>
0

> <JCHEM_FORMAL_CHARGE>
0

> <JCHEM_GHOSE_FILTER>
0

> <JCHEM_IUPAC>
propan-2-yl 2-butyl-3-{4-[3-(dibutylamino)propyl]benzoyl}-1-benzofuran-5-carboxylate

> <ALOGPS_LOGP>
7.74

> <JCHEM_LOGP>
9.302227911666666

> <ALOGPS_LOGS>
-5.51

> <JCHEM_MDDR_LIKE_RULE>
1

> <JCHEM_NEUTRAL_CHARGE>
1

> <JCHEM_NUMBER_OF_RINGS>
3

> <JCHEM_PHYSIOLOGICAL_CHARGE>
1

> <JCHEM_PKA_STRONGEST_BASIC>
10.535964218371657

> <JCHEM_POLAR_SURFACE_AREA>
59.75

> <JCHEM_REFRACTIVITY>
161.1889

> <JCHEM_ROTATABLE_BOND_COUNT>
18

> <JCHEM_RULE_OF_FIVE>
0

> <ALOGPS_SOLUBILITY>
1.65e-03 g/l

> <JCHEM_TRADITIONAL_IUPAC>
3-[4-(aminomethyl)-1-{5-methyl-7H-pyrrolo[2,3-d]pyrimidin-4-yl}piperidine-4-amido]phenyl N,N-dimethylcarbamate hydrochloride

> <JCHEM_VEBER_RULE>
0

> <DRUGBANK_ID>
DB16012

> <DRUG_GROUPS>
investigational

> <GENERIC_NAME>
Celivarone

> <SYNONYMS>
Celivarone; Isopropyl 2-butyl-3-(4-(3-(dibutylamino)propyl)benzoyl)-1-benzofuran-5-carboxylate

> <SALTS>
Celivarone fumarate

$$$$
