
  Mrv1572001271616172D          

 22 23  0  0  0  0            999 V2000
   -1.4289    4.9500    0.0000 C   0  0  0  0  0  0  0  0  0  0  0  0
   -2.1434    3.7125    0.0000 C   0  0  0  0  0  0  0  0  0  0  0  0
   -2.8579    4.1250    0.0000 C   0  0  0  0  0  0  0  0  0  0  0  0
   -4.2868    4.1250    0.0000 C   0  0  0  0  0  0  0  0  0  0  0  0
   -3.5724    2.8875    0.0000 C   0  0  0  0  0  0  0  0  0  0  0  0
    2.1434    3.7125    0.0000 C   0  0  0  0  0  0  0  0  0  0  0  0
    1.4289    4.9500    0.0000 C   0  0  0  0  0  0  0  0  0  0  0  0
   -5.0013    3.7125    0.0000 C   0  0  0  0  0  0  0  0  0  0  0  0
   -4.2868    2.4750    0.0000 C   0  0  0  0  0  0  0  0  0  0  0  0
    2.8579    4.1250    0.0000 C   0  0  0  0  0  0  0  0  0  0  0  0
    2.1434    5.3625    0.0000 C   0  0  0  0  0  0  0  0  0  0  0  0
    0.0000    4.1250    0.0000 C   0  0  0  0  0  0  0  0  0  0  0  0
   -1.4289    4.1250    0.0000 C   0  0  0  0  0  0  0  0  0  0  0  0
   -3.5724    3.7125    0.0000 C   0  0  0  0  0  0  0  0  0  0  0  0
    1.4289    4.1250    0.0000 C   0  0  0  0  0  0  0  0  0  0  0  0
   -5.0013    2.8875    0.0000 C   0  0  0  0  0  0  0  0  0  0  0  0
    2.8579    4.9500    0.0000 C   0  0  0  0  0  0  0  0  0  0  0  0
    0.7145    3.7125    0.0000 C   0  0  0  0  0  0  0  0  0  0  0  0
   -0.7145    3.7125    0.0000 N   0  0  0  0  0  0  0  0  0  0  0  0
   -5.7158    2.4750    0.0000 O   0  0  0  0  0  0  0  0  0  0  0  0
    3.5724    5.3625    0.0000 O   0  0  0  0  0  0  0  0  0  0  0  0
    0.7145    2.8875    0.0000 O   0  0  0  0  0  0  0  0  0  0  0  0
  3  2  1  0  0  0  0
  8  4  1  0  0  0  0
  9  5  2  0  0  0  0
 10  6  1  0  0  0  0
 11  7  2  0  0  0  0
 13  1  1  0  0  0  0
 13  2  1  0  0  0  0
 14  3  1  0  0  0  0
 14  4  2  0  0  0  0
 14  5  1  0  0  0  0
 15  6  2  0  0  0  0
 15  7  1  0  0  0  0
 16  8  2  0  0  0  0
 16  9  1  0  0  0  0
 17 10  2  0  0  0  0
 17 11  1  0  0  0  0
 18 12  1  0  0  0  0
 18 15  1  0  0  0  0
 19 12  1  0  0  0  0
 19 13  1  0  0  0  0
 20 16  1  0  0  0  0
 21 17  1  0  0  0  0
 22 18  1  0  0  0  0
M  END
> <DATABASE_ID>
DB11541

> <DATABASE_NAME>
drugbank

> <SMILES>
CC(CCC1=CC=C(O)C=C1)NCC(O)C1=CC=C(O)C=C1

> <INCHI_IDENTIFIER>
InChI=1S/C18H23NO3/c1-13(2-3-14-4-8-16(20)9-5-14)19-12-18(22)15-6-10-17(21)11-7-15/h4-11,13,18-22H,2-3,12H2,1H3

> <INCHI_KEY>
YJQZYXCXBBCEAQ-UHFFFAOYSA-N

> <FORMULA>
C18H23NO3

> <MOLECULAR_WEIGHT>
301.386

> <EXACT_MASS>
301.167793605

> <JCHEM_ACCEPTOR_COUNT>
4

> <JCHEM_ATOM_COUNT>
45

> <JCHEM_AVERAGE_POLARIZABILITY>
33.57945986714978

> <JCHEM_BIOAVAILABILITY>
1

> <JCHEM_DONOR_COUNT>
4

> <JCHEM_FORMAL_CHARGE>
0

> <JCHEM_GHOSE_FILTER>
1

> <JCHEM_IUPAC>
4-(3-{[2-hydroxy-2-(4-hydroxyphenyl)ethyl]amino}butyl)phenol

> <ALOGPS_LOGP>
2.17

> <JCHEM_LOGP>
2.2040715040809156

> <ALOGPS_LOGS>
-4.05

> <JCHEM_MDDR_LIKE_RULE>
0

> <JCHEM_NUMBER_OF_RINGS>
2

> <JCHEM_PHYSIOLOGICAL_CHARGE>
1

> <JCHEM_PKA>
10.500351874503771

> <JCHEM_PKA_STRONGEST_ACIDIC>
9.194440468811358

> <JCHEM_PKA_STRONGEST_BASIC>
9.888725546966933

> <JCHEM_POLAR_SURFACE_AREA>
72.72

> <JCHEM_REFRACTIVITY>
87.61770000000001

> <JCHEM_ROTATABLE_BOND_COUNT>
7

> <JCHEM_RULE_OF_FIVE>
1

> <ALOGPS_SOLUBILITY>
2.66e-02 g/l

> <JCHEM_TRADITIONAL_IUPAC>
ractopamine

> <JCHEM_VEBER_RULE>
0

> <DRUGBANK_ID>
DB11541

> <DRUG_GROUPS>
vet_approved

> <GENERIC_NAME>
Ractopamine

> <SYNONYMS>
Ractopamine

> <SALTS>
Ractopamine hydrochloride

$$$$
