
  Mrv1718007041812132D          

  3  0  0  0  0  0            999 V2000
   -0.4125    0.0000    0.0000 Co  0  2  0  0  0  0  0  0  0  0  0  0
    0.4125   -0.8250    0.0000 Cl  0  5  0  0  0  0  0  0  0  0  0  0
    0.4125    0.8250    0.0000 Cl  0  5  0  0  0  0  0  0  0  0  0  0
M  CHG  3   1   2   2  -1   3  -1
M  END
> <DATABASE_ID>
DB14206

> <DATABASE_NAME>
drugbank

> <SMILES>
[Cl-].[Cl-].[Co++]

> <INCHI_IDENTIFIER>
InChI=1S/2ClH.Co/h2*1H;/q;;+2/p-2

> <INCHI_KEY>
GVPFVAHMJGGAJG-UHFFFAOYSA-L

> <FORMULA>
Cl2Co

> <MOLECULAR_WEIGHT>
129.839

> <EXACT_MASS>
128.870905608

> <JCHEM_ACCEPTOR_COUNT>
0

> <JCHEM_ATOM_COUNT>
3

> <JCHEM_AVERAGE_POLARIZABILITY>
2.3881688999999993

> <JCHEM_BIOAVAILABILITY>
1

> <JCHEM_DONOR_COUNT>
0

> <JCHEM_FORMAL_CHARGE>
0

> <JCHEM_GHOSE_FILTER>
0

> <JCHEM_IUPAC>
lambda2-cobalt(2+) dichloride

> <ALOGPS_LOGP>
0.95

> <JCHEM_LOGP>
0.6123387216666667

> <ALOGPS_LOGS>
-0.57

> <JCHEM_MDDR_LIKE_RULE>
0

> <JCHEM_NUMBER_OF_RINGS>
0

> <JCHEM_PHYSIOLOGICAL_CHARGE>
-1

> <JCHEM_PKA_STRONGEST_ACIDIC>
-7.000000000000001

> <JCHEM_POLAR_SURFACE_AREA>
0.0

> <JCHEM_REFRACTIVITY>
5.6156

> <JCHEM_ROTATABLE_BOND_COUNT>
0

> <JCHEM_RULE_OF_FIVE>
1

> <ALOGPS_SOLUBILITY>
3.53e+01 g/l

> <JCHEM_TRADITIONAL_IUPAC>
lambda2-cobalt(2+) dichloride

> <JCHEM_VEBER_RULE>
1

> <DRUGBANK_ID>
DB14206

> <DRUG_GROUPS>
approved; experimental

> <GENERIC_NAME>
Cobalt chloride

> <SYNONYMS>
Cobalt dichloride; cobalt muriate; cobalt(2+) chloride; Cobalt(II) chloride; cobaltous chloride; cobaltous chloride anhydrous; cobaltous dichloride; dichlorocobalt; Kobalt chlori; Kobalt(II)-chlorid; Kobaltdichlorid

> <PRODUCTS>
Ceretec; T.R.U.E. Test Thin-Layer Rapid Use Patch Test

> <SALTS>
Cobalt chloride hexahydrate

$$$$
