
  Mrv1909 03032022222D          

 18 18  0  0  0  0            999 V2000
   -2.1324   -0.0017    0.0000 C   0  0  0  0  0  0  0  0  0  0  0  0
   -1.4152    0.4070    0.0000 C   0  0  0  0  0  0  0  0  0  0  0  0
   -2.8045    0.4381    0.0000 C   0  0  0  0  0  0  0  0  0  0  0  0
   -2.1186   -0.8194    0.0000 C   0  0  0  0  0  0  0  0  0  0  0  0
   -0.7119   -0.0190    0.0000 O   0  0  0  0  0  0  0  0  0  0  0  0
   -1.4152    1.2386    0.0000 O   0  0  0  0  0  0  0  0  0  0  0  0
   -3.5600    0.0051    0.0000 C   0  0  0  0  0  0  0  0  0  0  0  0
   -2.8045    1.1865    0.0000 O   0  0  0  0  0  0  0  0  0  0  0  0
   -2.8844   -1.2214    0.0000 C   0  0  0  0  0  0  0  0  0  0  0  0
    0.0087    0.4000    0.0000 C   0  0  0  0  0  0  0  0  0  0  0  0
   -3.5600   -0.8194    0.0000 C   0  0  0  0  0  0  0  0  0  0  0  0
    0.6981   -0.0155    0.0000 C   0  0  0  0  0  0  0  0  0  0  0  0
    1.4222    0.4000    0.0000 C   0  0  0  0  0  0  0  0  0  0  0  0
    0.6981   -0.8229    0.0000 C   0  0  0  0  0  0  0  0  0  0  0  0
    2.1256   -0.0190    0.0000 C   0  0  0  0  0  0  0  0  0  0  0  0
    1.4154   -1.2386    0.0000 C   0  0  0  0  0  0  0  0  0  0  0  0
    2.8428    0.4000    0.0000 C   0  0  0  0  0  0  0  0  0  0  0  0
    3.5600   -0.0329    0.0000 C   0  0  0  0  0  0  0  0  0  0  0  0
  1  2  1  0  0  0  0
  1  3  2  0  0  0  0
  1  4  1  0  0  0  0
  2  5  1  0  0  0  0
  2  6  2  0  0  0  0
  3  7  1  0  0  0  0
  3  8  1  0  0  0  0
  4  9  2  0  0  0  0
  5 10  1  0  0  0  0
  7 11  2  0  0  0  0
 10 12  1  0  0  0  0
 12 13  1  0  0  0  0
 12 14  1  0  0  0  0
 13 15  1  0  0  0  0
 14 16  1  0  0  0  0
 15 17  1  0  0  0  0
 17 18  1  0  0  0  0
  9 11  1  0  0  0  0
M  END
> <DATABASE_ID>
DB11062

> <DATABASE_NAME>
drugbank

> <SMILES>
CCCCC(CC)COC(=O)C1=C(O)C=CC=C1

> <INCHI_IDENTIFIER>
InChI=1S/C15H22O3/c1-3-5-8-12(4-2)11-18-15(17)13-9-6-7-10-14(13)16/h6-7,9-10,12,16H,3-5,8,11H2,1-2H3

> <INCHI_KEY>
FMRHJJZUHUTGKE-UHFFFAOYSA-N

> <FORMULA>
C15H22O3

> <MOLECULAR_WEIGHT>
250.3334

> <EXACT_MASS>
250.15689457

> <JCHEM_ACCEPTOR_COUNT>
2

> <JCHEM_ATOM_COUNT>
40

> <JCHEM_AVERAGE_NEUTRAL_MICROSPECIES_CHARGE>
-0.0019043473161390544

> <JCHEM_AVERAGE_POLARIZABILITY>
28.804847774838237

> <JCHEM_BIOAVAILABILITY>
1

> <JCHEM_DONOR_COUNT>
1

> <JCHEM_FORMAL_CHARGE>
0

> <JCHEM_GHOSE_FILTER>
1

> <JCHEM_IUPAC>
2-ethylhexyl 2-hydroxybenzoate

> <ALOGPS_LOGP>
4.79

> <JCHEM_LOGP>
5.345735294333333

> <ALOGPS_LOGS>
-4.02

> <JCHEM_MDDR_LIKE_RULE>
0

> <JCHEM_NEUTRAL_CHARGE>
0

> <JCHEM_NUMBER_OF_RINGS>
1

> <JCHEM_PHYSIOLOGICAL_CHARGE>
0

> <JCHEM_PKA_STRONGEST_ACIDIC>
9.719426004605916

> <JCHEM_PKA_STRONGEST_BASIC>
-4.287631969569434

> <JCHEM_POLAR_SURFACE_AREA>
46.53

> <JCHEM_REFRACTIVITY>
72.2124

> <JCHEM_ROTATABLE_BOND_COUNT>
8

> <JCHEM_RULE_OF_FIVE>
0

> <ALOGPS_SOLUBILITY>
2.38e-02 g/l

> <JCHEM_TRADITIONAL_IUPAC>
ethyl 6-bromo-4-[(dimethylamino)methyl]-5-hydroxy-2-(hydroxymethyl)-1-methylindole-3-carboxylate

> <JCHEM_VEBER_RULE>
0

> <DRUGBANK_ID>
DB11062

> <DRUG_GROUPS>
approved; investigational

> <GENERIC_NAME>
Octisalate

> <SYNONYMS>
2-Ethylhexyl 2-hydroxybenzoate; 2-Ethylhexyl salicylate; Octisalate; Octyl salicylate

> <PRODUCTS>
(Re)Setting Refreshing Mist SPF 40; 01 Balancing Foundation SPF 15; 02 Balancing Foundation SPF 15; 02 Cushion Spf45 Sunscreen; 03 Balancing Foundation SPF 15; 04 Balancing Foundation SPF 15; 05 Balancing Foundation SPF 15; 06 Balancing Foundation SPF 15; 07 Balancing Foundation SPF 15; 08 Balancing Foundation SPF 15; 09 Balancing Foundation SPF 15; 10 Balancing Foundation SPF 15; 100 SPF Cream; 1000 Roses Daily Shade Facial SPF 18; 1177, 1178 Sunscreen; 14-day Skin Rescue SPF 30; 15 Continuous Spray Sunscreen With Instant Bronzer; 15 SPF Sunscreen Uva/uvb Protection Oil-free Milky Spray; 15 SPF Sunscreen Uva/uvb Protection Vitalizing Age-defying Cream; 15 Spray Gel Sunscreen With Instant Bronzer; 15 Tanning CVS; 15HR COVER LASTING M201 Medium Beige SPF50; 15HR COVER LASTING V201 Apricot Beige SPF50; 15hr Cover Lasting Spf50; 2 in 1 Sunscreen and Gradual Self-Tanner; 21STAY A Thera Sun Block; 24/7 Life Kids Sunscreen SPF 50; 24/7 Life Sunscreen SPF 50; 24/7 Life by 7- Eleven Sunscreen Broad Spectrum SPF50; 24/7 Life by 7-Eleven Broad Spectrum SPF 50; 24/7 life by 7-Eleven Broad Spectrum SPF; 24K Bio-Brightening Skin Tone Moisturizer SPF 30; 24K Skin Tone Moisturizer SPF 30; 29 by LYDIA MONDAVI Napa Valley BROAD SPECTRUM SPF 30 D VINE DAY; 3-in-1 Face Moisturizer Broad Spectrum SPF 20; 30 Continuous Spray Sunscreen With Instant Bronzer; 30 Lotion Sunscreen Moisture Max; 30 Plus; 30 Plus Sunblock Spray; 30 SPF; 30 SPF Jack Nicklaus; 30 SPF Oil Free; 30 SPF Sunscreen Uva/uvb Protection Delicate Skin Ultra Soothing Lotion; 30 SPF Sunscreen Uva/uvb Protection High Protection Age-defying Cream; 30 SPF Sunscreen Uva/uvb Protection Oil-free Milky Spray; 30 Spray Gel Sunscreen With Instant Bronzer; 360 by QUR Lemon Verbena lip balm; 360 by QUR Spanish lime lip balm; 360 by QUR Vanilla lace lip balm; 360 by QUR Watercress mint lip balm; 3CE Fitting Cushion Foundation 001; 3CE Fitting Cushion Foundation 002; 3CE Tinted moisture cushion CC 001; 3CE Tinted moisture cushion CC 002; 3Function CC Cream; 3LAB Hydra Day SPF 20 Broad Spectrum Water-Based Sunscreen; 3LAB PERFECT Sunscreen SPF 50 Plus Broad Spectrum; 3lab Ww Day Spf40 Broad Spectrum; 4-IN-1 Broad Spectrum SPF 50 Sunscreen; 4362 First Aid Kit; 45 Plus; 45 SPF Sunblock Lotion; 45 SPF Sunblock Spray; 45 SPF Sunscreen Spray; 4Life Enummi Protective Day Moisturizer SPF-15; 50 Lotion Sunscreen Moisture Max; 50 Spray Gel Sunscreen With Instant Bronzer; 50+ Dry Touch CRÃ¨me Protection Solaire Large Spectre Fps 50+ / Sun Protection Cream Broad Spectrum SPF 50+; 5281 Sunscreen; 5283 Sunscreen; 5298 Sunscreen; 5299 Sunscreen; 5407 Sunscreen; 5414 Sunscreen; 7 In One Cc Tone Correcting; 7 Select Sport SPF 30; 7-Eleven Broad Spectrum SPF; 7-Select Sport SPF 50; 7-in-1 Anti-Aging Vitamin Moisturizer Broad Spectrum SPF15 Sunscreen; 70 Dry Touch SPF 70; 70 SPF Body Mist; 70 SPF Cream; 85 SPF Cream; A Cream SPF 30; A M Stimulus Complex SPF 25; A Perfect World SPF 25 Age Defense Moisturizer With White Tea; A Perfect World SPF 35 Uv Broad Spectrum Face Protector; A Perfect World SPF 40 Age Defense Broad Spectrum Moisturizer With White Tea; A-cream; A.H.C. COMPLETE CHOICE Color Change Cream; A.H.c Natural Plus Sun; ACWELL SOLAR DEFENSE LICORICE Suncream; ACWELL UV CUT Waterproof Sun; AGELESS Total Rejuvenating Hand; AHAVA ACTIVE DEADSEA MINERALS AHAVA Age Control Even Tone Moisturizer Broad Spectrum SPF 20; AHAVA ACTIVE DEADSEA MINERALS Mineral Suncare spf 15; AHAVA ACTIVE DEADSEA MINERALS Mineral Suncare spf 30; AHAVA ACTIVE DEADSEA MINERALS Mineral Suncare spf 50; AHAVA ACTIVE DEADSEA MINERALS Mineral Suncare spf 50 face; AHAVA Protecting Body SPF30; AHAVA Protecting Moisturizing SPF50; AL00378 Alba Cool Sport Sunscreen SPF50; AL0038100 Alba HW Sunscreen Coconut Milk SPF50; AL0038100 Alba VE Sunscreen Fragrance Free SPF50; AL0038200 Alba VE Sunscreen Kids SPF50; AL0038400 Alba Botanica Fast Fix Sun SPF30; AL0038502 Alba Tropical Fruit Kids Sunscreen SPF40; AL0039006 Alba Sport Sunscreen Fragrance Free SPF45; AL0043800 Alba Botanica Sheer Shield Sunscreen FF SPF50; AL0082706 Alba Botanica HW Sunscreen Green Tea SPF45; AL0083103 Alba Hawaiian Dry Coconut Sunscreen SPF15; ALGODEFENSE Rides Multi Protectrice Multi-Protective Wrinkle Cream Sunscreen Broad Spectrum SPF20; ALOE UP Broad Spectrum SPF 15 Sunscreen; ALOE UP Broad Spectrum SPF 30 Sunscreen; ALOE UP Broad Spectrum SPF 50 Sunscreen; ALOE UP Kids Broad Spectrum SPF 50 Sunscreen; AMBI Even and Clear Facial Moisturizer SPF-30; AMBI SKINCARE Even and Clear Daily Facial Moisturizer SPF 30; AMBI Sunscreen; AMOREPACIFIC FUTURE RESPONSE Age Defense SPF30; ANEW Platinum Day; ANEW Solar Advance Sunscreen Body Mist; ANNA LOTAN Clear Protector Free Broad Spectrum SPF 32 Sunscreen; ANTI-AGING CONCEALER FACE EYES SUNSCREEN SPF 20 Shade 10; APPLE OF SODOM Deep Wrinkle Broad Spectrum SPF30; ARTISTRY IDEAL RADIANCE UV Protect SPF 50 PLUS Broad Spectrum Sunscreen; ARTISTRY Time Defiance UV Defense SPF 50 Ultra Facial Sunscreen; ASYSTEM Daily Defense Moisturizer SPF30; Abib Quick Sunstick Protection Bar; Absolue Creme SPF 15; Absolue Fluide SPF 15; Absolue Hand SPF 15; Absolue Premium Bx Sunscreen Broad Spectrum SPF 15 Absolute Replenishing; Absolue Velvet Cream With Broad Spectrum SPF 15; Absolutely Ageless Daily Moisturizer; Abyssine Cream + SPF 23; Academy SPF 50; Academy Sport SPF 30; Academy Sport SPF 50; Academy Sport Smart Care Kids SPF 50 Sunscreen; Acaifusion Lip Balm Broad Spectrum SPF 30 Supergoop; Acne Bb Broad Spectrum SPF 40; Active; Active Breathable Sunblock SPF 30; Active Breathable Sunblock SPF 45; Active Radiance Day Moisture SPF 30; Active SPF 30; Active SPF 30 Dry Lot Sunscreen; Active SPF 30 Sunblock - Lot; Active SPF 45; Active Sport; Active Sport Family Sunscreen SPF 35; Active Sunscreen Lotion SPF 50; Acwell Aqua Cap Sule Sun Control; Acwell Daily Sun Control; Adaptasun Sea and Tropics / Mer Et Tropiques Protective Face Care / Soin Protecteur Visage SPF 25 / Fps 25; Adaptasun Sea and Tropics Protective Face Care SPF 25; Advanced Anti Aging Unscented with sunscreen SPF 20; Advanced Anti-Wrinkle Therapy Cicatricure; Advanced Ceramide Lift and Firm Day Cream Broad Spectrum Sunscreen SPF 15; Advanced Dynamics Soothing day Moisture Broad Spectrum SPF 15 Jafra; Advanced Firming and Anti Wrinkle; Advanced Firming and Anti-Wrinkle Moisturizer Day Broad Spectrum SPF18 Sunscreen; Advanced Marine Biology Day Cream; Advanced Marine Biology Day SPF 20 La Prairie Group AG; Advanced Marine Biology Day Sunscreen Broad Spectrum SPF 20; Advanced Protection Sunscreen SPF-30; Advanced Solutions Daily Moisturizer SPF 15; Advanced Time Zone Age Reversing Line Wrinkle Broad Spectrum SPF 15 Dry Skin; Advanced Time Zone Age Reversing Line Wrinkle Broad Spectrum SPF 15 Normal Combo Skin; Advanced Time Zone Age Reversing Line/Wrinkle Oil Free Broad Spectrum SPF 15 Normal/Combination Skin; Aegis Daily Facial SPF 25; Affinia Facial Moisturizer; Africa Bird Homme Bb Moisturizer; Agatha Fitting Touch Make Up Set; Age Balancing Moisture Broad Spectrum SPF 30 | Pa+++; Age Defense BB Cream SPF 30; Age Defense Bb Broad Spectrum SPF 30 All Skin Types; Age Defying Hydrating Sunscreen SPF 30; Age Defying Moisturizer SPF 18; Age Fitness Power 2 SPF 15; Age Iq Sunscreen Gel Broad Spectrum SPF 40; Age Minimize 3d Day Cream SPF 30 Broad Spectrum Sunscreen; Age Perfect Glow Renewal SPF 30 Day Lotion Moisturizer; Age Perfect Hydra-nutrition Ultra-nourishing Lotion; Age Perfect Rosy Tone Day Cream; Age Renewal Deep Wrinkle Moisturizer; Age Renewal Firming; Age Renewal Firming and Hydrating Moisturizer; Age Renewal Firming and Hydrating Moisturizer SPF 30; Age Shield Face + Moisturizing Repair; Age Shield Face Sunscreen SPF 110; Age Shield Face Sunscreen SPF 60; Age Shield Face Sunscreen SPF 85; Age and Pollution protector Broad Spectrum SPF 50; Age-defying + Moisturizing Neck & Chest Treatment SPF 15; Age-fighting Moisturizer Sunscreen SPF 30; Ageless Results Renewing Day Cream Creme De Jour Revigorante SPF/fps 15; Ageless Solar Defense (SPF 30); Ahava Active Deadsea Minerals Age Control Even Tone Moisturizer Broad Spectrum Spf20; Ahava Active Deadsea Minerals Time To Energize Age Control Moisturizing Broad Spectrum Spf15; Ahava Active Deadsea Minerals Time To Hydrate Essential Lip Balm Broad Spectrum Spf15; Ahava Active Deadsea Minerals Time To Hydrate Essential Moisturizing Broad Spectrum Spf15; Ahava Age Perfecting Broad Spectrum Spf15; Alba Body Daily Shade SPF15; Alba Botanica Even Advanced Moisturizer SPF15; Alba Botanica Facial Sunscreen FF SPF30; Alba Botanica HW Sunscreen Aloe Vera SPF30; Alba Botanica HW Sunscreen Green Tea SPF45; Alba Botanica Kids SunscreenTropical Fruit SPF45; Alba Botanica Natural Even Advanced Sea Moss Moisturizer SPF15; Alba Botanica Natural Very Emollient Daily Shade SPF15; Alba Botanica Natural Very Emollient Sunscreen Kids SPF40; Alba Botanica Natural Very Emollient Sunscreen Sport Spray SPF40; Alba Botanica Pure Lavender Sunscreen SPF45; Alba Botanica Sensitive FF Sunscreen SPF30; Alba Botanica VE Daily Shade SPF15 Body; Alba Botanica Very Emollient / TrÃ¨s Ãmollient Lavender Fragrance Sunscreen Lotion/lotion Ãcran Solaire Ã Parfum De Lavande SPF Fps 45; Alba Botanica Very Emollient / TrÃ¨s Ãmollient Sport Sunscreen Lotion / Lotion Ãcran Solaire Sport SPF Fps 45; Alba Botanica Very Emollient/trÃ¨s Ãmollient Fragrance Free Facial Sunscreen Lotion/lotion Ãcran Solaire Non ParfumÃ©e Pour Le Visage SPF Fps 30; Alba Botanica Very Emollient/trÃ¨s Ãmollient Kids Sunscreen Lotion/lotion Ãcran Solaire Pour Enfants SPF Fps 45; Alba Even Advanced Sea Moss Moisturizer SPF15; Alba HW Sunscreen Soothing Aloe Vera SPF30; Alba Hawaiian Aloe Vera Sunblock SPF 30; Alba Hawaiian Coconut Siscreen SPF 15; Alba Hawaiian Green Tea Sunblock SPF 45; Alba Hawaiian Sunscreen Green Tea SPF45; Alba HawaiianDry Sunscreen SPF15; Alba Lip Care Sunblock SPF 25; Alba Sunblock Natural FF SPF 30; Alba Sunblock Natural Facial SPF 30; Alba Sunblock Natural Kids SPF 45; Alba Sunblock Natural Lavender SPF 45; Alba Sunblock Natural Sport SPF 45; Alba VE Facial Sunscreen SPF30; Alba VE Sunscreen SPF30 Fragrance Free; Alba VE Sunscreen Sport SPF45; Alba Very Emollient Sunscreen Lip Care SPF25; Aldi Lacura Kids SPF 50 Sunscreen; Aldi Lacura Sport SPF 50; Algenist; All Aglow Perfect Cushion Foundation; All Around Safe Block Aqua Sun Gel; All Around Safe Block Essence Sun; All Day Moisture with AHAs SPF 15 Broad Spectrum Sunscreen; All Day Sunscreen with SPF 30; All Seasons Lip Balm; All Sport Non-freeze Face Protector SPF 30; All-IN-one Lightweight Moisturizer Broad Spectrum Sunscreen SPF 30; Almay Anti Aging Lip Care SPF 20; Almay Best Blend Forever Makeup; Almay Daily Moisturizer SPF 15 for Dry Skin; Almay Daily Moisturizer SPF 15 for Normal Combo Skin; Almay Daily Moisturizer SPF 15 for Oily Skin; Almay Healthy Biome Makeup; Almay Kinetin Age Defying Daily Cream SPF 15; Almay Kinetin Age Defying Daily Lotion SPF 15; Almay Protective Lip Care SPF 25 (shade-clear); Almay Smart Shade CC Cream; Almay Time-off Lasting Moisture Lotion; Aloe Ice SPF 20; Aloe Ice SPF 50; Aloe Ice White SPF 30; Aloe Soothing Moisture Lotion SPF 15; Aloe Soothing Moisture SPF 15; Aloe Sun Bb Spf50 Plus Pa Plus Plus Plus; Aloe Sunscreen; Aloe Up Broad Spectrum SPF 15; Aloe Up Broad Spectrum SPF 30; Aloe Up Broad Spectrum SPF 30 Sunscreen; Aloe Up Broad Spectrum SPF 50; Aloe Up Broad Spectrum SPF 50 Sunscreen; Aloe Up Coco-mango SPF-10; Aloe Up Coco-mango SPF-50; Aloe Up Kids SPF 50; Aloe Up Kids Sport Sunscreen SPF 50; Aloe Up Light Tanning Oil SPF-6; Aloe Up Lil Kids Continuous Sunscreen SPF 50; Aloe Up Lil Kids SPF 50; Aloe Up Medicated Lip Balm SPF 30; Aloe Up Natural Lip Ice Sunscreen SPF 15; Aloe Up Pro 15; Aloe Up Pro 30 Continuous Sunscreen; Aloe Up Pro 50 Continuous Sunscreen; Aloe Up Pro SPF 30 Sunscreen; Aloe Up Pro SPF 30 Ultra Sport Sunscreen; Aloe Up Pro SPF 50 Advanced Formula Ultra Sport Sunscreen; Aloe Up Pro SPF 50 Lotion; Aloe Up SPF 30 C/S Sunscreen with Aloe Vera; Aloe Up SPF 30 Coco-Mango C-spray; Aloe Up SPF 50 C/S Sunscreen with Aloe Vera; Aloe Up SPF 50 Coco-Mango C-spray; Aloe Up Sport Natural Balm SPF-15; Aloe Up Sport SPF 30 C-Spray; Aloe Up Sport SPF 50 C-spray; Aloe Up Sport SPF-15; Aloe Up Sport SPF-50; Aloe Up Sunscreen SPF 50; Aloespa Sport SPF 24; Always Foundation Makeup Broad Spectrum SPF 15 Bisque; Always Foundation Makeup Broad Spectrum SPF 15 Buff; Always Foundation Makeup Broad Spectrum SPF 15 Cocoa; Always Foundation Makeup Broad Spectrum SPF 15 Deluxe Sample Kit; Always Foundation Makeup Broad Spectrum SPF 15 Golden Tan; Always Foundation Makeup Broad Spectrum SPF 15 Honey; Always Foundation Makeup Broad Spectrum SPF 15 Ivory; Always Foundation Makeup Broad Spectrum SPF 15 Natural; Always Foundation Makeup Broad Spectrum SPF 15 Natural Tan; Always Foundation Makeup Broad Spectrum SPF 15 Shell; Always Foundation Makeup Broad Spectrum SPF 15 Soft Ivory; Alyria Skin Optimizing System-corrective Protection-SPF 30 Mist; Amarte Ultra Veil Ultra Light Sunscreen Fluid; Amazing Face Skin Balancing Flexible Coverage Foundation; Ambi Essentials; Ambi Essentials Daily Moisturizer Sunscreen Broad Spectrum SPF15; Ambi Even and Clear CC Sunscreen Broad Spectrum SPF30; Ambi Even and Clear Daily Moisturizer Sunscreen Broad Spectrum SPF30; Ambient Light Body Lotion SPF 50; Ambient Light Face Cream SPF 50; Ambient Lip Shield Stick SPF 45; Ambient Ultra Light Mist Spray SPF 30; American Crew Acumen Multi Defense Moisturizing Sunscreen; American Crew All In One Face Balm Broad Spectrum SPF 15; American Crew All-IN-one Face Balm; American Crew All-IN-one Face Balm SPF 15; Amerisource Bergen Good Neighbor Pharmacy Sport SPF 50; Amla Glow Ultra Hydrating Day Moisturizer Broad Spectrum SPF 25 Sunscreen; Amorepacific Future Response Age Defense CRÃ¨me SPF 30; Amorepacific Future Response Age Defense Dual Eye CRÃ¨me With SPF 25 Sunscreen; Amorepacific Future Response Age Defense Dual Eye With SPF 25 Sunscreen; Amorepacific Natural Protector; Amorepacific Resort Collection Sun Protection; Amorepacific Resort Collection Sun Protection Mist; Amorepacific Resort Collection Sun Protection Mist Broad Spectrum SPF 30 Sunscreen; Andalou Naturals Daliy Defense with SPF 18; Anew Alternative Intensive Age Treatment SPF 25 Day; Anew Platinum Day Cream; Anew Rejuvenate 24 Hour Eye Moisturizer Hydratant Yeux 24 Heures SPF 25 Day; Anew Rejuvenate 24 hour Eye Moisturizer; Anew Rejuvenate Day Dial-A-glow Anti-aging Moisturizer SPF 15; Anew Rejuvenate Day Revitalizing; Anew Rejuvenate Day Revitalizing Cream / CRÃ¨me Revitalisante SPF/fps 25 Uva/uvb; Anew Rejuvenate Day Revitalizing Cream/creme Revitalisante SPF/fps 25; Anew Reversalist Day Renewal; Anew Reversalist Day Renewal Cream SPF Fps 25 Uva Uvb; Anew Solar Advance Sunscreen Body; Anew Solor Advance Sunscreen Face; Anew Sun Sunscreen Body Lotion; Anew Sun Sunscreen Body Mist Lotion; Anew Sun Sunscreen Face Lotion; Anew Vitale Day; Anew Vitale Day Cream; Angelica Protective SPF 15; Anna Lotan Clear Silky Sunscreen Gel Broad Spectrum SPF30; Anthelios Age Correct; Anthelios Dermo-kids; Anthelios Dermo-kids 50+; Anthelios Lotion Corps Ultra-fluide; Anthelios Mist; Anthelios SPF 45; Anthelios Spray SPF 30; Anthelios Spray SPF 45; Anthelios Ultra-fluid Lotion; Anthelios XL Melt-IN Cream; Anthelios XL Stick; Anti Aging SPF Moistruizer; Anti Aging Vitamin Complex; Anti-Age Global Complete Anti-Aging SPF20; Anti-Aging Complex SPF 30 Merle Norman; Anti-Aging Daily Moisturizer Sunscreen Broad-Spectrum SPF 30; Anti-Aging Day Broad Spectrum SPF 30 La Prairie Group AG; Anti-Aging Day Protect SPF 22; Anti-Aging Day SPF 30; Anti-Aging Emulsion SPF 30; Anti-Aging Eye Broad Spectrum SPF 15 la prairie Switzerland; Anti-Aging Eye SPF 15; Anti-Aging Tinted Moisturizer Broad Spectrum SPF 30; Anti-Aging Vitamin Complex 7-in-1 Broad Spectrum SPF15 Sunscreen; Anti-Wrinkle Day Cream Suncreen Broad Spectrum SPF 30; Anti-aging Complex Broad Spectrum SPF 30; Anti-aging Complex Emulsion Broad Spectrum SPF 30; Anti-aging Concealer Face Eyes Sunscreen SPF 20 Shade 20; Anti-aging Concealer Face Eyes Sunscreen SPF 20 Shade 30; Anti-aging Concealer Face Eyes Sunscreen SPF 20 Shade 40; Anti-aging Daily Moisturizer SPF 15; Anti-aging Day Sunscreen Broad Spectrum SPF 30; Anti-aging Eye Cream SPF 15; Anti-aging Eye Sunscreen Broad Spectrum SPF 15; Anti-aging Facial Moisturizer SPF/fps 70; Anti-aging Follow-UP Daycare SPF 15; Anti-aging Moisturizer Broad Spectrum SPF 30 | Pa+++; Anti-aging Moisturizing Complex-UV Protection; Anti-aging Sunscreen Broad Spectrum SPF 30; Anti-aging Tinted Moisturizer; Anti-shine Anthelios XL Dry Touch Gel-cream; Anti-shine Dry Touch Uv Lotion; Anti-wrinkle Intensive Day Cream; Anti-wrinkle and Firming Broad Spectrum Spf18 Sunscreen; Anti-Ã¢ge Global CRÃ¨me Fondamentale Jour Fps 20; Antioxidant Body Sunscreen Creme Spf50 Broad Spectrum; Antioxidant Daily Protectant SPF 30; Antioxidant Daily Protectant SPF 45; Antioxidant Daily Protectant SPF 50; Antioxidant Day SPF 15; Apostrophe Screen SPF43; Aprilskin Magic Essence Shower Cushion 21 Light Beige; Aprilskin Magic Essence Shower Cushion 23 Natural Beige; Aqua SPF 50; Aqua Soleil CRÃ¨me Visage Et Corps Fps 35; Aqua Soleil CRÃ¨me Visage Fps 30; Aqua Soleil Creme Visage Et Corps Fps 35; Aquagel Defense 50; Aqualia Thermal Uv; Aqualia Thermal Uv Defense Moisturizing Cream Spf30; Aqualia Thermal Uv SPF 20; Aquaphor Lip Protectant and Sunscreen; Aquaphor Lip Repair Stick and Sunscreen; Aquaphor Lip Repair and Protect; Aquapower; Aquasource Non Stop SPF 15 - Peau Normale Mixte; Aquasource Non Stop SPF 15 - Peau Seche; Aramis Lab Series Power Protector Broad Spectrum SPF 50; Aramis Lab Series Power Protector SPF 50; Arbonne Abc Arbonne Baby Care Sunscreen SPF 30; Arbonne Abc Arbonne Baby Care Water-resistant Sunscreen SPF 30; Arbonne Baby Care Sunscreen SPF 30; Arbonne International Abc Arbonne Children's Care Sunscreen SPF 30+; Arbonne International Before Sun Water Resistant Sunscreen SPF 30; Arbonne International Lip Saver Sunscreen SPF 30; Arbonne International Made In The Shade Self-tanner Sunscreen SPF 15; Arbonne International Save Face & Body Sunscreen SPF 15; Arbonne Lip Saver Sunscreen SPF 30; Arbonne Made In The Shade Self-tanner With SPF 15; Arbonne Made In The Shade Self-tanner With SPF-15; Arbonne Made in the Shade Self Tanner Sunscreen SPF 15; Arbonne RE9 Advanced Extra Moisture Restorative Day SPF 20; Arbonne RE9 Advanced for Men Facial Moisturizer SPF 20; Arbonne Revelage Age Spot Brightening Day with SPF 30; Arbonne Revelage Age Spot Brightening Hand Therapy with SPF 30; Arbonne Save Face & Body Sunscreen SPF 15; Arbonne Save Face and Body Sunscreen SPF 15; Arbonne Water-resistant Sunscreen SPF 30; Art Of Sport Skin Armor High Performance Broad Spectrum SPF-50 Sunscreen; Artistry Skin Nutrition BALANCING Matte Day; Artistry Skin Nutrition Balancing Matte Day Lotion; Artistry Skin Nutrition HYDRATING Day; Artistry Skin Nutrition Hydrating Day Lotion; Artistry Skin Nutrition RENEWING Reactivation Day Cream SPF 30; Artistry Skin Nutrition RENEWING Reactivation Day SPF 30; Artistry Skin Nutrition Renewing Reactivation Day Cream; Artistry Skin Nutrition Renewing Reactivation Day Lotion; Artistry Vi Moisture Rich Protective Moisturizer SPF 15; Artists Touch BB 01 Light; Artists Touch BB 02 Medium; Aruba Aloe Very Water Resistant Sunscreen SPF 50; Aruba Sun SPF 30 Sunscreen; Aruba Sun SPF 50 Sunscreen; Aruba Sun SPF 70 Sunscreen; Ato Ai Sun; Atomy Lip Glow; Atomy Sun; Atomy Sun Beige Spf50 Plus Pa Plus Plus Plus; Atomy Sun Cream SPF 50 Pa; Atomy Sun Spf50 Plus Pa Plus Plus Plus; Atomy Sunscreen Beige Broad Spectrum SPF 50 PLUS; Atomy Sunscreen Beige Broad Spectrum Spf50 Plus; Atomy Sunscreen Beige SPF50 PLUS; Atomy Sunscreen White Broad Spectrum SPF 50 PLUS; Atomy Sunscreen White Broad Spectrum Spf50 Plus; Atomy Sunscreen White SPF50 PLUS; Aubio Hydrating Lip Therapy Broad Spectrum SPF 30 Sunscreen; Aubio Life Sciences Lip; Aunt Bees Five Flavors Pineapple Coconut Lip Balm; Aunt Bees Five Flavors Sweet Almond Lip Balm; Aunt Bees Five Flavors Tangelo Lip Balm; Aunt Bees Five Flavors Wintermint Lip Balm; Aunt Bees SPF 35 Cherry Lip Balm; Aureli Broad Spectrum; Austalian Gold Broad Spectrum SPF 15 Sunscreen; Austalian Gold Broad Spectrum SPF 30 Sunscreen; Austalian Gold Broad Spectrum SPF 50 Sunscreen; Austalian Gold Sensitive Sun protection SPF 50; Austalian Gold Sunscreen stick SPF 50 high protection; Australian Gold BOAD SPECTRUM SPF 30; Australian Gold BOAD SPECTRUM SPF 50; Australian Gold BROAD SPECTRUM SPF 15; Australian Gold BROAD SPECTRUM SPF 15 Sunscreen; Australian Gold BROAD SPECTRUM SPF 30; Australian Gold BROAD SPECTRUM SPF 30 Sunscreen; Australian Gold BROAD SPECTRUM SPF 30 X-treme Sport Sunscreen; Australian Gold BROAD SPECTRUM SPF 50; Australian Gold BROAD SPECTRUM SPF 50 X-treme Sport Sunscreen; Australian Gold BROAD SPECTRUM SPF 8; Australian Gold Baby SPF 50 Sunscreen; Australian Gold Botanical 70 Broad Spectrum SPF 70; Australian Gold Botanical Broad Spectrum SPF 70; Australian Gold Botanical SPF 50; Australian Gold Botanical Sunscreen Broad Spectrum SPF 30 Natural; Australian Gold Botanical Sunscreen Broad Spectrum SPF 50 Natural; Australian Gold Broad Spectrum 30; Australian Gold Broad Spectrum SPF 15; Australian Gold Broad Spectrum SPF 30; Australian Gold Broad Spectrum SPF 30 Sheer Sunscreen; Australian Gold Broad Spectrum SPF 30 with invisidry Technology; Australian Gold Broad Spectrum SPF 45; Australian Gold Broad Spectrum SPF 50; Australian Gold Broad Spectrum SPF 50 Sunscreen; Australian Gold Broad Spectrum SPF 8; Australian Gold Exotic Blend spf8; Australian Gold Extreme Sport SPF 30; Australian Gold Hello Kitty Broad Spectrum 50; Australian Gold Instant Bronzer 15 sunscreen; Australian Gold Instant Bronzer 30 sunscreen; Australian Gold Instant Bronzer Broad Spectrum SPF 15; Australian Gold Instant Bronzer Broad Spectrum SPF 30; Australian Gold Instant Bronzer SPF 15 Sunscreen; Australian Gold Instant Bronzer SPF 8 Sunscreen; Australian Gold Instant Brozer SPF 30 Sunscreen; Australian Gold Invisidry Technology Oil-Free Formula Broad Spectrum SPF 30; Australian Gold Just Shine SPF 50 Glitter Sunscreen; Australian Gold Justice SPF 50 Glitter Sunscreen; Australian Gold Kids SPF 50 Sunscreen; Australian Gold Little Joey SPF 50; Australian Gold Mermaid SPF 50 Glitter Sunscreen; Australian Gold SPF 15; Australian Gold SPF 15 C/S Sunscreen with Bronzer; Australian Gold SPF 15 Sheer Coverage Sunscreen; Australian Gold SPF 15 Sunscreen; Australian Gold SPF 30; Australian Gold SPF 30 Sport Ultra Chill; Australian Gold SPF 30 Sunscreen; Australian Gold SPF 30 with insect repellent; Australian Gold SPF 50; Australian Gold SPF 50 Sunscreen with Instant Bronzer; Australian Gold SPF 70; Australian Gold X-treme Sport SPF 30 C/S Sunscreen; Australian Gold little joey SPF 50; Autobronzant Vapo Fps 15; Avail Body with Sunscreen; Avail Facial Sunscreen SPF 25; Aveda Lip Tint SPF 15; Aveeno ABSOLUTELY AGELESS leave-on day mask Broad Spectrum SPF 30; Aveeno ACTIVE NATURALS absolutely ageless leave-on day mask Broad Spectrum SPF30; Aveeno ACTIVE NATURALS positively radiant sheer daily moisturizer Broad Spectrum SPF 30; Aveeno ACTIVE NATURALS protect Plus hydrate sunscreen BROAD SPECTRUM SPF30; Aveeno Absolutely Ageless Daily Moisturizer Broad Spectrum SPF30; Aveeno Absolutely Ageless Daily Moisturizer Sunscreen Broad Spectrum SPF30; Aveeno Active Naturals Ageless Vitality Rejuvenating Day Moisturizer SPF 30; Aveeno Active Naturals Clear Complexion BB Broad Spectrum SPF30 - Medium; Aveeno Active Naturals Clear Complexion BB Sunscreen Broad Spectrum SPF30 Fair to Light; Aveeno Active Naturals Daily Moisturizing Broad Spectrum SPF15; Aveeno Active Naturals Hydrosport Sunblock SPF 50; Aveeno Active Naturals Hydrosport Sunblock SPF 85; Aveeno Active Naturals Hydrosport Sunblock SPF30; Aveeno Active Naturals Hydrosport Sunscreen Broad Spectrum SPF30; Aveeno Active Naturals Hydrosport Sunscreen Broad spectrum SPF30; Aveeno Active Naturals Hydrosport Sunscreen Lotion SPF 85; Aveeno Active Naturals Hydrosport Sunscreen Spray SPF 85; Aveeno Active Naturals Positively Ageless Correcting Tinted Moisturizer SPF30 Light to Medium; Aveeno Active Naturals Positively Ageless Correcting Tinted Moisturizer Sunscreen Broad Spectrum SPF30; Aveeno Active Naturals Positively Ageless Daily Antioxidant Defense Moisturizer SPF 42; Aveeno Active Naturals Positively Ageless Day; Aveeno Active Naturals Positively Ageless Multidefense Daily Moisturizer SPF 42; Aveeno Active Naturals Positively Ageless Youth Perfecting Moisturizer SPF 30; Aveeno Active Naturals Positively Ageless Youth Perfecting Moisturizer Sunscreen Broad Spectrum SPF30; Aveeno Active Naturals Positively Radiant Daily Moisturizer Broad Spectrum SPF15; Aveeno Active Naturals Positively Radiant Daily Moisturizer SPF 15; Aveeno Active Naturals Positively Radiant Daily Moisturizer Sunscreen Broad Spectrum SPF15; Aveeno Active Naturals Positively Radiant Daily Moisturizer with sunscreen Broad Spectrum SPF30; Aveeno Active Naturals Positively Radiant Tinted Moisturizer - Fair to Light Sunscreen Broad Spectrum SPF30; Aveeno Active Naturals Positively Radiant Tinted Moisturizer - Medium Sunscreen Broad Spectrum SPF30; Aveeno Active Naturals Positively Radiant Tinted Moisturizer SPF 30 Fair/Light; Aveeno Active Naturals Positively Radiant Tinted Moisturizer SPF 30 Medium; Aveeno Active Naturals Protect + Hydrate SPF 30; Aveeno Active Naturals Protect + Hydrate SPF 45; Aveeno Active Naturals Protect + Hydrate SPF 60; Aveeno Active Naturals Protect Plus Hydrate Sunscreen Broad Spectrum SPF 70; Aveeno Active Naturals Protect Plus Hydrate Sunscreen Broad Spectrum SPF50 For Face; Aveeno Active Naturals Protect Plus Hydrate Sunscreen Broad Spectrum SPF50 for face; Aveeno Active Naturals Smart Essentials Daily Nourishing Moisturizer SPF 30; Aveeno Active Naturals Smart Essentials Daily Nourishing Moisturizer Sunscreen Broad Spectrum SPF30; Aveeno Active Naturals Sunscreen Lotion Face Spf60; Aveeno Active Naturals Sunscreen Lotion SPF 30; Aveeno Active Naturals Sunscreen Lotion SPF 45; Aveeno Active Naturals Sunscreen Lotion SPF 55; Aveeno Active Naturals Sunscreen Spray SPF 30; Aveeno Active Naturals Sunscreen Spray SPF 45; Aveeno Active Naturals Ultra Calming Daily Moisturizer Sunscreen Broad Spectrum SPF15; Aveeno Active Naturals Ultra-Calming Daily Moisturizer Broad Spectrum SPF15; Aveeno Active Naturals Ultra-calming Daily Moisturizer SPF 30; Aveeno Baby Continuous Protection Sunscreen Broad Spectrum SPF55; Aveeno Baby Essential Daily Care Baby and Mommy Gift Set; Aveeno Baby Essential Daily Care Mommy and Me Gift Set; Aveeno Baby Sunscreen Lotion SPF 55; Aveeno Clear Complexion Sheer Daily Moisturizer Sunscreen Broad Spectrum SPF 30; Aveeno Continuous Protection Face SPF100 Plus; Aveeno Continuous Protection SPF 30; Aveeno Continuous Protection SPF85; Aveeno DAILY MOISTURIZING SUNSCREEN BROAD SPECTRUM SPF 15; Aveeno Daily Moisturizing SPF15; Aveeno FAVORITES morning radiance regimen; Aveeno Hydrosport Sunscreen Wet Skin Broad Spectrum SPF 30; Aveeno POSITIVELY RADIANT sheer daily moisturizer sunscreen BROAD SPECTRUM SPF 30; Aveeno PROTECT plus HYDRATE sunscreen BROAD SPECTRUM SPF 50 FOR FACE; Aveeno Positively Ageless Complete; Aveeno Positively Ageless Complete Anti Aging System; Aveeno Positively Ageless Daily Moisturizer SPF 30; Aveeno Positively Ageless Face SPF90; Aveeno Positively Ageless SPF55; Aveeno Positively Ageless SPF70; Aveeno Positively Radiant CC Broad Spectrum SPF30 - Fair to Light; Aveeno Positively Radiant CC Broad Spectrum SPF30 - Medium; Aveeno Positively Radiant Daily Moisturizer SPF 15; Aveeno Positively Radiant Daily Moisturizer Sunscreen Broad Spectrum SPF 15; Aveeno Positively Radiant Daily Moisturizer Sunscreen Broad Spectrum SPF 30; Aveeno Positively Radiant Daily Moisturizer sunscreen Broad Spectrum SPF30; Aveeno Positively Radiant Skin Moisturizer SPF 15; Aveeno Positively Radiant Targeted Cream Sunscreen Broad Spectrum SPF 15; Aveeno Protect Plus Hydrate Sunscreen Broad Spectrum Body SPF 30; Aveeno Protect Plus Hydrate Sunscreen Broad Spectrum Body SPF 60; Aveeno Protect Plus Hydrate Sunscreen Broad Spectrum Face SPF 60; Aveeno Protect Plus Hydrate Sunscreen Broad Spectrum SPF 30; Aveeno Protect Plus Hydrate Sunscreen Broad Spectrum SPF 70; Aveeno Protect Plus Hydrate Sunscreen Broad Spectrum SPF30; Aveeno Protect Plus Hydrate Sunscreen Broad Spectrum SPF50; Aveeno Protect Plus Hydrate Sunscreen Broad Spectrum SPF70; Aveeno Protect Plus Refresh Sunscreen Broad Spectrum Body SPF 60; Aveeno Sunblock Spray SPF 30; Aveeno Sunblock Spray SPF 45; Aveeno Sunscreen Lotion Face SPF 30; Aveeno Sunscreen Lotion SPF 100; Aveeno Ultra Calming Daily Moisturizer Sunscreen Broad Spectrum SPF 15; Aveeno Ultra-Calming Daily Moisturizer SPF 30; Aveeno Ultra-Calming Daily Moisturizer SPF15; Aveeno favorites from Positively radiant; Aveeno positively radiant daily moisturizer sunscreen broad spectrum SPF 15; Aveeno positively radiant targeted dark spot corrector Broad Spectrum SPF 15; Aveeno ultra-calming daily moisturizer Broad Spectrum SPF 15; Avobenzone 3% Homosalate 10% Octisalate 5% Octocrylene 10%; Avobenzone, Homosalate, Octisalate, Octocrylene; Avobenzone, Homosalate, Octisalate, Octocrylene, Oxybenzone; Avon Anew Platinum Day Broad Spectrum SPF 25 Sunscreen; Avon Anew Retroactive + Day Defense SPF 15; Avon Anew Revital - Air Complex SPF 15; Avon Anew Revital-air SPF 15; Avon Authentic Skin So Soft MoisT.S.C.-spf30; Avon Bronzy Lip Balm SPF 15; Avon Elements Moisture Boost Daily Moisture; Avon Elements Moisture Boost Daily Moisture Lotion; Avon Elements Moisture Boost SPF.fps 15 Daily Moisture Cream; Avon Elements Youth-Restoring Anti-Wrinkle Moisture; Avon Moisture Lift Protective Cream SPF 15; Avon Moisture Lift Protective Lotion SPF 15; Avon Oil-free Sunscreen Spray SPF 15 Liq; Avon Recharging Day Radiance Cream SPF 15; Avon Skin So Soft Firm & Restore Neck & Chest Treatment Cream SPF 15 Sunscreen; Avon Skin So Soft Sunblock and Insect Repellent SPF 15; Avon Solutions Beautifully Protected Daily Uv Moisturizer SPF 30; Avon Sport Sunblock Lot Spf30; Avon Sun + Kids Technologie Derma Plus Technology Disappearing Potion Sunscreen Lotion; Avon Sun Age Defying SPF 30 Sunscreen Lotion; Avon Sun Baby SPF 40 Sunscreen Lotion; Avon Sun High Protection Kids Sunblock Lotion SPF 40; Avon Sun High Protection Sunblock Lotion SPF 40; Avon Sun Kids Disappearing Colour Stick SPF 25; Avon Sun Kids Disappearing Colour Sunblock Cream SPF 30; Avon Sun Kids SPF 30 Disappearing Color Sunscreen Spray; Avon Sun Kids SPF 40 Disappearing Color Sunscreen Lotion; Avon Sun SPF 15 Sunscreen Lotion; Avon Sun SPF 30 Sunscreen Lotion; Avon Sun SPF 40 Sunscreen Lotion; Avon Sun SPF 8 Sunscreen Lotion; Avon Sun Seekers Face Sunblock Crm Spf30; Avon Sun Seekers Moist. Sunb Lot Spf30; Avon Sun Seekers Tanning Spritzer SPF 6 Liq; Avon Sun Sparkle SPF 30 Sunscreen Lotion for Kids; Avon Sun Sport Refresh Sunscreen; Avon Sun Sport SPF 15 Sunscreen Spray; Avon Sun Sport SPF 30 Sunscreen Spray; Avon Sun Sunblock Lotion SPF 30; Avon Sun Sunscreen; Avon Sun Sunscreen Face; Avon Sunseekers Child.sunblock.lot SPF 30; Awaken by Quality Choice Anti-Wrinkle and Firming Moisturizer Day Broad Spectrum SPF18 Sunscreen; Awaken by Quality Choice Illuminating Daily Moisturizer Broad Spectrum SPF 15 Sunscreen; Awaken by Quality Choice Long-Lasting Oil-Free Moisturizer Broad Spectrum SPF 15; Axe Crew Cut Buzzed Look with Sunscreen SPF 15; BABYGANICS SPF 50 Plus SUNSCREEN; BANILA CO Prime Primer Sun; BARE SKIN Nude Foundation Medium Beige SPF30; BARE SKIN Nude Foundation V201 Apricot Beige SPF30; BARE SKIN Nude Natural Beige SPF30; BASK Broad Spectrum SPF 50; BB Cream SPF 20 Beige; BB Cream SPF 20 Fair; BB Cream SPF 20 Medium; BB Cream SPF 20 Nude; BEACH GYPSY Glitter Sunscreen SPF 30; BEAST SPIT and POLISH FACE SPF-20; BEAUTY BEFORE AGE AHAVA UPLIFT DAY broad spectrum SPF 20; BELLEZA IDEAL Blanco Cover Cushion; BEYOND THE SHAVE For Men; BFF Skin Perfector SPF 30 broad spectrum sunscreen deep; BFF Skin Perfector SPF 30 broad spectrum sunscreen deepest; BFF Skin Perfector SPF 30 broad spectrum sunscreen light; BFF Skin Perfector SPF 30 broad spectrum sunscreen light/medium; BFF Skin Perfector SPF 30 broad spectrum sunscreen lightest; BFF Skin Perfector SPF 30 broad spectrum sunscreen medium; BFF Skin Perfector SPF 30 broad spectrum sunscreen medium/deep; BIOCORNEUM PLUS BROAD SPECTRUM SPF 30 ADVANCED SCAR TREATMENT gel; BLI Holding Miami Beach kids spf 50; BLI Holdings MIAMI BEACH Kids spf 50; BODY DEFENCE SUNSCREEN Broad Spectrum SPF30; BODY TIME Anti-Aging Day Cream SPF 30; BOTANIC HEAL BOH DERMA WATER CERAMIDE AMPOULE CUSHION 01 NATURAL IVORY 15g; BOTANIC HEAL boH Derma Defense Wave Cushion 01 Natural Ivory; BOTANIC HEAL boH Derma Defense Wave Cushion 02 Natural Beige; BOTANIC HEAL boH Derma Water Ceramide Ampoule Cushion 01 Natural Ivory; BOTANIC HEAL boH Derma Water Ceramide Ampoule Cushion 02 Natural Beige; BOTANIC HEAL boH Dual Primer Sun No 1; BOTANIC HEAL boH Dual Primer Sun No 2; BOTANIC HEAL boH IDEAL FOR MEN ALL DEFENSE MULTI CUSHION; BOTANIC HEAL boH Smart Tone Up Sun; BRICKELL Daily Defense Face Moisturizer SPF-20; BRICKELL Element Defense Moisturizer SPF-45; BULLFROG DEET FREE Mosquito Coast Sunscreen with Insect Repellent SPF 30; BULLFROG KIDS Sunscreen Broad Spectrum SPF 50 Plus; BULLFROG Marathon Mist Sunscreen Broad Spectrum SPF 36; BULLFROG Marathon Mist Sunscreen Broad Spectrum SPF 50; BULLFROG Water Armor SPORT 50 Plus InstaCool Sunscreen Broad Spectrum; Babience KIDS Sunscreen pinkfong BABY SHARK SPF 50; Babies Sunblock Lotion SPF 45; Babies Ultra Block Lotion SPF 30; Babies' Total Sunblock Lotion SPF 45; Babies' Ultra Sunblock Lotion SPF 30; Baby; Baby Blanket BROAD SPECTRUM SPF 50; Baby Broad Spectrum SPF 50 DG body; Baby Faces 45 SPF Sunscreen Spray; Baby Gentle Sunscreen SPF 50; Baby Lips; Baby Mineral Sunscreen Lotion; Baby Sun Protection Lotion; Baby Sunscreen Broad Spectrum SPF 60 Lotion; Baby Sunscreen SPF 50; Baby Sunscreen SPF 50 tugaboos; Baby Sunstick SPF 55 CVS; Baby Tear Free Sans Larmes Sunscreen Spray Ecran Solaire En Vaporisateur Pour Bebes SPF/fps 50; Baby Tear Free Sans Larmes Sunscreen Ãcran Solaire Pour BÃ©bÃ©s SPF Fps 50; Baby Tear Free/sans Larmes Sunscreen Lotion/lotion Ãcran Solaire Pour BÃ©bÃ©s SPF Fps 60; Baby Tear Free/sans Larmes Sunscreen Spray/Ã©cran Solaire En Vaporisateur Pour Bebes SPF Fps 60; Baby Zone SPF 30 Sunscreen; Baby blanket BROAD SPECTRUM SPF 50; BabyGanics Sunscreen 30 SPF; BabyGanics Sunscreen 50 SPF; BabyGanics Sunscreen 50SPF; Babyganics SPF 50; Bain De Soleil Gelee Orange SPF 4 - Gel; Bain De Soleil Golden Tanning Oil SPF 4 -gel; Bain De Soleil Oil-free Protecteur SPF-25; Bain De Soleil Orange Gelee SPF 8; Bain De Soleil Orange Gelee SPF-15; Bain De Soleil Orange Gelee Spf4; Bain De Soleil Protection Lotion SPF 15; Bain De Soleil Tropical Deluxe SPF-4; Bain de Soleil Transpare SPF 10; Balance Dynamics Balancing SPF 15; Balance Dynamics SPF 15; Balancing Day Moisture Broad Spectrum SPF 15 Jafra; Balancing Dynamics Kit Jafra; Balancing SPF 15 Jafra; Bali Body Coconut Lip Balm SPF 15; Bali Body Face and Body Sunscreen SPF 50; Bali Body Hydrating Body Sunscreen SPF50; Bali Body Hydrating Face Sunscreen SPF50; Balm SPF 15; BalÃ©a Face Lip Balm SPF 30; Bamboo Mens Thickening; Banana Boat; Banana Boat Aceite Bronceador Seco Tanning Dry SPF 6; Banana Boat Action Sport Sunblock Spray Gel SPF 25; Banana Boat Active Kids Sunblock Lot SPF 30; Banana Boat Active Kids Sunblock Lot SPF 50; Banana Boat Active Kids Sunblock Lot Spf30; Banana Boat Active Sport Sunblock Spray SPF 25; Banana Boat Aquashield H20 Sport Sunblock Lotion SPF 30; Banana Boat Aquashield H2o Kids Sunblock SPF 30; Banana Boat Baby Block Sunblock Lotion SPF 50; Banana Boat Baby Mineral Enriched Sunscreen UVA/UVB Protection Broad Spectrum SPF 50PLUS; Banana Boat Baby SPF 50; Banana Boat Baby Sin Lagrimas SPF 50 Pump; Banana Boat Baby Sunblock Lot SPF 50; Banana Boat Baby Sunblock Lotion SPF 29; Banana Boat Baby Sunblock Lotion SPF 50; Banana Boat Baby Sunscreen Spray SPF/fps 60; Banana Boat Baby Tear Free Lotion SPF 50; Banana Boat Baby Tear Free Sunscreen SPF 60; Banana Boat Bite Block Sunblock SPF 30; Banana Boat Cool Colorz Vanishing Sunblock Spray; Banana Boat Cool Colouring Vanishing Sunblock Spf30 Lotion; Banana Boat Cool Colourz Groovy Grape Foaming Sunblock SPF 30; Banana Boat Daily Protect Sunscreen Lotion SPF 30; Banana Boat Daily Protect Sunscreen Lotion SPF 50+; Banana Boat Daily Protect Sunscreen Spray SPF 50+; Banana Boat Deep Tanning Sunscreen SPF 4; Banana Boat Dry Balance Clear Sunscreen SPF 50; Banana Boat Everyday Glow; Banana Boat Faces Plus SPF 23; Banana Boat Faces Plus SPF 31; Banana Boat Faces Plus Spf15; Banana Boat Faces Plus Sunblock SPF 23 - Crm; Banana Boat Kids Free 50; Banana Boat Kids Free Continuous Spray Sunscreen SPF 50+; Banana Boat Kids Quik Blok Spray SPF 25; Banana Boat Kids SPF 65 Clear Sunscreen; Banana Boat Kids Sin Lagrimas Pump SPF 50; Banana Boat Kids Sport Sunscreen Roll-On UVA/UVB Broad Spectrum SPF 60 Plus; Banana Boat Kids Sunblock SPF 30; Banana Boat Kids Sunblock Spf50; Banana Boat Kids Sunblock Spray Lotion SPF 48; Banana Boat Kids Sunblock Stick SPF 30; Banana Boat Kids Sunscreen Spray SPF 50+; Banana Boat Kids Sunscreen Spray SPF/fps 60; Banana Boat Kids Tear Free Continuous SPF 50; Banana Boat Kids Tear Free Sunscreen SPF 60; Banana Boat Kids Tear-free Sunscreen Spray SPF 50+; Banana Boat Kids UltraMist Tear Free SPF 30; Banana Boat Light as air face SUNSCREEN UVA UVB Broad Spectrum SPF 50; Banana Boat Mens SPF 30; Banana Boat Mens SPF 50 Plus; Banana Boat Oil Free SPF 30; Banana Boat Protect and Hydrate SPF 50 Plus; Banana Boat Protection Plus Vitamins Face Sunscreen Uva/uvb Broad Spectrum SPF 50; Banana Boat Protection Plus Vitamins Sunscreen Uva/uvb Borad Spectrum SPF 30; Banana Boat Protection Plus Vitamins Sunscreen Uva/uvb Borad Spectrum SPF 50; Banana Boat Protection Plus Vitamins Sunscreen Uva/uvb Broad Spectrum SPF 50; Banana Boat Protective Dry SPF 10; Banana Boat Quick Dry Spray SPF 15; Banana Boat Quick Dry Spray SPF 30; Banana Boat Quik Blok Kids Spray SPF 25; Banana Boat Quik Blok Oil Free Spray SPF 15; Banana Boat Quik Blok Spray SPF 25; Banana Boat Sensitive Skin Sunblock Spf30; Banana Boat Simply Protect Baby Baby Sunscreen Spray SPF 50+; Banana Boat Simply Protect Kids Kids Sunscreen Spray SPF 50+; Banana Boat Simply Protect Kids Sunscreen Lotion Spray SPF 50+; Banana Boat Simply Protect Sensitive Faces Visages Suncreen Lotion SPF 50 Plus; Banana Boat Simply Protect Sensitive Sunscreen Lotion SPF 50 Plus; Banana Boat Simply Protect Sport Sunscreen Spray SPF 50+; Banana Boat Sport Body and Scalp SPF 30; Banana Boat Sport Performance; Banana Boat Sport Performance Active Dry Protect SPF UVB 50; Banana Boat Sport Performance Active Dry protect; Banana Boat Sport Performance SPF 15; Banana Boat Sport Performance SPF 15 Canada; Banana Boat Sport Performance SPF 30 Canada; Banana Boat Sport Performance With Powerstay Technology Sunscreen Spray SPF 50+; Banana Boat Sport SPF 30; Banana Boat Sport Sunblock Ecran Solaire Uva & Uvb SPF Fps 30; Banana Boat Sport Sunblock Lotion SPF 30; Banana Boat Sport Sunblock Lotion SPF 50; Banana Boat Sport Sunblock Lotion Spf30; Banana Boat Sport Sunblock Lotion Spf50; Banana Boat Sport Sunblock SPF 15; Banana Boat Sport Sunblock SPF 30; Banana Boat Sport Ultra Broad Spectrum SPF 50 Plus Sunscreen Lip Balm; Banana Boat Sport Ultra Clear Sunscreen Broad Spectrum SPF 65; Banana Boat Sport Ultra Face SPF30; Banana Boat Sport Ultra Sunscreen Broad Spectrum SPF 65; Banana Boat Sport Ultra Sunscreen Lip Balm Broad Spectrum SPF 40; Banana Boat Sport Ultra Sunscreen Roll-On UVA/UVB Broad Spectrum SPF 60 Plus; Banana Boat Sport coolzone Clear Sunscreen Broad Spectrum SPF 30; Banana Boat Sport coolzone Clear Sunscreen Broad Spectrum SPF 50 Plus; Banana Boat Sport for Kids Sunscreen Stick SPF 50+; Banana Boat Sunblock SPF 15; Banana Boat Suncomfort Sunscreen Spray SPF 50+; Banana Boat Sunless Tanning Lotion SPF 8; Banana Boat Sunscreen Lip Balm UVA/UVB Broad Spectrum SPF 45; Banana Boat Sunscreen Spray SPF 50+; Banana Boat Suntanicals Sunscreen Lotion SPF 30; Banana Boat Suntanicals Sunscreen Lotion SPF 8; Banana Boat Ultra 30 Super Sunblock; Banana Boat Ultra Defence SPF 30 for UK; Banana Boat Ultra Defense; Banana Boat Ultra Defense Broad Spectrum; Banana Boat Ultra Defense Clear Sunscreen Broad Spectrum SPF 100; Banana Boat Ultra Defense SPF 30 Canada; Banana Boat Ultra Defense SPF 30 for LATAM; Banana Boat Ultra Defense Sheer Protect; Banana Boat Ultra Defense Sheer Protect FPS 50 LATAM; Banana Boat Ultra Mist Kids FPS 60 LATAM; Banana Boat Ultra Plus Sunblock Ecran Solaire Uva & Uvb SPF/fps 50; Banana Boat Ultra Plus Sunblock SPF 50; Banana Boat Ultra Plus Sunblock Spray Lotion SPF 48; Banana Boat Ultra Sport Clear Sunscreen Spray SPF 50 Plus; Banana Boat Ultra Sport Faces Sunscreen Broad Spectrum SPF 30; Banana Boat Ultra Sport Sunscreen Broad Spectrum SPF 15; Banana Boat Ultra Sport Sunscreen Broad Spectrum SPF 30; Banana Boat Ultra Sport Sunscreen Broad Spectrum SPF 50; Banana Boat Ultra Sport Sunscreen Lotion SPF 30; Banana Boat Ultra Sport Sunscreen Lotion SPF 50+; Banana Boat Ultra Sport Sunscreen Stick SPF 50+; Banana Boat Ultra Sunblock Ecran Solaire Uva & Uvb SPF Fps 30; Banana Boat Ultra Sunblock Lot Spf30; Banana Boat Ultra Sunblock SPF 30; Banana Boat Ultra defense SPF 50 Canada; Banana Boat UltraMist Baby Tear Free Continuous SPF 50; Banana Boat UltraMist Kids SPF 50 Factor de Proteccion Solar 50; Banana Boat UltraMist Kids Tear Free Lotion SPF 50; Banana Boat Ultramist Sport Performance SPF 50; Banana Boat Vitaskin Facial Care Sunscreen SPF 30 Lotion; Banana Boat Vitaskin Sunscreen SPF 30 Lotion; Banana Boat Vitaskin Sunscreen SPF 50 Lotion; Banana Boat for Men Triple Defense Continuous Spray Sunscreen SPF 50+; Banana Boat for Men Triple Defense Sunscreen Lotion SPF 30; Banana Boat for Men Triple Defense Sunscreen Lotion SPF 50+; Banana Boat simply protect Sport Mineral Enriched Sunscreen Broad Spectrum SPF 50; Banana Boat simply protect sensitive MINERAL ENRICHED SUNSCREEN UVA/UVB BROAD SPECTRUM SPF 50; Banana Boat simply protect sensitive Mineral Enriched Sunscreen Broad Spectrum SPF 50; Banana Boat simply protect sensitive faces Mineral Enriched Sunscreen Broad Spectrum SPF 50; Banana Bt Paba Free Uva and Uvb Spf25 Sunbl.; Banana Bt.faces Sens.skin Sunbl. SPF 23 Crm; Banana Bt.paba Free Uva and Uvb Prot.SPF 15; Banishing Cream Skin Tone Perfector Perfecteur De Teint SPF 15/fps15; Bansbao Beauty and Fair Skin Essence; Bare Republic Clearscreen SPF 30; Bare Republic Clearscreen SPF 50; Bare Skin Feel Uv Lotion; Bare Skin Mineral Cover SPF 27; Bare Skin Mineral Cover Spf27; Barely Beige Moisturizing Makeup Broad Spectrum SPF 15 Jafra; Barely Beige Oil Controlling Makeup Broad Spectrum SPF 15 Jafra; Barunu SPF 50; Bask Broad Spectrum SPF 30; Bask Suncare Broad Spectrum SPF; Bask Suncare Broad Spectrum SPF 30; Baume Protecteur Fps 15 Avec Filtres Uva/uvb; Baxter of California Oil Free Moisturizer Broad Spectrum SPF 15 Sunscreen; Bb Anti-fatigue Absolute SPF 25; Bb Cream Sunscreen SPF 30; Bb Dark; Bb Fair; Bb Light; Bb Medium; Bb Spf20; Bb10 Instant Skin Perfector Broad Spectrum SPF 35; Be Beautiful Luminous CC Cream; Be Beautiful Makeup Base; Be Beautiful Natural BB Cream; Be Beautiful Pure Make Up Base Purple; Be Fine Food Skin Care Daily Moisturizer With Rosemary,pomegranate and Rice With SPF 15; Beach Break 2-in-1 Daily Facial Moisturizer Sunscreen SPF 30; Beach Defense Kids; Beach Defense Kids SPF 60; Beach Defense SPF 30; Beach Defense SPF 30 Sunscreen Spray; Beach Defense SPF 60; Beach Defense SPF 60 Sunscreen Lotion; Beach Dream Broad Spectrum SPF 30; Beach Dream Broad Spectrum SPF 50; Beach Dream Glittery Sunscreen SPF 30; Beach Dream Glittery Sunscreen SPF 50; Beach Dream Sunscreen SPF 30; Beach Dream Sunscreen SPF 50; Beach Gypsy SPF-30; Beast Hydrating Face SPF-20; Beauticontrol Cell Block C; Beauticontrol Sunlogics O-F Tan.mist SPF 8; Beauticontrol Sunlogics Sun Shield Lot; Beauticontrol Sunlogics Water Resist. SPF 30; Beauty 360 Accelerated Wrinkle Repair Moisturizer; Beauty Balm Instant Solutions Broad Spectrum SPF 35; Beauty Balm/tinted Moisturizer Broad Spectrum Sunscreen SPF 30 Bb Crm Fair; Beauty Balm/tinted Moisturizer Broad Spectrum Sunscreen SPF 30 Bb Crm Med; Beauty Balm/tinted Moisturizer Broad Spectrum Sunscreen SPF 30 Bb Crm Med/deep; Beauty Dynamics SPF 15 Daily Eye Treatment; Beauty Without Cruelty - Broad Spectrum SPF 18; Beeswax Lip Balm; Beeswax Lip Balm SPF 30 Vertra; Beeswax SPF 15 Broad Spectrum Lip Balm; Beeswax SPF 15 Lip; Beeswax SPF 30 Broad Spectrum Lip Balm; Beevenom Sun Spf50plus Pa Plus Plus Plus; Being True Essentials Absolutely Radiant; Belif SPF/fps 50; Bellagio Childrens Sunscreen SPF 45; Bellagio Lip Moisturizer SPF 15; Bellagio Sunscreen For Face SPF 30; Bellagio Sunscreen SPF 15; Bellagio Sunscreen SPF 30; Bellagio Sunscreen SPF 45; Benefit You Rebel Lite SPF 15; Benefit You Rebel SPF 15; Benzac SPF 30 Oil Control Day Moisturizer; Berry Lip Balm; Best Blend Forever Makeup; Best of Glow SPF Discovery Kit; Bevel Hair Mattifying Bald Balm with Sunscreen SPF 25; Bienfait Multi-vital (SPF 30); Bienfait Multi-vital SPF 30; Bienfait Uv SPF 50; Big Cloud Defend Hybrid Formula with Zinc; Big Cloud Sky Master Lip Balm SPF 15; Big Easy; Big Island Basics; Big Kids SPF 30 Sunblock - Lot; Big Lots Soundbody Kids Sunscreen SPF 50; Big Lots Soundbody SPF 50 Sport Sunscreen; Big Lots Soundbody SPF 70 Sport Sunscreen; Big Lots Soundbody SPF 70 Sun Defense; Big Lots Soundbody Sheer Sunscreen Broad Spectrum SPF 70; Big Lots Soundbody Sun Defense Screen Broad Spectrum SPF 70; Big V Baby Sunblock SPF 30 Lot; Big V Kids Sunblock Lotion SPF 30; Big V Sunblock Lotion 30 SPF; Bilboa Capri Sunscreen SPF 15; Bilboa Capri Sunscreen SPF 30; Bilboa Capri Sunscreen SPF 50 Plus; Bilboa Kids Sunscreen SPF 50 Plus; Bio Degradable 15 SPF Sunblock; Bio Degradable 50 SPF Sunblock; Biocorneum Plus Broad Spectrum SPF 30 Advanced Scar Treatment; Biocorneum Plus SPF 30 Advanced Scar Treatment; Bioelements FaceScreen; Bioelements Sun Diffusing Protector SPF 15; Bioelements, Inc. SPF 50 FaceScreen; Biolagesun A D.I.T.S. S.C. S.B. Wp SPF 30; Biolagesun F.T.S. Sens. Sk. Sun Bl. Wp.spf30; Biolagesun S.S. Skin-caring S.S. Wp. SPF 15; Biolagesun T.T.T. Skin-caring S.S. Wp SPF 8; Biophora Day Protection Spf30 Uva/uvb Sunscreen; Bioresist reinforcing effect face moisturizer SPF 30; Biosun Professional Sun Protection - Children SPF 30 - Crm; Biosun Professional Sun Protection - Faces SPF 25 - Crm; Biosun Professional Sun Protection - SPF 15 - Crm; Biosun Professional Sun Protection - SPF 30 - Crm; Biosun Professional Sun Protection - SPF 45 - Crm; Biosun Professional Sun Protection Oil Free Gel SPF 30; Biosun Professional Sun Protection Oil Free Spray SPF 25; Biotherm Protecteur Auto-bronzant Fps 12; Biotherm-gelee Bronzante Hydratante SPF 8; Biovi Total Beauty; Birds Garden Lip Balm Cerulean Warbler SPF 30; Birds Garden Lip Balm Dark Eyed Junco SPF 30; Birds Garden Lip Balm Western Tanager - SPF 30; Black Girl Sunscreen SPF 30; Black Girl Sunscreen SPF 45; Black Girl Sunscreen SPF 50 Kids; Black Girl Sunscreen SPF 50 broad Spectrum; Black Girl Sunscreen SPF45; Black Girl Sunscreen Sunscreen SPF 30 broad Spectrum; Black Radiance True Complexion BB Cream SPF 15; Black Stick; Blackberry Smoothie SPF 15 Broad Spectrum Lip Balm; Blackmonster Day and Night Moisturizer; Blanc Perfect; Blistex Advanced Care (Blistex Medicated Balm, Blistex Complete Moisture, Blistex Five Star Lip Balm - Broad Spectrum, Blistex Superfruit Soother); Blistex Assorted Medicated Balm Value Pack (Blistex Medicated Berry Lip Balm, Blistex Medicated Lip Balm, Blistex Medicated Mint Lip Balm); Blistex Clear Advance Lip Protectant; Blistex Complete Care (Blistex Lip Medex, Blistex Medicated Lip, Blistex Five Star Lip Protection Broad Spectrum, and Blistex Complete Moisture); Blistex Deep Renewal Broad Spectrum; Blistex Enhancement Series (Blistex Ultra-Rich Hydration, Blistex Global Blend, Blistex Deep Renewal Broad Spectrum); Blistex FIVE STAR; Blistex Five Star Lip Protection Broad Spectrum; Blistex Fruit Smoothies; Blistex Fruit Smoothies With Orange Cream; Blistex Fruit Smoothies With Strawberry Banana; Blistex Global Blend; Blistex Lip Vibrance; Blistex Medicated Berry Balm; Blistex Medicated Lip Balm; Blistex Medicated Lip Balm Variety Pack (Blistex Medicated Berry Lip Balm, Blistex Medicated Lip Balm, Blistex Medicated Lip); Blistex Medicated Lip Balm Variety Pack (Blistex Medicated Berry Lip Balm, Blistex Medicated Lip Balm, Blistex Medicated Mint Lip Balm); Blistex Medicated Mint Balm; Blistex Medicated Variety Pack (Blistex Medicated Berry Lip Balm, Blistex Medicated Lip Balm, Blistex Medicated Lip); Blistex Orange Mango Blast; Blistex Raspberry Lemonade Blast; Blistex Silk and Shine; Blistex Superfruit Soother; Blistex Triple Essentials; Blistex Ultra Lip Balm; Block Up Oil Free 30 SPF; Block-UP Oil Free 45 SPF; Blue Lizard Active SPF 50 Sunscreen; Blue Lizard Australian Sunscreen 50 SPF Active; Blue Lizard Australian Sunscreen 50 SPF Kids; Blue Lizard Australian Sunscreen 50 SPF Sport; Blue Lizard Kids SPF 50 Sunscreen; Blue Lizard Sport SPF 50 Sunscreen; Blue Therapy Moisturizing Cream Dry Skin SPF 15; Blue Therapy Moisturizing Cream Normal/combination Skin SPF 15; Blue Therapy Multi-defender Dry Skin; Blue Therapy Multi-defender Normal/combination Skin; Blueberry Moscow Mule SPF 15 Broad Spectrum Lip Balm; Blumingo Anti-aging Am SPF-30 Sunscreen; Bobbi Brown All Over Bronzing Gel SPF 15; Bobbi Brown Bb Broad Spectrum SPF 35; Bobbi Brown Beach Sport Stick for Face SPF 20; Bobbi Brown Beach Sunscreen Body Broad Spectrum SPF 15; Bobbi Brown Beach Sunscreen Body Spray SPF 15; Bobbi Brown Beach Sunscreen Gel for Body SPF 30; Bobbi Brown Beauty Balm SPF 35; Bobbi Brown Brightening Protective Face Base Uv SPF 50; Bobbi Brown CC BROAD SPECTRUM SPF 25; Bobbi Brown Color Correct Cream SPF 35; Bobbi Brown Essentials Lip Balm SPF 15; Bobbi Brown Lip Balm Broad Spectrum SPF 15; Bobbi Brown Lip Balm SPF 15; Bobbi Brown Lip Tint SPF 15; Bobbi Brown Oil Free Even Finish Foundation SPF 15; Bobbi Brown Primer Plus Protection SPF 50; Bobbi Brown Primer Plus Radiance SPF 35; Bobbi Brown SPF 50 Protective Face Base Broad Spectrum; Bobbi Brown Shimmering Lip Tints SPF 15; Bobbi Brown Skin Foundation Cushion Compact SPF 35 Protect & Recharge; Body Armor - SPF 30 Sunscreen; Body Armor SPF 15 Sunscreen - Crm; Body Armor Sun 'n Bug Block; Body Butter Broad Spectrum Sunscreen SPF 40; Body Glow Sunscreen SPF 20; Body Mist SPF 55 Wegman; Body Protector Sunscreen Broad Spectrum SPF 50; Body Revive Moisturizing Sunscreen Lot; Body Time Sun Broad Spectrum SPF30 Anti-Aging Day; Body Zone SPF 30 Kids Screen; Body Zone SPF 30 Purple Block Screen; Body Zone SPF 30 Sport Screen; Body Zone SPF 30 Sunscreen; Body Zone SPF 40 Kids Sunscreen; Body Zone SPF 45 Suncreeen; Bodyglide Sun Formula SPF-25; Bodypruf All Season Sun Protection SPF 15; Bondi Sands Broad Spectrum Hydra Uv Protect SPF 70 Face Fluid; Bondi Sands Broad Spectrum Hydra Uv Protect SPF 70 Sunscreen; Bondi Sands Fragrance Free Face SPF 50 Sunscreen; Bondi Sands Fragrance Free SPF 30 Sunscreen; Bondi Sands Fragrance Free SPF 50 Sunscreen; Bondi Sands Sport SPF 30 Sunscreen; Bondi Sands Sport SPF 50 Face Sunscreen; Bondi Sands Sport SPF 50 Sunscreen; Borba Age Defying Daily Hydrator SPF 30 Plus; Borba Age Defying Super Creme SPF 100 plus; Borghese Radiante Brightening Hand Creme; Botanic Heal Boh Derma Water Ceramide Ampoule Cushion 02 Natural Beige; Botanic Heal Boh Probioderm Repair Ampoule Cushion 01 Natural Ivory; Botanic Heal Boh Probioderm Repair Ampoule Cushion 02 Natural Beige; Botanical Effects Hydrate & Protect Broad Spectrum Sunscreen SPF 30; Botanical Effects Moisturizer SPF 30; Botanical Green Tea Pore Bb 01 Light Beige; Botanical Green Tea Pore Bb 02 Natural Beige; Botanical Soothing SPF-30; Botanics All Bright Hydrating Day Cream Sunscreen Broad Spectrum SPF 15; Botanics Day Moisture Sunscreen SPF 12; Botanics Face Firming Moisturizing Cream SPF 10; Botanics Face Lift Firming Cream Sunscreen SPF 10; Botanics Face Lift Firming Sunscreen SPF 10; Botanics Hydrating Day All Bright Sunscreen Broad Spectrum SPF 15; Botanics Mattifying Day All Bright Sunscreen Broad Spectrum SPF 15; Botanics Protecting Day Age Defense Sunscreen Broad Spectrum SPF 15; Botanics Radiant Youth Protecting Day Cream Sunscreen Broad Spectrum SPF 15; Botanics Shine Away Mattifying Day Cream Sunscreen Broad Spectrum SPF 15; Botanics Skin Calming Day Ultra Calm Sunscreen Broad Spectrum SPF 15; Botanics Triple Age Renewal Day All Bright Sunscreen Broad Spectrum SPF 15; Botanics Triple Age Renewal Day Cream Sunscreen Broad Spectrum SPF 15; Bravo Sierra USA Face Sunscreen Broad Spectrum SPF 30; Breath Fresh SPF 15 Broad Spectrum Lip Balm; Bright Boost Moisturizer SPF 30; Bright Guard Sport SPF; Bright Guard Water-Resistant SPF-30 Sunscreen; Brighten Up SPF 15; Brightening & Smoothing Daily Moisturizer; Brightening Daily Protector Broad Spectrum; Brightening Hand Broad Spectrum SPF 20 Jafra; Brightening Hand Care Broad Spectrum SPF 20 Sunscreen; Brightening and moisturizing facial SPF 30; Brighter By Nature SPF 35 Skin Tone Correcting Moisturizer; Brighter By Nature SPF 35 Skin Tone Correcting Moisturizer Broad Spectrum; Britto Body Sunscreen Broad Spectrum SPF 50; Britto Facial Sunscreen Broad Spectrum SPF 50; Broad Defense; Broad Spectrum 30 SPF Fps Sunscreen Lotion; Broad Spectrum 50 SPF Fps Sunscreen Lotion; Broad Spectrum Moisturizing Sunscreen SPF 30; Broad Spectrum Natural Scent Lip Balm 01; Broad Spectrum SPF 15 CVS; Broad Spectrum SPF 15 Cherry Lip Balm; Broad Spectrum SPF 15 Citrus Lip Balm; Broad Spectrum SPF 15 Daily Eye Treat Jafra; Broad Spectrum SPF 15 Iced Pear Lip Balm; Broad Spectrum SPF 15 Lip Balm; Broad Spectrum SPF 15 Lotion; Broad Spectrum SPF 15 Mint Lip Balm; Broad Spectrum SPF 15 Pomegranate Lip Balm; Broad Spectrum SPF 15 Preferred Plus Pharmacy; Broad Spectrum SPF 15 Sunscreen Continuous Spray; Broad Spectrum SPF 15 Tropical Smoothie Lip Balm; Broad Spectrum SPF 15 Unflavored Lip Balm; Broad Spectrum SPF 15 Vanilla Lip Balm; Broad Spectrum SPF 15 Vanilla Mint Lip Balm; Broad Spectrum SPF 20 Sunscreen; Broad Spectrum SPF 30 Booster Drops; Broad Spectrum SPF 30 Fps; Broad Spectrum SPF 30 Preferred Plus Pharmacy; Broad Spectrum SPF 30 Sport Sunscreen Continuous Spray; Broad Spectrum SPF 30 Sun Stick; Broad Spectrum SPF 30 Sunscreen Continuous Spray; Broad Spectrum SPF 30 Sunscreen Preferred Plus Pharmacy; Broad Spectrum SPF 30 Tropical Sunscreen; Broad Spectrum SPF 30 Ultrathon; Broad Spectrum SPF 50 Baby Sunscreen Preferred Plus Pharmacy; Broad Spectrum SPF 50 CVS; Broad Spectrum SPF 50 CareOne; Broad Spectrum SPF 50 Daylogic; Broad Spectrum SPF 50 Kids Preferred Plus Pharmacy; Broad Spectrum SPF 50 Lotion; Broad Spectrum SPF 50 Sunscreen Bioelements; Broad Spectrum SPF 50 Sunscreen Preferred Plus Pharmacy; Broad Spectrum SPF 50+ Sunscreen; Broad Spectrum SPF 70 CVS; Broad Spectrum SPF 70 Sunscreen Preferred Plus Pharmacy; Broad Spectrum SPF Fps 50; Broad Spectrum SPF/fps 30; Broad Spectrum SPF/fps 50; Broad Spectrum Sculpting Day Cream; Broccoli Sun Spf42 Pa Plus Plus Plus; Bronze Magic Gel Creme Nacre Autobronzant Express Fps 15; Brume Solaire; Brush and Go All Skin types; Brush and Go Oily Problematic Skin; Bubblegum SPF 15 Broad Spectrum Lip Balm; Buildable Blur CC Broad Spectrum SPF 40 Sunscreen; Bull Frog Insta-Cool Mist 50; Bull Frog Kids Continuous Spray Sunscreen Broad Spectrum SPF 50+; Bull Frog Kids Mist 50; Bull Frog Kids Sunscreen 35; Bull Frog Marathon Mist 36; Bull Frog Marathon Mist 50; Bull Frog Marathon Mist Continuous Spray Sunscreen Broad Spectrum SPF 36; Bull Frog Marathon Mist Continuous Spray Sunscreen Broad Spectrum SPF 50; Bull Frog Mosquito Coast Broad Spectrum Cspray w fragrance SPF 50; Bull Frog Mosquito Coast SPL 50 Pump; Bull Frog SPF 50; Bull Frog Water Armor Sport 50; Bull Frog Water Armor Sport Quick Gel Sunscreen Broad Spectrum SPF 50; Bull Frog Water Armor Sport Quick Spray Sunscreen Broad Spectrum SPF 50; Bull Frog Water Armor Sport Quik 50; Bull Frog Water Armor Sport SPF 50+; Bull Frog Water Armor Super 40; BullFrog Land Sport SPF 50 Lip Balm; BullFrog Land Sport SPF 50 Quik; BullFrog Quik; BullFrog Quik Gel Sport; BullFrog SPF 50 Land Sport Quik Gel Sunscreen; BullFrog SPF50 Land Sport C-Spray; BullFrog SPF50 Land Sport Quik; BullFrog SPF50 Water Sport; BullFrog SPF50 Water Sport C-Spray; BullFrog Super Block; BullFrog Ultimate Sheer Protection Face; BullFrog Water Armor Sport Super; Bullet Line; Bullfrog Broad Spectrum SPF 50 Sunscreen; Bullfrog SPF 50 Sunscreen Insect Repellent; Burberry Cashmere Long-Lasting Flawless Soft-Matte Foundation Sunscreen Broad Spectrum SPF 15 Chestnut No.60; Burberry Cashmere Long-Lasting Flawless Soft-Matte Foundation Sunscreen Broad Spectrum SPF 15 Deep Brown No.66; Burberry Cashmere Long-Lasting Flawless Soft-Matte Foundation Sunscreen Broad Spectrum SPF 15 Mocha No.64; Burberry Cashmere Long-Lasting Flawless Soft-Matte Foundation Sunscreen Broad Spectrum SPF 20 Almond No.43; Burberry Cashmere Long-Lasting Flawless Soft-Matte Foundation Sunscreen Broad Spectrum SPF 20 Beige No.26; Burberry Cashmere Long-Lasting Flawless Soft-Matte Foundation Sunscreen Broad Spectrum SPF 20 Camel No.42; Burberry Cashmere Long-Lasting Flawless Soft-Matte Foundation Sunscreen Broad Spectrum SPF 20 Dark Sable No.36; Burberry Cashmere Long-Lasting Flawless Soft-Matte Foundation Sunscreen Broad Spectrum SPF 20 Honey No.32; Burberry Cashmere Long-Lasting Flawless Soft-Matte Foundation Sunscreen Broad Spectrum SPF 20 Ochre No.20; Burberry Cashmere Long-Lasting Flawless Soft-Matte Foundation Sunscreen Broad Spectrum SPF 20 Ochre Nude No.12; Burberry Cashmere Long-Lasting Flawless Soft-Matte Foundation Sunscreen Broad Spectrum SPF 20 Porcelain No.11; Burberry Cashmere Long-Lasting Flawless Soft-Matte Foundation Sunscreen Broad Spectrum SPF 20 Rosy Nude No.31; Burberry Cashmere Long-Lasting Flawless Soft-Matte Foundation Sunscreen Broad Spectrum SPF 20 Warm Honey No.38; Burberry Cashmere Long-Lasting Flawless Soft-Matte Foundation Sunscreen Broad Spectrum SPF 20 Warm Nude No.34; Burberry Cashmere Long-Lasting Flawless Soft-Matte Foundation Sunscreen SPF15 Chestnut; Burberry Cashmere Long-Lasting Flawless Soft-Matte Foundation Sunscreen SPF15 Deep Brown; Burberry Cashmere Long-Lasting Flawless Soft-Matte Foundation Sunscreen SPF15 Mocha; Burberry Cashmere Long-Lasting Flawless Soft-Matte Foundation Sunscreen SPF20 Almond; Burberry Cashmere Long-Lasting Flawless Soft-Matte Foundation Sunscreen SPF20 Beige; Burberry Cashmere Long-Lasting Flawless Soft-Matte Foundation Sunscreen SPF20 Camel; Burberry Cashmere Long-Lasting Flawless Soft-Matte Foundation Sunscreen SPF20 Dark Sable; Burberry Cashmere Long-Lasting Flawless Soft-Matte Foundation Sunscreen SPF20 Honey; Burberry Cashmere Long-Lasting Flawless Soft-Matte Foundation Sunscreen SPF20 Ochre No.20; Burberry Cashmere Long-Lasting Flawless Soft-Matte Foundation Sunscreen SPF20 Ochre Nude; Burberry Cashmere Long-Lasting Flawless Soft-Matte Foundation Sunscreen SPF20 Porcelain; Burberry Cashmere Long-Lasting Flawless Soft-Matte Foundation Sunscreen SPF20 Rosy Nude; Burberry Cashmere Long-Lasting Flawless Soft-Matte Foundation Sunscreen SPF20 Warm Honey; Burberry Cashmere Long-Lasting Flawless Soft-Matte Foundation Sunscreen SPF20 Warm Nude; By Flower Lip Care Spf15 Mint; By Flower Lip Care Spf15 Red; By Flower Lip Care Spf15 White; By Flower Lip Essence Spf15; By Pharmicell Lab Prestige Sun Block SPF40 PA PLUS PLUS PLUS; C Cream SPF 30; C-NO Wrinkle; CARDINAL HEALTH LEADER SPF 50 General Protection Sunscreen; CARDINAL HEALTH LEADER SPF30 General Protection Sunscreen; CARMEX Lime twist BROAD SPECTRUM SPF 15 SUNSCREEN; CARMEX Pomegranate BROAD SPECTRUM SPF 15 SUNSCREEN; CARMEX Vanilla BROAD SPECTRUM SPF 15 SUNSCREEN; CARMEX cherry lip balm BROAD SPECTRUM SPF 15 SUNSCREEN; CARMEX moisture Plus Ultra Hydrating Lip Balm Broad Spectrum SPF 15 Sunscreen; CARMEX original lip balm BROAD SPECTRUM SPF 15 SUNSCREEN; CARMEX strawberry lip balm BROAD SPECTRUM SPF 15 SUNSCREEN; CARROT SUN SPF30 PA Plus Plus; CC CREME 02 Soin Perfecteur de peau Skin Perfecting; CC Cream Complexion Corrector Dark Broad Spectrum SPF 15 Jafra; CC Cream Complexion Corrector Light Broad Spectrum SPF 15 Jafra; CC Cream Complexion Corrector Light Medium Broad Spectrum SPF 15 Jafra; CC Cream Complexion Corrector Medium Broad Spectrum SPF 15 Jafra; CC Cream Complexion Corrector Medium Dark Broad Spectrum SPF 15 Jafra; CC Creme Concealer Broad Spectrum SPF 20 Jafra; CCC Cream Deep; CCC Cream Light; CCC Cream Medium; CCC Cream Medium Deep; CCC Cream Medium Light; CELLTRION LXTR WATER CUSHION No 21 PINK BEIGE; CELLTRION LXTR WATER CUSHION No 23 NATURAL BEIGE; CERAMIDE LIFT and FIRM; CHANTECAILLE LIP SCREEN Tint Corsica SPF 15; CHANTECAILLE LIP SCREEN Tint Ibiza SPF 15; CHANTECAILLE LIP SCREEN Tint Santorini SPF 15; CHANTECAILLE LIP SCREEN Tint Sardinia SPF 15; CHANTECAILLE Ultra Sun Protection Sunscreen Broad Spectrum SPF 30; CHANTECAILLE Ultra Sun Protection Sunscreen Broad Spectrum SPF 45; CHARLOTTE TILBURY Broad Spectrum SPF 50 Sunscreen Invisible UV Flawless Primer; CIZAR Aqua Sun; CLARINS Age-Control Hand SPF 15; CLARINS BROAD SPECTRUM SPF 30 Dry Touch Facial Sunscreen Enriched with antioxidants Prevents sun induced age spots; CLARINS BROAD SPECTRUM SPF 30 Sunscreen Body Hydration, Comfort; CLARINS BROAD SPECTRUM SPF 30 Sunscreen Care; CLARINS BROAD SPECTRUM SPF 50 Dry Touch Facial Sunscreen Enriched with antioxidants Prevents sun induced age spots; CLARINS BROAD SPECTRUM SPF 50 Plus - SUNSCREEN CARE MILK; CLARINS BROAD SPECTRUM SPF 50 Plus - SUNSCREEN FOR FACE WRINKLE CONTROL; CLARINS BROAD SPECTRUM SPF 50 Sunscreen Body Hydration, comfort; CLARINS Bright Plus HP SPF 20 Brightening Hydrating Day; CLARINS Broad Spectrum SPF 15 Sunscreen Care For Outdoor Sports; CLARINS Broad Spectrum SPF 15 Sunscreen Extra Firming Day Wrinkle Lifting; CLARINS Broad Spectrum SPF 30 Sunscreen For Face Wrinkle Control; CLARINS Daily Energizer SPF 15; CLE CCC Cool Deep; CLE CCC Cool Medium Deep; CLE CCC Deep; CLE CCC Golden Medium; CLE CCC Golden Medium Deep; CLE CCC Light; CLE CCC Medium; CLE CCC Medium Deep; CLE CCC Medium Light; CLE CCC Neutral Deep; CLE CCC Neutral Fair; CLE CCC Neutral Light; CLE CCC Neutral Medium; CLE CCC Neutral Medium Light; CLE CCC Olive Medium Deep; CLE CCC Warm Deep; CLE CCC Warm Light; CLE CCC Warm Medium; CLE CCC Warm Medium Deep; CLE CCC Warm Medium Light; CLE Essence Air Cushion Deep; CLE Essence Air Cushion Light; CLE Essence Air Cushion Medium; CLE Essence Air Cushion Medium Deep; CLE Essence Air Cushion Medium Light; CLEMATIS Morning Dew CC; CLINIQUE FOR MEN SUPER ENGERGIZER ANTI -FATIGUE HYDRATING Concentrate BROAD SPECTRUM SPF 25; CLINIQUE SPF 15 with SOLAR SMART ADVANCED PROTECTION; CLINIQUE SPF 30 ADVANCED PROTECTION BODY CREAM with SOLAR SMART; CLINIQUE SPF 30 with SOLAR SMART; CLINIQUE SPF 50 with SOLAR SMART ADVANCED PROTECTION; CLINIQUE skin supplies for men; COOLA CLASSIC BODY SUNSCREEN Guava Mango Broad Spectrum SPF 50; COOLA CLASSIC FACE SUNSCREEN Cucumber Broad Spectrum SPF 30; COOLA CLASSIC FACE SUNSCREEN White Tea Broad Spectrum SPF 50; COOLA Classic Body SPF 30 Pina Colada; COOLA Classic Body SPF 30 Tropical Coconut; COOLA Classic Body SPF 50 Fragrance Free; COOLA Classic Body SPF 50 Guava Mango; COOLA Classic Body SPF 70 Peach Blossom; COOLA Classic Body Sunscreen Fragrance-Free SPF 50; COOLA Classic Body Sunscreen Guava Mango SPF 50; COOLA Classic Body Sunscreen Pina Colada SPF 30; COOLA Classic Body Sunscreen SPF 70 - Peach Blossom; COOLA Classic Body Sunscreen Tropical Coconut SPF 30; COOLA Classic Face Sunscreen Cucumber SPF 30; COOLA Classic Face Sunscreen Fragrance-Free SPF 50; COOLA Classic Face Sunscreen White Tea SPF 50; COOLA Classic Liplux Lip Balm SPF 30 Original; COOLA Classic Liplux Lip Balm SPF 30 Tinted; COOLA Classic Sunscreen Stick SPF 30 - Tropical Coconut; COOLA Full Spectrum 360 Day Eye Cream SPF 30; COOLA Full Spectrum 360 Refreshing Water Cream SPF 50; COOLA Full Spectrum 360 Sun Silk Drops SPF 30; COOLA Liplux Hydrating Oil SPF 30; COOLA Refreshing Water Mist SPF 18; COOLA Refreshing Water Mist Sunscreen SPF 30; COOLA Sun Silk Drops SPF 30; CORETEX Broad Spectrum SPF 30 Sunscreen; COVER plus CORRECT/TINTED MOISTURIZER CC CRM DEEP ALMOND; COVER plus CORRECT/TINTED MOISTURIZER CC CRM FAIR; COVER plus CORRECT/TINTED MOISTURIZER CC CRM GOLDEN ALMOND; COVER plus CORRECT/TINTED MOISTURIZER CC CRM GOLDEN LIGHT; COVER plus CORRECT/TINTED MOISTURIZER CC CRM GOLDEN MEDIUM; COVER plus CORRECT/TINTED MOISTURIZER CC CRM LIGHT; COVER plus CORRECT/TINTED MOISTURIZER CC CRM MED; COVER plus CORRECT/TINTED MOISTURIZER CC CRM MED/DEEP; COVER plus CORRECT/TINTED MOISTURIZER CC CRM PORCELAIN; CRC Sunscreen Towel CRC; CREMO Face with Sunscreen SPF20; CRÃ¨me Protectrice SPF 20 Protective Cream SPF 20; CRÃ¨me Solaire Anti-rides Visage SPF 30; CRÃ¨me Solaire Corps Fps 30; CRÃ¨me Solaire Fps 30; CRÃ¨me Solaire SpÃ©cial Visage SPF 50; CRÃ¨me Solaire TrÃ¨s Haute Protection SPF 30; CRÃ¨me Solaire TrÃ¨s Haute Protection SpÃ©cial Visage SPF 30; CRÃ¨me Solaire Visage Face Sunscreen; CRÃ¨me Solaire Visage Toucher Sec Fps 30; CRÃ¨me Solaire Visage Toucher Sec Fps 50+; CRÃ¨me Solaire Ãcran SpÃ©cial Visage SPF 30; CVS Clear Face SPF 30 3 oz; CVS Health Age Defense SPF 70 Face; CVS Health Baby SPF 50; CVS Health Baby SPF 50 Mineral-Based Sun; CVS Health Baby SPF 50 Sun; CVS Health Childrens SPF 70 Plus Wet and Dry; CVS Health Kids SPF 50 Clear; CVS Health Lip Repair; CVS Health Medicated Lip Care; CVS Health SPF 100 Clear; CVS Health SPF 100 Ultra Protection; CVS Health SPF 100 Ultra Sheer; CVS Health SPF 15 Clear; CVS Health SPF 15 Clear Hawaii Compliant; CVS Health SPF 30 Beach Guard Clear; CVS Health SPF 30 Clear; CVS Health SPF 30 Coconut Scented Clear; CVS Health SPF 30 Oil Free Sun; CVS Health SPF 30 Sheer Mist; CVS Health SPF 30 Ultra Sheer; CVS Health SPF 30 Ultra Sheer Mist; CVS Health SPF 45 Sheer Mist; CVS Health SPF 45 Ultra Sheer; CVS Health SPF 50; CVS Health SPF 50 Beach Guard; CVS Health SPF 50 Clear; CVS Health SPF 50 Coconut Scented Clear; CVS Health SPF 50 Sun; CVS Health SPF 55 Clear Face; CVS Health SPF 55 Clear Face Paraben and Phthalate Free; CVS Health SPF 55 Ultra Sheer; CVS Health SPF 55 Ultra Sheer Face Mist; CVS Health SPF 70 Beach Guard Sun; CVS Health SPF 70 Clear; CVS Health SPF 70 Sheer Mist; CVS Health SPF 70 Sun; CVS Health SPF 70 Ultra Sheer; CVS Health SPF 85 Wet and Dry; CVS Health Sport Clear Broad Spectrum SPF 100 Plus Sunscreen; CVS Health Sport SPF 100 Clear; CVS Health Sport SPF 100 Plus Clear; CVS Health Sport SPF 15 Clear; CVS Health Sport SPF 30; CVS Health Sport SPF 30 Clear; CVS Health Sport SPF 30 Clear Broad Spectrum; CVS Health Sport SPF 50 Clear; CVS Health Sport SPF 50 Face; CVS Health Sport SPF 50 Sun; CVS Health Sport SPF 70 Clear; CVS Health Ultra Protection SPF 100; CVS Health Ultra Protection SPF 30; CVS Health Ultra Protection SPF 50; CVS Health Ultra Protection SPF 70; CVS Health Ultra Sheer Broad Spectrum SPF 45 Sunscreen; CVS Health Ultra Sheer Broad Spectrum SPF 70; CVS Health Ultra Sheer SPF 100 Sunscreen; CVS Pharmacy Beauty 360 SPF 15 7-in-1 Complete Daily Moisturizer; CVS Pharmacy Kids SPF 50 Clear; CVS Pharmacy Kids SPF 70 Clear; CVS Pharmacy Oil Free Faces SPF 30; CVS Pharmacy Oil Free SPF 30; CVS Pharmacy SPF 30; CVS Pharmacy SPF 30 Beach Guard Clear; CVS Pharmacy SPF 30 Beach Guard Sun; CVS Pharmacy SPF 30 Wet and Dry; CVS Pharmacy SPF 50 Beach Guard Sun; CVS Pharmacy SPF 70 Beach Guard Clear; CVS Sheer SFP 30; CY BETTER LIPS BALM Humectante para Labios con color FPS 18 (BLUSH CURE) - PINK; CY BETTER LIPS BALM Humectante para Labios con color FPS 18 (CHOCO THERAPY) - BROWN; CY BETTER LIPS BALM Humectante para Labios con color FPS 18 (DR. ROSE) - PINK; CY BETTER LIPS BALM Humectante para Labios con color FPS 18 (FLASHY KARMIN) - RED; CY BETTER LIPS BALM Humectante para Labios con color FPS 18 (FUXIA DEFENSE) - MAGENTA; CY BETTER LIPS BALM Humectante para Labios con color FPS 18 (GET WELL PEACH) - PINK; CY BETTER LIPS BALM Humectante para Labios con color FPS 18 (GRAPE CARE) - RED; CY BETTER LIPS BALM Humectante para Labios con color FPS 18 (INTENSIVE RED) - RED; CY BETTER LIPS BALM Humectante para Labios con color FPS 18 (LILAC ZIMMER) - LILAC; CY BETTER LIPS BALM Humectante para Labios con color FPS 18 (PINK STAR) - PINK; CY BETTER LIPS BALM Humectante para Labios con color FPS 18 (PURE OXYGEN) - BEIGE; CY BETTER LIPS BALM Humectante para Labios con color FPS 18 (SAND LIFE) - YELLOW; CY BETTER LIPS BALM Humectante para Labios con color FPS 18 (SHINY BROWN) - BROWN; CY BETTER LIPS BALM Humectante para Labios con color FPS 18 (SUN LIGHT) - BEIGE; Cactus Whitening Sun SPF 34 Pa Plus Plus for Men; Califonia Aloe Ice Puff Sun Clear; California Aloe Aqua Sun; California Aloe Daily Moisture Sun Block; California Aloe Daily Sun Block; California Aloe Fresh Pow Dery Sun; California Aloe Mild Sun Block; California Aloe Oil Free Sun Block; California Aloe Power Lasting Sun; California Aloe Power Lasting Sun Block; California Tan BROAD SPECTRUM SPF 15; California Tan BROAD SPECTRUM SPF 30; California Tan BROAD SPECTRUM SPF 45; California Tan Broad Spectrum SPF 15; California Tan Continuous Sunscreen Broad Spectrum SPF 30; California Tan SPF 15 Sunscreen; California Tan SPF 30 BROAD SPECTRUM Sunscreen; California Tan SPF 30 Sunscreen; California Tan SPF 45 Face Sunscreen; California Tan SPF 45 Sunscreen; Calm Dynamics Gentle Hydrating Day SPF 15; Calming Dynamics Kit Jafra; Calming Dynamics SPF 15; Camera Ready 5 In 1 Beauty Balm SPF 35; Camera Ready Bb Broad Spectrum SPF 35; Camera Ready Cc Broad Spectrum SPF 30; Cannon Balm 140; Capital Lumiere Jour SPF 15; Cappuccino Long Wear Makeup Broad Spectrum SPF 20; Capture Totale C.E.L.L. Energy Super Potent Serum Foundation Broad Spectrum SPF 20 0n; Capture Totale C.E.L.L. Energy Super Potent Serum Foundation Broad Spectrum SPF 20 1,5n; Capture Totale C.E.L.L. Energy Super Potent Serum Foundation Broad Spectrum SPF 20 1n; Capture Totale C.E.L.L. Energy Super Potent Serum Foundation Broad Spectrum SPF 20 2cr; Capture Totale C.E.L.L. Energy Super Potent Serum Foundation Broad Spectrum SPF 20 2n; Capture Totale C.E.L.L. Energy Super Potent Serum Foundation Broad Spectrum SPF 20 2w; Capture Totale C.E.L.L. Energy Super Potent Serum Foundation Broad Spectrum SPF 20 3n; Capture Totale C.E.L.L. Energy Super Potent Serum Foundation Broad Spectrum SPF 20 4n; Capture Totale C.E.L.L. Energy Super Potent Serum Foundation Broad Spectrum SPF 20 5n; Capture Totale C.E.L.L. Energy Super Potent Serum Foundation Broad Spectrum SPF 20 6n; Capture Totale C.E.L.L. Energy Super Potent Serum Foundation Broad Spectrum SPF 20 7n; Caramel Long Wear Makeup Broad Spectrum SPF 20; Cardinal Health Leader Baby Sunscreen SPF 50; Cardinal Health Leader General Protection SPF 70 Sunscreen; Cardinal Health Leader General Protection Sunscreen SPF 30; Cardinal Health Leader General Protection Sunscreen SPF 50; Cardinal Health Leader Kids Sunscreen SPF 50; Cardinal Health Leader SPF 30 General Protection Sunscreen Clear Continuous; Cardinal Health Leader SPF 30 Sport Sunscreen Clear Continuous; Cardinal Health Leader SPF 50 Kids Sunscreen Clear Continuous; Cardinal Health Leader SPF 70 General Protection Sunscreen Clear Continuous; Cardinal Health Leader Sport Sunscreen SPF 30; Cardon; CareOne 7-in-1 Anti-Aging Vitamin; Carecella Daily Sun Cream; Careline Revival Plus; Careline Skin Guard Invisible SPF 50; Careline Skin Guard Kids Invisible SPF 50; Careline Skin Guard SPF 30; Careone Anti Aging Vitamin Complex 7 in 1; Caribbean Beach ADULT Sunscreen; Caribbean Beach ADVANCED Sunscreen; Caribbean Beach KIDS Sunscreen; Caribbean Beach SPORT Sunscreen; Caribbean Breeze SPF 15 Broad Spectrum Lip Balm; Caribbean Breeze SPF 30 Kids Sunscreen Lotion; Caribbean Breeze SPF 8 Protective Oil; Caribbean Breeze Spf12 Sunscreen Spray Lotion; Caribbean Breeze Spf15 Sunscreen Lotion; Caribbean Breeze Spf15 Sunscreen Spray Lotion; Caribbean Breeze Spf2 Oil; Caribbean Breeze Spf20 Sunscreen Spray Lotion; Caribbean Breeze Spf30 Sunscreen Lotion; Caribbean Breeze Spf30 Sunscreen Spray Lotion; Caribbean Breeze Spf4 Oil; Caribbean Breeze Spf45 Sunscreen Spray Lotion; Caribbean Breeze Spf6 Litescreen Oil; Carnival Adventures 30 Sport Sunscreen; Carnival Adventures Sport Sunscreen Broad Spectrum SPF 50; Carols Daughter Monoi Sunscreen Broad Spectrum SPF 30; Cashmere Moisturizing Makeup Broad Spectrum SPF 15 Jafra; Castor and Shea SPF Body; Castor and Shea SPF Face; Caudalie Resveratrol Face Lifting Moisturizer Broad Spectrum SPF 20; Cay Skin Isle Body Oil SPF 30; Cay Skin Isle Glow Body SPF 45; Cay Skin Isle Glow Face SPF 45; Cay Skin Isle Lip Balm SPF 30; Cc CRÃ¨me Soin Perfecteur De Peau Skin Perfecting Cream; Cc Creme Soin Perfecteur De Peau Skin Perfecting; Cc Sunscreen; Cc+ Nude Glow; Cel Defense Fluide De Jour Matifiant SPF 15; Celazome Botanical Mositurizer with SPF 15; Celazome Moisturizing Sunscreen SPF 15; Celazome Moisturizing Sunscreen with SPF 30; Celazome Mositurizing Sunscreen with SPF 29; Celazome SPF 29; Celazome SPF 30; Celebeau Star Secret Cushion 01 Pink Star; Celebeau Star Secret Cushion 02 Violet Star; Celesty Colors Special Edition With Alix Avien BB Cream; Celesty Colors Special Edition With Alix Avien CC Cream; Celgen Mild Sun; Cell Fusion C Laser Sunscreen; Cellex-C Sun Care; Cellex-C Sun Care SPF 50+; Cellex-C Sun Shade; Cellex-C Suncare SPF 15; Cellex-C Suncare SPF 30; Cellex-C Suncare SPF 32; Cellex-C Sunshade SPF 50+; Cellpium shield sun bb; Cellromax Sun Block; Celltrion Uv Perfection Always Sun; Cellular Anti-Wrinkle SunScreen SPF 30 La Prarie; Cellular Anti-wrinkle Sun Cream SPF 30; Cellular Anti-wrinkle Sun Sunscreen Broad Spectrum SPF 30; Cellular Aw Sun Block SPF 50; Cellular Day Defense Firming Complex SPF 15; Cellular Laboratories De-Aging Sunscreen Broad Spectrum SPF 50 Plus; Cellular Protective Body Emulsion SPF 30; Cellular Radiance Emulsion SPF 30 La Prairie; Cellular Radiance Sunscreen SPF 30; Cellular Swiss UV Protection Veil SPF30; Celonia Signature Bio Tone Up Sun Block; CeraVe Developed with Dermatologists Healing Lip Balm Broad Spectrum SPF 30 Sunscreen; CeraVe Developed with Dermatologists Hydrating Sheer Sunscreen Broad Spectrum SPF 30 Face and Body Water Resistant 80 Minutes Hybrid Formula; CeraVe Developed with Dermotologists Ultra Light Moisturizing Broad Spectrum SPF 30; CeraVe Kids Sunscreen Broad Spectrum SPF 50 WET SKIN; CeraVe Sunscreen Broad Spectrum SPF 30 WET SKIN; CeraVe Sunscreen Broad Spectrum SPF 50 WET SKIN; Ceramide Lift And Firm Day Broad Spectrum Sunscreen SPF 30; Ceramide Lift and Firm Day Cream SPF 30; Ceramide Lift and Firm Day Lotion SPF 30; Ceramide Plump Perfect Lip Moisture SPF 30; Ceramide Premier Intense Moisture and Renewal Activation Broad Spectrum SPF 30; Ceramide Premiere Broad Spectrum SPF 30; Ceramide Premiere Intense Moisture and Renewal Activation Cream SPF 30; Cetaphil Daily Facial Moisturizer (SPF 50); Cetaphil Daily Facial Moisturizer SPF 50; Cetaphil Daily Facial Moisturizer with suncreen SPF 35; Cetaphil Daily Facial Moisturizer with suncreen SPF 50; Cetaphil DermaControl SPF 30; Cetaphil Healthy Radiance Whipped Day Cream Broad Spectrum SPF 30; Cetaphil Healthy Radiance Whipped Moisturizer SPF 30; Cetaphil Oil Absorbing SPF 30; Cetaphil PRO Oil Absorbing SPF 30; Cetaphil Pro Dermacontrol Oil Control Moisturizer; Chantecaille Lip Screen SPF 15; Chantecaille Ultra Sun Protection SPF 50 Anti-glycation Primer; Chantecaille Ultra Sun Protection Sunscreen Broad Spectrum SPF 45 Primer; ChapIce SPF 30 Lip Balm; ChapStick Active Sport Ready; Chapstick Active SPF 30; Chapstick Lipshield 365; Chapstick Moisturizer Cool Mint; Chapstick Moisturizer Original; Chapstick Moisturizer Variety Pack; Chapstick Ultra SPF 30; Charmzone ALBATROSS Powder Sun (SPF41 PA); Cherry Candy Cane Lip Balm; Cherry Lip Balm; Cherry SPF 15 Broad Spectrum Lip Balm; Children's Sunblock Lot SPF 30; Childrens Sunstick SPF 55 CVS; Chocolate Coffee Stout SPF 15 Broad Spectrum Lip Balm; Chuda; Cicatricure Aqua Defense Day With SPF; Cicatricure Brightening Face With SPF; Cicatricure Gold Day With SPF; Cien Sun By Lidl Kids Sunscreen SPF 50; Cien Sun By Lidl Sport Sunscreen SPF 30; Citrus Mimosa Body SPF 30 Broad Spectrum Sunscreen Continuous; Citrus SPF 15 Broad Spectrum Lip Balm; City Miracle Cc Cream SPF 50; City Sunscreen Serum SPF 30 Doctor Ts Super goop; City Sunscreen serum Broad Spectrum SPF 30 Supergoop; Clamue Healthy Fresh BB Cream Light; Clamue Healthy Fresh BB Cream Light Medium; Clamue Healthy Fresh BB Cream Medium; Clamue Healthy Fresh BB Cream Medium Deep; Clapiel Defense Sunblock; Clarins Advanced Extra-Firming Day; Clarins Broad Spectrum SPF 15 Sunscreen Care For Outdoor Sports; Clarins Broad Spectrum SPF 15 Sunscreen Delectable Self Tanning Mousse; Clarins Broad Spectrum SPF 30 - Sunscreen Care; Clarins Broad Spectrum SPF 30 Sunscreen Care; Clarins Extra-Firming Day Wrinkle Lifting SPF 15; Clarins HydraQuench SPF 15; Clarins Sunscreen Care Milk- SPF 50 Plus; Clarins Sunscreen For Face Wrinkle Control SPF 50 PLUS; Clarins Sunscreen Progressive Tanning SPF 15; Clarins Sunscreen Smoothing Rapid Tanning SPF10; Clarins Vital Light Day SPF 15; Clarisonic Mia 2 Facial Sonic Cleansing Brush with Supergoop Sun Essentials; Classic Sport Mango SPF 30 Broad Spectrum; Classic Sport Unscented SPF 30 Broad Spectrum; Clean & Clear Finishes Pore Perfecting Moisturizer; Clean & Clear Morning Glow Moisturizer SPF 15; Clean Face Oil Control Sun Cream SPF 35 Pa++; Clean Face Oil Free Sun Cream SPF 35/pa++; Clean Fresh Sunblock Sunscreen SPF 30 Continuous; Clean and Clear Advantage 2-in-1 Acne and Mark Eraser Kit; Clean and Clear Finishes Pore Perfecting Moisturizer; Clean and Clear Morning Glow Moisturizer Sunscreen Broad Spectrum SPF 15; Clear Complexion Bb Cream; Clear Complexion Bb Cream SPF 30 Medium; Clear Complexion Sheer Daily Moisturizer; Clear Cover Invisible Sunscreen Broad Spectrum SPF 30; Clear Day Soon Sun; Clear Difference Bb Complexion Perfecting Bb Broad Spectrum SPF 35; Clear Face; Clear Face Sunscreen Lotion; Clear Glow Radiant Sun Serum Spf50; Clear SPF 30 Face Sunscreen Wegmans; Clear SPF 30 Sunscreen Spray; Clear Smart Shine Control Sunscreen Broad Spectrum SPF 25; Clear Stick Uv Protector; Clear Sunscreen SPF 30 Broad Spectrum; Clear Sunscreen Stick; Clear Sunscreen Stick 50+; Clear Ultra-light Daily Mattifying Fluid Broad Spectrum SPF 30; Clearing Defense SPF 30; Clearskin Professional Oil Free; Clearskin Professional Oil Free Lotion SPF 15 Lotion Sans Huile Fps 15; Clematis Base Cushion; Clematis Hydro Protective Uv Sun Essence; Climatik SPF 30 Fps Protective Cream CRÃ¨me Protectrice; Climatik SPF 30 Fps Protective Lotion Lotion Protectrice; Clinic A Retinol Vital Day Moist Lot Spf20; Clinique Acne Solutions Bb Cream SPF 40 Combination Oily To Oily; Clinique Age Defense Bb Cream SPF 30; Clinique Broad Spectrum SPF 30 Oil Free Face With Solar Smart; Clinique Broad Spectrum SPF 30 Sunscreen Body Mist; Clinique Broad Spectrum SPF 30 Sunscreen Body With Solar Smart; Clinique Broad Spectrum SPF 30 Sunscreen Face With Solar Smart; Clinique Broad Spectrum SPF 50 Sunscreen Body With Solar Smart; Clinique Broad Spectrum SPF 50 Sunscreen Face With Solar Smart; Clinique Cx Protective Base SPF 40; Clinique Even Better Hand Cream SPF 15; Clinique Even Better Lotion SPF 20; Clinique Even Better Skin Tone Correcting Broad Spectrum SPF 20; Clinique Even Better Skin Tone Correcting Moisturizer SPF 20; Clinique Face Zone Sun Block 30 SPF; Clinique Fit Workout Makeup Broad Spectrum SPF 40; Clinique Fit Workout Makeup SPF 40; Clinique Long Last Glosswear SPF 15; Clinique Moisture Surge Cc Cream Hydrating Colour Corrector SPF 30; Clinique Moisture Surge Tinted Moisturizer SPF 15; Clinique Pep-start Hydrorush Moisturizer SPF 20; Clinique Repairwear Laser Focus Line Smoothing Cream SPF 15 Very Dry To Dry Combination; Clinique Repairwear Uplifting Firming Broad Spectrum SPF 15 Dry Combo Oily; Clinique Repairwear Uplifting Firming Cream SPF 15 Dry Combination To Combination Oily; Clinique Repairwear Uplifting Firming Cream SPF 15 Very Dry To Dry; Clinique SPF 15 Face/body Cream; Clinique SPF 25 Body Spray; Clinique SPF 30 Body Cream; Clinique SPF 30 Face Cream; Clinique SPF 30 Sheer Body Mist; Clinique SPF 30 With Solarsmart+ Oil-free Face Cream; Clinique SPF 45 Targeted Protection Stick; Clinique SPF 50 Body Cream; Clinique SPF 50 Face Cream; Clinique Skin Supplies for Men Age Defense Hydrator Broad Spectrum SPF 15; Clinique Skin Supplies for Men Age Defense Hydrator SPF 15; Clinique Skin Supplies for Men Lip Balm SPF 15; Clinique Skin Supplies for Men M Protect SPF 21; Clinique Smart Broad Spectrum SPF 15 Custom-repair Moisturizer Dry Combination; Clinique Smart Custom Repair Moisturizer Broad Spectrum SPF 15 - Combination/oily To Oily; Clinique Smart Custom Repair Moisturizer Broad Spectrum SPF 15 - Very Dry/dry; Clinique Smart SPF 15 Custom-repair Moisturizer Combination Oily To Oily; Clinique Smart SPF 15 Custom-repair Moisturizer Dry Combination; Clinique Smart SPF 15 Custom-repair Moisturizer Very Dry To Dry; Clinique Sun-care Body Gel 15 SPF Sunscreen; Clinique Sun-care Body Spray 15 SPF Sun Block; Clinique Sun-care Body Spray 30 SPF Sun Block; Clinique Sun-care Lip/eye 30 SPF Sun Block; Clinique Sun-care Uv-response Body Cream 30 SPF Sunscreen; Clinique Sun-care Uv-response Body Cream 50 SPF Sunscreen; Clinique Sun-care Uv-response Face Cream 30 SPF Sunscreen; Clinique Sun-care Uv-response Face Cream 50 SPF Sunscreen; Clinique Super City Block Oil-free Daily Face Protector SPF 40; Clinique Superbalanced Silk Makeup Broad Spectrum SPF 15; Clinique Superbalanced Silk Makeup SPF 15; Clinique Superdefense Age Defense Moisturizer Broad Spectrum SPF 25; Clinique Superdefense Age Defense Moisturizer SPF 25 Combination Oily; Clinique Superdefense Age Defense Moisturizer SPF 25 Dry Combination; Clinique Superdefense Age Defense Moisturizer SPF 25 Very Dry Combination; Clinique Superdefense Daily Defense Moisturizer SPF 20 Combination Oily To Oily; Clinique Superdefense Daily Defense Moisturizer SPF 20 Very Dry To Dry Combination; Clinique Targeted Protection SPF 45 Broad Spectrum Sunscreen; Clinique Youth Surge SPF 15 Age Decelerating Moisturizer Dry Combination; Clinique Youth Surge SPF 15 Age Decelerating Moisturizer Very Dry/dry; Clinique for Men Broad Spectrum SPF 21 Moisturizer; Clinique for Men SPF 21 Moisturizer; Clinique for Men Super Energizer SPF 25 Anti-fatigue Hydrating Concentrate; Coconut Lip Balm SPF15; Coconut SPF 15 Broad Spectrum Lip Balm; Cocooil SPF 30; Cocooil SPF30; Cocooil SPF50; Collagen Boost Moisturizer SPF 25; Collagen Glow Creme SPF 50; Collagen Hd Aqua Bb Spf27 Pa Plus Plus; Collagen Hd Cover Bb Spf27 Pa Plus Plus; Collagen Hd Pearl Bb Spf27 Pa Plus Plus; Collagen Hd Priimer Bb Spf27 Pa Plus Plus; Color Control Oil-free Moisturizer Broad Spectrum SPF 30; Color Correction Creme Dark; Color Correction Creme Light; Color Correction Creme Medium; Color Extend Sun Take Cover SPF/fps 25; Comisqueen Uv Proof Radiance Bloom; Compact Foundation SPF 50 Color 01; Compact Foundation SPF 50 Color 02; Compact Foundation SPF 50 Color 03; Complete + Care & Protect (80 Minutes) Water / Sweat Resistant Lotion SPF 30; Complete + Care & Protect (80 Minutes) Water / Sweat Resistant Lotion SPF 50+; Complete Acne Therapy System; Complete Advanced (80 Minutes) Water / Sweat Resistant Lotion SPF 15; Complete Advanced (80 Minutes) Water / Sweat Resistant Lotion SPF 30; Complete Advanced (80 Minutes) Water / Sweat Resistant Lotion SPF 50+; Complete Advanced [80 Minutes] Water/sweat Resistant Lotion SPF 60; Complete Dry Mist Spray; Complete Dry Mist Spray Hypoallergenic Uva + Uvb SPF 30; Complete Hypoallergenic Spf60 Lotion; Complete Lightweight Lotion SPF 15; Complete Lightweight Lotion SPF 45; Complete Moisture; Complete Sensitive Advanced (80 Minutes) Water / Sweat Resistant SPF 50+; Complete Sensitive Advanced [80 Minutes] Water/sweat Resistant Lotion SPF 60; Complete* Dry Touch; Complete* Dry Touch Sunscreen/Ã©cran Solaire; Complete+ Care & Protect [80 Minutes] Water/sweat Resistant Lotion SPF 60; Complexion Protection Moisturizer SPF; Concept II SolScents Broad Spectrum SPF 15 Pina Colada; Concept II SolScents Broad Spectrum SPF 15 Vanilla Silk; Concept II SolScents Broad Spectrum SPF 30 Angelica; Concept II SolScents Broad Spectrum SPF 30 Cucumber Melon; Concept II SolScents Broad Spectrum SPF 30 Deep Love; Concept II SolScents Broad Spectrum SPF 50 Flower Blast; Concept II SolScents Broad Spectrum SPF 50 Raspberry Dreams; Continuous Correction Full Coverage Cc Cream; Continuous Hydration SPF 25; Continuous Spray Lotion; Continuous Spray SPF/fps 70; Continuous Spray Sheer Mist SPF 30; Continuous Spray Sunscreen Sun Bum Broad Spectrum SPF 15; Continuous Spray Sunscreen Sun Bum Broad Spectrum SPF 30; Continuous Spray Sunscreen Sun Bum Broad Spectrum SPF 50; Control Corrective Day SPF-30 Sunscreen; Control Corrective Intensive Skin Brightening SPF-30 Sunscreen; Control Corrective Sunscreen SPF-30; Control Dynamics Mattifying SPF 15; Control Dynamics SPF 15; Control Dynamics kit Jafra; Cool Sport SPF 50; Coola Bare Republic Clearscreen Spf30; Coola Bare Republic Clearscreen Spf50; Coola Citrus Mimosa Scent Sunscreen Spray; Coola Classic Body SPF 30 Sunscreen Lotion Pina Colada Scent; Coola Classic Body SPF 30 Sunscreen Lotion Tropical Coconut Scent; Coola Classic Body SPF 50 Sunscreen Lotion Fragrance-free; Coola Classic Body SPF 50 Sunscreen Lotion Guava Mango Scent; Coola Classic Face SPF 30 Sunscreen Lotion Cucumber Scent; Coola Classic Face SPF 50 Sunscreen Lotion Fragrance-free; Coola Classic Face SPF 50 Sunscreen Lotion White Tea Scent; Coola Classic SPF 30 Sunscreen Spray Pina Colada Scent; Coola Classic SPF 30 Sunscreen Spray Tropical Coconut Scent; Coola Classic SPF 50 Sunscreen Spray Fragrance-free; Coola Classic SPF 50 Sunscreen Spray Guava Mango Scent; Coola Classic Sunscreen Fragrance Free; Coola Classic Sunscreen Stick SPF 30 Tropical Coconut Scent; Coola Daily Protection SPF 30 Sun Silk Drops Sunscreen; Coola Daily Protection SPF 50 Refreshing Water Cream Sunscreen; Coola Dew Good Illuminating Serum Sunscreen; Coola Environmental 360Â° Daily Protection SPF 18 Refreshing Water Mist Sunscreen; Coola Liplux Original; Coola Makeup Setting Spray Green Tea Scent; Coola Pina Colada Scent Sunscreen Spray; Coola SPF 50 Classic; Coola Scalp Mist Sunscreen SPF 30 Ocean Salted Sage Scent; Cooldry Sport SPF 30; Cooldry Sport SPF 30 Sunscreen Spray; Cooldry Sport SPF 60; Cooldry Sport SPF 60 Sunscreen Spray; Cooldry Sport Sunscreen Spray SPF 100; Copperstone Water Babies Pure and Simple Whipped Sunscreen Broad Spectrum SPF 50 SPF 50; Coppertone Bug & Sun Block SPF 15; Coppertone Clear Blue Sunscreen; Coppertone Clear Continuous Spray Sunscreen SPF 50; Coppertone Clear Orange Sunscreen; Coppertone Clear Sunscreen SPF 30 Sport; Coppertone Clear Sunscreen SPF 50 Sport; Coppertone Clearly Sheer Faces SPF 50; Coppertone Clearly Sheer For Beach and Pool SPF 50 Plus; Coppertone Clearly Sheer For Beach and Pool SPF 50 Plus Face; Coppertone Clearly Sheer For Sunny Days SPF 15; Coppertone Clearly Sheer For Sunny Days SPF 30; Coppertone Clearly Sheer For Sunny Days SPF 30 Face; Coppertone Clearly Sheer SPF 30; Coppertone Clearly Sheer SPF 50; Coppertone Clearly Sheer Whipped SPF 30; Coppertone Clearly Sheer Whipped SPF 50; Coppertone Clearly Sheer Whipped Sunscreen Broad Spectrum SPF 30 SPF 50; Coppertone Clearly Sheer Whipped Sunscreen Broad Spectrum SPF 50 SPF 50; Coppertone Clearly Sher Faces SPF 30; Coppertone Complete Sunscreen SPF 30; Coppertone Complete Sunscreen SPF 50; Coppertone Continuous Spray Sunscreen SPF 30; Coppertone Defend and Care Face Clear Zinc SPF 50; Coppertone Defend and Care Face Oil Free SPF 30; Coppertone Defend and Care Face Oil Free SPF 50; Coppertone Defend and Care Face SPF 50; Coppertone Defend and Care Face Sensitive Skin SPF 50; Coppertone Defend and Care Face Sunscreen SPF 50; Coppertone Defend and Care Ultra Hydrate SPF 50; Coppertone Defend and Care Ultra Hydrate Whipped SPF 30; Coppertone Defend and Care Ultra Hydrate Whipped SPF 50; Coppertone Defend and Care Ultra Hydrating SPF 50; Coppertone Defend and Clear; Coppertone Dry Oil Mist Sunscreen Continuous Spray SPF 10; Coppertone Dry SPF 10; Coppertone Gel SPF 15; Coppertone Gel SPF 30; Coppertone General Protection Sunscreen Lotion SPF 60; Coppertone Glow Hydragel SPF 50; Coppertone Glow Hydragel Sunscreen SPF 30; Coppertone Glow Suncreen SPF 30; Coppertone Glow Sunscreen SPF 15; Coppertone Glow Sunscreen SPF 30; Coppertone Glow Sunscreen SPF 50; Coppertone KIDS SPF 30; Coppertone KIDS SPF 50; Coppertone KIDS SPF 55; Coppertone Kids - SPF 40 Lot Top; Coppertone Kids Clear SPF 50; Coppertone Kids Clear Sparkle SPF 50; Coppertone Kids Colorblok Lotion SPF 30; Coppertone Kids Colorblok SPF 40; Coppertone Kids Colorblok Spf30; Coppertone Kids Colorblok Spray SPF 30; Coppertone Kids Continuous Spray SPF 60; Coppertone Kids Continuous Spray Sunscreen SPF 50; Coppertone Kids Foam SPF 40; Coppertone Kids Glitter Lotion SPF 30; Coppertone Kids Lotion SPF 30; Coppertone Kids SPF 15 Sunblock Lotion; Coppertone Kids SPF 30 - Lot; Coppertone Kids SPF 30 Sunblock Lotion; Coppertone Kids SPF 40 - Lot; Coppertone Kids SPF 50; Coppertone Kids SPF 50 Sunscreen; Coppertone Kids SPF 70 Plus; Coppertone Kids Sport SPF 100; Coppertone Kids Sport SPF 50; Coppertone Kids Sport Sunscreen SPF 100; Coppertone Kids Sport Sunscreen SPF 50; Coppertone Kids Spray Lotion SPF 30; Coppertone Kids Spray'n Play SPF 30; Coppertone Kids Sunblock Lotion Spray SPF 30; Coppertone Kids Sunscreen Lotion SPF 60; Coppertone Kids Sunscreen Mousse SPF 60; Coppertone Kids Sunscreen SPF 50; Coppertone Kids Sunscreen SPF 70; Coppertone Kids Sunscreen Stick SPF 55; Coppertone Kids Tear Free Mineral Sunscreen SPF 50; Coppertone Kids Wet Protect SPF 50; Coppertone Kids Wet'n Clear Sunscreen Continuous Spray SPF 50; Coppertone Limited Edition Sunscreen SPF 30; Coppertone Limited Edition Sunscreen SPF 50; Coppertone Lotion Spray SPF 30; Coppertone Lotion Sunscreen SPF 15 Glow; Coppertone Lotion Sunscreen SPF 15 Sun Guard; Coppertone Lotion Sunscreen SPF 30 Complete; Coppertone Lotion Sunscreen SPF 30 Glow; Coppertone Lotion Sunscreen SPF 30 Sport; Coppertone Lotion Sunscreen SPF 30 Sun Guard; Coppertone Lotion Sunscreen SPF 50 Complete; Coppertone Lotion Sunscreen SPF 50 Defend & Care; Coppertone Lotion Sunscreen SPF 50 Defend & Care Face; Coppertone Lotion Sunscreen SPF 50 Glow; Coppertone Lotion Sunscreen SPF 50 Kids; Coppertone Lotion Sunscreen SPF 50 Sport; Coppertone Lotion Sunscreen SPF 50 Sun Guard; Coppertone Lotion Sunscreen SPF 50 Waterbabies; Coppertone Mousse Sunscreen SPF 50 Defend & Care; Coppertone Mousse Sunscreen SPF 50 Waterbabies; Coppertone Noskote 15 Crm; Coppertone Oil Free Continuous Spray SPF 50 Sunscreen; Coppertone Oil Free Faces SPF 50 Plus; Coppertone Oil Free Faces SPF-30; Coppertone Oil Free Faces Sunscreen Lotion SPF 60; Coppertone Oil Free Lotion SPF 30; Coppertone Oil Free Lotion SPF 45; Coppertone Oil Free Lotion SPF-30; Coppertone Oil Free Lotion SPF-45; Coppertone Oil Free SPF 50 Sunscreen; Coppertone Oil Free Sunscreen Lotion SPF 30; Coppertone Oil Free Sunscreen Mousse SPF 60; Coppertone Oil Free Sunscreen SPF 30; Coppertone Protect and Tan SPF 30; Coppertone Protect and Tan Sunscreen SPF 45; Coppertone Radiance - Spf15 - Lot Top; Coppertone Radiance SPF 15 - Lot; Coppertone SPF 15; Coppertone SPORT PRO SERIES SPF 15; Coppertone SPORT PRO SERIES SPF 30; Coppertone SPORT PRO SERIES SPF 50; Coppertone SPORT SPF 30; Coppertone SPORT SPF 50; Coppertone SPORT SPF 90; Coppertone SPORT Sunscreen Faces SPF 50; Coppertone SPORT Sunscreen SPF 100PLUS; Coppertone SPORT Sunscreen SPF 30; Coppertone SPORT Sunscreen SPF 50; Coppertone SPORT Sunscreen SPF 80; Coppertone Sensitive Skin SPF 50; Coppertone Spectra 3 Babies Lotion SPF 50; Coppertone Spectra 3 Kids Lotion SPF 50; Coppertone Spectra 3 Lotion SPF 30; Coppertone Spectra 3 Lotion SPF 50; Coppertone Spectra SPF 30; Coppertone Sport; Coppertone Sport AccuSpray SPF 15; Coppertone Sport AccuSpray SPF 30; Coppertone Sport AccuSpray SPF 70; Coppertone Sport Clear Continuous Spray Sunscreen SPF 50; Coppertone Sport Clear SPF 30; Coppertone Sport Clear SPF 50; Coppertone Sport Continuous SPF 100 Plus; Coppertone Sport Continuous Spray SPF 15 Accuspray Sunscreen; Coppertone Sport Continuous Spray SPF 30 Accuspray Sunscreen; Coppertone Sport Continuous Spray SPF 50+ Accuspray Sunscreen; Coppertone Sport Continuous Spray Sunscreen SPF 15; Coppertone Sport Continuous Spray Sunscreen SPF 30; Coppertone Sport Face Mineral SPF 50; Coppertone Sport Free SPF 50; Coppertone Sport Gel SPF-15; Coppertone Sport Gel SPF-30; Coppertone Sport High Performance Faces SPF 50; Coppertone Sport High Performance SPF 30; Coppertone Sport High Performance SPF 50; Coppertone Sport Lip Balm SPF 50; Coppertone Sport Lotion SPF 15; Coppertone Sport Lotion SPF 30; Coppertone Sport Lotion SPF-30; Coppertone Sport Lotion Sunscreen SPF 15; Coppertone Sport Pro Series Sunscreen Continuous Spray SPF 30; Coppertone Sport Pro Series Sunscreen Continuous Spray SPF 50+; Coppertone Sport SPF; Coppertone Sport SPF 100; Coppertone Sport SPF 100 plus; Coppertone Sport SPF 15; Coppertone Sport SPF 15 Sunscreen; Coppertone Sport SPF 30; Coppertone Sport SPF 30 Lotion; Coppertone Sport SPF 50; Coppertone Sport SPF 50 Sunscreen; Coppertone Sport SPF 55; Coppertone Sport SPF 70; Coppertone Sport SPF 75; Coppertone Sport SPF 80; Coppertone Sport Spray SPF 15; Coppertone Sport Spray SPF 30; Coppertone Sport Sunblock Stick SPF 30; Coppertone Sport Suncreen SPF 50; Coppertone Sport Sunscreen Lip Balm SPF 30; Coppertone Sport Sunscreen Lotion Face SPF 50; Coppertone Sport Sunscreen Lotion Face SPF 60; Coppertone Sport Sunscreen Lotion SPF 15; Coppertone Sport Sunscreen Lotion SPF 30; Coppertone Sport Sunscreen Lotion SPF 50; Coppertone Sport Sunscreen Lotion SPF 60; Coppertone Sport Sunscreen SPF 100; Coppertone Sport Sunscreen SPF 15; Coppertone Sport Sunscreen SPF 30; Coppertone Sport Sunscreen SPF 40; Coppertone Sport Sunscreen SPF 50; Coppertone Sport Sunscreen SPF 70; Coppertone Sport Sunscreen SPL 15; Coppertone Sport Sunscreen Stick; Coppertone Sport Sunscreen Stick SPF 55; Coppertone Sport Wet Protect SPF 30; Coppertone Spray SPF 15; Coppertone Spray SPF 30; Coppertone Spray Sunscreen SPF 30 Complete; Coppertone Spray Sunscreen SPF 30 Glow; Coppertone Spray Sunscreen SPF 30 Sport; Coppertone Spray Sunscreen SPF 30 Sun Guard; Coppertone Spray Sunscreen SPF 50 Complete; Coppertone Spray Sunscreen SPF 50 Defend & Care; Coppertone Spray Sunscreen SPF 50 Glow; Coppertone Spray Sunscreen SPF 50 Kids; Coppertone Spray Sunscreen SPF 50 Sport; Coppertone Spray Sunscreen SPF 50 Sun Guard; Coppertone Sunblock Lotion SPF 45; Coppertone Sunblock Lotion Spf30; Coppertone Sunblock Lotion Spf45; Coppertone Sunscreen Continuous Spray SPF 15; Coppertone Sunscreen Continuous Spray SPF 30; Coppertone Sunscreen Continuous Spray SPF 50+; Coppertone Sunscreen Lotion Clearlysheer Face SPF 30; Coppertone Sunscreen Lotion Clearlysheer Face SPF 50; Coppertone Sunscreen Lotion Clearlysheer SPF 30; Coppertone Sunscreen Lotion Defend & Care Clearzinc+ Other Sunscreen Ingredients; Coppertone Sunscreen Lotion Defend & Care Face Clearzinc + Other Sunscreen Ingredients; Coppertone Sunscreen Lotion Face Oil Free SPF 30; Coppertone Sunscreen Lotion Oil Free SPF 50; Coppertone Sunscreen Lotion Oil Free SPF 60; Coppertone Sunscreen Lotion SPF 15 Sun Guard; Coppertone Sunscreen Lotion SPF 30; Coppertone Sunscreen Lotion SPF 30 Sun Guard; Coppertone Sunscreen Lotion SPF 50 Defend & Care; Coppertone Sunscreen Lotion SPF 50 Defend & Care Face Sensitive Skin; Coppertone Sunscreen Lotion SPF 50 Defend & Care Sensitive Skin; Coppertone Sunscreen Lotion SPF 50 Kids; Coppertone Sunscreen Lotion SPF 50 Sun Guard; Coppertone Sunscreen Lotion SPF 50+ Sport; Coppertone Sunscreen Lotion SPF 50+ Waterbabies; Coppertone Sunscreen Mousse SPF 50 Defend & Care; Coppertone Sunscreen Mousse SPF 50 Waterbabies Pure & Simple; Coppertone Sunscreen SPF 50; Coppertone Sunscreen Spray Clearlysheer SPF 50; Coppertone Sunscreen Spray SPF 15 Sport; Coppertone Sunscreen Spray SPF 30 Sport; Coppertone Sunscreen Spray SPF 30 Sun Guard; Coppertone Sunscreen Spray SPF 50 Defend & Care; Coppertone Sunscreen Spray SPF 50 Kids; Coppertone Sunscreen Spray SPF 50 Sport; Coppertone Sunscreen Spray SPF 50 Sun Guard; Coppertone Sunscreen Stick SPF 55; Coppertone Tanning Defend and Glow SPF 10; Coppertone Tanning Defend and Glow SPF 15; Coppertone Tanning Dry Oil SPF 10; Coppertone Tanning Dry Oil SPF 15; Coppertone Tanning Oil SPF 15; Coppertone Tanning SPF 15; Coppertone Tanning SPF 8; Coppertone Tanning Sunscreen SPF 15; Coppertone Tanning Sunscreen SPF 8; Coppertone Tattoo Guard SPF 50; Coppertone Tattoo Guard Sunscreen SPF 50; Coppertone TattooGuard Sunscreen SPF 50 Plus; Coppertone Ultra Guard SPF 30; Coppertone Ultra Guard SPF 50; Coppertone Ultra Guard SPF 70; Coppertone Ultra Guard SPF 70 Sunscreen; Coppertone UltraGuard SPF 15; Coppertone UltraGuard SPF 30; Coppertone UltraGuard SPF 50; Coppertone UltraGuard SPF 70 Plus; Coppertone UltraGuard SPF 70 Plus Sunscreen; Coppertone Ultraguard SPF 30; Coppertone Ultraguard SPF 50; Coppertone Ultraguard Sunscreen SPF 15; Coppertone Uv Guard SPF-30 Lotion; Coppertone Water BABIES SPF 55; Coppertone Water Babies; Coppertone Water Babies Foaming Sunscreen SPF 75 Plus; Coppertone Water Babies Pure And Simple Whipped SPF 50; Coppertone Water Babies SPF 50; Coppertone Water Babies Sunblock Crm Spf25; Coppertone Water Babies Sunblock Lot Spf30; Coppertone Water Babies Sunscreen SPF 70 Plus; Coppertone WaterBABIES Sunscreen SPF 100plus; Coppertone Waterbabies Continuous Spray Sunscreen Lotion SPF 50; Coppertone Waterbabies Pure and Simple Light SPF 50; Coppertone Waterbabies Pure and Simple Mineral SPF 50; Coppertone Waterbabies Pure and Simple SPF 50; Coppertone Waterbabies Pure and Simple Sunscreen SPF 50; Coppertone Waterbabies SPF 50; Coppertone Waterbabies Spray SPF 30; Coppertone Waterbabies Spray SPF-45; Coppertone Waterbabies Sunblock Lot SPF 45; Coppertone Waterbabies Sunblock Stick SPF 30; Coppertone Waterbabies Sunscreen Lotion SPF 60; Coppertone Waterbabies Sunscreen Mousse SPF 60; Coppertone Waterbabies Sunscreen SPF 50; Coppertone Waterbabies Whipped SPF 50; Coppertone Wet and Clear Kids SPF 50 Plus; Coppertone Wet and Clear SPF 50 Plus; Coppertone Wet n Clear Kids SPF 45plus; Coppertone Wet n Clear SPF 30; Coppertone Wet n Clear SPF 45plus; Coppertone Wet'n Clear Sunscreen Continuous Spray SPF 30; Coppertone Wet'n Clear Sunscreen Continuous Spray SPF 50; Coppertone kids SPF 50; Coppertone kids SPF 70 Plus; Coppertone kids SPF 75 Plus; Coppertone oil free Foaming Sunscreen SPF 75 Plus; Coppertone oil free SPF 30; Coppertone oil free faces SPF 15; Coppertone oil free faces Sunscreen SPF 30; Coppertone ultraGUARD SPF 15; Coppertone ultraGUARD SPF 30; Coppertone ultraGUARD SPF 50; Coppertone ultraGUARD SPF 90 plus; Coppertone ultraGUARD Sunscreen SPF 100 Plus; Coppertone ultraGUARD Sunscreen SPF 100plus; Coppertone ultraguard; Coppertone water BABIES SPF 70 plus; Coppertone waterBABIES Pure and Simple Free SPF 50; Coppertone waterBABIES Pure and Simple SPF 50; Coppertone waterBABIES Sunscreen SPF 50; Coppertone wet n clear SPF 30; CorTex SunX 50 Thick; CoreTex Professional Outdoor Skin Protection Wallet; CoreTex Sun X 50; CoreTex Sun X SPF 30; CoreTex Sun X SPF 30 Multipack New; CoreTex Sun X SPF 30 New; CoreTex Sun X SPF 30 Thin; Correction Code (A.M.) Daily Moisturizer Broad Spectrum SPF 25; Correway Sunscreen (Non-waterproof); Cosmedix SPF50; Cosmopolitan SPF 15 Broad Spectrum Lip Balm; Cosrx; Cover FX Clear Cover Invisible Sunscreen Broad Spectrum SPF 30; Cover Fx Protection Primer SPF 30; Cover Fx SPF 30 Booster Drops Broad Spectrum Sunscreen; Cover Fx Total Cover Foundation SPF 30; Cover Me Sunscreen; Cover Tint SPF 20 - Dark; Cover Tint SPF 20 - Light; Cover Tint SPF 20 - Medium; Cranberry Orange SPF 15 Broad Spectrum Lip Balm; Creal Zink Sunscreen SPF 50 Well at Walgreens; Crema Nera Extrema SPF 14; Creme De Corps Light-weight Body Lotion; Creme De Jour Au Retinol; Creme De Jour Multi-action SPF 7; Creme Fondante SPF 15; Creme Protectrice Anti-rides / Age Defying Protecting Cream SPF 10; Creme Solaire Bronzage Rapide Special Peaux Mates SPF 10; Creme Solaire Bronzage Securite SPF 15; Creme Solaire Bronzage Securite SPF 20; Creme Solaire Fondante Protection Minimale 10 SPF; Creme Solaire Fps 15; Creme Solaire Haute Protection Special Enfants Et Peaux Reactives Au Soleil SPF 30; Cremo All-Season Lip Balm SPF 25 Vanilla Mint; Cremo Sunscreen; Crescent White Uv Protector Broad Spectrum SPF 50; Croc Bloc Broad Spectrum SPF 30 FPS Ecran Solaire; Croc Bloc Broad Spectrum SPF 50 Fps Ecran Solaire; Croc Bloc SPF 30 Fps Ecran Solaire; Cross-terrain SPF 50; Ct SPF 20; Cucumber Agave Sparkling Water SPF 15 Broad Spectrum Lip Balm; Cvs Dry Skin Therapy With SPF 15; Cvs Oil Free SPF 15; Cvs Pharmacy Calming Daily Moisturizer; Cvs Pharmacy Illuminating; Cyantific Protecting Daily Broad Spectrum SPF 30; Cyber White Brilliant Cells Full Spectrum Brightening Uv Protector SPF 50; Cyberwhite EX Extra Intensive Bb Creme Multi Action Formula Spf35; Cyberwhite Hd Bb Advanced Brightening Broad Spectrum SPF 50; Cyberwhite Hd Uv Protector Broad Spectrum SPF 50; Cyzone SUN BY ME Sunblock SPF 50; Cyzone Sun By Me; Cyzone Sun By Me Face Screen Fps 50 Amplio Espectro; D-one By Tamdoan Bb Light; D-one By Tamdoan Bb Medium; D-one By Tamdoan Sunscreen 50; DAILY DEFENCE SUNSCREEN Broad Spectrum SPF30; DAYWEAR ADVANCED MULTI-PROTECTION ANTI-OXIDANT oil-free BROAD SPECTRUM SPF 25; DDF Advanced Moisture Defense Broad Spectrum SPF 15; DDF Advanced Moisture Defense UV SPF 15; DDF Daily Protective Moisturizer Broad Spectrum SPF 15; DDF Daily Protective Moisturizer SPF 15; DDF Daily Protective SPF 15; DDF Mattifying Moisturizer Broad Spectrum SPF 15; DDF Mattifying Oil Control UV Moisturizer SPF 15; DDF Protect and Correct UV Moisturizer Broad Spectrum SPF 15; DDF Protect and Correct UV Moisturizer SPF 15; DDF Protective Eye Broad Spectrum SPF 15; DDF Protective Eye SPF 15; DDF Ultra-Lite Moisturizing Dew Broad Spectrum SPF 15; DDF Ultra-Lite Oil-Free Moisturizing Dew UV Moisturizer SPF 15; DDF Weightless Defense Hydrator Broad Spectrum SPF 45; DEAD SEA ESSENTIALS ALGAE Smoothing and Protecting Day Broad Spectrum SPF 20; DEARSIR UV Ultra Protection Sun; DEET FREE BULLFROG Mosquito Coast Sunscreen with Insect Repellent SPF 30; DEOPROCE UV WATERFUL CUSHION NO 13 Light Beige; DEOPROCE UV WATERFUL CUSHION NO 21 Natural Beige; DEOPROCE UV WATERFUL CUSHION NO 23 Sand Beige; DIY Booster SPF 30 Facial Serum Unscented; DOCTOR WHITE Advanced Radiance UV Shield SPF 50; DONGINBI Red Ginseng Moisturizing Sun; DONGINBI Red Ginseng Perfect Sun; DR. ANDREW WEIL FOR ORIGINS MEGA-BRIGHT SPF 30 SKIN TONE CORRECTING oil FREE MOISTURIZER BROAD SPECTRUM SPF 30; DRH Intensive Sun Block; DT Collagen; DTRT Get Ready BB SPF 50; Daily Anti-Aging Moisturizer Broad Spectrum SPF30 Sunscreen UVA-UVB Sunscreen with SolSci-X; Daily Anti-wrinkle Moisturizer; Daily Anti-wrinkle Moisturizing Lotion; Daily Defense; Daily Defense Antioxidant Day Broad Spectrum SPF 30; Daily Defense Broad Spectrum SPF 15; Daily Defense Broad Spectrum SPF 30; Daily Defense Broad Spectrum SPF 50; Daily Defense SPF 15; Daily Defense SPF 30; Daily Defense SPF 50; Daily Defense Sunscreen; Daily Defense Sunscreen Broad Spectrum SPF15; Daily Deflector Mineral Sunscreen SPF 40; Daily Deflector Moisturizer SPF 50; Daily Dose Hydra-Ceramide Boost Broad Spectrum Sunscreen SPF 40; Daily Dose Vitamin C and Broad Spectrum SPF 40 Serum; Daily Driver Sunscreen Broad Spectrum SPF 30; Daily Essential Moisturiser; Daily Face Protectant SPF 30; Daily Facial Moisturizer; Daily Moisturizer; Daily Moisturizer Broad Spectrum SPF 30; Daily Moisturizer Broad-Spectrum SPF 30; Daily Moisturizing Antioxidant SPF 50; Daily Moisturizing Cream SPF 15; Daily Moisturizing Lotion SPF 15; Daily Moisturizing SPF 15; Daily Offense SPF 30; Daily Protect Sunscreen Moisturizer Broad Spectrum SPF 30; Daily Protection Moisturizing Body Lotion (SPF 15); Daily Protection Moisturizing Face Lotion (SPF 30); Daily Radiance Moisturizing Lotion With SPF 15; Daily SPF 15; Daily SPF 30; Daily SPF30; Daily Sheer Broad-spectrum Sunscreen SPF 50; Daily Shield Broad Spectrum SPF 20 Moisturizer; Daily Wear SPF 20; Dailyscreen; Dal Cara Tone Up Sun Base; Damage Control Water Resistant Sunscreen SPF 30; Dark Skin Defense Concealer Broad Spectrum SPF 15 Jafra; Dark spot corrector; Darphin Cc Cream Instant Multi-benefit Care SPF 35; Darphin Cc Instant Multi-benefit Care Broad Spectrum SPF 35; Dawn Patrol Classic Makeup Primer SPF 30 Broad Spectrum; Day Care for Hands Broad Spectrum SPF 15 Jafra; Day Cream SPF 30; Day Defense Treatment SPF 15; Day Face SPF 15; Day Facial Moisturizer With SPF 15; Day Hydrator SPF-15; Day L; Day Lotion SPF 15; Day Moisturizer Broad Spectrum SPF 30 With Skin Firming Retinol; Day Protection SPF 30; Day Renewal Moisturizing Complex With SPF 20; Day Wear Advanced Multi-protection Anti-oxidant and Uv Defense Broad Spectrum SPF 30; Day in the sun kit; Daydream Cushion Cloud Dream; Daydream Cushion Gentle Light; Daydream Cushion Magic Dream; Daydream Cushion Summer Hue; Daydream Cushion Sweet Secret; Daydream Cushion Warm Dusk; Daywear Advanced Multi-protection Antioxidant Creme SPF 15 for Dry Skin; Daywear Advanced Multi-protection Antioxidant SPF 15 Oily Skin; Daywear Advanced Multiprotection Antioxidant Creme SPF 15 for Normal Combination Skin; Daywear Anti Oxidant 72h-hydration Sorbet Creme Broad Spectrum SPF 15; Daywear Bb Anti Oxidant Beauty Benefit Broad Spectrum SPF 35; Daywear Multi-protection Antii-oxidant 24h-moisture Creme Broad Spectrum SPF 15 Normal/combination Skin; Daywear Plus Multi Protection Tinted Moisturizer SPF 15; Daywear Sheer Tint Release Advanced Multi-protection Anti-oxidant Moisturizer SPF 15; Dct; Dd TZ Forte; Ddf Advanced Moisture Defense Uv Cream SPF 15; Ddf Daily Protective Moisturizer Uv Moisturizer SPF 15; Ddf Mattifying Oil-control Uv Moisturizer SPF 15; Ddf Protective Eye Cream Uv Moisturizer SPF 15; Ddf Ultra Lite Oil Free Moisturizing Dew Uv Moisturizer; Ddf Ultra-lite Oil-free Moisturizing Dew Uv Moisturizer SPF 45; De-Aging Moisturizing Day Creme With Sunscreen SPF 20; Dead Down Wind Sunscreen; Dead Sea Natural Face Moisturizer Broad Spectrum SPF 20; Dearderm Daily Mositure Sunscreen; Deb Sunprotect SPF 33; Deep Moisture; Deep Renewal Broad Spectrum; Deep Wrinkle Moisture; Defend Hydrating Broad Spectrum SPF 15; Defend and Care Hydrate SPF50; Defend and Restore Moisture CRÃ¨me; Defend and Restore Moisture Lotion; Defense Refresh (Re)Setting Mist SPF 40; Defense Refresh Setting Mist Broad Spectrum Sunscreen SPF 50 Supergoop; Defense Refresh Settingh Mist Broad Spectrum Sunscreen SPF 50 Supergoop; Defense Uv; Defense Zone Broad Spectrum SPF 30 Sunscreen; Defense Zone C/S Broad Spectrum SPF 30; Defense Zone Kids Broad Spectrum SPF 50 Sunscreen; Defense Zone Kids C/S Broad Spectrum SPF 50; Defense Zone Sport Broad Spectrum SPF 30 Sunscreen; Defense Zone Sport Broad Spectrum SPF 50 Sunscreen; Defense Zone Sport C/S Broad Spectrum SPF 30; Defense Zone Sport C/S Broad Spectrum SPF 50; Deflect Crm; Delon Tropic High Protection Sun Spray SPF 30; Dentec Lip Balm; Dentec Lotion; Deoproce Hyaluronic Cooling Sun; Deoproce Magic Bb 21 Natural Beige; Deoproce Magic Bb 23 Sand Beige; Deoproce Snail Galac Pearl Shining Bb 21 Natural Beige; Deoproce Snail Galac Pearl Shining Bb 23 Sand Beige; Deoproce Uv Defence Sun; Derma Brilliance Sunscreen SPF 30; Derma Brite SPF 35; Derma Dr.lab Daily Mild Sun; Derma Fade; Derma Geek Nourishing Facial Moisturizer with Sunscreen Broad Spectrum SPF 30; Derma J Sun; Derma Soleil Dry Sport SPF 30; Derma Soleil Dry Sports 30 SPF; Derma Soleil Health Natural Sunblock SPF 15; Derma Soleil Health Natural Sunblock SPF 30; Derma Soleil Health Natural Sunblock SPF 45; Derma Soleil Kids Natural Sunblock SPF 30; Derma Soleil Kids Natural Sunblock SPF 45; Derma Soleil Natural Age-Free Facial Sunblock SPF 30; Derma Soleil Natural Age-free Facial Sunblock SPF 30; Derma Soleil Natural Sunblock SPF 15; Derma Soleil Natural Sunblock SPF 30; Derma Soleil Natural Sunblock SPF 45; Derma White City Block Anti-pollution Spf40; Derma-E All Sport Performance Sunscreen SPF 50; Derma-E All sport Performance Face Sunscreen SPF 30; Derma-E Kids Active Sunscreen SPF 50; Derma-E Sensitive 3-in-1 sunscreen SPF 30; Dermablend Professional CC Continuous Correction Full Coverage Makeup Broad Spectrum SPF 50 Plus Sunscreen; Dermablend Professional Leg and Body Makeup Broad Spectrum SPF 25 Sunscreen; Dermablend Professional SkinPerfector Redness Reducing Primer Sunscreen; DermacinRx Skin Moisturizing Ultra SPF 50 Sunscreen; Dermafirm Sunblock; Dermajetics Lip Colour SPF 12; Dermalogica Day Bright; Dermalogica Dynamic Skin Recovery SPF 50; Dermalogica Full Spectrum Block SPF 15; Dermalogica Solar Defense Booster SPF 30; Dermatone Sunscreen SPF 30; Dermatouch Hydrating Clear Moisutrizer SPF 25; Dermisa SUNSCREEN SPF 55 BROAD SPECTRUM; Dermoessential Sun Mist; Dermoessential Sun Rescue; Desert Bambu Facial Sunscreen SPF 30; Desert Bambu Lip Balm SPF 15; Desert Bambu Tanning SPF 15; Desert Fusion Nutritious Olive Leaf Daily Defense Broad Spectrum SPF 15 Sunscreen; Desert Spirit Sunscreen; Deserving Health Natural Age-Free Facial Sunblock; Deserving Health Natural Age-Free Facial Sunblock 30 SPF; Deserving Health Natural Sunblock; Destination Brands International BROAD SPECTRUM SPF 50 Sunscreen; Dew Good Illuminating Serum; Dfndr Sunscreen SPF 30; Dfndr Sunscreen SPF 50; Diamond Radiance Rejuvenating Cream SPF 15; Diane Von Furstenberg Skin Tint / Fluide De Teint (honey, Myrrh,cinnamon); Diane Von Furstenberg Skin Tint /fluide De Teint (ivory, Nectar, Alabaster); Differin Oil Absorbing Moisturizer SPF 30; Differin Oil Control Moisturizer SPF 30; Disney Baby Einstein SPF 45 Lotion; Disney Pirates Of The Caribbean SPF 30 Continuous Spray No Pumping Needed; Disney SPF 30 Continuous Spray No Pumping Needed Fairies; Disney Sun Pals SPF 30 Continuous Spray No Pumping Needed Nemo; Disney Sun Pals SPF 30 Sun Protection Spray; Disney Sun Pals SPF 45 Lotion Mermaid; Disney Sun Pals SPF 45 Lotion Nemo; Disney Sun Pals SPF 45 Lotion Pooh Bear; Do The Right Thing Smoothing Body Lotion SPF 15; Doc Block Body Essential Sunscreen Broad Spectrum SPF30; Doc Block Daily Sunscreen Broad Spectrum SPF55; Dollar General Studio Selection Sun Sunscreen Broad Spectrum SPF 70; Dollar General Studio Selection Sun Sunscreen Broad Spectrum SPF 85 with Aloe; Dollar General Studio Selection Sun Tanning Dry Oil Broad Spectrum SPF 15 Sunscreen; Donginbi Red Ginseng Radiance Cushion Bb 21; Donginbi Red Ginseng Radiance Cushion Bb 23; Donna Karan Cashmere Mist Hand Conditioning Creme SPF 15; Donna Karan Soothing Lip Balm SPF 15; Dormer 211 SPF 30; Double Duty Face Protector SPF 15 Jafra; Double Wear All Day Glow Bb Moisture Makeup Broad Spectrum SPF 30; Dove DermaSeries Dry Skin Relief Replenishing Face Cream SPF 15; Dove Dermaseries Dry Skin Relief Face Cream; Dove Face Day Cream; Dove Face Day Lotion; Dove Men plus Care Hydrate Face; Dove Men plus Care Hydrate Face SPF 15; Dove Men plus Care Sensitive Face; Dove Men+care Face Lotion; Dove Men+care Face Lotion Hydrate+; Dpc Pink Aura Cushion No.21; Dpc Pink Aura Cushion No.23; Dr LeE UV ICE SHIELD; Dr MEDECEAN Rising Sun Cover; Dr Nikko Sheer Sunscreen; Dr. Andrew Weil for Origins Mega-bright SPF 30 Skin Tone Correcting Oil-free Moisturizer; Dr. Evans Oil-Free DEFENSE DAY TINTED MOISTURIZER SPF 55; Dr. Jart BB Get Ready; Dr. Jart Smart BB 01; Dr. Jart Smart BB 02; Dr. Jart Water Fuse Beauty Balm; Dr. Nikko Sheer Sunscreen Broad Spectrum SPF 40; Dr. Throwers SPF 30 Face and Body Sunscreen; Dr.Althea Double Serum Balm Foundation 23; Dr.G Brightening Up Sun; Dr.G Brightening Up Sun Stick; Dr.G DEEP MOIST UP SUN; Dr.G Water Proof Up Sun; Dr.Jart Black Label Detox Beauty Balm; Dr.Jart CC Essence Balm 01 Light - Medium; Dr.Jart CC Essence Balm 02 Medium - Deep; Dr.Jart Ceramidin Day Tint; Dr.Jart Dis-A-Pore Beauty Balm 01; Dr.Jart Dis-A-Pore Beauty Balm 02; Dr.Jart Every Sun Day Illuminating Sunscreen SPF 36; Dr.Jart Every Sun Day Sun Fluid; Dr.Jart Every Sun Day Sun Fluid SPF 30; Dr.Jart Every Sun Day Sunscreen SPF 50; Dr.Jart Premium Beauty Balm 01 Light medium; Dr.Jart Premium Beauty Balm 02 Medium deep; Dr.Jart Premium Beauty Balm 03 Deep; Dr.Jart Premium Beauty Balm Deep Tan-Deep; Dr.Jart Premium Beauty Balm Fair-Light; Dr.Jart Premium Beauty Balm Light Medium-Medium; Dr.Jart Premium Beauty Balm Medium-Tan; Dr.Jart Premuim Beauty Balm 03 Deep; Dr.Jucre Rebirth White Sun Protection; Dr.althea Aurora Cover Cushion 21; Dr.jart Every Sun Day Sun Fluid; Dream Urban Cover; Drive Sunscreen SPF 50; Dry Balance Sunscreen Lotion SPF 50+; Dry Balance Sunscreen Spray SPF 50+; Dry Oil Sunscreen; Dry-touch Sunscreen SPF 45; Dual Spectrum SPF 30; Duane Reade Baby SunscreenSPF 50 SPF 50; Duane Reade Oil Free Sunscreen SPF 30; Duane Reade Prevail Moisturizing Sunscreen SPF 80; Duane Reade Sport Sunscreen SPF 50; Duane Reade Sports Sunscreen SPF 30; Duane Reade Sports Sunscreen SPF 50; Duane Reade Sunscreen SPF 30; Duane Reade Sunscreen SPF 50; Duane Reade Sunscreen SPF 70; Duke Cannon Standard Issue Face; Duo Defence Sunscreen Lotion SPF 30; Duo Defence Sunscreen Lotion SPF 50+; Durascreen SPF 15-lot; Durascreen SPF 30; Dynamic Defence Concentrate Anti-Ageing Day SPF 15; Dynamic Skin Recovery SPF 30; Dynamic Skin Recovery SPF30; Dynamic Skin SPF 30; DÃ©fense Plein Soleil; DÃ©licieuse CRÃ¨me De Jour Ã LA PÃªche; EAD Kids; EB5 Ultra Light Face SPF 15; ECO EARTH POWER Aqua Sun; ECO EARTH POWER Light Sun; ECO SOUL Essence Cushion Matt Longwear 23; EIGHT SAINTS Chase The Sun SPF-30; ELF Beautifully Bare Foundation Serum Dark Deep With Goji Berry SPF 25; ELF Beautifully Bare Foundation Serum Deep With Goji Berry SPF 25; ELF Beauty Shield SPF 50 Skin Shielding Moisturizer; ELF Broad Spectrum SPF 20 Sunscreen BB Cream Beige; ELF Broad Spectrum SPF 20 Sunscreen BB Cream Buff; ELF Broad Spectrum SPF 20 Sunscreen BB Cream Dark; ELF Broad Spectrum SPF 20 Sunscreen BB Cream Fair; ELF Broad Spectrum SPF 20 Sunscreen BB Cream Medium; ELF Broad Spectrum SPF 20 Sunscreen BB Cream Nude; ELF Broad Spectrum SPF 20 Sunscreen Beige BB Cream; ELF Broad Spectrum SPF 20 Sunscreen Buff BB Cream; ELF Broad Spectrum SPF 20 Sunscreen Dark BB Cream; ELF Broad Spectrum SPF 20 Sunscreen Fair BB Cream; ELF Broad Spectrum SPF 20 Sunscreen Nude BB Cream; ELF Clear SPF 20 Sunscreen Face Primer; ELF Daily Hydration Moisturizer SPF 15; ELF Flawless Finish Foundation Oil Free SPF 15 Sunscreen Alabaster; ELF Flawless Finish Foundation Oil Free SPF 15 Sunscreen Light Ivory; ELF Oil free flawless Finish SPF 15 Sunscreen Foundation Almond; ELF Oil free flawless Finish SPF 15 Sunscreen Foundation Buff; ELF Oil free flawless Finish SPF 15 Sunscreen Foundation Caramel; ELF Oil free flawless Finish SPF 15 Sunscreen Foundation Coco; ELF Oil free flawless Finish SPF 15 Sunscreen Foundation Porcelain; ELF Oil free flawless Finish SPF 15 Sunscreen Foundation Sand; ELF SPF 20 Sunscreen Face Primer Clear; ELF SPF 20 Sunscreen UVA/UVB Tinted Moisturizer Almond; ELF SPF 20 Sunscreen UVA/UVB Tinted Moisturizer Beige; ELF SPF 20 Sunscreen UVA/UVB Tinted Moisturizer Espresso; ELF SPF 20 Sunscreen UVA/UVB Tinted Moisturizer Ivory; ELF SPF 20 Sunscreen UVA/UVB Tinted Moisturizer Mocha; ELF SPF 20 Sunscreen UVA/UVB Tinted Moisturizer Nude; ELF SPF 20 Sunscreen UVA/UVB Tinted Moisturizer Porcelain; ELF SPF 20 Sunscreen UVA/UVB Tinted Moisturizer Sand; ELF SPF 20 Sunscreen UVAUVB Tinted Moisturizer Nude; EQUATE Tanning Sunscreen Dry oil UVB Protection SPF10; ERBORIAN DOUBLE SAMPLE CC CREME CLAIR and DORE SPF 25; ESIKA Perfect Sun Kids; ESMIA BB Beige 23; ESMIA BB Buff 25; ESMIA BB Caramel 31; ESMIA BB Light Beige 21; ESMIA BB Natural Beige 27; ESSENTIALS Face and Body Sunscreen; ESTEE LAUDER MULTI-DEFENSE AQUA UV gel BROAD SPECTRUM SPF 50; EUNYUL Daily Care Fresh Sunscreen; EVEN TONE and RADIANCE CC Color Correction Skin Protection SPF30; EVERYDAY SUNSCREEN SPF 50 with Sunflower Extract; EXTRASHADE Daily Defense Hydrating Sunscreen SPF 30; EXTREME AHAVA Extreme Daily Firmness And Protection Broad Spectrum SPF30; Ead; Earth Long Wear Makeup Broad Spectrum SPF 20; Easy Block Spray Lotion SPF 30+; Easydew Daily Baby Care Sun; Easydew Daily Fresh Mild Sun; Easydew Daily Fresh Mild Sun SPF50 Plus; Easydew Daily Water Proof Sun; Easydew EX Fresh Mild SunScreen SPF50 PLUS PA PLUS PLUS PLUS; Eau Thermale Avene Hydrating Sunscreen SPF 50; Eau Thermale Avene Ultra-Light Hydrating Sunscreen SPF 50; Eco Earth Power Aqua Sun; Eco Earth Power Clear Sun; Eco Earth Power Face and Body Waterproof Sun Block; Eco Earth Power Light Sun; Eco Earth Power No Sebum Sun; Eco Earth Power Perfection Waterproof Sun Block; Eco Earth Power Pink Sun; Eco Lips Lip Balm SPF 30; Eco Lips PlantPod Sunscreen Lip Balm Berry SPF 15; Eco Lips PlantPod Sunscreen Lip Balm Mint SPF 15; Eco Lips PlantPod Sunscreen Lip Balm Sport SPF 30; Eco Lips Sport Lip Balm SPF 30; Eco SPF30 Sun Stick; Eco Soul Bounce Crea m Foundation 01 Light Beige; Eco Soul Bounce Crea m Foundation 02 Natural Beige; Eco Soul Essence Cushion All Cover 13; Eco Soul Essence Cushion All Cover 17; Eco Soul Essence Cushion All Cover 21; Eco Soul Essence Cushion All Cover 23; Eco Soul Essence Cushion Aqua Max 21; Eco Soul Essence Cushion Aqua Max 23; Eco Soul Essence Cushion Moisture Lasting 13; Eco Soul Essence Cushion Moisture Lasting 17; Eco Soul Essence Cushion Moisture Lasting 21; Eco Soul Essence Cushion Moisture Lasting 23; Eco Soul Power Proof Cooling BB Cushion 01 Aqua Beige; Eco Soul Power Proof Cooling BB Cushion 02 Neutral Beige; Eco Soul Real Cover BB 21 Light Beige; Eco Soul Real Cover BB 23 Natural Beige; Eco Soul Real Fit Makeup Base 01 Green; Eco Soul Real Fit Makeup Base 02 Lavender; Eco Soul Spau BB 01 Light Beige; Eco Soul Spau BB 02 Natural Beige; Eco Soul Spau BB Cake 01 Light Beige; Eco Soul Spau BB Cake 02 Natural Beige; Eco Soul Spau BB Cushion 01 Light Beige; Eco Soul Spau BB Cushion 02 Natural Beige; Eco Soul Tone Up CC 01 Vital Tone; Eco Soul Tone Up CC 02 Natural Tone; Eco Soul Tone Up CC 03 Clear Bright; Eco-designed Uv Lotion; Ecoglam Sun Sti Ck Plus; Ecran Soleil; Edelweiss Pure Sun; Effaclar Duo (+) SPF 30; Egf Fgf Dna Uv Shield; Egf Uv Shield; Eight Hour Cream Sun Defense for Face SPF 50 Sunscreen; Elastology Age Blocker; Elastology Age Blocker Moisturizer and SPF 30 Sunscreen; Elastology Age Blocker SPF 25; Elements Anti Aging Vitamin Complex 7 In 1; Elf Bb SPF-20; Elf Tinted Moisturizer SPF-20; Elizabeth Arden Ceramide Plump Perfect Lip Moisture Cream-spf30; Elizabeth Arden Ceramide Plump Perfect Moisture Cream - SPF 15; Elizabeth Arden First Defense Protective Cream; Elizabeth Arden First Defense Protective Lotion; Elizabeth Arden Moisture Shield SPF 15; Elizabeth Arden Pure Finish Mineral Tinted Moisture Cream SPF 15; Elizabeth Arden, Great 8, Moisturizer SPF 35; Elta Block SPF 30 Waterproof; Elta Block SPF 32; EltaMD UV Sport SPF 50; EltaMD UV Sport SPF50; Eltamd Skincare Uv Lotion SPF 30; Eltamd Skincare Uv Sport SPF 50; Emerita Day Face Cream SPF 15; Ener-C Moisturizing Lotion SPF 30; Enesti UV-Cut Sunblock; Enfuselle Lip Treatment SPF 15 Broad Spectrum; Enfuselle Time Repair A.M. SPF15; Enhancement Series (Blistex Deep Renewal Broad Spectrum, Blistex Moisture Revitalizer, Blistex Soft and Lush); Enhancement Series (Blistex Soft and Lush, Blistex Deep Renewal, Blistex Ultra-Rich Hydration); Enlighten Ee Even Effect Skin Tone Corrector SPF Broad Spectrum SPF 30; Environmental Defense Sunscreen SPF 50; Epionce Active Shield; Epionce Active Shield SPF 30; Epionce Skin Barrier Repair Kit; Epionce Ultra Shield; Epl Daily Sun Block; Equaline All Day Moisturizer; Equaline Kids Continuous Sunscreen SPF 50; Equaline Kids SPF 50; Equaline Sport Sunscreen Continuous SPF 30; Equaline Sport Sunscreen SPF 30; Equate; Equate Baby Sunscreen; Equate Baby Sunscreen Lotion SPF/fps 60; Equate Beauty Daily Moisturizer SPF-30 Sunscreen; Equate Beauty Hydro Sunscreen SPF 50; Equate Beauty Ultra Light SPF 100; Equate Beauty Ultra Light Sunscreen SPF 70; Equate Beauty Ultra Light Sunscreen SPF70 Broad spectrum; Equate Kids Sunscreen Lotion SPF/fps 60; Equate SPF 50 Sport Sunscreen; Equate SPF 50 Ultra Sunscreen; Equate SPF 50 Ultra Sunscreen Continuous; Equate SPF 70 Ultra Sunscreen; Equate SUNSCREEN spf 50 SPORT broadspectrum; Equate Sport Sunscreen Continous Spray SPF/fps 15; Equate Sport Sunscreen Continuous Spray SPF/fps 60; Equate Sport Sunscreen Continuous Spray SPF/fps30; Equate Sport Sunscreen Lotion SPF/fps 30; Equate Sport Sunscreen Lotion SPF/fps 60; Equate Sunscreen Continuous Spray SPF/fps 15; Equate Sunscreen KIDS SPF50 Broad Spectrum; Equate Sunscreen Lotion SPF/fps 30; Equate Sunscreen Lotion SPF/fps 4; Equate Sunscreen SPF 30 SPORT Broad Spectrum; Equate Sunscreen SPF 50 BABY Broad Spectrum; Equate Sunscreen SPF 50 SPORT Broad Spectrum; Equate Sunscreen SPF 70 SPORT Broad spectrum; Equate Sunscreen SPF100 SPORT Broad Spectrum; Equate Sunscreen SPF70 ULTRA Broad spectrum; Equate Sunscreen SPORT SPF 100; Equate Ultra Light Sunscreen MIST SPF70; Equate beauty road Spectrum SPF30; Equate beauty ultra light Suncreen SPF 55; Equate-Sunscreen Broad Spectrum SPF 50 ULTRA; Erborian - Cc Creme High Definition SPF 25; Erborian - Cc Creme High Definition Spf25 Clair; Erborian BB creme au Ginseng chocolate SPF 20; Erborian CC Dull Correct SPF25; Erborian Cc Creme High Definition SPF 25 Caramel; Erborian Cc Red Correct SPF 25; Erno Laszlo R.E.M. SPF 30; Erno Laszlo Solar Exchange Sun Balm SPF 25; Eshu Skin Assist SPF 30 Moisturising Sunscreen; Esika Perfect Sun; Esika Protector Against Solar Rays for Children, Face and Body SPF 50; Esmia Bb Sun Beige 29; Essence Air Cushion Light; Essence Air Cushion Medium; Essence Air Cushion Medium Deep; Essence Air Cushion Medium Light; Essential Defense Active Broad Spectrum SPF 50 Sunscreen; Essential Defense Vital Hydration Broad Spectrum SPF 36 Sunscreen Tinted; Essential-C Day Moisture Broad Spectrum SPF 30 Pa+++; Estee Lauder Advanced Time Zone Age Reversing Line/wrinkle Creme Oil-free SPF 15 for Normal/combination Skin; Estee Lauder Advanced Time Zone Age Reversing Line/wrinkle Creme SPF 15 for Dry Skin; Estee Lauder Advanced Time Zone Age Reversing Line/wrinkle Creme SPF 15 for Normal/combination Skin; Estee Lauder Amber Bronze Lip Gloss Balm SPF 15; Estee Lauder Body Shimmer Sunscreen SPF 15; Estee Lauder Clear Difference Bb Complexion Perfecting Bb CRÃ¨me SPF 35; Estee Lauder Daywear 72h-hydration Sorbet Creme CRÃ¨me Sorbet Hydratation 72h SPF/fps 15; Estee Lauder Daywear Advanced Multi-protection Lotion SPF 15 for Oily Skin; Estee Lauder Daywear Advanced Multi-protection Uv Defense SPF 50; Estee Lauder Daywear B.b Multi-perfecting Beauty Benefit CRÃ¨me SPF 35; Estee Lauder Daywear Multi-protection 24h-moisture Creme Oil-free SPF 25; Estee Lauder Daywear Multi-protection 24h-moisture Creme SPF 15 for Dry Skin; Estee Lauder Daywear Multi-protection 24h-moisture Creme SPF 15 for Normal/ Combination Skin; Estee Lauder Daywear Multi-protection Sheer Tint Release Moisturizer SPF 15 All Skintypes; Estee Lauder Daywear Plus Multi Protection Tinted Moisturizer SPF 15; Estee Lauder Daywear Plus Multiprotection Creme SPF 15 for Dry Skin; Estee Lauder Daywear Plus Multiprotection Creme SPF 15 for Normal/combination Skin; Estee Lauder Daywear Sheer Tint Release Advanced Multi-protection Moisturizer SPF 15; Estee Lauder Double Wear All-day Glow Bb Moisture Makeup SPF 30; Estee Lauder Enlighten Ee Even Effect Skintone Corrector SPF 30; Estee Lauder Fast Tan Quick-dry Sunless Spray SPF 15; Estee Lauder Genuine Glow Priming Moisture Balm SPF 15; Estee Lauder Hydra Bright Skin-tone Perfecting Moisturizer SPF 15; Estee Lauder Hydrationist Maximum Moisture Creme SPF 15; Estee Lauder Lightsource Time-resisting Moisture Creme SPF 15; Estee Lauder Lightsource Time-resisting Moisture Lotion SPF 15; Estee Lauder Re-nutriv Intensive Lifting Hand Creme SPF 15; Estee Lauder Resilience Lift Extreme Ultra Firming Creme SPF 15 Normal/combination Skin; Estee Lauder Resilience Lift Face and Throat Creme SPF 15; Estee Lauder Resilience Lift Firming/sculpting Face and Neck Creme Oil-free SPF 15 for Normal/combination Skin; Estee Lauder Resilience Lift Firming/sculpting Face and Neck Creme SPF 15 for Dry Skin; Estee Lauder Resilience Lift Firming/sculpting Face and Neck Creme SPF 15 for Normal/combination Skin; Estee Lauder Resilience Multi-effect Tri-peptide Face and Neck Creme CRÃ¨me Tri-peptide Visage Et Cou SPF/fps 15 Dry Skin Peaux SÃ¨ches; Estee Lauder Revitalizing Supreme+ Global Anti-aging Creme SPF 15; Estee Lauder Shimmering Shield for Lips and Face Sunscreen SPF 30; Estee Lauder Sun Performance SPF 30 Sunscreen Sun Care Multi-protection Sun Lotion for Body; Estee Lauder Sun Performance SPF 30 Sunscreen Sun Care Multi-protection Sun Lotion for Face; Estee Lauder Time Zone Line and Wrinkle Reducing Creme SPF 15 for Dry Skin; Estee Lauder Time Zone Line and Wrinkle Reducing Creme SPF 15 for Normal/combination Skin; Estee Lauder Time Zone Line and Wrinkle Reducing Lotion SPF 15; Estro-Lift Day Therapy; Estro-Lift Day Therapy Moisturizer and SPF 30 Sunscreen; EstÃ©e Lauder Resilience Multi-effect Tri-peptide Face and Neck Creme CRÃ¨me Tri-peptide Visage Et Cou SPF/fps 15; Eternal Spirit Beauty SPF 50Sunscreen; Eucerin; Eucerin Advance Hydration Sunscreen SPF 30; Eucerin Advanced Hydration SPF 50 Sunscreen; Eucerin Advanced Hydration Sunscreen SPF 50; Eucerin Age Defense; Eucerin Age Defense SPF 50 Sunscreen; Eucerin Complete Hydration Lotion; Eucerin Complete Hydration Spray; Eucerin Daily Hydration; Eucerin Daily Hydration Hand; Eucerin Daily Protection Body; Eucerin Daily Protection Face; Eucerin Everyday Protection Face; Eucerin Oil Control; Eucerin Oil-Control SPF 50 Sunscreen; Eucerin Q10 Anti-Wrinkle Sensitive Skin; Eucerin Redness Relief Daily Perfecting; Eve Lom Daily Protection Broad Spectrum SPF 50 Sunscreen; Eve Lom Flawless Radiance Primer Broad Spectrum SPF 30 Sunscreen; Even Better Dark Spot Correcting Broad Spectrum SPF 15; Even Better Skin Tone Correcting Moisturizer Broad Spectrum SPF 20; Even Better Skin Tone Correcting Mosturizer SPF 20; Even Tone Daily Moisturizer; Even and Bright Moisturizer SPF15; Every Man Jack Broad Spectrum SPF 30; Every Man Jack SPF 30 Sunscreen; Every Man Jack Sun Protection SPF 30 UVA and UVB; Every. Single. Face. Watery SPF 50; Everyday Face and body Broad Spectrum SPF 30 Supergoop; Everyday Nourishing Broad Spectrum SPF30 Sunscreen UVA-UVB Suncreen; Everyday Sunscreen Broad Spectrum SPF 30 Supergoop; Everyday Sunscreen Broad Spectrum SPF 50 Supergoop; Everyday Sunscreen SPF 50; Everyday Sunscreen SPF 50 Supergoop; Everyday Sunscreen with Sunflower Extract Broad Spectrum SPF 30; Everyday Superstars SPF Discovery Kit; Everyday Uv Protector Sun Screen; Everyman Jack Broad Spectrum SPF 50; Everyman Jack SPF 50; Exact Babies Sunscreen Lotion SPF Fps 45; Exact Babies Sunscreen Spray SPF Fps 45; Exact Clear Continuous Spray Sunscreen SPF/fps 30; Exact Cooling and Refreshing Clear Continuous Spray Sunscreen SPF/fps 45; Exact Kids Clear Continuous Spray Sunscreen SPF/fps 50; Exact Kids' Sunscreen Lotion SPF Fps 30; Exact Lip Balm Year-round Protection; Exact Sport Clear Continuous Spray Sunscreen SPF/fps 30; Exact Sunscreen Lotion SPF Fps 30; Excel SPF 30; Excel Sport SPF 50; Exchange Select Baby Sunscreen SPF 50; Exchange Select Kids SPF 50; Exchange Select Kids Sunscreen SPF 50; Exchange Select Sheer Dry Touch Sunscreen SPF 70; Exchange Select Sport Sunscreen Continuous SPF 30; Exchange Select Sport Sunscreen Continuous SPF 70; Exchange Select Sport Sunscreen SPF 15; Exchange Select Sport Sunscreen SPF 30; Exchange Select Sport Sunscreen SPF 50; Exchange Select Sunscreen SPF 30; Exchange Select Sunscreen SPF 45; Exchange Select Sunscreen SPF 50; Exchange Select Sunscreen SPF 70; Exel; Expedition BackCountry SPF 30; Exsel Sport SPF 15; Exsel Sport SPF 30; Exten-10 Instant Youth Boosting Moisturizer SPF 15; Extra Rich Day Defense SPF 30; Extreme Anti-Wrinkle Care SPF 30; Extreme Sport SPF 70; Extreme Tea SPF 15 Broad Spectrum Lip Balm; Exuviance Age Reverse Day Repair SPF 30; Exuviance Age Reverse Day Repair with Sunscreen Broad Spectrum SPF 30; Exuviance Daily Corrector with Sunsreen Broad Spectrum SPF 35; Exuviance OptiLight All-Over Dark Spot Minimizer with Sunsreen Broad Spectrum SPF 35; Exuviance Optilight All-Over Dark Spot Minimizer SPF 25; Exuviance Professional OptiLight All-Over Dark Spot Minimizer with Sunsreen Broad Spectrum SPF 35; Exuviance Professional Sheer Refining Fluid with Sunscreen Broad Spectrum SPF 40; Exuviance Sheer Refining Fluid SPF 35; FC5 Complexion Perfecting Set; FC5 Complexion Revitalizing Set; FC5 Face Normal to Dry Sample Set; FC5 Face Oily Combination Sample Set; FC5 Nurturing Day Broad Spectrum SPF 20 Sunscreen; FC5 Oil-Absorbing Day Broad Spectrum SPF 20 Sunscreen; FEVANZON Isolation Sunscreen; FEVANZON Polypeptide Revitalizing Essence Emulsion; FEVANZON Revitalizing Cream; FEVANZON Revitalizing Lady Cream; FOREVER SKIN GLOW 24h wear radiant foundation Perfection and hydration Concentrated floral skincare with suncreen Broad spectrum SPF 15 0.5N; FOREVER SKIN GLOW 24h wear radiant foundation Perfection and hydration Concentrated floral skincare with suncreen Broad spectrum SPF 15 00; FOREVER SKIN GLOW 24h wear radiant foundation Perfection and hydration Concentrated floral skincare with suncreen Broad spectrum SPF 15 0CR; FOREVER SKIN GLOW 24h wear radiant foundation Perfection and hydration Concentrated floral skincare with suncreen Broad spectrum SPF 15 0N; FOREVER SKIN GLOW 24h wear radiant foundation Perfection and hydration Concentrated floral skincare with suncreen Broad spectrum SPF 15 0W; FOREVER SKIN GLOW 24h wear radiant foundation Perfection and hydration Concentrated floral skincare with suncreen Broad spectrum SPF 15 1.5N; FOREVER SKIN GLOW 24h wear radiant foundation Perfection and hydration Concentrated floral skincare with suncreen Broad spectrum SPF 15 1.5W; FOREVER SKIN GLOW 24h wear radiant foundation Perfection and hydration Concentrated floral skincare with suncreen Broad spectrum SPF 15 1CR; FOREVER SKIN GLOW 24h wear radiant foundation Perfection and hydration Concentrated floral skincare with suncreen Broad spectrum SPF 15 1N; FOREVER SKIN GLOW 24h wear radiant foundation Perfection and hydration Concentrated floral skincare with suncreen Broad spectrum SPF 15 1W; FOREVER SKIN GLOW 24h wear radiant foundation Perfection and hydration Concentrated floral skincare with suncreen Broad spectrum SPF 15 2.5N; FOREVER SKIN GLOW 24h wear radiant foundation Perfection and hydration Concentrated floral skincare with suncreen Broad spectrum SPF 15 2.5W; FOREVER SKIN GLOW 24h wear radiant foundation Perfection and hydration Concentrated floral skincare with suncreen Broad spectrum SPF 15 2CR; FOREVER SKIN GLOW 24h wear radiant foundation Perfection and hydration Concentrated floral skincare with suncreen Broad spectrum SPF 15 2N; FOREVER SKIN GLOW 24h wear radiant foundation Perfection and hydration Concentrated floral skincare with suncreen Broad spectrum SPF 15 2W; FOREVER SKIN GLOW 24h wear radiant foundation Perfection and hydration Concentrated floral skincare with suncreen Broad spectrum SPF 15 2WO; FOREVER SKIN GLOW 24h wear radiant foundation Perfection and hydration Concentrated floral skincare with suncreen Broad spectrum SPF 15 2WP; FOREVER SKIN GLOW 24h wear radiant foundation Perfection and hydration Concentrated floral skincare with suncreen Broad spectrum SPF 15 3.5N; FOREVER SKIN GLOW 24h wear radiant foundation Perfection and hydration Concentrated floral skincare with suncreen Broad spectrum SPF 15 3C; FOREVER SKIN GLOW 24h wear radiant foundation Perfection and hydration Concentrated floral skincare with suncreen Broad spectrum SPF 15 3CR; FOREVER SKIN GLOW 24h wear radiant foundation Perfection and hydration Concentrated floral skincare with suncreen Broad spectrum SPF 15 3N; FOREVER SKIN GLOW 24h wear radiant foundation Perfection and hydration Concentrated floral skincare with suncreen Broad spectrum SPF 15 3W; FOREVER SKIN GLOW 24h wear radiant foundation Perfection and hydration Concentrated floral skincare with suncreen Broad spectrum SPF 15 3WO; FOREVER SKIN GLOW 24h wear radiant foundation Perfection and hydration Concentrated floral skincare with suncreen Broad spectrum SPF 15 3WP; FOREVER SKIN GLOW 24h wear radiant foundation Perfection and hydration Concentrated floral skincare with suncreen Broad spectrum SPF 15 4.5N; FOREVER SKIN GLOW 24h wear radiant foundation Perfection and hydration Concentrated floral skincare with suncreen Broad spectrum SPF 15 4.5W; FOREVER SKIN GLOW 24h wear radiant foundation Perfection and hydration Concentrated floral skincare with suncreen Broad spectrum SPF 15 4C; FOREVER SKIN GLOW 24h wear radiant foundation Perfection and hydration Concentrated floral skincare with suncreen Broad spectrum SPF 15 4N; FOREVER SKIN GLOW 24h wear radiant foundation Perfection and hydration Concentrated floral skincare with suncreen Broad spectrum SPF 15 4W; FOREVER SKIN GLOW 24h wear radiant foundation Perfection and hydration Concentrated floral skincare with suncreen Broad spectrum SPF 15 4WO; FOREVER SKIN GLOW 24h wear radiant foundation Perfection and hydration Concentrated floral skincare with suncreen Broad spectrum SPF 15 4WP; FOREVER SKIN GLOW 24h wear radiant foundation Perfection and hydration Concentrated floral skincare with suncreen Broad spectrum SPF 15 5N; FOREVER SKIN GLOW 24h wear radiant foundation Perfection and hydration Concentrated floral skincare with suncreen Broad spectrum SPF 15 5W; FOREVER SKIN GLOW 24h wear radiant foundation Perfection and hydration Concentrated floral skincare with suncreen Broad spectrum SPF 15 6.5N; FOREVER SKIN GLOW 24h wear radiant foundation Perfection and hydration Concentrated floral skincare with suncreen Broad spectrum SPF 15 6.5W; FOREVER SKIN GLOW 24h wear radiant foundation Perfection and hydration Concentrated floral skincare with suncreen Broad spectrum SPF 15 6N; FOREVER SKIN GLOW 24h wear radiant foundation Perfection and hydration Concentrated floral skincare with suncreen Broad spectrum SPF 15 6W; FOREVER SKIN GLOW 24h wear radiant foundation Perfection and hydration Concentrated floral skincare with suncreen Broad spectrum SPF 15 7.5N; FOREVER SKIN GLOW 24h wear radiant foundation Perfection and hydration Concentrated floral skincare with suncreen Broad spectrum SPF 15 7N; FOREVER SKIN GLOW 24h wear radiant foundation Perfection and hydration Concentrated floral skincare with suncreen Broad spectrum SPF 15 7W; FOREVER SKIN GLOW 24h wear radiant foundation Perfection and hydration Concentrated floral skincare with suncreen Broad spectrum SPF 15 8N; FOREVER SKIN GLOW 24h wear radiant foundation Perfection and hydration Concentrated floral skincare with suncreen Broad spectrum SPF 15 9N; FOREVER SKIN VEIL Extreme Wear and Moisturizing Primer Correction, Protection, Illumination With Sunscreen Floral Extract-Enriched Broad Spectrum SPF20; FOREVER Transfer-proof - 24h foundation High perfection Concentrated floral skincare with sunscreen Broad spectrum SPF 15 0.5N; FOREVER Transfer-proof - 24h foundation High perfection Concentrated floral skincare with sunscreen Broad spectrum SPF 15 00; FOREVER Transfer-proof - 24h foundation High perfection Concentrated floral skincare with sunscreen Broad spectrum SPF 15 0CR; FOREVER Transfer-proof - 24h foundation High perfection Concentrated floral skincare with sunscreen Broad spectrum SPF 15 3WO; FOREVER Transfer-proof - 24h foundation High perfection Concentrated floral skincare with sunscreen Broad spectrum SPF 15 3WP; FOREVER Transfer-proof - 24h foundation High perfection Concentrated floral skincare with sunscreen Broad spectrum SPF 15 4.5N; FOREVER Transfer-proof - 24h foundation High perfection Concentrated floral skincare with sunscreen Broad spectrum SPF 15 4.5W; FOREVER Transfer-proof - 24h foundation High perfection Concentrated floral skincare with sunscreen Broad spectrum SPF 15 4C; FOREVER Transfer-proof - 24h foundation High perfection Concentrated floral skincare with sunscreen Broad spectrum SPF 15 4N; FOREVER Transfer-proof - 24h foundation High perfection Concentrated floral skincare with sunscreen Broad spectrum SPF 15 4W; FOREVER Transfer-proof - 24h foundation High perfection Concentrated floral skincare with sunscreen Broad spectrum SPF 15 4WO; FOREVER Transfer-proof - 24h foundation High perfection Concentrated floral skincare with sunscreen Broad spectrum SPF 15 4WP; FOREVER Transfer-proof - 24h foundation High perfection Concentrated floral skincare with sunscreen Broad spectrum SPF 15 5N; FOREVER Transfer-proof - 24h foundation High perfection Concentrated floral skincare with sunscreen Broad spectrum SPF 15 5W; FOREVER Transfer-proof - 24h foundation High perfection Concentrated floral skincare with sunscreen Broad spectrum SPF 15 6.5N; FOREVER Transfer-proof - 24h foundation High perfection Concentrated floral skincare with sunscreen Broad spectrum SPF 15 6.5W; FOREVER Transfer-proof - 24h foundation High perfection Concentrated floral skincare with sunscreen Broad spectrum SPF 15 6N; FOREVER Transfer-proof - 24h foundation High perfection Concentrated floral skincare with sunscreen Broad spectrum SPF 15 6W; FOREVER Transfer-proof - 24h foundation High perfection Concentrated floral skincare with sunscreen Broad spectrum SPF 15 7.5N; FOREVER Transfer-proof - 24h foundation High perfection Concentrated floral skincare with sunscreen Broad spectrum SPF 15 7N; FOREVER Transfer-proof - 24h foundation High perfection Concentrated floral skincare with sunscreen Broad spectrum SPF 15 7W; FOREVER Transfer-proof - 24h foundation High perfection Concentrated floral skincare with sunscreen Broad spectrum SPF 15 8N; FOREVER Transfer-proof - 24h foundation High perfection Concentrated floral skincare with sunscreen Broad spectrum SPF 15 9N; FOREVER Transfer-proof 24h foundation High perfection Concentrated floral skincare with sunscreen Broad spectrum SPF 15 0N; FOREVER Transfer-proof 24h foundation High perfection Concentrated floral skincare with sunscreen Broad spectrum SPF 15 0W; FOREVER Transfer-proof 24h foundation High perfection Concentrated floral skincare with sunscreen Broad spectrum SPF 15 1.5N; FOREVER Transfer-proof 24h foundation High perfection Concentrated floral skincare with sunscreen Broad spectrum SPF 15 1.5W; FOREVER Transfer-proof 24h foundation High perfection Concentrated floral skincare with sunscreen Broad spectrum SPF 15 1C; FOREVER Transfer-proof 24h foundation High perfection Concentrated floral skincare with sunscreen Broad spectrum SPF 15 1CR; FOREVER Transfer-proof 24h foundation High perfection Concentrated floral skincare with sunscreen Broad spectrum SPF 15 1N; FOREVER Transfer-proof 24h foundation High perfection Concentrated floral skincare with sunscreen Broad spectrum SPF 15 1W; FOREVER Transfer-proof 24h foundation High perfection Concentrated floral skincare with sunscreen Broad spectrum SPF 15 2.5N; FOREVER Transfer-proof 24h foundation High perfection Concentrated floral skincare with sunscreen Broad spectrum SPF 15 2.5W; FOREVER Transfer-proof 24h foundation High perfection Concentrated floral skincare with sunscreen Broad spectrum SPF 15 2CR; FOREVER Transfer-proof 24h foundation High perfection Concentrated floral skincare with sunscreen Broad spectrum SPF 15 2N; FOREVER Transfer-proof 24h foundation High perfection Concentrated floral skincare with sunscreen Broad spectrum SPF 15 2W; FOREVER Transfer-proof 24h foundation High perfection Concentrated floral skincare with sunscreen Broad spectrum SPF 15 2WO; FOREVER Transfer-proof 24h foundation High perfection Concentrated floral skincare with sunscreen Broad spectrum SPF 15 2WP; FOREVER Transfer-proof 24h foundation High perfection Concentrated floral skincare with sunscreen Broad spectrum SPF 15 3.5N; FOREVER Transfer-proof 24h foundation High perfection Concentrated floral skincare with sunscreen Broad spectrum SPF 15 3C; FOREVER Transfer-proof 24h foundation High perfection Concentrated floral skincare with sunscreen Broad spectrum SPF 15 3CR; FOREVER Transfer-proof 24h foundation High perfection Concentrated floral skincare with sunscreen Broad spectrum SPF 15 3N; FOREVER Transfer-proof 24h foundation High perfection Concentrated floral skincare with sunscreen Broad spectrum SPF 15 3W; FRE Protect Body Broad Spectrum SPF30; FT SPF30 Sun Stick; Face & Body Protector SPF 15; Face & Body Sunscreen Broad Spectrum SPF 30; Face & Neck Multi Action Visage Et Cou Multi Action Day Cream / CRÃ¨me De Jour SPF 30 / Fps 30; Face Anti-shine Cream; Face Balm SPF-15; Face Broad Spectrum SPF 20 Sunscreen; Face Cream 50; Face Daily Uv Anti-aging Moisturizer; Face Daily Uv Anti-dry Moisturizer; Face Daily Uv Tinted Moisturizer; Face Factor; Face Factor SPF 50; Face Lift Broad Spectrum SPF 20 Jafra Pro; Face Mist; Face Multi-protection Sun Cream SPF 15; Face Multi-protection Sun Cream SPF 30; Face Oasis Hydrating Face Oasis Hydrating SPF 30; Face Oasis Hydrating Lotion SPF 30; Face Oasis Plus Hydrating Fluid SPF 15; Face Plus Scalp Invisible Daily SPF 30 Broad Spectrum; Face Potion; Face Protector Broad Spectrum SPF 40 Jafra; Face Protector SPF 40; Face SPF 47 Setting; Face Sunscreen SPF 45; Face Values Radiant Facial Daily Moisturizer SPF 15 Sunscreen; Face Values Refreshing Cooling Body Mist Sunscreen SPF 45; Face Values SPF 15 Facial Moisturizer; Face Values Ultra Light Body Mist Sunscreen SPF 30; Face Values Ultra Light Dry to the Touch Sunscreen Broad Spectrum SPF 55; Face Values Ultra Sport Active SPF 15 Sunscreen; Face Values Ultra Sport Active SPF 30 Sunscreen; Face Values Ultra Sport Active SPF 50 Sunscreen; Face Values Wet N Dry Wet Skin SPF 30 Sunscreen; Face Values Wet N Dry Wet Skin SPF 50 Sunscreen; Face Values Wet N Dry Wet Skin Sunscreen SPF 50; Face Visage Hypoallergenic Sunscreen Lotion; Face Zone Sun Block 30 SPF; Face Zone Sun Block SPF 30; Face and Body Sunscreen SPF 35 Jafra; Face and Body Sunscreen Spray SPF 35; Faces Sunscreen Lotion for Babies; Facescreen SPF 50; Facet Daily Moisturizer SPF 35; Facial Boosting Broad Spectrum SPF 15 Jafra; Facial Day Lotion SPF 15; Facial Day Treatment SPF 15 With Kinetin; Facial Fuel; Facial Fuel SPF 15; Facial Fuel Uv Guard; Facial Moisturizer SPF 15 Lotion; Facial Primer Protector SPF 50; Facial SPF 20/fps 20; Facial Sheer Shield SPF45; Facial Sunscreen SPF 20 Lotion; Facial Sunscreen with Zinc SPF 50 Daylogic; Fair and Square Kids Broad Spectrum SPF 50; Fair and Square Kids Sunscreen SPF 50; Fair and Square Sport Broad Spectrum SPF 30; Fair and Square Sport Broad Spectrum SPF 50; Fair and Square Sport Sunscreen SPF 30; Fair and Square Sport Sunscreen SPF 50; Fair and Square Ultra Protection Broad Spectrum SPF 15; Fair and Square Ultra Protection Broad Spectrum SPF 30; Fair and Square Ultra Protection Sunscreen SPF 15; Fair and Square Ultra Protection Sunscreen SPF 30; Family Dollar Tropic Sun Kids SPF 50 Sunscreen; Family Dollar Tropic Sun SPF 70 Sport Sunscreen; Family Dollar Tropic Sun Sport Sunscreen Continuous SPF 30; Family Sunscreen SPF 36; Fast-drying Sunscreen SPF 30; Fc5 Nurturing Day Lotion With SPF 20; Fc5 Oil-absorbing Day Lotion With SPF 20; Fenty Skin Hydra Vizor SPF 30; Fermitif Hand Renewal Cream Broad Spectrum SPF 15 Sunscreen; Firmalift Firming and Lifting Cream SPF 30; Firmarine Day Cream SPF 30 CRÃ¨me De Jour SPF 30; Firmarine Moisturizer SPF 30; Firming Moisture; First Aid Only SunX30 Sunscreen; Five Star Lip Protection; Fix+ SPF 30 Sun Spray; Flash Radiant Primer; Flavored Lips SPF 30; Flawless Finish Foundation SPF 15 Sunscreen; Flawless Future; Flawless Future Moisture; Flawless Future SPF 30; Flawless Tinted Moisturizer Dark SPF 18; Flawless Tinted Moisturizer Light SPF 18; Flawless Tinted Moisturizer Medium SPF 18; Flesh Hydrating SPF Serum; Florida Grown Broad Spectrum SPF 15; Florida Grown Sunscreen Broad Spectrum SPF15; Florida Salt Scrub Broad Spectrum SPF 30; Florida Salt Scrubs Broad Spectrum SPF 50; Florida Salt Scrubs Florida Grown Broad Spectrum SPF 15 Sunscreen; Florida Salt Scrubs Florida Snowbird Sunscreen 30 Broad Spectrum SPF 30; Florida Squeeze SPF 15; Florida Squeeze SPF 30; Florida Squeeze SPF 50; Florida Squeeze SPF 8; Florida Suncare Broad Spectrum SPF 15; Florida Suncare Broad Spectrum SPF 30; Florida Suncare Broad Spectrum SPF 50; Fluide Fondant Desalterant SPF 15 Hydra Quench - Formula B; Fluide Fondant Desalterant Super Hydratant SPF 15; Fluide Lift Jour Toutes Peaux - Multi RÃ©gÃ©nÃ©rante - SPF 15; Fluide Protecteur Jeunesse Des Mains SPF 15; Fluide Ãclat Du Jour SPF 15; For Goodness Face Antioxidant Skin Moisturizing Lotion SPF 30; For Kids SPF 45 Sunscreen Lotion; For Men Maca Root Energetic Face Protector; For Men Maca Root Energetic Face Protector SPF 15; For The Face; For The Gardener Lip Balm SPF 30; Forever Sun Lips; Forever Young Body Butter Broad Spectrum Sunscreen SPF 40 Supergoop; Fote Block Up Kids SPF 50 Sunscreen; Fote Cabana Beach Club With Blood Orange and Essential Oils SPF 8 Dry Tanning Sunscreen; Fote Cabana Beach Club With Manuka Honey and Essential Oils SPF 8 Dry Tanning Sunscreen; Fote Sport Sunscreen SPF 50; Foundation Primer Plus SPF 15; Foundation Primer Plus SPF 15 MERLE NORMAN; Foundation Primer Sunscreen Broad Spectrum SPF 15; Fps 15 Lait Solaire; Fps 30 Lait Solaire; Fps 30 Soin Complet; Fps 45 Soin Complet; Fps 50 Lait Solaire; Fps 60 Lotion Uv Ultra-LÃ©gÃ¨re; Fps 60 Soin Complet; Fre Broad Spectrum; Fresh Cooling Body Mist Sunscreen SPF 30; Fresh Cooling Body Mist Sunscreen SPF 45; Fresh Cooling Sunblock Gel SPF 30; Fresh Cooling Sunblock Gel SPF 45; Fresh Cucumber Classic Body SPF 30 Broad Spectrum; Fresh Essentials Daily Nourishing Moisturizer; Fresh Skin Effortless Beauty Balm Broad Spectrum SPF 35; Fresh Soy Moisturizing SPF 20; Fruit Of The Earth Block Up Dry Sport Fps/SPF 30 Continuous Spray; Fruit Of The Earth Block Up Fps/SPF 30 Continuous Spray; Fruit Of The Earth Block Up! Baby SPF 30 Sunblock With Aloe; Fruit Of The Earth Block Up! Face SPF 30 Sunblock With Aloe; Fruit Of The Earth Block Up! Sport SPF 30 Sunblock With Aloe; Fruit Of The Earth Block Up! Sunblock SPF 30 With Aloe; Fruit Of The Earth Block-UP Kids SPF 30 Bug Repelling; Fruit Of The Earth Block-UP Kids SPF 30 Color Spray (purple); Fruit Of The Earth Block-UP Regular SPF 45; Fruit Of The Earth Block-UP Sport 30 Bug Repelling; Fruit Of The Earth Kids SPF/fps 50; Fruit Of The Earth Moisturizing Aloe Baby SPF 45 Sunblock; Fruit Of The Earth Moisturizing Aloe Kids SPF 30 Sunblock; Fruit Of The Earth Moisturizing Aloe SPF 30 Sunblock; Fruit Of The Earth Moisturizing Aloe SPF 45 Sunblock; Fruit Of The Earth Moisturizing Aloe Sport SPF 30 Sunblock; Fruit Of The Earth SPF/fps 30; Fruit Of The Earth SPF/fps 30 Continuous Spray; Fruit Of The Earth SPF/fps 50; Fruit Of The Earth SPF/fps 50 Continuous Spray; Fruit Of The Earth Sport SPF/fps 15 Continuous Spray; Fruit Of The Earth Sport SPF/fps 30; Fruit Of The Earth Sport SPF/fps 30 Continuous Spray; Fruit Of The Earth Sport SPF/fps 50; Fruit Of The Earth Sport SPF/fps 50 Continuous Spray; Fruit of The Earth Sun Town City Kids SPF 50 Sunscreen; Fruit of the Earth Block Up Broad Spectrum Baby SPF 50; Fruit of the Earth Block Up Broad Spectrum Sport SPF 50; Fruit of the Earth Block Up Dry Sport SPF 50 Continuous Sunscreen; Fruit of the Earth Block Up Kids SPF 50; Fruit of the Earth Block Up Kids SPF 50 Continuous Sunscreen; Fruit of the Earth Block Up Kids SPF 50 Moisturizing Sunscreen; Fruit of the Earth Block Up Lite Broad Spectrum SPF 15 Continuous Sunscreen; Fruit of the Earth Block Up Lite Broad Spectrum SPF 30 Continuous Sunscreen; Fruit of the Earth Block Up Lite Kids SPF 50 Continuous Sunscreen; Fruit of the Earth Block Up SPF 30 General Protection Sunscreen; Fruit of the Earth Block Up SPF 30 Sunscreen; Fruit of the Earth Block Up SPF 50; Fruit of the Earth Block Up SPF 50 Full Spectrum Sunscreen; Fruit of the Earth Block Up SPF 70 General Protection Sunscreen; Fruit of the Earth Block Up Sport SPF 30 Continuous Sunscreen; Fruit of the Earth Block Up Sport SPF 30 Sunscreen; Fruit of the Earth Block Up Sport SPF 50 Continuous Sunscreen; Fruit of the Earth Block Up Sport SPF 50 Moisturizing Sunscreen; Fruit of the Earth Block Up Sport SPF 50 No Mess Sun; Fruit of the Earth Block Up Sport SPF 50 Sunscreen; Fruit of the Earth Cabana Beach Club; Fruit of the Earth Cabana Beach Club Lip Balm with Blood Orange and Essential Oils SPF 30; Fruit of the Earth Cabana Beach Club Lip Balm with Manuka Honey and Essential Oils SPF 30; Fruit of the Earth Cabana Beach Club Lip Balm with Mentha and Essential Oils SPF 30; Fruit of the Earth Cabana Beach Club with Manuka Honey and Essential Oils SPF 50; Fruit of the Earth Cabana Beach Club with Mentha and Essential Oils SPF 50; Fruit of the Earth Cabana Beach Clubwith Blood Orange and Essential Oils SPF 50; Fruit of the Earth Lip Balm SPF 30 Sunscreen Stick; Fruit of the Earth SPF 50 Kids Sunscreen; Fruit of the Earth SPF 50 Moisturizing Sunscreen; Fruit of the Earth SpaCology; Fruit of the Earth SpaCology Sport SPF 50; Fruit of the Earth Sport SPF 50; Fruit of the Earth Sport SPF 50 Sunscreen Continuous; Fruit of the Earth Sun Town City; Fruit of the Earth Sun Town City Baby SPF 50 Sunscreen; Fruit of the Earth Sun Town City Dark Tanning Dry Oil SPF 8 Sunscreen; Fruit of the Earth Sun Town City Dark Tanning SPF 8 Sunscreen; Fruit of the Earth Sun Town City SPF 15 Sunscreen; Fruit of the Earth Sun Town City SPF 30 Sunscreen; Fruit of the Earth Sun Town City SPF 50 Sunscreen; Fruit of the Earth, Inc. Luv That Sun SPF 30 Continuous; Fruit of the Earth, Inc. Ultra SPF 50 Moisturizing Sunscreen; Full Service Sun Block 15 SPF; Full Service Sun Block 20 SPF; Full Service Sunblock 10spf; Full Spectrum Block SPF 15; Full Stay 24hr Spf50; Full Stay 24hr V203 Natural Beige; Full Stay Cc 24hr; Full Stay V201 Apricot Beige (refill); FusionBeauty Colorceuticals PrimeResults Tinted Moisturizer SPF15 Caramel; FusionBeauty Colorceuticals PrimeResults Tinted Moisturizer SPF15 Golden Beige; FusionBeauty Colorceuticals PrimeResults Tinted Moisturizer SPF15 Ivory; FusionBeauty Colorceuticals PrimeResults Tinted Moisturizer SPF15 Sand; Futurist Hydra Rescue Moisturizing Makeup Broad Spectrum SPF 45; Futurist Hydra Rescue Moisturizing Makeup Fond De Teint Hydratant SPF/fps 45; Futurist Skin Tint Serum; G9 Moisture CC SPF30 PA PLUS PLUS; GLYTONE Triple Defense Brightening Complex with Sunscreen Broad Spectrum SPF 30; GM Collin 50Plus DRY TOUCH SUN PROTECTION; GOLD COLLAGEN Ampoule Cover Cake SPF 50; GOLD COLLAGEN Ampoule Cover Cake SPF50 N203; GOLD MOUNTAIN BEAUTY Collagen Broad Spectrum SPF 30; GUINOT Skin Defense SPF 15 Face; GUINOT Ultra UV Sunscreen High Protection Sun Cream for the face and body SPF 30; Galaxyborn Satin Cushion No 21; Galaxyborn Satin Cushion No 23; Gardeners Uv Shield SPF 15 Sunscreen; Garnier Moisture Rescue Lightweight UV; Garnier Ombrelle 30 Complete Dry Mist SPF 30 Water Resistant 80 Minutes; Garnier Ombrelle 60 Complete Dry Mist SPF 60 Water Resistant 80 Minutes; Garnier Ombrelle Clear Sport 45 Water Resistant 40 Minutes; Garnier Ombrelle Clear Sport 50 Plus Water Resistant 40 Minutes; Garnier Ombrelle Complete Sensitive Advanced Lightweight hypoallergenic SPF 45 Mexoryl Technology; Garnier Ombrelle Face Anti-Shine SPF 60 Mexoryl Technology; Garnier Ombrelle Kids Ultra Gentle Broad Spectrum SPF 50 Plus Sunscreen Water Resistant 80 Minutes; Garnier Ombrelle Kids Ultra Gentle SPF 50 Plus Water Resistant 80 Minutes; Garnier Ombrelle Kids Wet N Protect Hypoallergenic SPF 45 Mexoryl Technology; Garnier Ombrelle SPF 30 Complete Lightweight; Garnier Ombrelle SPF 30 Complete UVA UVB Sensitive Advanced Sunscreen for Sensitive Skin Hypoallergenic Non comedogenic Quick Absorption Water/sweat resistant 80 minutes; Garnier Ombrelle SPF 30 Kids Water Resistant; Garnier Ombrelle SPF 30 Sport Endurance Water Resistant; Garnier Ombrelle SPF 30 UVA UVB Kids Wet N Protect Sunscreen Protection Even on Wet Skin Hypoallergenic Water/sweat resistant 80 minutes Quick Absorption; Garnier Ombrelle SPF 45 Complete Lightweight; Garnier Ombrelle SPF 45 Kids Hypoallergenic; Garnier Ombrelle SPF 50 Kids Water Resistant; Garnier Ombrelle SPF 60 Complete Lightweight; Garnier Ombrelle SPF 60 Complete UVA UVB Sensitive Advanced Sunscreen for Sensitive Skin Hypoallergenic Non comedogenic Quick Absorption Water/sweat resistant 80 minutes; Garnier Ombrelle SPF 60 UVA UVB Kids Wet N Protect Sunscreen Protection Even on Wet Skin Hypoallergenic Water/sweat resistant 80 minutes Quick Absorption; Garnier Ombrelle Sport 30; Garnier Ombrelle Sport Endurance 60; Garnier Ombrelle Sport Vaporisateur Broad Spectrum SPF 30 Sweat Resistant 80 Minutes; Garnier Ombrelle Ultra Light Advanced 30; Garnier Ombrelle Ultra Light Advanced 60; Garnier Ombrelle Ultra Light Advanced Broad Spectrum SPF 50 Plus Sunscreen Water Resistant 80 Minutes; Garnier Ombrelle Ultra Light Advanced Broad Spectrum SPF 50 Plus Sunscreen Water Resistant 80 Minutes Weightless Body; Garnier Ombrelle Ultra Light Advanced SPF 60 Water Resistant 80 Minutes; Garnier Skin Renew Daily Moisture Anti Sun Damage; Garnier Skin Renew Dark Spot Hand Treatment Broad Spectrum SPF 30; Garnier SkinActive Clearly Brighter AntiSun Damage Daily Moisturizer Broad Spectrum SPF 30 Sunscreen; Garnier SkinActive Clearly Brighter Brightening and Smoothing Daily Moisturizer Broad Spectrum SPF 15 Sunscreen; Garnier SkinActive Moisture Bomb Broad Spectrum SPF 30 Sunscreen; Garnier SkinActive Moisture Rescue Actively Hydrating Daily Fragrance Free Broad Spectrum SPF 15; Garnier SkinActive Moisture Rescue Broad Spectrum SPF 15 Sunscreen Oil Free All Skin Types Actively Hydrating Daily; Garnier SkinActive Ultra Lift AntiWrinkle Firming Daily Moisturizer Broad Spectrum SPF 15 Sunscreen; Garnier Ultra Lift Anti Wrinkle Firming Moisturizer; Garnier Ultra Lift Deep Wrinkle Intensive Day; Garnier Ultra Lift SPF 30 Deep Wrinkle Day; Garnier UltraLift Transformer AntiAge Skin Corrector Broad Spectrum SPF 20 Sunscreen; Garnier green labs Brightening Serum PineaC Broad Spectrum SPF 30 Sunscreen; Garnier green labs Pore Perfecting CannaB Serum Broad Spectrum SPF 30 Sunscreen; Garnier green labs Replumping HyaluMelon Broad Spectrum SPF 30 Sunscreen; Gel Protector Solar Protecting Body Milk Lait Corps Protecteur SPF 20; Gel Solaire Bronzage Securite SPF 15; Gel Solaire Bronzage Securite SPF 15 Special Sport; Gelee Solaire Bronzage Tres Rapide Special Peaux Halees-spf6; GelÃ©e Solaire FraÃ®cheur Protection Faible 8 SPF; GelÃ©e Solaire Haute Protection SPF 15; General Protection; Generations Nadinola Day Time Protecting Moisturizer SPF 15; Geneva Naturals Advanced Anti-Aging with Sunscreen SPF 20; Geneva Naturals Advanced Anti-Aging with Sunscreen SPF 20 Unscented; Gentle Day Block SPF 30; Gentle Hydrating Day Broad Spectrum SPF 15 Jafra; Gentle Rejuvenation Fortified Sunscreen Broad Spectrum SPF 30 With Vitamin C; Gentle Rejuvenation System; Gilded Glam Broad Spectrum SPF 10; Gillette Fushion Proseries Instant Hydration UV Moisturizer; Gillette Fusion ProSeries Instant Hydration Moisturizer Broad Spectrum SPF 15; Gillette Fusion ProSeries Instant Hydration UV Moisturizer SPF 15; Giorgio Armani Crema Nera Extrema Essential Defense Fluid Broad Spectrum SPF 14 Sunscreen; Giorgio Armani Crema Nera OMC3 Obsidian Mineral Restoring SPF 15; Giorgio Armani Maestro UV Skin Defense Primer Broad Spectrum SPF 50 Sunscreen; Giorgio Armani Regenessence High Lift Muti Firming Rejuvenating Broad Spectrum SPF 15 Sunscreen; Giorgio Armani Regenessence High Lift SPF 15; Givenchy Radically No Surgetics; Glaxal Base Lotion SPF 15; Glazewear SPF/fps 15 Lip Gloss; Gliza Body Mist Sunscreen Broad Spectrum SPF 100; Global Blend; Glossier Invisible Shield Daily Sunscreen Broad Spectrum SPF 35; Glossier sun glaze gleaming sunscreen oil broad spectrum SPF 30 Water Resistant 40 Min; Glossworks Lip Gloss; Glove Me Tender Hand Cream With Shea Butter SPF 15; Gloves in a Bottle with SPF15; Glow 30; Glow Body Mist SPF 50; Glow Face SPF 15 Sunscreen Lotion; Glow Go Lip Oil; Glow Go Lip Oil SPF50; Glow Oil Broad Spectrum Sunscreen SPF 50; Glow Radiant Moisturizer SPF 15; Glow Screen Body Broad Spectrum Sunscreen SPF 40; Glow Screen SPF 40; Glow Stick Broad Spectrum SPF 50; Glow Stick Broad spectrum SPF 50; Glow and Steady Daily Moisturizer and Gradual Self Tanner SPF 15 for Body; Glowscreen; Glowstunner Tinted Moisturizer; Gly Derm Super Sunblock; Gly-miracle Lip Balm; Gly-miracle Lip Balm SPF 30; Glycolic Day Cream SPF 30; Glysomed Face Moisturizer; Glytone Retexturize Body; Glytone Retexturize Hand; Glytone Suncare SPF 50; Glytone Sunscreen SPF 40; Gnarly Head SPF 30; Goat Milk and Lavender Sun for Baby SPF 20 Pa Plus Plus; Gold Bond Ultimate 5-in-1 Face; Gold Bond Ultimate Age Defense Hand Cream with SPF 20; Gold Bond Ultimate Neck and Chest Age Defense Cream with SPF 20; Gold Bond Ultimate Protection; Gold Dynamics Skin Boosting Moisturizer Broad Spectrum SPF 15 Sunscreen; Gold Dynamics Travel Kit Jafra; Golden Beauty - Summer Face SPF 15; Golden Defense - Moisturizing Sun Lotion SPF 15; Golfer Block Sunscreen for Golfers; Good Neighbor Pharmacy Kids SPF 50; Good Neighbor Pharmacy Kids Sunscreen Broad Spectrum SPF 50; Good Neighbor Pharmacy Sport Sunscreen Continuous SPF 30; Good Neighbor Pharmacy Sport Sunscreen SPF 30; GoodSense SPF 30 Sport CSpray Comfort Can; GoodSense SPF 30 Sunscreen; GoodSense SPF 50 CSpray; GoodSense SPF 50 Sport Comfort Can; GoodSense SPF 50 Sunscreen; GoodSense Sunscreen SPF 30; GoodSense Sunscreen SPF 50; GoodSense Sunscreen SPF 70; Goslings Chopsaver Broad Spectrum SPF Lip Balm; Got To Glow Gradual Glow Body Moisturizer Lotion; Got2b Spa Defense; Gp Sunscreen; Gradual Glow Sunless Tanning Milk Broad Spectrum Sunscreen SPF 35; Gradual Self-tanning sunscreen SPF 20 Doctor Ts Supergoop; Grape Soda SPF 15 Broad Spectrum Lip Balm; Grapefruit SPF 30 Broad Spectrum; Grapefruit Shandy SPF 15 Broad Spectrum Lip Balm; Gray Malin Kit; Green Stick; Green Tea Antioxidant Broad Spectrum SPF 30 PAplusplusplus; Guerlain Success Future - Rich Day Care Wrinkle Minimizer Firming SPF 15; H-E-B Dead Sea Organics Protect and Perfect Day Broad Spectrum SPF15; H.E.B Solutions Sunscreen; H.E.B. Solutions Sunscreen; H.E.b; H.E.b Baby; H.E.b Banana; H.E.b Mango; H.E.b Solutions Sunscreen; H.E.b Ultra; H2O Beauty AQUADEFENSE PROTECTIVE MATCHA SPF 40; HANSKIN AIR BOUNCE CUSHION BB No 21 Light Beige; HANSKIN AIR BOUNCE CUSHION BB No 23 Natural Beige; HEB Solutions Sunscreen; HEB Solutions Sunscreen Ultra 30; HUGGIES Little Swimmers; HYALURONIC ACID WATERY SUN gel; Habana Brisa SPF 30 Sunscreen; Habana Brisa SPF 50 Sunscreen; Habana Brisa SPF 70 Sunscreen; Habana SPF 30 Sunscreen; Habana SPF 50 Sunscreen; Habana SPF 70 Sunscreen; Habit SPF 38 Cucumber Mister; Habit SPF 39 White Peach and Neroli Mister; Habit SPF 41; Hada Labo Tokyo Protecting Day SPF 18; Hada Labo Tokyo Protecting Day SPF 30; Hampton SPF 15; Hampton SPF 8 Bronze; Hampton Sun; Hampton Sun SPF 15 Silk; Hampton Sun SPF 30 Silk; Hampton Sun SPF 50; Hampton Sun SPF 70; Hand Care Day care Broad Spectrum SPF 15 Jafra; Hand Complex Broad Spectrum SPF 15 Jafra; Hand Cream Intensive Anti-ageing SPF 15; Hand Screen Broad Spectrum Sunscreen SPF 40; Hand Treatment Regimen; Hand and DÃ©colletÃ© Cream Sunscreen SPF 15; Hangover Good To Go Moisturizer SPF 25; Hangover Good To Go Skin Protecting SPF 25 Moisturizer; Hanskin nontouring gradation pact L21 fair Edge cover balm; Hanskin nontouring gradation pact L21 fair Serum cover balm; Hanskin nontouring gradation pact M22 nude Edge cover balm; Hanskin nontouring gradation pact M22 nude Serum cover balm; Hanson Daily Moisturizer SPF30; Hard Candy Correction Creme; Harmon Face Values Break-out Free SPF 55 Sunscreen; Harmon Face Values Refreshing Cooling Body Mist Sunscreen SPF 45; Harmon Face Values Revitalizing Day; Harmon Face Values Ultra Light Dry To The Touch SPF 30 Sunscreen; Harmon Face Values Ultra Light Dry to the Touch SPF 100 Sunscreen; Harmon Face Values Ultra Light Dry to the Touch Suncreen SPF 55; Harmon Face Values Ultra Light Dry to the Touch Sunscreen Broad Spectrum SPF 45; Harmon Face Values Ultra Light Dry to the Touch Sunscreen Broad Spectrum SPF 70; Harmon Face Values Ultra Sport Active Sunscreen SPF 30; Harmon Revitalizing Facial Smoother Immediate Skin Smoothing Finishing Broad Spectrum SPF30 Sunscreen; Harmony Dynamics Facial Boosting SPF 15; Harmony Dynamics SPF 15; HashtagSUN SPF 50 SunScreen Dabber; Havana Sun SPF 30 Sunscreen; Hawaiian Shaved Ice Lip Balm Broad Spectrum SPF 30; Hawaiian Sunscreen SPF 50+; Hawaiian Tropic; Hawaiian Tropic 15 Plus Sunblock; Hawaiian Tropic 30 Plus Lotion; Hawaiian Tropic 30 Plus Sunblock Lotion; Hawaiian Tropic 30 SPF Splash Sunblock; Hawaiian Tropic 45 Plus Lotion; Hawaiian Tropic 45 Plus Sunblock Lotion; Hawaiian Tropic 45 SPF Sunblock Stick; Hawaiian Tropic AntiOxidant Sunscreen SPF 50 Broad Spectrum; Hawaiian Tropic Baby Faces 35 Lot; Hawaiian Tropic Baby Faces 50 - Lot; Hawaiian Tropic Baby Faces 50 SPF; Hawaiian Tropic Baby Faces 50 Sunblock Lot; Hawaiian Tropic Baby Faces Sunblock SPF 35; Hawaiian Tropic Bioshield 30 SPF Sensitive; Hawaiian Tropic Bioshield Fac. Sunb.15spf Sn; Hawaiian Tropic Bioshield Fac.sunb.15spf Nor; Hawaiian Tropic Dark Tanning Lotion 4 SPF; Hawaiian Tropic Everyday Active SPF15; Hawaiian Tropic Everyday Active SPF50; Hawaiian Tropic Herbal Aloe 45 SPF Lip Balm; Hawaiian Tropic Ilk Hydration Weightless; Hawaiian Tropic Invisible Sunscreen Sheer Touch SPF 30; Hawaiian Tropic Invisible Sunscreen Sheer Touch SPF 50; Hawaiian Tropic Island Sport Sunscreen Broad Spectrum SPF 15; Hawaiian Tropic Island Sport Sunscreen Broad Spectrum SPF 16; Hawaiian Tropic Island Sport Sunscreen Broad Spectrum SPF 50; Hawaiian Tropic Island Sport Sunscreen Lotion Ãcran Solaire 30; Hawaiian Tropic Island Sport Sunscreen UVAUVB Broad Spectrum SPF 50; Hawaiian Tropic Island Sport Sweat Resistant Sunscreen Lotion SPF 50; Hawaiian Tropic Island Sport Sweat Resistant Sunscreen Spray SPF 50; Hawaiian Tropic Island Tanning Broad Spectrum SPF 15; Hawaiian Tropic Island Tanning Broad Spectrum SPF 25; Hawaiian Tropic Island Tanning Clear Sunscreen Broad Spectrum SPF 30; Hawaiian Tropic Just for Kids 30 - Lot; Hawaiian Tropic Lip Balm 45 SPF-cherry; Hawaiian Tropic Lip Balm 45 SPF-coconut; Hawaiian Tropic Lip Balm 45 SPF-mint; Hawaiian Tropic Lip Balm SPF 45 Cherry; Hawaiian Tropic Lip Balm Sunscreen SPF 25; Hawaiian Tropic Lip Balm Sunscreen SPF 30; Hawaiian Tropic Matte Effect Mineral Enriched Sunscreen Lotion SPF 30; Hawaiian Tropic Matte Effect Mineral Enriched Sunscreen Lotion SPF 50; Hawaiian Tropic Matte Effect Mineral Enriched Sunscreen SPF 30; Hawaiian Tropic Matte Effect Mineral Enriched Sunscreen SPF 50; Hawaiian Tropic Oil Free Sport 30 SPF Sunblock; Hawaiian Tropic Protective Tanning Lotion 8 SPF; Hawaiian Tropic Protective Tanning Spray Oil 12 SPF; Hawaiian Tropic SPF 15; Hawaiian Tropic SPF 30 Splash for Kids Sunblock; Hawaiian Tropic Sheer Touch Clear Sunscreen Spray SPF 30 Ultra Radiance; Hawaiian Tropic Sheer Touch Clear Sunscreen Spray SPF 50+ Ultra Radiance; Hawaiian Tropic Sheer Touch SPF30; Hawaiian Tropic Sheer Touch Sunscreen Broad Spectrum SPF 15; Hawaiian Tropic Sheer Touch Sunscreen Ultra Radiance Broad Spectrum SPF 50; Hawaiian Tropic Sheet Touch Ultra Radiance Sunscreen SPF 50; Hawaiian Tropic Silk Hydration Clear Sunscreen Broad Spectrum SPF 50; Hawaiian Tropic Silk Hydration Clear Sunscreen Broad Spectrum SPF50; Hawaiian Tropic Silk Hydration Sunscreen Broad Spectrum SPF 30; Hawaiian Tropic Silk Hydration Sunscreen Broad Spectrum SPF 50; Hawaiian Tropic Silk Hydration Sunscreen Face Broad Spectrum SPF 30; Hawaiian Tropic Silk Hydration Weghtless Face; Hawaiian Tropic Silk Hydration Weightless; Hawaiian Tropic Silk Hydration Weightless Clear Sunscreen SPF 15; Hawaiian Tropic Silk Hydration Weightless Clear Sunscreen SPF30; Hawaiian Tropic Silk Hydration Weightless Clear Sunscreen Spray SPF 50 Plus; Hawaiian Tropic Silk Hydration Weightless Sunscreen Lotion With Hydrating Ribbons SPF 30; Hawaiian Tropic Silk Hydration Weightless Sunscreen Lotion With Hydrating Ribbons SPF 50; Hawaiian Tropic Splash 30 SPF Sunblock Spray; Hawaiian Tropic Sport 30 SPF Sunblock Spray; Hawaiian Tropic Sport SPF 15; Hawaiian Tropic Sport SPF 30; Hawaiian Tropic Sunblock Lip Balm SPF 45; Hawaiian Tropic Sunblock Sport 30 Lot; Hawaiian Tropic Sunscreen Clear Weightless Hydration Spf70; Hawaiian Tropic Sunscreen Sheer Touch Face SPF 30; Hawaiian Tropic Sunscreen Sheer Touch Face SPF 50; Hawaiian Tropic Sunscreen Sheer Touch SPF 70; Hawaiian Tropic Total Sport Lotion 20 SPF; Hawaiian Tropic Touch Of Colour Tinted Sunscreen Spray Lotion SPF 15; Hawaiian Tropic Touch Of Colour Tinted Sunscreen Spray Lotion SPF 4; Hawaiian Tropic everyday Active Sport Sunscreen SPF50; Hawaiin Tropic Silk Hydration Dry Broad Spectrum SPF 30; Head to Toe Kit; Head-to-Toe Favorites Mini Set; Healthy Defense Daily Moisturizer SPF 30; Healthy Defense Daily Moisturizer SPF 45; Healthy Defense Sunblock Lotion SPF 30; Healthy Defense Sunblock Lotion SPF 45; Healthy Glow Sunless Tan Broad Spectrum SPF 40; Healthy Skin Cc Cream SPF 30; Healthy Skin Lift & Firm; Healthy Skin Radiance; Heat Wave Sunblock SPF 30; Heb; Heb Broad Spectrum SPF 30 Banana Scented Sunscreen; Heb Broad Spectrum SPF 30 Coconut Scented Sunscreen; Heb Broad Spectrum SPF 30 Mango Scented Sunscreen; Heb Broad Spectrum SPF 30 Pomegranate Scented Sunscreen Lip Balm; Hebe Luca Bb; Help Me Broad Spectrum SPF 30 Sunscreen Retinol Day Treatment Lotion; Hemp Lip Balm; Herbal Aloe Face and Body SPF 30; Herbalife SKIN 7 Day Results Kit; Herbalife Skin Protective Moisturizer SPF 30; Herpecin; Herpecin L; High Altitude Adventure Sunscreen; High Performance Sunscreen Spray SPF 50; High Protection Suncare Oil SPF 30; Higher Education Spring Break Oil-Free Broad-Spectrum Sunscreen SPF 30; Hill Country Essentials; Holy Hydration! Face Cream SPF 30 Sunscreen; Homme Aqua Sun Block SPF50 Plus PA 2Plus; Hope In A Jar Broad Spectrum SPF 25 Sunscreen and Moisturizer for All Skin Types; Hope In A Jar SPF 25; Hope Oil Free Moisturizer SPF 30; Hourglass Equilibrium Day Fluid SPF 30; Hourglass Illusion Tinted Moisturizer Beige SPF 15; Hourglass Illusion Tinted Moisturizer Ivory SPF 15; Hourglass Illusion Tinted Moisturizer Light Beige SPF 15; Hourglass Illusion Tinted Moisturizer Sand SPF 15; Hourglass Illusion Tinted Moisturizer Warm Beige SPF 15; House 99 By David Beckham Bold Statement Body Tattoo Moisturizing Broad Spectrum SPF 50 Sunscreen; Hurley Broad Spectrum SPF; Hurley Broad Spectrum SPF 15; Hurley Broad Spectrum SPF 15 Sunscreen; Hurley Broad Spectrum SPF 30; Hurley Broad Spectrum SPF 50; Hurley Sunscreen Broad Spectrum SPF15; Hurley Sunscreen Broad Spectrum SPF50; Huxley Moist Cushion Own Attitude 1 White Desert; Huxley Moist Cushion Own Attitude 2 Sand; Huxley Moist Cushion Own Attitude 3 Sand Dune; Hyalu-melon With Conditioning (hyaluronic Acid + Watermelon); Hydra Advance Creme Autobronzante Fps 10-crm; Hydra Advance Solaire Ecran Total Fps 25; Hydra Advance Solaire Lait SPF 25; Hydra Beaute SPF 15; Hydra Bronze; Hydra Day SPF 20; Hydra Hand Cream SPF 15; Hydra Moisturizing Lotion SPF 30; Hydra Vizor; Hydra VÃ©gÃ©tal CRÃ¨me Hydratante Fps 25; Hydra-bronze (SPF 15); Hydra-firm Day Lotion SPF-15; Hydra-radiance Moisturizing Day Lotion Lotion De Jour Hydratante SPF/fps15; Hydra-radiance Protecting Day Lotion Lotion De Jour Protectrice SPF/fps30; Hydra-seal SPF 25 / Hydra-scellante SPF 25; Hydra-total 5 Ultra-even Lotion; Hydraboost Moisturizer SPF 30; Hydraboost Oil-Free Sunscreen SPF 40; Hydraphase Uv Intense; Hydraplasty Face; Hydratant DÃ©fense Fps 30; Hydrating Antioxidant Moiturizer; Hydrating Body Sunscreen UVA and UVB Broad Spectrum SPF50; Hydrating Dynamics Jafra; Hydrating Facial SPF-30; Hydrating Glow Mist SPF 50; Hydrating Lip Balm SPF 15 sunscreen ASAP; Hydrating Lip Balm Sunscreen; Hydrating Protection Sunscreen CVS; Hydrating Protection Sunscreen SPF 30 CVS; Hydrating Protection Sunscreen SPF 50 CVS; Hydrating SPF 30; Hydrating SPF 50; Hydrating Sheer Lip Balm SPF 30 - Nude Broad Spectrum SPF 30 UVA-UVB Sunscreen; Hydrating Sheer Lip Balm SPF 30 - Pink Broad Spectrum SPF 30 UVA-UVB Sunscreen; Hydrating Sheer Lip Balm SPF 30 - Red Broad Spectrum SPF 30 UVA-UVB Sunscreen; Hydrating Sheer Lip Balm SPF 30 - TRIO; Hydrating and Balancing Moisturizer SPF 15; Hydrating day moisture broad spectrum SPF15 Jafra; Hydration Dynamics Moisture Replenishment SPF 15; Hydration Dynamics SPF 15; Hydration Invisiblur Perfecting Shield Broad Spectrum SPF 30; Hydrator Plus; Hydrator Plus SPF 30; Hydro Boost City Shield Gel Cream SPF 25; Hydro Boost Gel Cream SPF 15; Hydro Boost Gel Cream SPF 25; Hydro Boost Water Gel Lotion Sunscreen; Hydro Boost Water Gel Lotion Sunscreen SPF 30; Hydro Boost Water Gel Lotion Sunscreen SPF 50; Hydrofirming Lifting Day Cream SPF 15 Creme De Jour Lifting Fps 15; Hydrofirming-lift Day Cream SPF 15; Hydrosport Sunscreen Spray SPF 30; Hydrosport Sunscreen Spray SPF 50; Hylands Naturals Vanilla Sunscreen Lip Balm SPF 15; I KNOW Very Necessary Broad Spectrum SPF-40 Moisturizing Cream; INCELLDERM Cocktail Aqua Sun; INTELLIGENT BEAUTY LABS Age Defying Day Broad Spectrum SPF 20; IOPE UV Defense Sun Protector SPF 50plus; IPKN MOIST AND FIRM BB 02 Light; IPKN Moist and Firm BB 03 Light Medium; IPKN Moist and Firm BB 04 Medium; IPKN Pore Apple Sun Block; IPKN Twinkle Flash Cream; IPKN Twinkle Velvet Founcushion 21; IPKN Twinkle Velvet Founcushion 23; IQueen CCC Dark; IQueen CCC Light; IQueen CCC Medium; ISA KNOX 365 SUNSCREEN BROAD SPECTRUM SPF 50 Plus; IT Cosmetics Your Skin But Better CC Plus Color Correcting Full Coverage Antiaging Hydrating Serum Broad Spectrum SPF 50 Plus Clear Sunscreen; IT Cosmetics Your Skin But Better CC Plus Nude Glow Color Correcting Medium Coverage Skin Tint Brightening Glow Serum Broad Spectrum SPF 40 Sunscreen All Shades; ITK Broad spectrum SPF 30 Sunscreen; Ice Elements SPF 15 Moisturizer; Iced Pear Lip Balm; Iced Pear SPF 15 Broad Spectrum Lip Balm; Idc Fps/SPF 15; Idc Fps/SPF 30; Idc Fps/SPF 50; Ideal Moisture Dry Skin; Ideal Moisture Even Tone; Ideal Moisture Normal Skin; Ideal Moisture Sensitive Skin; Ideal Soleil SPF 50+; IdÃ©al Soleil Spf30; Illumikate Cc SPF 50; Illuminating Daily Moisturizer; Illuminating Daily Moisturizer SPF 15; Illuminating Daily Moisturizer SPF 30; Illusion Hyaluronic Skin Tint Oil Free Sunscreen Broad Spectrum Beige SPF 15; Illusion Hyaluronic Skin Tint Oil Free Sunscreen Broad Spectrum Golden Tan SPF 15; Illusion Hyaluronic Skin Tint Oil Free Sunscreen Broad Spectrum Honey SPF 15; Illusion Hyaluronic Skin Tint Oil Free Sunscreen Broad Spectrum Ivory SPF 15; Illusion Hyaluronic Skin Tint Oil Free Sunscreen Broad Spectrum Light Beige SPF 15; Illusion Hyaluronic Skin Tint Oil Free Sunscreen Broad Spectrum Nude SPF 15; Illusion Hyaluronic Skin Tint Oil Free Sunscreen Broad Spectrum Sand SPF 15; Illusion Hyaluronic Skin Tint Oil Free Sunscreen Broad Spectrum Shell SPF 15; Illusion Hyaluronic Skin Tint Oil Free Sunscreen Broad Spectrum Vanilla SPF 15; Illusion Hyaluronic Skin Tint Oil Free Sunscreen Broad Spectrum Warm Ivory SPF 15; Illusion Tinted Moisturizer Broad Spectrum Beige SPF 15; Illusion Tinted Moisturizer Broad Spectrum Golden SPF 15; Illusion Tinted Moisturizer Broad Spectrum Golden Tan SPF 15; Illusion Tinted Moisturizer Broad Spectrum Honey SPF 15; Illusion Tinted Moisturizer Broad Spectrum Ivory SPF 15; Illusion Tinted Moisturizer Broad Spectrum Light Beige SPF 15; Illusion Tinted Moisturizer Broad Spectrum Nude SPF 15; Illusion Tinted Moisturizer Broad Spectrum Sable SPF 15; Illusion Tinted Moisturizer Broad Spectrum Sand SPF 15; Illusion Tinted Moisturizer Broad Spectrum Shell SPF 15; Illusion Tinted Moisturizer Broad Spectrum Vanilla SPF 15; Illusion Tinted Moisturizer Broad Spectrum Warm Ivory SPF 15; Iluma Brightening Hand CRÃ¨me SPF 15; Im Clear Cica Sunstick; Im Cooling Cica Sunstick; Im Derma Relief Sunstick; Im Sports Aqua Sungel; Im Tone Up Multi Base; Image Essentials Daily Illuminating Moisturizer Broad Spectrum SPF 15 Sunscreen; Image MD Restoring Lip Enhancer SPF15; Image Md Reconstructive Moisturizer SPF 50; Image Prevention Plus Professional Ultimate Protection Moisturizer SPF50; Image Skincare Prevention Plus Daily Ultimate Protection; Iman Sun Defense Lip and Eye Stick; Immortelle Brightening Hand Care SPF 15; In An Instant Daily Tinted Moisturizer SPF 15; Incellderm 4d Lustre Cushion; Industrial Strength Sunscreen; Infinity; Inspired by Color Lemon Lime SPF 30; InstaNatural Vitamin C Moisturizer SPF30; InstaReady Face Primer; InstaReady Face Primer SPF 18; Instant Bronzer InstantanÃ© 15; Instant Bronzer InstantanÃ© 15 Continuous Spray Sunscreen; Instant Bronzer InstantanÃ© 30 Continuous Spray Sunscreen; Instant Bronzer InstantanÃ© 30 Spray Gel Sunscreen; Instant Dry Mist SPF 50 Sunscreen Spray; Intellishade Clear SPF 50; Intellishade Matte SPF 45; Intellishade Original SPF 45; Intense Care Gold 24k Snail Sun; Intensite Creme Lustre Day SPF 30 US; Intensive 3-IN-1 Day Cream SPF 30; Intensive Cover Blemish Balm; Into Repair Dry Skin / Peaux SÃ¨ches; Into Repair Face SPF 30; Introstem Stem Cell Active Defense; Invisible Protect SPF 30 Cool Gel; Invisible Protect SPF 30 Sheer Spray; Invisible Protect SPF 50 Sheer Spray; Invisible Protect SPF 50+ Cool Gel; Invisible Uv Filters SPF 30; Invisiblur Perfecting Shield Broad Spectrum SPF 30 Pa+++; Iope Brightgen; Iope Men Uv Defense Sun Protector; Iope Uv Defense Sun Protector; Iope Uv Defense Sun Protector EX; Iope Uv Men Defense Sun Protector EX; Ipkn City Proof Sun Mist; Ipkn Hydro and Pore Bb 01 Light; Ipkn Hydro and Pore Bb 02 Medium; Ipkn Moist and Firm Bb 01 Fair; Ipkn Moist and Firm Bb 05 Medium Tan; Ipsa Sun Protector Cream Broad Spectrum SPF 30; Isa Knox Anew Solaire Active Face and Body Protection Broad Spectrum SPF 50 Sunscreen; Isa Knox Anew Solaire Everyday Face Protection Broad Spectrum SPF 50 Sunscreen; Isa Knox Lxnew Platinum Sculpting Day Broad Spectrum SPF 30 Sunscreen; Isaknox Wx2 Whitening Revolution Sunblock; Islander Spf6; It Radiant Cc; It Radiant Cc Cushion Be10; It Radiant Cc Cushion Be20; It Radiant Cc Cushion Bp15; It Radiant Multiple Cc for Man; Ivory Moisturizing Makeup Broad Spectrum SPF 15 Jafra; Ivory Oil Controlling Makeup Broad Spectrum SPF 15 Jafra; J0830014 Jason Sun Family Sunscreen SPF45; J0832014 Jason Sun Sport Sunscreen SPF45; J0832212 Jason Kids Sunscreen SPF45; J0832706 Jason Sun Facial Sunscreen SPF20; JACKET SPF-50 Broad Spectrum Sunscreen; JLo Beauty That Big Screen Broad Spectrum SPF 30 Moisturizer; JUNGSAEMMOOL Essential Skin Nuder Cushion Fair Light; JUNGSAEMMOOL Essential Skin Nuder Cushion Light; JUNGSAEMMOOL Essential Skin Nuder Cushion Medium; JUNGSAEMMOOL Essential Skin Nuder Cushion Medium Deep; JUNGSAEMMOOL Essential Skin Nuder Longwear Cushion Fair Light; JUNGSAEMMOOL Essential Skin Nuder Longwear Cushion Light; JUNGSAEMMOOL Essential Skin Nuder Longwear Cushion Medium; JUNGSAEMMOOL Essential Skin Nuder Longwear Cushion Medium Deep; JUNGSAEMMOOL Masterclass Glow Base; JUNGSAEMMOOL Masterclass Radiant Cushion N0 Cream; JUNGSAEMMOOL Masterclass Radiant Cushion N1 Ivory; JUNGSAEMMOOL Masterclass Radiant Cushion N2 Vanila; JUNGSAEMMOOL Masterclass Radiant Cushion Y4 Sand; JUNGSAEMMOOL Masterclass Radiant Cushion Y5 Honey; JUNGSAEMMOOL Skin Nuder Cover Layer Cushion Fair Light; JUNGSAEMMOOL Skin Nuder Cover Layer Cushion Light; JUNGSAEMMOOL Skin Nuder Cover Layer Cushion Medium; JUNGSAEMMOOL Skin Nuder Cover Layer Cushion N-Light; JUNGSAEMMOOL Skin Setting Tone Balancing Base; JUNGSAEMMOOL Skin Setting Tone Correcting Base; Jack Black Ink Boost Tattoo Care; Jack Black Sun Guard Sunscreen SPF45; Jacket SPF 50; Jafra Long Wear Makeup Broad Spectrum SPF 20; Jafra Long Wear Makeup Broad Spectrum SPF 20 Bare L6; Jafra Long Wear Makeup Broad Spectrum SPF 20 Bronze D2; Jafra Long Wear Makeup Broad Spectrum SPF 20 Caramel D12; Jafra Long Wear Makeup Broad Spectrum SPF 20 Earth D10; Jafra Long Wear Makeup Broad Spectrum SPF 20 Fair L2; Jafra Long Wear Makeup Broad Spectrum SPF 20 Honey M6; Jafra Long Wear Makeup Broad Spectrum SPF 20 Natural M2; Jafra Long Wear Makeup Broad Spectrum SPF 20 Nude L4; Jafra Long Wear Makeup Broad Spectrum SPF 20 Sable D6; Jafra Long Wear Makeup Broad Spectrum SPF 20 Spice D4; Jafra Long Wear Makeup Broad Spectrum SPF 20 Tawny M4; Jafra Long Wear Makeup Testers Broad Spectrum SPF 20; Jafra Pro; Jafra Pro Face Lift SPF 20; Jafra Royal Defy Sample Kit; Jafra Royal Defy Travel Kit; Jafra Royal Jelly Revitalize; Jafra Royal Luna Bright Kit; Jafra Royal Men Sample Set; Jafra Sun body protector sunscreen broad spectrum SPF 50; Jafra Sun sunscreen broad spectrum SPF 50; Jafra Sun tinted face protector sunscreen broad spectrum 50; Jane Seymour Natural Advantage AM SPF 15 All Day Moisture with AHAs; Jane Seymour Oil-Free Tinted Moisturizer with SPF 55; Jason Facial Natural Sunscreen Broad Spectrum SPF20; Jason Pure Natural Sun Family Natural Sunscreen Broad Spectrum SPF45; Jason Pure Natural Sun Kids Natural Sunscren Broad Spectrum SPF45; Jason Pure Natural Sun Sport Natural Sunscreen Broad Spectrum SPF45; Jason Sun Facial Sunscreen Broad Spectrum SPF20; Jason Sun Family Sunscreen Broad Spectrum SPF45; Jason Sun Kids Sunscreen Broad Spectrum SPF45; Jason Sun Sport Sunscreen Broad Spectrum SPF45; Jayjun Wakepure Calming Sun; Jergens BB Body; Jergens BB Hand SPF 20; Jergens Bb Hand Perfecting Hand Cream With Sunscreen; Jergens Bb Protect Perfecting Body Cream With Sunscreen; Jergens Natural Glow Daily Moisturizer with Sunscreen SPF 20; Jergens Natural Glow Face Daily Moisturizer for Fair/Medium Skin; Jergens Natural Glow Face Daily Moisturizer for Medium/Tan Skin; Jergens Natural Glow Ãclat Naturel Daily Facial Moisturizer With Sunscreen; Jergens Skin Firming Neck and Chest; Jouvalle Deep Nourishing Luminosity Day; Juice Box SPF 15 Broad Spectrum Lip Balm; Julep Lip Shade Sheer Lip Butter Almond Nude SPF 30; Julep Lip Shade Sheer Lip Butter Crimson SPF 30; Julep Lip Shade Sheer Lip Butter Currant SPF 30; Julep Lip Shade Sheer Lip Butter Dahlia SPF 30; Julep Lip Shade Sheer Lip Butter Lace SPF 30; Julep Lip Shade Sheer Lip Butter Macaroon SPF 30; Julep Lip Shade Sheer Lip Butter Petal SPF 30; Julep Lip Shade Sheer Lip Butter Plumeria SPF 30; Julep Lip Shade Sheer Lip Butter Poppy SPF 30; Julep Lip Shade Sheer Lip Butter Primrose SPF 30; Julep Lip Shade Sheer Lip Butter Raisin SPF 30; Jungle Juice SPF 15 Broad Spectrum Lip Balm; Jungsaemmool Skin Setting Tone-UP Sun Base; Jurlique Sun Sunscreen SPF 30; Just Enough SPF 15 Tinted Moisturizer Beige is Beautiful; Just Enough SPF 15 Tinted Moisturizer Brown is Beautiful; Just Enough SPF 15 Tinted Moisturizer Dark Brown is Beautiful; Just Enough SPF 15 Tinted Moisturizer Deep Brown is Beautiful; Just Enough SPF 15 Tinted Moisturizer Fair is Beautiful; Just Enough SPF 15 Tinted Moisturizer Golden Brown is Beautiful; Just Enough SPF 15 Tinted Moisturizer Ivory is Beautiful; Just Enough SPF 15 Tinted Moisturizer Light Beige is Beautiful; Just Enough SPF 15 Tinted Moisturizer Light Brown is Beautiful; Just Enough SPF 15 Tinted Moisturizer Tan is Beautiful; Just Shine by Australian Gold Broad Spectrum SPF 50 Pink Glitter Sunscreen; Just for Kids 30 SPF; Justice by Australian Gold Broad Spectrum SPF 50 Pink Glitter Sunscreen; KARA VITA Moisturizing Sunscreen with DNArescue; KINERASE SPF 30 Broad Spectrum UVA/UVB; KINESYS Broad Spectrum SPF 15 Alcohol-Free Sunscreen; KINESYS SPF 50 Funscreen Sunscreen for Kids; KISS MY FACE SPF-50 Face Factor; KISS MY FACE SUNSCREEN COOL SPORT broad spectrum spf 30; KISS MY FACE SUNSCREEN TATTOO SHADE broad spectrum spf 30; KISS MY FACE SUNSCREEN face factor broad spectrum spf 30; KISS MY FACE SUNSCREEN sun broad spectrum spf 30; KLAVUU BLUEPEARLSATION High Coverage Marine Collagen Aqua Cushion 21; KLAVUU BLUEPEARLSATION High Coverage Marine Collagen Aqua Cushion 23; KLAVUU RED PEARLSATION UV Protection City Defencer SPF50; KLAVUU UV Protection Secret Tone Up Sunscreen; KLAVUU WHITE PEARLSATION Ideal Actress Backstage Cream SPF30; Kara Vita Moisturizing Sunscreen SPF 15; Kara Vita SPF 29; Kara Vita SPF 30; Karavita Face Essential with SPF 15; Karavita Secret Code DNA Rescue Lip Care; Kelo-cote Uv SPF 30; Keri Daily Uvb/a Protection Lotion; Keri Skin Renewal; Key Lime Pie Shake SPF 15 Broad Spectrum Lip Balm; Key West Tan SPF15; Keys Soulcare Daily Moisturizer Broad Spectrum Spf30 Sunscreen; Kicho Cc; Kicho Correct Control; Kid's Sun Screen; Kid's Sunscreen SPF 46; Kid's Ultra Sunblock Lotion SPF 30; Kids (80 Minutes) Water Resistant Lotion SPF 30; Kids 30 SPF Sunblock Lotion; Kids 45 SPF Sunscreen Spray; Kids Disappearing Color SPF50 Broad Spectrum Suncreen Green Apple Scented; Kids Disappearing Color SPF50 Broad Spectrum Suncreen Pink Strawberry Scented; Kids Easy Block Spray SPF 30+; Kids Powder-dri Pour Enfants Sunscreen Lotion Ecran Solaire SPF/fps 30; Kids SPF 30 Spray; Kids SPF 45 Sunscreen Spray; Kids SPF 50; Kids SPF 50 Plus Sunscreen; Kids SPF 50 Sunscreen; Kids SPF 50 Sunscreen Spray; Kids Sprayable Sunscreen Lotion SPF 50; Kids Sunblock Lotion 30 SPF; Kids Sunscreen; Kids Sunscreen Continuous Spray; Kids Sunscreen Continuous Spray SPF 50+; Kids Sunscreen Continuous Spray SPF/fps 60; Kids Sunscreen Lotion 50+; Kids Sunscreen Lotion SPF 50+; Kids Sunscreen Lotion SPF/fps 60; Kids Sunscreen SPF 50; Kids Sunscreen SPF 50 Meijer; Kids Sunscreen SPF 50 Wegmans; Kids Sunscreen SPF 70; Kids Sunscreen SPF 70 Meijer; Kids Sunscreen Spray SPF 100; Kids Sunscreen Vaporisateur Ãcran Solaire Spray 45 SPF.fps; Kids Tear Free Sans Larmes Sunscreen Lotion Ãcran Solaire Pour Enfants SPF Fps 50; Kids Tear Free Sans Larmes Sunscreen Spray Ãcran Solaire En Vaporisateur Pour Enfants SPF Fps 30; Kids Tear Free Sans Larmes Sunscreen Spray Ãcran Solaire En Vaporisateur Pour Enfants SPF Fps 50; Kids Tear Free/ Sans Larmes Sunscreen Lotion/lotion Ãcran Solaire Pour Enfants SPF Fps 60; Kids Tear Free/ Sans Larmes Sunscreen Spray Ãcran Solaire En Vaporisateur Pour Enfants SPF Fps 60; Kids Ultra Sun Block Lotion SPF 30; Kids Uv Lotion; Kids Wet & Dry Sunscreen SPF 60; Kids' Sunscreen Broad Spectrum SPF 60 Lotion; Kids'sunscreen Broad Spectrum SPF 60 Spray; Kids/enfants SPF/fps 50; Kiehls Activated Sun Protector Sunscreen SPF 30 For Face and Body For All Skin Types; Kiehls Activated Sun Protector Sunscreen SPF 50 For Face and Body For All Skin Types; Kiehls Activated Sun Protector Ultra Light Sunscreen SPF 50 for Body Sweat and Water Resistant; Kiehls Since 1851 Activated Sun Protector Broad Spectrum SPF 30 Sunscreen Water Resistant 80 MInutes; Kiehls Since 1851 Activated Sun Protector Broad Spectrum SPF 30 Sunscreen for Body; Kiehls Since 1851 Activated Sun Protector Broad Spectrum SPF 50 Sunscreen; Kiehls Since 1851 Activated Sun Protector Broad Spectrum SPF 50 Sunscreen Water Resistant 80 MInutes; Kiehls Since 1851 Activated Sun Protector For Body Broad Spectrum SPF 50 Sunscreen; Kiehls Since 1851 Activated Sun Protector for Face Broad Spectrum SPF 50 Sunscreen; Kiehls Since 1851 Broad Spectrum SPF 30 Sunscreen Powerful Wrinkle Reducing; Kiehls Since 1851 CrossTerrain UV Skin Protector Broad Spectrum SPF 50 Sunscreen Water Resistant 80 Minutes; Kiehls Since 1851 CrossTerrain UV Skin Protector SPF 50 Water and Swear Resistant Sunscreen; Kiehls Since 1851 Dermatologist Solutions Activated Sun Protector Sunscreen Broad Spectrum SPF 50 For Body; Kiehls Since 1851 Dermatologist Solutions Skin Tone Correcting and Beautifying BB Sunscreen; Kiehls Since 1851 Dermatologist Solutions Super Fluid Daily UV Defense Broad Spectrum SPF 50 plus Sunscreen Antipollution Lightweight Formula; Kiehls Since 1851 Dermatologist Solutions Super Fluid UV Defense Ultra Light Sunscreen SPF 50 Plus; Kiehls Since 1851 Dermatologist Solutions SuperFluid UV Defense Broad Spectrum SPF 50 Plus Sunscreen; Kiehls Since 1851 Facial Fuel Daily Energizing Moisture Treatment for Men Broad Spectrum SPF 20 Sunscreen; Kiehls Since 1851 Facial Fuel Energizing Moisture Treatment for Men Broad Spectrum SPF 15 Sunscreen; Kiehls Since 1851 Facial Fuel UV Guard Broad Spectrum SPF 50 Plus Sunscreen WR80; Kiehls Since 1851 Facial Fuel UV Guard Fast Absorbing Sunscreen for Men SPF 50 Plus; Kiehls Since 1851 Super Multi Corrective Broad Spectrum SPF 30 Sunscreen; Kiehls Since 1851 Ultra Facial Broad Spectrum SPF 30 Sunscreen; Kiehls Since 1851 Ultra Facial Moisturizer Broad Spectrum SPF 30 Sunscreen For All Skin Types; Kiehls Super Fluid Daily UV Defense SPF 50 plus Anti-Pollution Lightweight Formula for All Skin Types; Kinesys; Kinesys Broad Spectrum SPF 30 Alcohol-Free Performance Sunscreen - Fragrance Free; Kinesys Broad Spectrum SPF 30 Alcohol-Free Performance Sunscreen Fragrance-Free; Kinesys Broad Spectrum SPF 30 Alcohol-Free Sunscreen; Kinesys Broad Spectrum SPF 30 Alcohol-Free Sunscreen - Mango Scent; Kinesys Broad Spectrum SPF 30 Girl Alcohol-Free Sunscreen; Kinesys Broad Spectrum SPF 30 KiDS Alcohol-Free Sunscreen; Kinesys Broad Spectrum SPF 30 Kids Alcohol-Free Sunscreen; Kinesys Broad Spectrum SPF 30 girl Alcohol-Free Sunscreen; Kinesys Broad Spectrum SPF 50 Alcohol Free Sunscreen; Kinesys SPF 30 Solid Sunscreen; Kinesys SPF 30 Sun Stick; Kinesys Sport SPF 30 Oilfree Sunscreen With Mango; Kiss My Face - Face Factor SPF 30; Kiss My Face - Oat Protein Complex SPF 30; Kiss My Face Bare Naked Broad Spectrum SPF 30; Kiss My Face Cool Sport SPF 50 Broad Spectrum; Kiss My Face Kids Defense Broad Spectrum SPF 50; Kiss My Face SPF-15 Dry; Kiss My Face Sunblock With Oat Protein Complex SPF 30; Kiss and Shield Lip Balm Lemon Lime SPF 30; Klenskin Broad Spectrum Sunscreen SPF-30; Klenskin SPF Lip Balm Broad Spectrum SPF-50 (all Flavors); Klenskin Sunscreen Face and Body Broad Spectrum SPF 30; Kocostar Sun Block Capsule Mask; Kopher Calming Ocean Sun; Korres Suncare Yoghurt Nourishing Fluid Veil Face Sunscreen Broad Spectrum SPF 30; Korres Suncare Yoghurt Nourishing Milk Body Sunscreen Broad Spectrum SPF 44; Kroger Baby SPF 50; Kroger Baby SPF 50 Sunscreen; Kroger Baby Sunscreen SPF 70; Kroger Dry Oil Tanning Sunscreen Broad Spectrum SPF 15 Reef Friendly; Kroger Dry Touch Ultra Sheer SPF 100 Sunscreen; Kroger Dry Touch Ultra Sheer SPF 70 Sunscreen; Kroger Kids SPF 50 Sunscreen; Kroger Kids SPF 50 Sunstick; Kroger Kids Sunscreen SPF 70; Kroger Kids Tear Free Spf50; Kroger Kroger Kids Sunscreen SPF 50; Kroger Oil Free Sunscreen SPF 30; Kroger SPF 15; Kroger SPF 30 Sunscreen; Kroger SPF 50; Kroger Sheer Dry Touch Sunscreen SPF 55; Kroger Sheer Dry Touch Sunscreen SPF 70; Kroger Sheer dry-touch SFP 30; Kroger Sport SPF 15 Sunscreen; Kroger Sport SPF 30 Sunscreen; Kroger Sport SPF 50 Sunstick; Kroger Sport Sunscreen Broad Spectrum SPF 15; Kroger Sport Sunscreen SPF 30; Kroger Sport Sunscreen SPF 50; Kroger Sport sunscreen SPF 50; Kroger Sunscreen SPF 30; Kroger Tanning SPF 15 Sunscreen; L OCCITANE AU BRESIL - JENIPAPO Protecting Body Jelly Milk SPF 20 Broad Spectrum; L OCCITANE AU BRESIL - JENIPAPO Protecting Body SPF 15 Broad Spectrum; L OCCITANE FRESH BODY with Organic Verbena Extract SPF25 Broad Spectrum Sunscreen; L Occitane Cade Protective Moisturizing Fluid - for Men Broad Spectrum SPF 20 Sunscreen; L Occitane Immortelle Brightening Hand Care Broad Spectrum SPF 20 Sunscreen; L Occitane Immortelle Precious Protection Broad Spectrum SPF 20 Sunscreen; L Occitane Youthful Hand with Almond Tree Native Cells Broad Spectrum SPF 15 Sunscreen; L.A. Tan SPF 4 Lotion Filtre Solaire; LA Bodies Eclipse Sunscreen SPF 30; LA Bodies Eclipse Sunscreen SPF 50; LA MER THE REPARATIVE BODY SUN Broad Spectrum SPF 30; LA MER THE REPARATIVE FACE SUN Broad Spectrum SPF 30; LA Mer The Broad Spectrum SPF 50 Uv Protecting Fluid; LA Mer The Radiant Skintint Broad Spectrum SPF 30; LA Mer The Reparative Body Sun Lotion SPF 30; LA Mer The Reparative Face Sun Lotion SPF 30; LA Mer The Reparative Skin Tint Broad Spectrum SPF 30; LA Mer The SPF 50 Uv Protecting Fluid; LA Muse Return 2 Blessing Visual; LAPCOS Doublet Cover Cushion 01 Rosy Ivory; LAPCOS Doublet Cover Cushion 02 Neutral Beige; LAPCOS Fresh Daily Sun; LAPCOS Lasting Waterproof Sun; LAPCOS Stay With Me Cushion 01 Rosy Ivory; LAPCOS Stay With Me Cushion 02 Neutral Beige; LAPOTHICELL Sunscreen; LAURA GELLER BEAUTY SUN KISSED COLOR LIP BALM TRIO BROAD SPECTRUM SPF 15 Pink - Coral - Berry; LAURA GELLER BETTER THAN BARE TINTED MOISTURIZER BROAD SPECTRUM SUNSCREEN SPF 50 Plus Beige 200; LAURA GELLER BETTER THAN BARE TINTED MOISTURIZER BROAD SPECTRUM SUNSCREEN SPF 50 Plus Deep 430; LAURA GELLER BETTER THAN BARE TINTED MOISTURIZER BROAD SPECTRUM SUNSCREEN SPF 50 Plus Fair 130; LAURA GELLER BETTER THAN BARE TINTED MOISTURIZER BROAD SPECTRUM SUNSCREEN SPF 50 Plus Medium 230; LAURA GELLER BETTER THAN BARE TINTED MOISTURIZER BROAD SPECTRUM SUNSCREEN SPF 50 Plus Sand 400; LAURA GELLER BETTER THAN BARE TINTED MOISTURIZER BROAD SPECTRUM SUNSCREEN SPF 55- Beige 200; LAURA GELLER BETTER THAN BARE TINTED MOISTURIZER BROAD SPECTRUM SUNSCREEN SPF 55- Deep 430; LAURA GELLER BETTER THAN BARE TINTED MOISTURIZER BROAD SPECTRUM SUNSCREEN SPF 55- Fair 130; LAURA GELLER BETTER THAN BARE TINTED MOISTURIZER BROAD SPECTRUM SUNSCREEN SPF 55- Medium 230; LAURA GELLER BETTER THAN BARE TINTED MOISTURIZER BROAD SPECTRUM SUNSCREEN SPF 55- Sand 400; LAURA GELLER spackle Broad Spectrum SPF 30 protective under make-up primer; LAURA MERCIER TINTED MOISTURIZER SPF 20 Almond; LAURA MERCIER TINTED MOISTURIZER SPF 20 Bisque; LAURA MERCIER TINTED MOISTURIZER SPF 20 Blush; LAURA MERCIER TINTED MOISTURIZER SPF 20 Fawn; LAURA MERCIER TINTED MOISTURIZER SPF 20 Porcelain; LAURA MERCIER TINTED MOISTURIZER SPF 20 Tawny; LAURA MERCIER TINTED MOISTURIZER SPF 20 Walnut; LBEL DEFENSE 365 Daily Protective Facial SPF 50; LBEL DEFENSE 365 oil-free daily protective facial SPF 50; LBEL Dermo Clarite; LBEL Dermo Clarite Clarifying and Moisturizing with SPF 30; LBEL ESSENTIAL Deep moisturizing and oxygenating SPF 20 normal to dry skin; LBEL ESSENTIAL Deep moisturizing and oxygenating SPF 20 normal to oily skin; LBEL ESSENTIAL deep moisturizing and oxygenating SPF 20 normal to oily skin; LBEL ESSENTIAL moisturizing and oxygenating SPF 20 normal to dry skin; LBEL HYDRA CALME SPF 15 Intensive Moisturizing Facial; LBEL Hydra Calme; LBEL Hydra Calme SPF 15; LBEL LEDERM 35 plus JOUR Facial against first signs of aging; LBEL LEDERM 35plus Jour SPF 15 Facial Treatment Against First Signs of Aging Day - Normal to Dry Skin; LBEL LEDERM 35plus Jour SPF 15 Facial Treatment Against First Signs of Aging Day - Oily Skin; LBEL LEDERM 45 plus JOUR Facial against noticeable signs of aging; LBEL LEDERM 45plus Jour SPF 15 Facial Treatment Against Noticeable Signs of Aging Day - Normal to Dry Skin; LBEL LEDERM 45plus Jour SPF 15 Facial Treatment Against Noticeable Signs of Aging Day - Oily Skin; LBEL LEDERM 55 plus JOUR Facial against advanced signs of aging; LBEL LEDERM 55plus Jour SPF 15 Facial Treatment Against Advanced Signs of Aging Day - All Skin Types; LBEL REGRESSION JOUR Protective Complex With SPF 15 Facial Day Normal to Combination Skin; LBel Clarifique Dermo Radiance Mains SPF 15; LBel Paris Regression Jour; LBel Protege Expert; LBri Pure nNatural Oil Free Moisturizer; LEDERM DAY SUNSCREEN BROAD SPECTRUM SPF 15 day facial SPF 15 against noticeable signs of aging all skin types; LIDL Dry Tanning Oil Sunscreen SPF 15; LIDL Sport SPF 50; LOCCITANE ALMOND VELVET HANDS Youthful Hand Broad Spectrum SPF 15 Sunscreen; LOVLUV Vivacity Bright BB Cream; LOVLUV Vivacity Bright Cushion 13g; LOVLUV Vivacity Bright Cushion 21g; LOreal Paris Advanced Suncare Invisible Protect Clear Cool 30 Broad Spectrum SPF 30 Sunscreen; LOreal Paris Advanced Suncare Invisible Protect Clear Cool 50 Plus Broad Spectrum SPF 50 Plus Sunscreen; LOreal Paris Advanced Suncare Invisible Protect Dry 15 Sunscreen Broad Spectrum SPF 15; LOreal Paris Advanced Suncare Invisible Protect Dry 30 Broad Spectrum SPF 30 Sunscreen; LOreal Paris Advanced Suncare Invisible Protect Dry 50 Plus Broad Spectrum SPF 50 Plus Sunscreen; LOreal Paris Advanced Suncare Invisible Protect Sheer 30 Broad Spectrum SPF 30 Sunscreen; LOreal Paris Advanced Suncare Invisible Protect Sheer 50 Plus Broad Spectrum SPF 50 Plus; LOreal Paris Advanced Suncare Quick Dry Sheer Finish 30 Broad Spectrum SPF 30 Sunscreen; LOreal Paris Advanced Suncare Quick Dry Sheer Finish 50 Plus Broad Spectrum SPF 50 Plus Sunscreen; LOreal Paris Advanced Suncare Silky Sheer 30 Broad Spectrum SPF 30 Sunscreen; LOreal Paris Advanced Suncare Silky Sheer 50 Plus Broad Spectrum SPF 50 Plus Sunscreen; LOreal Paris Advanced Suncare Silky Sheer BB Face 50 Plus Broad Spectrum SPF 50 Plus Sunscreen; LOreal Paris Advanced Suncare Silky Sheer Face 30 Broad Spectrum SPF 30 Sunscreen; LOreal Paris Advanced Suncare Silky Sheer Face 50 Plus Broad Spectrum SPF 50 Plus Sunscreen; LOreal Paris Age Perfect Cell Renewal Day Moisturizer Broad Spectrum SPF 15 Sunscreen; LOreal Paris Age Perfect Glow Renewal Day Moisturizer Broad Spectrum SPF 30 Sunscreen; LOreal Paris Age Perfect Hydra Nutrition Instant Glow Daily Broad Spectrum SPF 30 Sunscreen; LOreal Paris AntiSagging Plus Even Tone Collagen Expert Moisturizer Broad Spectrum SPF 30 Sunscreen; LOreal Paris Ideal Moisture Dry Skin Broad Spectrum SPF 25 Sunscreen; LOreal Paris Ideal Moisture Even Skin Tone Moisturizer Broad Spectrum SPF 25 Sunscreen; LOreal Paris Ideal Moisture Normal Skin Broad Spectrum SPF 25 Sunscreen; LOreal Paris Ideal Moisture Sensitive Skin Broad Spectrum SPF 25 Sunscreen; LOreal Paris Men Expert Comfort Max Hydra Energetic After Shave Balm Broad Spectrum SPF 15 Sunscreen; LOreal Paris Men Expert Vita Lift Daily Moisturizer Sunscreen Broad Spectrum SPF 15; LOreal Paris Revitalift Clinical Repair 10 SPF 20; LOreal Paris Revitalift Derm Intensives Invisible UV Fluid Broad Spectrum SPF 50 Sunscreen; LOreal Paris Revitalift Miracle Blur Broad Spectrum SPF 30 Sunscreen; LOreal Paris Revitalift Triple Power Broad Spectrum SPF 30 Sunscreen; LOreal Paris Skin Expert Revitalift Bright Reveal Brightening Day Moisturizer Broad Spectrum SPF 30 Sunscreen; LOreal Paris Skin Expertise Age Perfect Broad Spectrum SPF 20 Sunscreen BB; LOreal Paris Skin Expertise Revitalift Complete SPF 30 Day Antiwrinkle and Firming Moisturizer; LOreal Paris Skin Expertise Revitalift Deep-Set Wrinkle Repair Eye 24 Hour Eye Repair Duo SPF 15; LOreal Paris Sublime Bronze Summer Express Wash Off Face Bronzer Broad Spectrum SPF 20 Sunscreen; LOreal Paris Sublime Sun 30 Crystal Clear Sunscreen Mist Broad Spectrum SPF 30 Water Resistant; LOreal Paris Sublime Sun Advanced Sunscreen SPF 30; LOreal Paris Sublime Sun Advanced Sunscreen SPF 30 Crystal Clear Mist; LOreal Paris Sublime Sun Advanced Sunscreen SPF 30 Hydra; LOreal Paris Sublime Sun Advanced Sunscreen SPF 50 Plus; LOreal Paris Sublime Sun Advanced Sunscreen SPF 50 Plus Crystal Clear Mist; LOreal Paris Sublime Sun Advanced Sunscreen SPF 50 Plus Hydra; LOreal Paris Sublime Sun Advanced Sunscreen SPF 50 Plus Silk Sunshield For Face; LOreal Paris Visible Lift CC Broad Spectrum SPF 20 Light Medium; LOreal Paris Visible lift Medium Deep CC Broad Spectrum SPF 20; LOreal Paris Wrinkle Expert Age Defense 55 Plus Broad Spectrum SPF 30 Sunscreen; LOreal Paris Youth Code Dark Spot Corrector Broad Spectrum SPF 30 Sunscreen; LOreal Paris Youth Code Day; LUACELL Illuminating White Label Sun Cream; LUMENE Sensitive Touch Daily Moisture SPF 15 Sunscreen; LUMIOR Daylight Moisturizer Broad Spectrum SPF 20; LUMIOR Empowered Day Moisturizer Broad Spectrum SPF 15; LUMIOR Exclusive Day Broad Spectrum SPF 20; LUMIOR Men Facial Moisturizer Broad Spectrum SPF 15; La Praire Switzerland Advanced Marine Biology Day SPF 20; La Prairie Cellular Radiance Emulsion; La Prairie Sun Protection Face; La Prairie Switzerland Anti-Aging Day Cream SPF 30; La Prairie Switzerland Anti-Wrinkle SunScreen SPF 30; La Prairie Switzerland Cellular Radiance Emulsion; La Prairie Switzerland Eye SPF 15; La Roche Posay Anthelios 30 Ultralight Sunscreen; La Roche Posay Anthelios 60 Ultralight Sunscreen; La Roche Posay Anthelios Sunscreen SPF 60 Ultra light; La Roche Posay Face Body Anthelios SPF 60 Melt In Milk Fast absorbing, velvety finish for all skin types with Cell-OC Shield XL; La Roche Posay Laboratoire Dermatologique Anthelios 30 Cooling Water Broad Spectrum SPF 30 Sunscreen; La Roche Posay Laboratoire Dermatologique Anthelios 45 Ultra Light Sunscreen Fluid Broad Spectrum SPF 45 Sunscreen Water Resistant 40 Minutes; La Roche Posay Laboratoire Dermatologique Anthelios 45 Ultra Light Sunscreen Fluid Water Resistant 40; La Roche Posay Laboratoire Dermatologique Anthelios 50 Daily Antiaging Primer with Sunscreen; La Roche Posay Laboratoire Dermatologique Anthelios 60 Breakout Free Oil Free Face Dry Touch Broad Spectrum SPF 60 Sunscreen Water Resistant 80 Minutes; La Roche Posay Laboratoire Dermatologique Anthelios 60 Face Light Fluid Sunscreen Broad Spectrum SPF 60 Water Resistant 80 Minutes; La Roche Posay Laboratoire Dermatologique Anthelios 60 Face Ultra Light Fluid Sunscreen Broad Spectrum SPF 60; La Roche Posay Laboratoire Dermatologique Anthelios 60 Face and Body Cooling Water Broad Spectrum SPF 60 Sunscreen Water Resistant 80 Minutes; La Roche Posay Laboratoire Dermatologique Anthelios 60 Melt In Sunscreen Milk Broad Spectrum SPF 60 Face and Body; La Roche Posay Laboratoire Dermatologique Anthelios 60 Melt In Sunscreen Milk Face and Body Broad Spectrum SPF 60 Water Resistant 80 Minutes; La Roche Posay Laboratoire Dermatologique Anthelios 60 Ultra Light Sunscreen Broad Spectrum SPF 60 Water Resistant 80 Minutes; La Roche Posay Laboratoire Dermatologique Anthelios 60 Ultra Light Sunscreen Fluid; La Roche Posay Laboratoire Dermatologique Anthelios AOX Daily Antioxidant Serum Broad Spectrum SPF 50 Sunscreen; La Roche Posay Laboratoire Dermatologique Anthelios Broad Spectrum SPF 100 Body and Face Melt In Milk Sunscreen Water Resistant 80 Minutes; La Roche Posay Laboratoire Dermatologique Anthelios Clear Skin Face Oil Free Dry Touch Broad Spectrum SPF 60 Sunscreen Water Resistant 80 Minutes; La Roche Posay Laboratoire Dermatologique Anthelios Dermo Kids Gentle Face and Body Broad Spectrum SPF 60 Sunscreen Water Resistant 80 Minutes; La Roche Posay Laboratoire Dermatologique Anthelios Kids Gentle Broad Spectrum SPF 50 Sunscreen for Face and Body Water Resistant 80 Minutes; La Roche Posay Laboratoire Dermatologique Anthelios UV Correct Broad Spectrum SPF 70 Daily Sunscreen; La Roche Posay Laboratoire Dermatologique Hydraphase UV Intense Broad Spectrum SPF 20 Sunscreen; La Roche Posay Laboratoire Dermatologique Hydraphase UV Intense Moisturizer Broad Spectrum SPF 20 Sunscreen; La Roche Posay Laboratoire Dermatologique Pigmentclar Daily Dark Spot Correcting Moisturizer Broad Spectrum SPF 30 Sunscreen; La Roche Posay Laboratoire Dermatologique Rosaliac Daily Complete Tone Correcting Broad Spectrum SPF 30 Sunscreen CC; La Roche Posay Laboratoire Dermatologique Sport Anthelios Activewear Broad Spectrum SPF 60 Sunscreen; La Roche Posay Laboratoire Dermatologique Toleriane Double Repair Moisturizer UV Broad Spectrum SPF 30 Sunscreen; La Roche Posay Redermic C UV Sunscreen; La Roche Posay Redermic plus UV Intensive Daily Antiwrinkle Firming Fill In Care; La Roche-Posay Laboratoire Dermatologique Anthelios 45 Ultra Light Sunscreen Fluid SPF 45; La Roche-Posay Laboratoire Dermatologique Anthelios 60 Ultra Light Sunscreen Fluid; La Roche-Posay Laboratoire Pharmaceutique Anthelios 60 Melt In Sunscreen Milk SPF 60; La Roche-Posay Laboratoire Pharmaceutique Anthelios 60 Melt In Sunscreen SPF 60; La Roche-Posay Laboratoire Pharmaceutique Rosaliac UV Fortifying Anti Redness Moisturizer SPF 15; Lab Series Day Rescue Defense Broad Spectrum SPF 35; Lab Series Day Rescue Defense Lotion SPF 35; Lab Series Skincare for Men Bb Tinted Moisturizer Broad Spectrum SPF 35; Lab Series Skincare for Men Daily Moisture Defense Broad Spectrum SPF 15; Lab Series Skincare for Men Daily Moisture Defense Lotion SPF 15; Lab Series Super Lift Off! Aha/bha Face Lotion SPF 15; Labo De Dermafirm Sun Defense Fluid; Labode Dermafirm Sun Defense Make Up Base; Lacura Face Care Q10 Day SPF-15; Lagom CF Cushion 10; Lagom CF Cushion 20; Lagom CF Cushion 30; Lagom Cellus Sun Gel; Lait De Chevre SPF 15; Lait Protecteur Fps 60; Lait Solaire Corps Fps 50+; Lait Solaire Corps Lotion Protectrice Corps Fps 30; Lait Solaire Corps Lotion Protectrice Corps Fps 50 Plus; Lait Solaire Corps Protection Solaire Fps 15; Lamuse Return 2 Blessing Visual Balm; Lancome Absolue Precious Cells Advanced Regenerating and Reconstructing Cream SPF 15 Sunscreen; Lancome Absolue Revitalizing Brightening Velvet SPF 15 with Grand Rose Extracts; Lancome Bienfait UV SPF 50 Plus Super Fluid Facial Sunscreen; Lancome Paris Absolue Hand Premium Bx Broad Spectrum SPF 15 Sunscreen Absolute Anti Age Spot Unifying And Replenishing Treatment; Lancome Paris Absolue Precious Cells Broad Spectrum SPF 15 Sunscreen Intense Revitalizing; Lancome Paris Absolue Precious Cells Sunscreen Repairing and Recovering Day; Lancome Paris Absolue Premium Bx Absolute Replenishing SPF 15; Lancome Paris Absolue Premium Bx Broad Spectrum SPF 15 Sunscreen Absolute Replenishing; Lancome Paris Absolue Premium Bx Replenishing and Rejuvenating Day; Lancome Paris Absolue Revitalizing Brightening Velvet Sunscreen Broad Spectrum SPF 15; Lancome Paris Bienfait MultiVital Broad Spectrum SPF 30 Sunscreen; Lancome Paris Bienfait MultiVital Broad Spectrum SPF 30 Sunscreen 24 Hour Moisturization Antioxidant and Vitamin Enriched; Lancome Paris Bienfait MultiVital Eye Broad Spectrum SPF 30 Sunscreen; Lancome Paris Bienfait UV 50 Plus Broad Spectrum SPF 50 Plus Water Resistant 80 Minutes Super Fluid Facial Sunscreen; Lancome Paris City Miracle Broad Spectrum SPF 50 Sunscreen CC; Lancome Paris Flash Bronzer AntiAge Tinted AntiAge Self Tanning Face SPF 15; Lancome Paris High Resolution Refill 3X Triple Action Renewal Anti Wrinkle Broad Spectrum SPF 15 Sunscreen; Lancome Paris Renergie Lift Multi Action All; Lancome Paris Renergie Lift Multi Action Broad Spectrum SPF 15 Sunscreen Lifting and Firming for Dry Skin; Lancome Paris Renergie Lift MultiAction Dry; Lancome Paris Renergie Lift MultiAction Lifting and Firming For All Skin Types Broad Spectrum SPF 15 Sunscreen; Lancome Paris Renergie Lift MultiAction Sunscreen Broad Spectrum SPF 15 Lift and Firming Face and Neck All Skin Types; Lancome Paris Renergie Lift MultiAction Ultra Firming and Dark Spot Correcting Moisturizer Broad Spectrum SPF 30 Sunscreen; Lancome Paris Renergie Lift MultiAction Ultra Lifting Firming Dark Spot Correcting Broad Spectrum SPF 30 Sunscreen; Lancome Paris Renergie Lift Volumetry Volumetric Lifting and Reshaping SPF 15 Normal Combination Skin; Lancome Paris Renergie Lift Volumetry Volumetric Lifting and Reshaping SPF 15 Normal to Dry Skin; Lancome Paris UV Expert Aquagel Defense 50 Plus Sunscreen Broad Spectrum SPF 50 Plus Primer and Moisturizer; Lancome Paris UV Expert Aquagel Defense 50 Plus Sunscreen Broad Spectrum SPF 50 Plus Primer and Moisturizer with Antioxidant Vitamin E; Lancome Paris Visionnaire Broad Spectrum SPF 20 Sunscreen Advanced Multi Correcting All Skin Types; Lancome UV Expert Aquagel Defense 50 Broad Spectrum SPF 50 with Antioxidant Vitamin E; LancÃ´me - Flash Bronzer SPF 15; LancÃ´me Bienfait Total Uv SPF 15; Land Shark Pups SPF 50; Land Shark SPF 15; Land Shark SPF 20; Land Shark SPF 30; Land Shark SPF 45; Land Shark SPF 50; Land Shark SPF 50 Sport; Laneige Hydro UV Defense; Laneige Triple Sunscreen; Large Ãcran Uv Ultra Uv Sunscreen; Laser Max Sunstick SPF50; Laser Sun Block 100 SPF50; Laser Sunscreen 100; Lasting Results Moisturizer; Laszlo Blue Cream/crÃ¨me SPF 30; Laundryou Clear Defense Cushion Glow 21 Uyuni Beige; Laundryou Clear Defense Cushion Glow 23 Cannelle Beige; Laura Geller Beauty Tuscan Sun Spackle SPF 30 Protective Under Make-UP Primer Deep; Laura Geller Beauty Tuscan Sun Spackle SPF 30 Protective Under Make-UP Primer Fair; Laura Geller Beauty Tuscan Sun Spackle SPF 30 Protective Under Make-UP Primer Medium; Laura Geller Beauty Tuscan Sun Spackle SPF 30 Protective Under Make-UP Primer Porcelain; Laura Geller Beauty Tuscan Sun Spackle SPF 30 Protective Under Make-UP Primer Tan; Laura Mercier Tinted Moisturizer Creme Compact Broad Spectrum SPF 20 Sunscreen CAMEO; Laura Mercier Tinted Moisturizer Creme Compact Broad Spectrum SPF 20 Sunscreen NATURAL; Laura Mercier Tinted Moisturizer Creme Compact Broad Spectrum SPF 20 Sunscreen OCHRE; Laura Mercier Tinted Moisturizer Light Revealer Natural Skin Illuminator Broad Spectrum SPF 25 Sunscreen 0N1 Petal; Laura Mercier Tinted Moisturizer Light Revealer Natural Skin Illuminator Broad Spectrum SPF 25 Sunscreen 0W1 Pearl; Laura Mercier Tinted Moisturizer Light Revealer Natural Skin Illuminator Broad Spectrum SPF 25 Sunscreen 1C0 Cameo; Laura Mercier Tinted Moisturizer Light Revealer Natural Skin Illuminator Broad Spectrum SPF 25 Sunscreen 1W1 Porcelain; Laura Mercier Tinted Moisturizer Light Revealer Natural Skin Illuminator Broad Spectrum SPF 25 Sunscreen 2N1 Nude; Laura Mercier Tinted Moisturizer Light Revealer Natural Skin Illuminator Broad Spectrum SPF 25 Sunscreen 2W1 Natural; Laura Mercier Tinted Moisturizer Light Revealer Natural Skin Illuminator Broad Spectrum SPF 25 Sunscreen 3N1 Sand; Laura Mercier Tinted Moisturizer Light Revealer Natural Skin Illuminator Broad Spectrum SPF 25 Sunscreen 3W1 Bisque; Laura Mercier Tinted Moisturizer Light Revealer Natural Skin Illuminator Broad Spectrum SPF 25 Sunscreen 4C1 Almond; Laura Mercier Tinted Moisturizer Light Revealer Natural Skin Illuminator Broad Spectrum SPF 25 Sunscreen 4W1 Tawny; Laura Mercier Tinted Moisturizer Light Revealer Natural Skin Illuminator Broad Spectrum SPF 25 Sunscreen 5N1 Walnut; Laura Mercier Tinted Moisturizer Light Revealer Natural Skin Illuminator Broad Spectrum SPF 25 Sunscreen 5W1 Tan; Laura Mercier Tinted Moisturizer Light Revealer Natural Skin Illuminator Broad Spectrum SPF 25 Sunscreen 6C1 Cacao; Laura Mercier Tinted Moisturizer Light Revealer Natural Skin Illuminator Broad Spectrum SPF 25 Sunscreen 6N1 Mocha; Laura Mercier Tinted Moisturizer Oil Free Broad Spectrum 20 Sunscreen 3C1 Fawn; Laura Mercier Tinted Moisturizer Oil Free Broad Spectrum SPF 20 Sunscreen 1C1 Cameo; Laura Mercier Tinted Moisturizer Oil Free Broad Spectrum SPF 20 Sunscreen 1W1 Porcelain; Laura Mercier Tinted Moisturizer Oil Free Broad Spectrum SPF 20 Sunscreen 2C1 Blush; Laura Mercier Tinted Moisturizer Oil Free Broad Spectrum SPF 20 Sunscreen 2W1 Bisque; Laura Mercier Tinted Moisturizer Oil Free Broad Spectrum SPF 20 Sunscreen 2W2 Nude; Laura Mercier Tinted Moisturizer Oil Free Broad Spectrum SPF 20 Sunscreen 2W3 Natural; Laura Mercier Tinted Moisturizer Oil Free Broad Spectrum SPF 20 Sunscreen 3W1 Ochre; Laura Mercier Tinted Moisturizer Oil Free Broad Spectrum SPF 20 Sunscreen 3W2 Sand; Laura Mercier Tinted Moisturizer Oil Free Broad Spectrum SPF 20 Sunscreen 4C1 Almond; Laura Mercier Tinted Moisturizer Oil Free Broad Spectrum SPF 20 Sunscreen 4W1 Tawny; Laura Mercier Tinted Moisturizer Oil Free Broad Spectrum SPF 20 Sunscreen 5C1 Caramel; Laura Mercier Tinted Moisturizer Oil Free Broad Spectrum SPF 20 Sunscreen 5W1 Tan; Laura Mercier Tinted Moisturizer Oil Free Broad Spectrum SPF 20 Sunscreen 6C1 Walnut; Laura Mercier Tinted Moisturizer Oil Free Broad Spectrum SPF 20 Sunscreen 6W1 Mocha; Laura Mercier Tinted Moisturizer Oil Free Natural Skin Perfector Broad Spectrum SPF 20 Sunscreen 0N1 Petal; Laura Mercier Tinted Moisturizer Oil Free Natural Skin Perfector Broad Spectrum SPF 20 Sunscreen 0W1 Pearl; Laura Mercier Tinted Moisturizer Oil Free Natural Skin Perfector Broad Spectrum SPF 20 Sunscreen 1C0 Cameo; Laura Mercier Tinted Moisturizer Oil Free Natural Skin Perfector Broad Spectrum SPF 20 Sunscreen 1N2 Vanille; Laura Mercier Tinted Moisturizer Oil Free Natural Skin Perfector Broad Spectrum SPF 20 Sunscreen 1W1 Porcelain; Laura Mercier Tinted Moisturizer Oil Free Natural Skin Perfector Broad Spectrum SPF 20 Sunscreen 2C1 Blush; Laura Mercier Tinted Moisturizer Oil Free Natural Skin Perfector Broad Spectrum SPF 20 Sunscreen 2N1 Nude; Laura Mercier Tinted Moisturizer Oil Free Natural Skin Perfector Broad Spectrum SPF 20 Sunscreen 2W1 Natural; Laura Mercier Tinted Moisturizer Oil Free Natural Skin Perfector Broad Spectrum SPF 20 Sunscreen 3C1 Fawn; Laura Mercier Tinted Moisturizer Oil Free Natural Skin Perfector Broad Spectrum SPF 20 Sunscreen 3N1 Sand; Laura Mercier Tinted Moisturizer Oil Free Natural Skin Perfector Broad Spectrum SPF 20 Sunscreen 3W1 Bisque; Laura Mercier Tinted Moisturizer Oil Free Natural Skin Perfector Broad Spectrum SPF 20 Sunscreen 4C1 Almond; Laura Mercier Tinted Moisturizer Oil Free Natural Skin Perfector Broad Spectrum SPF 20 Sunscreen 4N1 Wheat; Laura Mercier Tinted Moisturizer Oil Free Natural Skin Perfector Broad Spectrum SPF 20 Sunscreen 4W1 Tawny; Laura Mercier Tinted Moisturizer Oil Free Natural Skin Perfector Broad Spectrum SPF 20 Sunscreen 5C1 Nutmeg; Laura Mercier Tinted Moisturizer Oil Free Natural Skin Perfector Broad Spectrum SPF 20 Sunscreen 5N1 Walnut; Laura Mercier Tinted Moisturizer Oil Free Natural Skin Perfector Broad Spectrum SPF 20 Sunscreen 5W1 Tan; Laura Mercier Tinted Moisturizer Oil Free Natural Skin Perfector Broad Spectrum SPF 20 Sunscreen 6C1 Cacao; Laura Mercier Tinted Moisturizer Oil Free Natural Skin Perfector Broad Spectrum SPF 20 Sunscreen 6N1 Mocha; Laura Mercier Tinted Moisturizer Oil Free Natural Skin Perfector Broad Spectrum SPF 20 Sunscreen 6W1 Ganache; Laura Mercier Tinted Moisturizer SPF 20 Caramel; Laura Mercier Tinted Moisturizer SPF 20 MOCHA; Laura Mercier Tinted Moisturizer SPF 20 Nude; Laura Mercier Tinted Moisturizer SPF 20 SAND; Laura Mercier Tinted Moisturizer SPF 20 Tan; Lava Lava Lip Balm Broad Spectrum SPF 30; Lavelier Divine Day Defense Broad Spectrum SPF 30; Lbel Defense 365 Daily Protective Facial SPF 50; Lbel Defense 365 Daily Protective SPF 50; Lbel Dermo Clarite Brightening and Moisturizing Facial SPF 30; Lbel Dermo Clarite Locion Facial Iluminadora Hidratante Con Fps 30 Brightening and Moisturizing Facial SPF 30; Lbel Lederm Day Sunscreen Broad Spectrum SPF 15; Lbel Protege Expert; Lbel Uv Defense 365; Lbio Block Spf50; Lbio Block Tinted 30spf; Le Lou Collagen Day SPF 30; Le Velvet Film Makeup Refill - Crm; Le Velvet Film Makeup Refill SPF 15; Leader Baby SPF 50; Leader Baby Sunscreen SPF 50; Leader GP SPF 15 CS; Leader General Protection SPF 30; Leader General Protection SPF 30 Sunscreen; Leader General Protection SPF 70; Leader General Protection Sunscreen SPF 30; Leader General Protection Sunscreen SPF 50; Leader Kids SPF 50 Sunscreen; Leader Kids SPF 90; Leader Sport SPF 30; Leader Sport SPF 50; Leader Sport Sunscreen SPF 50; Leader Sport Sunscreen SPF 50 Moisturizing; Leader Ultra Sheer SPF 100 Sunscreen; Leaders Sunbuddy Daily Moisture Sunscreen; Leaders Sunbuddy Uv Cut Sun; Lee Hands Free Lip-balm SPF 30; Legend Age Whitening Sunscreen; Lemonade SPF 15 Broad Spectrum Lip Balm; Life Brand Baby Sunblock 30 SPF; Life Brand Kids & Babies Sunblock SPF 45; Life Brand Kids Sunblock 30 SPF; Life Brand Kids Sunscreen Clear Continuous Spray SPF/fps 60; Life Brand Kids Sunscreen Lotion SPF 50+; Life Brand Kids Sunscreen Spray; Life Brand SPF 15 Sport Sunblock; Life Brand SPF 15 Sunblock; Life Brand SPF 30 Sport Sunblock; Life Brand SPF 30 Sunblock; Life Brand Sport Sunblock 15 SPF; Life Brand Sport Sunblock 30 SPF; Life Brand Sport Sunscreen Broad Spectrum Spray; Life Brand Sport Sunscreen Continuous Spray; Life Brand Sport Sunscreen Continuous Spray No Pumping Needed; Life Brand Sport Sunscreen Continuous Spray SPF 50+; Life Brand Sunblock 30 SPF; Life Brand Sunblock 30 SPF - Lot Top; Life Brand Sunlotion Lotionsolaire 4 SPF/fps Protection; Life Brand Sunscreen Continuous Spray; Life Brand Sunscreen Continuous Spray Coconut Lime Scented SPF/fps 30; Life Brand Sunscreen Continuous Spray No Pumping Needed SPF/fps 85; Life Brand Sunscreen Continuous Spray Pomegranate Scented SPF/fps 30; Life Brand Sunscreen Continuous Spray SPF/fps 15; Life Brand Sunscreen Face Lotion SPF 50+; Life Brand Sunscreen Lotion SPF 30; Life Brand Sunscreen Lotion SPF 50+; Life Brand Sunscreen Lotion Ãcran Solaire 30 SPF/fps; Life Brand Sunscreen Lotion Ãcran Solaire 45 SPF/fps; Life Brand Sunscreen Towelettes; Life Brand Sunthera 3 SPF/fps 15; Life Brand Sunthera 3 SPF/fps 30 Sun Protection Lotion Face; Life Brand Sunthera 3 SPF/fps 60 Sun Protection Lotion Face; Life Brand Sunthera3 Gradual Sunless Colour Moisturizer SPF/fps 15; Life Brand Sunthera3 Sport SPF/fps 60 Sun Protection Lotion Lotion Ãcran Solaire; Life Extension Shade Factor SPF30; Life Extension Sun Protection SPF 30; Lifecell BROAD SPECTRUM SPF 50 BB SHEER; Lifeguard Sunscreen; Lift & Firm Y-zone CRÃ¨me Jour Haute FermetÃ© Fps 20; Liftactiv Cxp Uv SPF 20; Liftactiv Specialist Fps/SPF 30; Liftactiv Supreme; Liftactiv Uv; Liftactivpro SPF 15; Light Care Aqua Sun; Light Hearted Broad Spectrum SPF 30 Sunscreen; Light Shade SPF 50 Derma Defense; Light Skin Defense Concealer Broad Spectrum SPF 15 Jafra; Light and Delicate Sunscreen Spf15; Light and Delicate Sunscreen Spf30; Lightful C SPF 30 With Radiance Booster Broad Spectrum SPF 30; Lightweight Miracle Moisturiser Sunscreen Broad Spectrum SPF 20; Likewise Facial Moisturizer - Sun Protectant SPF 50 Normal to Dry Skin; Likewise Facial Moisturizer - Sun Protectant SPF 50 Normal to Oily Skin; Likewise Hand Moisturizer - Sun Protectant SPF 50; Line Interception Power Duo Day Cream Suncreen Broad Spectrum SPF 30; Line Interception Power Duo Day Cream Sunscreen Broad Spectrum SPF 30; Linea Jose Ignacio For Face Sunscreen Broad Spectrum SPF 30; Linea Jose Ignacio Sunscreen Broad Spectrum SPF30; Lionesse Opal Sheer Shield SPF 30; Lip Balm; Lip Balm Apple Flavored; Lip Balm Asian Pear Flavored; Lip Balm Bacon Flavored; Lip Balm Banana Flavored; Lip Balm Baume Pour Les LÃ¨vres SPF 30; Lip Balm Beer Flavored; Lip Balm Berry Flavor; Lip Balm Berry Flavored; Lip Balm Birthday Cake Flavored; Lip Balm Blue Raspberry Flavored; Lip Balm Blueberry Flavored; Lip Balm Bourbon Flavored; Lip Balm Bubble Gum; Lip Balm Bubble Gum Flavored; Lip Balm Cafe Latte; Lip Balm Cafe Latte Flavored; Lip Balm Camp Fire Smores; Lip Balm Campfire Smores Flavored; Lip Balm Caramel Apple Flavored; Lip Balm Carmel Apple Flavored; Lip Balm Cherry Cola Flavored; Lip Balm Cherry Flavored; Lip Balm Choc Strawberry; Lip Balm ChocPeppermint Flavored; Lip Balm Chocolate Flavored; Lip Balm Chocolate Peppermint Flavored; Lip Balm Chocolate Strawberry Flavored; Lip Balm Cinnamon Flavored; Lip Balm Citrus Flavored; Lip Balm Coconut Flavored; Lip Balm Coffee Flavored; Lip Balm Cola Flavored; Lip Balm Cotton Candy Flavored; Lip Balm Dreamsicle Flavored; Lip Balm Grape Flavored; Lip Balm Green Apple Flavored; Lip Balm Green Tea Flavored; Lip Balm Lemon Lime Flavor; Lip Balm Lemon Lime Flavored; Lip Balm Lemonade Flavored; Lip Balm Lime Flavored; Lip Balm Mango Flavored; Lip Balm Margaita Flavored; Lip Balm Margarita Flavored; Lip Balm Mint Cvs; Lip Balm Mint Flavored; Lip Balm Orange Crush Flavored; Lip Balm Peach Flavored; Lip Balm Peppermint Flavored; Lip Balm Pina Colada Flavored; Lip Balm Pinapple Flavored; Lip Balm Pineapple Flavored; Lip Balm Pink Grapefruit Flavored; Lip Balm Pomegranate Flavored; Lip Balm Pomegranite Flavored; Lip Balm Popcorn Flavored; Lip Balm Raspberry Flavored; Lip Balm Root Beer Flavored; Lip Balm SPF 15; Lip Balm SPF 30; Lip Balm Spearmint Flavored; Lip Balm Spf30 Cvs; Lip Balm Strawberry Flavored; Lip Balm Tangerine Flavored; Lip Balm Tropical Punch Flavored; Lip Balm Unflavored; Lip Balm Vanilla Coffee Flavored; Lip Balm Vanilla Flavored; Lip Balm Vanilla Mint Flavored; Lip Balm Watermelon Flavored; Lip Balm Wintergreen Flavored; Lip Balm and Sunstick; Lip Block 15 SPF; Lip Conditioner SPF 15; Lip Conditioner SPF 15 Merle Norman; Lip Conditioner SPF 15 Plus Lavender; Lip Enhancer Gloss Sunscreen Broad Spectrum Spf15; Lip Ice Coco Vanilla; Lip Infusion; Lip Saver Sunscreen SPF 30; Lip Screen Broad Spectrum SPF 40; Lip Screen Sheer SPF 30; Lip Treatment; Lip and Cheek Treat Broad Spectrum SPF 40 Supergoop; Lip-tech Lip Balm; LipLux Original SPF 30 Broad Spectrum; Lipidol; Liplux SPF 30 Lip Balm; Liplux Vanilla Peppermint SPF 15 Broad Spectrum; Liquid Spray Sunscreen; Lite-guard; Loccitane En Provence Immortelle Divine Light Spf20; Loccitane En Provence Immortelle Precieuse Light Spf20; Loccitane En Provence Light Comforting SPF 15; Loccitane Immortelle Divine Spf20; Loccitane Immortelle Precious Spf20; London Drug Sport 30spf; London Drug Sunblock Lotion 30spf; London Drugs Kids 30 SPF Sunblock Lotion; London Drugs' Baby Sunblock SPF 30; London Drugs' Sport Sunblock SPF 30; London Drugs' Sunblock Lotion SPF 30; Long Last Glosswear SPF 15; Long Wear Makeup Broad Spectrum SPF 20 Bare Jafra; Long Wear Makeup Broad Spectrum SPF 20 Bronze Jafra; Long Wear Makeup Broad Spectrum SPF 20 Cappuccino Jafra; Long Wear Makeup Broad Spectrum SPF 20 Caramel Jafra; Long Wear Makeup Broad Spectrum SPF 20 Earth Jafra; Long Wear Makeup Broad Spectrum SPF 20 Honey Jafra; Long Wear Makeup Broad Spectrum SPF 20 Natural Jafra; Long Wear Makeup Broad Spectrum SPF 20 Nude Jafra; Long Wear Makeup Broad Spectrum SPF 20 Sable Jafra; Long Wear Makeup Broad Spectrum SPF 20 Spice Jafra; Long Wear Makeup Broad Spectrum SPF 20 Tawny Jafra; Long-Lasting Oil-Free Moisturizer; Lorac Foundation Deep SPF20; Lorac Foundation Fair SPF20; Lorac Foundation Golden Light SPF20; Lorac Foundation Golden Tan SPF20; Lorac Foundation Light Beige SPF20; Lorac Foundation Light SPF20; Lorac Foundation Medium Beige SPF20; Lorac Foundation Medium SPF20; Lorac Foundation Medium Tan SPF20; Lorac Foundation Tan SPF20; Loreal Paris Age Perfect Radiant Serum foundation SPF 50; Loreal Paris Age Perfect Rosy Tone SPF 30 Renew and revive healthy tone Visibly younger-looking skin; Loreal Paris Antispot Revitalift Triple Power Intensive Antiaging Day With Proxylane SPF 20; Loreal Paris Revitalift Anti Wrinkle Firming Moisturizer SPF 25; Loreal Paris Revitalift Miracle Blur Instant Skin Smoother Original Opiblur Technology SPF 30; Lotion SPF 15; Lotion SPF 45; Lotion Solaire Anti-Ã¢ge; Lotion Solaire Fps 25; Lotion Solaire Fps 8; Lotion Solaire Protection Totale Fps 30; Lotion Solaire Protectrice Fps 8; Lotion Vapo Fps 15; Lotion Vapo SPF 30; LovLuv Daily BB Cream; LovLuv M Suit Sun Block; LovLuv Vivacity Bright CC Cream; Lovluv Vivacity Bright BB Cream; Lovluv daily BB Cream; Lubriderm; Lubriderm Daily Moisture Sunscreen Broad Spectrum SPF15; Lubriderm Daily Moisture with Sunscreen Broad Spectrum SPF15; Lubriderm Daily Moisturizer with Sunscreen SPF15; Lubriderm Uv Moisture; Lubriderm Uv SPF 15; Lumasol; Lumene Bright Now Visible Repair Day SPF 15 Sunscreen Broad Spectrum; Lumene Bright Now Vitamin C Day SPF 15 Sunscreen Broad Spectrum; Lumene Bright Now Vitamin C Moisturizer; Lumene Complete Rewind Recovery Day SPF 15 Sunscreen Broad Spectrum; Lumene Excellent Future Age-Defying and Repairing Day SPF 15 Sunscreen; Lumene Premium Beauty Rejuvenating Day; Lumene Sisu Moisture Remedy Day Sunscreen Broad Spectrum SPF 20; Lumene Time Freeze Firming Day SPF 15; Lumene Time Freeze Firming Day SPF 15 Sunscreen Broad Spectrum; Lumene Valo Day Moisturizer SPF 15 Sunscreen Broad Spectrum SPF 15; Lumene Vitamin C Pure Radiance Day; Lumiere de Vie Daily Brightening Broad Spectrum SPF 50; Luminous AuraCapsule CC; Luminous Intensive Decollote Treatment SPF 20; Luminous Intensive DÃ©colletÃ© Cream Treatment SPF 20; Luminous Intensive Hand Cream Treatment SPF 25; Luminous Intensive Hand Treatment SPF 25; Lumipearl Perfect and Protect Day Broad Spectrum SPF 25 Sunscreen; Lycogel Breathable Balm; Lypsyl Moisture Burst SPF-30; M Suit Cushion; M.A.C. Prep + Prime Cc Colour Correct SPF 30; M.A.C. Prep+prime Bb Beauty Balm SPF 35; M.A.C. Studio Moisture Fix SPF 15; M.A.c Prep + Prime Bb Beauty Balm SPF 50; M.A.c Prep + Prime Face Protect Lotion SPF 50; M.A.c Prep+prime Bb Beauty Balm Compact SPF 30; M.A.c Suntints SPF 20 Liquid Lip Balm; M.A.c Tendertone Lip Balm SPF 12; M.D. FORTE Aftercare Environmental Protection Sunscreen SPF 30; MAC LIGHTFUL Cplus CORAL GRASS TINTED WITH RADIANCE BOOSTER BROAD SPECTRUM SPF030; MAMONDE Daily Sunscreen; MAMONDE UV Fluid; MAX BLOCK SPF 30 Baby SUNSCREEN; MAX BLOCK SPF 30 kids SUNSCREEN; MAY NEW YORK SUPER CLEAR PURE SUN 17g; MAY NEW YORK SUPER CLEAR PURE SUN 22g; MD Acne Oil Free SPF 30 Sunscreen; MDSOLARSCIENCES Daily Anti Aging Moisturizer SPF 30; MDSolarSciences SPF 40 Quick Dry; MDSolarSciences SPF40 No Touch Body; MDSolarSciences SPF40 Ultra-Sport; MEDIKOii Bio-UV Protect Laser Master; MEIJER Sport SPF 30; MEN Face Shield SPF 18; MIAMI MD SUN SHIELD Broad Spectrum SPF 40; MISSHA All Around Safe Block Daily Sun For Men SPF50; MISSHA All Around Safe Block Fresh Sun SPF50; MISSHA M Essential Care Lip Treatment SPF15; MISSHA M Magic Cushion Cover SPF50 NO31; MISSHA M Magic Cushion Moisture No23; MISSHA M Magic Cushion No 27; MISSHA M Magic Cushion No.21; MISSHA M Magic Cushion No.23; MISSHA M Magic Cushion SPF50 NO31; MISSHA Magic Cushion Cover Lasting SPF50 (No.21); MISSHA Magic Cushion Cover Lasting SPF50 (No.23); MISSHA Magic Cushion Moist Up SPF50 (No.21); MISSHA Magic Cushion Moist Up SPF50 (No.23); MISSHA Signature Essence Cushion - Covering (No.21); MISSHA Signature Essence Cushion - Covering (No.23); MISSHA Signature Essence Cushion - Watering (No.23); MISSHA Signature Essence Cushion - Watering(No.21); MISSHA Signature Essence Cushion No 21; MISSHA Signature Essence Cushion No 23; MISSHA Skin Fit Stick Foundation SPF50 No.21; MISSHA Skin Fit Stick Foundation SPF50 No.23; MK Men Advanced Facial Hydrator Sunscreen SPF 30; MKMen Advanced Facial Hydrator Sunscreen SPF 30; MKMen Moisturizer Sunscreen Broad Spectrum SPF 25; MKRS Broad Spectrum SPF50; MOROCCAN Lightweight Hydrating Sun Protection SPF 30; MURAD - ACNE CONTROL - oil AND PORE CONTROL MATTIFIER SPF-45; Mac Lightful C + Coral Grass Tinted Cream SPF 30 With Radiance Booster; Mac Lightful C Tinted Cream SPF 30 With Radiance Booster; Mac Lip Conditioner SPF 15; Mac Lip Conditioner Stick SPF 15; Mac Prep and Prime Face Protect Broad Spectrum SPF 50; Mac Tendertone Lip Balm SPF 12; Mac Tinted Lip Conditioner SPF 15; Mac Tinted Lip Conditioner Stick SPF 15; Maestro UV skin defense primer Sunscreen Broad Spectrum SPF 50; Magix Face Perfector; Magix Tinted Face Perfector Perfecteur Visage Teinte SPF/fps 15; Maketa Sunscreen with Aloe Vera SPF 30; Makeup Setting Spray PulvÃ©risation Pour Fixer Le Maquillage; Makeup Setting with Green Tea Aloe SPF 30 Broad Spectrum; Malie Organics Reef Safe Sunscreen SPF-30; Malie Organics Reef Safe Sunscreen SPF-50; Malin and Goetz SPF 30 Face Moisturizer; Mango Bay SPF 30; Mango Bay SPF 50 Kids; Mango Bay SPF 50 Sport; Mango Bebe Lip Care Spf15 Red Mango; Mango Bebe Lip Essence Spf15; Mango Butter Lipstick; Mans Best Friend; Maple Treatment Hand Cream SPF 20; Maracuja Miracle Foundation 12-Hour Foundation Broad Spectrum SPF 15 Sunscreen Beige; Maracuja Miracle Foundation 12-Hour Foundation Broad Spectrum SPF 15 Sunscreen Deep; Maracuja Miracle Foundation 12-Hour Foundation Broad Spectrum SPF 15 Sunscreen Fair; Maracuja Miracle Foundation 12-Hour Foundation Broad Spectrum SPF 15 Sunscreen Ivory; Maracuja Miracle Foundation 12-Hour Foundation Broad Spectrum SPF 15 Sunscreen Light; Maracuja Miracle Foundation 12-Hour Foundation Broad Spectrum SPF 15 Sunscreen Light-Medium; Maracuja Miracle Foundation 12-Hour Foundation Broad Spectrum SPF 15 Sunscreen Medium; Maracuja Miracle Foundation 12-Hour Foundation Broad Spectrum SPF 15 Sunscreen Medium-Tan; Maracuja Miracle Foundation 12-Hour Foundation Broad Spectrum SPF 15 Sunscreen Tan; Maracuja Miracle Foundation 12-Hour Foundation Broad Spectrum SPF 15 Sunscreen Warm Beige; Marcelle City High Protection Urban Day Cream Soin Jour Haute Protection Urbaine SPF 30 Fps; Marcelle Newage Precision Anti-wrinkle Day Cream SPF 30; Marcelle Sun Block Cream SPF 15; Marcelle Sun Block Cream SPF 20; Marcelle Sun Block Lotion SPF 15; Marcelle Sun Block Lotion SPF 20; Marcelle/1st Wrinkles/1Ã¨res Rides/day Cream SPF 15/crÃ©me De Jour Fps 15; Mario Badescu SPF 30; Mario Badescu Skin Care Oil Free Moisturizer Broad Spectrum SPF 30 Sunscreen; Market Basket Continuous Sunscreen General Protection SPF 70; Market Basket Kids SPF 50 Sunscreen; Mary Kay Botanical Effects SPF/fps 30; Mary Kay Day Solution SPF 15; Mary Kay Foundation Primer; Mary Kay Foundation Primer SPF 15; Mary Kay Foundation Primer with SPF 15; Mary Kay SPF 30 Sunscreen; Mary Kay Sun Protector SPF 35; Mary Kay SunCare SPF 30 Sunscreen; Mary Kay Suncare SPF 50 Sunscreen; Mary Kay Suncare Sunscreen Broad Spectrum SPF 50; Mary Kay Suncare Sunscreen SPF 30; Mary Kay Suncare Sunscreen SPF 50; Mary Kay TimeWise Age Fighting Moisturizer SPF 30; Mary Kay TimeWise Age Minimize 3D Day Cream SPF 30 Broad Spectrum Sunscreen (Combo to Oily Skin); Mary Kay TimeWise Age Minimize 3D Day Cream SPF 30 Broad Spectrum Sunscreen (Normal to Dry Skin); Mary Kay TimeWise Body Hand and Decolette Cream SPF 15; Mary Kay TimeWise Day Solution SPF 30 Broad Spectrum; Mary Kay TimeWise Day Solution SPF 35; Mary Kay TimeWise Day Solution Sunscreen SPF 25; Mary Kay TimeWise Miracle Set 3D Sampler (Combo to Oily Skin); Mary Kay TimeWise Miracle Set 3D Sampler (Normal to Dry Skin); Mary Kay TimeWise Miracle Set 3D The Go Set (Combo to Oily Skin); Mary Kay TimeWise Miracle Set 3D The Go Set (Normal to Dry Skin); Mary Kay TimeWise Repair Volu-Firm Day Cream Broad Spectrum SPF 30; Mary Kay TimeWise Repair Volu-Firm Sampler Set; Mary Kay TimeWise Repair Volu-Firm Set; Mary Kay TimeWise Repair Volu-Firm The Go Set; Mary Kay TimeWise Repair VoluFirm Day Cream SPF 30; Mary Kay Timewise Day Solution With Sunscreen SPF 15; Mary Kay Tinted Moisturizer Sunscreen SPF 20 Beige 1; Mary Kay Tinted Moisturizer Sunscreen SPF 20 Beige 1 (Drug Facts); Mary Kay Tinted Moisturizer Sunscreen SPF 20 Beige 2; Mary Kay Tinted Moisturizer Sunscreen SPF 20 Beige 2 (Drug Facts); Mary Kay Tinted Moisturizer Sunscreen SPF 20 Bronze 1; Mary Kay Tinted Moisturizer Sunscreen SPF 20 Bronze 1 (Drug Facts); Mary Kay Tinted Moisturizer Sunscreen SPF 20 Bronze 2; Mary Kay Tinted Moisturizer Sunscreen SPF 20 Bronze 2 (Drug Facts); Mary Kay Tinted Moisturizer Sunscreen SPF 20 Ivory 1; Mary Kay Tinted Moisturizer Sunscreen SPF 20 Ivory 1 (Drug Facts); Mary Kay Tinted Moisturizer Sunscreen SPF 20 Ivory 2; Mary Kay Tinted Moisturizer Sunscreen SPF 20 Ivory 2 (Drug Facts); Mary Kay Tinted Moisturizer With Sunscreen SPF 20; Matrix Support With Sunscreen Broad Spectrum SPF 30; Matte Defense SPF 30; Matte Moisturizer SPF 15; Matte and Clear Matifying Protector SPF 25; Mattifying Broad Spectrum SPF 15 Jafra; Mattifying Day Moisture Broad Spectrum SPF 15 Jafra; Max Block Broad Spectrum SPF 30; Max Block Broad Spectrum SPF 30 sport; Max Block Maz Block SPF 30 Sport Sunscreen; Max Block Maz Block SPF 30 Sunscreen; Max Block Maz Block SPF 50 Kids Sunscreen; Max Block Maz Block SPF 50 Sunscreen; Max Block SPF 30 Sunscreen; Max Block SPF 30 Sunscreen Sport; Max Block SPF 50 Sunscreen; Max Sheer All Day Moisture Defense; Max Sheer All Day Moisture Defense Lotion; Maxglow Hydrafoam Daily Moisturizer; May New York Secret Muse Himiznohana Cover Pact No 21; May New York Secret Muse UV Vita Sun Cushion; May New York Super Clear Pure Sun Ultra 17g; May New York Super Clear Pure Sun Ultra 22g; May New York Super Clear Sun 16g; May New York Super Clear Sun 21g; Maybelline Dream Urban Cover full coverage protective make-up SPF 50 Antioxidant-Enriched Pollution Protection; Maybelline New York Baby Lips Moisturizing Lip Balm SPF 20; Maybelline New York Baby Lips Peppermint Moisturizing Lip Balm SPF 20 Sunscreen; Maybelline New York Baby Lips Quenched Moisturizing Lip Balm SPF 20 Sunscreen; Maybelline New York Dream Nude Air Foam AirInfused Foundation SPF 16; Maybelline New York Dream Nude Airfoam Air Infused Makeup Sunscreen Broad Spectrum SPF 16; Maybelline New York Fit Me Matte Plus Poreless Mattifying Poreless Primer Broad Spectrum SPF 20 Sunscreen; Md Formulations Sun Protector 20; Md Formulations Total Protector 30; Me Day S3 SPF 25; Me Day T3 SPF 25; Meaningful Beauty BB Broad Spectrum SPF 15 (Light, Medium, Dark); Meaningful Beauty Cindy Crawford Anti-Aging Day Creme with Environmental Protection Broad Spectrum SPF 30; Meaningful Beauty Cindy Crawford Antioxidant SPF 20 UVA/UVB; Meaningful Beauty Cindy Crawford Environmental Protecting Moisturizer Broad Spectrum SPF 30 Sunscreen; Meaningful Beauty Cindy Crawford Maintenance 1plus Daily Moisture SPF 20 UVA/UVB; Meaningful Beauty Cindy Crawford Skin Brightening Decollete and Neck Treatment SPF 15; Meaningful Beauty Cindy Crawford Skin Brightening DÃ©colletÃ© and Neck Treatment SPF 15; MediSpa Sunspray; Medicated Flavored Lips SPF 30; Medicated Lip Balm; Medium Skin Defense Concealer Broad Spectrum SPF 15 Jafra; Megacushion Foundation SPF 15; Meijer; Meijer Baby SPF 50; Meijer Broad Spectrum SPF 15; Meijer Broad Spectrum SPF 30 Sunscreen; Meijer Broad Spectrum SPF 50 Sunscreen; Meijer Elements 7-in-1 Anti-Aging Vitamin; Meijer Elements Advanced Firming and Anti-Wrinkle; Meijer Elements Long-Lasting Oil-Free; Meijer Family Sport 30; Meijer Kids Broad Spectrum SPF 50 Mineral Based Sunscreen; Meijer Kids Tear Free SPF 50; Meijer Oil Free Faces SPF 30; Meijer Oil Free SPF 15; Meijer Oil Free SPF 30; Meijer SPF 15; Meijer SPF 30; Meijer SPF 30 Face; Meijer SPF 30 Ultra Dry Sheer; Meijer SPF 70; Meijer Sheer Moisturing SPF 30; Meijer Sheer SPF 15; Meijer Sheer SPF 30; Meijer Sheer SPF 55; Meijer Sport SPF 30; Meijer Sport SPF 50; Meijer Sunscreen Broad Spectrum SPF 70 Sunscreen; Members Mark Value Size SPORT SUNSCREEN BROAD SPECTRUM SPF 50; Men Dynamics Double Duty Face Protector SPF 15; Mens Maca Root Energising Face Protector SPF15; Mentholatum Medicated Lip Balm Cherry; Mentholatum Medicated Lip Balm Original; Mentholatum Natural Ice Cherry; Mentholatum Natural Ice Extreme SPF-30 Lipbalm; Mentholatum Natural Ice Lipbalm; Mentholatum Natural Ice Original; Mentholatum Natural Ice Sport SPF 30; Mentholatum Softlips French Vanilla Lip Protectant SPF 20; Mentholatum Softlips Tints Sun Kissed Copper; Merle Norman Dual Spectrum SPF 30; Mesoestetic Sun Protection SPF 25; Mia Del Mar SPF 30 Moisturizer; Miami Beach Faces Sunscreen 50 Broad Spectrum SPF 50; Miami Beach Kids Sunscreen Broad Spectrum SPF 50; Miami Beach SPF 50 Kids C/S Sunscreen; Miami Beach Sea Sunscreen 30 Broad Spectrum SPF 30; Miami Beach Sea Sunscreen Broad Spectrum SPF 30; Miami Beach Sport Sunscreen 50 Broad Spectrum SPF 50; Microfit Cushion 101; Microfit Cushion 201; Microfit Cushion 301; Milani Make It Last Sunscreen Setting SPF 30; Mineral Radiance Energizing Day BS SPF 15; Mineral Sunscreen SPF 20; Mineralium Hdra Source Moisturizing Protector SPF 25; Mint Condition Lip Shield SPF 30 Supergoop; Mint Fusion Lip Balm SPF 30 Supergoop; Mint Lip Balm; Mint Mojito SPF 15 Broad Spectrum Lip Balm; Miracle Matt BB Cream; Miracle Skin Transformer Face Broad Spectrum SPF 20 Sunscreen; Miracle Worker Anti-aging Foundation SPF 30; Miracle Worker SPF 55; Missha All Around Safe Block Essence Sun Broad Spectrum Spf45; Missha All Around Safe Block Essence Sun Milk 40ml; Missha All Around Safe Block Essence Sun Milk 70ml; Missha All Around Safe Block Essence Sun Spf45 Pa Plus Plus Plus; Missha All Around Safe Block Soft Finish Sun Milk 40ml; Missha All Around Safe Block Soft Finish Sun Milk 70ml; Missha M Magic Cushion Cover No21; Missha M Magic Cushion Cover SPF 50 No 23; Missha M Magic Cushion Moisture No21; Missha M Magic Cushion No 21; Missha M Magic Cushion No 23; Missha Signature Complexion Coordinating Bb White Broad Spectrum Spf43; Missha Signature Essence Cushion Intensive Cover Spf50 No 21; Missha Signature Essence Cushion Intensive Cover Spf50 No 23; Missha Time Revolution White Cure Blanc Sun Protector Nw Broad Spectrum Spf50 Plus; Missha Time Revolution White Cure Uv Sun Protector Spf50 Plus Pa Plus Plus Plus; Mizon Uv Sun Protector; Mkmen Advanced Facial Hydrator Sunscreen Broad Spectrum SPF 30; Mkmen Moisturizer Sunscreen SPF 25; Moist Moisture Cc; Moisture Boost Daily Restoring Complex Broad Spectrum SPF 30; Moisture Compound SPF 30; Moisture Cream SPF 30; Moisture Lotion SPF-15; Moisture Oil-free SPF 30; Moisture Renew Auburn Breeze (740); Moisture Renew Berry Rose (500); Moisture Renew Burgundy Lustre (540); Moisture Renew Burgundy Shine (840); Moisture Renew Cherrylicious (820); Moisture Renew Coral Shimmer (120); Moisture Renew Crystal Mauve (420); Moisture Renew Dreamy (140); Moisture Renew Dusty Rose (645); Moisture Renew Iced Coffee (700); Moisture Renew Latino (240); Moisture Renew Mauve Pink (460); Moisture Renew Nude Delight (642); Moisture Renew Pink Chic (220); Moisture Renew Pink Star (235); Moisture Renew Precious Brown (680); Moisture Renew Red Alert (900); Moisture Renew Rose Blush (300); Moisture Renew Rose Shimmer (370); Moisture Renew Rouge (850); Moisture Renew Summer Angel (640); Moisture Renew Vintage Pink (380); Moisture Renew Violet Pop (520); Moisture Rescue SPF 15; Moisture Restore Day Protective Mattefying Broad Spectrum SPF15 Combination to Oily; Moisture Restore Day Protective Mattefying Lotion SPF 15 Combination To Oily Skin; Moisture Revitalizer; Moisture Rich Sunless Tanning SPF 20; Moisture Sun Protector; Moisture Surge Cc Broad Spectrum SPF 30 Hydrating Colour Corrector; Moisture Surge SPF; Moisture Surge Sheertint Hydrator Broad Spectrum SPF 25; Moisture Surge Sheertint Hydrator SPF 25; Moisture Surge Tinted Moisturizer SPF 15; Moisture Therapy Daily Skin Defense Body; Moisture Therapy Intensive Body Lotion With SPF 15; Moisture Therapy Intensive Healing & Repair Extra Dry Skin Body Lotion; Moisture Therapy Intensive Healing and Repair Body; Moisturizer; Moisturizer Long lasting, oil free; Moisturizer SPF 15; Moisturizer SPF15; Moisturizing Antioxidant Day CRÃ¨me SPF 20; Moisturizing Day Cream SPF 15; Moisturizing Day Lotion SPF 15; Moisturizing Day with Sunscreen and Dead Sea Mineral Broad Spectrum SPF 15; Moisturizing Face Shield; Moisturizing Facial Sunscreen; Moisturizing Lip BalmSPF30; Moisturizing Lotion SPF 15; Moisturizing Makeup SPF 15; Moisturizing Protector SPF 30; Moisturizing Renewal Cream Broad Spectrum SPF 30 US; Moisturizing Sunscreen Lotion Sun Bum Broad Spectrum SPF 15; Moisturizing Sunscreen Lotion Sun Bum Broad Spectrum SPF 30; Moisturizing Sunscreen Lotion Sun Bum Broad Spectrum SPF 50; Moisturizing Tint SPF 30; Moisuture Replenishing Broad Spectrum SPF 15 Jafra; Moonflash Cushion; Moonshot Multi Protection UV Bouncer; Morinda TruAge Therapy Element Shield SPF 20; Mormaii Grip Action Protector Solar; Morning Glow BB cream SPF 15; Moroccanoil SPF 30; Moroccanoil SPF 50; Moroccanoil Sun Oil SPF 15; Mousse Exquise Auto-bronzante 15 SPF; Multi Active Hand Protector SPF 15; Multi Effect Day Cream SPF 25; Multi Perfection Special Effector Spf15; Multi Protection UV Bouncer; Multi-Active Day Early Wrinkle Correcting SPF 15; Multi-action Cream SPF 30; Multi-regenerant Jour Fluide Lift Anti-rides Toutes Peaux SPF 15; Multiceutical Compound Oil Free Day Creme Sunscreen SPF 20; Multivitamin Bodyblock SPF 20; Murad - Age Reform - Invisiblur Perfecting Shield SPF 30; Murad - Age Reform - Perfecting Day SPF 30; Murad - Anti-aging Moisturizer SPF 30; Murad - Environmental Shield - Essential-C Day Moisture Broad Spectrum SPF 30; Murad - Environmental Shield - Essential-C Eye SPF 15; Murad - Resurgence - Age-balancing Moisture SPF 30; Muskol Insect Repellent With Sunblock SPF 15; Mv Body Defense SPF 20; My Medic SPF 30 Reef Friendly Sunscreen; My Sunny Watery Sun Essence; NAELI Day Moisturizer SPF 30; NARS SMOOTH and PROTECT PRIMER; NATURAL SUN ECO Aqua Sunscreen Gel 40 SPF; NATURAL SUN ECO Mild Milk SPF40; NATURAL SUN ECO Power Long-lasting Sunscreen Cream SPF50; NO BS Moisturizer SPF20; NO-AD 15 Sunscreen; NO-AD 30 Sunscreen; NO-AD 45 Sunscreen; NO-AD 60 Sunscreen; NO-AD 85 Sunscreen; NO-AD Broad Spectrum SPF 30; NO-AD Broad Spectrum SPF 50 kids; NO-AD Broad Spectrum SPF 85; NO-AD Broad Spectrum Sport SPF 30; NO-AD Dark Tanning SPF 4; NO-AD Kids 50 Sunscreen; NO-AD Kids SPF50 Continuous Mist Sunscreen; NO-AD SPF 8 Tanning; NO-AD SPF4 Dark Tanning Oil; NO-AD SPF45 Continuous Mist Sunscreen; NO-AD Splash 30 Sunscreen; NO-AD Sport 50 Sunscreen; NO-AD Sport SPF30 Continuous Mist Sunscreen; NO-AD Suncare Ltn SPF 50; NOTS Once Finishing; NU SKIN ageLOC Radiant Day SPF 22; NU-DERM System NORMAL-Oily SKIN TRANSFORMATION; NU-DERM system NORMAL-DRY SKIN TRANSFORMATION TRIAL; NU-DERM system NORMAL-oily SKIN TRANSFORMATION TRIAL; NUANCE Salma Hayek Renewed Radiance Moisturizing Day Cream Broad Spectrum SPF 30 Sunscreen; NYX Professional Makeup Bare With Me Daily Moisturizing Primer with Cannabis Sativa Seed Oil SPF 30; Nadinola Skin Fade for Dry Skin; Nadinola Skin Fade for Normal Skin; Nadinola Skin Fade for Oily Skin; Nadinola Skin FadeExtra; Naked Glow; Naked Sundays Golden Glow Body Sunscreen SPF50 100ml; Napoleon Perdis Foundation Broad Spectrum SPF 15 Look 2b; Napoleon Perdis Foundation Broad Spectrum SPF 15 Look 3; Napoleon Perdis Foundation Broad Spectrum SPF 15 Look 3b; Napoleon Perdis Foundation Broad Spectrum SPF 15 Look 4; Napoleon Perdis Foundation Broad Spectrum SPF 15 Look 5b; Nars Pro-prime Multi-protect Primer; Nars Radiance Primer; Nars Velvet Matte Skin Tint Alaska; Nars Velvet Matte Skin Tint Annapurna; Nars Velvet Matte Skin Tint Cuba; Nars Velvet Matte Skin Tint Cuzco; Nars Velvet Matte Skin Tint Finland; Nars Velvet Matte Skin Tint Groenland; Nars Velvet Matte Skin Tint Malaga; Nars Velvet Matte Skin Tint Martinique; Nars Velvet Matte Skin Tint Polynesia; Nars Velvet Matte Skin Tint ST. Moritz; Nars Velvet Matte Skin Tint Seychelles; Nars Velvet Matte Skin Tint Terre-neuve; Native Tan Baby Care Sun Protection Lotion SPF 25; Native Tan SPF 20; Native Tan SPF 30; Native Tan SPF 40; Native Tan SPF 50; Natural Advantage SPF 15 All Day Moisture with AHAs; Natural Defense Primer Oil SPF; Natural Sun AQ Body and Family Mild Sun Milk; Natural Sun AQ Total Anti-aging Essence Sun; Natural Sun Eco Light Sun Cream SPF 50+ Pa+++; Natural Sun Eco Sebum Control Moisture Sun Spf40; Natural Sun Eco Sun Cream SPF 50+ Pa+++; Natural Sun Eco Super Perfect SPF 50; Natural Tan Moisturizing Makeup Broad Spectrum SPF 15 Jafra; Natural Tan Oil Controlling Makeup Broad Spectrum SPF 15 Jafra; Naturally Beaming; Nature Origin Aqua Marble Foundation 01 Light Beige; Nature Origin Aqua Marble Foundation 02 Natural Beige; Nature Origin Cc Blur; Nature Origin Cc Brightening; Nature Origin Cc Tinted; Nature Origin Cushion Cc Natural No.21; Nature Origin Cushion Cc Natural No.23; Nature Republic California Moisturizing Aloe Aqua Sun Stick SPF 50+; Nature Republic California Moisturizing Aloe Daily Sun Cream SPF 50+; Nature's Gate Aquablock Lotion Spf30; Nature's Gate SPF 30 Lotion; Natures Gate Aqua Block SPF 50 Sunscreen; Natures Gate Aqua SPF 50; Natures Gate Face Block SPF 25 Fragrance-Free; Natures Gate Kids SPF 50; Natures Gate Sport Block SPF 50; Natures Gate Sport SPF 50; Natures Gate aqua block SPF 50; Natures Gate kids SPF 50; Natures Gate kids block SPF 50; Naturissima Vitaverde Sun High Protection SPF 50; Near Skin Dustless Defense Sunblock; Nearly Foundation; Neck + Chest Perfector; Nelly De Vuyst Bruxelles SPF 30 Broad Spectrum Sunscreen; Nelly de Vuyst SPF 30 Broad Spectrum Sunscreen; NeoStrata Enlighten Skin Brightener SPF 25; NeoStrata Enlighten Skin Brightener with Sunscreen Broad Spectrum SPF 35; NeoStrata Sheer Hydration SPF 35; NeoStrata Sheer Hydration Sunscreen Broad Spectrum SPF 40; NeoStrata Skin Active Matrix Support SPF 30; Neogen Code 9 Uv Defense Longlasting Protector Spf50; Neora Age IQ Invisi-Bloc Sunscreen; Neostrata Sunshield Spray SPF 30; Neova DNA Damage Control - Active SPF 45; Neova DNA Damage Control - Everyday Broad Spectrum SPF 44; Neova DNA Damage Control - Everyday SPF 43; Neova Day Therapy SPF 20; Neova Day Therapy SPF 30; Neova Smartsunscreen - Everyday; Neurogena Healthy Defense Moisturizer Sunscreen Broad Spectrum SPF50; Neutrogena Age Defense Anti Oxidant Daily Moisturizer SPF20; Neutrogena Age Defense Anti Oxidant Daily Moisturizer SPF20 Sheer Tint; Neutrogena Age Shield Anti Oxidant Face Sunscreen Broad Spectrum SPF70; Neutrogena Age Shield Face Oil Free Sunscreen Broad Spectrum SPF 110; Neutrogena Age Shield Face Oil Free Sunscreen Broad Spectrum SPF 70; Neutrogena Age Shield Face Oil Free Sunscreen Broad Spectrum SPF110; Neutrogena Age Shield Face SPF 110; Neutrogena Age Shield Face Sunscreen Broad Spectrum SPF70; Neutrogena Ageless Essentials Continuous Hydration Daily Moisturizer SPF25; Neutrogena Ageless Intensive Anti-Wrinkle Instant Radiance Daily Moisturizer SPF25; Neutrogena Ageless Intensives Anti Wrinkle Deep Wrinkle Daily Moisturizer Sunscreen Broad Spectrum SPF20; Neutrogena Ageless Intensives Tone Correcting Daily Moisturizer Broad Spectrum SPF30; Neutrogena Ageless Intensives Tone Correcting Tinted Daily Moisturizer SPF 30 Helioplex; Neutrogena Ageless Restoratives Anti-Oxidant Daily Moisturizer SPF 20 Helioplex; Neutrogena Anti-Wrinkle Deep Wrinkle Daily Moisturizer SPF 20 helioplex; Neutrogena Beach Defense Kids Sunscreen SPF 70; Neutrogena Beach Defense Sunscreen Broad Spectrum SPF50 Plus; Neutrogena Beach Defense Water Plus Sun Protection Sunscreen Broad Spectrum SPF 30; Neutrogena Beach Defense Water Plus Sun Protection Sunscreen Broad Spectrum SPF 50; Neutrogena Beach Defense Water Plus Sun Protection Sunscreen Broad Spectrum SPF 60 Plus; Neutrogena Beach Defense Water Plus Sun Protection Sunscreen Broad Spectrum SPF 70; Neutrogena Beach Defense Water Plus Sun Protection Sunscreen Broad Spectrum SPF100; Neutrogena Beach Defense Water Plus Sun Protection Sunscreen Broad Spectrum SPF30; Neutrogena Beach Defense Water Plus Sun Protection Sunscreen Broad Spectrum SPF50; Neutrogena Beach Defense Water Plus Sun Protection Sunscreen Broad Spectrum SPF50 Plus; Neutrogena Beach Defense Water Plus Sun Protection Sunscreen Broad Spectrum SPF70; Neutrogena Beach Defense Water Plus Sun Protection Sunscreen Stick Broad Spectrum SPF 50 Plus; Neutrogena Bright Boost Moisturizer Broad Spectrum SPF 30; Neutrogena Clear Body Breakout Free Oil Free Sunscreen Broad Spectrum SPF 30; Neutrogena Clear Face; Neutrogena Clear Face Break Out Free Sunscreen Broad Spectrum SPF30; Neutrogena Clear Face Break Out Free Sunscreen Broad Spectrum SPF55; Neutrogena Clear Face Break-Out Free Sunscreen SPF 30 Helioplex; Neutrogena Clear Face Break-Out Free Sunscreen SPF 55 Helioplex; Neutrogena Clear Face Breakout Free Oil Free Broad Spectrum SPF 55; Neutrogena Clear Face Breakout Free Oil Free Sunscreen Broad Spectrum SPF 30; Neutrogena Clear Face Breakout Free oil Free Sunscreen Broad Spectrum SPF 50; Neutrogena Clear Face Serum Fragrance Free SPF 60 Plus; Neutrogena Clear Face Sunscreen Lotion; Neutrogena Clinical Lifting Wrinkle Treatment System; Neutrogena Colour Boosting Sunscreen SPF 30; Neutrogena Complete Acne Therapy Solution; Neutrogena Cool Dry Sport Sunscreen Broad Spectrum SPF 70; Neutrogena CoolDry Sport Sunscreen Broad Spectrum SPF 30; Neutrogena CoolDry Sport Sunscreen Broad Spectrum SPF 50; Neutrogena CoolDry Sport Sunscreen Broad Spectrum SPF100; Neutrogena CoolDry Sport Sunscreen Broad Spectrum SPF30; Neutrogena CoolDry Sport Sunscreen Broad Spectrum SPF70; Neutrogena CoolDry Sport Sunscreen SPF 50 with Micromesh; Neutrogena CoolDry Sport with Micromesh Face Oil free Sunscreen Broad Spectrum SPF 70; Neutrogena CoolDry Sport with Micromesh Sunscreen Broad Spectrum SPF 30; Neutrogena CoolDry Sport with Micromesh Sunscreen Broad Spectrum SPF 50; Neutrogena CoolDry Sport with Micromesh Sunscreen Broad Spectrum SPF 70; Neutrogena CoolDry Sport with Micromesh Sunscreen Broad Spectrum SPF30; Neutrogena CoolDry Sport with Micromesh Sunscreen Broad Spectrum SPF50 Plus; Neutrogena CoolDry Sport with Micromesh Sunscreen Broad Spectrum SPF70; Neutrogena Cooldry Sport Sunscreen Broad Spectrum SPF 50; Neutrogena Cooldry Sport Sunscreen Broad Spectrum SPF 50 Plus; Neutrogena Day Activating SPF 30; Neutrogena Deep Moisture Day with Sunscreen Broad Spectrum SPF20; Neutrogena Fresh Cooling Body Mist Sunscreen SPF 60; Neutrogena Fresh Cooling Sunscreen Body Mist Broad Spectrum SPF45; Neutrogena Fresh Cooling Sunscreen Body Mist Broad Spectrum SPF70 Plus; Neutrogena Healthy Defense Daily Moisturizer SPF 50 with Helioplex; Neutrogena Healthy Defense Daily Moisturizer SPF30 with Helioplex; Neutrogena Healthy Defense Daily Moisturizer Sunscreen Broad Spectrum SPF 50; Neutrogena Healthy Defense Daily Moisturizer Sunscreen Broad Spectrum SPF30; Neutrogena Healthy Defense Daily Moisturizer Sunscreen Broad Spectrum SPF50; Neutrogena Healthy Defense Moisturizer SPF 50; Neutrogena Healthy Skin; Neutrogena Healthy Skin Anti Wrinkle Broad Spectrum SPF15; Neutrogena Healthy Skin Anti Wrinkle with sunscreen Broad Spectrum SPF15; Neutrogena Healthy Skin Anti-Aging Perfector Sunscreen Broad Spectrum SPF 20 Fair to Light 20; Neutrogena Healthy Skin Anti-Aging Perfector Sunscreen Broad Spectrum SPF 20 Ivory to Fair 10; Neutrogena Healthy Skin Anti-Aging Perfector Sunscreen Broad Spectrum SPF 20 Light to Neutral 30; Neutrogena Healthy Skin Anti-Aging Perfector Sunscreen Broad Spectrum SPF 20 Medium to Deep 60; Neutrogena Healthy Skin Anti-Aging Perfector Sunscreen Broad Spectrum SPF 20 Neutral to Tan 40; Neutrogena Healthy Skin Anti-Aging Perfector Sunscreen Broad Spectrum SPF 20 Tan to Medium 50; Neutrogena Healthy Skin Anti-Wrinkle System; Neutrogena Healthy Skin Anti-wrinkle Cream SPF 15; Neutrogena Healthy Skin Compact Makeup SPF 55 Buff 30; Neutrogena Healthy Skin Compact Makeup SPF 55 Classic Ivory 10; Neutrogena Healthy Skin Compact Makeup SPF 55 Natural Beige 60; Neutrogena Healthy Skin Compact Makeup SPF 55 Warm Beige 90; Neutrogena Healthy Skin Compact Makeup SPF Nude 40; Neutrogena Healthy Skin Compact Makeup SPF55 Fresh Beige 70; Neutrogena Healthy Skin Compact Makeup SPF55 Natural Ivory 20; Neutrogena Healthy Skin Compact Makeup SPF55 Soft Beige 50; Neutrogena Healthy Skin Compact Makeup with sunscreen broad spectrum SPF 55 Buff 30; Neutrogena Healthy Skin Compact Makeup with sunscreen broad spectrum SPF 55 Classic Ivory 10; Neutrogena Healthy Skin Compact Makeup with sunscreen broad spectrum SPF 55 Natural Beige 60; Neutrogena Healthy Skin Compact Makeup with sunscreen broad spectrum SPF 55 Warm Beige 90; Neutrogena Healthy Skin Compact Makeup with sunscreen broad spectrum SPF Nude 40; Neutrogena Healthy Skin Compact Makeup with sunscreen broad spectrum SPF55 Fresh Beige 70; Neutrogena Healthy Skin Compact Makeup with sunscreen broad spectrum SPF55 Natural Ivory 20; Neutrogena Healthy Skin Compact Makeup with sunscreen broad spectrum SPF55 Soft Beige 50; Neutrogena Healthy Skin Enhancer Sunscreen Broad Spectrum SPF20 - Fair to Light 20; Neutrogena Healthy Skin Enhancer Sunscreen Broad Spectrum SPF20 - Ivory to Fair 10; Neutrogena Healthy Skin Enhancer Sunscreen Broad Spectrum SPF20 - Light to Neutral 30; Neutrogena Healthy Skin Enhancer Sunscreen Broad Spectrum SPF20 - Medium to Olive 60; Neutrogena Healthy Skin Enhancer Sunscreen Broad Spectrum SPF20 - Neutral to Tan 40; Neutrogena Healthy Skin Enhancer Sunscreen Broad Spectrum SPF20 - Tan to Medium 50; Neutrogena Healthy Skin Enhancer with Sunscreen Broad Spectrum SPF 20 - Fair to Light 20; Neutrogena Healthy Skin Enhancer with Sunscreen Broad Spectrum SPF 20 - Ivory to Fair 10; Neutrogena Healthy Skin Enhancer with Sunscreen Broad Spectrum SPF 20 - Light to Neutral 30; Neutrogena Healthy Skin Enhancer with Sunscreen Broad Spectrum SPF 20 - Medium to Olive 60; Neutrogena Healthy Skin Enhancer with Sunscreen Broad Spectrum SPF 20 - Neutral to Tan 40; Neutrogena Healthy Skin Enhancer with Sunscreen Broad Spectrum SPF 20 - Tan to Medium 50; Neutrogena Healthy Skin Face Broad Spectrum SPF15; Neutrogena Healthy Skin Face Lotion SPF 15; Neutrogena Healthy Skin Face Sunscreen Broad Spectrum SPF15; Neutrogena Healthy Skin Firming Sunscreen Broad Spectrum SPF15; Neutrogena Healthy Skin Firms and Lifts SPF15; Neutrogena Healthy Skin Glow Sheers Illuminating Tinted Moisturizer - Fair to Light 20 Sunscreen Broad Spectrum SPF30; Neutrogena Healthy Skin Glow Sheers Illuminating Tinted Moisturizer - Ivory to Fair 10 Sunscreen Broad Spectrum SPF30; Neutrogena Healthy Skin Glow Sheers Illuminating Tinted Moisturizer - Light to Medium 30 Sunscreen Broad Spectrum SPF30; Neutrogena Healthy Skin Glow Sheers Illuminating Tinted Moisturizer - Medium to Tan 40 Sunscreen Broad Spectrum SPF30; Neutrogena Healthy Skin Radiance Boosts Radiance SPF15; Neutrogena Healthy Skin Radiance Sunscreen Broad Spectrum SPF15; Neutrogena Healthy Skin Radiant Tinted Moisturizer Sunscreen Broad Spectrum SPF 30, Sheer Fair 20; Neutrogena Healthy Skin Radiant Tinted Moisturizer Sunscreen Broad Spectrum SPF 30, Sheer Ivory 10; Neutrogena Healthy Skin Radiant Tinted Moisturizer Sunscreen Broad Spectrum SPF 30, Sheer Tan 30; Neutrogena Hydro Boost City Shield water Broad Spectrum SPF 25; Neutrogena Hydro Boost Hyaluronic Acid Moisturizer with Sunscreen Broad Spectrum SPF 50; Neutrogena Hydro Boost Water Gel Sunscreen Broad Spectrum SPF 50; Neutrogena Hydro Boost Water Sunscreen Broad Spectrum SPF 15; Neutrogena HydroBoost Water Gel Sunscreen Broad Spectrum SPF 30; Neutrogena HydroBoost Water Gel Sunscreen Broad Spectrum SPF 50; Neutrogena Illuminating Whip Moisturizer; Neutrogena Invisible Daily Defense Body Broad Spectrum SPF 30; Neutrogena Invisible Daily Defense Body Sunscreen Broad Spectrum SPF 60 Plus; Neutrogena Invisible Daily Defense Face Mist Sunscreen Broad Spectrum SPF 50; Neutrogena Invisible Daily Defense Face Serum Sunscreen Broad Spectrum SPF 60 Plus; Neutrogena Invisible Daily Defense Fragrance Free SPF 60 Plus; Neutrogena Invisible Daily Defense Sunscreen Body SPF 60 plus; Neutrogena Invisible Daily Defense Sunscreen Broad Spectrum SPF 30; Neutrogena Invisible Daily Defense Sunscreen Broad Spectrum SPF 60 Plus; Neutrogena Kids Sunblock SPF 30; Neutrogena Men Active protect Face SPF 50 Plus; Neutrogena Men Age Fighter Face Broad Spectrum SPF15; Neutrogena Men Sensitive Skin Oil Free Moisture Sunscreen Broad Spectrum SPF30; Neutrogena Men Sensitive Skin Oil-free Moisture; Neutrogena Men Triple Protect Face Broad Spectrum SPF20; Neutrogena Men Triple Protect Face With Sunscreen Broad Spectrum SPF 20; Neutrogena Moisture Oil-free; Neutrogena Moisture Oil-free SPF 15; Neutrogena Moisture SPF 15; Neutrogena Moisture SPF 15 - Crm; Neutrogena MoistureShine SPF20 Angels Blush 100; Neutrogena MoistureShine SPF20 Anything Rose 200; Neutrogena MoistureShine SPF20 Berry Burst 400; Neutrogena MoistureShine SPF20 Caramel Kiss 230; Neutrogena MoistureShine SPF20 Cherry Twist 410; Neutrogena MoistureShine SPF20 Coral Dream 500; Neutrogena MoistureShine SPF20 Electric Currant 440; Neutrogena MoistureShine SPF20 Just Whisper 210; Neutrogena MoistureShine SPF20 Mauve On 300; Neutrogena MoistureShine SPF20 Nude Blush 240; Neutrogena MoistureShine SPF20 Peach-A-Boo 510; Neutrogena MoistureShine SPF20 Pinch of Cinn 260; Neutrogena MoistureShine SPF20 Playful Plum 310; Neutrogena MoistureShine SPF20 Plum Paradise 320; Neutrogena MoistureShine SPF20 Pomegranite 430; Neutrogena MoistureShine SPF20 Poppy Red 420; Neutrogena MoistureShine SPF20 Rum Raisin 250; Neutrogena MoistureShine SPF20 Sheer Luck 220; Neutrogena MoistureShine SPF20 Think Pink 110; Neutrogena MoistureShine SPF20 Tickled Pink 120; Neutrogena No-stick Sunblock SPF 30 - Lotion; Neutrogena Norwegian Formula Age Shield Hand SPF 30; Neutrogena OIl Free Moisture Sunscreen SPF 15; Neutrogena Oil Free Moisture Broad Spectrum SPF15; Neutrogena Oil-Free Moisture Sunscreen Broad Spectrum SPF 35; Neutrogena Oil-free Sunblock SPF 30; Neutrogena PROTECT PLUS TINT MEDIUM TO DEEP 50; Neutrogena PROTECT Plus TINT FAIR TO LIGHT 20; Neutrogena PROTECT Plus TINT IVORY TO FAIR 10; Neutrogena PROTECT Plus TINT LIGHT TO TAN 30; Neutrogena PROTECT Plus TINT TAN TO MEDIUM 40; Neutrogena Rapid Tone Repair Moisturizer Sunscreen Broad Spectrum SPF30; Neutrogena Rapid Tone Repair Retinol Plus Vitamin C Moisturizer Sunscreen Broad Spectrum SPF 30 Day; Neutrogena Rapid Tone Repair Sunscreen SPF30; Neutrogena Rapid Wrinkle Repair Moisturizer SPF 30; Neutrogena Rapid Wrinkle Repair Moisturizer Sunscreen Broad Spectrum SPF30; Neutrogena Rapid Wrinkle Repair Retinol Moisturizer Sunscreen Broad Spectrum SPF 30 Day; Neutrogena Retinol Nx Concentrated Retinol Daily Moisturizer SPF 35 Tinted; Neutrogena SPF 30; Neutrogena SPF 30 Spray Healthy Defense; Neutrogena SPF 30 Stick; Neutrogena SPF 45; Neutrogena SPF 45 Healthy Defense; Neutrogena Spectrum + Advanced Moisture Body Lotion; Neutrogena Spectrum + Advanced Moisture Sunscreen Lotion SPF 100; Neutrogena Spectrum + Face Advanced Moisture Sunscreen Lotion SPF 100; Neutrogena Spectrum Plus Advanced Sunscreen Broad Spectrum SPF100 Plus; Neutrogena Spectrum Plus Face Advanced Oil Free Sunscreen Broad Spectrum SPF100 Plus; Neutrogena Spectrum plus Advanced Sunblock SPF 100 plus helioplex 360; Neutrogena Spectrum+ Advanced Moisture Sunscreen Lotion SPF 70; Neutrogena Spectrum+ Advanced Moisture Sunscreen Spray SPF 100; Neutrogena Sport Face Oil Free Sunscreen Broad Spectrum SPF 70 Plus; Neutrogena Sport Face Oil Free Sunscreen Broad Spectrum SPF70 Plus; Neutrogena Sport Face Sunblock SPF70plus; Neutrogena Sunblock Cream SPF 30; Neutrogena Sunblock SPF 30; Neutrogena Sunblock Spray SPF 20; Neutrogena Triple Age Repair Moisturizer Broad Spectrum SPF25; Neutrogena Triple Age Repair Moisturizer with Sunscreen Broad Spectrum SPF 25; Neutrogena Ultimate Sport Sunblock SPF 100 Plus; Neutrogena Ultimate Sport Sunblock SPF 30 Helioplex; Neutrogena Ultimate Sport Sunblock SPF 70 Plus; Neutrogena Ultimate Sport Sunblock SPF70 Plus; Neutrogena Ultimate Sport Sunscreen Broad Spectrum SPF100 Plus; Neutrogena Ultimate Sport Sunscreen Broad Spectrum SPF30; Neutrogena Ultimate Sport Sunscreen Broad Spectrum SPF70 Plus; Neutrogena Ultra Gentle Soothing SPF15; Neutrogena Ultra Gentle Soothing Sunscreen Broad Spectrum SPF15; Neutrogena Ultra Sheer; Neutrogena Ultra Sheer Body Mist Sunscreen Broad Spectrum SPF 100 Plus; Neutrogena Ultra Sheer Body Mist Sunscreen Broad Spectrum SPF 30; Neutrogena Ultra Sheer Body Mist Sunscreen Broad Spectrum SPF 45; Neutrogena Ultra Sheer Body Mist Sunscreen Broad Spectrum SPF 70; Neutrogena Ultra Sheer Body Mist Sunscreen Broad Spectrum SPF30; Neutrogena Ultra Sheer Body Mist Sunscreen SPF 30; Neutrogena Ultra Sheer Body Mist Sunscreen SPF 45; Neutrogena Ultra Sheer Body Mist Sunscreen SPF 60; Neutrogena Ultra Sheer Daily Sun Protection SPF55; Neutrogena Ultra Sheer Dry Touch SPF55; Neutrogena Ultra Sheer Dry Touch Sunblock SPF 30 Helioplex; Neutrogena Ultra Sheer Dry Touch Sunblock SPF 45 with helioplex; Neutrogena Ultra Sheer Dry Touch Sunblock SPF70; Neutrogena Ultra Sheer Dry Touch Sunscreen Broad Spectrum SPF 30; Neutrogena Ultra Sheer Dry Touch Sunscreen Broad Spectrum SPF 55; Neutrogena Ultra Sheer Dry Touch Sunscreen Broad Spectrum SPF 70; Neutrogena Ultra Sheer Dry Touch Sunscreen Broad Spectrum SPF100 Plus; Neutrogena Ultra Sheer Dry Touch Sunscreen Broad Spectrum SPF45; Neutrogena Ultra Sheer Dry Touch Sunscreen Broad Spectrum SPF55; Neutrogena Ultra Sheer Dry Touch Sunscreen Broad Spectrum SPF70; Neutrogena Ultra Sheer Dry Touch Sunscreen Broad Spectrum SPF85 Plus; Neutrogena Ultra Sheer Dry-touch Sunscreen SPF 70; Neutrogena Ultra Sheer Dry-touch Sunscreen SPF 85; Neutrogena Ultra Sheer Face Mist Sunscreen Broad Spectrum SPF 55; Neutrogena Ultra Sheer Face Sunscreen Broad Spectrum SPF 70; Neutrogena Ultra Sheer Face Sunscreen SPF 45; Neutrogena Ultra Sheer Face Sunscreen SPF 60; Neutrogena Ultra Sheer Face and Body Sunscreen Broad Spectrum SPF70; Neutrogena Ultra Sheer Moisturizing Face Serum Sunscreen Broad Spectrum SPF 60 Plus; Neutrogena Ultra Sheer SPF 30; Neutrogena Ultra Sheer SPF 45; Neutrogena Ultra Sheer SPF 55 and SPF 70 Suncare Kit; Neutrogena Ultra Sheer Sunscreen Broad Spectrum SPF 70; Neutrogena Ultra Sheer Water Light; Neutrogena Ultra sheer Face and Body Sunscreen Broad Spectrum SPF70; Neutrogena Visibly Even BB Broad Spectrum SPF 30 Fair to Light; Neutrogena Visibly Even BB Broad Spectrum SPF 30 Light to Medium; Neutrogena Visibly Even Daily Moisturizer Sunscreen Broad Spectrum SPF30; Neutrogena Visibly Even Daily Moisturizer With Sunscreen Broad Spectrum SPF 30; Neutrogena Visibly Firm Face Lotion SPF 20; Neutrogena Wet Guard Kids Beach and Pool; Neutrogena Wet Skin Kids Applies To Wet Or Dry Skin Sunscreen Stick; Neutrogena Wet Skin Kids Beach & Pool Sunscreen Lotion; Neutrogena Wet Skin Kids Beach and Pool Sunblock SPF 70; Neutrogena Wet Skin Kids Beach and Pool Sunblock SPF 70plus helioplex; Neutrogena Wet Skin Kids Beach and Pool Sunscreen Broad Spectrum SPF 70 Plus; Neutrogena Wet Skin Kids Beach and Pool Sunscreen Broad Spectrum SPF45 Plus; Neutrogena Wet Skin Kids Beach and Pool Sunscreen Broad Spectrum SPF70 Plus; Neutrogena Wet Skin Kids SPF 45 Plus; Neutrogena Wet Skin Kids Sunscreen Broad Spectrum SPF70 Plus; Neutrogena Wet Skin Swim Humidity Sweat Sunscreen Broad Spectrum SFP45 Plus; Neutrogena Wet Skin Swim Humidity Sweat Sunscreen Broad Spectrum SPF30; Neutrogena Wet Skin Swim Humidity Sweat Sunscreen Broad Spectrum SPF50; Neutrogena Wet Skin Swim Humidity Sweat Sunscreen Broad Spectrum SPF85 Plus; Neutrogena Wet Skin Swim-Humidity-Sweat Sunblock SPF 50 Helioplex; Neutrogena Wet Skin Swim-Humidity-Sweat Sunblock SPF 85Plus Helioplex; Neutrogena Wet Skin Swim-Humidity-Sweat Sunscreen SPF 30 Helioplex; Nia 24 SPF 30; Nia24 Sun Damage Defense Broad Spectrum Uva/uvb Sunscreen SPF-30; Niacina-B; Nicole Miller Daytime Delivery; Nicole Miller Daytime Delivery Creme; Niseko Sunscreen SPF 25; Nivea A Kiss of Protection Lip Care; Nivea For Men Age Defying Face Moisturizer; Nivea Men - Lotion Protectrice Quotidienne SPF 15; Nivea Men Energy Revitalizing; Nivea Men Protect & Care Face Lotion; Nivea Men Protective; Nivea Men Sensitive; Nivea Men Sensitive Protective; Nivea Q10 Plus Anti-wrinkle Day Cream; Nivea Sun; Nivea Visage - Coenzyme Q10 Wrinkle Control Lotion; Nivea Visage Alpha Flavon Perfect Protection Cream; Nivea Visage Alpha Flavon Perfect Protection Lotion; Nivea Visage Coenzyme Q10 Plus Wrinkle Control Lotion; Nivea Visage Dnage Firm & Glow Day Care Cream; Nivea Visage Q10 Plus Anti-wrinkle; No 7 Beautiful Skin Day Cream Normal/oily SPF 15; No 7 Men Protect & Perfect Intense Moisturiser SPF 15; No 7 Protect & Perfect Intense Day Cream SPF 15; No 7 Restore & Renew Day Cream SPF 15; No Name Sunblock Lotion 30 SPF; No Name Sunblock Lotion Kids 30 SPF; No name provided; No-AD Face SPF 30 6oz; No-AD Kids Sun Protection SPF 30; No-AD Quality Guaranteed SPF 15 Uva/uvb Sun Protection Lotion; No-AD SPF 45 Babies Sun Protection; No-AD SPF 45 Face Protection; No-AD SPF 45 Sun Protection; No-AD SPF 50 Sport Sun Protection; No-AD Spf30 5 Oz; No-AD Spf30 Ltn 16oz; No-Ad Sun Care Broad Spectrum SPF 30 Sunscreen; No-Ad Sun Care Broad Spectrum SPF 50 Baby Sunscreen; No-Ad Sun Care Broad Spectrum SPF 50 Kids; No-Ad Sun Care Broad Spectrum SPF 60 Sunscreen; No. 7 Protect & Perfect Day Cream; No7 Beautiful Skin Day Cream Dry/very Dry SPF 15; No7 Beautiful Skin Day Cream Normal Dry SPF 15; No7 Beautiful Skin Day Cream Normal/dry SPF 15; No7 Beautiful Skin Day Dry Very Dry Sunscreen Broad Spectrum SPF 15; No7 Beautiful Skin Day Normal Dry Sunscreen Broad Spectrum SPF 15; No7 Beautiful Skin Day Normal Oily Sunscreen Broad Spectrum SPF 15; No7 Beautiful Skin Oil Free Skin Protector All Skin Types SPF 25; No7 Beautiful Skin day Normal Dry Sunscreen Broad Spectrum SPF 15; No7 City Light Tinted Moisturiser Sunscreen Broad Spectrum SPF 15 Fair; No7 City Light Tinted Moisturiser Sunscreen Broad Spectrum SPF 15 Medium; No7 City Light Tinted Moisturiser Sunscreen Broad Spectrum SPF 15 Medium Dark; No7 Dual Action Tinted Moisturiser Fair; No7 Dual Action Tinted Moisturiser Medium; No7 Early Defence Day Cream; No7 Early Defence Glow Activating Day Cream; No7 Lift & Luminate Fermete Et Eclat; No7 Lift & Luminate Triple Action Day Cream; No7 Lift and Luminate Day Cream SPF 15; No7 Lift and Luminate Triple Action Day Cream SPF 30; No7 Lift and Luminate Triple Action Fragrance Free Day Cream SPF 30; No7 Lifting & Firming Day Cream SPF 8; No7 Lifting and Firming Day Sunscreen SPF 8; No7 Lifting and Firming Skincare System Day Sunscreen SPF 8; No7 Men Protect and Perfect Intense Advanced Day Moisturiser SPF 30; No7 Men Protect and Perfect Intense Moisturiser; No7 Menopause Skincare Protect and Hydrate Day Cream Sunscreen Broad Spectrum SPF 30; No7 Perfect and Perfect Advanced All in One Foundation SPF 50 Calico; No7 Perfect and Perfect Advanced All in One Foundation SPF 50 Chestnut; No7 Perfect and Perfect Advanced All in One Foundation SPF 50 Cool Beige; No7 Perfect and Perfect Advanced All in One Foundation SPF 50 Cool Ivory; No7 Perfect and Perfect Advanced All in One Foundation SPF 50 Cool Vanilla; No7 Perfect and Perfect Advanced All in One Foundation SPF 50 Honey; No7 Perfect and Perfect Advanced All in One Foundation SPF 50 Porcelain; No7 Perfect and Perfect Advanced All in One Foundation SPF 50 Toffee; No7 Perfect and Perfect Advanced All in One Foundation SPF 50 Warm Beige; No7 Perfect and Perfect Advanced All in One Foundation SPF 50 Warm Ivory; No7 Perfect and Perfect Advanced All in One Foundation SPF 50 Wheat; No7 Perfect and Perfect Intense Advanced All in One Foundation SPF 50 Amber; No7 Perfect and Perfect Intense Advanced All in One Foundation SPF 50 Bamboo; No7 Perfect and Perfect Intense Advanced All in One Foundation SPF 50 Calico; No7 Perfect and Perfect Intense Advanced All in One Foundation SPF 50 Chestnut; No7 Perfect and Perfect Intense Advanced All in One Foundation SPF 50 Cool Beige; No7 Perfect and Perfect Intense Advanced All in One Foundation SPF 50 Cool Ivory; No7 Perfect and Perfect Intense Advanced All in One Foundation SPF 50 Cool Vanilla; No7 Perfect and Perfect Intense Advanced All in One Foundation SPF 50 Creme; No7 Perfect and Perfect Intense Advanced All in One Foundation SPF 50 Deeply Bronze; No7 Perfect and Perfect Intense Advanced All in One Foundation SPF 50 Deeply Honey; No7 Perfect and Perfect Intense Advanced All in One Foundation SPF 50 Dune; No7 Perfect and Perfect Intense Advanced All in One Foundation SPF 50 Hazelnut; No7 Perfect and Perfect Intense Advanced All in One Foundation SPF 50 Honey; No7 Perfect and Perfect Intense Advanced All in One Foundation SPF 50 Latte; No7 Perfect and Perfect Intense Advanced All in One Foundation SPF 50 Sand; No7 Perfect and Perfect Intense Advanced All in One Foundation SPF 50 Sepia; No7 Perfect and Perfect Intense Advanced All in One Foundation SPF 50 Toffee; No7 Perfect and Perfect Intense Advanced All in One Foundation SPF 50 Warm Beige; No7 Perfect and Perfect Intense Advanced All in One Foundation SPF 50 Warm Ivory; No7 Perfect and Perfect Intense Advanced All in One Foundation SPF 50 Wheat; No7 Perfect and Perfect Intense Advanced All in One Foundation SPF 50 Willow; No7 Protect & Perfect Hand Cream SPF 15; No7 Protect & Perfect Intense Advanced Day Cream; No7 Protect and Perfect Day Cream SPF 15; No7 Protect and Perfect Day Cream Sunscreen SPF 15; No7 Protect and Perfect Day Sunscreen Broad Spectrum SPF 15; No7 Protect and Perfect Day Sunscreen SPF 15; No7 Protect and Perfect Hand Cream Sunscreen Broad Spectrum SPF 15; No7 Protect and Perfect Hand Cream Sunscreen SPF 15; No7 Protect and Perfect Hand Sunscreen SPF 15; No7 Protect and Perfect Intense Advanced Day Cream SPF 30; No7 Protect and Perfect Intense Advanced Day Cream Sunscreen Broad Spectrum SPF 30; No7 Protect and Perfect Intense Advanced Fragrance Free Day Cream SPF 30; No7 Protect and Perfect Intense Day Cream SPF 15; No7 Protect and Perfect Intense Day Cream Sunscreen Broad Spectrum SPF 15; No7 Protect and Perfect Skincare System Day Sunscreen SPF 15; No7 Restore and Renew Day Cream SPF 15; No7 Restore and Renew Day Sunscreen; No7 Restore and Renew Face and Neck Multi Action Day Cream Sunscreen Broad Spectrum SPF 30; No7Restore and Renew Face and Neck Multi Action Day Cream Sunscreen Broad Spectrum SPF 30; NoTS Crystal CC Cushion No 21; NoTS Crystal CC Cushion No 23; NoTS UV PROTECTION SUN; Noad Sport SPF 50; Noella 24K Aged Defense SPF 30 Broad Spectrum; Normal Facial Moisturizer Broad Spectrum SPF 15 Lotion; North Sunx SPF 30 Sunscreen Lotion; North Sunx SPF 30 Sunscreen Towelette; Norwegian Formula Ageless Hand Cream SPF 30; NouriFusion; Nourifusion Sunscreen Broad Spectrum SPF 15 Moisturizing Lotion With Conditioning Antioxidant Vitamins A, C & E Normal To Dry; Nourifusion Sunscreen Broad Spectrum SPF 15 Moisturizing Lotion With Conditioning Antioxidant Vitamins A, C & E Normal To Oily; Nova Bright Skin SPF 30; Novadiol Uv SPF 15; Nu Colour Moisturshade Liquid Finish SPF 15; Nu Colour Skin Beneficial Tinted Moisturizer SPF 15; Nu Skin Nu Colour MoisturShade Finish SPF 15 Amber Mist; Nu Skin Nu Colour MoisturShade Finish SPF 15 Caramel; Nu Skin Nu Colour MoisturShade Finish SPF 15 Delicate Ivory; Nu Skin Nu Colour MoisturShade Finish SPF 15 Golden Beige; Nu Skin Nu Colour MoisturShade Finish SPF 15 Honey Beige; Nu Skin Nu Colour MoisturShade Finish SPF 15 Natural Beige; Nu Skin Nu Colour MoisturShade Finish SPF 15 Saffron Whisper; Nu Skin Nu Colour MoisturShade Finish SPF 15 Sandalwood; Nu Skin Nu Colour MoisturShade Finish SPF 15 Shell Rose; Nu Skin Nu Colour MoisturShade Finish SPF 15 Sunset Beige; Nu Skin Nu Colour Tinted Moisturizer Broad Spectrum SPF 15 Beige; Nu Skin Nu Colour Tinted Moisturizer Broad Spectrum SPF 15 Fair; Nu Skin Nu Colour Tinted Moisturizer Broad Spectrum SPF 15 Honey; Nu Skin Nu Colour Tinted Moisturizer Broad Spectrum SPF 15 Sand; Nu Skin Nu Colour advanced finish broad spectrum SPF 15 - Almond; Nu Skin Nu Colour advanced finish broad spectrum SPF 15 - Beige; Nu Skin Nu Colour advanced finish broad spectrum SPF 15 - Delicate Ivory; Nu Skin Nu Colour advanced finish broad spectrum SPF 15 - Honey Beige; Nu Skin Nu Colour advanced finish broad spectrum SPF 15 - Medium Beige; Nu Skin Nu Colour advanced finish broad spectrum SPF 15 - Medium Ochre; Nu Skin Nu Colour advanced finish broad spectrum SPF 15 - Mocha; Nu Skin Nu Colour advanced finish broad spectrum SPF 15 - Neutral Beige; Nu Skin Nu Colour advanced finish broad spectrum SPF 15 - Ochre; Nu Skin Nu Colour advanced finish broad spectrum SPF 15 - Pink; Nu Skin Nu Colour advanced finish broad spectrum SPF 15 - Pink Ochre; Nu Skin Nu Colour advanced finish broad spectrum SPF 15 - Soft Beige; Nu Skin Nu Colour advanced finish broad spectrum SPF 15 - Sunny Beige; Nu Skin Nu Colour advanced finish broad spectrum SPF 15 - Sunset Beige; Nu Skin Nu Colour advanced finish broad spectrum SPF 15 - Tawny; Nu Skin Nu Colour advanced tinted moisturizer broad spectrum SPF 15 - Beige; Nu Skin Nu Colour advanced tinted moisturizer broad spectrum SPF 15 - Fair; Nu Skin Nu Colour advanced tinted moisturizer broad spectrum SPF 15 - Honey; Nu Skin Nu Colour advanced tinted moisturizer broad spectrum SPF 15 - Medium Beige; Nu Skin Nu Colour advanced tinted moisturizer broad spectrum SPF 15 - Medium Ochre; Nu Skin Nu Colour advanced tinted moisturizer broad spectrum SPF 15 - Natural Beige; Nu Skin Nu Colour advanced tinted moisturizer broad spectrum SPF 15 - Ochre; Nu Skin Nu Colour advanced tinted moisturizer broad spectrum SPF 15 - Pink; Nu Skin Nu Colour advanced tinted moisturizer broad spectrum SPF 15 - Pink Ochre; Nu Skin Nu Colour advanced tinted moisturizer broad spectrum SPF 15 - Sand; Nu Skin Sunright 50 Broad Spectrum SPF 50; Nu Skin Tri-Phasic White Day Milk Broad Spectrum SPF 15; Nu Skin Tri-Phasic White System; Nu Skin ageLOC Me Day S3 Broad Spectrum SPF 25; Nu Skin ageLOC Me Day T3 Broad Spectrum SPF 25; Nu Skin ageLOC Radiant Day Broad Spectrum SPF 22; Nu-derm System Normal-dry Skin Transformation; NuCaraClinPAK; NuCaraRXPAK; NuHydraShield 30 SPF-30 Sunscreen; Nurigene Nourishing Daytime SPF 15; Nutra Suncare Ecran Solaire Nutra SPF 30; Nutricentials Day Dream Protective; Nutrisun Lait Solaire Insectifuge SPF 30; O HUI Perfect Sun Black EX Broad Spectrum SPF 50; OBAGI-C RX SYSTEM C-EXFOLIATING DAY with Vitamin C; OBAGI-C RX System NORMAL-DRY SKIN INTERVENTION; OBAGI-C RX system NORMAL-oily SKIN INTERVENTION; OHUI SUN SCIENCE Perfect Sunblock Blue EX plus; OP Dark Formula Xtreme Tanning 4; OP Dark Tanning Gel 4; OP Dark Tanning Xtreme Oil Amplifier SPF4; OP Protect and Nourish Babies and Sensitive SPF 50; OP Protect and Nourish Kids SPF 50; OP Protect and Nourish SPF 30 Sunscreen; OP Protect and Nourish SPF 50 Sunscreen; OP Protect and Renew Body SPF 45; OP Protect and Renew Face SPF 35; OP Protective Gel 15; OP Protective Mist 15 Oil Free; OP Protective Spray Gel 8; OP Protective Xtreme Tanning 8; OP SPF 70 Anti Aging Sunscreen; OP Sport Sunscreen spf30; OP spf15 Anti Aging Sunscreen; OP spf45 Face Clear Zinc Potion; OP spf45 Lip Potion Clear Zinc; OP spf50 and Sport Sunscreen; ORGAPLUS ULTRA PURE SUN 15g; ORGAPLUS ULTRA PURE SUN 22g; OSEQUE HIGH END TOUCH WATERFIT COVER CUSHION Natural Beige; OSEQUE HIGH END TOUCH WATERFIT Cover Cushion (Pink Beige); Oars and Alps SPF 18 Shine Free Lip Balm; Oars and Alps SPF 30 Hydrating Antioxidant Sunscreen; Oars and Alps SPF 30 Shine Free Lip Balm; Oars and Alps SPF 35 Everyday Sunscreen; Oars and Alps SPF 35 Face and Scalp Mist; Oars and Alps SPF 35 Go Sunscreen; Oars and Alps SPF 50 Hydrating Antioxidant SunscreenSpray; Oasis Daily Defense; Obagi; Obagi 360; Obagi 360 HydraFactor Moisturizing Broad Spectrum SPF 30 SUNSCREEN; Obagi Medical Back to Basics (Including Obagi Medical Professional-C Serum 15); Obagi Medical Back to Basics (Including Obagi Medical Professional-C Serum 20); Obagi Medical Exclusive Gift Set; Obagi Nu-Derm FX System Normal - Dry Skin Transformation Complexion Brightening System; Obagi Nu-Derm FX System Normal - Oily Skin Transformation Complexion Brightening System; Obagi Skintrinsiq Antioxidant Protocol; Obagi Skintrinsiq Brightening Protocol; Obagi-C Fx System Normal-Dry Skin Brightening System With Arbutin; Obagi-C Fx System Normal-Oily Skin Brightening System With Arbutin; Occulus Soloxide 30 Broad Spectrum SPF 30; Ocean Potion 50 Instant Dry Kid Spotstick; Ocean Potion Cool Dry Touch Sport 30 Sunscreen; Ocean Potion Gentle and Sensitive 50 Sunscreen; Ocean Potion H2o Sport SPF 50 Sunscreen Lotion; Ocean Potion Instant Dry 30 Mist Sport Sunscreen; Ocean Potion Instant Dry 30 Mist Water Sport Sunscreen; Ocean Potion Instant Dry 50 Dab-On Spotstick; Ocean Potion Instant Dry 50 Mist Kids Sunscreen; Ocean Potion Instant Dry 50 Mist Sunscreen; Ocean Potion Instant Dry 70 Mist Sunscreen; Ocean Potion Instant Dry SPF 30 Mist H20 Sport Sunscreen; Ocean Potion Instant Dry SPF 30 Mist Sport; Ocean Potion Instant Dry SPF 50 Mist Kids; Ocean Potion Instant Dry SPF 50+ Mist; Ocean Potion Intell Mist 50 Kids Sunscreen; Ocean Potion Kids Sunscreen Lotion SPF 50; Ocean Potion Moisturizing Lip Potion 45; Ocean Potion Oil SPF 4; Ocean Potion Quick Dry 15 Sunscreen; Ocean Potion Quick Dry 30 Sunscreen; Ocean Potion Quick Dry 50 Sunscreen; Ocean Potion Quick Dry Kids 50 Sunscreen; Ocean Potion Quick Dry SPF 70 Sunscreen; Ocean Potion SPF15 Sunscreen; Ocean Potion SPF30 Sunscreen; Ocean Potion Sport Xtreme Sunscreen Lotion SPF 30; Ocean Potion Sport Xtreme Sunscreen Lotion SPF 50; Ocean Potion Spray Gel SPF 8; Ocean Potion Sunscreen Lotion SPF 15; Ocean Potion Sunscreen Lotion SPF 30; Ocean Potion Sunscreen SPF 50+ Lotion; Ocean Potion Water Sport SPF50 Sunscreen; Oclipse Smart Tone Broad-spectrum Sunscreen SPF 50; Oclipse Sun Spray SPF 50 Broad Spectrum Sunscreen SPF 50 for Face + Body; Octinoxate, Octisalate, Avobenzone; Octinoxate,octisalate,avobenzone,octocrylene,ensulizole,titanium Dioxide; Octisalate, Avobenzone, Homosalate, Octocrylene SPF30; Octisalate,octocrylene,octinoxate,zinc Oxide,titanium Dioxide,ensulizole; Off Skintastic 1 Insect Repell.with Sunscrn.; Oh My Bod SPF 50 sunscreen; Oh My Bod SPF50 Antioxidant Infused Dry Touch Sunscreen; Ohui Sunscience Luminous Whitening Sunblock; Ohui The First Cell Revolution Age Control Sun Block; Oil Clearing Matte Moisturizer; Oil Control testers SPF 15; Oil Controlling Makeup SPF 15; Oil Daily Protect Sunscreen Moisturizer Broad Spectrum SPF 30; Oil Free Faces 30 SPF Sunscreen; Oil Free Faces Sunscreen SPF 30 daylogic; Oil Free Matte Defense SPF 20; Oil Free Matte SPF 30; Oil Free Matte Sunscreen SPF 30, - Zinc Oxide, Octinoxate, Octisalate, Oxybenzone; Oil Free Moisture; Oil Free Moisturizer; Oil Free SPF 30 Sunblock Lotion; Oil Free Sunscreen Lotion SPF 30; Oil and Pore Control Mattifier Broad Spectrum SPF 45; Oil-Free Facial Sunscreen Spectrum SPF 50 JAFRA; Oil-free Moisturizer; Oil-free Sun Block Liq SPF 15; Oil-free Sunscreen; Oil-free Sunscreen SPF 30; Oil-free Sunspray SPF 15; Oil-free Sunspray Spf10 Asp; Olay Age Defying Anti-Wrinkle Broad Spectrum SPF 15; Olay Age Defying Anti-Wrinkle Daily SPF 15; Olay Age Defying Anti-Wrinkle Day Broad Spectrum SPF 15; Olay Age Defying Anti-wrinkle; Olay Age Defying Anti-wrinkle - Daily SPF 15 Lotion; Olay Age Defying Anti-wrinkle Day Lotion With SPF 15; Olay Age Defying Sensitive Skin Broad Spectrum SPF 15; Olay Age Defying Sensitive Skin Day Lotion With Sunscreen; Olay Anti-wrinkle Nutrients Daily SPF 15 Lotion; Olay Body Age Transform Intensive Moisturizer Plus Uv Defense; Olay Complete 15 Uva/uvb 365 Daily Moisturizing Lotion With SPF Broad Spectrum SPF 15 Combination/oily; Olay Complete 15 Uva/uvb 365 Daily Moisturizing Lotion With SPF Broad Spectrum SPF 15 Normal; Olay Complete 30 Uva/uvb 365 Daily Moisturizing Lotion With SPF Broad Spectrum SPF 30 Sensitive; Olay Complete Ageless Skin Renewing UV; Olay Complete Ageless Skin Renewing Uv Lotion; Olay Complete All Day Moisture Broad Spectrum SPF 15 Normal; Olay Complete All Day Moisture Cream; Olay Complete All Day Moisture Cream Normal; Olay Complete All Day Moisture Creme SPF 15 Uva/uvb Sensitive; Olay Complete All Day Moisture Normal Broad Spectrum SPF 15; Olay Complete All Day Moisture With Sunscreen Broad Spectrum SPF 30 Normal; Olay Complete All Day Moisture With Sunscreen Broad Spectrum SPF 30 Sensitive; Olay Complete All Day Moisturizer; Olay Complete All Day Moisturizer Broad Spectrum SPF 15; Olay Complete All Day Moisturizer Broad Spectrum SPF 15 Combination/Oily; Olay Complete All Day Moisturizer Broad Spectrum SPF 30 Sensitive Skin; Olay Complete All Day Moisturizer Normal Broad Spectrum SPF 15; Olay Complete All Day Moisturizer Sensitive Skin; Olay Complete All Day Moisturizer With Uv Protection SPF 15 Combination/ Oily; Olay Complete All Day Moisturizer With Uv Protection SPF 15 Normal; Olay Complete All Day Moisturizer with Sunscreen Broad Spectrum SPF 30 Sensitive; Olay Complete All Day UV Moisturizer; Olay Complete All Day UV Moisturizer Combination-Oily; Olay Complete All Day UV Moisturizer Normal; Olay Complete All Day UV Moisturizer Sensitive Skin; Olay Complete Normal 15 Uva/uvb 365 Daily Moisturizing Cream With SPF; Olay Complete Normal UV365 Daily Moisture with sunscreen Broad Spectrum SPF 15; Olay Complete SPF 30 Defense Daily UV Moisturizer Sensitive Skin; Olay Complete Spf30 Defense All Day Moisturizer - Sensitive Skin; Olay Complete Tinted Moisturizer Broad Spectrum SPF 15 Fair to Light; Olay Complete Tinted Moisturizer Broad Spectrum SPF 15 Light to Medium; Olay Complete Tinted Moisturizer With Sunscreen Broad Spectrum SPF 15; Olay Complete Touch Of Sun; Olay Complete UV 365 Daily Moisturizer Combination Oily Broad Spectrum SPF 15; Olay Complete UV 365 Daily Moisturizer Normal Broad Spectrum SPF 15; Olay Complete UV365 Daily Moisturizer with Sunscreen Broad Spectrum SPF 30 Sensitive; Olay Definity Color Recapture Fair-Light SPF 15; Olay Definity Color Recapture Light-Medium (SPF 15); Olay Definity Color Recapture Medium-Deep (SPF 15); Olay Definity Refining Lotion With Uv Protection; Olay Fresh Effects BB Broad Spectrum SPF 15 Fair to Light; Olay Fresh Effects BB Broad Spectrum SPF 15 Light to Medium; Olay Fresh Effects Bb Cream Skin Perfecting Tinted Moisturizing Cream; Olay Fresh Effects SPF 15 Moisturizer; Olay Fresh Effects Soak Up the Sun Protection Broadspectrum SPF 15; Olay Luminous Brightening & Protecting Lotion With Sunscreen; Olay Luminous Brightening & Protecting Lotion With Sunscreen Broad Spectrum SPF 30; Olay Luminous Brightening and Protecting with Sunscreen Advanced Tone Perfecting Moisturize Broad Spectrum SPF 15 Fragrance-Free; Olay Luminous Brightening and Protecting with Sunscreen Broad Spectrum SPF 30; Olay Luminous Whip; Olay Luminous Whip Active Moisturizer Broad Spectrum SPF 25; Olay Luminous Whip Active Moisturizer Broad Spectrum SPF 30 Sales Samples; Olay Moisturizer Broadspectrum SPF 15; Olay ProX Clear Moisturizer Broad Spectrum SPF 15; Olay Professional Pro-X Clear Uv Moisturizer SPF 15; Olay Professional Pro-X Even Skin Tone Sheer Uv Protective Lotion; Olay Professional ProX Age Repair Broad Spectrum SPF 30; Olay Professional ProX Age Repair SPF 30; Olay Professional ProX Anti-Oxidant Sheer Daily Moisturizer Broad Spectrum SPF 35; Olay Professional ProX Clear UV Moisturizer SPF 15; Olay Professional ProX Tone Correcting Protocol; Olay Regenerist Advanced Anti-Aging; Olay Regenerist Advanced Anti-aging Day & Night Collection Moisturizer; Olay Regenerist Collagen Peptide 24 Hydrating Moisturizer Broad Spectrum SPF 30; Olay Regenerist DNA Superstructure Broad Spectrum SPF 30; Olay Regenerist DNA Superstructure UV SPF 30; Olay Regenerist Enhancing Lotion With Uv Protection; Olay Regenerist Enhancing Uva/uvb Lotion With SPF 15; Olay Regenerist Hyaluronic plus Peptide 24 Hydrating Moisturizer with Sunscreen Broad Spectrum SPF 30; Olay Regenerist Luminous Brightening and Protecting Moisturizer Broadspectrum SPF 15; Olay Regenerist Micro-Sculpting Anti-Aging Moisturize Broad Spectrum SPF 30; Olay Regenerist Regenerating Advanced Anti-Aging Moisturize Broad Spectrum SPF 50; Olay Regenerist Regenerating Broad Spectrum SPF 50; Olay Regenerist Regenerating Moisture Broad Spectrum SPF 15; Olay Regenerist Regenerating Moisturizer Broad Spectrum SPF 15; Olay Regenerist Retinol 24 plus Peptide Hydrating Moisturizer with Sunscreen Broad Spectrum SPF 30; Olay Regenerist SPF 30 Hydrating Collagen Peptide 24; Olay Regenerist SPF 30 Hydrating Hyaluronic + Peptide 24; Olay Regenerist SPF 30 Hydrating Retinol 24 + Peptides; Olay Regenerist SPF 30 Regenerist Micro-sculpting Cream; Olay Regenerist Touch Of Foundation Uv Defense Moisturizer; Olay Regenerist Touch Of Sun Enhancing Lotion With Uv Protection; Olay Regenerist UV Defense Regenerating SPF 15; Olay Regenerist Vitamin C plus Peptide 24 Hydrating Moisturizer with Sunscreen Broad Spectrum SPF 30; Olay Regenerist Whip; Olay Regenerist Whip Active Moisturizer Broad Spectrum SPF 25 Sunscreen; Olay Regenerist Whip Active Moisturizer Broad Spectrum SPF 25 Sunscreen TESTER; Olay Regenerist Whip Active Moisturizer Broad Spectrum SPF 30 Sunscreen (Sales Samples - SPF NOT DETERMINED); Olay Regenerist Whip Active Moisturizer Broad Spectrum SPF 40 Sunscreen; Olay Regenerist Whip Moisturizer Broad Spectrum SPF 25 Sunscreen; Olay Regenerist Whip Sun Protection Factor 40; Olay Sun Facial Sunscreen Antioxidants Makeup Primer SPF 35; Olay Sun Facial Sunscreen Antioxidants Shine Control SPF 35; Olay Sun Facial Sunscreen Vitamin E Makeup Primer; Olay Sun Facial Sunscreen Vitamin E Shine Control; Olay Total Effects 7 In One 15 Anti-aging Featherweight; Olay Total Effects 7 In One Tone Correcting Moisturizer With Sunscreen; Olay Total Effects 7-IN-1 Anti-aging Moisturizer With Sunscreen Broad Spectrum SPF 30; Olay Total Effects 7-IN-1 Anti-aging Uv Moisturizer; Olay Total Effects 7-IN-1 Anti-aging Uv Moisturizer Fragrance-free; Olay Total Effects 7-IN-1 Anti-aging Uv Moisturizer Plus Touch Of Foundation; Olay Total Effects 7-IN-1 Moisturizer + Treatment Duo; Olay Total Effects 7in1 Anti-aging Moisturizer With Sunscreen Broad Spectrum SPF 15; Olay Total Effects 7in1 Pore Minimizing Cc Cream With Sunscreen; Olay Total Effects Anti-Aging Moisturizer Broad Spectrum SPF 15 Fragrance Free; Olay Total Effects Anti-Aging Moisturizer Broad Spectrum SPF 30; Olay Total Effects CC Tone Correcting Broad Spectrum SPF 15 Fair to Light; Olay Total Effects CC Tone Correcting Broad Spectrum SPF 15 Light to Medium; Olay Total Effects CC Tone Correcting Broad Spectrum SPF 15 Medium to Deep; Olay Total Effects Feather Weight Moisturizer with Sunscreen Broadspectrum SPF 15; Olay Total Effects Feather Weight Moisturizer with Sunscreen Broadspectrum SPF 15 Fragrance Free; Olay Total Effects Fragrance Free Moisturizer Broad Spectrum SPF 15; Olay Total Effects Moisturizer Broad Spectrum SPF 30; Olay Total Effects Moisturizer Plus Serum Duo Broad Spectrum SPF 15; Olay Total Effects Moisturizer Plus Serum Duo Fragrance Free Broad Spectrum SPF 15; Olay Total Effects Moisturizer with Sunscreen Broad Spectrum SPF 15 Fragrance-Free; Olay Total Effects Pore Minimizing CC Broadspectrum SPF 15 Fair to Light; Olay Total Effects Pore Minimizing CC Broadspectrum SPF 15 Light to Medium; Olay Total Effects Pore Minimizing CC Broadspectrum SPF 15 Medium to Deep; Olay Total Effects SPF 15; Olay Total Effects SPF 30; Olay Total Effects Tone Correcting Moisturizer Broadspectrum SPF 15 Fair to Light; Olay Total Effects Tone Correcting Moisturizer Broadspectrum SPF 15 Medium; Olay Total Effects Tone Correcting Moisturizer Broadspectrum SPF 15 Medium to Deep; Olay Total Effects Top Sellers Trial Pack; Olay Total Effects UV Moisturizer SPF 15 Fragrance Free; Olay Total Effects Uv Protection Enriched Moisturizer; Olay Total Effects Uv Protection Hand Moisture Treatment; Olay Total Effects Whip; Olay Total Effects Whip Active Moisturizer Broad Spectrum SPF 25 Sunscreen; Olay Total Effects Whip Active Moisturizer Broad Spectrum SPF 25 Sunscreen Fragrance Free; Olay Total Effects Whip Active Moisturizer Broad Spectrum SPF 30 Sunscreen Sales Samples; Olay Total Effects Whip Active Moisturizer Broad Spectrum SPF 40 Sunscreen; Olay Total Effects Whip Sun Protection Factor 40; Olay Uv Moisturizing Cream; Olay Uva/uvb Moisturizing Cream; Olay Whip Plus Hydrating Moisturizer with Sunscreen Broad Spectrum SPF 30; Olay Whip Ultimate Facial Sunscreen Prime Protect SPF 35; Old Spice Bald Care System Scalp Moisturizer Broad Spectrum SPF 25 Sunscreen; Old Spice Daily Moisturizer with Sunscreen Broadspectrum SPF 15; Ole Henriksen Truth Revealed Brightening Broad Spectrum SPF 15 Moisturizer; Ombrelle Kids Lotion Wet'n Protect; Ombrelle Kids SPF 60; Ombrelle L'oreal Suncare Research Kids (SPF 30); Ombrelle L'oreal Suncare Research Kids (SPF 45); Ombrelle Lotion SPF 15; Ombrelle Sport Gel; Ombrelle Sport Spray; Ombrelle Sport Spray Spf15; Ombrelle Ultra Light Advanced Lotion; Ombrelle Vapo Sport SPF 15; Once Finishing; Oneday Brightener Premium; Orange Creamsicle SPF 15 Broad Spectrum Lip Balm; Orange Soda SPF 15 Broad Spectrum Lip Balm; Orchidee Double Defense Skin Shield; OrgaPlus Ultra Pure Sun 15g; OrgaPlus Ultra Pure Sun 22g; OrgaPlus Ultra Pure Sun EX 15g; OrgaPlus Ultra Pure Sun EX 22g; Original Lotion With Sunscreen; Origins A PERFECT WORLD AGE DEFENSE TINTED MOISTURIZER SPF 15; Origins A Perfect World SPF 15 Age-defense Tinted Moisturizer With White Tea; Origins A Perfect World SPF 25 Age-defense Moisturizer With White Tea; Origins A Perfect World SPF 40 Age-defense Moisturizer With White Tea; Origins Ginzing Energy-boosting Tinted Moisturizer Broad Spectrum SPF 40; Origins Ginzing SPF 40 Energy-boosting Tinted Moisturizer; Origins Plantscription SPF 25 Anti-aging Cream; Origins Plantscription SPF 25 Anti-aging Oil-free Cream; Origins Plantscription SPF 25 Power Anti-aging Cream; Origins Plantscription SPF 25 Power Anti-aging Oil-free Cream; Origins Smarty Plants Cc SPF 20 Skin Complexion Corrector; Origins Vitazing SPF 15 Energy-boosting Moisturizer; Oscar de la Renta Moisturizing Sunscreen SPF 30; Othine Skin Bleach; Outdoor Adventure Set; Outdoor Essentials; Outdoor Explorer Set; PHOTO FINISH FOUNDATION PRIMER BROAD SPEcTRUM SP 20 WITH DERMAXYL COMPLEX; PLANTSCRIPTION SPF 25 POWER ANTI-AGING oil FREE BROAD SPECTRUM; PLAY Antioxidant Body Mist SPF 30 with Vitamin C; PLAY Antioxidant Body Mist SPF 50 With Vitamin C; PLAY SPF 30 Lip Shield Coconut; PREP (plus) PRIME BEAUTY BALM SPF 35; PRIDEFUL SPF 15 LIP BALM-cherry vanilla; PRIDEFUL SPF 15 LIP BALM-citrus; PRIDEFUL SPF 15 LIP BALM-coconut; PRIDEFUL SPF 15 LIP BALM-melon; PRIDEFUL SPF 15 LIP BALM-orange mango; PRIDEFUL SPF 15 LIP BALM-passion fruit; PRINCIPAL SECRET Reclaim Revolutionary Anti-Aging Day SPF 15; PROVENCE CALENDULA AQUA SUN 35g; PROVENCE CALENDULA DAILY SUN BLOCK SPF50 Plus; PROVENCE CALENDULA PERFECT SUN BLOCK 150mL; PRPL dual cover cushion No 21 cre am ivory Cushion; PRPL dual cover cushion No 23 vanilla beige Cushion; Palm Island Broad Spectrum SPF 30 Sunscreen; Palm Island Broad Spectrum SPF 50 Sunscreen; Palmer's Cocoa Butter Formula Body Lotion SPF 15; Pamana Jack Broad Spectrum SPF 100; Pamana Jack Broad Spectrum SPF 15; Pamana Jack Broad Spectrum SPF 50; Pamana Jack Broad Spectrum SPF 75; Pamana Jack Kids Broad Spectrum SPF 50; Pamana Jack Sport Broad Spectrum SPF 50; Panama Jack 30 Broad Spectrum SPF 30 Clear Zinc; Panama Jack BOAD SPECTRUM SPF 30; Panama Jack BOAD SPECTRUM SPF 50; Panama Jack BROAD SPECTRUM SPF 50; Panama Jack BROAD SPECTRUM SPF30; Panama Jack Broad Spectrum SPF 100; Panama Jack Broad Spectrum SPF 100 Sport Sunscreen; Panama Jack Broad Spectrum SPF 100 Sunscreen; Panama Jack Broad Spectrum SPF 15; Panama Jack Broad Spectrum SPF 15 Sport; Panama Jack Broad Spectrum SPF 30; Panama Jack Broad Spectrum SPF 50; Panama Jack Broad Spectrum SPF 70; Panama Jack SPF 15; Panama Jack SPF 30; Panama Jack SPF 50; Panama Jack SPF 85 Sport Dry Touch Sunscreen; Panama Jack Sunscreen Broad Spectrum SPF75; Papa Recipe Bombee Moist Sun Essence; Papa Recipe Honey Moist Sun Essence; Parrot Head Dedicated to Sunshine Oil 4; Parrot Head Dedicated to Sunshine Tan Enhancer 15; Parrot Head Dedicated to Sunshine Tan Enhancer 8; Parrot Head Fins Up 50 Mist Sunscreen; Parrot Head Fins Up Sport 15; Parrot Head Fins Up Sport 15 Mist Sunscreen; Parrot Head Fins Up Sport 30; Parrot Head Fins Up Sport 30 Mist; Parrot Head Floridays 30; Parrot Head Floridays 50; Parrot Head Floridays Face 50; Parrot Head Parakeet Kids 50; Parrot Head Parakeet Kids 50 Mist Sunscreen; Parsol Suncare SPF 29; Patricia Wexler Intensive 3-in-1 Day Cream with Sunscreen Broad Spectrum SPF 28; Patricia Wexler Skin Brightening Daily Moisturizer with Sunscreen Broad Spectrum SPF 28; Patricia Wexler Universal Anti-Aging Moisturizer with Sunscreen Broad Spectrum SPF 28; Patrick Dempsey 2 Moisturizer; Paulas Choice Clear Ultra-Light Daily Hydrating Fluid SPF 30; Paulas Choice Extra Care Non-Greasy Sunscreen SPF 50; Paulas Choice Lipscreen SPF 50; Paulas Choice Moisture Boost Daily Restoring Complex; Paulas Choice RESIST Skin Restoring Moisturizer SPF 50; Paulas Choice Resist Smoothing Primer Serum SPF 30; Paulas Choice Resist Youth Extending Daily Hydrating Fluid SPF 50; Pavin SPF 50 Sunscreen; Pc SPF Fps 15 Sunscreen Continuous Spray; Pc SPF Fps 15 Sunscreen Lotion; Pc SPF Fps 30 Sport Sunscreen Continuous Spray; Pc SPF Fps 30 Sport Sunscreen Lotion; Pc SPF Fps 30 Sunscreen Continuous Spray; Pc SPF Fps 30 Sunscreen Lotion; Pc SPF Fps 50 Sunscreen Continuous Spray; Pc SPF Fps 50 Sunscreen Lotion; Pc SPF Fps 50+ Kids Sunscreen Continuous Spray; Pc SPF Fps 50+ Kids Sunscreen Lotion; Pc SPF Fps 50+ Sunscreen Lotion; Pear SPF 30 Broad Spectrum; Pelagic Sun Protection Broad Spectrum SPF 50; Pep Start Hydrorush Moisturizer Broad Spectrum SPF 20; Peppermint Lip Balm; Peppermint SPF 15 Broad Spectrum Lip Balm; Peppermint SPF 30 Broad Spectrum Lip Balm; Perfect Balance Sunsafe Sunblock SPF 24; Perfect Bb for Men; Perfect Day 2 in 1 Everywear SPF 50 and Mint Condition Lip Shield SPF 30 Supergoop; Perfect Shield Rejuve Sunscreen 100; Perfect Sun Kids Sunscreen protector against solar rays for children, face and body SPF 50 FM; Perfect Truth Cc CRÃ¨me; Perfect Truth cc Broad Spectrum SPF 30 Ole Henriksen; Perfectif Even Skin Tone Cream Broad Spectrum SPF 30 Sunscreen; Perfecting Day Cream Broad Spectrum SPF 30 Pa +++; Perfectly Posh Block it Like its Hot Broad Spectrum SPF 30; Performance Sunscreen SPF 45 Cream; Personalized Day Moisturizer with SPF 30; Personalized Day Moisturizer with SPF 50; Peter Island Baby Sunscreen SPF 50; Peter Island Continous sunscreen SPF 30; Peter Island Continous sunscreen SPF 50; Peter Island Continous sunscreen kids SPF 50; Peter Island Continuous Sport Sunscreen SPF 50; Peter Island Kids Sunscreen SPF 65; Peter Island Sunscreen SPF 30; Peter Island Sunscreen SPF 50; Peter Island Sunscreen SPF 70; Peter Island SunscreenSPF 50 SPF 50; Peter Island Ultimate Sheer Dry Touch Sunscreen SPF 70; Ph.Hubby 1g Sun Cream Intensive Protection; Ph.Hubby Beige BB Tone Up Sun; Ph.Hubby Pink BB Tone Up Sun; Pharma Plus Baby Sunblock Lotion 30 SPF; Pharma Plus Sport Sunblock 30 SPF; Pharma Plus Sport Sunblock Lotion 30 SPF; Pharma Plus Sunblock 30 SPF; Pharmasave Sport Sunscreen Continuous Spray SPF Fps 30; Photo Dynamic Therapy SPF 30; Photo Finish Foundation Primer SPF 20; Photo Finish Protect Broad Spectrum SPF 45 Large Spectre Fps 45 Primer Unificateur De Teint; Photo Finish Protect Broad Spectrum SPF 45 Primer; Photo Regul Cream / CRÃ¨me; Photo Regul Cream / CRÃ¨me Unifying Protective Face Care / Soin Protecteur Visage Unificateur SPF 25 / Fps 25; Photo Regul Cream Unifying Protective Face Care SPF 25; Photo Regul Face SPF 25; Photo-age Sunscreen SPF 30; Photoplex Plus Broad Spect.sunscr.lot SPF 15; Picture Perfect Day Daily Moisturizer; Pigmentclar Uv SPF 30; Pina Colada Body SPF 30 Broad Spectrum; Pinea-C; Pineapple SPF 30 Broad Spectrum; Pink Stick; Pixi Sun Mist SPF 30; Pixi Sun Serum SPF 30; Pl-1849; Plagentra Baby Suncity; Plagentra Soothing Revolution Suncity; Plantscription Anti Aging Oil Free Broad Spectrum SPF 25; Plantscription Anti-aging Broad Spectrum SPF 25; Plantscription SPF 25 Power Anti Aging Broad Spectrum 25; Play Antioxidant Body Mist WIth Vitamin C Broad Spectrum SPF 30; Play Body Mousse with Blue Sea Kale Broad Spectrum SPF 50; Play Everyday Lotion; Play Everyday Sunscreen SPF 50 with Sunflower Extract; Play It Safe Sunscreen SPF 30; Play Lip Balm Broad Spectrum SPF 30 with Mint; Play Lip Balm with Acai Broad Spectrum SPF 30; Play SPF 30 Lip Shield Strawberry; Plius Daily SPF Moisturizer SPF 30; Plushmallow SUNSTICK; PlÃ©nitude - Effaceur Rides SPF 15; Pollen UV Perfect Daily Sunscreen; Polyphenol C15; Polysporin Lip Protectant; Pomegranate Lip Balm; Pomegranate SPF 15 Broad Spectrum Lip Balm; Pomegranate SPF 15 Lip; Pond's Replenishing Moisturizer Lotion SPF 15; Ponds Luminous Moisture Day SPF 15; Positively Ageless Daily Moisturizer; Positively Ageless Sunscreen Lotion SPF 60 Face; Positively Ageless Sunscreen Lotion SPF 85 Face; Positively Ageless Sunscreen Spray SPF 45; Positively Ageless Tinted Moisturizer; Positively Radiant Cc Cream SPF 30 Fair To Light; Positively Radiant Cc Cream SPF 30 Medium; Positively Radiant Daily Moisturizer; Positively Radiant Daily Moisturizer SPF 15; Post Rays UV Protect Sun Block; Powder Foundation SPF 20; PowerPatch Dark Spot Protector; Powerbright Moisturizer SPF 50; Prebel Nude Protect SPF 70 Sunscreen; Premier Value Illuminating Daily Moisturizer; Premium Endurance Sunscreen 50; Premium Moisturizing Sunscreen SPF 30; Premium Moisturizing Sunscreen SPF 50; Premium Sunscreen Broad Spectrum SPF 30; Premium Sunscreen Face Lotion Sun Bum Face 50; Premium Sunscreen Lotion Sun Bum 30; Premium Sunscreen Lotion Sun Bum 50; Premium Sunscreen Lotion With Instant Bronzer Broad Spectrum SPF 15; Premium Sunscreen Spray Sun Bum 30; Premium Sunscreen Spray Sun Bum 50; Premium Ultra Uv Pure Sun; Prep (and) Prime Bb Beauty Balm SPF 35 Broad Spectrum Suncreen; Prep (and) Prime Cc Color Correct Spf30 Broad Spectrum; Prep Plus Prime Bb Beauty Balm Compact Broad Spectrum SPF 30; Prep and Prime Fix Plus SPF 30 Broad Spectrum Sun; Prep and Prime Fortified Skin Enhancer Broad Spectrum SPF 35; Prep and Prime Fortified Skin Enhancer SPF 35; Prep and Prime SPF Mini Set; Prescriptives All You Need + Broad Spectrum Moisture Lotion SPF 15; Prescriptives All You Need + Continuous Action 24 Hour Moisture SPF 15 for Drier Skins; Prescriptives Sunsheen Custom Color Tinted Self Tanner Uva/uvb Sunscreen SPF 15 for Face and Body; President's Choice Sport Sunblock Lotion SPF 30; President's Choice Sunblock Lotion SPF 30; President's Choice Sunblock Lotion for Babies SPF 45; President's Choice Sunblock Lotion for Children SPF 30; Prestige Snail Lip Treatment; Presun 15 Cream Sunscreen; Presun 29 Cream Sunscreen; Presun 29 Cream Sunscreen for Kids; Presun 29 Sunscreen Cream Spf29; Presun 29 Sunscreen for Kids Crm Spf29; Presun 30 Clear Gel Sunscreen; Presun 30 Cream Sunscreen; Presun 30 Cream Sunscreen for Kids; Presun 30 for Kids Cream Sunscreen; Presun Ultra 15 Cream; Presun Ultra 15 Gel; Presun Ultra 27 for Kids Spray; Presun Ultra 30 Cream; Presun Ultra 30 Gel; Presun Ultra 30 for Kids Cream; Prevage Anti Aging Moisture Broad Spectrum Sunscreen SPF 30; Prevage Anti Agining Triple Defense Shield Broad Spectrum Sunscreen SPF 50; Prevage Anti-aging Moisture Cream; Prevage Anti-aging Moisture Cream SPF 30; Prevage Anti-aging Moisture Lotion SPF 30; Prevage Anti-aging Triple Defense SPF 50 Sunscreen Sheer Lotion; Prevage anti aging SPF 30; Prevention + Daily Ultimate Protection Moisturizer; Primer Broad Spectrum Sunscreen; Primer Plus Radiance Broad Spectrum SPF 35; Primer Results Tinted Moisturizer SPF15 Caramel; Primer Results Tinted Moisturizer SPF15 Golden Beige; Primer Results Tinted Moisturizer SPF15 Ivory; Primer Results Tinted Moisturizer SPF15 Sand; Principal Secret Advanced with Hydrospheres Continuous Moisture SPF8; Principal Secret Reclaim Botanical (with SP) Radiant Recovery Day Broad Spectrum SPF 15; Prisma Protect SPF 30; Prisma Protect Spf30; Prismplus Broad-Spectrum Sunscreen SPF 43; Private Label Moisturizing Oil Free Paraben Free SPF43; Private Label SPF45 Water Resistant Paraben Free Sunscreen; Private Label Super Light Oil-Free SPF45; Pro Retinol 100% Vegetal Fluide Defenseur; Pro SPF 30 Sport Lotion; Pro Triple Protection Factor Face and Body Broad Spectrum SPF 30 Sunscreen; Pro Triple Protection Factor Lip Balm Broad Spectrum SPF 30 Sunscreen; Pro-Care; Pro-Tect Sports Sunscreen SPF 20; Pro-Tect Sunscreen for Professionals; Pro-X By Olay Dermatological Anti-aging Age Protection Lotion Sunscreen Broad Spectrum SPF 30; Pro-tec Sport Lotion; Pro-tect Sports Sunscreen; Pro-tect Sunscreen for Professionals; ProX by Olay Dermatological Anti-Aging Intensive Wrinkle Protocol; Proactiv Clear Skin SPF 30; Proactiv Liquid SPF 15; Proactiv MD Daily Oil Control SPF 30; Proactiv SPF 15; Proactiv Sheer Tint Moisture SPF 15; Proactiv Solution BB Broad Spectrum SPF 15 (Light, Medium, Dark); Proactiv Solution Daily Protection Plus Sunscreen SPF 30; Proactivplus SPF Protection SPF 15; Procyte Neova Day Therapy SPF 30; Professional-C Suncare Broad Spectrum SPF 30 Sunscreen; Propolis 20 BB Cream; Propolis 27 Cover Cushion; Protect + Hydrate Face; Protect + Hydrate Moisturizing Sunscreen SPF 30; Protect + Hydrate Moisturizing Sunscreen SPF 50; Protect The Truth Broad Spectrum SPF 50+ Sunscreen; Protect The Truth SPF 50 Ole Henriksen; Protecting Body Oil SPF 15; Protecting Day Lotion SPF 15; Protecting Hydrator SPF 30; Protecting SPF 30 Spray; Protecting Self-tan Lotion SPF 15; Protecting Sun Care Lotion SPF 15; Protecting Sun Care Lotion SPF 25; Protecting Suncare Lotion SPF 15 Prevention Soleil; Protection 50 Sport; Protective Lip Care Extreme Shine; Protective Moisturizer Broad Spectrum SPF 30 Sunscreen; Protective Moisturizing Fluid Pour Homme - for Men; Protective Protectrice Sunscreen Spray Lotion Lotion Ãcran Solaire En Vaporisateur SPF/fps 15; Protective Protectrice Sunscreen Spray Lotion Lotion Ãcran Solaire En Vaporisateur SPF/fps 8; Protector SPF 15 Jafra Sun; Protectyl Soleil Moisturizing Sunscreen Lotion Minimal Protection Spf10; Protectyl Soleil Moisturizing Sunscreen Spray Moderate Protection Spf15; Protetor Solar Grip Action FPS 40; Provence Air Skin Fit Bb Crea M 01 Light Beige; Provence Air Skin Fit Bb Crea M 02 Natural Beige; Provence Air Skin Fit Make Up Base 01 Pink; Provence Air Skin Fit Make Up Base 02 Green; Provence Air Skin Fit Oi L Control Bb Cushion 01 Light Beige; Provence Air Skin Fit Oi L Control Bb Cushion 02 Natural Beige; Provence Air Skin Fit Pact 01 Light Beige; Provence Air Skin Fit Pact 02 Natural Beige; Provence Calendula Aqua Cooling Sun; Provence Calendula Aqua Sun; Provence Calendula Aqua Sun Ge L; Provence Calendula Daily Sun Block; Provence Calendula Fresh Sun; Provence Calendula Fresh Sun Ge L; Provence Calendula Ice Puff Sun; Provence Calendula Mild Sun Block; Provence Calendula Mild Sun Block Spf35; Provence Calendula No Sebum Sun Block; Provence Calendula No Sebum Sun Block Spf45; Provence Calendula Perfect Sun Block; Provence Calendula Waterproof Sun Block; Provence Intensive Ampoule Bb Cushion 01 Light Beige; Provence Intensive Ampoule Bb Cushion 02 Natural Beige; Provence Water Drop Pact 21 Light Beige; Provence Water Drop Pact 23 Natural Beige; Publix Baby SPF 50; Publix Kids; Publix Kids SPF 50; Publix SPF 30; Publix SPF 50; Publix Sport SPF 50; Pur Confort Fps 15 SPF; Pur Confort SPF 15; Pura Vida Sunscreen; Pure Bb 21 Light Beige; Pure Bb 23 Light Beige; Pure Bb Cre Am 21 Light Beige; Pure Bb Cre Am 23 Natural Beige; Pure Cashmere Skin Defense Makeup SPF 15 Jafra; Pure Champagne Skin Defense Makeup SPF 15 Jafra; Pure Finish Mineral Tinted Moisturizer SPF 15; Pure Finish Mineral Tinted Moisturizer SPF 15 Deep; Pure Finish Mineral Tinted Moisturizer SPF 15 Fair; Pure Finish Mineral Tinted Moisturizer SPF 15 Light; Pure Finish Mineral Tinted Moisturizer SPF 15 Medium; Pure Ivory Skin Defense Makeup SPF 15 Jafra; Pure Porcelain Skin Defense Makeup SPF 15 Jafra; Pure Tan Skin Defense Makeup SPF 15 Jafra; Puristics Totallyageless SPF 15 Daily Anti-aging; Puriton PERFECT BRIGHTENING SUNSCREEN; Purlisse Blue Lotus Daily Moisturizer SPF 30; Purpose; Purpose Alpha Hydroxy Moisture Cream SPF 15; Purpose Alpha Hydroxy Moisture Lotion SPF 15; Purpose Dual Treatment Moisture Sunscreen SPF 15; Purpose Sunscreen; Pursuit Body Surf Daily SPF 40 Body Sunscreen; Pursuit Hang 40 SPF 40 Sunscreen; Pursuit Hit the Lip SPF 15 Lip Balm; Q10 Power Tm/mc Anti-wrinkle Firming Day Cream; Queens Rose Perfection Cover Cushion Pact; Queens Rose Whole In One Sunblock; Quick Dry Body Broad Spectrum SPF40 Sunscreen UVA-UVB Sunscreen with SolSci-X; Quick Dry SPF 30 Sheer Finish Spray; Quick Dry SPF 50 Sheer Finish Spray; Quick Wrinkle Repair Moisturizer Broad Spectrum SPF30; Quince Whitening Sun SPF 34 Pa Plus Plus; Quo Light Diffusing Makeup SPF 8; Quo Skin Tints; R.E.M. Day SPF 30; R.E.M. SPF 30; RAYDIANT by Australian Gold BROAD SPECTRUM SPF 50 Vitamin D; RE9 Advanced Deluxe Try Me Set; RE9 Advanced Restorative Day Creme SPF 20; RE9 Advanced Skincare Sample Pack for Face Kit; RECIPE Infinite UV Shield Sunscreen Broad Spectrum SPF100; RED GINSENG RADIANCE CUSHION BB No.21; RED GINSENG RADIANCE CUSHION BB No.23; REDEFINE Regimen for the Appearance of Lines, Pores and Loss of Firmness Travel Size; REDEFINE Triple Defense; REDEFINE triple defense; REPAIRWEAR UPLIFTING FIRMING BROAD SPECTUM SPF 15 - NORMAL COMBO TO COMBINATION oily; REPASKIN FACIAL SUNSCREEN BROAD-SPECTRUM SPF 30 50ml; RESILIENCE MULTI-EFFECT TRI-PEPTIDE FACE AND NECK CREME BROAD SPECTRUM SPF 15 dry skin; REVERS Lightening Regimen for the Appearance of Stubborn Dark Marks, Patches and Age Spots Travel Size; REVERSE Brightening Defense Fluid; REVERSE Lightening Regimen for the Appearance of Stubborn Dark Marks, Patches and Age Spots; REVERSE Regimen for the Appearance of Skin Dullness, Discoloration and Uneven Skin Tone; REVERSE Regimen for the Appearance of Skin Dullness, Discoloration and Uneven Skin Tone Travel Size; REVIVE INTENSITE CREME LUSTRE DAY Firming Moisture Cream Broad Spectrum SPF 30 Sunscreen; RITUALS Active Firming Day sunscreen broad spectrum SPF 15 dry skin; RITUALS Essential Anti-Aging Day SPF 15 sunscreen broad spectrum normal to dry skin; RITUALS broad spectrum SPF 15 sunscreen Sensitive Skin Day; ROC MULTI CORREXION 5-In-1 Daily Moisturizer With Sunscreen Broad Spectrum SPF 30; RODAN - FIELDS ESSENTIALS Body Sunscreen BROAD SPECTRUM SPF 30; RR SPF30 Sun Stick; Ra Sence Loe Cure Air light UV shield Sun; Rachel K Mineral Cc Blemish Balm; Radiant Day SPF 22; Radiant Skin Moisturizer SPF 15 Lotion; Rain Or Shine; Rainbow Broad Spectrum SPF 30; Rapid Tone Repair Moisturizer; Rapid Wrinkle Repair Moisturizer; Rapid Wrinkle Repair SPF 30 Sunscreen; Raspberry Lime Margarita SPF 15 Broad Spectrum Lip Balm; Raspberry SPF 15 Broad Spectrum Lip Balm; Ray Defense Borad Spectrum SPF 30 sunscreen Biolements; Ray Defense Broad Spectrum SPF 30; Ray Defense SPF 30 Sunscreen; Raydiant By Australian Gold Vitamin D Broad Spectrum spf 30; Raydiant By Australian Gold Vitamin D Broad Spectrum spf 50; Raydiant by Australian Gold Broad Spectrum SPF 30 Vitamin D; Rayito de Sol SPF 35; Rayito de Sol Sunscreen SPF 18; Rayito de Sol Sunscreen SPF 6; Re Nutriv Radiant Uv Base Broad Spectrum SPF 50; Re9 Advanced Extra Moisture Restorative Cream With SPF 20; Re9 Advanced Restorative Day CRÃ¨me With SPF 20; Re9 Advanced Set - Extra Moisture; Re9 Advanced for Men Facial Moisturizer With SPF 20; Re9 Advanced for Men Travel Set; ReCreate Foundation Beige; ReCreate Foundation Chestnut; ReCreate Foundation Cool Bisque; ReCreate Foundation Cool Sand; ReCreate Foundation Honey; ReCreate Foundation Ivory; ReCreate Foundation Natural; ReCreate Foundation Porcelain; ReCreate Foundation Walnut; ReCreate Foundation Warm Bisque; ReCreate Foundation Warm Sand; ReCreate Foundation Warm Walnut; ReNK Velvet in pact No.21; ReVive Fermitif Hand Renewal Broad Spectrum SPF 15 Sunscreen; ReVive Perfectif Even Skin Tone Dark Spot Corrector Broad Spectrum SPF 30 Sunscreen; ReVive Sensitif Renewal Daily Cellular Protection Broad Spectrum SPF 30 Sunscreen; ReVive Soleil Superieur Broad Spectrum SPF 50 Sunscreen PA; Reclaim Revolutionary Anti-Aging Day SPF15; Red Element Daily Moisturizing Creme With SPF 15; Red Element Daily Moisturizing Lotion With SPF 15; Red Stick; Rederm Moisturizing Lotion SPF 30; Redermic [c] Uv - SPF 25; Reef Babies SPF 50; Reef Babies SPF 50 Oxybenzone Free; Reef Kids SPF 30; Reef Kids SPF 30 Oxybenzone Free; Reef Kids SPF 40; Reef Safe SPF 15; Reef Safe SPF 20; Reef Safe SPF 30; Reef Safe SPF 30 Oxybenzone Free; Reef Safe SPF 36; Reef Safe SPF 40; Reef Safe SPF 45; Reef Safe SPF 50; Reef Safe SPF 50 Oxybenzone Free; Reef Safe Sun SPF 30 Oxybenzone Free; Refreshing Sunscreen Mist Brumisateur D'Ã©cran Solaire RafraÃ®chissant; Refreshing Sunscreen Spray Vaporisateur D'Ã©cran Solaire RafraÃ®chissant; Refreshmist Cucumber and Bamboo SPF 20; Regeneration Daily Protection Creme Broad Spectrum SPF 50; Regular Lip Balm; Rejuvaderm Medispa Body; Rejuvaderm Medispa sunscreen; Rejuve Sunscreen 100; Rejuvenating Face Moisturizer SPF 30; Remedy Lip Balm; Renardblanc Multilayer Sun Block; Rendrevie Sun Screen SPF35 PA; Rener lift multi action ultra SPF 30; Renergie Lift Multi-action SPF 15; Renergie Lift Multi-action SPF 15 Firming Moisturizing Cream All Skin Types; Renergie Lift Multi-action SPF 15 Firming Moisturizing Rich Cream; Renew Face Dry Touch Sun Protection Broad Spectrum Uva/uvb Sunscreen Lotion SPF 30; Renewal 7-in-1 Anti-Aging Vitamin; Renove ROYAL PERFECT HAND Broad Spectrum SPF 15; Rep Nutrinature Recovery Advanced Bb; Rep Nutrinature Recovery Advanced Bb Spf50; Repair & Protect Moisturizer Broad Spectrum SPF 30; Repair and Protect Moisturizer Broad Spectrum SPF30; Repairwear Laser Focus Line Smoothing Broad Spectrum SPF 15 -very Dry To Dry Combination; Repairwear Lift SPF 15 Firming Day Dry Combo Skin; Repairwear Uplifting Firming Broad Spectrum SPF 15 Dry; Replenish Day Cream SPF 15; Replenishing Day Lotion Broad Spectrum SPF 20; Replenishing Moisture Lotion SPF 15; Replenishing Sunscreen SPF 36; Rescue Squad Broad Spectrum SPF 25; Resilience Lift Extreme Ultra Firming SPF 15; Resilience Lift Firming Sculpting Face and Neck Broad Spectrum SPF 15; Resilience Lift Firming Sculpting Face and Neck Broad Spectrum SPF 15 Nml Combo; Resilience Lift Firming Sculpting Face and Neck Creme SPF 15 Nml Combo; Resilience Lift Firming- Sculpting Face and Neck Broad Spectrum SPF 15 for Dry Skin; Resilience Multi-effect Tri-peptide Face and Neck Creme Broad Spectrum SPF 15; Resist Daily Mattifying Fluid Broad Spectrum SPF 50; Resist Lip Gloss Broad Spectrum SPF 40; Resist Ultimate Hand Cream Broad Spectrum SPF 30; Resting Beach Face SPF30 Anti-Pollution Sunscreen Serum; Restorative Elements Even Defense SPF 30; Retexturizing Primer Broad Spectrum SPF 20; Retinol Day SPF 30 CVS; Retroactive + Day Youth Extending Cream SPF/fps 25 Uva/uvb; Revelage Arbonne Brightening Moisture Face Cream With SPF 30; Revelage Arbonne Brightening Moisture Hand Cream With SPF 30; Revelage Brightening Moisture Face Cream With SPF 30; Revelage Brightening Moisture Hand Cream With SPF 30; Reversa CRÃ¨me Anti-rides Contour Des Yeux Fps 15; Reversa CRÃ¨me Radiance Fps 30; Reversa Creme Contour Des Yeux Fps30; Reversa Creme Fps30; Reversa Urban Protection Hydrating Care SPF 30 Soin Hydratant Protection Urbaine Fps 30; Revitalift Anti-wrinkle + Firming Day Cream; Revitalift Bright Reveal Brightening Daily Lotion; Revitalift SPF 30; Revitalift Triple Power Lzr Day Lotion; Revitalift Triple Power Lzr Intensive Anti-aging Lotion; Revitalize Solar Protection Fluid Broad Spectrum SPF 50; Revitalizing Supreme Plus Global Anti-aging Cell Power Creme Broad Spectrum SPF 15; Revlon Age Defying Cc Cream; Revlon Age Defying DNA Advantage CC Cream; Revlon Colorstay Light Cover Foundation; Revlon PhotoReady BB Cream Skin Perfector; Revlon Photoready Bb Cream; Rexall 30 SPF Sunblock Lotion; Rexall Kids Daily Sunblock Lotion SPF 30; Rexall Oil Free SPF 30 Daily Sunblock Lotion; Rexall Sport 30 SPF Sunblock Lotion; Rich Girl Hand; Rich Girl Hand SPF 25; Rich Lip Color SPF 12; Riche CRÃ¨me SPF Fps 20 Wrinkle Smoothing Day Lotion; Riche CRÃ¨me SPF/fps 20 Fluide Bienfaisant Anti-rides Jour; Riche Creme Wrinkle Smoothing Day; Rides & Ãclat CRÃ¨me Resplendissante Jour Fps 20; Rimmel BB Beauty Balm Light; Rimmel BB Beauty Balm Medium; Rimmel BB Beauty Balm Medium Dark; Rimmel BB Cream 9-IN-1 Skin Perfecting Super Makeup Light Medium; Rimmel BB Cream 9-in-1 Skin Perfecting Super Makeup Light; Rimmel BB Cream 9-in-1 Skin Perfecting Super Makeup Medium; Rimmel BB Cream Beauty Balm Radiance SPF 20 Light; Rimmel BB Cream Beauty Balm Radiance SPF 20 Medium; Rimmel Insta Flawless Perfecting Radiant Skin Tint Light Medium; Rimmel Insta Flawless Perfecting Radiant Skin Tint Medium Dark; Rimmel London Moisture Renew Lipgloss - Active Mauve (135); Rimmel London Moisture Renew Lipgloss - Berry Bliss (245); Rimmel London Moisture Renew Lipgloss - Cherry Boost (585); Rimmel London Moisture Renew Lipgloss - Comfortably Nude (116); Rimmel London Moisture Renew Lipgloss - Coral Reflection (119); Rimmel London Moisture Renew Lipgloss - Fuscia Theraphy (345); Rimmel London Moisture Renew Lipgloss - Hydra Beige (120); Rimmel London Moisture Renew Lipgloss - Mauve Renew (125); Rimmel London Moisture Renew Lipgloss - Peach Fusion (117); Rimmel London Moisture Renew Lipgloss - Pink Benefit (105); Rimmel London Moisture Renew Lipgloss - Pink Protect (145); Rimmel London Moisture Renew Lipgloss - Pink Remedy (110); Rimmel London Moisture Renew Lipgloss - Pink Spa (365); Rimmel London Moisture Renew Lipgloss - Purple Rescue (335); Rimmel London Moisture Renew Lipgloss - Red Action (565); Rimmel London Moisture Renew Lipgloss - Rose Cocoon (115); Rimmel London Moisture Renew Lipgloss - SOS Red (525); Rio-bronze SPF 30 Towelettes; Risarium Black Rice Extreme Age-defying Line Reducing Moisture Face Cream SPF 15; Rite Aid Baby Sunscreen; Rite Aid Daily Moisturizer SPF 15; Rite Aid Essential Defense SPF 45; Rite Aid Kids Sunscreen SPF 50; Rite Aid Oil Free Faces Sunscreen SPF 30; Rite Aid RENEWAL SPF 30; Rite Aid RENEWAL Sport SPF 30; Rite Aid RENEWAL essential defense SPF 50; Rite Aid RENEWAL kids SPF 50; Rite Aid RENEWALSPF 50 SPF 50; Rite Aid SPF 30; Rite Aid Sport; Rite Aid Sport SPF 30 8 oz; Rite Aid Sport SPF 50; Rite Aid Sport SunscreenSPF 30 SPF 30; Rite Aid Sport SunscreenSPF 50 SPF 50; Rite Aid Sunscreen; Rite Aid Sunscreen SPF 30; Rite Aid Sunscreen SPF 50; Rite Aid Ultimate Sheer; RoC Multi Correxion; RoC Multi Correxion 4 Zone Daily Moisturizer Sunscreen Broad Spectrum SPF30; RoC Multi Correxion 5 in 1 Chest, Neck and Face Sunscreen Broad Spectrum SPF 30; RoC Multi Correxion 5 in 1 Daily Moisturizer Sunscreen Broad Spectrum SPF30; RoC Multi Correxion 5 in 1 Moisturizer Sunscreen Broad Spectrum SPF30; RoC Multi Correxion 5 in 1 Perfecting Sunscreen Broad Spectrum SPF 25; RoC Multi correxion Lift Anti Gravity Day Moisturizer SPF 30; RoC Multi correxion Lift Anti Gravity Day Moisturizer Sunscreen Broad Spectrum SPF30; Robanda Anti-Aging Hand; Roc Multi Correxion 5 In 1 Chest, Neck and Face Sunscreen Broad Spectrum SPF 30; Roc Multi Correxion 5 In 1 Daily Moisturizer Sunscreen Broad Spectrum Spf30; Roc Multi Correxion Hydrate and Plump Daily Moisturiser SPF 30; Roc Multi-correxion; Roc Retin-OX Correxion 5-IN-1 Skin Perfector Bb Cream SPF 25; Roc Retinol Correxion Wrinkle Correct Daily Moisturizer SPF 30; Roc Soleil Protexion Daily Anti-ageing Sunscreen; Roc Soya Unify SPF 15; Rocky Mountain Broad Spectrum SPF 30; Rocky Mountain KIDS Broad Spectrum SPF 30; Rocky Mountain SPF 50; Rocky Mountain Sunscreen; Rodan & Fields Proactiv + Daily Protection Moisturizer Broad Spectrum SPF 15; Rodan & Fields Proactiv Solution: Sheer Tint Moisture SPF 15 (sunbronze, Suntan, Sunlight); Rodan + Fields Essentials Face + Body Sunscreen; Rodan + Fields Redefine Triple Defense Cream; Rodan + Fields Redefine Triple Defense Lotion; Rodan + Fields Reverse Brightening Defense Fluid Lotion; Rodan + Fields Unblemish Invisible Matte Defense; Rodan + Fields Unblemish Kit; Rodan Fields Anti-Age Age Shield Hand SPF 30; Rodan and Fields ESSENTIALS Lip Shield Broad Spectrum SPF 25; Rodan and Fields REDEFINE Regimen for the Appearance of Lines, Pores and Loss of Firmness; Rodan and Fields Redefine AM SPF 30; Rodan and Fields Redefine Age Shield Hand Shield Balm SPF30; Rodan and Fields Reverse 4 Broad Spectrum SPF 50 Plus Sunscreen; Rodan+fields Essentials Body Sunscreen; Rodan+fields Essentials Lip Shield; Rodan+fields Redefine; Rodan+fields Redefine Age Shield Hand Balm; Rodan+fields Reverse; Rodan+fields Reverse Kit; Rodial Broad Spectrum SPF 50 Drops Anti-Blue Light and Pollution; Root Beer SPF 15 Broad Spectrum Lip Balm; Rosaliac Cc Creme; Rosaliac Uv Legere; Rosaliac Uv Riche; Rose Skin Care Anti-aging SPF 30; Royal Boost Cover Me Sunscreen Broad Spectrum SPF 30; Royal Defy Multi-Performance Age Protector Broad Spectrum SPF 50; Royal Jelly Defy Age and pollution protector Broad Spectrum SPF 50; Royal Jelly Hand Complex Broad Spectrum SPF 15; Royal Jelly Kit Jafra; Royal Men 3-in-1 Face Moisturizer Broad Spectrum SPF 20; Royal Men Sample Set; Royal and Ancient Suncreen; Rubber Ducky SPF 50 Sunscreen; Rubelli Water Glow Sun; Rubelli Water Glow Sun for Golf; Rugid Sunscreen; Ryan Sheckler's Orange Lip Balmer SPF 15; Ryshi SPF 50 Sunscreen; RÃ©nergie Lift Multi-action Ultra; RÃ©nergie Lift Multi-action Ultra Spf30; SARAH CHAPMAN London SKINESIS Dynamic Defence Anti-Ageing Day SPF 15; SARAH CHAPMAN London SKINESIS Dynamic Defence Concentrate Anti-Ageing Day Cream SPF 15; SAVONE Skin Therapy Age Essentials SPF 30 Sports Sunscreen; SCRUBS Solar Guard Sunscreen Wipe SCRUBS Solar Guard; SEA STAR SPARKLE SPF 50 Glitter Sunscreen Coco Lime; SEA STAR SPARKLE SPF 50 Glitter Sunscreen Cotton Candy; SEAWEED BATH CO Cooling Mist SPF-60 Sport; SEEME BEAUTY Moisturizer with Sunscreen SPF 30; SEPHORA ROUGE BALM SUNSCREEN SPF20 B01-Delicate Pink; SEPHORA ROUGE BALM SUNSCREEN SPF20 B03-Enchanting Blush; SEPHORA ROUGE BALM SUNSCREEN SPF20 B04-Sweet Fuchsia; SEPHORA ROUGE BALM SUNSCREEN SPF20 B05-Gentle Coral; SEPHORA ROUGE BALM SUNSCREEN SPF20 B06-Soft Red; SEPHORA ROUGE BALM SUNSCREEN SPF20 B07-Bashful Beige; SEPHORA ROUGE BALM SUNSCREEN SPF20 B08-Subtle Peony; SEPHORA ROUGE BALM SUNSCREEN SPF20 B09-Mild Plum; SEPHORA Sunscreen Body Mist Broad Spectrum SPF 30; SEVEN MINERALS Skin Friendly SPF 30; SEVEN MINERALS Skin Friendly SPF 50; SHADE and ILLUMINATE SOFT RAD PRMR SPF; SHEER SPF 55 Well at Walgreens; SHISEIDO CLEAR SUNSCREEN SPF 50 Plus; SHISEIDO CLEAR stick UV PROTECTOR; SHISEIDO FUTURE solution LX UNIVERSAL DEFENSE E; SHISEIDO URBAN ENVIRONMENT Oil-Free SUNSCREEN SPF 42; SHISEIDO URBAN ENVIRONMENT oil-FREE UV PROTECTOR; SHISEIDO WASO SHIKULIME COLOR CONTROL oil-free MOISTURIZER Broad Spectrum SPF 30; SILKEN pore perfecting sunscreen broad spectrum SPF 35; SIMPLI DAY All In One SmartCream SPF 42; SISLEYA Global Anti-Age Hand care SPF 15; SKIN 79 Super Plus Beblesh Balm Triple Functions SPF25 PA (40g); SKIN79 Super Plus Beblesh Balm Triple Functions SPF25 PA (5g); SKINFOOD ALOE SUN BB 02 Natural Skin; SLMD Dual Defender SPF 30; SLMD Moisturizer with SPF; SNP Animal Panda Luminous Cover Cushion; SNP Animal Tiger Long-lasting Cover Cushion; SOL LEON Sunscreen SPF 15; SOL LEON Sunscreen SPF 30; SOLAR SENSE CLEAR ZINC SUNSCREEN BROAD SPECTRUM SPF 50 Plus; SOLAR SENSE CLEAR ZINC SUNSCREEN Baby Tear Free FACE AND BODY BROAD SPECTRUM SPF 50; SOLAR SENSE CLEAR ZINC SUNSCREEN Baby Tear Free FACE and BODY BROAD SPECTRUM SPF 50 PLUS; SOLAR SENSE CLEAR ZINC SUNSCREEN FACE and BODY BROAD SPECTRUM SPF 50; SOLAR SENSE CLEAR ZINC SUNSCREEN FACE and BODY SPORT BROAD SPECTRUM SPF 50 Plus; SOLAR SENSE CLEAR ZINC SUNSCREEN FACE and LIPS BROAD SPECTRUM SPF 50; SOLAR SENSE CLEAR ZINC SUNSCREEN FACE and LIPS BROAD SPECTRUM SPF 50 Plus; SOLAR SENSE CLEAR ZINC SUNSCREEN SPORT BROAD SPECTRUM SPF 50 Plus; SOLEIL SUN Creme Solaire Visage et corps Sunscreen Face and Body Sunscreen Broad Spectrum SPF30; SOLMATE Broad Spectrum SPF 30; SOTHYS PARIS Sunscreen Face and Body Broad Spectrum SPF 30 UVA/UVB; SPF #15 Sunscreen Lotion; SPF #30 Sunscreen Lotion; SPF 15; SPF 15 Body Sunscreen Spray; SPF 15 Broad Spectrum Lotion; SPF 15 Broad Spectrum Sunscreen Lotion; SPF 15 Daily Moisturizer; SPF 15 Fps; SPF 15 Fps Lip Formula; SPF 15 Lip Balm; SPF 15 Lip and SPF 30 Sunscreen; SPF 15 Lotion; SPF 15 Lotion W/bronzer; SPF 15 Oil Free Sunscreen Spray; SPF 15 Performance Bodycare Sunscreen Spray; SPF 15 Protective Balm with UVA/UVB Sunscreens; SPF 15 Self Tanner Lotion; SPF 15 Sheer Coverage Sunscreen Lotion - Australian Gold; SPF 15 Spray Gel; SPF 15 Spray Gel Sunscreen With Bronzer - Australian Gold; SPF 15 Spray Gel W/bronzer; SPF 15 Sunburn Protection Lotion; SPF 15 Sunscreen; SPF 15 Sunscreen Continuous Spray; SPF 15 Sunscreen Continuous Spray - Australian Gold; SPF 15 Sunscreen Continuous Spray With Bronzer; SPF 15 Sunscreen Continuous Spray With Bronzer - Australian Gold; SPF 15 Sunscreen Lotion; SPF 15 Sunscreen Lotion - Australian Gold; SPF 15 Sunscreen Spray With Insect Repellent; SPF 15 face moisturizer; SPF 15 for Men Maca Root Energetic Face Protector; SPF 20 Sport; SPF 20 Sports Blend; SPF 20 Sunscreen UVAUVB Tinted Moisturizer Nude; SPF 20 Uva/uvb; SPF 25 Body Sunscreen Spray; SPF 30; SPF 30 Alcohol-free Spray Sunscreen; SPF 30 Alcohol-free Spray-ON Sunscreen; SPF 30 Anthelios XL Lotion; SPF 30 Body Sunscreen; SPF 30 Body Sunscreen Fragrance Free; SPF 30 Broad Spectrum Lotion; SPF 30 Clear Protect Continuous Spray; SPF 30 Face Sunscreen Lotion; SPF 30 Fps; SPF 30 Fps Sport Spray; SPF 30 Fps Sunscreen Lotion; SPF 30 Fps Sunscreen Lotion Lotion Ãcran Solaire; SPF 30 Hydrating Mist; SPF 30 Invisible Mist; SPF 30 Kids Alcohol-free Spray Sunscreen; SPF 30 Kids Alcohol-free Spray-ON Sunscreen; SPF 30 Kids Spray-ON Sunscreen; SPF 30 Kids Sunscreen Lotion; SPF 30 Kids Wet'n Protect; SPF 30 Lip Balm; SPF 30 Mineral Sunscreen Face Neck; SPF 30 Oil Free Broad Spectrum Sunscreen Lotion; SPF 30 Oil Free Sunscreen Spray; SPF 30 Performance Sunscreen Spray; SPF 30 Protection Primer; SPF 30 Scalp and Hair Mist; SPF 30 Sheer Coverage Sunscreen Lotion - Australian Gold; SPF 30 Sheer sunscreen face Ulta; SPF 30 Sport Broad Spectrum Sunscreen Lotion; SPF 30 Sport Clear Continuous Spray; SPF 30 Sport Continuous Spray Sunscreen; SPF 30 Sport Endurance; SPF 30 Sport Sunscreen CVS; SPF 30 Sport Sunscreen GoodSense; SPF 30 Sport Sunscreen Lotion; SPF 30 Sport Sunscreen Spray; SPF 30 Sport Sunscreen Stick; SPF 30 Spray Gel Sunscreen With Bronzer - Australian Gold; SPF 30 Spray-ON Alcohol-free Sunscreen; SPF 30 Stay Put Sunscreen; SPF 30 Sun Protection Lotion; SPF 30 Sun Protection for All Seasons; SPF 30 Sunburn Protection Lotion; SPF 30 Sunburn Protection Lotion for Kids; SPF 30 Sunscreen; SPF 30 Sunscreen Canisun; SPF 30 Sunscreen Continuous Spray - Australian Gold; SPF 30 Sunscreen Continuous Spray Solution for Kids; SPF 30 Sunscreen Continuous Spray With Bronzer - Australian Gold; SPF 30 Sunscreen Lotion; SPF 30 Sunscreen Skier's Defense; SPF 30 Sunscreen Stick; SPF 30 Sunscreen Tottle; SPF 30 Sunscreen Tottle w Carabiner; SPF 30 Sunscreen Towelette; SPF 30 Sunscreen with Soybean; SPF 30 Ultra Light Advanced Weightless Body Lotion; SPF 30 Ultra Light Advanced Weightless Face Lotion; SPF 30 Ultra Sport Sunscreen Lotion; SPF 30 Ultra Sunscreen Continuous Spray; SPF 30 Ultra-lift; SPF 30 Uva/uvb Continuous Spray No Pumping Needed Sun Protection; SPF 30 Wrinkle Reducing Cream; SPF 30 face Moisturizer; SPF 30 tropical flavor sunscreen lip balm Ulta; SPF 32 Sunscreen Hawaiian; SPF 40 Uva/uvb; SPF 45; SPF 45 Body and Scalp Sunscreen Continuous Spray; SPF 45 Clear; SPF 45 Clear Protect Continuous Spray; SPF 45 Cream; SPF 45 Sport Clear Continuous Spray; SPF 45 Sunscreen Lotion; SPF 50 Broad Spectrum Kids; SPF 50 Broad Spectrum Sunscreen Continuous Spray; SPF 50 Broad Spectrum Ultrathon; SPF 50 Face Cream; SPF 50 Face Sunscreen Bioelements; SPF 50 Face Sunscreen Canisun; SPF 50 Facial Sunscreen; SPF 50 Fps; SPF 50 Funscreen Spray-ON Sunscreen for Kids; SPF 50 Invisible Mist; SPF 50 Kids Continuous Spray Sunscreen; SPF 50 Kids Sunscreen Lotion; SPF 50 Signature High Performance Sunscreen; SPF 50 Sport Sunscreen GoodSense; SPF 50 Stay Put Sunscreen; SPF 50 Sunburn Protection Lotion; SPF 50 Sunscreen; SPF 50 Sunscreen Continuous Spray Lotion; SPF 50 Sunscreen Lotion; SPF 50 Sunscreen Rocky Mountain; SPF 50 Sunscreen Spray; SPF 50 plus; SPF 50 plus Sunscreen; SPF 50 with SOLAR SMART; SPF 50+ Baby Broad Spectrum Sunscreen Lotion; SPF 50+ Broad Spectrum Sunscreen Lotion; SPF 50+ Broad Spectrum Sunscreen Mousse; SPF 50+ Continuous Spray Sunscreen; SPF 50+ Fps Face/ Visage; SPF 50+ Fps Ultra; SPF 50+ Fps Ultra Lotion; SPF 50+ Kids (80 Minutes) Water Resistant; SPF 50+ Kids Broad Spectrum Sunscreen Lotion; SPF 50+ Kids Lotion; SPF 50+ Kids Sunscreen Continuous Spray; SPF 50+ Kids Sunscreen Lotion; SPF 50+ Sport Broad Spectrum Sunscreen Continuous Spray; SPF 50+ Sport Broad Spectrum Sunscreen Lotion; SPF 50+ Sport Sunscreen Lotion; SPF 50+ Sunscreen Lotion; SPF 50+ Ultra Light Advanced Weightless Body Lotion; SPF 55; SPF 55 Sport Stick CVS; SPF 55 Sport Sunstick Well at Walgreens; SPF 55 Sunscreen Canisun; SPF 60; SPF 60 Anthelios XL Lightweight Lotion; SPF 60 Anthelios XL Lotion; SPF 60 Baby Sunscreen Continuous Spray Lotion; SPF 60 Baby Sunscreen Lotion; SPF 60 Clear; SPF 60 Clear Protect Continuous Spray; SPF 60 Face Sunscreen Lotion; SPF 60 Kids Wet'n Protect; SPF 60 Sport Clear Continuous Spray; SPF 60 Sport Endurance; SPF 60 Sport Sunscreen Continuous Spray; SPF 60 Sport Sunscreen Lotion; SPF 60 Sunscreen Continuous Spray; SPF 60 Sunscreen Stick; SPF 60 Ultra Light Advanced Weightless Face Lotion; SPF 8; SPF 8 Oil Free Sunscreen Spray; SPF Best Sellers Mini Kit; SPF Bestsellers Starter Kit; SPF Fps 100 Sun Protection Lotion; SPF Fps 30 Sport Sunscreen Continuous Spray; SPF Fps 30 Sun Protection Lotion; SPF Fps 30 Sunscreen Lotion; SPF Fps 40 Lotion; SPF Fps 40 Spray; SPF Fps 50 Baby Spray; SPF Fps 50 Kids Sunscreen; SPF Fps 50+ Sunscreen Lotion; SPF Fps 60 Sun Protection Lotion; SPF Moisturizer; SPF Multitaskers Mini Set; SPF Rx - Anti-Aging Sunscreen SPF 30; SPF Rx - SPF 15 Spearmint Lip Balm; SPF Rx - SPF 30 Mango Lip Balm; SPF Rx - Sport Sunscreen SPF 30; SPF Rx - Sport Sunscreen SPF 50; SPF-15 Daily Protection for Photosensitive Skin; SPF-20 Face Primer; SPF-20 Sunscreen; SPF/fps 15; SPF/fps 30; SPF/fps 30 Body/corps; SPF/fps 30 Broad Spectrum Alcohol Free Sunscreen; SPF/fps 30 Broad Spectrum Sunscreen Spray; SPF/fps 30 Eco-lux Size/format Ãcolux Body / Corps; SPF/fps 30 Kids; SPF/fps 30 Lipbalm; SPF/fps 30 Oil Free Sunscreen Lotion; SPF/fps 30 Sport Eco Lips; SPF/fps 30 Sport Sunscreen Lotion; SPF/fps 30 Sunscreen Continuous Spray; SPF/fps 30 Sunscreen Lotion; SPF/fps 33 Dermatone Moisturizing Uva/uvb Sunscreen Creme; SPF/fps 45; SPF/fps 50; SPF/fps 50 Broad Spectrum Alcohol Free Sunscreen; SPF/fps 50 Fragrance-free Spray Sunscreen; SPF/fps 50 Kids; SPF/fps 50 Sunscreen Continuous Spray; SPF/fps 50+ Sheer Sunscreen Lotion; SPF/fps 60; SPF/fps 60 Continuous Spray; SPF15 Sunscreen; SPF15 sunscreen; SPF15 sunscreen lip balm; SPF30 Sunscreen; SPF30 Sunscreen and Antibacterial Hand Sanitizer; SPF30 Sunscreen and SPF15; SPF30 sunscreen; SRB 3 Lighting White Sun; SSLT2 Sun Screen; STEBLANC WATER CC PACT 21 Light Beige; STEBLANC WATER CC PACT 23 Natural Beige; STRYX Daily Moisturizer SPF-30; STUBBLE and STACHE Broad Spectrum SPF 30; SUN Solar Defense Hydrating; SUNLEYA Age minimizing sun care SPF 15; SUNLEYA Age minimizing sun care SPF 50 plus; SUNPROOF INTENSIVE LIP BALM Broad Spectrum SPF 24 Sunscreen FRESH MINT; SUNPROOF INTENSIVE LIP BALM Broad Spectrum SPF 24 Sunscreen SWEET TANGERINE; SUNSHINE SKIN TINT BROAD SPECTRUM SPF 30 Sunscreen; SUNZEN Broad Spectrum SPF 30; SUNZONE FAMILY SPF 60 Broad Spectrum; SUNZONE FAMILY SPF30 SUNSCREEN Broad Spectrum; SUNZONE FAMILY SUNSCREEN SPF 30 Broad Spectrum; SUNZONE KIDS SPF 60 Broad Spectrum; SUNZONE SPF 15 Broad Spectrum; SUNZONE SPF 30 Broad Spectrum; SUNZONE SPF 50 Broad Spectrum; SUNZONE SPF 60 Broad Spectrum; SUNZONE SPF30 SUNSCREEN Broad Spectrum; SUNZONE SPORT SUNSCREEN SPF 30 Broad Spectrum; SUPER CREME SOLAIRE CORPS Body sun care SPF 15; SUPER ORIGIN COLLAGEN WATERPROOF BB 45g; SUPERDEFENSE BROAD SPECTRUM SPF 25 FATIGUE plus 1ST SIGNS OF AGE MULTI-CORRECTING; Sable Long Wear Makeup Broad Spectrum SPF 20; Saemmul Aqua Glow Cushion 01 Light Beige; Saemmul Aqua Glow Cushion 02 Natural Beige; Saemmul O il Control Cushion 01 Light Beige; Saemmul O il Control Cushion 02 Natural Beige; Saemmul Perfect Pore Cushion 01 Light Beige; Saemmul Perfect Pore Cushion 02 Natural Beige; Safe Sea For Kids Sunscreen With Jellyfish Sting Protective SPF 30 Plus; Safe Sea SPF 40; Safe Sea SPF 50; Safe Sea SPF 50 KIDS; Safe Sea SPF 50 kids; Safe Sea SPF 60; Safe Sea Sunscreen With Jellyfish Sting Protective SPF 30; Safe Sea Sunscreen With Jellyfish Sting Protective SPF 50; Safeway Signature Care Dry Touch Sunscreen SPF 55; Safeway Signature Care Kids Continuous Sunscreen Broad Spectrum SPF 50; Safeway Signature Sport Continuous Sunscreen SPF 30; Save Face AM Moisturizer Broad Spectrum SPF 35 Supergoop; Savvy Plus Moisture Lipstick SPF 20; Sawyer SPF 30; Sayuki Anti-aging Daily Moisturizer SPF 30; Sayuki Broad Spectrum SPF 30 Anti-Aging Daily Moisturizer Sunscreen; Sb 10 SPF 30; Sbs 15 Crm; Sbs Professional Sunscreen SPF 33 Crm; Scalp Mist; ScalpHair MistSunscreen SPF30; Scape SPF 30 Lip Balm; Scape SPF 50 Moisturizing Face; Schick Hydro Silk Post-Dermaplaning Moisturizer Broad Spectrum SPF 50; Screen; Scrubs Sunscreen; Scrubs Sunscren; Sea & Ski All Day 30; Sea & Ski SPF 15 Advanced Sunblock; Sea & Ski SPF 30 Advanced Sunblock; Sea & Ski SPF 30 Sport Sunblock; Sea & Ski SPF 50 Advanced Sunblock; Sea & Ski SPF 50 Baby Sunblock; Sea & Ski SPF 50 Faces Sunblock; Sea & Ski SPF 50 Kids Sunblock; Sea & Ski SPF 50 Platinum Sunscreen; Sea & Ski Sport SPF 50; Sea Results Line Resolution Cream SPF 30; Sea Results Line Resolution Sea Results Line Resolution SPF30; Sea Star Sparkle SPF-50 MANGO-TANGO; Sea Star Sparkle SPF-50 PARTY CAKE; Sea Star Sparkle SPF-50 VERY BERRY; Sea and Ski Kids SPF 70 C-Spray; Sea and Ski SPF 15 C-Spray; Sea and Ski SPF 15 Sport Sunblock; Sea and Ski SPF 30; Sea and Ski SPF 30 C-Spray; Sea and Ski SPF 50; Sea and Ski SPF 50 C-Spray; Sea and Ski SPF 50 Sport; Sea and Ski SPF 50 Sport C-Spray; Sea and Ski SPF 70; Sea and Ski SPF 70 C-Spray; Sea and Ski SPF 70 Kids; Sea and Ski Tanning LotionSPF 4; Sea and Ski Tanning Oil SPF 4; Seaweed Bath Co SPF 40 Sport; Seaweed Bath Co. SPF 50 Sport; Seaweed Bath Co. SPF-30; Seaweed Mattifying Moisture Lotion SPF 15; Seaweed Moisturizer SPF15; Seaweed Oil-Control SPF 15; Seaweed Oil-control Lotion SPF 15; Secret Key Natural Cc Cushion Spf50 Pa / 02 Natural Cc; Secret Key Natural Cc Cushion Spf50 Plus / 01 Light Cc; Secret Key Natural Cc Cushion Spf50 Plus / 02 Natural Cc; Secret Key Thanakha Aqua SunLotion SPF35 PA PLUS PLUS PLUS; Secret Muse Vita Blue Sun; Secret nature Calendula Primer Sunscreen; Sei Bella Daytime Delivery; Sei Bella Flawless Liquid Foundation 100 N; Sei Bella Flawless Liquid Foundation 120 W; Sei Bella Flawless Liquid Foundation 180 C; Sei Bella Flawless Liquid Foundation 220 N; Sei Bella Flawless Liquid Foundation 240 N; Sei Bella Flawless Liquid Foundation 280 N; Sei Bella Flawless Liquid Foundation 325 C; Sei Bella Flawless Liquid Foundation 340 N; Sei Bella Flawless Liquid Foundation 380 N; Sei Bella Flawless Liquid Foundation 40 N; Sei Bella Flawless Liquid Foundation 400 N; Sei Bella Flawless Liquid Foundation 460 N; Sei Bella Flawless Liquid Foundation 480 C; Sei Bella Flawless Liquid Foundation 490 N; Sei Bella Flawless Liquid Foundation 540 W; Sei Bella Flawless Liquid Foundation 560 N; Sei Bella Flawless Liquid Foundation 60 C; Sei Bella Flawless Liquid Foundation 600 N; Sei Bella Flawless Liquid Foundation 620 C; Sei Bella Flawless Liquid Foundation 640 W; Sei Bella Flawless Liquid Foundation 80 N; Select Brand Baby Sunscreen; Select Brand Sport Sunscreen SPF 30; Select Brand Sunscreen; Self Defense Color Corrective Moisturiz. Lot; Self Defense Protective Moisturizing Lot-ntd; Self Defense Protective Moisturizing Lot-nto; SeneGence Facial Moisturizer For Men SPF 20; SeneGence SeneSun Hydrating Facial Sunscreen SPF 20; SeneGence SeneSun Sunscreen SPF 30; SeneSun; Sensitif Renewal Cream Daily Protection SPF 30 Broad Spectrum UVA UVB Sunscreen; Sensitive Expert+ Face; Sensitive Expert+ Sunscreen; Sensitive Facial Moisturizer Broad Spectrum SPF 15 Lotion; Sensitive Skin Sunscreen Continuous Spray SPF 30; Sensitive Skin Sunscreen Continuous Spray SPF 50 Plus; Sensitive Skin Sunscreen Lotion SPF 30; Sensitive Skin Sunscreen Lotion SPF 50+; Sephora Perfecting Tinted Moisturizer Light 15 Nude SPF 20; Sephora Perfecting Tinted Moisturizer Medium 26 Peach SPF 20; Sephora Perfecting Tinted Moisturizer Medium 28 Camel SPF 20; Sephora Perfecting Tinted Moisturizer Tan 35 Bronze SPF 20; Sephora Perfecting Tinted Moisturizer Tan 40 Hazelnut SPF 20; Sephora Super Lisseur Rides Age Defy; Sephora Super Lisseur Rides SPF 15 Age Defy Moisture; Serious Skincare Daytech 30; Serious Skincare Serious C3 Plasma Bio Technology C Vitamin C Ester Protective Daytime Broad Spectrum Moisturizer SPF 30; Serious Skincare Serious-C3 Plasma Tm Bio Technology C Vitamin C Ester Protective Daytime Broad Spectrum Moisturizer SPF 30; Session Savers Sunscreen Broad Spectrum SPF 30 Water Resistant; Shade Spray; Shade and Illuminate Soft Radiance Foundation SPF 50; Shaklee Sunscreen Gel Spf30; Shameless; Shamrock Sun SPF 50; Shamrock Sun SPF50 Sunscreen; Shea Butter Protective SPF 20; Sheer; Sheer Broad Spectrum SPF 30; Sheer Broad Spectrum SPF45; Sheer Cover Nourishing Moisturizer SPF 15; Sheer Coverage Continuous Spray Sunscreen SPF 50; Sheer Coverage Faces Lotion SPF 45 Australian Gold; Sheer Coverage Faces Sunscreen Lotion SPF 45 With Bronzer; Sheer Daily Moisturizer; Sheer Hydration Sunscreen Broad Spectrum SPF 35; Sheer Hydration Sunscreen Broad Spectrum SPF 40; Sheer Lotion SPF 45 Bare Skin Feel; Sheer Lotion SPF 50; Sheer Lotion SPF 60 Bare Skin Feel; Sheer Oil Free Sunscreen Lotion 30 SPF/fps; Sheer SPF 100 Well at Walgreens; Sheer SPF 30 Oil Free Well at Walgreens; Sheer SPF 30 Well at Walgreens; Sheer Sunscreen SPF 30 CVS Health; Sheer Sunscreen SPF 30 Meijer; Sheer Sunscreen SPF 30 Wegmans; Sheer Sunscreen SPF 50 Wegmans; Sheer Tint Redness Relief SPF 15; Sheer Touch Sunscreen; Sheer Touch Toucher Soyeux Oil-free Sunscreen Ãcran Solaire Sans Huile; Sheer Touch Toucher Soyeux Oil-free Sunscreen Ãcran Solaire Sans Huile SPF/fps 50+; Sheer Touch/toucher Soyeux Oil-free Sunscreen/Ã©cran Solaire Sans Huile SPF/fps 15; Sheer Touch/toucher Soyeux Oil-free Sunscreen/Ã©cran Solaire Sans Huile SPF/fps 30; Sheer Touch/toucher Soyeux Oil-free Sunscreen/Ã©cran Solaire Sans Huile SPF/fps 45 Ultra Radiance/ultra-radieux; Sheer Touch/toucher Soyeux Oil-free Sunscreen/Ã©cran Solaire Sans Huile SPF/fps 60 Ultra Radiance/ultra-radieux; Shelter; Shelter Tinted; Sheltered Broad Spectrum SPF 55 Sunscreen; Shimmer Make Up-foundation Stick SPF 8; Shimmer Make Up-light Diffusing Make Up SPF 8; Shimmershade Broad Spectrum SPF 30 First Light; Shimmershade Broad Spectrum Sunscreen SPF 30 Day Dream; Shimmershade Broad Spectrum Sunscreen SPF 30 Golden Hour; Shimmershade Broad Spectrum Sunscreen SPF 30 Sunset; Shine Control Sunscreen Broad Spectrum SPF 50; Shine On Lip Sunscreen Broad Spectrum SPF 50; Ships Ahoy Seashore Sunscreen Broad Spectrum SPF 30 Jafra; Shirley Temple SPF 15 Broad Spectrum Lip Balm; Shiseido Essential Energy Hydrating Day; Shiseido Ultimate Sun Protection; Shiseido Ultimate Sun Protector; Shiseido Urban Environment Fresh-moisture Sunscreen SPF 42; Shiseido Urban Environment Vita-clear Sunscreen; ShopKo Illuminating Daily Moisturizer Broad Spectrum SPF15 Sunscreen; Shopko Anti-Wrinkle and Firming Moisturizer Day Broad Spectrum SPF18; Shopko Long Lasting Oil Free Moisturizer Broad Spectrum SPF15; Siero Co Aqua Cushion Foundation 13 Light Beige; Siero Co Aqua Cushion Foundation 21 Natural Beige; Siero Co Aqua Cushion Foundation 23 Rosy Beige; Siero Double Co Aqua Cc Cushion 13 Light Beige; Siero Double Co Aqua Cc Cushion 21 Natural Beige; Siero Double Co Aqua Cc Cushion 23 Rosy Beige; Siero Tyrian Red Cushion 13 Light Beige; Siero Tyrian Red Cushion 21 Natural Beige; Siero Tyrian Red Cushion 23 Rosy Beige; Signature Body Japanese Cherry Blossom SPF 15; Signature Body Moonlight Path SPF 15; Signature Body Sweet Pea SPF 15; Signature Body Twilight Woods SPF 15; Signature Body White Citrus SPF 15; Signature Care Kids SPF 50 Sunscreen; Signature Care Sheer Face and Body SPF 70 Sunscreen; Signature Care Sport SPF 15 Clear; Signature Care Sport SPF 30 Sunscreen; Signature Care Sport SPF 50 Sunscreen; Signature SPF 50 Clear Face; Silk Hydration Weightless Clear Sunscreen Spray SPF 30; Silk Hydration Weightless Face; Silk Line Silk Day Cream SPF 15; Silky Sheer Bb Face Lotion SPF 50; Silky and Clear Sunscreen; Simple; Simple Light Moisturizer SPF 15; Simple Men plus Care Hydrate Face; Simple Protecting Light Moisturizer Broad Spectrum SPF 15 Sunscreen; Simple Protecting Light Moisturizer SPF 15; Simple Vital Vitamin Day Cream SPF 15; Simple Vital Vitamin Day SPF 15; Simply Protect Sensitive Sunscreen Spray SPF 50+; Sirface Sun Protector SPF 30; Skin Activator Day SPF 15; Skin Activator Lip Refiner SPF 15; Skin Activator Sunscreen Day Lotion Broad Spectrum SPF 15; Skin Balancing Makeup Broad Spectrum SPF 20 Jafra; Skin Best Cream SPF 15 All Skin Types; Skin Best Cream SPF 15 Dry Skin; Skin Care Prescription; Skin Crave Broad Spectrum spf30; Skin Crave spf15 lip balm; Skin Crave spf30 sunscreen; Skin Defense Concealer Broad Spectrum SPF 15 Jafra Cosmetics; Skin Defense Makeup SPF 15; Skin Defense Makeup SPF-15; Skin Effects by Dr. Jeffrey Dover Glycolic Day; Skin Foundation Cushion Compact Broad Spectrum SPF 35; Skin Pharmacy Advanced Sun Therapy Broad Spectrum SPF 30 Sun; Skin Protector Sun Block Crm; Skin Renew Even Tone; Skin So Soft Bug Guard Plus IR3535 Cool N Fabulous Disappearing Color Insect Repellent Sunscreen; Skin So Soft Bug Guard Plus IR3535 Expedition Insect Repellent Sunscreen; Skin So Soft Bug Guard Plus IR3535 Gentle Breeze Insect Repellent Sunscreen; Skin So Soft DD Body; Skin So Soft Dd Firm & Restore Body Cream; Skin So Soft Firm and Restore Age Defying Corrective Neck and Chest; Skin So Soft Firm and Restore Neck and Chest Treatment; Skin So Soft Satin Glow Ultimate Body Moisturizing Lotion SPF 15; Skin Strong - Skin Equipment SPF 30 Sunscreen; Skin Strong - Skin Equipment SPF 55 Sunscreen; Skin Tint FX; Skin Tone Correcting & Beautifying Bb Cream; Skin Vivo Uniformity SPF 15; SkinCeuticals Daily Brightening UV Defense Broad Spectrum SPF 30 Sunscreen; SkinCeuticals Light Moisture UV Defense Broad Spectrum SPF 50 Sunscreen; SkinCeuticals Sport UV Defense Sunscreen Broad Spectrum SPF 50; SkinDog; SkinMedica Environmental Defense Sunscreen SPF 50; SkinPharmacy Advanced Anti-Aging Therapy Glycolic Day Moisturizer SPF 30; SkinPharmacy Advanced Anti-Aging Therapy Retinol Day Moisturizer SPF 30; SkinPharmacy Advanced Sun Therapy Broad Spectrum SPF 50 Face; SkinProtect SPF 50 SHEER ROLLER SUNSCREEN; SkinTx UV Pro Broad Spectrum SPF30; SkinTx UV Pro Broad Spectrum SPF45; Skinborn Day Cream SPF 30 - for Dry Skin; Skinborn Day Lotion SPF 30 - for Oily/combination Skin; Skinborn Sunscreen Lotion SPF 30 - for Dry Skin; Skinceuticals Sport Uv Defense SPF 45; Skinfood Aloe Sun Bb; Skinfood Aloe Watery Sun Waterproof; Skinfood Miracle Food 10 Solu Tion Sun Essence; Skinfood Royal Honey Good Sun; Skinnies SPF30 Sungel; Skinprint Ultra Sheer SPF 20; Skintint Fx; Slow Ãge Daily Cream; Slow Ãge Daily Lotion; Smart Tone Broad-spectrum Sunscreen SPF 50; Smartshield Sunscreen Lotion SPF 30; Smartshield Sunscreen SPF 30; Smarty Plants Cc Skin Complexion Corrector Broad Spectrum SPF 20; Smashbox Camera Ready 5 In 1 Beauty Balm SPF 35; Smashbox Camera Ready Bb Cream SPF 35; Smashbox Camera Ready Cc Cream SPF 30 Dark Spot Correcting; Smashbox Photo Finish Foundation Primer SPF 20; Snail Essential EX Wrinkle Solu tion Sun Stic k; Snail Essential EX Wrinkle Soluti on Sun Crea m; Snail Essential EX Wrinkle Sun; Snappy SPF 30 Sunscreen; SnappyScreen SPF 15; SnappyScreen SPF 40; SnugZ SPF 30 Broad Spectrum Sunscreen; SnugZ SPF 30 Soy Lip Balm; SnugZ SPF 50 Broad Spectrum Sunscreen; SnugZ SPF 50 Sunscreen Spry; SnugZ SPF 50 Sunscreen Stick; Sodium Sulfacetamide and Sulfur; Soft Focus City Suncreen Serum Broad Spectrum SPF 30 Supergoop; Soft Lips Crystal Ice; Soft and Lush; Softlips Berry; Softlips Birthday Cake; Softlips Cherry; Softlips Cherry Cordial, Maple Butter, Frosted Berry; Softlips Chocolate Bunny; Softlips Coconut; Softlips Coconut Cream; Softlips Flavor Fusions Blackberry Lemonade; Softlips Flavor Fusions Chocolate Mint Gelato; Softlips Flavor Fusions Pomegranate Blueberry; Softlips Flavor Fusions Strawberry Banana; Softlips Flavour Fusions Lip Moisturizer; Softlips Jack Frosting; Softlips Jelly Bean; Softlips Marshmallow Ghost; Softlips Mint with a hint of vanilla; Softlips Peach Mango; Softlips Pearl; Softlips Pearl Plus Vanilla; Softlips Peppermint; Softlips Peppermint Mocha, Apple Chai Cider, Orange Cranberry; Softlips Praline Brownie; Softlips Raspberry; Softlips Replenish; Softlips Salted Caramel; Softlips Salted Caramel, Candy Apple, Marshmallow Ghost; Softlips Shimmer; Softlips Slims; Softlips Strawberry; Softlips Sugar; Softlips Sugar Plum Berry; Softlips Sugar and Spice; Softlips Tint Blossom; Softlips Tint Bronze; Softlips Tint Honey; Softlips Tint Rose; Softlips Tinted; Softlips Ultra 30; Softlips Vanilla; Softlips Vanilla Watermelon; Softlips Vanilla, Watermelon, Cherry; Softlips Watermelon; Softlips Winter Mint; Soin Auto-bronzant Visage Bronzage Intense SPF 15; Soin Auto-bronzant Visage Bronzage Naturel SPF 15; Soin Solaire Visage CRÃ¨me Protectrice Visage Fps 30; Soin Solaire Visage CRÃ¨me Protectrice Visage Fps 50 Plus; Soin Solaire Visage Creme Multi-protection Fps 30; Soin Teinte Auto-bronzant Haute Protection SPF 15; Soin Ultime Jeunesse Mains CRÃ¨me Fps 30 Pure; Soins Soleil CRÃ¨me TeintÃ©e Anti-rides Age-defying Tinted Cream Faible/low Protection Uva/uvb Spf10; Soins Soleil-CRÃ¨me Visage Et Corps/ Face and Body Cream Faible/low Protection Uva/uvb Spf10; SolMate BROAD SPECTRUM SPF 15; SolMate BROAD SPECTRUM SPF 30; SolMate BROAD SPECTRUM SPF 50; SolMate BROAD SPECTRUM SPF 8; SolMate Baby Broad Spectrum SPF50; SolMate Broad Spectrum SPF 15; SolMate Broad Spectrum SPF 30; SolMate Broad Spectrum SPF 50; SolMate Continuous Sunscreen Broad Spectrum SPF 15; SolMate Kids BROAD SPECTRUM SPF 50; SolMate broad spectrum spf 8; SolRX Kids SPF 60 C-spray; SolRX Sport SPF 30 C-Spray; SolRX Sport SPF 50 C-Spray; SolRX Sport SPF 70 C-spray; SolScents Clear Face Flower Blast Broad Spectrum spf 50; SolScents Deep Love broad spectrum spf 30; SolScents flower blast broad spectrum spf 50; Solar Defense Body; Solar Moisturizer SPF 30; Solar Protection Fluid Broad Spectrum SPF 50; Solar Screen SPF 12; Solar Sense Clear Sun Protection; Solar Sense Clear Zinc; Solar Sense Clear Zinc Baby; Solar Sense Clear Zinc For Face Sunscreen SPF 70; Solar Sense Clear Zinc Sunscreen Value Pack 50 Plus; Solar Sense SPF 50 Daily Facial Sunscreen; Solar Shield # 30; Solar Shield SPF 15 - Solid; Solarguard MD; Solco platino plus uv sun; Soleil Broad Spectrum SPF-15; Soleil Broad Spectrum SPF-30; Soleil Broad Spectrum SPF-50; Soleil De Peau; Soleil Enfants-crm Top; Soleil Expert Sun Care SPF 15 Face and Body Lotion; Soleil Expert Sun Care SPF 15 Water-light Spray; Soleil Expert Sun Care SPF 25 Face and Body Lotion; Soleil Expert Sun Care SPF 30 Face Creme; Soleil Extreme - Crm Top; Soleil Forte Multi; Soleil Haute Protection - Crm Top; Soleil IdentitÃ©; Soleil Protexion Invisible Touch SPF 30; Soleil Protexion Invisible Touch SPF 45; Soleil Protexion Sun Lip Stick Velvet Moisture SPF 30; Soleil Smart Body Protection Moisturizer SPF 15; Soleil Suisse Cellular Anti-wrinkle Sun Cream SPF 30; Soleil Suisse Cellular Self Tan for The Body SPF 15; Soleil Superieur Body SPF 50 US; Soleil Superieur Broad Spectrum SPF 50 Sunscreen US; Soleil Tojours Broad Spectrum SPF 50; Soleil Toujours Broad Spectrum SPF 30; Soleil Toujours Broad Spectrum SPF 30 Sunscreen; Soleil Toujours Broad Spectrum SPF 50 Set Protect Micro Mist; Soleil Toujours SPF 15 Sheer Sunscreen; Soleil Toujours SPF 30 Sheer Sunscreen; Soleil Toujours SPF 30 Sheer Sunscreen Mist; Soleil Toujours SPF 50 Sheer Sunscreen; Soleil Toujours SPF 50 Sheer Sunscreen Mist; Soleil Toujours SPF 50 Sunscreen Mist; Solimo General Protection SPF 50 Sunscreen; Solimo General Protection Sunscreen SPF 50; Solimo Kids SPF 50 Broad Spectrum Sunscreen; Solimo Kids Sunscreen SPF 50; Solimo Sport SPF 50 Broad Spectrum Sunscreen; Solimo Sport Sunscreen SPF 30; Solimo Sport Sunscreen SPF 50; Solimo Ultra Light Sunscreen Broad Spectrum SPF 70; Solmate BROAD SPECTRUM SPF 50 Sport Sunscreen; Solmate Broad Spectrum SPF 50 C/S Sunscreen; Solmate Sunscreen Broad Spectrum SPF 30; Solutions A.M. Ageless Results Day Cream; Solutions A.M. Complete Balance Day; Solutions A.M. Complete Balance Day Cream CRÃ¨me De Jour; Solutions A.M. Total Radiance; Solutions A.M. Total Radiance Day Lotion; Solutions Ageless Results Day; Solutions Am Maximum Moisture Day Cream; Solutions Am Total Radiance Day Cream; Solutions Neck and Chest Perfector; Solutions Winter Enjoy The Day Cream Creme Nouveau Jour SPF/fps 15; Sonatural Pow Der4room Cover Fixing Cushion 21.5; Sonatural Pow Der4room Cover Fixing Cushion 23.5; Soprt Sunscreen SPF 50; Spa Cology Sport Sunscreen SPF 30; Spa Cology Ultra Sheer Face and Body Sunscreen SPF 70; Spa Day Care for Hands Broad Spectrum SPF 15; Spa Niacinamide And Vitamin E Hand Cream Broad Spectrum SPF 15; Spa Pharma Anti-Aging Acocado Cream SPF 25 Listing; Spa Pharma BB Cream SPF 50; Spa Pharma Day Defense Moisturizing Cream; Spa Pharma Moisturizer Cream SPF 50; Spa Pharma Multi vitamin Cream SPF 25; Spa Pharma Olive Oil Moisturizing Cream; Spa Pharma Regenerating Pomegranate Cream; Spa Sun - Sun Protection SPF 30 - Face and Body; Spearmint Lip Balm; Spearmint Lip Balm Broad Spectrum Vertra; Spearmint SPF 15 Broad Spectrum Lip Balm; Spearmint SPF 15 Lip; Spearmint SPF 30 Broad Spectrum Lip Balm; Specific Beauty Daily Hydrating SPF 30; Specter Capital Tropical Blend Broad Spectrum SPF 30 Sunscreen; Spela Vibe Cushion B21; Spela Vibe Cushion B23; Spf15; Spf15 Lip Balm; Spf20 Uva/uvb; Spf30 Sunscreen; Spf40 Uva/uvb; Splash 50 SPF Sunblock Stick; Splash Kids 45 SPF/fps Sunscreen Lotion Ãcran Solaire; Spometics Green Natural Sun; Sport; Sport 30 Continuous Spray Sunscreen Ãcran Solaire En Vaporisateur; Sport 30 Lotion Sunscreen Lotion Ãcran Solaire; Sport 30 Pump Spray Gel Sunscreen Ãcran Solaire Gel En Vaporisateur; Sport 30 SPF Sunblock Spray; Sport 30 SPF/fps; Sport 50 Continuous Spray Sunscreen Ecran Solaire En Vaporisateur; Sport Lotion 50 SPF; Sport Lotion SPF 30; Sport Performance Powder-dri Sunscreen Lotion Ecran Solaire SPF/fps 30; Sport Performance Spray Sunscreen Ecran Solaire En Vaporisateur SPF Fps 30; Sport Performance Spray Sunscreen Ecran Solaire En Vaporisateur SPF/fps 15; Sport Performance Spray Sunscreen Ãcran Solaire En Vaporisateur SPF Fps 100; Sport Performance Spray Sunscreen/ecran Solaire En Vaporisateur SPF Fps 50; Sport Performance Sunscreen Lotion Ecran Solaire SPF/fps 30; Sport Performance Sunscreen Lotion Ecran Solaire SPF/fps 50; Sport Performance Sunscreen Lotion Lotion Ãcran Solaire SPF Fps 60; Sport Performance Sunscreen Lotion Lotion Ãcran Solaire SPF/fps 30 Photostable; Sport Performance Sunscreen Lotion Lotion Ãcran Solaire SPF/fps 60 Photostable; Sport Performance Sunscreen Lotion Ãcran Solaire SPF Fps 30 Technologie Avotriplex Technology; Sport Performance Sunscreen Lotion Ãcran Solaire SPF Fps 50 Technologie Avotriplex Technology; Sport Performance Sunscreen Stick/ecran Solaire En Batonnet SPF/fps 30; Sport SPF 15; Sport SPF 15 daylogic; Sport SPF 30; Sport SPF 30 Body and Scalp Quick Dry Spray; Sport SPF 30 CareOne; Sport SPF 30 Daylogic; Sport SPF 30 Sunblock Lotion; Sport SPF 50; Sport SPF 50 Sunscreen; Sport SPF 50 daylogic; Sport SPF 70; Sport Sun Block Lotion SPF 15; Sport Sun Block Lotion SPF 30; Sport Sunblock 30 SPF; Sport Sunscreen; Sport Sunscreen Broad Spectrum SPF 15 Spray; Sport Sunscreen Broad Spectrum SPF 30 Lotion; Sport Sunscreen Broad Spectrum SPF 30 Spray; Sport Sunscreen Broad Spectrum SPF 60 Lotion; Sport Sunscreen Broad Spectrum SPF 60 Spray; Sport Sunscreen Continuous Spray SPF 15; Sport Sunscreen Continuous Spray SPF 30; Sport Sunscreen Continuous Spray SPF 50+; Sport Sunscreen Gel SPF 30; Sport Sunscreen LiquidShade; Sport Sunscreen Lotion SPF 30; Sport Sunscreen Lotion SPF 50+; Sport Sunscreen Lotion Ãcran Solaire 30 SPF/fps; Sport Sunscreen SPF 15 Meijer; Sport Sunscreen SPF 30; Sport Sunscreen SPF 30 CareOne; Sport Sunscreen SPF 30 Daylogic; Sport Sunscreen SPF 30 Exchange Select; Sport Sunscreen SPF 30 Meijer; Sport Sunscreen SPF 30 Quality Choice; Sport Sunscreen SPF 30 Wegmans; Sport Sunscreen SPF 45; Sport Sunscreen SPF 50; Sport Sunscreen SPF 50 Daylogic; Sport Sunscreen SPF 50 TopCare; Sport Sunscreen SPF 50 Wegmans; Sport Sunscreen SPF 70; Sport Sunscreen Stick Broad Spectrum SPF 30; Sport Sunstick SPF 30 Sunscreen; Sport Ultra Block Lotion SPF 30; Sport for Kids Sunscreen Lotion Spray SPF 50+; SpotFade Clear Sunscreen Broad Spectrum SPF 25; Spray Auto-bronzant SPF 15; Spray Lotion Solaire Haute Protection SPF 15; Spray Solaire Bronzage Securite Special Peaux A Tendance Grasse SPF 15; Spray Solaire Huile Embellissante Corps SPF 30; Spray Solaire Lotion Non Grasse Protection Moyenne SpÃ©cial Sports 15 SPF; Spray Solaire Lotion Non Grasse SpÃ©cial Sports SPF 15; Spray Solaire Protection ÃlevÃ©e SPF 50; Spray Solaire Transparent; Spray Sunscreen Ãcran Solaire En Vaporisateur SPF Fps 30; Sprayable Sunscreen Lotion SPF 40; Spraygel; Spraygel With Instant Bronze Tint SPF 15; Spraygel With Instant Bronze Tint SPF 30; Spraygel With Instant Bronze Tint SPF/fps 15; Sprc Uv Pro Sun; Spritz Solaire Corps Fps 30; St. Ives Elements; State-48 Suncare Mineral SPF-30; Stila CC Color Correcting Broad-Spectrum SPF 20 (All Shades); Stila Hydrating Primer Oil-Free SPF 30 (All Shades); Stila Illuminate and Shine; Stokoderm Sun Protect 30 PURE; Stokoderm Sunprotect 30 Pure; Stokoderm Sunscreen PURE; Stokoderm UV 30; Strawberry Limoncello SPF 15 Broad Spectrum Lip Balm; Strawberry SPF 15 Broad Spectrum Lip Balm; StriVectin ANTI-WRINKLE GLOWFECTOR SPF 30; StriVectin Advanced Retinol Daily Repair Moisturizer SPF30; StriVectin Advanced Retinol Day Moisturizer Broad Spectrum SPF30; StriVectin Advanced SPF Full Screen Clear Finish; StriVectin Advanced SPF Full Screen Illuminating; StriVectin Clinical Corrector ADVANCED ANTI-AGING FACE TINT LIGHT; StriVectin Clinical Corrector ADVANCED ANTI-AGING FACE TINT MEDIUM; StriVectin multi-action Super-C SPF 30; StriVectin-SH NIA-114 UVA UVB Shields SPF 30; Strivectin-AR Advanced Retinol Day Lotion SPF 30; Strivectin-CC Clinical Corrector Advanced Anti-aging Face Tint Broad-spectrum SPF 30; Studio Moisture Fix Broad Spectrum SPF 15; Sublime Glow Face (SPF 15 Fair); Sublime Glow Face (SPF 15 Medium); Sublime Sun Lotion SPF 15; Sublime Sun Lotion SPF 30; Sublime Sun Lotion SPF 50; Sublime Sun Mousse SPF 30; Sublime Sun Mousse SPF 50; Sublime Sun Oil Spray SPF 15; Sublime Sun Oil Spray SPF 30; Sublime Sun Oil Spray SPF 50; Sublime Sun Ultra Fluid Lotion SPF 30; Sublime Sun Ultra Fluid Lotion SPF 50; Sugar Sport Treatment Sunscreen SPF 30; Sulwhasoo Age-veil Sun Cream SPF 30; Sulwhasoo Age-veil UV protection; Sulwhasoo Age-veil Uv Protection Cream; Sulwhasoo Snowise UV Daily Cream; Sulwhasoo UV Daily Cream; Sumadan Xlt; Summer Camp Enviro UV Broad Spectrum SPF 50; Summer Camp Enviro UV SPF 30 Sunscreen Mist; Summer Camp Enviro UV SPF 50 Sunscreen Mist; Summer Glow Daily Moisturizer SPF 20; Summer Ready Innovative Sunscreen; Summer Sangria SPF 15 Broad Spectrum Lip Balm; Sun + Avon Sport Fresh Technologie Derma Plus Technology Sunscreen Lotion SPF/fps 50; Sun + Avon Sport Refresh Technologie Derma Plus Technology Sunscreen Lotion SPF/fps 30; Sun + Avon Technologie Derma Plus Technology Sunscreen Spray; Sun 30 SPF Water Resistant Alba Botanica; Sun Barrier UV Aqua Gel Broad Spectrum SPF 12; Sun Barrier UV Aqua Sun Broad Spectrum SPF 50; Sun Barrier UV Milk Broad Spectrum SPF 50; Sun Barrier UV Protector Broad Spectrum SPF 50; Sun Barrier UV Shaking Broad Spectrum SPF 50; Sun Basics Broad Spectrum SPF 30; Sun Basics SPF 50; Sun Basics Sport Broad Spectrum SPF 30; Sun Block + SPF 15 - Crm; Sun Block + SPF 30 - Crm; Sun Block Lotion SPF 15; Sun Block SPF 15; Sun Block SPF 25; Sun Block SPF 30; Sun Block SPF 8; Sun Body Protector Sunscreen Broad Spectrum SPF 50; Sun Broad Spectrum SPF 30 CVS; Sun Broad Spectrum SPF 30 Jafra; Sun Bum 50; Sun Bum Broad Spectrum SPF 30; Sun Bum Broad Spectrum SPF 50; Sun Bum Clear Zinc SPF 50 Sunscreen; Sun Bum Clear Zinc SPF50 Sunscreen; Sun Bum Daily Mineral Sunscreen Moisturizer SPF30; Sun Bum Daily Sunscreen Face Mist SPF30; Sun Bum Face 50 Sunscreen; Sun Bum Face Mist SPF 45; Sun Bum Face SPF 70; Sun Bum GLOW 30 Moisturizing Sunscreen Face SPF 30; Sun Bum Hand Cream SPF15; Sun Bum Kids Face SPF 50; Sun Bum Kids Sunscreen SPF 50; Sun Bum Premium Moisturizing Sunscreen Roll On SPF 50; Sun Bum Premium SPF 15 Sunscreen Tanning; Sun Bum Premium Sunscreen Browning SPF 15; Sun Bum Premium Sunscreen Face Broad Spectrum SPF 30; Sun Bum Premium Sunscreen Face SPF 30; Sun Bum SPF 15 Moisturizing Tanning; Sun Bum SPF 15 Premium Moisturizing Sunscreen; Sun Bum SPF 30 Premium Moisturizing Sunscreen; Sun Bum SPF 30 Sunscreen Lip Balm Pineapple; Sun Bum SPF 30 Watermelon; Sun Bum SPF 50 Premium Moisturizing Sunscreen; Sun Bum SPF 70 Premium Moisturizing Sunscreen; Sun Bum Signature Clear SPF 50; Sun Bum Skin Care Essentials Kit; Sun Bum Sunscreen Lip Balm Broad Spectrum SPF 30 Banana; Sun Bum Sunscreen Lip Balm Broad Spectrum SPF 30 Coconut; Sun Bum Sunscreen Lip Balm Broad Spectrum SPF 30 Key Lime; Sun Bum Sunscreen Lip Balm Broad Spectrum SPF 30 Keylime; Sun Bum Sunscreen Lip Balm Broad Spectrum SPF 30 Mango; Sun Bum Sunscreen Lip Balm Broad Spectrum SPF 30 Pineapple; Sun Bum Sunscreen Lip Balm Broad Spectrum SPF 30 Pink Grapefruit; Sun Bum Sunscreen Lip Balm Broad Spectrum SPF 30 Pomegranate; Sun Bum Sunscreen Lip Balm Broad Spectrum SPF 30 Watermelon; Sun Bum Sunscreen Oil SPF 30 with Coconut Oil; Sun Bum Tinted Lip Balm Raisin Hell; Sun Bum Tinted SPF15 Sunscreen Bonfire; Sun Bum Tinted SPF15 Sunscreen Nude Beach; Sun Bum Tinted SPF15 Sunscreen Pinkini; Sun Bum Tinted SPF15 Sunscreen Sandbar; Sun Bum Tinted SPF15 Sunscreen Sunset Cove; Sun Defeated Sunscreen; Sun Defense Cream; Sun Defense SPF 15; Sun Defense SPF 30; Sun Defense Sunblock SPF 25 - Liquid; Sun Diffusing Protector SPF 15 Bioelements; Sun Expert; Sun Face Protector Sunscreen Broad Spectrum SPF 50; Sun Face Protector Sunscreen Broad Spectrum SPF 50 Jafra; Sun Facial Sunscreen 20 SPF for Sensitive Skin Alba Botanica; Sun Kids Sunscreen 32 SPF; Sun Logic 30 Fps Uva Uvb SPF Haute High Protection Large Spectre Broad Spectrum CRÃ¨me Solaire Visage Et Corps Sunscreen Face and Body; Sun Lotion SPF 15; Sun Management Extensive Protection Sunblock; Sun Management Intense Protection Sunblock SPF 20; Sun Of A Beach SPF 30; Sun Oil-Free Facial Sunscreen Broad Spectrum SPF 50; Sun Pacer SPF 30; Sun Party Broad Spectrum SPF 30; Sun Party Broad Spectrum SPF 50; Sun Party Sunscreen SPF 30; Sun Party Sunscreen SPF 50; Sun Project Light Sun Essence; Sun Project Shimmer Sun Essence; Sun Project Shimmer Sun Essence 15ml; Sun Project Water Sun Cream SPF50; Sun Protection Body Sunscreen Broad Spectrum SPF 30; Sun Protection Body Sunscreen Broad Spectrum SPF 30 La Prairie; Sun Protection Cream SPF 35; Sun Protection Creme SPF 30 PLUS Exel Clarifying Line; Sun Protection Emulsion Face Broad Spectrum SPF 30 La Prairie Group; Sun Protection Emulsion Face la prairie; Sun Protection Face Sunscren Broad Spectrum SPF 30; Sun Protection Spray SPF-30; Sun Protector Lotion Spray for Body SPF 30; Sun Protector Lotion Spray for Body SPF 50; Sun Protector Weightless Lotion for Face and Body; Sun Protector Weightless Lotion for Face and Body SPF 30; Sun Screen; Sun Seekers Sun Blocking Lotion SPF 30 Lot; Sun Shades; Sun Shades Mineral Plus Sunscreen; Sun Shades Mineral Plus Sunscreen with Zinc Oxide; Sun Shades Sport - Lot; Sun Shades Sport Plus; Sun Shades Sport Sport Plus; Sun Shield Broad Spectrum SPF 50 Matte Sunscreen; Sun Shield Crm; Sun Silk Drops; Sun Smackers Cool Cover Up; Sun Smart Levres Fps 15; Sun Sport Sunscreen 32 SPF; Sun Spray Lotion 30; Sun Spray SPF 30; Sun Stick SPF 45; Sun Sublime Protective Face Care SPF 30; Sun Sublime Protective Face Care Soin Protecteur Visage SPF 30 / Fps 30; Sun Therape Body SPF-35; Sun Therape Face SPF-35; Sun Therape Face and Body SPF-35; Sun Therape Pro Sport Face and Body SPF-35; Sun Therape Pro Sport SPF-35; Sun Therape Sport SPF-35; Sun Therapy - Suntan SPF 30; Sun Total Protector 30 broad spectrum SPF 30 daily protection; Sun Total Protector Color 30 Dark Tint; Sun Total Protector Color 30 Light Tint; Sun Ultimate Cream/crÃ¨me SPF/fps 30; Sun Ultimate Face Cream / CRÃ¨me Visage; Sun Ultimate Face SPF 30; Sun Ultimate Spray SPF/fps 30; Sun Verbena Protective Body Protection SPF 15; Sun X Multi-Pack SPF 30 Thick; Sun X SPF 50 Broad Spectrum Sunscreen Lip Balm; Sun XSPF 30 Broad Spectrum Sunscreen Lip Balm; Sun and Ski Stick SPF 15; Sun and Snow Sport Lotion SPF 30; Sun and Snow Sport Spray SPF 30; Sun bum Daily Sunscreen Moisturizer SPF 30; Sun face protector sunscreen broad spectrum SPF 50; Sun protection body SPF 30; Sun+ Avon Technologie Derma Plus Technology Sunscreen Face Lotion; Sun+ Avon Technologie Derma Plus Technology Sunscreen Lotion; Sun-Defying Sunscreen Oil Broad Spectrum SPF 50 Supergoop; Sun-Kissed Lip Balm Lemon Lime SPF30; Sun-Kissed Suncream; SunBum SPF 15; SunBum SPF 30; SunBum SPF 50; SunBum SPF 70; SunScreen; SunScreen SPF 30; SunScreen SPF30; SunX SPF 30/BugX Wallmount; SunZone Family SPF 45 Broad Spectrum; SunZone Kids SPF 45 Broad Spectrum; SunZone SPF 45 Broad Spectrum; SunZone Sunscreen Family SPF 30 Broad Spectrum; SunZone Sunscreen Sport SPF 45 Broad Spectrum; Sunbar SPF 15; Sunblock 45 SPF/fps; Sunblock Cream; Sunblock Lot SPF 30; Sunblock Lotion 30 SPF; Sunblock Lotion SPF 15; Sunblock Premium Formula SPF 45; Sunbrellas Family Sunblock SPF 45; Sunbrellas Goodbye Bugs Block SPF 26; Sunbrellas Kids Sunblock SPF 45; Sunbrellas Sport Sunblock SPF 45; Sunburn Protection Broad Spectrum SPF 20 Sunscreen; Suncare By Vaseline Baby Lotion Spf25; Suncare Defense SPF 15, Mineral Moisturizer; Suncare Defense SPF 20 Mineral Moisturizer Spray; Suncare Defense SPF 25 Mineral Moisturizer Face & Body; Suncare Defense SPF 30 Mineral Moisturizer; Suncare Essentials; Suncare Non-greasy Sunscreen Broad Spectrum SPF 50; Suncare SPF 50 Sunscreen; Suncreen Lotion SPF 30; Suncures Ultra Hydrating Sunscreen SPF 20; Sunfisher - The Fishermans Sunscreen Broad Spectrum SPF 50; Sunfree Sunscreen; Sunfrog Ultra SPF 30 Lip Balm; Sungirl SPF 20; Sungirl SPF 30; Sunless Tanning SPF 15; Sunlogics SPF 8 Oil Free Tanning Mist; Sunlogics Sunscreen Lotion Broad Spectrum SPF 25 Water Resistant; Sunmitt Broad Spectrum SPF-50 Sunscreen; Sunnylife SPF 50 Sunscreen Coconut Scented; Sunnylife SPF 50 Sunscreen Fragrance Free; Sunplus Sunscreen Laguna; Sunplus Sunscreen Yosemite SPF 45; Sunproof 3-in-1 Invisible Priming Sunscreen Broad Spectrum SPF 37 Water Resistant (80 minutes); Sunright 50; Sunright 50 SPF 50; Sunright BodyBlock SPF15; Sunright Broad Spectrum SPF 30; Sunright SPF 15; Sunright SPF 30; Sunscreen; Sunscreen 01; Sunscreen 30; Sunscreen 30 SPF Continuous Spray; Sunscreen 30 Spray; Sunscreen 50; Sunscreen Application SPF 50 Rocky Mauntain; Sunscreen Beige Broad Spectrum Spf50+; Sunscreen Broad Spectrum SPF 30 Lotion; Sunscreen Broad Spectrum SPF 30 Spray; Sunscreen Broad Spectrum SPF 50 Jafra; Sunscreen Broad Spectrum SPF 60 Lotion; Sunscreen Broad Spectrum SPF 60 Spray; Sunscreen Broad Spectrum Spf50+; Sunscreen Care Milk SPF 20; Sunscreen Continuous Spray; Sunscreen Continuous Spray No Pumping Needed; Sunscreen Continuous Spray SPF 30; Sunscreen Continuous Spray SPF 30 Sport; Sunscreen Continuous Spray SPF 50; Sunscreen Continuous Spray SPF 50 Kids; Sunscreen Continuous Spray SPF 50 Sport; Sunscreen Continuous Spray SPF/fps 30; Sunscreen Continuous Spray SPF/fps 60; Sunscreen Face Lotion; Sunscreen Face Stick / Ãcran Solaire BÃ¢ton; Sunscreen Face Stick Sun Bum Broad Spectrum SPF 30; Sunscreen Family SPF 30; Sunscreen Family SPF 50+; Sunscreen Gel SPF 30; Sunscreen Kids Application SPF 50 Rocky Mauntain; Sunscreen Kids SPF 50+; Sunscreen Lip Balm; Sunscreen Lip Balm Shopko; Sunscreen Lip Balm Sun Bum SPF 30; Sunscreen Lotion 15 SPF; Sunscreen Lotion 30 SPF; Sunscreen Lotion 30 SPF Fps; Sunscreen Lotion 30 SPF/fps Sport; Sunscreen Lotion 45 SPF; Sunscreen Lotion 50 SPF Fps; Sunscreen Lotion Ecran Solaire SPF/fps 30; Sunscreen Lotion Ecran Solaire SPF/fps 50+; Sunscreen Lotion Lotion Ãcran Solaire SPF Fps 30; Sunscreen Lotion Lotion Ãcran Solaire SPF Fps 60; Sunscreen Lotion SPF 15; Sunscreen Lotion SPF 25; Sunscreen Lotion SPF 30; Sunscreen Lotion SPF 39; Sunscreen Lotion SPF 45; Sunscreen Lotion SPF 50; Sunscreen Lotion SPF/fps 60; Sunscreen Lotion SPF/fps 70; Sunscreen Lotion With Hydrating Ribbons SPF/fps 15; Sunscreen Lotion for Babies; Sunscreen Mango and Coconut; Sunscreen Mist Broad Spectrum SPF 30 Supergoop; Sunscreen Mist Broad Spectrum SPF 50 Supergoop; Sunscreen Moisturizer SPF 30; Sunscreen Oil SPF 20; Sunscreen Oil Spray; Sunscreen SPF 15; Sunscreen SPF 15 Sun Bum; Sunscreen SPF 30; Sunscreen SPF 30 CareOne; Sunscreen SPF 30 Daylogic; Sunscreen SPF 30 Jafra; Sunscreen SPF 30 Jafra Sun; Sunscreen SPF 30 Sun Bum; Sunscreen SPF 30 Ulta; Sunscreen SPF 30 Wegmans; Sunscreen SPF 30 meijer; Sunscreen SPF 45; Sunscreen SPF 50; Sunscreen SPF 50 Plus Broad Spectrum UVA UVB protection; Sunscreen SPF 50 Sun Bum; Sunscreen SPF 50 Wegman; Sunscreen SPF 50+; Sunscreen SPF 70; Sunscreen SPF 70 Rocky Mountain; Sunscreen SPF 70 Sun Bum; Sunscreen SPF 70 daylodic; Sunscreen SPF50; Sunscreen Sheer SPF 70; Sunscreen Shrre SPF 70; Sunscreen Sport SPF 30; Sunscreen Sport SPF 50 GoodSense; Sunscreen Sport SPF 50+; Sunscreen Spray 30 SPF; Sunscreen Spray 50 SPF; Sunscreen Spray SPF 30; Sunscreen Spray SPF Fps 30; Sunscreen Spray for Babies; Sunscreen Stick; Sunscreen Stick SPF 50+; Sunscreen Stick With Moisturizing Aloe Vera; Sunscreen ULTRA Broad Spectrum Equate; Sunscreen Water Resistant; Sunscreen Wipe KGP; Sunscreen With Moisturizer SPF-30; Sunscreen and Amphibious Bull frog; Sunscreen and insect repellent Bull frog; Sunscreen for Body SPF 30; Sunscreen for Kids; Sunscreen stick; Sunscreen with Aloe Vera SPF 30; SunscreenSPF 30 SPF 30; Sunsect Insect Repellent Sunscreen; Sunshield Liquid Makeup - Liq; Sunshield SPF-30; Sunshine Skin Tint Broad Spectrum SPF 30 - Refill; Sunshine Skin Tint SPF 30 Broad Spectrum SPF 30 - Refill; Sunshine and Glitter Broad Spectrum SPF 50 Glamingo Glitter Sunscreen; Sunshine and Glitter Broad Spectrum SPF 50 Rainbow Glitter Sunscreen; Sunsorb SPF30; Sunspots Sunscreen Lotion SPF 15; Sunspots Sunscreen Lotion SPF 30; Sunspray; Sunthera3 Baby SPF 50+ Sun Protection Lotion; Sunthera3 Kids SPF 50+ Continuous Spray Sunscreen Broad Spectrum Uva/uvb Protection; Sunthera3 Kids SPF 50+ Sun Protection Lotion; Sunthera3 Kids/enfants SPF/fps 50 Continuous Spray; Sunthera3 SPF 30 Continuous Spray; Sunthera3 SPF 30 Lipbalm; Sunthera3 SPF 30 Sun Protection Lotion; Sunthera3 SPF 50+ Continuous Spray; Sunthera3 SPF 50+ Sun Protection Lotion; Sunthera3 Sensitive Skin/peau Sensible SPF/fps 60; Sunthera3 Sport SPF 50+ Continuous Spray; Sunthera3 Sport SPF 50+ Sun Protection Lotion; Sunthera3 Sport SPF/fps 30 Continuous Spray; Suntints Liquid Lip Balm SPF 20; Suntique Im Tone Up Multi Base; Suntone BROAD SPECTRUM SPF 15; Suntone Broad Spectrum SPF 15; Suntone Broad Spectrum SPF 50 Sunscreen; Suntone Broad Spectrum SPF 8; Suntone Fit for the Sun Sport Sunscreen Broad Spectrum SPF 30; Suntone Kids Broad Spectrum SPF 50 Sunscreen; Suntone SPF 50; Suntone SUNSCREEN BROAD SPECTRUM SPF 45; Suntone Sport Sunscreen Broad Spectrum SPF 50; Suntone Sunscreen Broad Spectrum SPF30; Suntone Sunscreen Broad Spectrum SPF50; Suntone Sunscreen Broad Spectrum SPF70; Sunx SPF 30 Sunscreen Lotion; Sunx SPF 30 Sunscreen Towelette; Sunzen BROAD SPECTRUM SPF 30; Sunzen BROAD SPECTRUM SPF 8; Sunzen Broad Spectrum SPF 50; Sunzen Broad Spectrum SPF 8; Sunzone Family SPF 45; Sunzone Family SPF 50; Sunzone Kids SPF 45; Sunzone Kids SPF 50; Sunzone Sport SPF 45; Sunzone Sunscreen Sport SPF 60 Broad Spectrum; Sunzone Sunscreen Ãcran Solaire Spray Wet 60 SPF/fps; Super City Block SPF 40 Oil Free Daily Face Protector; Super Defense Superdefense Age Defense Moisturizer SPF 25 Dry Combination; Super Defense Superdefense Age Defense Moisturizer SPF 25 Very Dry Skin; Super Fluid Uv Defense; Super Fluid Uv Defense SPF 50; Super Mint SPF 15 Broad Spectrum Lip Balm; Super Origin Cc Spf25 Pa Plus Plus Brightening; Super Origin Cc Spf30 Pa Plus Plus Color Change; Super Origin Cc Spf30 Pa Plus Plus Tinted; Super Origin Collagen Waterproof Bb; Super Origin Collagen Waterproof Bb Spf46 Pa Plus Plus Plus; Super Plus Beblesh Balm Hot Pink SPF 25; Super Power Sunscreen Mousse SPF 50 Supergoop; Super Sparkle Screen Broad Spectrum 30 Sunkissed Gold Glitter Tangerine Scented; Super Sparkle Screen Broad Spectrum 30 Sunkissed Pink Glitter Strawberry Scented; Super-C SPF 30; SuperPlus Beblesh Balm Gold SPF25 PA 2Plus; SuperPlus Beblesh Balm SPF25 PA 2Plus; SuperPlus Beblesh Balm Triple Functions SPF25 PA 2Plus; SuperScreen Daily Moisturizer Broad Spectrum SPF 40; Superdefense Age Defense Moisturizer Broad Spectrum SPF 25 Very Dry To Dry; Superdefense Broad Spectrum SPF 25 Fatigue Plus 1st Signs Of Age Multi-correcting Very Dry To Dry Combination; Superdefense Daily Defense Moisturizer Broad Spectrum Spf20 (combination Oily - Oily); Superdefense Daily Defense Moisturizer Broad Spectrum Spf20 (very Dry - Dry Comb); Superdefense Fatigue + 1st Signs Of Age Multi-correcting Cream CRÃ¨me Multi-correction Fatigue + 1ers Signes De L'Ã¢ge Combination Oily To Oily / Mixte Ã Grasse SPF 25 Fps; Superdefense Fatigue + 1st Signs Of Age Multi-correcting Cream CRÃ¨me Multi-correction Fatigue + 1ers Signes De L'Ã¢ge Very Dry To Dry Combination / TrÃ¨s SÃ¨che Ã Mixte SPF 25 Fps; Superfruit Soother; Supergoop Daily Hydra-Ceramide Boost SPF40; Supergoop Glow Screen SPF 40 Shade 2 Golden Hour; Supernatural Poreless Flawless Tinted SPF 15; Supernatural Poreless Tint SPF 15; Supervalue Equaline Sport SPF 50; Surface Sheer Touch SPF 50 with Fragrance; Surface Sun Active Defense SPF 30 Sunscreen; Surface Sun Dry Touch SPF 30 Sunscreen; Surface Sun Dry Touch SPF 40 Sunscreen; Surface Sun Dry Touch SPF 50 Sunscreen; Surface Sun Dry Touch SPF 70 Sunscreen; Surface Sun Sheer Touch SPF 30 Sunscreen; Surface Sun Sheer Touch SPF 50 Sunscreen; Surface Sun Sheer Touch SPF30 Sunscreen; Surface Sun Wetskin Formula SPF 30 Sunscreen; Susan Lucci Youthful Essence Daily Protection Moisturizer Sunscreen SPF 15; Sweatproof Sunscreen SPF 30; Sweet Pea Sheer Shield SPF45; TANCEUTICALS SPF DROPS Broad Spectrum SPF-30; TBS Seaweed SPF15; TBS Vitamin E SPF; TC Enriched Professional Sunscreen SPF 30; THEFACESHOP Natural Sun Long Lasting Sunscreen Broad Spectrum SPF 50; THEFACESHOP Natural Sun Oil-Free Sunscreen Broad Spectrum SPF 50; TONYMOLY My Sunny Perfecting Sun Block; TOTAL DEFENSE REPAIR BROAD SPECTRUM SPF 34 Sunscreen; TOTAL DEFENSE REPAIR BROAD SPECTRUM SPF 34 Sunscreen (Tinted); TOTAL DEFENSE REPAIR BROAD SPECTRUM SPF 50 Sunscreen; TS CC Cream Beige; TS CC Cream Natural Beige; TULA Radiant Skin Brightening Serum Skin Tint Sunscreen Broad Spectrum SPF 30 Deep Cool; TULA Radiant Skin Brightening Serum Skin Tint Sunscreen Broad Spectrum SPF 30 Deep Neutral; TULA Radiant Skin Brightening Serum Skin Tint Sunscreen Broad Spectrum SPF 30 Deep Neutral-Cool; TULA Radiant Skin Brightening Serum Skin Tint Sunscreen Broad Spectrum SPF 30 Deep Neutral-Warm; TULA Radiant Skin Brightening Serum Skin Tint Sunscreen Broad Spectrum SPF 30 Deep Warm; TULA Radiant Skin Brightening Serum Skin Tint Sunscreen Broad Spectrum SPF 30 Light Cool; TULA Radiant Skin Brightening Serum Skin Tint Sunscreen Broad Spectrum SPF 30 Light Neutral; TULA Radiant Skin Brightening Serum Skin Tint Sunscreen Broad Spectrum SPF 30 Light Neutral-Warm; TULA Radiant Skin Brightening Serum Skin Tint Sunscreen Broad Spectrum SPF 30 Light Warm; TULA Radiant Skin Brightening Serum Skin Tint Sunscreen Broad Spectrum SPF 30 Light-Medium Cool; TULA Radiant Skin Brightening Serum Skin Tint Sunscreen Broad Spectrum SPF 30 Light-Medium Neutral; TULA Radiant Skin Brightening Serum Skin Tint Sunscreen Broad Spectrum SPF 30 Light-Medium Olive; TULA Radiant Skin Brightening Serum Skin Tint Sunscreen Broad Spectrum SPF 30 Light-Medium Warm; TULA Radiant Skin Brightening Serum Skin Tint Sunscreen Broad Spectrum SPF 30 Medium Cool; TULA Radiant Skin Brightening Serum Skin Tint Sunscreen Broad Spectrum SPF 30 Medium Neutral; TULA Radiant Skin Brightening Serum Skin Tint Sunscreen Broad Spectrum SPF 30 Medium Neutral-Cool; TULA Radiant Skin Brightening Serum Skin Tint Sunscreen Broad Spectrum SPF 30 Medium Warm; TULA Radiant Skin Brightening Serum Skin Tint Sunscreen Broad Spectrum SPF 30 Medium-Tan Neutral; TULA Radiant Skin Brightening Serum Skin Tint Sunscreen Broad Spectrum SPF 30 Medium-Tan Olive; TULA Radiant Skin Brightening Serum Skin Tint Sunscreen Broad Spectrum SPF 30 Medium-Tan Warm; TULA Radiant Skin Brightening Serum Skin Tint Sunscreen Broad Spectrum SPF 30 Tan Cool; TULA Radiant Skin Brightening Serum Skin Tint Sunscreen Broad Spectrum SPF 30 Tan Neutral-Cool; TULA Radiant Skin Brightening Serum Skin Tint Sunscreen Broad Spectrum SPF 30 Tan Warm; TULA Radiant Skin Brightening Serum Skin Tint Sunscreen Broad Spectrum SPF 30 Tan-Deep Cool; TULA Radiant Skin Brightening Serum Skin Tint Sunscreen Broad Spectrum SPF 30 Tan-Deep Neutral; TULA Radiant Skin Brightening Serum Skin Tint Sunscreen Broad Spectrum SPF 30 Tan-Deep Olive; TULA Radiant Skin Brightening Serum Skin Tint Sunscreen Broad Spectrum SPF 30 Very Light Cool; TULA Radiant Skin Brightening Serum Skin Tint Sunscreen Broad Spectrum SPF 30 Very Light Neutral; TULA Radiant Skin Brightening Serum Skin Tint Sunscreen Broad Spectrum SPF 30 Very Light Warm; TULA Skincare Protect Glow Daily Sunscreen Gel Broad Spectrum SPF 30; Tahitian Noni Sunscreen; Tahitian Noni Sunscreen SPF 30; Tahitian Noni TePoema Element Shield SPF 20; Tako Pore Sebum Sun; Tan Express Dark Tanning Awesome Oil SPF 4; Tan Express Dark Tanning Blitz Spray Lotion Spf4; Tan Towel SPF 30 Bronzing Mist Broad Spectrum; Tan Towel SPF 30 Clear Broad Spectrum; Tan-luxe Super Glow Broad Spectrum Sunscreen; Tanning Dry Oil SPF 15 Dollar General; Tanning Oil Huile Bronzante 15; Tanning Sunscreen SPF 15; Tanning Sunscreen UVB Protection Dry Oil Equate; Target Up and Up Broad Spectrum SPF 55 Oil-Free; Target Up and Up Kids SPF 50; Target Up and Up Kids SPF 50 Clear; Target Up and Up SPF55 Sunscreen; Target Up and Up SPF55 Sunscreen Reef-Conscious Formula; Target Up and Up Sport SPF 15 Clear; Target Up and Up Sport SPF 30 Clear Sport SPF 30 Clear; Target Up and Up Sport SPF 50; Target Up and Up Sunscreen SPF 30 SPORT Broad Spectrum; Tbs Aloe Spf15; Tcs Weightless Blend Everyday Primer; Tea Blend Daily Moisturizer SPF 15 Jafra; Tea Blend Samples Jafra; Teint Lift Defense Spf6; Tenacious Ergodyne; Tender Moments Baby Sunscreen Broad Spectrum SPF 45 Jafra; Tender Moments Baby Sunscreen Broad Spectrum SPF 50 Jafra; Tender Moments Baby Sunscreen Broad Spectrum SPF 50 Water Resistant (40 minutes); Tender Moments SPF 45; Tendertone Lip Balm SPF 12; Teradia The Liquiddiamond Sunscreen Spf50; Terrapin Outdoor Systems SPF 25 Spray On Sunscreen; Terrapin Outdoor Systems SPF 30 Sunscreen Lotion; The Bod Guard Invisible Sunscreen for Body; The Body Shop Natrulift Firming Day SPF 15; The Body Shop Pomegranate SPF 15; The Body Shop Vitamin C Daily Moisturizer SPF 15; The Body Shop Vitamin E Facial Day Lotion SPF15; The Body Shop Vitamin E Moisture SPF 15; The Cellin Sun Screen Spf35 Pa Plus Plus; The First Fermented Essence Bb Balm Spf25; The First Sun Spf50 Plus Pa Plus Plus Plus; The Good Stuff AfterShave SPF 15; The Mug Guard Invisible Sunscreen for Face; The Ordinary Invisible Uv Filters SPF 35; The Ordinary Suncare Invisible UV Filters with Antioxidants SPF35; The Protector; The Radiant Skintint SPF 30; The Starter Kit; The Ultimate KORRES Sun Kit; The Venetian The Palazzo Broad Spectrum SPF 50 Sunscreen; The Youth As We Know It; TheradermSPF 43 SPF 43; Therapeutic Aquaderm-15; Thermalab Daily Body SPF30 Broad Spectrum; Three step hand care Day Care SPF 15; Tieso Rapido Plus; Tieso Sol Uv Protector; Time Repair A.M.; Time Revolution White Cure Blanc Tone Up Sun Protector; Time Zone Line and Wrinkle Reducing Creme SPF 15 Normal Combo Skin; Time Zone Line and Wrinkle Reducing Creme SPF 15 for Dry Skin; Timeless Anti-Aging BB Broad Spectrum SPF 30; Timeless Ferment Sanil Sun; Timewise Day Solution Sunscreen SPF 25; Timewise Day Solution sunscreen SPF 35; Timewise Day Solution sunscreen SPF 35 14ml; Tinted Lip Conditioner SPF 15; Tinted Lip Conditioner SPF 15 Plus Lavender; Tinted Liplux; Tinted Moisturizer Broad-Spectrum SPF 45; Tinted Moisturizer Matte Broad Spectrum SPF 45; Tinted Moisturizer SPF 30 Broad Spectrum; Tinted Moisturizer SPF 45 Matte; Tinted Moisturizer SPF-15; Tinted SPF 45; Tinted Sun Face Protector Sunscreen Broad Spectrum SPF 50; Tlc; Toleriane Double Repair Moisturizer UV SPF 30; Toleriane Sensitive CRÃ¨me Uv; Tolsom Skin Protective Lotion SPF 15; Tolsom Skin Protective SPF 15 Sunscreen; Tom Ford Face Protect Broad Spectrum SPF 50; Tom Ford Shade and Illuminate Soft Radiance Foundation Broad Spectrum SPF 50; Tom Ford Soleil Tinted Moisturizer Broad Spectrum SPF 30; Tom Ford Soleil Tinted Moisturizer SPF 30; Tone Correcting Daily Lotion; Tone Up White Sun; Tonymoly Bcdation Multi Use Sun; Tonymoly Magic Food Mango Mild Sun Block; Too Cool For School DINO PLATZ CINEMA CITY (CC CHEEK); Too Cool For School DINO PLATZ CINEMA CITY (CC CONCEALER); Too Cool For School DINO PLATZ CINEMA CITY (CC Highlighter); Too Cool For School DINOPLATZ LOOSE and SILLY No. 1 Definition; Too Cool For School DINOPLATZ LOOSE and SILLY No. 2 Illusion; Too Faced Hangover Good To Go SPF 25 Broad Spectrum Moisturizer; TopCare Daily Moisturizer for face; TopCare Everyday Ultimate Sheer Sun Broad Spectrum SPF 70; Topcare Everyday Continuous Broad Spectrum SPF 50; Topcare Everyday Sport SPF 70 Sunscreen; Topcare Everyday Ultimate Sheer Sun Broad Spectrum SPF 55; Topcare Everyday Ultra Protection SPF 50; Total Age Defy SPF 15 Sunscreen; Total Cover Cream Foundation; Total Cover Cream Foundation Broad Spectrum SPF 30 Sunscreen G10; Total Cover Cream Foundation Broad Spectrum SPF 30 Sunscreen G20; Total Cover Cream Foundation Broad Spectrum SPF 30 Sunscreen G30; Total Cover Cream Foundation Broad Spectrum SPF 30 Sunscreen G40; Total Cover Cream Foundation Broad Spectrum SPF 30 Sunscreen G50; Total Cover Cream Foundation Broad Spectrum SPF 30 Sunscreen G60; Total Cover Cream Foundation Broad Spectrum SPF 30 Sunscreen G70; Total Cover Cream Foundation Broad Spectrum SPF 30 Sunscreen G80; Total Cover Cream Foundation Broad Spectrum SPF 30 Sunscreen N0; Total Cover Cream Foundation Broad Spectrum SPF 30 Sunscreen N10; Total Cover Cream Foundation Broad Spectrum SPF 30 Sunscreen N100; Total Cover Cream Foundation Broad Spectrum SPF 30 Sunscreen N110; Total Cover Cream Foundation Broad Spectrum SPF 30 Sunscreen N120; Total Cover Cream Foundation Broad Spectrum SPF 30 Sunscreen N20; Total Cover Cream Foundation Broad Spectrum SPF 30 Sunscreen N25; Total Cover Cream Foundation Broad Spectrum SPF 30 Sunscreen N30; Total Cover Cream Foundation Broad Spectrum SPF 30 Sunscreen N35; Total Cover Cream Foundation Broad Spectrum SPF 30 Sunscreen N40; Total Cover Cream Foundation Broad Spectrum SPF 30 Sunscreen N50; Total Cover Cream Foundation Broad Spectrum SPF 30 Sunscreen N60; Total Cover Cream Foundation Broad Spectrum SPF 30 Sunscreen N70; Total Cover Cream Foundation Broad Spectrum SPF 30 Sunscreen N80; Total Cover Cream Foundation Broad Spectrum SPF 30 Sunscreen N90; Total Cover Cream Foundation Broad Spectrum SPF 30 Sunscreen P10; Total Cover Cream Foundation Broad Spectrum SPF 30 Sunscreen P20; Total Cover Cream Foundation Broad Spectrum SPF 30 Sunscreen P30; Total Cover Cream Foundation Broad Spectrum SPF 30 Sunscreen P40; Total Cover Cream Foundation Broad Spectrum SPF 30 Sunscreen P50; Total Cover Cream Foundation Broad Spectrum SPF 30 Sunscreen P60; Total Cover FX; Total Cover Sunblock 30spf Crm; Total Defense + Repair Broad Spectrum SPF 34 Sunscreen; Total Defense + Repair Broad Spectrum SPF 34 Sunscreen Tinted; Total Defense + Repair Broad Spectrum SPF 50+ Sunscreen; Total Protector 30; Total Protector Color 30 Medium Tint; Total Sun Protection; Total Sunblock Lotion SPF 45; Total Suncare Sunscreen SPF 15; Total Suncare Sunscreen SPF 30; Total Suncare Sunscreen SPF 50; Total Suncare Sunscreen SPF 50 Plus; Total Suncare Sunscreen SPF 70; Total Truth Eye CRÃ¨me SPF 15; Total Truth Eye Creme SPF 15 Ole Henriksen; Touch Anti-Aging SPF 30 Moisturizer; Tourist Spf30; Trader Joes Daily Facial Sunscreen SPF 40; Trader Joes Face and Body Sunscreen SPF 30; Trader Joes Sunscreen SPF 50; Traveler Spf15; Treat and Tint Skin Perfecting Bb SPF 30; Tree Hut DD Cream Daily Defense Cream SPF20; Tretinopak; Tri-phasic White Day Milk Lotion SPF 15; Triple Age Repair Moisturizer; Triple Care Sports Milk; Triple Defense Treatment; Triple Defense Treatment for Men; Triple Essentials; Triple Protect Face Lotion SPF 20; Triple Protection Moisture Lotion SPF 15; Troiareuke Acsen Uv Protector Essence; Troiareuke Cushion A Plus C21; Troiareuke Cushion A Plus C21 Refill; Troiareuke Cushion A Plus C23; Troiareuke Cushion A Plus C23 Refill; Tropic Sun SPF 50; Tropical Coconut SPF 30 Broad Spectrum; Tropical Lip Balm; Tropical SPF 15 Broad Spectrum Lip Balm; Tropical SPF 15 Lip; Tropical Sunscreen; Trucco Skintones; True Blue Spa Cooling Sunscreen Mist Broad Spectrum SPF 25 Water Resistant (40 minutes) Monoi Oil; True Complexion Tinted Moisturizer SPF 15; Truecomfort Tm Lipcare SPF-25; Truffle EX Sun Spf50 Plus Pa Plus Plus Plus; Truffoire Truffle Brightening; Truist Sunscreen Moisturizer; Trump Golf Broad Spectrum SPF 30 Sunscreen; Turf Screen Crew Broad Spectrum Sunscreen; ULTA Oil Free Sunscreen SPF30; ULTIMATE AQUA BLANC PROTECTIVE 10mL; ULTRASOL Sport Sunscreen; ULTRASOL Sunscreen; ULTRASOL Sunscreen Lotion SPF 45; ULTRASOL Sunscreen SPF45; UNBLEMISH Invisible Matte Defense; USANA Lip Moisturizer; UV Base SPF 50; UV Defense Pocket Sun Pad (Broad Spectrum, SPF30); UV Defense Sun Block Tissues (BROAD SPECTRUM, SPF30); UV SUNSET Body And Family Sun; Ugly Duck Miracle Multi Shield Sun Gel; Ulimate Sheer SPF 85 Rite Aid; Ulta Beauty Broad Spectrum SPF 30; Ulta Beauty Broad Spectrum SPF 30 Sunscreen; Ulta Beauty Broad Spectrum SPF 50 Sunscreen; Ulta Beauty SPF 15 Broad Spectrum Sunscreen; Ulta Beauty SPF 30 Broad Spectrum Sunscreen; Ulta Beauty SPF 50 Broad Spectrum Sunscreen; Ulta Beauty SPF 50 Workout Sunscreen Face Mist with Rosewater; Ulta Broad Spectrum SPF 15; Ulta Broad Spectrum SPF 15 Medium Deep; Ulta Broad Spectrum SPF 30; Ulta Broad Spectrum SPF 50; Ulta Broad Spectrum SPF 70; Ulta Broad Spectrum SUNSCREEN SPF80; Ulta Face SPF 30; Ulta SPF 15; Ulta SPF 15 Broad Spectrum Light to Medium Tinted Sunless Sunscreen; Ulta SPF 15 Broad Spectrum Tinted Sunless Sunscreen for Face; Ulta SPF 15 Light Medium Broad Spectrum; Ulta SPF 15 Medium Deep Broad Spectrum tinted sunscreen; Ulta SPF 20 Broad Spectrum Water Resistant Sunscren with Shimmer; Ulta SPF 50; Ulta SPF30; Ulta SUNSCREEN SPF 15; Ulta SUNSCREEN SPF 45; Ulta Sun Dry Touch SPF 55; Ulta Sun Dry Touch SPF 70; Ulta Sunscreen SPF 15; Ulta Sunscreen SPF 30; Ulta Sunscreen SPF 50; Ultimate Aqua Blanc Protective; Ultimate Aqua Blanc Protective Lotion; Ultimate Correcting Base Spf50; Ultimate Day Age Defying Cream Creme Defi-age SPF/fps 25; Ultimate Day Transforming Lift Cream SPF 15; Ultimate Seer Sunscreen SPF 55 daylogic; Ultimate Sheer SPF 55 body; Ultimate Sheer SPF 70; Ultimate Sheer Sunscreen SPF 100 Rite Aid; Ultimate Sheer Sunscreen SPF 30 daylogic; Ultimate Sheer Sunscreen SPF 70 Quality Choice; Ultimate Sheer Sunscreen SPF 70 daylogic; Ultimate Sheer Sunscreen SPF 70 exchange select; Ultimate Sheer Sunscreen SPF 85 Rite Aid; Ultimate Sport Face Sunscreen Lotion; Ultimate Sport Sunscreen; Ultimate Sport Sunscreen Lotion; Ultimate Sport Sunscreen Lotion SPF 30; Ultimate Sport Sunscreen Spray SPF 30; Ultimate Sport Sunscreen Spray SPF 45; Ultimate Sport Sunscreen Spray SPF 60; Ultimate Sport Sunscreen Spray SPF 70; Ultimate Sport Sunscreen Spray SPF 85; Ultra Calming Daily Moisturizer SPF 15; Ultra Defense Spray Sunscreen Ecran Solaire En Vaporisateur SPF/fps 30; Ultra Defense Spray Sunscreen Ãcran Solaire En Vaporisateur SPF Fps 100; Ultra Defense Spray Sunscreen/ecran Solaire En Vaporisateur SPF/fps 50; Ultra Defense Sunscreen Lotion Ecran Solaire SPF/fps 30; Ultra Defense Sunscreen Lotion Lotion Ãcran Solaire SPF Fps 30 Photostable; Ultra Defense Sunscreen Lotion Lotion Ãcran Solaire SPF Fps 60; Ultra Defense Sunscreen Lotion Lotion Ãcran Solaire SPF Fps 60 Photostable; Ultra Defense Sunscreen Lotion Ãcran Solaire SPF Fps 30 Technologie Avotriplex Technology; Ultra Defense Sunscreen Lotion Ãcran Solaire SPF Fps 50; Ultra Defense Sunscreen Lotion Ãcran Solaire SPF Fps 50 Technologie Avotriplex Technology; Ultra Facial Cream/crÃ¨me SPF 30; Ultra Facial Moisturizer SPF 30; Ultra Fluide Corps; Ultra Fluide Visage; Ultra Lift Anti-wrinkle Firming Moisturizing Cream; Ultra Light Advanced Continuous Spray Lotion; Ultra Light Advanced Lotion; Ultra Light Sunscreen Broad Spectrum SPF 50; Ultra Light Sunscreen Broad Spectrum SPF 50 Merle Norman; Ultra Mist Banana Boat Kids Sunblock Lotion Ecran Solaire Pour Enfants Uva & Uvb SPF Fps 50; Ultra Mist Banana Boat Sport Clear Sunblock Ecran Solaire Incolore Uva & Uvb SPF Fps 30; Ultra Mist Banana Boat Ultra Clear Sunblock Ecran Solaire Incolore Uva & Uvb SPF Fps 30; Ultra Moisturizing Sun; Ultra Protection Eye Lip Nose Sunscreen Broad Spectrum SPF 40; Ultra Protection SPF 70; Ultra Protection Stick Broad Spectrum SPF 40 La Prairie Switzerland; Ultra Protection stick La prarie Switerland; Ultra Protection stick SPF 40 La prairie Switzerland; Ultra Replenishing Sunscreen SPF 40; Ultra Rich Hydration; Ultra Sheer Body Mist Sunscreen; Ultra Sheer Body Mist Sunscreen SPF 100; Ultra Sheer Body Mist Sunscreen SPF 30; Ultra Sheer Body Mist Sunscreen SPF 45; Ultra Sheer Body Mist Sunscreen SPF 85; Ultra Sheer Daily Defense Facial SPF 18; Ultra Sheer Dry Touch Sunscreen SPF 30; Ultra Sheer Dry-touch Sunscreen; Ultra Sheer Dry-touch Sunscreen SPF 100; Ultra Sheer Dry-touch Sunscreen SPF 110; Ultra Sheer Dry-touch Sunscreen SPF 30; Ultra Sheer Dry-touch Sunscreen SPF 45; Ultra Sheer Dry-touch Sunscreen SPF 55; Ultra Sheer Dry-touch Sunscreen SPF 60; Ultra Sheer Face & Body Stick SPF 60; Ultra Sheer Face & Body Stick Sunscreen SPF 50+; Ultra Sheer Face Mist Sunscreen; Ultra Sheer Face Sunscreen; Ultra Sheer Face Sunscreen SPF 110; Ultra Sheer Face Sunscreen SPF 45; Ultra Sheer Face Sunscreen SPF 60; Ultra Sheer Face Sunscreen SPF 70; Ultra Sheer Foaming Lotion SPF 30; Ultra Sheer Foaming Lotion SPF 60; Ultra Sheer Moisturizing Face Serum Sunscreen; Ultra Sheer Sunscreen Lotion; Ultra Sheer Water Light; Ultra Soft Hydrating Sunblock SPF 30; Ultra Soft Hydrating Sunblock SPF 45; Ultra Sport Lotion 15 SPF; Ultra Sport Lotion 30 SPF; Ultra Sun Block Lotion SPF 30; Ultra Sun Protection Spray; Ultra Sun Protector Cream CRÃ¨me Solaire Ultra Protection 50+; Ultra Sun Protector Lotion Lait Solaire Ultra Protection 50+; Ultra Sunblock Lotion SPF 30; Ultra Sunscreen; Ultra-Light Hydrating Sunscreen SPF 50 Eau Thermale Avene; Ultra-fluid Body Milk Sun Protection SPF 30; Ultra-lift Glow Anti-wrinkle Firming Moisture Cream SPF 15; Ultra-lift SPF 15; Ultra-light Lotion SPF 50; Ultra-light Moisturizing Lotion SPF 30; Ultra-light Refreshing Uv Lotion; Ultra-light Uv Lotion; Ultra-rich Hydration; Ultramist Banana Boat Dark Tanning Lotion SPF 4; Ultrasol KIDS Sunscreen; Ultrasol Kids; Ultrasol OIL-FREE Sunscreen; Ultrasol Sport; Ultrasol nature BABY Sunscreen; UltrasolSunscreen Clear CONTINUOUS SPRAY SPF43; UltrasolSunscreen KIDS Clear CONTINUOUS SPRAY; UltrasolSunscreen KIDS Sunscreen Lotion; UltrasolSunscreen KIDS Sunscreen Lotion Continuous Spray SPF 45; UltrasolSunscreen KIDS Sunscreen Lotion SPF 34; UltrasolSunscreen KIDS Sunscreen Mousse; UltrasolSunscreen KIDS Sunscreen Spray Lotion SPF 30; UltrasolSunscreen Sport Clear CONTINUOUS SPRAY; UltrasolSunscreen Sport Sunscreen Lotion CONTINUOUS SPRAY SPF 45; UltrasolSunscreen Sunscreen Face Cream SPF 34; UltrasolSunscreen Sunscreen Lotion Continuous Spray SPF 45; UltrasolSunscreen Sunscreen Lotion SPF 15; UltrasolSunscreen Sunscreen Lotion SPF 34; UltrasolSunscreen Sunscreen Lotion SPF45; UltrasolSunscreen nature BABY Sunscreen Face Cream SPF 45; Uncomplikated Makeup Setting SPF 50; Uncomplikated SPF; Unicorn Snot 30 Glitter Sunscreen Love Shack; Unicorn Snot 30 Glitter Sunscreen Space Junk; Unicorn Snot Bio 30 Glitter Sunscreen Love Shack; United Spirit of America (Warrior) Broad Spectrum SPF 30; United Spirit of America (Warrior) Broad Spectrum SPF 50; United Spirit of America BROAD SPECTRUM SPF 30 Sunscreen; Universal Anti-aging Daily Moisturizing Cream SPF 30; Universal Defense E; Uniwell Aqua Suncream; Unscented Body SPF 30 Broad Spectrum; Unseen Sunscreen; Unseen Sunscreen Body SPF 40; Unseen Sunscreen Broad Spectrum SPF 40; Up and Up Illuminating Daily Moisturizer with Sunscreen Broad Spectrum SPF 15; Up and Up Sport Sunscreen Broad Spectrum SPF 50; Urban Antioxidant Sunscreen SPF 40; Urban Decay Urban Defense Complexion Primer Broad Spectrum SPF 30; Urban Defense; Urban Environment Fresh - Moisture; Urban Environment Oil-free; Urban Legend Antioxidant Day Cream with Green Tea and Vitamin C Sunscreen Broad Spectrum SPF 30; Urban Outfitters Broad Spectrum SPF 30 Sunscreen; Urban Outfitters SPF 15 Broad Spectrum Sunscreen; Urban Outfitters Sunscreen Shimmer Broad Spectrum SPF 30; Urban Skin Defence; Utiliscreen Sunscreen; Uv Bounce Mist; Uv Defense; Uv Expert SPF 15; Uv Lock Flower 3 Proof Sun Spf50plus Pa Plus Plus Plus; Uv Lock Flower Daily Powerful Sun Spf50plus Pa Plus Plus Plus; Uv Lock Flower Sun Spf50plus Pa Plus Plus Plus; Uv Lock Flower Water Gel Sun Spf30 Pa Plus Plus; Uv Lock Flower Water Proof Sun Spf50plus Pa Plus Plus Plus; Uv Lock Ultra Milk Sun Big Size Spf50plus Pa Plus Plus Plus; Uv Lock Ultra Milk Sun Spf50plus Pa Plus Plus Plus; Uv Pro Broad Spectrum SPF 30; Uv Pro Broad Spectrum SPF 45; Uv+age Daily; V V Bouncing Cushion Be10; V V Bouncing Cushion Be20; V V Bouncing Cushion Bp15; VITAMIN E MOISTURE-PROTECT SPF 30 PA plus plus plus; VIVITE Aftercare Environmental Protection Sunscreen SPF 30; VIVITE Daily Facial Moisturizer with Sunscreen SPF 30; Vacation Chardonnay Broad Spectrum SPF 30 Sunscreen; Vacation Classic Broad Spectrum SPF 30 Sunscreen; Vacation Lip Trips Desserts; Vacation Lip Trips Desserts After Dinner Mint; Vacation Lip Trips Desserts Bananas Foster; Vacation Lip Trips Desserts Bombe Alaska; Vacation Lip Trips Desserts Pineapple Upside Down Cake; Vacation Lip Trips Desserts Strawberry Jello; Vacation SPF 30 ClassicSpray; Vacation World Classic Whip SPF 30; Vanilla Lip Balm; Vanilla Mint Lip Balm; Vanilla Mint Lip SPF 30 Balm; Vanilla Mint SPF 15 Broad Spectrum Lip Balm; Vanilla SPF 15 Broad Spectrum Lip Balm; Vanilla SPF 15 Lip; Vanilla SPF 30 Broad Spectrum Lip Balm; Vapo Haute Protection Soleil Sun High Protection Spray Fps 30 SPF; Vaseline; Vaseline Aloe Fresh Hydrating + SPF Body Lotion With Aloe and Sunscreen; Vaseline Brand Intens Care Sunblock Lot Spf25; Vaseline Brnd Intensv Care Sunblk Lot Spf35; Vaseline Intensive Care Aloe Fresh Protecting Body Lotion; Vaseline Intensive Care Aloe Fresh SPF 15; Vaseline Men plus Care Hydrate Face; Vaseline Total Moisture Aloe Fresh SPF 15; Vegan Collagen Every Day; Veil Fluid Makeup Beige SPF 15; Veil Fluid Makeup Chestnut SPF 15; Veil Fluid Makeup Honey SPF 15; Veil Fluid Makeup Ivory SPF 15; Veil Fluid Makeup Light Beige SPF 15; Veil Fluid Makeup Nude SPF 15; Veil Fluid Makeup Porcelain SPF 15; Veil Fluid Makeup Sable SPF 15; Veil Fluid Makeup Sand SPF 15; Veil Fluid Makeup Walnut SPF 15; Veil Fluid Makeup Warm Beige SPF 15; Venofye Orchard Bee Brilliance SPF 30; Vertra Element Resistance Daily Driver SPF30; Vertra Hawaiian Shaved Ice Pineapple SPF30; Vertra Lava Lava Hibiscus SPF30; Very Emollient Body Daily Shade SPF15; Vialprotection Age Defying Protective SPF 50; Vichy Laboratoire Capital Soleil SPF 30 Soft Sheer Sunscreen; Vichy Laboratoire Capital Soleil SPF 60 Soft Sheer Sunscreen; Vichy Laboratoires Aqualia Antiox Pro-Youth Anti-Oxidant 24Hr Hydrating Fluid SPF 12; Vichy Laboratoires Aqualia Thermal Sunscreen; Vichy Laboratoires Aqualia Thermal UV Defense Moisturizer Broad Spectrum SPF 30 Sunscreen; Vichy Laboratoires Capital Soleil 30 Broad Spectrum SPF 30 Sunscreen Luxurious Protective; Vichy Laboratoires Capital Soleil 30 Sunscreen Luxurious Protective; Vichy Laboratoires Capital Soleil 50 Daily AntiAging Face Sunscreen Broad Spectrum SPF 50 Water Resistant 80 Minutes; Vichy Laboratoires Capital Soleil 60 Daily AntiAging Face and Body Sunscreen Broad Spectrum SPF 60 Water Resistant 80 Minutes; Vichy Laboratoires Capital Soleil SPF 50 Ultra Light Sunscreen; Vichy Laboratoires Ideal Capital Soleil 45 Sunscreen Broad Spectrum SPF 45 Water Resistant 80 Minutes; Vichy Laboratoires Ideal Capital Soleil 50 Sunscreen Broad Spectrum SPF 50 Water Resistant 40 Minutes; Vichy Laboratoires Ideal Capital Soleil 60 Sunscreen Broad Spectrum SPF 60 Water Resistant 40 Minutes; Vichy Laboratoires Idealia Broad Spectrum SPF 25 Sunscreen BB; Vichy Laboratoires LiftActiv Retinol HA Total Anti-Wrinkle Daily Intervention SPF 18; Vichy Laboratoires Liftactiv Retinol HA Broad Spectrum SPF 18 Sunscreen; Vichy Laboratories Aqualia Thermal UV Defense SPF 30 Mineralizing Thermal Water Niacinamide Plant Sugar Vitamin E 48 hr Dynamic Hydration Oil free lightweight texture All skin types; Vichy Laboratories LiftActiv Peptide-C SPF 30 Phyto Peptides Vitamin C; Victorias Secret Pink Broad Spectrum SPF 25 Sunscreen Sunkissed; Victorias Secret Sun Broad Spectrum SPF 25; Villa Floriani Aloe Ultra-hydrating Day SPF 20; Villa Floriani Chamomile Calming Day SPF 20; Villa Floriani Mint Purifying Day SPF 20; Village11Factory Waterproof Cica Sun; Village11factory Daily Mild Sun; Village11factory Hydra Sun Fluid; Vine Vera Resveratrol Cabernet Replenishing Moisture; Vine Vera Resveratrol Zinfandel Radiance; Vinexpert Broad Spectrum SPF 15 Radiance Day; Vinexpert Broad Spectrum SPF 15 Radiance Day Fluid; Vinexpert Radiance Day Fluid SPF 10; Vinexpert Riche Radiance Day SPF 10; Vinoperfect Broad Spectrum SPF 15 Day Perfecting; Vinoperfect Broad Spectrum SPF 15 Day Perfecting Fluid; Vinoperfect Day Perfecting Fluid SPF 15; Vinoperfect Day Perfecting SPF 15; Vinoperfect Radiance Moisturizer Broad Spectrum SPF20; Visage Envy Facial Moisturizing SPF30; Visage Envy Invisible Face Gel SPF50; Visage Pro Peach Fuzz; Visible Difference Multi Targeted Bb Cream Broad Spectrum Sunscreen SPF 30 Shade 1; Visible Difference Multi Targeted Bb Cream Broad Spectrum Sunscreen SPF 30 Shade 2; Visible Difference Multi Targeted Bb Cream Broad Spectrum Sunscreen SPF 30 Shade 3; Visible Difference Multi-targeted Bb Cream Broad Spectrum Sunscreen SPF 30; Visible Lift C.C. Cream SPF 20; Visual Perfection Tint Releasing Moisturizer SPF 20; Vita Lift SPF 15 Daily Moisturizer; Vital Defense Lip Treatment - Stk; Vital Sun Protection SPF 15; Vital Sun Protection SPF 30; Vital Sun Protection SPF 40; Vitamin C Brightening Facial Oil Stick; Vitamin C Brightening Facial Oil Stick SPF 30; Vitamin C Daily Moisturiser With SPF 15; Vitamin C Daily Moisturizer SPF 30; Vitamin C Glow-protect Lotion SPF 30; Vitamin C Glow-protect SPF 30; Vitamin C Suncare Broad Spectrum SPF 30 Sunscreen; Vitamin E Day SPF 15; Vitamin E Lip Care SPF 15; Vitamin E Lip Conditioner SPF 15; Vitamin E Moisture Lotion Spf15; Vitamin E Moisture SPF 15; Vitamin E Moisture-protect Emulsion SPF 30; Vitamin E Moisture-protect Lip Care; Vitamin E Moisture-protect Lip Care SPF 15; Vitamin E Moisturizing Day SPF 15; Vitamin E SPF15 Lip Balm; Vitazing Energy Boosting Moisturizer SPF 15; Vitazing SPF 15 Energy Boosting Moisturizer With Mangosteen Broad Spectrum SPF 15; Vivier Sheer SPF 45; Vivierskin Sheer Broad Spectrum SPF30; Vmv Hypoallergenics Armada 30; Vmv Hypoallergenics Armada Sport 50; Volu-firm Day Cream Sunscreen; Volu-firm Day Cream Sunscreen Broad Spectrum SPF 30; Volu-firm Day Cream With SPF 30; Voupre Age Defense; W Honey Beam Cushion 21; W Honey Beam Cushion 23; W Lab BLOSSOM WHITE CUSHION 13 Blossom White; W Lab BLOSSOM WHITE CUSHION 21 Blossom Light; W Lab BLOSSOM WHITE CUSHION 23 Blossom Beige; WKND UNDERWATER SUN SCREEN 40mL; Walg Sun Moist Spf30; Walg Sun Moist Spf50; Walg Sun Moisturizing SPF 50; Walgreen Clear Complexion; Walgreen Sport SPF 50; Walgreen Sport SPF 70 Sunscreen; Walgreens 7-in-1 Anti-Aging Vitamin Complex Broad Spectrum SPF 15 Sunscreen; Walgreens Advanced Anti-Wrinkle and Firming Day Cream Broad Spectrum SPF18 Sunscreen; Walgreens Broad Spectrum SPF 110 Age Protection Sunscreen; Walgreens Broad Spectrum SPF 30 Dry Touch Sunscreen; Walgreens Broad Spectrum SPF 70 Sunscreen; Walgreens Broad Spectrum Sport SPF 50 Sunscreen; Walgreens Clear Face; Walgreens Dry Touch Broad Spectrum SPF 55; Walgreens Kids SPF 50; Walgreens SPF 50 Clear Complexion Face Sunscreen; Walgreens SPF 50 Clear Complexion For Face; Walgreens SPF 50 Sport Faces; Walgreens SPF 55 Dry Touch; Walgreens SPF 55 Sheer Face Mist Sunscreen; Walgreens SPF 70 Sport Continuous; Walgreens SPF55 Sunscreen; Walgreens SPF55 Sunscreen Reef-Conscious Formula; Walgreens SUNSCREEN Sport Broad Spectrum SPF 30; Walgreens Sport Broad Spectrum SPF 50 Faces Sunscreen; Walgreens Sport Continuous SPF 30; Walgreens Sport Faces SPF 30; Walgreens Sport SPF 30; Walgreens Sport SPF 50; Walgreens Sport SPF 50 Sunscreen; Walgreens Sun Kids SPF50; Walgreens Sunscreen Baby SPF 50; Walgreens Sunscreen Broad Spectrum SPF 30; Walgreens Sunscreen SPF 30; Walgreens Sunscreen SPF 50; Walgreens Sunscreen Sport SFP 70; Walgreens Sunscreen Sport SPF 30; Walgreens Sunscreen Sport SPF 50; Walgreens Wrinkle Repair Moisturizer SPF30; Walgreens sunscreen Broad Spectrum SPF 15; Walmart Equate Beauty Ultra Light Sunscreen Broad Spectrum SPF 55; Walmart Equate Beauty Ultra Light Sunscreen SPF 100; Water Babies Uv Guard SPF-30 Lotion; Water Drench; Water Resistant Natural Lavender Sun Block SPF 30; Waterblock Solar SPF 30; Waterblock Solar Spray SPF 30; Waterbright Radiating; Waterful Essence Sun; Waterful Sun; Waterguard Kids; Waterguard Kids Sunscreen Clear Spray; Watermans SPF 55; Watermelon Glow; Watermelon Glow Niacinamide Sunscreen; Watermelon Twist SPF 15 Broad Spectrum Lip Balm; Waterproof SPF-15 Sunblock Lotion; Waterproof Solar Spray SPF 25; Waterwhite Brightening Lotion SPF 15; Waterwhite Eye Cream; Waterworld Sport Sun Block SPF 15; Watkins Aloe Vera Botanical Lip Balm; Webb Candy; Wegmans Sport Broad Spectrum SPF 70 Clear Continuous Sunscreen; Wegmans Sport Clear Continuous Sunscreen SPF 30; Weightless Protection; Weightless Protection SPF 30; Weightless Protection SPF 45; Welcome Matte SPF 15; Well at Walgreens Kids Sunscreen Broad Spectrum SPF 50; Well at Walgreens Mist Sheer Broad Spectrum Broad Spectrum SPF 30; Wellcare Sunstick 01; Wellcare Sunstick Lip Balm; Wellcare Sunstick Sunscreen Stick; Western FAMILY SPF 15; Western Family Baby Broad Spectrum Sunscreen SPF 50; Western Family Broad Spectrum Sunscreen SPF 70; Western Family Broad Spectrum SunscreenSPF 50 SPF 50; Western Family Oil Free Faces SPF 30; Western Family Sport Sunscreen SPF 30; Wet Guard Swim Humidity Sweat Sunscreen Lotion; Wet Skin Kids; Wet Skin SPF 30; Wet Skin SPF 45; Wet Skin SPF 60; Wet Skin Sunscreen Spray SPF 85; Wet Skin Swim Humidity Sweat Sunscreen Lotion; White Caviar Illuminating Hand SPF 15; White Caviar Illuminating Hand Sunscreen Broad Spectrum SPF 15; White Caviar Illuminating Hand Sunscreen Broad Spectrum SPF 15 La Prairie; White Tea Tinted Moisturizer; WhiteWater Advanced Brightening WhiteWater Advanced Brightening SPF30; Wiklar Uv Cover Shield; Wildberry Lip Balm; Wildberry SPF 15 Broad Spectrum Lip Balm; Wknd Underwater Sun Screen 50ml; Wknd Underwater Sun Screen 80ml; Wknd Underwater Sun Tan; Wknd Underwater Sun White; Wonder Intensive BBCream 21 (Light); Wonderblur Immediate Skin Smoothing Finishing Broad Spectrum SPF30; Wrinkle Corrector and Firming Moisturizer SPF 15; Wrinkle Expert Age Defense Uv Lotion; Wrinkle Repair Moisturizing Cc Cream SPF 30; Wrinkle Repair Moisturizing Cream SPF 30; Wrinkles and Radiance Dazzling -Day- SPF 20; XIELL Intensive Cell Recovery Sun Cream; XXL Demi Make Up SPF 50; XXL Sun Block SPF 50; YOUTH CORRIDOR Soothe and Defend SPF-30; YVES ROCHER hydra vegetal HYDRATING DAY SPF 25 SUNSCREEN; Yadah Be My Cushion 21 Light Beige; Yadah Be My Cushion 23 Natural Beige; Yadah Oh My Sun Slush; Yadah Silky Fit Concealer Bb Power Brightening; Yanbal Sentiva Extracto Divino Youth Renewal Moisturizing SPF 20; Yerma Sun Essence; Ymlabs; You Rebel; YourGoodSkin SPF 30 Anti-oxidant Day Sunscreen Broad Spectrum SPF 30; Youth Cell Day Broad Spectrum SPF-15 Sunscreen; Youth Code Day Cream SPF 30; Youth Code Day Lotion SPF 30; Youth Code Skin Illuminator Tinted; Youth Surge Age Decelerating Moisturizer SPF 15; Youth Surge SPF 15 Age Decelerating Moisturizer Dry Combination Skin; Yves Saint Laurent Forever Youth Liberator; Yves Saint Laurent Forever Youth Liberator Broad Spectrum SPF 15 Sunscreen Fluid; Yves Saint Laurent Forever Youth Liberator Sunscreen Broad Spectrum SPF 15 Antiwrinkle Lift Plump Radiance; ZERMAT Sunscreen Broad Spectrum SPF 50 For Daily Use Non-Water Resistant; ZERMAT Sunscreen SPF 50 For Daily Use; ZO SKIN HEALTH OCLIPSE SUN SPF 50 BROAD SPECTRUM SUNSCREEN SPF 50 FOR FACE PLUS BODY WATER/PERSPIRATION RESISTANT (80 minutes); ZO SKIN HEALTH OCLIPSE SUN SPF 50 BROAD SPECTRUM SUNSCREEN SPF 50 FOR FACE PLUS BODY WATER/PERSPIRATION RESISTANT (80 minutes) UVA / UVB / HEV / IR-A PROTECTION ZOX12; ZO Skin Health Smart Tone Broad-Spectrum Sunscreen SPF 50; Zermat Skin Platinum Series Cellular Beauty Caviar and Collagen Day SPF 30; Zermat Skin SPF 50 Broad Spectrum; Zinc Stick; Zinka Clear Zinc Oxide Sunscreen; Zinka Lip Protector SPF 30 Lip Balm; Zinka SPF 30 Clear Sunscreen; Zinka SPF 50 Facestick; Zirh Defend Repairing SPF15 Moisturizer; Zitsticka Megashade Sunscreen Serum (SPF-50); Zo Skin Health Oclipse Daily Sheer Broad-spectrum Sunscreen SPF 50; Zoom Protective Lip Cream; aKwa Daystar Shade SPF 40; ageLOC Elements; ageLOC Transformation; b.tan Beach Please SPF 7; b.tan SPF is Your BFF SPF 30; b.tan Sun Safe AF Face SPF 70; b.tan Sun Safe AF SPF 50; b.tan Tropic Like Its Hot SPF 15; be Flat Daily Mild Flat Sun Block; belif The true cream aqua bomb sunscreen Broad Spectrum SPF 50; benefit BIG EASY BROAD SPECTRUM SPF 35 SUNSCREEN multi-balancing complexion perfector - 01 FAIR; benefit BIG EASY BROAD SPECTRUM SPF 35 SUNSCREEN multi-balancing complexion perfector - 02 LIGHT; benefit BIG EASY BROAD SPECTRUM SPF 35 SUNSCREEN multi-balancing complexion perfector - 03 LIGHTMEDIUM; benefit BIG EASY BROAD SPECTRUM SPF 35 SUNSCREEN multi-balancing complexion perfector - 04 MEDIUM; benefit BIG EASY BROAD SPECTRUM SPF 35 SUNSCREEN multi-balancing complexion perfector - 05 BEIGE; benefit BIG EASY BROAD SPECTRUM SPF 35 SUNSCREEN multi-balancing complexion perfector - 06 DEEP BEIGE; benefit DREAM SCREEN BROAD SPECTRUM SPF 45 SUNSCREEN FOR FACE; bioCorneum plus SPF 30 advanced SCAR SUPERVISION; bu SPF 30 Broad Spectrum Alcohol-Free Performance Sunscreen - Natural Citrus Scent; bu SPF 30 Broad Spectrum Alcohol-Free Performance Sunscreen - Natural White Sage Scent; bu SPF 30 Broad Spectrum on Alcohol-Free Performance Sunscreen - Fragrance Free; bu SPF 50 Broad Spectrum on Alcohol-Free Performance Sunscreen - Fragrance Free; bu SPF 50 KIDS Broad Spectrum Alcohol-Free Performance Sunscreen - Fragrance Free; bu SPF 50 S Broad Spectrum Alcohol-Free Performance Sunscreen - Natural White Sage Scent; by Selected Daily Broad Spectrum Sunscreen; callyssee Beauty Faceguard Skin Protecting Facial Balm; celazome Moisturizing SPF 29 Active with DNArescue; celazome Moisturizing SPF 30 Active; color correcting swirl foundation broad spectrum SPF 25 LIGHT; color correcting swirl foundation broad spectrum SPF 25 MEDIUM; color correcting swirl foundation broad spectrum SPF 25 TAN; coppertone Sunscreen Oil Free SFP 50; coppertone sport Sunscreen SPF 30; daily UV protection cream mild; do good Hydra Healing Color Corrector; do good Hydra Healing Tension Pact Light Beige; do good Hydra Healing Tension Pact Natural Beige; e.l.f Whoa Glow Broad Spectrum SPF30 Sunscreen; e.l.f. Holy Hydration Face Cream SPF 30 Sunscreen; emilia Naked Sun; emilia Naked Sun Body Gel SPF30; emilia Naked Sun SPF 50 Invisible Face Gel; enfuselle BODY SUNSCREEN BROAD SPECTRUM SPF 30; equate Age Guard Face Broad Spectrum SPF 110 Sunscreen; equate SPORT Sunscreen Broad Spectrum; gesgep ONE DROP PERFECTION HEALTHY; gesgep ONE DROP PERFECTION LIGHT; gesgep ONE DROP PERFECTION TRUE; glo SKIN BEAUTY Moisturizing Tint SPF 30; glo SKIN BEAUTY Oil Free SPF 40; glo Skin Beauty C-Shield Anti-Pollution Moisture Tint Broad Spectrum SPF 30; hello, sunshine moisturizer Broad Spectrum SPF 30 sunscreen; i Protect for HER SPF 15 ClearMist; i Protect for HER SPF 8 ClearMist; i Protect for HIM SPF 15 ClearMist; i Protect for HIM SPF 8 ClearMist; innisfree Daily UV Defense Sunscreen; innisfree Matte Priming UV Shield Sunscreen; intense UV protection cream; intense UV protection emulsion; it Radiant CC Sun Base; kids SPF 50plus sunscreen continuous; laura mercier Tinted Moisturizer Creme Compact Broad Spectrum SPF 20 Sunscreen ALMOND; laura mercier Tinted Moisturizer Creme Compact Broad Spectrum SPF 20 Sunscreen BISQUE; laura mercier Tinted Moisturizer Creme Compact Broad Spectrum SPF 20 Sunscreen BLUSH; laura mercier Tinted Moisturizer Creme Compact Broad Spectrum SPF 20 Sunscreen CARAMEL; laura mercier Tinted Moisturizer Creme Compact Broad Spectrum SPF 20 Sunscreen FAWN; laura mercier Tinted Moisturizer Creme Compact Broad Spectrum SPF 20 Sunscreen MOCHA; laura mercier Tinted Moisturizer Creme Compact Broad Spectrum SPF 20 Sunscreen NUDE; laura mercier Tinted Moisturizer Creme Compact Broad Spectrum SPF 20 Sunscreen PORCELAIN; laura mercier Tinted Moisturizer Creme Compact Broad Spectrum SPF 20 Sunscreen SAND; laura mercier Tinted Moisturizer Creme Compact Broad Spectrum SPF 20 Sunscreen TAN; laura mercier Tinted Moisturizer Creme Compact Broad Spectrum SPF 20 Sunscreen TAWNY; laura mercier Tinted Moisturizer Creme Compact Broad Spectrum SPF 20 Sunscreen WALNUT; laura mercier tinted moisturizer Broad Spectrum SPF 20 Sunscreen Lightweight Flawless Coverage CAMEO; laura mercier tinted moisturizer Broad Spectrum SPF 20 Sunscreen Lightweight Flawless Coverage NATURAL; laura mercier tinted moisturizer Broad Spectrum SPF 20 Sunscreen Lightweight Flawless Coverage OCHRE; magiX Illuminating Face Perfector; mark Glossworks Lip Gloss; mark Totally Balmed; mark. For Gooness Face Antioxidant Skin Moisturizing; mark. Get Defensive SPF 15 Eye; mark. Got to Glow Gradual Glow Body Moisturizer; mark. do the right thing Smoothing Body SPF 15; meijer Baby Tear Free SPF 50 CS; moisturising sunscreen SPF 30; nanocare Moisturizing Sunscreen SPF 50; napoleon PERDIS FOUNDATION BROAD SPECTRUM SPF 15 Look 1; napoleon PERDIS FOUNDATION BROAD SPECTRUM SPF 15 Look 2; perfect truth cc broad spectrum SPF 30 sunscreen Ole Henriksen; plantogen Protective Moisturizer Broad Spectrum SPF; recover skin boosting moisturizer broad spectrum SPF 15 Jafra gold dynamics; rootree Mobitherapy UV Sun Shield; shu uemura UV under base mousse SPF 30 sunscreen; skin MD; skin MD Natural; skin effects Brightening Day SPF 50; skin effects Firming Facial with Retinol Complex SPF 30; smashbox PHOTO FINISH SPF 15 FOUNDATION PRIMER; stila CC color correcting broad-spectrum SPF 20 01 FAIR; stila CC color correcting broad-spectrum SPF 20 02 LIGHT; stila CC color correcting broad-spectrum SPF 20 03 TONE; stila CC color correcting broad-spectrum SPF 20 04 MEDIUM; stila CC color correcting broad-spectrum SPF 20 05 RICH MEDIUM; stila CC color correcting broad-spectrum SPF 20 06 WARM; stila CC color correcting broad-spectrum SPF 20 07 DARK; stila CC color correcting broad-spectrum SPF 20 08 TAN; the Balm BalmShelter tinted moisturizer SPF 18 broad spectrum after dark; the Balm BalmShelter tinted moisturizer SPF 18 broad spectrum dark; the Balm BalmShelter tinted moisturizer SPF 18 broad spectrum lighter than light; the Balm BalmShelter tinted moisturizer SPF 18 broad spectrum medium dark; the SAEM Foundation 01 Light; the SAEM Foundation 02 Medium; the SAEM Foundation 03 Medium Deep; zermat Wake Up CC Moisturizing Facial with Color Sunscreen Broad Spectrum SPF 30; zermat skin Broad Spectrum Sunscreen SPF 30; Ãcran Solaire Fps 10; Ãmulsion Hydratante Antirides; Ãmulsion Hydratante Visage Fps 30

$$$$
