
  Mrv1718007201817132D          

  1  0  0  0  0  0            999 V2000
    0.0000    0.0000    0.0000 Ra  0  2  0  0  0  0  0  0  0  0  0  0
M  CHG  1   1   2
M  ISO  1   1 223
M  END
> <DATABASE_ID>
DB14571

> <DATABASE_NAME>
drugbank

> <SMILES>
[223Ra++]

> <INCHI_IDENTIFIER>
InChI=1S/Ra/q+2/i1-3

> <INCHI_KEY>
PZDJSXWIQXZUBJ-OIOBTWANSA-N

> <FORMULA>
Ra

> <MOLECULAR_WEIGHT>
223.0174

> <EXACT_MASS>
223.01739998

> <JCHEM_ACCEPTOR_COUNT>
0

> <JCHEM_ATOM_COUNT>
1

> <JCHEM_AVERAGE_POLARIZABILITY>
1.7784

> <JCHEM_BIOAVAILABILITY>
1

> <JCHEM_DONOR_COUNT>
0

> <JCHEM_FORMAL_CHARGE>
2

> <JCHEM_GHOSE_FILTER>
0

> <JCHEM_IUPAC>
(223Ra)radium(2+) ion

> <JCHEM_LOGP>
0.0

> <JCHEM_MDDR_LIKE_RULE>
0

> <JCHEM_NUMBER_OF_RINGS>
0

> <JCHEM_PHYSIOLOGICAL_CHARGE>
2

> <JCHEM_PKA>
3.55

> <JCHEM_PKA_STRONGEST_ACIDIC>
3.09

> <JCHEM_POLAR_SURFACE_AREA>
0.0

> <JCHEM_REFRACTIVITY>
0.0

> <JCHEM_ROTATABLE_BOND_COUNT>
0

> <JCHEM_RULE_OF_FIVE>
1

> <JCHEM_TRADITIONAL_IUPAC>
(223Ra)radium(2+) ion

> <JCHEM_VEBER_RULE>
1

> <DRUGBANK_ID>
DB14571

> <DRUG_GROUPS>
experimental

> <GENERIC_NAME>
Radium Ra-223 cation

> <SYNONYMS>
Radium-223 ion(2+); Radium, isotope of mass 223 (223Ra2+)

$$$$
