
  Mrv1909 11061921572D          

 15 16  0  0  0  0            999 V2000
    0.0000    0.0000    0.0000 C   0  0  0  0  0  0  0  0  0  0  0  0
    0.0000    0.8251    0.0000 N   0  0  0  0  0  0  0  0  0  0  0  0
    0.7145   -0.4125    0.0000 C   0  0  0  0  0  0  0  0  0  0  0  0
   -0.7145   -0.4125    0.0000 N   0  0  0  0  0  0  0  0  0  0  0  0
   -0.7145    1.2375    0.0000 C   0  0  0  0  0  0  0  0  0  0  0  0
    0.7145    1.2375    0.0000 C   0  0  0  0  0  0  0  0  0  0  0  0
    0.7145   -1.2375    0.0000 C   0  0  0  0  0  0  0  0  0  0  0  0
   -0.7145   -1.2375    0.0000 C   0  0  0  0  0  0  0  0  0  0  0  0
   -0.7145    2.0627    0.0000 C   0  0  0  0  0  0  0  0  0  0  0  0
    0.7145    2.0627    0.0000 C   0  0  0  0  0  0  0  0  0  0  0  0
    0.0000   -1.6501    0.0000 N   0  3  0  0  0  0  0  0  0  0  0  0
    1.4290   -1.6501    0.0000 N   0  0  0  0  0  0  0  0  0  0  0  0
   -1.4290   -1.6501    0.0000 N   0  0  0  0  0  0  0  0  0  0  0  0
    0.0000    2.4751    0.0000 C   0  0  0  0  0  0  0  0  0  0  0  0
    0.0000   -2.4752    0.0000 O   0  5  0  0  0  0  0  0  0  0  0  0
  1  2  1  0  0  0  0
  1  3  1  0  0  0  0
  1  4  2  0  0  0  0
  2  5  1  0  0  0  0
  2  6  1  0  0  0  0
  3  7  2  0  0  0  0
  4  8  1  0  0  0  0
  5  9  1  0  0  0  0
  6 10  1  0  0  0  0
  7 11  1  0  0  0  0
  7 12  1  0  0  0  0
  8 13  1  0  0  0  0
  9 14  1  0  0  0  0
  8 11  2  0  0  0  0
 10 14  1  0  0  0  0
 11 15  1  0  0  0  0
M  CHG  2  11   1  15  -1
M  END
> <DATABASE_ID>
DB00350

> <DATABASE_NAME>
drugbank

> <SMILES>
NC1=CC(=NC(N)=[N+]1[O-])N1CCCCC1

> <INCHI_IDENTIFIER>
InChI=1S/C9H15N5O/c10-7-6-8(12-9(11)14(7)15)13-4-2-1-3-5-13/h6H,1-5,10H2,(H2,11,12)

> <INCHI_KEY>
ZFMITUMMTDLWHR-UHFFFAOYSA-N

> <FORMULA>
C9H15N5O

> <MOLECULAR_WEIGHT>
209.2483

> <EXACT_MASS>
209.127660127

> <JCHEM_ACCEPTOR_COUNT>
5

> <JCHEM_ATOM_COUNT>
30

> <JCHEM_AVERAGE_POLARIZABILITY>
21.970499783264046

> <JCHEM_BIOAVAILABILITY>
1

> <JCHEM_DONOR_COUNT>
2

> <JCHEM_FORMAL_CHARGE>
0

> <JCHEM_GHOSE_FILTER>
1

> <JCHEM_IUPAC>
2,6-diamino-4-(piperidin-1-yl)pyrimidin-1-ium-1-olate

> <ALOGPS_LOGP>
1.24

> <JCHEM_LOGP>
0.0007928796666662741

> <ALOGPS_LOGS>
-1.02

> <JCHEM_MDDR_LIKE_RULE>
0

> <JCHEM_NUMBER_OF_RINGS>
2

> <JCHEM_PHYSIOLOGICAL_CHARGE>
0

> <JCHEM_PKA_STRONGEST_ACIDIC>
17.62017270789849

> <JCHEM_PKA_STRONGEST_BASIC>
1.6924657695460776

> <JCHEM_POLAR_SURFACE_AREA>
95.11

> <JCHEM_REFRACTIVITY>
60.4209

> <JCHEM_ROTATABLE_BOND_COUNT>
1

> <JCHEM_RULE_OF_FIVE>
1

> <ALOGPS_SOLUBILITY>
1.99e+01 g/l

> <JCHEM_TRADITIONAL_IUPAC>
3-carbamoyl-1-[(2R,3R,4S,5R)-5-[({[(2R,3S,4R,5R)-3,4-dihydroxy-5-{imidazo[2,1-f]purin-3-yl}oxolan-2-yl]methoxy(hydroxy)phosphoryl phosphonato}oxy)methyl]-3,4-dihydroxyoxolan-2-yl]-1lambda5-pyridin-1-ylium

> <JCHEM_VEBER_RULE>
0

> <DRUGBANK_ID>
DB00350

> <SECONDARY_ACCESSION_NUMBERS>
APRD00086; DB08225

> <DRUG_GROUPS>
approved; investigational

> <GENERIC_NAME>
Minoxidil

> <SYNONYMS>
2,4-Diamino-6-piperidinopyrimidine 3-oxide; 6-Piperidin-1-ylpyrimidine-2,4-diamine 3-oxide; Minossidile; Minoxidil; Minoxidilum

> <PRODUCTS>
5% Minoxidil Topical Solution; Apo-gain Liq 20mg/ml; Axelofein; Azelomax Forte; BOSLEY PROFESSIONAL STRENGTH HAIR REGROWTH TREATMENT Regular Strength For Men; BOSLEY PROFESSIONAL STRENGTH HAIR REGROWTH TREATMENT Regular Strength For Women; BUNEE Hair Growth Serum; Bakumokon 5% Minoxidil; Bakumokon 7% Minoxidil Sulfate; Barbiux balsamic tonic 5%; Basic Care Hair Regrowth; Basic Care Hair Regrowth Treatment; Berkley and Jensen Minoxidil; Betamethasone Dipropionate 0.05% / Minoxidil 5%; Betamethasone Dipropionate 0.05% / Minoxidil 5% / Niacinamide 2% / Pentoxifylline 0.5%; Betamethasone Diproprionate 0.05% / Minoxidil 7%; Bosley MD Extra Strength for Men; Bosley MD Regular Strength for Women; Capillus Hair Regrowth Treatment; CareOne Hair Regrowth Treatment Extra Strength; Careone Hair Regrowth Treatment; Cerafill Retaliate; Cerafill Retaliate Extra Strength For Men; Club Roots - Topical Solution Hair Regrowth Treatment; Core Values Minoxidil; Daniel Alain Extra Strength Hair Regrowth Treatment for Men; Daniel Alain Hair Regrowth Treatment for Women; Daylogic For Men; Dexamethasone Sodium Phosphate 0.1% / Finasteride 0.1% / Minoxidil 5%; Dexamethasone Sodium Phosphate 0.1% / Finasteride 0.1% / Minoxidil 5% / Tretinoin 0.025%; EXT Extreme Hair Therapy; EXT Hair Regrowth Treatment for Men 2%; EXT Hair Regrowth Treatment for Men 5%; EXT Hair Regrowth Treatment for Women; Elevate 5% Minoxidil Foam; Elevate 5% minoxidil hair liquid; Elevate 5% minoxidil liquid; Elevate Beard Growth Serum; Elevate Hair Growth Serum; Equaline Hair Regrowth Treatment For Women; Equaline Hair Regrowth Treatment for Men; Equaline Hair Regrowth Treatment for Women; Equaline hair regrowth treatment for men; Equate Hair Regrowth Treatment; Equate Hair Regrowth Treatment for Men; Equate Hair Regrowth Treatment for Women; Eternal Minoxidil; Finasteride 0.1% / Minoxidil 5%; Finasteride 0.1% / Minoxidil 7%; Finasteride 0.1% / Minoxidil 7% / Tretinoin 0.025%; Fluocinolone Acetonide 0.01% / Minoxidil 5% / Tretinoin 0.025%; Fluocinolone Acetonide 0.01% / Minoxidil 7% / Progesterone 0.1%; Follinique; GETTIK Hair Regrowth Treatment; GOOD GUY Mens Hair Regrowth Treatment; GROFULLY Mens Extra Strength Hair Regrowth Treatment; GROFULLY Womens Hair Regrowth Treatment; Gen-minoxidil Liq 2%; Good Neighbor Pharmacy Hair Regrowth Treatment for Men; Good Sense Hair Regrowth Treatment; Good Sense Hair Regrowth Treatment for Men; Good Sense Hair Regrowth Treatment for Women; Good Sense hair regrowth treatment for women; Gromedi 5x; Grow Girl; Hair Regrow; Hair Regrowth Formula; Hair Regrowth Treatment; Hair Regrowth Treatment Extra Strength for Men; Hair Regrowth Treatment for Men; Hair Regrowth Treatment for Men Extra Strength; Hair Regrowth Treatment for Women; Hair regrowth treatment; Hair regrowth treatment for men; Hairfx Hair Growth Foam; Hairgro; Harmon Face Values Minoxidil; Harmon Face Values Minoxidil Mens; Head and Shoulders Scalp X Minoxidil Hair Regrowth Treatment for Men; Head and Shoulders Scalp X Minoxidil Hair Regrowth Treatment for Women; Hers Hair Regrowth Treatment; Hers Minoxidil; Hims; Hims Hair Regrowth Treatment; Hims Minoxidil; Image Essentials Hair Regrowth Treatment; Image Essentials Hair Regrowth Treatment For Men; Jamp Minoxidil Solution; Just for Men Minoxidil; KERANIQUE For Women Hair Regrowth Treatment; Keeps; Keeps Minoxidil Topical; Keranique 2% Hair Regrowth Treatment for Women; Keranique Hair Regrowth Treatment for Women; Kerastase Densifique; Kirkland Signature Minoxidil; LamFun Hair Regrowth Treatment; Leader Hair Regrowth Treatment; Loesch Hair Regrowth Formula Unscented Topical Solution Extra-Strength for Men; Loesch Hair Regrowth Formula Unscented Topical Solution Regular-Strength for Men and Women; Loniten; Loniten 10mg; Loniten 2.5mg; MDhair Extra Strength hair regrowth treatment for Men; MDhair hair regrowth treatment for women; MENS alopexy; MINOXIDIL 7% / NIACINAMIDE 4% s; Members Mark Hair Regrowth Treatment; Members Mark Minoxidil; Men's Rogaine; Men's Rogaine Foam 5%; Mens ComBack HAIR REGROWTH TREATMENT EXTRA STRENGTH UNSCENTED; Mens Hair Regrowth Treatment extra strength; Mens Intelligent Hair Regrowth Treatment; Mens Kirkland Extra Strength; Mens Minoxidil Hair Growth System; Mens Rogaine Extra Strength; Mens Rogaine Extra Strength Unscented; Mens SPECTRAL UHP EXTRA STRENGTH HAIR REGROWTH TREATMENT; Mens pura dor Hair Loss MD; Mens rogaine Minoxidil - Unscented Formula; Mens rogaine Unscented Formula; Minox; Minoxidil; Minoxidil (For Men); Minoxidil (For Women); Minoxidil (for Men); Minoxidil (for Women); Minoxidil 5 Percent (For Women); Minoxidil 5% (For Men); Minoxidil 5% / Progesterone 0.1% / Tretinoin 0.025%; Minoxidil 7% / Progesterone 0.1%; Minoxidil 7% / Progesterone 0.1% / Tretinoin 0.025%; Minoxidil 7% / Tretinoin 0.025%; Minoxidil Extra Strength for Men; Minoxidil Foam; Minoxidil For Men extra strength; Minoxidil For Women; Minoxidil Regular Strength for Men; Minoxidil Solution; Minoxidil Topical; Minoxidil for Men; Minoxidil for Women; Minoxidil regular strength; Minoxigaine; Minoxigaine Topical Solution - 2%; Myhair Hair Regrowth Treatment; Navi Hair Solutions Mens Hair Regrowth Treatment; Navi Hair Solutions Womens Hair Regrowth Treatment; Nioxin Hair Regrowth Kit For Women; Nioxin Hair Regrowth Kit for Men; Nioxin Hair Regrowth Treatment Extra Strength for Men; Nioxin Hair Regrowth Treatment For Women; Nioxin Hair Regrowth Treatment for Men; Nioxin Hair Regrowth Treatment for Women; Nutrastim Hair Regrowth Treatment For Women; Nutrastim Hair Regrowth Treatment Unscented For Men; Pantene Pro-V Expert Collection Hair Regrowth Treatment for Women; Peak Body Mens Hair Regrowth Treatment; Provillus; Qilib Hair Regrowth Treatment for Men; Qilib Hair Regrowth Treatment for Women; RIZE Hair Regrowth Treatment for Men 5%; Re-Gro; Regen; Regenpure Precision; Regoxidine; Regoxidine (For Men); Regoxidine (For Women); Renewal for Men; Rootly Extra Strength Hair Regrowth Treatment for Men; Rootly Hair Regrowth Treatment for Women; Roots Professional - Topical Solution Hair Regrowth Treatment; Rory for Women Hair Regrowth Treatment; ScalpMED for Men - VITADIL-5A Hair Regrowth Treatment; ScalpMED for Women - Vitadil-2A Hair Regrowth Treatment 2%; Shapiro MD 5% Minoxidil Hair Regrowth Treatment for Men; Shapriero 2% Hair Regrowth Treatment for Women; Signature Care Hair Regrowth Treatment; Signature Care Hair Regrowth Treatment for Women; Signature Care Hair Regrowth Treatment for men; Simply Right Minoxidil; Simply Right Minoxidil Extra Strength; Smart Sense Hair Regrowth; Smart Sense Hair Regrowth Treatment; Solution; Thappink Hair Growth Serum; Thick Head Hair Regrowth Treatment for Men; Toppik Mens Hair Regrowth Treatment Extra Strength; Toppik Womens Hair Regrowth Treatment; Up and Up Hair Regrowth Treatment for Men; Up and Up Hair Regrowth Treatment for Women; Up and Up Minoxidil; Up and Up minoxidil; Vanarex Hair Regrowth Treatment; Vitadil-2A; Vitadil-5A; WOMENS alopexy; Women's Rogaine Foam 5%; Womens Minoxidil Hair Growth System; Womens Rogaine - Unscented; Womens Rogaine Unscented; bourn Hair Regrowth Treatment for Men; kirkland signature Minoxidil; uElixir Hair Growth Serum

> <INTERNATIONAL_BRANDS>
Alostil; Apo-Gain; Avogain; Lipogaine; Lonolox; Minodyl; Minoximen; Mintop; Normoxidil; Regaine; Rogaine; Theroxidil; Tricoxidil; Vanarex

> <SALTS>
Minoxidil sulfate

$$$$
