
  Mrv1652310201622592D          

 31 34  0  0  0  0            999 V2000
    0.0000    0.0000    0.0000 C   0  0  0  0  0  0  0  0  0  0  0  0
    0.7145   -0.4125    0.0000 C   0  0  0  0  0  0  0  0  0  0  0  0
    1.4289    0.0000    0.0000 N   0  0  0  0  0  0  0  0  0  0  0  0
    2.1434   -0.4125    0.0000 C   0  0  0  0  0  0  0  0  0  0  0  0
    2.8579    0.0000    0.0000 C   0  0  0  0  0  0  0  0  0  0  0  0
    3.5724   -0.4125    0.0000 C   0  0  0  0  0  0  0  0  0  0  0  0
    3.5724   -1.2375    0.0000 C   0  0  0  0  0  0  0  0  0  0  0  0
    2.8579   -1.6500    0.0000 C   0  0  0  0  0  0  0  0  0  0  0  0
    2.1434   -1.2375    0.0000 C   0  0  0  0  0  0  0  0  0  0  0  0
    1.4289   -1.6500    0.0000 C   0  0  0  0  0  0  0  0  0  0  0  0
    1.4289   -2.4750    0.0000 O   0  0  0  0  0  0  0  0  0  0  0  0
    0.7145   -1.2375    0.0000 N   0  0  0  0  0  0  0  0  0  0  0  0
    0.0000   -1.6500    0.0000 C   0  0  0  0  0  0  0  0  0  0  0  0
    0.0000   -2.4750    0.0000 C   0  0  0  0  0  0  0  0  0  0  0  0
   -0.7145   -2.8875    0.0000 C   0  0  0  0  0  0  0  0  0  0  0  0
   -1.4289   -2.4750    0.0000 C   0  0  0  0  0  0  0  0  0  0  0  0
   -1.4289   -1.6500    0.0000 C   0  0  0  0  0  0  0  0  0  0  0  0
   -0.7145   -1.2375    0.0000 C   0  0  0  0  0  0  0  0  0  0  0  0
   -2.1434   -2.8875    0.0000 O   0  0  0  0  0  0  0  0  0  0  0  0
   -2.1434   -3.7125    0.0000 C   0  0  0  0  0  0  0  0  0  0  0  0
   -2.8579   -4.1250    0.0000 C   0  0  0  0  0  0  0  0  0  0  0  0
   -2.8579   -4.9500    0.0000 C   0  0  0  0  0  0  0  0  0  0  0  0
   -3.5724   -5.3625    0.0000 N   0  0  0  0  0  0  0  0  0  0  0  0
   -3.6586   -6.1830    0.0000 C   0  0  0  0  0  0  0  0  0  0  0  0
   -4.4656   -6.3545    0.0000 C   0  0  0  0  0  0  0  0  0  0  0  0
   -4.8781   -5.6400    0.0000 C   0  0  0  0  0  0  0  0  0  0  0  0
   -4.3260   -5.0269    0.0000 C   0  0  0  0  0  0  0  0  0  0  0  0
    2.8579   -2.4750    0.0000 C   0  0  0  0  0  0  0  0  0  0  0  0
    2.8579   -3.3000    0.0000 F   0  0  0  0  0  0  0  0  0  0  0  0
    2.0329   -2.4750    0.0000 F   0  0  0  0  0  0  0  0  0  0  0  0
    3.6829   -2.4750    0.0000 F   0  0  0  0  0  0  0  0  0  0  0  0
  1  2  1  0  0  0  0
  2  3  2  0  0  0  0
  3  4  1  0  0  0  0
  4  5  2  0  0  0  0
  5  6  1  0  0  0  0
  6  7  2  0  0  0  0
  7  8  1  0  0  0  0
  8  9  2  0  0  0  0
  4  9  1  0  0  0  0
  9 10  1  0  0  0  0
 10 11  2  0  0  0  0
 10 12  1  0  0  0  0
  2 12  1  0  0  0  0
 12 13  1  0  0  0  0
 13 14  2  0  0  0  0
 14 15  1  0  0  0  0
 15 16  2  0  0  0  0
 16 17  1  0  0  0  0
 17 18  2  0  0  0  0
 13 18  1  0  0  0  0
 16 19  1  0  0  0  0
 19 20  1  0  0  0  0
 20 21  1  0  0  0  0
 21 22  1  0  0  0  0
 22 23  1  0  0  0  0
 23 24  1  0  0  0  0
 24 25  1  0  0  0  0
 25 26  1  0  0  0  0
 26 27  1  0  0  0  0
 23 27  1  0  0  0  0
  8 28  1  0  0  0  0
 28 29  1  0  0  0  0
 28 30  1  0  0  0  0
 28 31  1  0  0  0  0
M  END
> <DATABASE_ID>
DB11910

> <DATABASE_NAME>
drugbank

> <SMILES>
CC1=NC2=CC=CC(=C2C(=O)N1C1=CC=C(OCCCN2CCCC2)C=C1)C(F)(F)F

> <INCHI_IDENTIFIER>
InChI=1S/C23H24F3N3O2/c1-16-27-20-7-4-6-19(23(24,25)26)21(20)22(30)29(16)17-8-10-18(11-9-17)31-15-5-14-28-12-2-3-13-28/h4,6-11H,2-3,5,12-15H2,1H3

> <INCHI_KEY>
DDDZBLNULGDPGA-UHFFFAOYSA-N

> <FORMULA>
C23H24F3N3O2

> <MOLECULAR_WEIGHT>
431.459

> <EXACT_MASS>
431.182061514

> <JCHEM_ACCEPTOR_COUNT>
4

> <JCHEM_ATOM_COUNT>
55

> <JCHEM_AVERAGE_POLARIZABILITY>
44.04150400782153

> <JCHEM_BIOAVAILABILITY>
1

> <JCHEM_DONOR_COUNT>
0

> <JCHEM_FORMAL_CHARGE>
0

> <JCHEM_GHOSE_FILTER>
1

> <JCHEM_IUPAC>
2-methyl-3-{4-[3-(pyrrolidin-1-yl)propoxy]phenyl}-5-(trifluoromethyl)-3,4-dihydroquinazolin-4-one

> <ALOGPS_LOGP>
4.31

> <JCHEM_LOGP>
3.8596539596666677

> <ALOGPS_LOGS>
-5.14

> <JCHEM_MDDR_LIKE_RULE>
1

> <JCHEM_NUMBER_OF_RINGS>
4

> <JCHEM_PHYSIOLOGICAL_CHARGE>
1

> <JCHEM_PKA_STRONGEST_BASIC>
9.373819778950349

> <JCHEM_POLAR_SURFACE_AREA>
45.14000000000001

> <JCHEM_REFRACTIVITY>
114.9266

> <JCHEM_ROTATABLE_BOND_COUNT>
7

> <JCHEM_RULE_OF_FIVE>
1

> <ALOGPS_SOLUBILITY>
3.12e-03 g/l

> <JCHEM_TRADITIONAL_IUPAC>
2-methyl-3-{4-[3-(pyrrolidin-1-yl)propoxy]phenyl}-5-(trifluoromethyl)quinazolin-4-one

> <JCHEM_VEBER_RULE>
0

> <DRUGBANK_ID>
DB11910

> <DRUG_GROUPS>
investigational

> <GENERIC_NAME>
MK-0249

$$$$
