
  Mrv1652310201623132D          

 13 13  0  0  1  0            999 V2000
   -0.3297   -0.8227    0.0000 C   0  0  0  0  0  0  0  0  0  0  0  0
    0.1553   -0.1553    0.0000 C   0  0  1  0  0  0  0  0  0  0  0  0
   -0.0997    0.6294    0.0000 C   0  0  0  0  0  0  0  0  0  0  0  0
    0.5678    1.1143    0.0000 C   0  0  0  0  0  0  0  0  0  0  0  0
    1.2352    0.6294    0.0000 C   0  0  0  0  0  0  0  0  0  0  0  0
    0.9803   -0.1553    0.0000 C   0  0  2  0  0  0  0  0  0  0  0  0
    1.4652   -0.8227    0.0000 C   0  0  0  0  0  0  0  0  0  0  0  0
    0.1628    1.8330    0.0000 C   0  0  0  0  0  0  0  0  0  0  0  0
    0.5827    2.5432    0.0000 C   0  0  0  0  0  0  0  0  0  0  0  0
    0.1777    3.2619    0.0000 O   0  0  0  0  0  0  0  0  0  0  0  0
    1.4077    2.5345    0.0000 O   0  0  0  0  0  0  0  0  0  0  0  0
    0.9728    1.8330    0.0000 C   0  0  0  0  0  0  0  0  0  0  0  0
    1.7977    1.8417    0.0000 N   0  0  0  0  0  0  0  0  0  0  0  0
  2  1  1  1  0  0  0
  2  3  1  0  0  0  0
  3  4  1  0  0  0  0
  4  5  1  0  0  0  0
  5  6  1  0  0  0  0
  2  6  1  0  0  0  0
  6  7  1  6  0  0  0
  4  8  1  0  0  0  0
  8  9  1  0  0  0  0
  9 10  2  0  0  0  0
  9 11  1  0  0  0  0
  4 12  1  0  0  0  0
 12 13  1  0  0  0  0
M  END
> <DATABASE_ID>
DB12032

> <DATABASE_NAME>
drugbank

> <SMILES>
C[C@H]1CC(CN)(CC(O)=O)C[C@@H]1C

> <INCHI_IDENTIFIER>
InChI=1S/C10H19NO2/c1-7-3-10(6-11,4-8(7)2)5-9(12)13/h7-8H,3-6,11H2,1-2H3,(H,12,13)/t7-,8-/m0/s1

> <INCHI_KEY>
IUVMAUQEZFTTFB-YUMQZZPRSA-N

> <FORMULA>
C10H19NO2

> <MOLECULAR_WEIGHT>
185.267

> <EXACT_MASS>
185.141578856

> <JCHEM_ACCEPTOR_COUNT>
3

> <JCHEM_ATOM_COUNT>
32

> <JCHEM_AVERAGE_POLARIZABILITY>
21.02350736182466

> <JCHEM_BIOAVAILABILITY>
1

> <JCHEM_DONOR_COUNT>
2

> <JCHEM_FORMAL_CHARGE>
0

> <JCHEM_GHOSE_FILTER>
0

> <JCHEM_IUPAC>
2-[(3S,4S)-1-(aminomethyl)-3,4-dimethylcyclopentyl]acetic acid

> <ALOGPS_LOGP>
-1.45

> <JCHEM_LOGP>
-1.1436940119389487

> <ALOGPS_LOGS>
-1.53

> <JCHEM_MDDR_LIKE_RULE>
0

> <JCHEM_NUMBER_OF_RINGS>
1

> <JCHEM_PHYSIOLOGICAL_CHARGE>
0

> <JCHEM_PKA_STRONGEST_ACIDIC>
4.6801048373154925

> <JCHEM_PKA_STRONGEST_BASIC>
9.913983356915917

> <JCHEM_POLAR_SURFACE_AREA>
63.31999999999999

> <JCHEM_REFRACTIVITY>
50.8245

> <JCHEM_ROTATABLE_BOND_COUNT>
3

> <JCHEM_RULE_OF_FIVE>
1

> <ALOGPS_SOLUBILITY>
5.46e+00 g/l

> <JCHEM_TRADITIONAL_IUPAC>
atagabalin

> <JCHEM_VEBER_RULE>
0

> <DRUGBANK_ID>
DB12032

> <DRUG_GROUPS>
investigational

> <GENERIC_NAME>
Atagabalin

> <SYNONYMS>
Atagabalin

$$$$
