
  Mrv1909 01172004072D          

 15 15  0  0  0  0            999 V2000
   -0.7535    0.3964    0.0000 N   0  0  0  0  0  0  0  0  0  0  0  0
   -0.0860    0.8813    0.0000 C   0  0  0  0  0  0  0  0  0  0  0  0
   -1.4209    0.8813    0.0000 C   0  0  0  0  0  0  0  0  0  0  0  0
   -0.7535   -0.4285    0.0000 C   0  0  0  0  0  0  0  0  0  0  0  0
   -0.3410    1.6659    0.0000 C   0  0  0  0  0  0  0  0  0  0  0  0
   -1.1660    1.6659    0.0000 N   0  0  0  0  0  0  0  0  0  0  0  0
   -0.0391   -0.8410    0.0000 C   0  0  0  0  0  0  0  0  0  0  0  0
    0.6753   -0.4285    0.0000 N   0  0  0  0  0  0  0  0  0  0  0  0
    1.3897   -0.8410    0.0000 C   0  0  0  0  0  0  0  0  0  0  0  0
   -0.0391   -1.6659    0.0000 O   0  0  0  0  0  0  0  0  0  0  0  0
    2.1042   -0.4285    0.0000 C   0  0  0  0  0  0  0  0  0  0  0  0
    2.8186   -0.8410    0.0000 O   0  0  0  0  0  0  0  0  0  0  0  0
   -2.2055    0.6264    0.0000 N   0  3  0  0  0  0  0  0  0  0  0  0
   -2.3770   -0.1805    0.0000 O   0  5  0  0  0  0  0  0  0  0  0  0
   -2.8186    1.1784    0.0000 O   0  0  0  0  0  0  0  0  0  0  0  0
  3  6  2  0  0  0  0
  4  7  1  0  0  0  0
  5  6  1  0  0  0  0
  7  8  1  0  0  0  0
  1  2  1  0  0  0  0
  8  9  1  0  0  0  0
  1  3  1  0  0  0  0
  1  4  1  0  0  0  0
  2  5  2  0  0  0  0
  7 10  2  0  0  0  0
  9 11  1  0  0  0  0
 11 12  1  0  0  0  0
 14 13  1  0  0  0  0
 15 13  2  0  0  0  0
  3 13  1  0  0  0  0
M  CHG  2  13   1  14  -1
M  END
> <DATABASE_ID>
DB12736

> <DATABASE_NAME>
drugbank

> <SMILES>
OCCNC(=O)CN1C=CN=C1[N+]([O-])=O

> <INCHI_IDENTIFIER>
InChI=1S/C7H10N4O4/c12-4-2-8-6(13)5-10-3-1-9-7(10)11(14)15/h1,3,12H,2,4-5H2,(H,8,13)

> <INCHI_KEY>
WCDWBPCFGJXFJZ-UHFFFAOYSA-N

> <FORMULA>
C7H10N4O4

> <MOLECULAR_WEIGHT>
214.181

> <EXACT_MASS>
214.070204818

> <JCHEM_ACCEPTOR_COUNT>
5

> <JCHEM_ATOM_COUNT>
25

> <JCHEM_AVERAGE_NEUTRAL_MICROSPECIES_CHARGE>
1.0274234556865102e-07

> <JCHEM_AVERAGE_POLARIZABILITY>
19.044989457418584

> <JCHEM_BIOAVAILABILITY>
1

> <JCHEM_DONOR_COUNT>
2

> <JCHEM_FORMAL_CHARGE>
0

> <JCHEM_GHOSE_FILTER>
0

> <JCHEM_IUPAC>
N-(2-hydroxyethyl)-2-(2-nitro-1H-imidazol-1-yl)acetamide

> <ALOGPS_LOGP>
-1.39

> <JCHEM_LOGP>
-1.0926991986666668

> <ALOGPS_LOGS>
-1.49

> <JCHEM_MDDR_LIKE_RULE>
0

> <JCHEM_NEUTRAL_CHARGE>
0

> <JCHEM_NUMBER_OF_RINGS>
1

> <JCHEM_PHYSIOLOGICAL_CHARGE>
0

> <JCHEM_PKA>
15.562783072747145

> <JCHEM_PKA_STRONGEST_ACIDIC>
14.277379124606558

> <JCHEM_PKA_STRONGEST_BASIC>
0.19863603995580031

> <JCHEM_POLAR_SURFACE_AREA>
110.29000000000002

> <JCHEM_REFRACTIVITY>
48.7991

> <JCHEM_ROTATABLE_BOND_COUNT>
5

> <JCHEM_RULE_OF_FIVE>
1

> <ALOGPS_SOLUBILITY>
6.90e+00 g/l

> <JCHEM_TRADITIONAL_IUPAC>
bromopride

> <JCHEM_VEBER_RULE>
0

> <DRUGBANK_ID>
DB12736

> <DRUG_GROUPS>
investigational

> <GENERIC_NAME>
Etanidazole

> <SYNONYMS>
Etanidazol; Etanidazole; Etanidazolum

> <INTERNATIONAL_BRANDS>
Radinyl

$$$$
