
  Mrv1718006141815582D          

 33 34  0  0  0  0            999 V2000
    0.0001    1.3616    0.0000 C   0  0  2  0  0  0  0  0  0  0  0  0
   -0.7076    0.9493    0.0000 C   0  0  0  0  0  0  0  0  0  0  0  0
    0.7146    0.9528    0.0000 C   0  0  0  0  0  0  0  0  0  0  0  0
   -1.4222    1.3617    0.0000 C   0  0  0  0  0  0  0  0  0  0  0  0
   -0.7076    0.1248    0.0000 C   0  0  0  0  0  0  0  0  0  0  0  0
    1.4293    1.3651    0.0000 C   0  0  0  0  0  0  0  0  0  0  0  0
   -2.1368    0.9493    0.0000 C   0  0  0  0  0  0  0  0  0  0  0  0
   -1.4222   -0.2908    0.0000 C   0  0  0  0  0  0  0  0  0  0  0  0
    2.1407    0.9597    0.0000 C   0  0  0  0  0  0  0  0  0  0  0  0
   -2.1368    0.1249    0.0000 C   0  0  0  0  0  0  0  0  0  0  0  0
   -2.8548    1.3617    0.0000 O   0  0  0  0  0  0  0  0  0  0  0  0
    2.8552    1.3686    0.0000 N   0  0  0  0  0  0  0  0  0  0  0  0
   -2.8548   -0.2908    0.0000 O   0  0  0  0  0  0  0  0  0  0  0  0
   -3.5695    0.9493    0.0000 C   0  0  0  0  0  0  0  0  0  0  0  0
    3.5695    0.9635    0.0000 C   0  0  0  0  0  0  0  0  0  0  0  0
    2.8552    2.2241    0.0000 C   0  0  0  0  0  0  0  0  0  0  0  0
   -3.5695    0.1215    0.0000 C   0  0  0  0  0  0  0  0  0  0  0  0
    3.5627    0.1403    0.0000 C   0  0  0  0  0  0  0  0  0  0  0  0
    2.8556   -0.2665    0.0000 C   0  0  0  0  0  0  0  0  0  0  0  0
    2.8515   -1.0916    0.0000 C   0  0  0  0  0  0  0  0  0  0  0  0
    2.1448    0.1442    0.0000 C   0  0  0  0  0  0  0  0  0  0  0  0
    2.1397   -1.4997    0.0000 C   0  0  0  0  0  0  0  0  0  0  0  0
    1.4284   -0.2650    0.0000 C   0  0  0  0  0  0  0  0  0  0  0  0
    1.4289   -1.0888    0.0000 C   0  0  0  0  0  0  0  0  0  0  0  0
    2.1387   -2.3265    0.0000 O   0  0  0  0  0  0  0  0  0  0  0  0
    0.7108   -1.5011    0.0000 O   0  0  0  0  0  0  0  0  0  0  0  0
    1.4235   -2.7405    0.0000 C   0  0  0  0  0  0  0  0  0  0  0  0
   -0.0086   -1.0842    0.0000 C   0  0  0  0  0  0  0  0  0  0  0  0
    0.5812    1.9475    0.0000 C   0  0  0  0  0  0  0  0  0  0  0  0
   -0.5855    1.9428    0.0000 C   0  0  0  0  0  0  0  0  0  0  0  0
   -1.3816    1.7262    0.0000 C   0  0  0  0  0  0  0  0  0  0  0  0
   -0.3751    2.7405    0.0000 C   0  0  0  0  0  0  0  0  0  0  0  0
    1.1642    2.5385    0.0000 N   0  0  0  0  0  0  0  0  0  0  0  0
  1  2  1  0  0  0  0
  1  3  1  0  0  0  0
  2  4  2  0  0  0  0
  2  5  1  0  0  0  0
  3  6  1  0  0  0  0
  4  7  1  0  0  0  0
  5  8  2  0  0  0  0
  6  9  1  0  0  0  0
  7 10  2  0  0  0  0
  7 11  1  0  0  0  0
  9 12  1  0  0  0  0
 10 13  1  0  0  0  0
 11 14  1  0  0  0  0
 12 15  1  0  0  0  0
 12 16  1  0  0  0  0
 13 17  1  0  0  0  0
 15 18  1  0  0  0  0
 18 19  1  0  0  0  0
 19 20  1  0  0  0  0
 19 21  2  0  0  0  0
 20 22  2  0  0  0  0
 21 23  1  0  0  0  0
 22 24  1  0  0  0  0
 22 25  1  0  0  0  0
 24 26  1  0  0  0  0
 25 27  1  0  0  0  0
  8 10  1  0  0  0  0
 23 24  2  0  0  0  0
 26 28  1  0  0  0  0
  1 29  1  1  0  0  0
 30  1  1  0  0  0  0
 30 31  1  0  0  0  0
 30 32  1  0  0  0  0
 29 33  3  0  0  0  0
M  END
> <DATABASE_ID>
DB14063

> <DATABASE_NAME>
drugbank

> <SMILES>
COC1=CC=C(CCN(C)CCC[C@@](C#N)(C(C)C)C2=CC(OC)=C(OC)C=C2)C=C1OC

> <INCHI_IDENTIFIER>
InChI=1S/C27H38N2O4/c1-20(2)27(19-28,22-10-12-24(31-5)26(18-22)33-7)14-8-15-29(3)16-13-21-9-11-23(30-4)25(17-21)32-6/h9-12,17-18,20H,8,13-16H2,1-7H3/t27-/m1/s1

> <INCHI_KEY>
SGTNSNPWRIOYBX-HHHXNRCGSA-N

> <FORMULA>
C27H38N2O4

> <MOLECULAR_WEIGHT>
454.611

> <EXACT_MASS>
454.283157712

> <JCHEM_ACCEPTOR_COUNT>
6

> <JCHEM_ATOM_COUNT>
71

> <JCHEM_AVERAGE_POLARIZABILITY>
51.61478028372924

> <JCHEM_BIOAVAILABILITY>
0

> <JCHEM_DONOR_COUNT>
0

> <JCHEM_FORMAL_CHARGE>
0

> <JCHEM_GHOSE_FILTER>
0

> <JCHEM_IUPAC>
(2R)-2-(3,4-dimethoxyphenyl)-5-{[2-(3,4-dimethoxyphenyl)ethyl](methyl)amino}-2-(propan-2-yl)pentanenitrile

> <ALOGPS_LOGP>
5.23

> <JCHEM_LOGP>
5.043185821000002

> <ALOGPS_LOGS>
-5.06

> <JCHEM_MDDR_LIKE_RULE>
0

> <JCHEM_NUMBER_OF_RINGS>
2

> <JCHEM_PHYSIOLOGICAL_CHARGE>
1

> <JCHEM_PKA_STRONGEST_BASIC>
9.67844357225492

> <JCHEM_POLAR_SURFACE_AREA>
63.95

> <JCHEM_REFRACTIVITY>
132.64789999999996

> <JCHEM_ROTATABLE_BOND_COUNT>
13

> <JCHEM_RULE_OF_FIVE>
0

> <ALOGPS_SOLUBILITY>
3.94e-03 g/l

> <JCHEM_TRADITIONAL_IUPAC>
verapamilo [inn-spanish]

> <JCHEM_VEBER_RULE>
0

> <DRUGBANK_ID>
DB14063

> <DRUG_GROUPS>
experimental

> <GENERIC_NAME>
Dexverapamil

> <SYNONYMS>
(+)-(R)-verapamil; (+)-verapamil; (R)-(+)-verapamil; (R)-verapamil; Dexverapamil; DexvÃ©rapamil; Dexverapamilo; Dexverapamilum

$$$$
