
  Mrv1909 11242217122D          

 30 33  0  0  0  0            999 V2000
    2.1434   -7.8375    0.0000 F   0  0  0  0  0  0  0  0  0  0  0  0
    2.1434   -8.6625    0.0000 C   0  0  0  0  0  0  0  0  0  0  0  0
    2.8579   -9.0750    0.0000 C   0  0  0  0  0  0  0  0  0  0  0  0
    2.8579   -9.9000    0.0000 C   0  0  0  0  0  0  0  0  0  0  0  0
    2.1434  -10.3125    0.0000 C   0  0  0  0  0  0  0  0  0  0  0  0
    1.4289   -9.9000    0.0000 C   0  0  0  0  0  0  0  0  0  0  0  0
    0.7145  -10.3125    0.0000 C   0  0  0  0  0  0  0  0  0  0  0  0
    0.7145  -11.1375    0.0000 N   0  0  0  0  0  0  0  0  0  0  0  0
    0.0000  -11.5500    0.0000 C   0  0  0  0  0  0  0  0  0  0  0  0
   -0.7145  -11.1375    0.0000 O   0  0  0  0  0  0  0  0  0  0  0  0
    0.0000  -12.3750    0.0000 C   0  0  0  0  0  0  0  0  0  0  0  0
   -0.7145  -12.7875    0.0000 C   0  0  0  0  0  0  0  0  0  0  0  0
   -0.7145  -13.6125    0.0000 N   0  0  0  0  0  0  0  0  0  0  0  0
   -1.4289  -14.0250    0.0000 C   0  0  0  0  0  0  0  0  0  0  0  0
   -2.1434  -13.6125    0.0000 C   0  0  0  0  0  0  0  0  0  0  0  0
   -2.1434  -12.7875    0.0000 C   0  0  0  0  0  0  0  0  0  0  0  0
   -1.4289  -12.3750    0.0000 C   0  0  0  0  0  0  0  0  0  0  0  0
   -2.8579  -14.0250    0.0000 C   0  0  0  0  0  0  0  0  0  0  0  0
   -2.8579  -14.8500    0.0000 C   0  0  0  0  0  0  0  0  0  0  0  0
   -3.5724  -15.2625    0.0000 C   0  0  0  0  0  0  0  0  0  0  0  0
   -4.2868  -14.8500    0.0000 C   0  0  0  0  0  0  0  0  0  0  0  0
   -4.2868  -14.0250    0.0000 C   0  0  0  0  0  0  0  0  0  0  0  0
   -3.5724  -13.6125    0.0000 C   0  0  0  0  0  0  0  0  0  0  0  0
   -5.0013  -15.2625    0.0000 N   0  0  0  0  0  0  0  0  0  0  0  0
   -5.0013  -16.0875    0.0000 C   0  0  0  0  0  0  0  0  0  0  0  0
   -5.7158  -16.5000    0.0000 C   0  0  0  0  0  0  0  0  0  0  0  0
   -6.4302  -16.0875    0.0000 O   0  0  0  0  0  0  0  0  0  0  0  0
   -6.4302  -15.2625    0.0000 C   0  0  0  0  0  0  0  0  0  0  0  0
   -5.7158  -14.8500    0.0000 C   0  0  0  0  0  0  0  0  0  0  0  0
    1.4289   -9.0750    0.0000 C   0  0  0  0  0  0  0  0  0  0  0  0
  1  2  1  0  0  0  0
  2  3  2  0  0  0  0
  3  4  1  0  0  0  0
  4  5  2  0  0  0  0
  5  6  1  0  0  0  0
  6  7  1  0  0  0  0
  7  8  1  0  0  0  0
  8  9  1  0  0  0  0
  9 10  2  0  0  0  0
  9 11  1  0  0  0  0
 11 12  1  0  0  0  0
 12 13  2  0  0  0  0
 13 14  1  0  0  0  0
 14 15  2  0  0  0  0
 15 16  1  0  0  0  0
 16 17  2  0  0  0  0
 12 17  1  0  0  0  0
 15 18  1  0  0  0  0
 18 19  2  0  0  0  0
 19 20  1  0  0  0  0
 20 21  2  0  0  0  0
 21 22  1  0  0  0  0
 22 23  2  0  0  0  0
 18 23  1  0  0  0  0
 21 24  1  0  0  0  0
 24 25  1  0  0  0  0
 25 26  1  0  0  0  0
 26 27  1  0  0  0  0
 27 28  1  0  0  0  0
 28 29  1  0  0  0  0
 24 29  1  0  0  0  0
  6 30  2  0  0  0  0
  2 30  1  0  0  0  0
M  END
> <DATABASE_ID>
DB17180

> <DATABASE_NAME>
drugbank

> <SMILES>
FC1=CC=CC(CNC(=O)CC2=NC=C(C=C2)C2=CC=C(C=C2)N2CCOCC2)=C1

> <INCHI_IDENTIFIER>
InChI=1S/C24H24FN3O2/c25-21-3-1-2-18(14-21)16-27-24(29)15-22-7-4-20(17-26-22)19-5-8-23(9-6-19)28-10-12-30-13-11-28/h1-9,14,17H,10-13,15-16H2,(H,27,29)

> <INCHI_KEY>
CMKKPJNMYLOUCE-UHFFFAOYSA-N

> <FORMULA>
C24H24FN3O2

> <MOLECULAR_WEIGHT>
405.473

> <EXACT_MASS>
405.185255188

> <JCHEM_ACCEPTOR_COUNT>
4

> <JCHEM_ATOM_COUNT>
54

> <JCHEM_AVERAGE_NEUTRAL_MICROSPECIES_CHARGE>
0.0009260466063376622

> <JCHEM_AVERAGE_POLARIZABILITY>
43.48866686270824

> <JCHEM_BIOAVAILABILITY>
1

> <JCHEM_DONOR_COUNT>
1

> <JCHEM_FORMAL_CHARGE>
0

> <JCHEM_GHOSE_FILTER>
1

> <JCHEM_IUPAC>
N-[(3-fluorophenyl)methyl]-2-{5-[4-(morpholin-4-yl)phenyl]pyridin-2-yl}acetamide

> <ALOGPS_LOGP>
3.55

> <JCHEM_LOGP>
3.5998492786666674

> <ALOGPS_LOGS>
-4.40

> <JCHEM_MDDR_LIKE_RULE>
1

> <JCHEM_NEUTRAL_CHARGE>
0

> <JCHEM_NUMBER_OF_RINGS>
4

> <JCHEM_PHYSIOLOGICAL_CHARGE>
0

> <JCHEM_PKA_STRONGEST_ACIDIC>
15.115126503436011

> <JCHEM_PKA_STRONGEST_BASIC>
3.9670902713014815

> <JCHEM_POLAR_SURFACE_AREA>
54.46000000000001

> <JCHEM_REFRACTIVITY>
115.0239

> <JCHEM_ROTATABLE_BOND_COUNT>
6

> <JCHEM_RULE_OF_FIVE>
1

> <ALOGPS_SOLUBILITY>
1.60e-02 g/l

> <JCHEM_TRADITIONAL_IUPAC>
N-[(3-fluorophenyl)methyl]-2-{5-[4-(morpholin-4-yl)phenyl]pyridin-2-yl}acetamide

> <JCHEM_VEBER_RULE>
0

> <DRUGBANK_ID>
DB17180

> <DRUG_GROUPS>
investigational

> <GENERIC_NAME>
KX-2361

> <SYNONYMS>
2-pyridineacetamide, n-((3-fluorophenyl)methyl)-5-(4-(4-morpholinyl)phenyl)-; N-(3-fluorobenzyl)-2-(5-(4-morpholinophenyl) pyridin-2-yl) acetamide

> <SALTS>
KX-2361 Besylate

$$$$
