
  Mrv1718003241817112D          

 24 26  0  0  0  0            999 V2000
   -0.4369   -0.4125    0.0000 C   0  0  0  0  0  0  0  0  0  0  0  0
   -0.4369    0.4125    0.0000 C   0  0  0  0  0  0  0  0  0  0  0  0
   -1.1513    0.8250    0.0000 C   0  0  0  0  0  0  0  0  0  0  0  0
   -1.8658    0.4125    0.0000 C   0  0  0  0  0  0  0  0  0  0  0  0
   -1.8658   -0.4125    0.0000 C   0  0  0  0  0  0  0  0  0  0  0  0
   -2.5803   -0.8250    0.0000 C   0  0  0  0  0  0  0  0  0  0  0  0
   -3.2947   -0.4125    0.0000 C   0  0  0  0  0  0  0  0  0  0  0  0
   -4.0794   -0.6674    0.0000 O   0  0  0  0  0  0  0  0  0  0  0  0
   -4.5643    0.0000    0.0000 C   0  0  0  0  0  0  0  0  0  0  0  0
   -4.0794    0.6673    0.0000 O   0  0  0  0  0  0  0  0  0  0  0  0
   -3.2947    0.4125    0.0000 C   0  0  0  0  0  0  0  0  0  0  0  0
   -2.5803    0.8250    0.0000 C   0  0  0  0  0  0  0  0  0  0  0  0
    0.2775    0.8250    0.0000 N   0  0  0  0  0  0  0  0  0  0  0  0
    0.9920    0.4125    0.0000 C   0  0  0  0  0  0  0  0  0  0  0  0
    1.7065    0.8250    0.0000 C   0  0  0  0  0  0  0  0  0  0  0  0
    1.7065    1.6500    0.0000 O   0  0  0  0  0  0  0  0  0  0  0  0
    2.4209    0.4125    0.0000 C   0  0  0  0  0  0  0  0  0  0  0  0
    3.1354    0.8250    0.0000 C   0  0  0  0  0  0  0  0  0  0  0  0
    3.8499    0.4125    0.0000 C   0  0  0  0  0  0  0  0  0  0  0  0
    3.8499   -0.4125    0.0000 C   0  0  0  0  0  0  0  0  0  0  0  0
    4.5643   -0.8250    0.0000 O   0  0  0  0  0  0  0  0  0  0  0  0
    3.1354   -0.8250    0.0000 C   0  0  0  0  0  0  0  0  0  0  0  0
    3.1354   -1.6500    0.0000 O   0  0  0  0  0  0  0  0  0  0  0  0
    2.4209   -0.4125    0.0000 C   0  0  0  0  0  0  0  0  0  0  0  0
  1  2  1  0  0  0  0
  2  3  1  0  0  0  0
  3  4  1  0  0  0  0
  4  5  2  0  0  0  0
  5  6  1  0  0  0  0
  6  7  2  0  0  0  0
  7  8  1  0  0  0  0
  8  9  1  0  0  0  0
  9 10  1  0  0  0  0
 10 11  1  0  0  0  0
  7 11  1  0  0  0  0
 11 12  2  0  0  0  0
  4 12  1  0  0  0  0
  2 13  1  0  0  0  0
 13 14  1  0  0  0  0
 14 15  1  0  0  0  0
 15 16  1  0  0  0  0
 15 17  1  0  0  0  0
 17 18  2  0  0  0  0
 18 19  1  0  0  0  0
 19 20  2  0  0  0  0
 20 21  1  0  0  0  0
 20 22  1  0  0  0  0
 22 23  1  0  0  0  0
 22 24  2  0  0  0  0
 17 24  1  0  0  0  0
M  END
> <DATABASE_ID>
DB06814

> <DATABASE_NAME>
drugbank

> <SMILES>
CC(CC1=CC=C2OCOC2=C1)NCC(O)C1=CC=C(O)C(O)=C1

> <INCHI_IDENTIFIER>
InChI=1S/C18H21NO5/c1-11(6-12-2-5-17-18(7-12)24-10-23-17)19-9-16(22)13-3-4-14(20)15(21)8-13/h2-5,7-8,11,16,19-22H,6,9-10H2,1H3

> <INCHI_KEY>
LUMAEVHDZXIGEP-UHFFFAOYSA-N

> <FORMULA>
C18H21NO5

> <MOLECULAR_WEIGHT>
331.368

> <EXACT_MASS>
331.14197278

> <JCHEM_ACCEPTOR_COUNT>
6

> <JCHEM_ATOM_COUNT>
45

> <JCHEM_AVERAGE_POLARIZABILITY>
35.43837423116158

> <JCHEM_BIOAVAILABILITY>
1

> <JCHEM_DONOR_COUNT>
4

> <JCHEM_FORMAL_CHARGE>
0

> <JCHEM_GHOSE_FILTER>
1

> <JCHEM_IUPAC>
4-(2-{[1-(2H-1,3-benzodioxol-5-yl)propan-2-yl]amino}-1-hydroxyethyl)benzene-1,2-diol

> <ALOGPS_LOGP>
1.29

> <JCHEM_LOGP>
1.4816013219288677

> <ALOGPS_LOGS>
-3.15

> <JCHEM_MDDR_LIKE_RULE>
1

> <JCHEM_NUMBER_OF_RINGS>
3

> <JCHEM_PHYSIOLOGICAL_CHARGE>
1

> <JCHEM_PKA>
12.653060013163905

> <JCHEM_PKA_STRONGEST_ACIDIC>
9.856513681803472

> <JCHEM_PKA_STRONGEST_BASIC>
8.982095064054302

> <JCHEM_POLAR_SURFACE_AREA>
91.18

> <JCHEM_REFRACTIVITY>
88.78359999999999

> <JCHEM_ROTATABLE_BOND_COUNT>
6

> <JCHEM_RULE_OF_FIVE>
1

> <ALOGPS_SOLUBILITY>
2.36e-01 g/l

> <JCHEM_TRADITIONAL_IUPAC>
protokylol

> <JCHEM_VEBER_RULE>
0

> <DRUGBANK_ID>
DB06814

> <DRUG_GROUPS>
approved; vet_approved

> <GENERIC_NAME>
Protokylol

> <SYNONYMS>
Protokylol; Protokylolum; Protoquilol

> <INTERNATIONAL_BRANDS>
Asmetil; Caytine; Palison; Ventaire

> <SALTS>
Protokylol hydrochloride

$$$$
