
  Mrv1652310201623412D          

 29 32  0  0  0  0            999 V2000
    7.2055    0.9505    0.0000 C   0  0  0  0  0  0  0  0  0  0  0  0
    6.4209    1.2054    0.0000 C   0  0  0  0  0  0  0  0  0  0  0  0
    6.2494    2.0124    0.0000 N   0  0  0  0  0  0  0  0  0  0  0  0
    5.4957    2.3479    0.0000 C   0  0  0  0  0  0  0  0  0  0  0  0
    5.5819    3.1684    0.0000 N   0  0  0  0  0  0  0  0  0  0  0  0
    6.3889    3.3400    0.0000 C   0  0  0  0  0  0  0  0  0  0  0  0
    6.8014    2.6255    0.0000 N   0  0  0  0  0  0  0  0  0  0  0  0
    4.7812    1.9354    0.0000 C   0  0  0  0  0  0  0  0  0  0  0  0
    4.0668    2.3479    0.0000 O   0  0  0  0  0  0  0  0  0  0  0  0
    3.3523    1.9354    0.0000 C   0  0  0  0  0  0  0  0  0  0  0  0
    3.3523    1.1104    0.0000 C   0  0  0  0  0  0  0  0  0  0  0  0
    2.6378    0.6979    0.0000 C   0  0  0  0  0  0  0  0  0  0  0  0
    1.9233    1.1104    0.0000 C   0  0  0  0  0  0  0  0  0  0  0  0
    1.1387    0.8555    0.0000 N   0  0  0  0  0  0  0  0  0  0  0  0
    0.6538    1.5229    0.0000 N   0  0  0  0  0  0  0  0  0  0  0  0
    1.1387    2.1904    0.0000 C   0  0  0  0  0  0  0  0  0  0  0  0
    1.9233    1.9354    0.0000 N   0  0  0  0  0  0  0  0  0  0  0  0
    2.6378    2.3479    0.0000 N   0  0  0  0  0  0  0  0  0  0  0  0
    0.8838    2.9750    0.0000 C   0  0  0  0  0  0  0  0  0  0  0  0
    0.0768    3.1465    0.0000 C   0  0  0  0  0  0  0  0  0  0  0  0
   -0.1781    3.9312    0.0000 C   0  0  0  0  0  0  0  0  0  0  0  0
    0.3739    4.5442    0.0000 C   0  0  0  0  0  0  0  0  0  0  0  0
    1.1809    4.3727    0.0000 C   0  0  0  0  0  0  0  0  0  0  0  0
    1.4358    3.5881    0.0000 C   0  0  0  0  0  0  0  0  0  0  0  0
    2.2428    3.4166    0.0000 F   0  0  0  0  0  0  0  0  0  0  0  0
    4.0668    0.6979    0.0000 C   0  0  0  0  0  0  0  0  0  0  0  0
    4.7812    0.2854    0.0000 C   0  0  0  0  0  0  0  0  0  0  0  0
    3.6543   -0.0165    0.0000 C   0  0  0  0  0  0  0  0  0  0  0  0
    4.4793    1.4124    0.0000 C   0  0  0  0  0  0  0  0  0  0  0  0
  1  2  1  0  0  0  0
  2  3  1  0  0  0  0
  3  4  1  0  0  0  0
  4  5  2  0  0  0  0
  5  6  1  0  0  0  0
  6  7  2  0  0  0  0
  3  7  1  0  0  0  0
  4  8  1  0  0  0  0
  8  9  1  0  0  0  0
  9 10  1  0  0  0  0
 10 11  1  0  0  0  0
 11 12  2  0  0  0  0
 12 13  1  0  0  0  0
 13 14  2  0  0  0  0
 14 15  1  0  0  0  0
 15 16  2  0  0  0  0
 16 17  1  0  0  0  0
 13 17  1  0  0  0  0
 17 18  1  0  0  0  0
 10 18  2  0  0  0  0
 16 19  1  0  0  0  0
 19 20  2  0  0  0  0
 20 21  1  0  0  0  0
 21 22  2  0  0  0  0
 22 23  1  0  0  0  0
 23 24  2  0  0  0  0
 19 24  1  0  0  0  0
 24 25  1  0  0  0  0
 11 26  1  0  0  0  0
 26 27  1  0  0  0  0
 26 28  1  0  0  0  0
 26 29  1  0  0  0  0
M  END
> <DATABASE_ID>
DB12238

> <DATABASE_NAME>
drugbank

> <SMILES>
CCN1N=CN=C1COC1=NN2C(C=C1C(C)(C)C)=NN=C2C1=CC=CC=C1F

> <INCHI_IDENTIFIER>
InChI=1S/C20H22FN7O/c1-5-27-17(22-12-23-27)11-29-19-14(20(2,3)4)10-16-24-25-18(28(16)26-19)13-8-6-7-9-15(13)21/h6-10,12H,5,11H2,1-4H3

> <INCHI_KEY>
QKIWQBLNTSQOLY-UHFFFAOYSA-N

> <FORMULA>
C20H22FN7O

> <MOLECULAR_WEIGHT>
395.442

> <EXACT_MASS>
395.186986519

> <JCHEM_ACCEPTOR_COUNT>
6

> <JCHEM_ATOM_COUNT>
51

> <JCHEM_AVERAGE_POLARIZABILITY>
41.308715021083536

> <JCHEM_BIOAVAILABILITY>
1

> <JCHEM_DONOR_COUNT>
0

> <JCHEM_FORMAL_CHARGE>
0

> <JCHEM_GHOSE_FILTER>
0

> <JCHEM_IUPAC>
5-({[7-tert-butyl-3-(2-fluorophenyl)-[1,2,4]triazolo[4,3-b]pyridazin-6-yl]oxy}methyl)-1-ethyl-1H-1,2,4-triazole

> <ALOGPS_LOGP>
3.36

> <JCHEM_LOGP>
3.7376236213333343

> <ALOGPS_LOGS>
-4.41

> <JCHEM_MDDR_LIKE_RULE>
1

> <JCHEM_NUMBER_OF_RINGS>
4

> <JCHEM_PHYSIOLOGICAL_CHARGE>
0

> <JCHEM_PKA_STRONGEST_BASIC>
1.5083669321718962

> <JCHEM_POLAR_SURFACE_AREA>
83.02

> <JCHEM_REFRACTIVITY>
141.51610000000005

> <JCHEM_ROTATABLE_BOND_COUNT>
6

> <JCHEM_RULE_OF_FIVE>
1

> <ALOGPS_SOLUBILITY>
1.55e-02 g/l

> <JCHEM_TRADITIONAL_IUPAC>
5-({[7-tert-butyl-3-(2-fluorophenyl)-[1,2,4]triazolo[4,3-b]pyridazin-6-yl]oxy}methyl)-1-ethyl-1,2,4-triazole

> <JCHEM_VEBER_RULE>
0

> <DRUGBANK_ID>
DB12238

> <DRUG_GROUPS>
investigational

> <GENERIC_NAME>
MK-0777

$$$$
