
  Mrv1718003271813512D          

 47 49  0  0  0  0            999 V2000
   -2.8578    2.0625    0.0000 P   0  0  0  0  0  0  0  0  0  0  0  0
    3.5723    0.0000    0.0000 O   0  0  0  0  0  0  0  0  0  0  0  0
   -0.7144   -2.4750    0.0000 O   0  0  0  0  0  0  0  0  0  0  0  0
    1.4289    1.2375    0.0000 O   0  0  0  0  0  0  0  0  0  0  0  0
   -4.2868    1.2375    0.0000 O   0  0  0  0  0  0  0  0  0  0  0  0
   -2.8578    2.8875    0.0000 O   0  0  0  0  0  0  0  0  0  0  0  0
   -2.0328    2.0625    0.0000 O   0  0  0  0  0  0  0  0  0  0  0  0
   -1.4289   -2.8875    0.0000 O   0  0  0  0  0  0  0  0  0  0  0  0
   -3.6828    2.0625    0.0000 O   0  0  0  0  0  0  0  0  0  0  0  0
   -6.4302    0.8250    0.0000 O   0  0  0  0  0  0  0  0  0  0  0  0
   -5.7157    2.0625    0.0000 O   0  0  0  0  0  0  0  0  0  0  0  0
    0.0000   -1.2375    0.0000 N   0  0  0  0  0  0  0  0  0  0  0  0
   -2.1433   -1.6500    0.0000 N   0  0  0  0  0  0  0  0  0  0  0  0
    2.8579    1.2375    0.0000 N   0  0  0  0  0  0  0  0  0  0  0  0
    5.0012    0.0000    0.0000 C   0  0  0  0  0  0  0  0  0  0  0  0
    5.0012    0.8250    0.0000 C   0  0  0  0  0  0  0  0  0  0  0  0
    5.7158   -0.4125    0.0000 C   0  0  0  0  0  0  0  0  0  0  0  0
    5.7158    1.2375    0.0000 C   0  0  0  0  0  0  0  0  0  0  0  0
    6.4302    0.0000    0.0000 C   0  0  0  0  0  0  0  0  0  0  0  0
    6.4302    0.8250    0.0000 C   0  0  0  0  0  0  0  0  0  0  0  0
    4.2868   -0.4125    0.0000 C   0  0  0  0  0  0  0  0  0  0  0  0
    2.8579   -0.4125    0.0000 C   0  0  0  0  0  0  0  0  0  0  0  0
    2.1433    0.0000    0.0000 C   0  0  0  0  0  0  0  0  0  0  0  0
    2.8579   -1.2375    0.0000 C   0  0  0  0  0  0  0  0  0  0  0  0
    1.4289   -1.2375    0.0000 C   0  0  0  0  0  0  0  0  0  0  0  0
    0.7144   -1.6500    0.0000 C   0  0  2  0  0  0  0  0  0  0  0  0
    1.4289   -0.4125    0.0000 C   0  0  0  0  0  0  0  0  0  0  0  0
    2.1433   -1.6500    0.0000 C   0  0  0  0  0  0  0  0  0  0  0  0
   -1.4289   -1.2375    0.0000 C   0  0  1  0  0  0  0  0  0  0  0  0
   -1.4289   -0.4125    0.0000 C   0  0  0  0  0  0  0  0  0  0  0  0
   -0.7144   -1.6500    0.0000 C   0  0  0  0  0  0  0  0  0  0  0  0
    0.7144   -2.4750    0.0000 C   0  0  0  0  0  0  0  0  0  0  0  0
    2.1433    0.8250    0.0000 C   0  0  0  0  0  0  0  0  0  0  0  0
   -2.1433    0.0000    0.0000 C   0  0  0  0  0  0  0  0  0  0  0  0
   -2.1433    0.8250    0.0000 C   0  0  0  0  0  0  0  0  0  0  0  0
   -2.8578   -0.4125    0.0000 C   0  0  0  0  0  0  0  0  0  0  0  0
   -2.8578    1.2375    0.0000 C   0  0  0  0  0  0  0  0  0  0  0  0
   -3.5723    0.8250    0.0000 C   0  0  0  0  0  0  0  0  0  0  0  0
   -3.5723    0.0000    0.0000 C   0  0  0  0  0  0  0  0  0  0  0  0
   -2.1433   -2.4750    0.0000 C   0  0  0  0  0  0  0  0  0  0  0  0
   -2.8578   -2.8875    0.0000 C   0  0  0  0  0  0  0  0  0  0  0  0
   -5.0012    0.8250    0.0000 C   0  0  0  0  0  0  0  0  0  0  0  0
   -5.7157    1.2375    0.0000 C   0  0  0  0  0  0  0  0  0  0  0  0
    0.0000   -0.7260    0.0000 H   0  0  0  0  0  0  0  0  0  0  0  0
   -2.5863   -1.3942    0.0000 H   0  0  0  0  0  0  0  0  0  0  0  0
    3.3008    0.9817    0.0000 H   0  0  0  0  0  0  0  0  0  0  0  0
    2.8579    1.7490    0.0000 H   0  0  0  0  0  0  0  0  0  0  0  0
  1  6  1  0  0  0  0
  1  7  1  0  0  0  0
  1  9  2  0  0  0  0
  1 37  1  0  0  0  0
  2 21  1  0  0  0  0
  2 22  1  0  0  0  0
  3 31  2  0  0  0  0
  4 33  2  0  0  0  0
  5 38  1  0  0  0  0
  5 42  1  0  0  0  0
  8 40  2  0  0  0  0
 10 43  1  0  0  0  0
 11 43  2  0  0  0  0
 26 12  1  6  0  0  0
 12 31  1  0  0  0  0
 12 44  1  0  0  0  0
 29 13  1  1  0  0  0
 13 40  1  0  0  0  0
 13 45  1  0  0  0  0
 14 33  1  0  0  0  0
 14 46  1  0  0  0  0
 14 47  1  0  0  0  0
 15 16  1  0  0  0  0
 15 17  1  0  0  0  0
 15 21  1  0  0  0  0
 16 18  1  0  0  0  0
 17 19  1  0  0  0  0
 18 20  1  0  0  0  0
 19 20  1  0  0  0  0
 22 23  2  0  0  0  0
 22 24  1  0  0  0  0
 23 27  1  0  0  0  0
 23 33  1  0  0  0  0
 24 28  2  0  0  0  0
 25 26  1  0  0  0  0
 25 27  2  0  0  0  0
 25 28  1  0  0  0  0
 26 32  1  0  0  0  0
 29 30  1  0  0  0  0
 29 31  1  0  0  0  0
 30 34  1  0  0  0  0
 34 35  2  0  0  0  0
 34 36  1  0  0  0  0
 35 37  1  0  0  0  0
 36 39  2  0  0  0  0
 37 38  2  0  0  0  0
 38 39  1  0  0  0  0
 40 41  1  0  0  0  0
 42 43  1  0  0  0  0
M  END
> <DATABASE_ID>
DB04003

> <DATABASE_NAME>
drugbank

> <SMILES>
[H]N([H])C(=O)C1=C(OCC2CCCCC2)C=CC(=C1)[C@H](C)N([H])C(=O)[C@H](CC1=CC(=C(OCC(O)=O)C=C1)P(O)(O)=O)N([H])C(C)=O

> <INCHI_IDENTIFIER>
InChI=1S/C29H38N3O10P/c1-17(21-9-11-24(22(14-21)28(30)36)41-15-19-6-4-3-5-7-19)31-29(37)23(32-18(2)33)12-20-8-10-25(42-16-27(34)35)26(13-20)43(38,39)40/h8-11,13-14,17,19,23H,3-7,12,15-16H2,1-2H3,(H2,30,36)(H,31,37)(H,32,33)(H,34,35)(H2,38,39,40)/t17-,23-/m0/s1

> <INCHI_KEY>
FXUGQWABROMTDA-SBUREZEXSA-N

> <FORMULA>
C29H38N3O10P

> <MOLECULAR_WEIGHT>
619.5999

> <EXACT_MASS>
619.229480963

> <JCHEM_ACCEPTOR_COUNT>
10

> <JCHEM_ATOM_COUNT>
81

> <JCHEM_AVERAGE_POLARIZABILITY>
62.53293444470854

> <JCHEM_BIOAVAILABILITY>
0

> <JCHEM_DONOR_COUNT>
6

> <JCHEM_FORMAL_CHARGE>
0

> <JCHEM_GHOSE_FILTER>
0

> <JCHEM_IUPAC>
2-{4-[(2S)-2-{[(1S)-1-[3-carbamoyl-4-(cyclohexylmethoxy)phenyl]ethyl]carbamoyl}-2-acetamidoethyl]-2-phosphonophenoxy}acetic acid

> <ALOGPS_LOGP>
1.63

> <JCHEM_LOGP>
0.5683999999999996

> <ALOGPS_LOGS>
-5.63

> <JCHEM_MDDR_LIKE_RULE>
1

> <JCHEM_NUMBER_OF_RINGS>
3

> <JCHEM_PHYSIOLOGICAL_CHARGE>
-3

> <JCHEM_PKA>
3.5183290215855556

> <JCHEM_PKA_STRONGEST_ACIDIC>
1.60332564581114

> <JCHEM_PKA_STRONGEST_BASIC>
-0.8916843824158994

> <JCHEM_POLAR_SURFACE_AREA>
214.58

> <JCHEM_REFRACTIVITY>
155.3332

> <JCHEM_ROTATABLE_BOND_COUNT>
14

> <JCHEM_RULE_OF_FIVE>
0

> <ALOGPS_SOLUBILITY>
1.45e-03 g/l

> <JCHEM_TRADITIONAL_IUPAC>
4-[(2S)-2-{[(1S)-1-[3-carbamoyl-4-(cyclohexylmethoxy)phenyl]ethyl]carbamoyl}-2-acetamidoethyl]-2-phosphonophenoxyacetic acid

> <JCHEM_VEBER_RULE>
0

> <DRUGBANK_ID>
DB04003

> <SECONDARY_ACCESSION_NUMBERS>
EXPT00855

> <DRUG_GROUPS>
experimental

> <GENERIC_NAME>
{4-[(2S)-2-Acetamido-3-({(1S)-1-[3-carbamoyl-4-(cyclohexylmethoxy)phenyl]ethyl}amino)-3-oxopropyl]-2-phosphonophenoxy}acetic acid

$$$$
