
  Mrv1572001261617302D          

 23 24  0  0  0  0            999 V2000
    1.4289    0.8250    0.0000 C   0  0  0  0  0  0  0  0  0  0  0  0
    2.1434    1.2375    0.0000 C   0  0  0  0  0  0  0  0  0  0  0  0
    2.8579    2.4750    0.0000 C   0  0  0  0  0  0  0  0  0  0  0  0
    2.8579    3.3000    0.0000 C   0  0  0  0  0  0  0  0  0  0  0  0
    1.4289    2.4750    0.0000 C   0  0  0  0  0  0  0  0  0  0  0  0
    0.7145    3.7125    0.0000 C   0  0  0  0  0  0  0  0  0  0  0  0
    4.2868    5.7750    0.0000 C   0  0  0  0  0  0  0  0  0  0  0  0
    2.1434    2.0625    0.0000 C   0  0  0  0  0  0  0  0  0  0  0  0
    1.4289    3.3000    0.0000 C   0  0  0  0  0  0  0  0  0  0  0  0
    3.5724    6.1875    0.0000 C   0  0  0  0  0  0  0  0  0  0  0  0
    4.2868    4.9500    0.0000 C   0  0  0  0  0  0  0  0  0  0  0  0
    2.1434    3.7125    0.0000 C   0  0  0  0  0  0  0  0  0  0  0  0
   -0.0000    3.3000    0.0000 C   0  0  0  0  0  0  0  0  0  0  0  0
    2.8579    5.7750    0.0000 C   0  0  0  0  0  0  0  0  0  0  0  0
    3.5724    4.5375    0.0000 C   0  0  0  0  0  0  0  0  0  0  0  0
    2.8579    4.9500    0.0000 C   0  0  0  0  0  0  0  0  0  0  0  0
    3.5724    7.0125    0.0000 F   0  0  0  0  0  0  0  0  0  0  0  0
    5.0013    4.5375    0.0000 F   0  0  0  0  0  0  0  0  0  0  0  0
    2.1434    6.1875    0.0000 F   0  0  0  0  0  0  0  0  0  0  0  0
    3.5724    3.7125    0.0000 F   0  0  0  0  0  0  0  0  0  0  0  0
    2.1434    4.5375    0.0000 N   0  0  0  0  0  0  0  0  0  0  0  0
    0.0000    2.4750    0.0000 O   0  0  0  0  0  0  0  0  0  0  0  0
   -0.7145    3.7125    0.0000 O   0  0  0  0  0  0  0  0  0  0  0  0
  2  1  1  0  0  0  0
  4  3  2  0  0  0  0
  8  2  1  0  0  0  0
  8  3  1  0  0  0  0
  8  5  2  0  0  0  0
  9  5  1  0  0  0  0
  9  6  1  0  0  0  0
 10  7  2  0  0  0  0
 11  7  1  0  0  0  0
 12  4  1  0  0  0  0
 12  9  2  0  0  0  0
 13  6  1  0  0  0  0
 14 10  1  0  0  0  0
 15 11  2  0  0  0  0
 16 14  2  0  0  0  0
 16 15  1  0  0  0  0
 17 10  1  0  0  0  0
 18 11  1  0  0  0  0
 19 14  1  0  0  0  0
 20 15  1  0  0  0  0
 21 12  1  0  0  0  0
 21 16  1  0  0  0  0
 22 13  2  0  0  0  0
 23 13  1  0  0  0  0
M  END
> <DATABASE_ID>
DB11455

> <DATABASE_NAME>
drugbank

> <SMILES>
CCC1=CC(CC(O)=O)=C(NC2=C(F)C(F)=CC(F)=C2F)C=C1

> <INCHI_IDENTIFIER>
InChI=1S/C16H13F4NO2/c1-2-8-3-4-12(9(5-8)6-13(22)23)21-16-14(19)10(17)7-11(18)15(16)20/h3-5,7,21H,2,6H2,1H3,(H,22,23)

> <INCHI_KEY>
ZEXGDYFACFXQPF-UHFFFAOYSA-N

> <FORMULA>
C16H13F4NO2

> <MOLECULAR_WEIGHT>
327.279

> <EXACT_MASS>
327.088241315

> <JCHEM_ACCEPTOR_COUNT>
3

> <JCHEM_ATOM_COUNT>
36

> <JCHEM_AVERAGE_POLARIZABILITY>
28.887566786267946

> <JCHEM_BIOAVAILABILITY>
1

> <JCHEM_DONOR_COUNT>
2

> <JCHEM_FORMAL_CHARGE>
0

> <JCHEM_GHOSE_FILTER>
1

> <JCHEM_IUPAC>
2-{5-ethyl-2-[(2,3,5,6-tetrafluorophenyl)amino]phenyl}acetic acid

> <ALOGPS_LOGP>
4.68

> <JCHEM_LOGP>
4.579717680333333

> <ALOGPS_LOGS>
-4.90

> <JCHEM_MDDR_LIKE_RULE>
0

> <JCHEM_NUMBER_OF_RINGS>
2

> <JCHEM_PHYSIOLOGICAL_CHARGE>
-1

> <JCHEM_PKA>
14.83531509355349

> <JCHEM_PKA_STRONGEST_ACIDIC>
3.652494611247191

> <JCHEM_PKA_STRONGEST_BASIC>
-2.5073334420308298

> <JCHEM_POLAR_SURFACE_AREA>
49.33

> <JCHEM_REFRACTIVITY>
76.35960000000001

> <JCHEM_ROTATABLE_BOND_COUNT>
5

> <JCHEM_RULE_OF_FIVE>
1

> <ALOGPS_SOLUBILITY>
4.11e-03 g/l

> <JCHEM_TRADITIONAL_IUPAC>
{5-ethyl-2-[(2,3,5,6-tetrafluorophenyl)amino]phenyl}acetic acid

> <JCHEM_VEBER_RULE>
0

> <DRUGBANK_ID>
DB11455

> <DRUG_GROUPS>
experimental; vet_approved

> <GENERIC_NAME>
Robenacoxib

> <SYNONYMS>
Robenacoxib; Rob√©nacoxib; Robenacoxibum

$$$$
