
  Mrv1652310201623432D          

 34 37  0  0  1  0            999 V2000
    0.7145    3.7125    0.0000 C   0  0  0  0  0  0  0  0  0  0  0  0
    0.0000    3.3000    0.0000 C   0  0  2  0  0  0  0  0  0  0  0  0
    0.0000    2.4750    0.0000 C   0  0  0  0  0  0  0  0  0  0  0  0
   -0.7145    2.0625    0.0000 N   0  0  0  0  0  0  0  0  0  0  0  0
   -1.4289    2.4750    0.0000 C   0  0  0  0  0  0  0  0  0  0  0  0
   -1.4289    3.3000    0.0000 C   0  0  1  0  0  0  0  0  0  0  0  0
   -0.7145    3.7125    0.0000 N   0  0  0  0  0  0  0  0  0  0  0  0
   -2.1434    3.7125    0.0000 C   0  0  0  0  0  0  0  0  0  0  0  0
   -0.7145    1.2375    0.0000 C   0  0  0  0  0  0  0  0  0  0  0  0
    0.0000    0.8250    0.0000 C   0  0  0  0  0  0  0  0  0  0  0  0
    0.0000   -0.0000    0.0000 C   0  0  0  0  0  0  0  0  0  0  0  0
   -0.7145   -0.4125    0.0000 C   0  0  0  0  0  0  0  0  0  0  0  0
   -1.4289   -0.0000    0.0000 C   0  0  0  0  0  0  0  0  0  0  0  0
   -1.4289    0.8250    0.0000 C   0  0  0  0  0  0  0  0  0  0  0  0
   -0.7145   -1.2375    0.0000 C   0  0  0  0  0  0  0  0  0  0  0  0
   -1.4289   -1.6500    0.0000 O   0  0  0  0  0  0  0  0  0  0  0  0
    0.0000   -1.6500    0.0000 N   0  0  0  0  0  0  0  0  0  0  0  0
    0.0000   -2.4750    0.0000 C   0  0  0  0  0  0  0  0  0  0  0  0
    0.6674   -2.9599    0.0000 C   0  0  0  0  0  0  0  0  0  0  0  0
    0.4125   -3.7445    0.0000 C   0  0  0  0  0  0  0  0  0  0  0  0
   -0.4125   -3.7445    0.0000 N   0  0  0  0  0  0  0  0  0  0  0  0
   -0.6674   -2.9599    0.0000 N   0  0  0  0  0  0  0  0  0  0  0  0
    0.8974   -4.4120    0.0000 C   0  0  0  0  0  0  0  0  0  0  0  0
    0.5619   -5.1657    0.0000 C   0  0  0  0  0  0  0  0  0  0  0  0
    1.0468   -5.8331    0.0000 C   0  0  0  0  0  0  0  0  0  0  0  0
    1.8673   -5.7469    0.0000 C   0  0  0  0  0  0  0  0  0  0  0  0
    2.3522   -6.4143    0.0000 C   0  0  0  0  0  0  0  0  0  0  0  0
    2.0166   -7.1680    0.0000 C   0  0  0  0  0  0  0  0  0  0  0  0
    1.1962   -7.2542    0.0000 C   0  0  0  0  0  0  0  0  0  0  0  0
    0.7112   -6.5868    0.0000 C   0  0  0  0  0  0  0  0  0  0  0  0
    0.8606   -8.0079    0.0000 O   0  0  0  0  0  0  0  0  0  0  0  0
    1.3455   -8.6753    0.0000 C   0  0  0  0  0  0  0  0  0  0  0  0
    3.1727   -6.3281    0.0000 O   0  0  0  0  0  0  0  0  0  0  0  0
    3.6576   -6.9955    0.0000 C   0  0  0  0  0  0  0  0  0  0  0  0
  2  1  1  6  0  0  0
  2  3  1  0  0  0  0
  3  4  1  0  0  0  0
  4  5  1  0  0  0  0
  5  6  1  0  0  0  0
  6  7  1  0  0  0  0
  2  7  1  0  0  0  0
  6  8  1  6  0  0  0
  4  9  1  0  0  0  0
  9 10  2  0  0  0  0
 10 11  1  0  0  0  0
 11 12  2  0  0  0  0
 12 13  1  0  0  0  0
 13 14  2  0  0  0  0
  9 14  1  0  0  0  0
 12 15  1  0  0  0  0
 15 16  2  0  0  0  0
 15 17  1  0  0  0  0
 17 18  1  0  0  0  0
 18 19  1  0  0  0  0
 19 20  2  0  0  0  0
 20 21  1  0  0  0  0
 21 22  1  0  0  0  0
 18 22  2  0  0  0  0
 20 23  1  0  0  0  0
 23 24  1  0  0  0  0
 24 25  1  0  0  0  0
 25 26  2  0  0  0  0
 26 27  1  0  0  0  0
 27 28  2  0  0  0  0
 28 29  1  0  0  0  0
 29 30  2  0  0  0  0
 25 30  1  0  0  0  0
 29 31  1  0  0  0  0
 31 32  1  0  0  0  0
 27 33  1  0  0  0  0
 33 34  1  0  0  0  0
M  END
> <DATABASE_ID>
DB12247

> <DATABASE_NAME>
drugbank

> <SMILES>
COC1=CC(OC)=CC(CCC2=CC(NC(=O)C3=CC=C(C=C3)N3C[C@H](C)N[C@H](C)C3)=NN2)=C1

> <INCHI_IDENTIFIER>
InChI=1S/C26H33N5O3/c1-17-15-31(16-18(2)27-17)22-9-6-20(7-10-22)26(32)28-25-13-21(29-30-25)8-5-19-11-23(33-3)14-24(12-19)34-4/h6-7,9-14,17-18,27H,5,8,15-16H2,1-4H3,(H2,28,29,30,32)/t17-,18+

> <INCHI_KEY>
VRQMAABPASPXMW-HDICACEKSA-N

> <FORMULA>
C26H33N5O3

> <MOLECULAR_WEIGHT>
463.582

> <EXACT_MASS>
463.258339943

> <JCHEM_ACCEPTOR_COUNT>
6

> <JCHEM_ATOM_COUNT>
67

> <JCHEM_AVERAGE_POLARIZABILITY>
54.088554860020636

> <JCHEM_BIOAVAILABILITY>
1

> <JCHEM_DONOR_COUNT>
3

> <JCHEM_FORMAL_CHARGE>
0

> <JCHEM_GHOSE_FILTER>
0

> <JCHEM_IUPAC>
N-{5-[2-(3,5-dimethoxyphenyl)ethyl]-1H-pyrazol-3-yl}-4-[(3R,5S)-3,5-dimethylpiperazin-1-yl]benzamide

> <ALOGPS_LOGP>
3.78

> <JCHEM_LOGP>
4.3541515176666685

> <ALOGPS_LOGS>
-4.33

> <JCHEM_MDDR_LIKE_RULE>
1

> <JCHEM_NUMBER_OF_RINGS>
4

> <JCHEM_PHYSIOLOGICAL_CHARGE>
1

> <JCHEM_PKA>
15.293750605961957

> <JCHEM_PKA_STRONGEST_ACIDIC>
13.74480292126891

> <JCHEM_PKA_STRONGEST_BASIC>
9.02339005339733

> <JCHEM_POLAR_SURFACE_AREA>
91.51000000000002

> <JCHEM_REFRACTIVITY>
136.9101

> <JCHEM_ROTATABLE_BOND_COUNT>
8

> <JCHEM_RULE_OF_FIVE>
1

> <ALOGPS_SOLUBILITY>
2.17e-02 g/l

> <JCHEM_TRADITIONAL_IUPAC>
N-{5-[2-(3,5-dimethoxyphenyl)ethyl]-1H-pyrazol-3-yl}-4-[(3R,5S)-3,5-dimethylpiperazin-1-yl]benzamide

> <JCHEM_VEBER_RULE>
0

> <DRUGBANK_ID>
DB12247

> <DRUG_GROUPS>
investigational

> <GENERIC_NAME>
AZD-4547

$$$$
