
  Mrv1909 12101923362D          

 53 54  0  0  0  0            999 V2000
    1.7861   -2.0625    0.0000 S   0  0  0  0  0  0  0  0  0  0  0  0
   -1.7861    0.8250    0.0000 O   0  0  0  0  0  0  0  0  0  0  0  0
   -1.0717   -2.8875    0.0000 O   0  0  0  0  0  0  0  0  0  0  0  0
    3.2151   -4.5375    0.0000 O   0  0  0  0  0  0  0  0  0  0  0  0
   -2.5006    0.4125    0.0000 O   0  0  0  0  0  0  0  0  0  0  0  0
   -0.3572   -4.1250    0.0000 O   0  0  0  0  0  0  0  0  0  0  0  0
    1.7861   -4.5375    0.0000 O   0  0  0  0  0  0  0  0  0  0  0  0
    3.9295   -4.1250    0.0000 O   0  0  0  0  0  0  0  0  0  0  0  0
    1.0717    1.6500    0.0000 O   0  0  0  0  0  0  0  0  0  0  0  0
   -5.3585   -2.0625    0.0000 O   0  0  0  0  0  0  0  0  0  0  0  0
   -3.9295   -2.0625    0.0000 O   0  0  0  0  0  0  0  0  0  0  0  0
   -6.0730   -1.6500    0.0000 O   0  0  0  0  0  0  0  0  0  0  0  0
    1.7861    4.5375    0.0000 O   0  0  0  0  0  0  0  0  0  0  0  0
    0.3572    4.5375    0.0000 O   0  0  0  0  0  0  0  0  0  0  0  0
    1.0717   -3.3000    0.0000 N   0  0  0  0  0  0  0  0  0  0  0  0
   -1.7861   -0.8250    0.0000 N   0  0  0  0  0  0  0  0  0  0  0  0
    3.2151   -2.8875    0.0000 N   0  0  0  0  0  0  0  0  0  0  0  0
   -0.3572    0.8250    0.0000 N   0  0  0  0  0  0  0  0  0  0  0  0
   -5.3585   -0.4125    0.0000 N   0  0  0  0  0  0  0  0  0  0  0  0
    0.3572    2.8875    0.0000 N   0  0  0  0  0  0  0  0  0  0  0  0
   -0.3572   -1.6500    0.0000 C   0  0  0  0  0  0  0  0  0  0  0  0
   -0.3572   -0.8250    0.0000 C   0  0  0  0  0  0  0  0  0  0  0  0
    0.3572   -2.0625    0.0000 C   0  0  0  0  0  0  0  0  0  0  0  0
   -1.0717   -0.4125    0.0000 C   0  0  1  0  0  0  0  0  0  0  0  0
    1.7861   -2.8875    0.0000 C   0  0  1  0  0  0  0  0  0  0  0  0
    1.0717   -1.6500    0.0000 C   0  0  0  0  0  0  0  0  0  0  0  0
    0.3572   -2.8875    0.0000 C   0  0  0  0  0  0  0  0  0  0  0  0
    2.5006   -3.3000    0.0000 C   0  0  1  0  0  0  0  0  0  0  0  0
   -1.0717    0.4125    0.0000 C   0  0  0  0  0  0  0  0  0  0  0  0
   -2.5006   -0.4125    0.0000 C   0  0  0  0  0  0  0  0  0  0  0  0
   -3.2151   -0.8250    0.0000 C   0  0  0  0  0  0  0  0  0  0  0  0
   -0.3572   -3.3000    0.0000 C   0  0  0  0  0  0  0  0  0  0  0  0
    2.5006   -4.1250    0.0000 C   0  0  0  0  0  0  0  0  0  0  0  0
   -0.3572    1.6500    0.0000 C   0  0  2  0  0  0  0  0  0  0  0  0
   -3.9295   -0.4125    0.0000 C   0  0  0  0  0  0  0  0  0  0  0  0
   -4.6440   -0.8250    0.0000 C   0  0  2  0  0  0  0  0  0  0  0  0
    3.9295   -3.3000    0.0000 C   0  0  0  0  0  0  0  0  0  0  0  0
   -1.0717    2.0625    0.0000 C   0  0  0  0  0  0  0  0  0  0  0  0
    0.3572    2.0625    0.0000 C   0  0  0  0  0  0  0  0  0  0  0  0
    4.6440   -2.8875    0.0000 C   0  0  0  0  0  0  0  0  0  0  0  0
   -4.6440   -1.6500    0.0000 C   0  0  0  0  0  0  0  0  0  0  0  0
    5.3584   -3.3000    0.0000 C   0  0  0  0  0  0  0  0  0  0  0  0
    1.0717    3.3000    0.0000 C   0  0  2  0  0  0  0  0  0  0  0  0
   -6.0730   -0.8250    0.0000 C   0  0  0  0  0  0  0  0  0  0  0  0
    5.3584   -4.1250    0.0000 C   0  0  0  0  0  0  0  0  0  0  0  0
    6.0730   -2.8875    0.0000 C   0  0  0  0  0  0  0  0  0  0  0  0
    1.7861    2.8875    0.0000 C   0  0  0  0  0  0  0  0  0  0  0  0
    1.0717    4.1250    0.0000 C   0  0  0  0  0  0  0  0  0  0  0  0
   -6.7874   -0.4125    0.0000 C   0  0  0  0  0  0  0  0  0  0  0  0
    6.0730   -4.5375    0.0000 C   0  0  0  0  0  0  0  0  0  0  0  0
    6.7874   -3.3000    0.0000 C   0  0  0  0  0  0  0  0  0  0  0  0
    6.7874   -4.1250    0.0000 C   0  0  0  0  0  0  0  0  0  0  0  0
    1.7861   -3.7125    0.0000 H   0  0  0  0  0  0  0  0  0  0  0  0
  1 25  1  0  0  0  0
  1 26  1  0  0  0  0
  2 29  2  0  0  0  0
  3 32  1  0  0  0  0
  4 33  1  0  0  0  0
  5 30  2  0  0  0  0
  6 32  2  0  0  0  0
  7 33  2  0  0  0  0
  8 37  2  0  0  0  0
  9 39  2  0  0  0  0
 10 41  1  0  0  0  0
 11 41  2  0  0  0  0
 12 44  2  0  0  0  0
 13 48  1  0  0  0  0
 14 48  2  0  0  0  0
 15 25  1  0  0  0  0
 15 27  1  0  0  0  0
 24 16  1  6  0  0  0
 16 30  1  0  0  0  0
 28 17  1  6  0  0  0
 17 37  1  0  0  0  0
 18 29  1  0  0  0  0
 34 18  1  6  0  0  0
 36 19  1  6  0  0  0
 19 44  1  0  0  0  0
 20 39  1  0  0  0  0
 43 20  1  1  0  0  0
 21 22  1  0  0  0  0
 21 23  1  0  0  0  0
 22 24  1  0  0  0  0
 23 26  1  0  0  0  0
 23 27  2  0  0  0  0
 24 29  1  0  0  0  0
 25 28  1  0  0  0  0
 27 32  1  0  0  0  0
 28 33  1  0  0  0  0
 30 31  1  0  0  0  0
 31 35  1  0  0  0  0
 34 38  1  0  0  0  0
 34 39  1  0  0  0  0
 35 36  1  0  0  0  0
 36 41  1  0  0  0  0
 37 40  1  0  0  0  0
 40 42  1  0  0  0  0
 42 45  2  0  0  0  0
 42 46  1  0  0  0  0
 43 47  1  0  0  0  0
 43 48  1  0  0  0  0
 44 49  1  0  0  0  0
 45 50  1  0  0  0  0
 46 51  2  0  0  0  0
 50 52  2  0  0  0  0
 51 52  1  0  0  0  0
 25 53  1  1  0  0  0
M  END
> <DATABASE_ID>
DB02136

> <DATABASE_NAME>
drugbank

> <SMILES>
[H][C@]1(NC(C(O)=O)=C(CC[C@H](NC(=O)CC[C@@H](NC(C)=O)C(O)=O)C(=O)N[C@H](C)C(=O)N[C@H](C)C(O)=O)CS1)[C@H](NC(=O)CC1=CC=CC=C1)C(O)=O

> <INCHI_IDENTIFIER>
InChI=1S/C32H42N6O13S/c1-15(26(42)34-16(2)29(44)45)33-27(43)20(36-22(40)12-11-21(30(46)47)35-17(3)39)10-9-19-14-52-28(38-24(19)31(48)49)25(32(50)51)37-23(41)13-18-7-5-4-6-8-18/h4-8,15-16,20-21,25,28,38H,9-14H2,1-3H3,(H,33,43)(H,34,42)(H,35,39)(H,36,40)(H,37,41)(H,44,45)(H,46,47)(H,48,49)(H,50,51)/t15-,16-,20+,21-,25+,28-/m1/s1

> <INCHI_KEY>
PEUIVMLYMKXUBF-PULJXETJSA-N

> <FORMULA>
C32H42N6O13S

> <MOLECULAR_WEIGHT>
750.773

> <EXACT_MASS>
750.25305615

> <JCHEM_ACCEPTOR_COUNT>
14

> <JCHEM_ATOM_COUNT>
94

> <JCHEM_AVERAGE_POLARIZABILITY>
74.16335899789792

> <JCHEM_BIOAVAILABILITY>
0

> <JCHEM_DONOR_COUNT>
10

> <JCHEM_FORMAL_CHARGE>
0

> <JCHEM_GHOSE_FILTER>
0

> <JCHEM_IUPAC>
(2R)-2-[(R)-carboxy(2-phenylacetamido)methyl]-5-[(3S)-3-[(4R)-4-carboxy-4-acetamidobutanamido]-3-{[(1R)-1-{[(1R)-1-carboxyethyl]carbamoyl}ethyl]carbamoyl}propyl]-3,6-dihydro-2H-1,3-thiazine-4-carboxylic acid

> <ALOGPS_LOGP>
-0.27

> <JCHEM_LOGP>
-1.998595290666667

> <ALOGPS_LOGS>
-4.36

> <JCHEM_MDDR_LIKE_RULE>
0

> <JCHEM_NUMBER_OF_RINGS>
2

> <JCHEM_PHYSIOLOGICAL_CHARGE>
-3

> <JCHEM_PKA>
3.692554520558719

> <JCHEM_PKA_STRONGEST_ACIDIC>
3.2199295825158303

> <JCHEM_POLAR_SURFACE_AREA>
306.7299999999998

> <JCHEM_REFRACTIVITY>
179.80019999999993

> <JCHEM_ROTATABLE_BOND_COUNT>
20

> <JCHEM_RULE_OF_FIVE>
0

> <ALOGPS_SOLUBILITY>
3.29e-02 g/l

> <JCHEM_TRADITIONAL_IUPAC>
L-thiocitrulline

> <JCHEM_VEBER_RULE>
0

> <DRUGBANK_ID>
DB02136

> <SECONDARY_ACCESSION_NUMBERS>
EXPT00887

> <DRUG_GROUPS>
experimental

> <GENERIC_NAME>
Cephalosporin analog

$$$$
