
  Mrv1909 05201914442D          

 14 13  0  0  1  0            999 V2000
    7.2849    3.3809    0.0000 N   0  0  0  0  0  0  0  0  0  0  0  0
    7.2849    2.5559    0.0000 C   0  0  1  0  0  0  0  0  0  0  0  0
    6.5704    2.1434    0.0000 C   0  0  0  0  0  0  0  0  0  0  0  0
    5.8559    2.5559    0.0000 C   0  0  2  0  0  0  0  0  0  0  0  0
    5.1414    2.1434    0.0000 C   0  0  0  0  0  0  0  0  0  0  0  0
    4.4270    2.5559    0.0000 C   0  0  0  0  0  0  0  0  0  0  0  0
    3.7125    2.1434    0.0000 C   0  0  0  0  0  0  0  0  0  0  0  0
    2.9980    2.5559    0.0000 F   0  0  0  0  0  0  0  0  0  0  0  0
    5.8559    3.3809    0.0000 C   0  0  0  0  0  0  0  0  0  0  0  0
    5.1414    3.7934    0.0000 O   0  0  0  0  0  0  0  0  0  0  0  0
    6.5704    3.7934    0.0000 O   0  0  0  0  0  0  0  0  0  0  0  0
    7.9993    2.1434    0.0000 C   0  0  0  0  0  0  0  0  0  0  0  0
    8.7138    2.5559    0.0000 O   0  0  0  0  0  0  0  0  0  0  0  0
    7.9993    1.3184    0.0000 O   0  0  0  0  0  0  0  0  0  0  0  0
  2  1  1  6  0  0  0
  2  3  1  0  0  0  0
  4  3  1  6  0  0  0
  4  5  1  0  0  0  0
  5  6  1  0  0  0  0
  6  7  1  0  0  0  0
  7  8  1  0  0  0  0
  4  9  1  0  0  0  0
  9 10  1  0  0  0  0
  9 11  2  0  0  0  0
  2 12  1  0  0  0  0
 12 13  1  0  0  0  0
 12 14  2  0  0  0  0
M  ISO  1   8  18
M  END
> <DATABASE_ID>
DB15041

> <DATABASE_NAME>
drugbank

> <SMILES>
N[C@@H](C[C@H](CCC[18F])C(O)=O)C(O)=O

> <INCHI_IDENTIFIER>
InChI=1S/C8H14FNO4/c9-3-1-2-5(7(11)12)4-6(10)8(13)14/h5-6H,1-4,10H2,(H,11,12)(H,13,14)/t5-,6-/m0/s1/i9-1

> <INCHI_KEY>
MKDNDKMECWBLOF-XUCPOOORSA-N

> <FORMULA>
C8H14FNO4

> <MOLECULAR_WEIGHT>
206.204

> <EXACT_MASS>
206.093220602

> <JCHEM_ACCEPTOR_COUNT>
5

> <JCHEM_ATOM_COUNT>
28

> <JCHEM_AVERAGE_POLARIZABILITY>
19.383363358737405

> <JCHEM_BIOAVAILABILITY>
1

> <JCHEM_DONOR_COUNT>
3

> <JCHEM_FORMAL_CHARGE>
0

> <JCHEM_GHOSE_FILTER>
0

> <JCHEM_IUPAC>
(2S,4S)-2-amino-4-[3-(¹⁸F)fluoropropyl]pentanedioic acid

> <ALOGPS_LOGP>
-3.05

> <JCHEM_LOGP>
-2.373432665598702

> <ALOGPS_LOGS>
-1.03

> <JCHEM_MDDR_LIKE_RULE>
0

> <JCHEM_NUMBER_OF_RINGS>
0

> <JCHEM_PHYSIOLOGICAL_CHARGE>
-1

> <JCHEM_PKA>
4.507583603063142

> <JCHEM_PKA_STRONGEST_ACIDIC>
2.218659826815006

> <JCHEM_PKA_STRONGEST_BASIC>
9.528129678796448

> <JCHEM_POLAR_SURFACE_AREA>
100.62

> <JCHEM_REFRACTIVITY>
45.3008

> <JCHEM_ROTATABLE_BOND_COUNT>
7

> <JCHEM_RULE_OF_FIVE>
1

> <ALOGPS_SOLUBILITY>
1.92e+01 g/l

> <JCHEM_TRADITIONAL_IUPAC>
(2R)-14-fluoro-2-methyl-6,9,10,19-tetraazapentacyclo[14.2.1.0^{2,6}.0^{8,18}.0^{12,17}]nonadeca-1(18),8,12(17),13,15-pentaen-11-one

> <JCHEM_VEBER_RULE>
0

> <DRUGBANK_ID>
DB15041

> <DRUG_GROUPS>
investigational

> <GENERIC_NAME>
Florilglutamic acid F-18

> <SYNONYMS>
[F18] Florilglutamic Acid; 18F-FSPG

$$$$
