
  Mrv1909 08011917312D          

 48 51  0  0  0  0            999 V2000
   -1.9402   -2.9422    0.0000 C   0  0  0  0  0  0  0  0  0  0  0  0
    1.4995   -2.2626    0.0000 C   0  0  0  0  0  0  0  0  0  0  0  0
   -5.1225   -1.4699    0.0000 C   0  0  0  0  0  0  0  0  0  0  0  0
    2.2532   -2.5982    0.0000 N   0  0  0  0  0  0  0  0  0  0  0  0
   -1.5278   -3.6566    0.0000 N   0  0  0  0  0  0  0  0  0  0  0  0
   -5.2088   -2.2904    0.0000 N   0  0  0  0  0  0  0  0  0  0  0  0
   -2.7596   -2.8543    0.0000 C   0  0  0  0  0  0  0  0  0  0  0  0
    0.7850   -2.6732    0.0000 C   0  0  0  0  0  0  0  0  0  0  0  0
   -3.9150   -2.0117    0.0000 C   0  0  0  0  0  0  0  0  0  0  0  0
   -0.6450   -2.6706    0.0000 C   0  0  0  0  0  0  0  0  0  0  0  0
    2.3878   -1.2816    0.0000 C   0  0  0  0  0  0  0  0  0  0  0  0
    1.5858   -1.4421    0.0000 C   0  0  0  0  0  0  0  0  0  0  0  0
   -1.3882   -2.3290    0.0000 C   0  0  0  0  0  0  0  0  0  0  0  0
   -4.3155   -1.2984    0.0000 C   0  0  0  0  0  0  0  0  0  0  0  0
   -0.7208   -3.4852    0.0000 C   0  0  0  0  0  0  0  0  0  0  0  0
    2.8053   -1.9851    0.0000 C   0  0  0  0  0  0  0  0  0  0  0  0
   -4.4551   -2.6260    0.0000 C   0  0  0  0  0  0  0  0  0  0  0  0
    3.5462   -0.4431    0.0000 C   0  0  0  0  0  0  0  0  0  0  0  0
   -3.0943   -2.0997    0.0000 N   0  0  0  0  0  0  0  0  0  0  0  0
    0.0707   -2.2594    0.0000 N   0  0  0  0  0  0  0  0  0  0  0  0
   -5.7337   -0.9172    0.0000 C   0  0  0  0  0  0  0  0  0  0  0  0
    2.7251   -0.5282    0.0000 N   0  0  0  0  0  0  0  0  0  0  0  0
   -6.6126    1.8044    0.0000 C   0  0  0  0  0  0  0  0  0  0  0  0
    3.8835    0.3103    0.0000 C   0  0  0  0  0  0  0  0  0  0  0  0
    0.7838   -3.3332    0.0000 O   0  0  0  0  0  0  0  0  0  0  0  0
   -3.1485   -3.3875    0.0000 O   0  0  0  0  0  0  0  0  0  0  0  0
   -6.4744    2.4498    0.0000 N   0  0  0  0  0  0  0  0  0  0  0  0
    4.5546    1.8176    0.0000 C   0  0  0  0  0  0  0  0  0  0  0  0
    3.9332   -0.9777    0.0000 O   0  0  0  0  0  0  0  0  0  0  0  0
   -6.0003    1.2507    0.0000 C   0  0  0  0  0  0  0  0  0  0  0  0
    4.8919    2.5711    0.0000 N   0  0  0  0  0  0  0  0  0  0  0  0
   -6.3618   -1.1200    0.0000 O   0  0  0  0  0  0  0  0  0  0  0  0
   -5.5609   -0.1100    0.0000 N   0  0  0  0  0  0  0  0  0  0  0  0
    4.7040    0.3965    0.0000 C   0  0  0  0  0  0  0  0  0  0  0  0
    3.3986    0.9777    0.0000 C   0  0  0  0  0  0  0  0  0  0  0  0
    3.7341    1.7314    0.0000 C   0  0  0  0  0  0  0  0  0  0  0  0
    5.0396    1.1502    0.0000 C   0  0  0  0  0  0  0  0  0  0  0  0
   -7.2407    1.6016    0.0000 N   0  0  0  0  0  0  0  0  0  0  0  0
   -6.1732    0.4435    0.0000 C   0  0  0  0  0  0  0  0  0  0  0  0
   -5.7804   -2.6204    0.0000 C   0  0  0  0  0  0  0  0  0  0  0  0
    2.3904   -3.2438    0.0000 C   0  0  0  0  0  0  0  0  0  0  0  0
   -1.7962   -4.2596    0.0000 C   0  0  0  0  0  0  0  0  0  0  0  0
    6.7068    3.4777    0.0000 Cl  0  0  0  0  0  0  0  0  0  0  0  0
    4.3615    4.5292    0.0000 Cl  0  0  0  0  0  0  0  0  0  0  0  0
    5.7130    2.6562    0.0000 C   0  0  0  0  0  0  0  0  0  0  0  0
    4.4093    3.2408    0.0000 C   0  0  0  0  0  0  0  0  0  0  0  0
    4.7474    3.9938    0.0000 C   0  0  0  0  0  0  0  0  0  0  0  0
    6.0503    3.4096    0.0000 C   0  0  0  0  0  0  0  0  0  0  0  0
  2  4  1  0  0  0  0
  1  5  1  0  0  0  0
  3  6  1  0  0  0  0
  1  7  1  0  0  0  0
  2  8  1  0  0  0  0
  2 12  2  0  0  0  0
 11 12  1  0  0  0  0
  1 13  2  0  0  0  0
 10 13  1  0  0  0  0
  3 14  2  0  0  0  0
  9 14  1  0  0  0  0
  5 15  1  0  0  0  0
 10 15  2  0  0  0  0
  4 16  1  0  0  0  0
 11 16  2  0  0  0  0
  6 17  1  0  0  0  0
  9 17  2  0  0  0  0
  7 19  1  0  0  0  0
  9 19  1  0  0  0  0
  8 20  1  0  0  0  0
 10 20  1  0  0  0  0
  3 21  1  0  0  0  0
 11 22  1  0  0  0  0
 18 22  1  0  0  0  0
 18 24  1  0  0  0  0
  8 25  2  0  0  0  0
  7 26  2  0  0  0  0
 23 27  2  0  0  0  0
 18 29  2  0  0  0  0
 23 30  1  0  0  0  0
 28 31  1  0  0  0  0
 21 32  2  0  0  0  0
 21 33  1  0  0  0  0
 24 34  1  0  0  0  0
 24 35  2  0  0  0  0
 28 36  2  0  0  0  0
 35 36  1  0  0  0  0
 28 37  1  0  0  0  0
 34 37  2  0  0  0  0
 23 38  1  0  0  0  0
 30 39  1  0  0  0  0
 33 39  1  0  0  0  0
  6 40  1  0  0  0  0
  4 41  1  0  0  0  0
  5 42  1  0  0  0  0
 31 45  1  0  0  0  0
 31 46  1  0  0  0  0
 44 47  1  0  0  0  0
 46 47  1  0  0  0  0
 43 48  1  0  0  0  0
 45 48  1  0  0  0  0
M  END
> <DATABASE_ID>
DB15466

> <DATABASE_NAME>
drugbank

> <SMILES>
CN1C=C(NC(=O)C2=CC(NC(=O)C3=CC(NC(=O)C4=CC=C(C=C4)N(CCCl)CCCl)=CN3C)=CN2C)C=C1C(=O)NCCC(N)=N

> <INCHI_IDENTIFIER>
InChI=1S/C32H38Cl2N10O4/c1-41-18-22(14-25(41)30(46)37-11-8-28(35)36)39-32(48)27-16-23(19-43(27)3)40-31(47)26-15-21(17-42(26)2)38-29(45)20-4-6-24(7-5-20)44(12-9-33)13-10-34/h4-7,14-19H,8-13H2,1-3H3,(H3,35,36)(H,37,46)(H,38,45)(H,39,48)(H,40,47)

> <INCHI_KEY>
ARKYUICTMUZVEW-UHFFFAOYSA-N

> <FORMULA>
C32H38Cl2N10O4

> <MOLECULAR_WEIGHT>
697.62

> <EXACT_MASS>
696.2454551

> <JCHEM_ACCEPTOR_COUNT>
7

> <JCHEM_ATOM_COUNT>
86

> <JCHEM_AVERAGE_POLARIZABILITY>
76.45391664255298

> <JCHEM_BIOAVAILABILITY>
0

> <JCHEM_DONOR_COUNT>
6

> <JCHEM_FORMAL_CHARGE>
0

> <JCHEM_GHOSE_FILTER>
0

> <JCHEM_IUPAC>
4-{4-[bis(2-chloroethyl)amino]benzamido}-N-[5-({5-[(2-carbamimidoylethyl)carbamoyl]-1-methyl-1H-pyrrol-3-yl}carbamoyl)-1-methyl-1H-pyrrol-3-yl]-1-methyl-1H-pyrrole-2-carboxamide

> <ALOGPS_LOGP>
2.60

> <JCHEM_LOGP>
2.408805656666666

> <ALOGPS_LOGS>
-4.11

> <JCHEM_MDDR_LIKE_RULE>
1

> <JCHEM_NUMBER_OF_RINGS>
4

> <JCHEM_PHYSIOLOGICAL_CHARGE>
1

> <JCHEM_PKA>
15.899042293701513

> <JCHEM_PKA_STRONGEST_ACIDIC>
15.028940830499158

> <JCHEM_PKA_STRONGEST_BASIC>
12.560818637642084

> <JCHEM_POLAR_SURFACE_AREA>
184.3

> <JCHEM_REFRACTIVITY>
203.5480999999999

> <JCHEM_ROTATABLE_BOND_COUNT>
15

> <JCHEM_RULE_OF_FIVE>
0

> <ALOGPS_SOLUBILITY>
5.43e-02 g/l

> <JCHEM_TRADITIONAL_IUPAC>
4-{4-[bis(2-chloroethyl)amino]benzamido}-N-[5-({5-[(2-carbamimidoylethyl)carbamoyl]-1-methylpyrrol-3-yl}carbamoyl)-1-methylpyrrol-3-yl]-1-methylpyrrole-2-carboxamide

> <JCHEM_VEBER_RULE>
0

> <DRUGBANK_ID>
DB15466

> <DRUG_GROUPS>
experimental

> <GENERIC_NAME>
Tallimustine

> <SYNONYMS>
Tallimustine

> <SALTS>
Tallimustine hydrochloride

$$$$
