
  Mrv1909 05201914262D          

 35 41  0  0  1  0            999 V2000
   -5.9339   -1.5382    0.0000 F   0  0  0  0  0  0  0  0  0  0  0  0
   -5.4287   -2.1904    0.0000 C   0  0  0  0  0  0  0  0  0  0  0  0
   -6.0809   -2.6956    0.0000 F   0  0  0  0  0  0  0  0  0  0  0  0
   -4.7765   -1.6852    0.0000 F   0  0  0  0  0  0  0  0  0  0  0  0
   -4.9235   -2.8426    0.0000 C   0  0  0  0  0  0  0  0  0  0  0  0
   -4.1061   -2.7312    0.0000 C   0  0  0  0  0  0  0  0  0  0  0  0
   -3.6009   -3.3834    0.0000 C   0  0  0  0  0  0  0  0  0  0  0  0
   -3.9131   -4.1471    0.0000 C   0  0  0  0  0  0  0  0  0  0  0  0
   -4.7305   -4.2585    0.0000 C   0  0  0  0  0  0  0  0  0  0  0  0
   -5.2357   -3.6063    0.0000 C   0  0  0  0  0  0  0  0  0  0  0  0
   -3.2833   -4.6800    0.0000 N   0  0  0  0  0  0  0  0  0  0  0  0
   -2.5819   -4.2457    0.0000 C   0  0  0  0  0  0  0  0  0  0  0  0
   -2.7781   -3.4444    0.0000 N   0  0  0  0  0  0  0  0  0  0  0  0
   -1.8182   -4.5580    0.0000 C   0  0  2  0  0  0  0  0  0  0  0  0
   -1.3130   -5.2102    0.0000 C   0  0  1  0  0  0  0  0  0  0  0  0
   -0.6833   -5.7431    0.0000 O   0  0  0  0  0  0  0  0  0  0  0  0
    0.0182   -5.3089    0.0000 C   0  0  0  0  0  0  0  0  0  0  0  0
   -0.1781   -4.5075    0.0000 C   0  0  0  0  0  0  0  0  0  0  0  0
    0.4178   -3.9369    0.0000 C   0  0  0  0  0  0  0  0  0  0  0  0
    1.2099   -4.1676    0.0000 C   0  0  0  0  0  0  0  0  0  0  0  0
    1.8057   -3.5970    0.0000 O   0  0  0  0  0  0  0  0  0  0  0  0
    2.5978   -3.8277    0.0000 C   0  0  0  0  0  0  0  0  0  0  0  0
    3.1936   -3.2571    0.0000 C   0  0  0  0  0  0  0  0  0  0  0  0
    2.9974   -2.4558    0.0000 C   0  0  0  0  0  0  0  0  0  0  0  0
    3.5932   -1.8852    0.0000 C   0  0  0  0  0  0  0  0  0  0  0  0
    4.3853   -2.1159    0.0000 C   0  0  0  0  0  0  0  0  0  0  0  0
    4.9812   -1.5452    0.0000 O   0  0  0  0  0  0  0  0  0  0  0  0
    4.5816   -2.9172    0.0000 N   0  0  0  0  0  0  0  0  0  0  0  0
    3.9857   -3.4878    0.0000 C   0  0  0  0  0  0  0  0  0  0  0  0
    4.1820   -4.2891    0.0000 N   0  0  0  0  0  0  0  0  0  0  0  0
    3.5861   -4.8597    0.0000 C   0  0  0  0  0  0  0  0  0  0  0  0
    2.7940   -4.6290    0.0000 C   0  0  0  0  0  0  0  0  0  0  0  0
    1.4061   -4.9689    0.0000 C   0  0  0  0  0  0  0  0  0  0  0  0
    0.8103   -5.5396    0.0000 C   0  0  0  0  0  0  0  0  0  0  0  0
   -1.0008   -4.4466    0.0000 C   0  0  1  0  0  0  0  0  0  0  0  0
  1  2  1  0  0  0  0
  2  3  1  0  0  0  0
  2  4  1  0  0  0  0
  2  5  1  0  0  0  0
  5  6  2  0  0  0  0
  6  7  1  0  0  0  0
  7  8  2  0  0  0  0
  8  9  1  0  0  0  0
  9 10  2  0  0  0  0
  5 10  1  0  0  0  0
  8 11  1  0  0  0  0
 11 12  2  0  0  0  0
 12 13  1  0  0  0  0
  7 13  1  0  0  0  0
 14 12  1  1  0  0  0
 14 15  1  0  0  0  0
 15 16  1  6  0  0  0
 16 17  1  0  0  0  0
 17 18  2  0  0  0  0
 18 19  1  0  0  0  0
 19 20  2  0  0  0  0
 20 21  1  0  0  0  0
 21 22  1  0  0  0  0
 22 23  2  0  0  0  0
 23 24  1  0  0  0  0
 24 25  1  0  0  0  0
 25 26  1  0  0  0  0
 26 27  2  0  0  0  0
 26 28  1  0  0  0  0
 28 29  1  0  0  0  0
 23 29  1  0  0  0  0
 29 30  2  0  0  0  0
 30 31  1  0  0  0  0
 31 32  2  0  0  0  0
 22 32  1  0  0  0  0
 20 33  1  0  0  0  0
 33 34  2  0  0  0  0
 17 34  1  0  0  0  0
 35 18  1  6  0  0  0
 14 35  1  0  0  0  0
 15 35  1  0  0  0  0
M  END
> <DATABASE_ID>
DB14773

> <DATABASE_NAME>
drugbank

> <SMILES>
FC(F)(F)C1=CC2=C(C=C1)N=C(N2)[C@@H]1[C@H]2OC3=C(C=C(OC4=C5CCC(=O)NC5=NC=C4)C=C3)[C@@H]12

> <INCHI_IDENTIFIER>
InChI=1S/C25H17F3N4O3/c26-25(27,28)11-1-4-15-16(9-11)31-24(30-15)21-20-14-10-12(2-5-17(14)35-22(20)21)34-18-7-8-29-23-13(18)3-6-19(33)32-23/h1-2,4-5,7-10,20-22H,3,6H2,(H,30,31)(H,29,32,33)/t20-,21-,22-/m0/s1

> <INCHI_KEY>
NGFFVZQXSRKHBM-FKBYEOEOSA-N

> <FORMULA>
C25H17F3N4O3

> <MOLECULAR_WEIGHT>
478.431

> <EXACT_MASS>
478.125274912

> <JCHEM_ACCEPTOR_COUNT>
4

> <JCHEM_ATOM_COUNT>
52

> <JCHEM_AVERAGE_POLARIZABILITY>
45.64957684336778

> <JCHEM_BIOAVAILABILITY>
1

> <JCHEM_DONOR_COUNT>
2

> <JCHEM_FORMAL_CHARGE>
0

> <JCHEM_GHOSE_FILTER>
1

> <JCHEM_IUPAC>
5-{[(2R,3R,4S)-3-[6-(trifluoromethyl)-1H-1,3-benzodiazol-2-yl]-5-oxatricyclo[4.4.0.0^{2,4}]deca-1(6),7,9-trien-9-yl]oxy}-1,2,3,4-tetrahydro-1,8-naphthyridin-2-one

> <ALOGPS_LOGP>
4.24

> <JCHEM_LOGP>
4.089530291000001

> <ALOGPS_LOGS>
-4.77

> <JCHEM_MDDR_LIKE_RULE>
0

> <JCHEM_NUMBER_OF_RINGS>
7

> <JCHEM_PHYSIOLOGICAL_CHARGE>
0

> <JCHEM_PKA>
12.129520432414514

> <JCHEM_PKA_STRONGEST_ACIDIC>
11.523254454383387

> <JCHEM_PKA_STRONGEST_BASIC>
5.726240998255387

> <JCHEM_POLAR_SURFACE_AREA>
89.13000000000001

> <JCHEM_REFRACTIVITY>
119.5914

> <JCHEM_ROTATABLE_BOND_COUNT>
4

> <JCHEM_RULE_OF_FIVE>
1

> <ALOGPS_SOLUBILITY>
8.21e-03 g/l

> <JCHEM_TRADITIONAL_IUPAC>
6-[8-({4-[4-(oxetan-3-yl)piperazin-1-yl]phenyl}amino)imidazo[1,2-a]pyrazin-6-yl]pyrazin-2-amine

> <JCHEM_VEBER_RULE>
0

> <DRUGBANK_ID>
DB14773

> <DRUG_GROUPS>
investigational

> <GENERIC_NAME>
Lifirafenib

> <SYNONYMS>
Lifirafenib

$$$$
