
  Mrv1652310211605372D          

 49 53  0  0  1  0            999 V2000
   -2.1594  -13.9660    0.0000 C   0  0  0  0  0  0  0  0  0  0  0  0
   -1.4450  -13.5535    0.0000 C   0  0  1  0  0  0  0  0  0  0  0  0
   -0.7305  -13.9660    0.0000 C   0  0  0  0  0  0  0  0  0  0  0  0
   -0.7305  -14.7910    0.0000 O   0  0  0  0  0  0  0  0  0  0  0  0
   -0.0160  -13.5535    0.0000 N   0  0  0  0  0  0  0  0  0  0  0  0
    0.6985  -13.9660    0.0000 C   0  0  1  0  0  0  0  0  0  0  0  0
    0.6985  -14.7910    0.0000 C   0  0  0  0  0  0  0  0  0  0  0  0
    1.4129  -13.5535    0.0000 C   0  0  0  0  0  0  0  0  0  0  0  0
    1.4129  -12.7285    0.0000 O   0  0  0  0  0  0  0  0  0  0  0  0
    2.1274  -13.9660    0.0000 O   0  0  0  0  0  0  0  0  0  0  0  0
    2.8419  -13.5535    0.0000 C   0  0  0  0  0  0  0  0  0  0  0  0
    3.5563  -13.9660    0.0000 C   0  0  0  0  0  0  0  0  0  0  0  0
    4.2708  -13.5535    0.0000 O   0  0  0  0  0  0  0  0  0  0  0  0
    4.9853  -13.9660    0.0000 C   0  0  0  0  0  0  0  0  0  0  0  0
    5.6998  -13.5535    0.0000 C   0  0  0  0  0  0  0  0  0  0  0  0
    6.4142  -13.9660    0.0000 C   0  0  0  0  0  0  0  0  0  0  0  0
    6.4142  -14.7910    0.0000 C   0  0  0  0  0  0  0  0  0  0  0  0
    5.6998  -15.2035    0.0000 C   0  0  0  0  0  0  0  0  0  0  0  0
    4.9853  -14.7910    0.0000 C   0  0  0  0  0  0  0  0  0  0  0  0
    7.1287  -15.2035    0.0000 C   0  0  0  0  0  0  0  0  0  0  0  0
    7.8432  -14.7910    0.0000 C   0  0  0  0  0  0  0  0  0  0  0  0
    8.5576  -15.2035    0.0000 C   0  0  0  0  0  0  0  0  0  0  0  0
    8.5576  -16.0285    0.0000 N   0  0  0  0  0  0  0  0  0  0  0  0
    7.8432  -16.4410    0.0000 C   0  0  0  0  0  0  0  0  0  0  0  0
    7.1287  -16.0285    0.0000 C   0  0  0  0  0  0  0  0  0  0  0  0
    6.4142  -16.4410    0.0000 C   0  0  0  0  0  0  0  0  0  0  0  0
    5.6998  -16.8535    0.0000 N   0  0  0  0  0  0  0  0  0  0  0  0
    7.8432  -17.2660    0.0000 S   0  0  0  0  0  0  0  0  0  0  0  0
    8.5576  -17.6785    0.0000 C   0  0  0  0  0  0  0  0  0  0  0  0
    9.2721  -17.2660    0.0000 C   0  0  0  0  0  0  0  0  0  0  0  0
    9.3583  -16.4455    0.0000 C   0  0  0  0  0  0  0  0  0  0  0  0
   10.1653  -16.2740    0.0000 S   0  0  0  0  0  0  0  0  0  0  0  0
   10.5778  -16.9884    0.0000 C   0  0  0  0  0  0  0  0  0  0  0  0
   10.0258  -17.6015    0.0000 N   0  0  0  0  0  0  0  0  0  0  0  0
   11.3983  -17.0747    0.0000 C   0  0  0  0  0  0  0  0  0  0  0  0
   11.8832  -16.4072    0.0000 C   0  0  0  0  0  0  0  0  0  0  0  0
   12.7037  -16.4935    0.0000 C   0  0  0  0  0  0  0  0  0  0  0  0
   13.0393  -17.2471    0.0000 C   0  0  0  0  0  0  0  0  0  0  0  0
   12.5543  -17.9146    0.0000 C   0  0  0  0  0  0  0  0  0  0  0  0
   11.7339  -17.8283    0.0000 C   0  0  0  0  0  0  0  0  0  0  0  0
   13.8597  -17.3334    0.0000 Cl  0  0  0  0  0  0  0  0  0  0  0  0
    9.2721  -14.7910    0.0000 N   0  0  0  0  0  0  0  0  0  0  0  0
    9.3583  -13.9705    0.0000 C   0  0  0  0  0  0  0  0  0  0  0  0
   10.1653  -13.7990    0.0000 C   0  0  0  0  0  0  0  0  0  0  0  0
   10.5778  -14.5134    0.0000 C   0  0  0  0  0  0  0  0  0  0  0  0
   10.0258  -15.1265    0.0000 C   0  0  0  0  0  0  0  0  0  0  0  0
    7.8432  -13.9660    0.0000 C   0  0  0  0  0  0  0  0  0  0  0  0
    7.8432  -13.1410    0.0000 N   0  0  0  0  0  0  0  0  0  0  0  0
   -1.4450  -12.7285    0.0000 N   0  0  0  0  0  0  0  0  0  0  0  0
  1  2  1  0  0  0  0
  2  3  1  0  0  0  0
  3  4  2  0  0  0  0
  3  5  1  0  0  0  0
  5  6  1  0  0  0  0
  6  7  1  6  0  0  0
  6  8  1  0  0  0  0
  8  9  2  0  0  0  0
  8 10  1  0  0  0  0
 10 11  1  0  0  0  0
 11 12  1  0  0  0  0
 12 13  1  0  0  0  0
 13 14  1  0  0  0  0
 14 15  2  0  0  0  0
 15 16  1  0  0  0  0
 16 17  2  0  0  0  0
 17 18  1  0  0  0  0
 18 19  2  0  0  0  0
 14 19  1  0  0  0  0
 17 20  1  0  0  0  0
 20 21  2  0  0  0  0
 21 22  1  0  0  0  0
 22 23  2  0  0  0  0
 23 24  1  0  0  0  0
 24 25  2  0  0  0  0
 20 25  1  0  0  0  0
 25 26  1  0  0  0  0
 26 27  3  0  0  0  0
 24 28  1  0  0  0  0
 28 29  1  0  0  0  0
 29 30  1  0  0  0  0
 30 31  2  0  0  0  0
 31 32  1  0  0  0  0
 32 33  1  0  0  0  0
 33 34  2  0  0  0  0
 30 34  1  0  0  0  0
 33 35  1  0  0  0  0
 35 36  2  0  0  0  0
 36 37  1  0  0  0  0
 37 38  2  0  0  0  0
 38 39  1  0  0  0  0
 39 40  2  0  0  0  0
 35 40  1  0  0  0  0
 38 41  1  0  0  0  0
 22 42  1  0  0  0  0
 42 43  1  0  0  0  0
 43 44  1  0  0  0  0
 44 45  1  0  0  0  0
 45 46  1  0  0  0  0
 42 46  1  0  0  0  0
 21 47  1  0  0  0  0
 47 48  3  0  0  0  0
  2 49  1  6  0  0  0
M  END
> <DATABASE_ID>
DB13138

> <DATABASE_NAME>
drugbank

> <SMILES>
C[C@H](N)C(=O)N[C@@H](C)C(=O)OCCOC1=CC=C(C=C1)C1=C(C#N)C(=NC(SCC2=CSC(=N2)C2=CC=C(Cl)C=C2)=C1C#N)N1CCCC1

> <INCHI_IDENTIFIER>
InChI=1S/C35H34ClN7O4S2/c1-21(39)32(44)40-22(2)35(45)47-16-15-46-27-11-7-23(8-12-27)30-28(17-37)31(43-13-3-4-14-43)42-34(29(30)18-38)49-20-26-19-48-33(41-26)24-5-9-25(36)10-6-24/h5-12,19,21-22H,3-4,13-16,20,39H2,1-2H3,(H,40,44)/t21-,22-/m0/s1

> <INCHI_KEY>
WESNEIGKOAXSGX-VXKWHMMOSA-N

> <FORMULA>
C35H34ClN7O4S2

> <MOLECULAR_WEIGHT>
716.27

> <EXACT_MASS>
715.1802227

> <JCHEM_ACCEPTOR_COUNT>
9

> <JCHEM_ATOM_COUNT>
83

> <JCHEM_AVERAGE_POLARIZABILITY>
73.36580289352287

> <JCHEM_BIOAVAILABILITY>
0

> <JCHEM_DONOR_COUNT>
2

> <JCHEM_FORMAL_CHARGE>
0

> <JCHEM_GHOSE_FILTER>
0

> <JCHEM_IUPAC>
2-{4-[2-({[2-(4-chlorophenyl)-1,3-thiazol-4-yl]methyl}sulfanyl)-3,5-dicyano-6-(pyrrolidin-1-yl)pyridin-4-yl]phenoxy}ethyl (2S)-2-[(2S)-2-aminopropanamido]propanoate

> <ALOGPS_LOGP>
5.05

> <JCHEM_LOGP>
5.929651007

> <ALOGPS_LOGS>
-4.88

> <JCHEM_MDDR_LIKE_RULE>
1

> <JCHEM_NUMBER_OF_RINGS>
5

> <JCHEM_PHYSIOLOGICAL_CHARGE>
1

> <JCHEM_PKA_STRONGEST_ACIDIC>
12.201223675250228

> <JCHEM_PKA_STRONGEST_BASIC>
8.387451407609877

> <JCHEM_POLAR_SURFACE_AREA>
167.25

> <JCHEM_REFRACTIVITY>
202.24679999999992

> <JCHEM_ROTATABLE_BOND_COUNT>
14

> <JCHEM_RULE_OF_FIVE>
0

> <ALOGPS_SOLUBILITY>
9.45e-03 g/l

> <JCHEM_TRADITIONAL_IUPAC>
2-{4-[2-({[2-(4-chlorophenyl)-1,3-thiazol-4-yl]methyl}sulfanyl)-3,5-dicyano-6-(pyrrolidin-1-yl)pyridin-4-yl]phenoxy}ethyl (2S)-2-[(2S)-2-aminopropanamido]propanoate

> <JCHEM_VEBER_RULE>
0

> <DRUGBANK_ID>
DB13138

> <DRUG_GROUPS>
investigational

> <GENERIC_NAME>
Neladenoson bialanate

> <SYNONYMS>
Neladenoson bialanate

$$$$
