
  Mrv1909 05201914592D          

 17 18  0  0  1  0            999 V2000
   -2.8579    1.6500    0.0000 N   0  0  0  0  0  0  0  0  0  0  0  0
   -2.1434    1.2375    0.0000 S   0  0  0  0  0  0  0  0  0  0  0  0
   -2.5559    0.5230    0.0000 O   0  0  0  0  0  0  0  0  0  0  0  0
   -1.7309    1.9520    0.0000 O   0  0  0  0  0  0  0  0  0  0  0  0
   -1.4289    0.8250    0.0000 N   0  0  0  0  0  0  0  0  0  0  0  0
   -1.4289    0.0000    0.0000 C   0  0  0  0  0  0  0  0  0  0  0  0
   -0.7145   -0.4125    0.0000 C   0  0  1  0  0  0  0  0  0  0  0  0
   -0.7145   -1.2375    0.0000 C   0  0  0  0  0  0  0  0  0  0  0  0
    0.0000   -1.6500    0.0000 O   0  0  0  0  0  0  0  0  0  0  0  0
    0.7145   -1.2375    0.0000 C   0  0  0  0  0  0  0  0  0  0  0  0
    0.7145   -0.4125    0.0000 C   0  0  0  0  0  0  0  0  0  0  0  0
    0.0000   -0.0000    0.0000 O   0  0  0  0  0  0  0  0  0  0  0  0
    1.4289   -0.0000    0.0000 C   0  0  0  0  0  0  0  0  0  0  0  0
    2.1434   -0.4125    0.0000 C   0  0  0  0  0  0  0  0  0  0  0  0
    2.1434   -1.2375    0.0000 C   0  0  0  0  0  0  0  0  0  0  0  0
    2.8579   -1.6500    0.0000 Cl  0  0  0  0  0  0  0  0  0  0  0  0
    1.4289   -1.6500    0.0000 C   0  0  0  0  0  0  0  0  0  0  0  0
  1  2  1  0  0  0  0
  2  3  2  0  0  0  0
  2  4  2  0  0  0  0
  2  5  1  0  0  0  0
  5  6  1  0  0  0  0
  7  6  1  6  0  0  0
  7  8  1  0  0  0  0
  8  9  1  0  0  0  0
  9 10  1  0  0  0  0
 10 11  2  0  0  0  0
 11 12  1  0  0  0  0
  7 12  1  0  0  0  0
 11 13  1  0  0  0  0
 13 14  2  0  0  0  0
 14 15  1  0  0  0  0
 15 16  1  0  0  0  0
 15 17  2  0  0  0  0
 10 17  1  0  0  0  0
M  END
> <DATABASE_ID>
DB15203

> <DATABASE_NAME>
drugbank

> <SMILES>
NS(=O)(=O)NC[C@H]1COC2=C(O1)C=CC(Cl)=C2

> <INCHI_IDENTIFIER>
InChI=1S/C9H11ClN2O4S/c10-6-1-2-8-9(3-6)15-5-7(16-8)4-12-17(11,13)14/h1-3,7,12H,4-5H2,(H2,11,13,14)/t7-/m0/s1

> <INCHI_KEY>
KXSAIQPPGSSNKX-ZETCQYMHSA-N

> <FORMULA>
C9H11ClN2O4S

> <MOLECULAR_WEIGHT>
278.71

> <EXACT_MASS>
278.0128057

> <JCHEM_ACCEPTOR_COUNT>
5

> <JCHEM_ATOM_COUNT>
28

> <JCHEM_AVERAGE_POLARIZABILITY>
25.57997491620391

> <JCHEM_BIOAVAILABILITY>
1

> <JCHEM_DONOR_COUNT>
2

> <JCHEM_FORMAL_CHARGE>
0

> <JCHEM_GHOSE_FILTER>
1

> <JCHEM_IUPAC>
N-{[(2S)-6-chloro-2,3-dihydro-1,4-benzodioxin-2-yl]methyl}aminosulfonamide

> <ALOGPS_LOGP>
1.31

> <JCHEM_LOGP>
0.21103729266666685

> <ALOGPS_LOGS>
-2.17

> <JCHEM_MDDR_LIKE_RULE>
0

> <JCHEM_NUMBER_OF_RINGS>
2

> <JCHEM_PHYSIOLOGICAL_CHARGE>
0

> <JCHEM_PKA>
12.56029075113497

> <JCHEM_PKA_STRONGEST_ACIDIC>
10.210907602515961

> <JCHEM_PKA_STRONGEST_BASIC>
0.23479009404867723

> <JCHEM_POLAR_SURFACE_AREA>
90.65

> <JCHEM_REFRACTIVITY>
61.25970000000001

> <JCHEM_ROTATABLE_BOND_COUNT>
2

> <JCHEM_RULE_OF_FIVE>
1

> <ALOGPS_SOLUBILITY>
1.90e+00 g/l

> <JCHEM_TRADITIONAL_IUPAC>
(2R)-14-fluoro-2-methyl-6,9,10,19-tetraazapentacyclo[14.2.1.0^{2,6}.0^{8,18}.0^{12,17}]nonadeca-1(18),8,12(17),13,15-pentaen-11-one

> <JCHEM_VEBER_RULE>
0

> <DRUGBANK_ID>
DB15203

> <DRUG_GROUPS>
investigational

> <GENERIC_NAME>
JNJ-26489112

$$$$
