
  Mrv1652310211603372D          

 32 36  0  0  0  0            999 V2000
   -2.9900   -7.8139    0.0000 C   0  0  0  0  0  0  0  0  0  0  0  0
   -2.7351   -7.0293    0.0000 O   0  0  0  0  0  0  0  0  0  0  0  0
   -1.9281   -6.8577    0.0000 C   0  0  0  0  0  0  0  0  0  0  0  0
   -1.6731   -6.0731    0.0000 C   0  0  0  0  0  0  0  0  0  0  0  0
   -0.8662   -5.9016    0.0000 C   0  0  0  0  0  0  0  0  0  0  0  0
   -0.3141   -6.5147    0.0000 C   0  0  0  0  0  0  0  0  0  0  0  0
   -0.5691   -7.2993    0.0000 C   0  0  0  0  0  0  0  0  0  0  0  0
   -1.3760   -7.4708    0.0000 C   0  0  0  0  0  0  0  0  0  0  0  0
   -1.6310   -8.2554    0.0000 Cl  0  0  0  0  0  0  0  0  0  0  0  0
   -0.6112   -5.1170    0.0000 N   0  0  0  0  0  0  0  0  0  0  0  0
   -1.1633   -4.5039    0.0000 C   0  0  0  0  0  0  0  0  0  0  0  0
   -0.9083   -3.7192    0.0000 C   0  0  0  0  0  0  0  0  0  0  0  0
   -0.1014   -3.5477    0.0000 N   0  0  0  0  0  0  0  0  0  0  0  0
    0.4507   -4.1608    0.0000 C   0  0  0  0  0  0  0  0  0  0  0  0
    0.1957   -4.9454    0.0000 C   0  0  0  0  0  0  0  0  0  0  0  0
    0.1536   -2.7631    0.0000 C   0  0  0  0  0  0  0  0  0  0  0  0
    0.9606   -2.5916    0.0000 O   0  0  0  0  0  0  0  0  0  0  0  0
   -0.3984   -2.1500    0.0000 C   0  0  0  0  0  0  0  0  0  0  0  0
   -0.1435   -1.3654    0.0000 N   0  0  0  0  0  0  0  0  0  0  0  0
    0.6411   -1.1104    0.0000 C   0  0  0  0  0  0  0  0  0  0  0  0
    0.6411   -0.2854    0.0000 C   0  0  0  0  0  0  0  0  0  0  0  0
    1.3556    0.1271    0.0000 C   0  0  0  0  0  0  0  0  0  0  0  0
    2.0701   -0.2854    0.0000 C   0  0  0  0  0  0  0  0  0  0  0  0
    2.0701   -1.1104    0.0000 C   0  0  0  0  0  0  0  0  0  0  0  0
    1.3556   -1.5229    0.0000 N   0  0  0  0  0  0  0  0  0  0  0  0
   -0.1435   -0.0305    0.0000 C   0  0  0  0  0  0  0  0  0  0  0  0
   -0.6284   -0.6979    0.0000 N   0  0  0  0  0  0  0  0  0  0  0  0
   -0.3984    0.7541    0.0000 C   0  0  0  0  0  0  0  0  0  0  0  0
   -1.1831    1.0091    0.0000 N   0  0  0  0  0  0  0  0  0  0  0  0
   -1.1831    1.8341    0.0000 C   0  0  0  0  0  0  0  0  0  0  0  0
   -0.3984    2.0890    0.0000 C   0  0  0  0  0  0  0  0  0  0  0  0
    0.0865    1.4216    0.0000 N   0  0  0  0  0  0  0  0  0  0  0  0
  1  2  1  0  0  0  0
  2  3  1  0  0  0  0
  3  4  2  0  0  0  0
  4  5  1  0  0  0  0
  5  6  2  0  0  0  0
  6  7  1  0  0  0  0
  7  8  2  0  0  0  0
  3  8  1  0  0  0  0
  8  9  1  0  0  0  0
  5 10  1  0  0  0  0
 10 11  1  0  0  0  0
 11 12  1  0  0  0  0
 12 13  1  0  0  0  0
 13 14  1  0  0  0  0
 14 15  1  0  0  0  0
 10 15  1  0  0  0  0
 13 16  1  0  0  0  0
 16 17  2  0  0  0  0
 16 18  1  0  0  0  0
 18 19  1  0  0  0  0
 19 20  1  0  0  0  0
 20 21  1  0  0  0  0
 21 22  2  0  0  0  0
 22 23  1  0  0  0  0
 23 24  2  0  0  0  0
 24 25  1  0  0  0  0
 20 25  2  0  0  0  0
 21 26  1  0  0  0  0
 26 27  2  0  0  0  0
 19 27  1  0  0  0  0
 26 28  1  0  0  0  0
 28 29  1  0  0  0  0
 29 30  1  0  0  0  0
 30 31  2  0  0  0  0
 31 32  1  0  0  0  0
 28 32  2  0  0  0  0
M  END
> <DATABASE_ID>
DB12963

> <DATABASE_NAME>
drugbank

> <SMILES>
COC1=CC(=CC=C1Cl)N1CCN(CC1)C(=O)CN1N=C(C2=NC=CN2)C2=CC=CN=C12

> <INCHI_IDENTIFIER>
InChI=1S/C22H22ClN7O2/c1-32-18-13-15(4-5-17(18)23)28-9-11-29(12-10-28)19(31)14-30-22-16(3-2-6-26-22)20(27-30)21-24-7-8-25-21/h2-8,13H,9-12,14H2,1H3,(H,24,25)

> <INCHI_KEY>
ZIMLRKWQDLVPEK-UHFFFAOYSA-N

> <FORMULA>
C22H22ClN7O2

> <MOLECULAR_WEIGHT>
451.92

> <EXACT_MASS>
451.1523507

> <JCHEM_ACCEPTOR_COUNT>
6

> <JCHEM_ATOM_COUNT>
54

> <JCHEM_AVERAGE_POLARIZABILITY>
47.605323590309936

> <JCHEM_BIOAVAILABILITY>
1

> <JCHEM_DONOR_COUNT>
1

> <JCHEM_FORMAL_CHARGE>
0

> <JCHEM_GHOSE_FILTER>
0

> <JCHEM_IUPAC>
1-[4-(4-chloro-3-methoxyphenyl)piperazin-1-yl]-2-[3-(1H-imidazol-2-yl)-1H-pyrazolo[3,4-b]pyridin-1-yl]ethan-1-one

> <ALOGPS_LOGP>
3.03

> <JCHEM_LOGP>
2.164929958666667

> <ALOGPS_LOGS>
-3.60

> <JCHEM_MDDR_LIKE_RULE>
0

> <JCHEM_NUMBER_OF_RINGS>
5

> <JCHEM_PHYSIOLOGICAL_CHARGE>
0

> <JCHEM_PKA_STRONGEST_ACIDIC>
11.154290462291598

> <JCHEM_PKA_STRONGEST_BASIC>
5.047825258153023

> <JCHEM_POLAR_SURFACE_AREA>
92.17

> <JCHEM_REFRACTIVITY>
142.28599999999997

> <JCHEM_ROTATABLE_BOND_COUNT>
5

> <JCHEM_RULE_OF_FIVE>
1

> <ALOGPS_SOLUBILITY>
1.14e-01 g/l

> <JCHEM_TRADITIONAL_IUPAC>
1-[4-(4-chloro-3-methoxyphenyl)piperazin-1-yl]-2-[3-(1H-imidazol-2-yl)pyrazolo[3,4-b]pyridin-1-yl]ethanone

> <JCHEM_VEBER_RULE>
0

> <DRUGBANK_ID>
DB12963

> <DRUG_GROUPS>
investigational

> <GENERIC_NAME>
CCX-354

$$$$
