
  Mrv1909 01032020492D          

 20 21  0  0  0  0            999 V2000
    1.5627    2.0804    0.0000 P   0  0  0  0  0  0  0  0  0  0  0  0
    0.5695   -0.2659    0.0000 O   0  0  0  0  0  0  0  0  0  0  0  0
    2.6095   -0.8951    0.0000 O   0  0  0  0  0  0  0  0  0  0  0  0
    1.2271    1.3267    0.0000 O   0  0  0  0  0  0  0  0  0  0  0  0
    1.8982    2.8340    0.0000 O   0  0  0  0  0  0  0  0  0  0  0  0
    0.8090    2.4159    0.0000 O   0  0  0  0  0  0  0  0  0  0  0  0
   -2.3746   -2.7364    0.0000 O   0  0  0  0  0  0  0  0  0  0  0  0
    2.3163    1.7449    0.0000 O   0  0  0  0  0  0  0  0  0  0  0  0
   -0.9457   -2.7364    0.0000 N   0  0  0  0  0  0  0  0  0  0  0  0
    1.7890   -0.8088    0.0000 C   0  0  2  0  0  0  0  0  0  0  0  0
    1.3765   -0.0943    0.0000 C   0  0  1  0  0  0  0  0  0  0  0  0
    1.2369   -1.4219    0.0000 C   0  0  0  0  0  0  0  0  0  0  0  0
    0.4832   -1.0863    0.0000 C   0  0  2  0  0  0  0  0  0  0  0  0
    1.7120    0.6592    0.0000 C   0  0  0  0  0  0  0  0  0  0  0  0
   -0.2311   -1.4988    0.0000 C   0  0  0  0  0  0  0  0  0  0  0  0
   -0.9457   -1.0863    0.0000 C   0  0  0  0  0  0  0  0  0  0  0  0
   -0.2311   -2.3238    0.0000 C   0  0  0  0  0  0  0  0  0  0  0  0
   -1.6601   -1.4988    0.0000 C   0  0  0  0  0  0  0  0  0  0  0  0
   -1.6601   -2.3238    0.0000 C   0  0  0  0  0  0  0  0  0  0  0  0
   -2.3746   -1.0863    0.0000 C   0  0  0  0  0  0  0  0  0  0  0  0
  1  4  1  0  0  0  0
  1  5  1  0  0  0  0
  1  6  1  0  0  0  0
  1  8  2  0  0  0  0
  2 11  1  0  0  0  0
  2 13  1  0  0  0  0
 10  3  1  1  0  0  0
  4 14  1  0  0  0  0
  7 19  2  0  0  0  0
  9 17  1  0  0  0  0
  9 19  1  0  0  0  0
 10 11  1  0  0  0  0
 10 12  1  0  0  0  0
 11 14  1  6  0  0  0
 12 13  1  0  0  0  0
 13 15  1  6  0  0  0
 15 16  1  0  0  0  0
 15 17  2  0  0  0  0
 16 18  2  0  0  0  0
 18 19  1  0  0  0  0
 18 20  1  0  0  0  0
M  END
> <DATABASE_ID>
DB04060

> <DATABASE_NAME>
drugbank

> <SMILES>
CC1=CC(=CNC1=O)[C@H]1C[C@H](O)[C@@H](COP(O)(O)=O)O1

> <INCHI_IDENTIFIER>
InChI=1S/C11H16NO7P/c1-6-2-7(4-12-11(6)14)9-3-8(13)10(19-9)5-18-20(15,16)17/h2,4,8-10,13H,3,5H2,1H3,(H,12,14)(H2,15,16,17)/t8-,9+,10+/m0/s1

> <INCHI_KEY>
MUWYCJQCZPFLFI-IVZWLZJFSA-N

> <FORMULA>
C11H16NO7P

> <MOLECULAR_WEIGHT>
305.221

> <EXACT_MASS>
305.066438383

> <JCHEM_ACCEPTOR_COUNT>
6

> <JCHEM_ATOM_COUNT>
36

> <JCHEM_AVERAGE_NEUTRAL_MICROSPECIES_CHARGE>
-1.9162909720776318

> <JCHEM_AVERAGE_POLARIZABILITY>
27.648472593033365

> <JCHEM_BIOAVAILABILITY>
1

> <JCHEM_DONOR_COUNT>
4

> <JCHEM_FORMAL_CHARGE>
0

> <JCHEM_GHOSE_FILTER>
0

> <JCHEM_IUPAC>
{[(2R,3S,5R)-3-hydroxy-5-(5-methyl-6-oxo-1,6-dihydropyridin-3-yl)oxolan-2-yl]methoxy}phosphonic acid

> <JCHEM_LOGP>
-1.4179050403333329

> <JCHEM_MDDR_LIKE_RULE>
0

> <JCHEM_NEUTRAL_CHARGE>
-2

> <JCHEM_NUMBER_OF_RINGS>
2

> <JCHEM_PHYSIOLOGICAL_CHARGE>
-2

> <JCHEM_PKA>
6.262177197536976

> <JCHEM_PKA_STRONGEST_ACIDIC>
1.236427770765372

> <JCHEM_PKA_STRONGEST_BASIC>
-2.6056117065855884

> <JCHEM_POLAR_SURFACE_AREA>
125.32

> <JCHEM_REFRACTIVITY>
68.57480000000001

> <JCHEM_ROTATABLE_BOND_COUNT>
4

> <JCHEM_RULE_OF_FIVE>
1

> <JCHEM_TRADITIONAL_IUPAC>
(2S)-2-({4-[(2E)-N-({2-amino-4-oxo-1H-pyrido[3,2-d]pyrimidin-6-yl}methyl)-3-{5-carbamoyl-3-[(2R,3R,4S,5R)-3,4-dihydroxy-5-[(phosphonooxy)methyl]oxolan-2-yl]imidazol-4-yl}prop-2-enamido]phenyl}formamido)pentanedioic acid

> <JCHEM_VEBER_RULE>
0

> <DRUGBANK_ID>
DB04060

> <SECONDARY_ACCESSION_NUMBERS>
EXPT02250

> <DRUG_GROUPS>
experimental

> <GENERIC_NAME>
(5-methyl-6-oxo-1,6-dihydro-pyridin-3-yl)-1,2-dideoxy-ribofuranose-5-monophosphate

$$$$
