
  Mrv1652306231722412D          

 23 24  0  0  1  0            999 V2000
   -0.7145   -4.5375    0.0000 C   0  0  0  0  0  0  0  0  0  0  0  0
   -0.7145   -3.7125    0.0000 C   0  0  1  0  0  0  0  0  0  0  0  0
   -1.4289   -3.3000    0.0000 C   0  0  1  0  0  0  0  0  0  0  0  0
   -2.1434   -3.7125    0.0000 C   0  0  0  0  0  0  0  0  0  0  0  0
   -2.1434   -4.5375    0.0000 C   0  0  0  0  0  0  0  0  0  0  0  0
   -2.8579   -4.9500    0.0000 C   0  0  0  0  0  0  0  0  0  0  0  0
   -3.5724   -4.5375    0.0000 C   0  0  0  0  0  0  0  0  0  0  0  0
   -3.5724   -3.7125    0.0000 C   0  0  0  0  0  0  0  0  0  0  0  0
   -2.8579   -3.3000    0.0000 C   0  0  0  0  0  0  0  0  0  0  0  0
   -1.4289   -2.4750    0.0000 O   0  0  0  0  0  0  0  0  0  0  0  0
    0.0000   -3.3000    0.0000 N   0  0  0  0  0  0  0  0  0  0  0  0
    0.7145   -3.7125    0.0000 C   0  0  0  0  0  0  0  0  0  0  0  0
    1.4289   -3.3000    0.0000 C   0  0  0  0  0  0  0  0  0  0  0  0
    2.1434   -3.7125    0.0000 C   0  0  0  0  0  0  0  0  0  0  0  0
    2.1434   -4.5375    0.0000 O   0  0  0  0  0  0  0  0  0  0  0  0
    2.8579   -3.3000    0.0000 C   0  0  0  0  0  0  0  0  0  0  0  0
    2.8579   -2.4750    0.0000 C   0  0  0  0  0  0  0  0  0  0  0  0
    3.5724   -2.0625    0.0000 C   0  0  0  0  0  0  0  0  0  0  0  0
    4.2868   -2.4750    0.0000 C   0  0  0  0  0  0  0  0  0  0  0  0
    4.2868   -3.3000    0.0000 C   0  0  0  0  0  0  0  0  0  0  0  0
    3.5724   -3.7125    0.0000 C   0  0  0  0  0  0  0  0  0  0  0  0
    5.0013   -3.7125    0.0000 O   0  0  0  0  0  0  0  0  0  0  0  0
    5.7158   -3.3000    0.0000 C   0  0  0  0  0  0  0  0  0  0  0  0
  2  1  1  1  0  0  0
  2  3  1  0  0  0  0
  3  4  1  0  0  0  0
  4  5  2  0  0  0  0
  5  6  1  0  0  0  0
  6  7  2  0  0  0  0
  7  8  1  0  0  0  0
  8  9  2  0  0  0  0
  4  9  1  0  0  0  0
  3 10  1  1  0  0  0
  2 11  1  0  0  0  0
 11 12  1  0  0  0  0
 12 13  1  0  0  0  0
 13 14  1  0  0  0  0
 14 15  2  0  0  0  0
 14 16  1  0  0  0  0
 16 17  2  0  0  0  0
 17 18  1  0  0  0  0
 18 19  2  0  0  0  0
 19 20  1  0  0  0  0
 20 21  2  0  0  0  0
 16 21  1  0  0  0  0
 20 22  1  0  0  0  0
 22 23  1  0  0  0  0
M  END
> <DATABASE_ID>
DB13398

> <DATABASE_NAME>
drugbank

> <SMILES>
COC1=CC(=CC=C1)C(=O)CCN[C@@H](C)[C@H](O)C1=CC=CC=C1

> <INCHI_IDENTIFIER>
InChI=1S/C19H23NO3/c1-14(19(22)15-7-4-3-5-8-15)20-12-11-18(21)16-9-6-10-17(13-16)23-2/h3-10,13-14,19-20,22H,11-12H2,1-2H3/t14-,19-/m0/s1

> <INCHI_KEY>
GDYUVHBMFVMBAF-LIRRHRJNSA-N

> <FORMULA>
C19H23NO3

> <MOLECULAR_WEIGHT>
313.397

> <EXACT_MASS>
313.167793605

> <JCHEM_ACCEPTOR_COUNT>
4

> <JCHEM_ATOM_COUNT>
46

> <JCHEM_AVERAGE_POLARIZABILITY>
34.912207170026406

> <JCHEM_BIOAVAILABILITY>
1

> <JCHEM_DONOR_COUNT>
2

> <JCHEM_FORMAL_CHARGE>
0

> <JCHEM_GHOSE_FILTER>
1

> <JCHEM_IUPAC>
3-{[(1R,2S)-1-hydroxy-1-phenylpropan-2-yl]amino}-1-(3-methoxyphenyl)propan-1-one

> <ALOGPS_LOGP>
2.39

> <JCHEM_LOGP>
2.6293985563333333

> <ALOGPS_LOGS>
-4.16

> <JCHEM_MDDR_LIKE_RULE>
0

> <JCHEM_NUMBER_OF_RINGS>
2

> <JCHEM_PHYSIOLOGICAL_CHARGE>
1

> <JCHEM_PKA>
15.608844885401318

> <JCHEM_PKA_STRONGEST_ACIDIC>
13.880431377864554

> <JCHEM_PKA_STRONGEST_BASIC>
9.06361802109906

> <JCHEM_POLAR_SURFACE_AREA>
58.56

> <JCHEM_REFRACTIVITY>
90.75160000000002

> <JCHEM_ROTATABLE_BOND_COUNT>
8

> <JCHEM_RULE_OF_FIVE>
1

> <ALOGPS_SOLUBILITY>
2.17e-02 g/l

> <JCHEM_TRADITIONAL_IUPAC>
3-{[(1R,2S)-1-hydroxy-1-phenylpropan-2-yl]amino}-1-(3-methoxyphenyl)propan-1-one

> <JCHEM_VEBER_RULE>
0

> <DRUGBANK_ID>
DB13398

> <DRUG_GROUPS>
experimental

> <GENERIC_NAME>
Oxyfedrine

> <SYNONYMS>
Oxyfedrine

$$$$
