
  Mrv1652304061700212D          

 33 35  0  0  1  0            999 V2000
    1.9520    2.5559    0.0000 C   0  0  0  0  0  0  0  0  0  0  0  0
    2.3645    1.8414    0.0000 O   0  0  0  0  0  0  0  0  0  0  0  0
    1.9520    1.1270    0.0000 C   0  0  2  0  0  0  0  0  0  0  0  0
    2.3645    0.4125    0.0000 C   0  0  1  0  0  0  0  0  0  0  0  0
    1.9520   -0.3020    0.0000 C   0  0  0  0  0  0  0  0  0  0  0  0
    1.1270   -0.3020    0.0000 C   0  0  0  0  0  0  0  0  0  0  0  0
    0.7145    0.4125    0.0000 C   0  0  1  0  0  0  0  0  0  0  0  0
   -0.0000    0.0000    0.0000 C   0  0  0  0  0  0  0  0  0  0  0  0
    0.0000    0.8250    0.0000 O   0  0  0  0  0  0  0  0  0  0  0  0
    1.1270    1.1270    0.0000 C   0  0  1  0  0  0  0  0  0  0  0  0
    0.7145    1.8414    0.0000 C   0  0  1  0  0  0  0  0  0  0  0  0
    1.3465    2.3717    0.0000 C   0  0  0  0  0  0  0  0  0  0  0  0
   -0.0608    1.5593    0.0000 O   0  0  0  0  0  0  0  0  0  0  0  0
    0.0825    2.3717    0.0000 C   0  0  2  0  0  0  0  0  0  0  0  0
   -0.1997    3.1470    0.0000 C   0  0  0  0  0  0  0  0  0  0  0  0
   -1.0121    3.2902    0.0000 C   0  0  0  0  0  0  0  0  0  0  0  0
   -1.2943    4.0655    0.0000 C   0  0  0  0  0  0  0  0  0  0  0  0
   -2.1068    4.2088    0.0000 C   0  0  0  0  0  0  0  0  0  0  0  0
   -0.7640    4.6975    0.0000 C   0  0  0  0  0  0  0  0  0  0  0  0
    3.1895    0.4125    0.0000 O   0  0  0  0  0  0  0  0  0  0  0  0
    3.6020   -0.3020    0.0000 C   0  0  0  0  0  0  0  0  0  0  0  0
    3.1895   -1.0164    0.0000 O   0  0  0  0  0  0  0  0  0  0  0  0
    4.4270   -0.3020    0.0000 C   0  0  0  0  0  0  0  0  0  0  0  0
    4.8395   -1.0164    0.0000 C   0  0  0  0  0  0  0  0  0  0  0  0
    5.6645   -1.0164    0.0000 C   0  0  0  0  0  0  0  0  0  0  0  0
    6.0770   -1.7309    0.0000 C   0  0  0  0  0  0  0  0  0  0  0  0
    6.9020   -1.7309    0.0000 C   0  0  0  0  0  0  0  0  0  0  0  0
    7.3145   -2.4454    0.0000 C   0  0  0  0  0  0  0  0  0  0  0  0
    8.1395   -2.4454    0.0000 C   0  0  0  0  0  0  0  0  0  0  0  0
    8.5520   -3.1599    0.0000 C   0  0  0  0  0  0  0  0  0  0  0  0
    9.3770   -3.1599    0.0000 C   0  0  0  0  0  0  0  0  0  0  0  0
    9.7895   -2.4454    0.0000 O   0  0  0  0  0  0  0  0  0  0  0  0
    9.7895   -3.8743    0.0000 O   0  0  0  0  0  0  0  0  0  0  0  0
  1  2  1  0  0  0  0
  3  2  1  6  0  0  0
  3  4  1  0  0  0  0
  4  5  1  0  0  0  0
  5  6  1  0  0  0  0
  6  7  1  0  0  0  0
  7  8  1  0  0  0  0
  8  9  1  0  0  0  0
  7  9  1  1  0  0  0
  7 10  1  0  0  0  0
  3 10  1  0  0  0  0
 10 11  1  1  0  0  0
 11 12  1  6  0  0  0
 11 13  1  6  0  0  0
 13 14  1  0  0  0  0
 11 14  1  0  0  0  0
 14 15  1  6  0  0  0
 15 16  1  0  0  0  0
 16 17  2  0  0  0  0
 17 18  1  0  0  0  0
 17 19  1  0  0  0  0
  4 20  1  6  0  0  0
 20 21  1  0  0  0  0
 21 22  2  0  0  0  0
 21 23  1  0  0  0  0
 23 24  2  0  0  0  0
 24 25  1  0  0  0  0
 25 26  2  0  0  0  0
 26 27  1  0  0  0  0
 27 28  2  0  0  0  0
 28 29  1  0  0  0  0
 29 30  2  0  0  0  0
 30 31  1  0  0  0  0
 31 32  1  0  0  0  0
 31 33  2  0  0  0  0
M  END
> <DATABASE_ID>
DB02640

> <DATABASE_NAME>
drugbank

> <SMILES>
CO[C@@H]1[C@@H](CC[C@]2(CO2)[C@H]1[C@@]1(C)O[C@@H]1CC=C(C)C)OC(=O)\C=C\C=C\C=C\C=C\C(O)=O

> <INCHI_IDENTIFIER>
InChI=1S/C26H34O7/c1-18(2)13-14-20-25(3,33-20)24-23(30-4)19(15-16-26(24)17-31-26)32-22(29)12-10-8-6-5-7-9-11-21(27)28/h5-13,19-20,23-24H,14-17H2,1-4H3,(H,27,28)/b7-5+,8-6+,11-9+,12-10+/t19-,20-,23-,24-,25+,26+/m1/s1

> <INCHI_KEY>
NGGMYCMLYOUNGM-CSDLUJIJSA-N

> <FORMULA>
C26H34O7

> <MOLECULAR_WEIGHT>
458.551

> <EXACT_MASS>
458.230453435

> <JCHEM_ACCEPTOR_COUNT>
6

> <JCHEM_ATOM_COUNT>
67

> <JCHEM_AVERAGE_POLARIZABILITY>
51.132769198335275

> <JCHEM_BIOAVAILABILITY>
1

> <JCHEM_DONOR_COUNT>
1

> <JCHEM_FORMAL_CHARGE>
0

> <JCHEM_GHOSE_FILTER>
1

> <JCHEM_IUPAC>
(2E,4E,6E,8E)-10-{[(3R,4S,5S,6R)-5-methoxy-4-[(2R,3R)-2-methyl-3-(3-methylbut-2-en-1-yl)oxiran-2-yl]-1-oxaspiro[2.5]octan-6-yl]oxy}-10-oxodeca-2,4,6,8-tetraenoic acid

> <ALOGPS_LOGP>
4.61

> <JCHEM_LOGP>
4.048655004333334

> <ALOGPS_LOGS>
-5.14

> <JCHEM_MDDR_LIKE_RULE>
1

> <JCHEM_NUMBER_OF_RINGS>
3

> <JCHEM_PHYSIOLOGICAL_CHARGE>
-1

> <JCHEM_PKA_STRONGEST_ACIDIC>
4.884221257749687

> <JCHEM_PKA_STRONGEST_BASIC>
-3.7145709603878383

> <JCHEM_POLAR_SURFACE_AREA>
97.88999999999999

> <JCHEM_REFRACTIVITY>
128.3748

> <JCHEM_ROTATABLE_BOND_COUNT>
11

> <JCHEM_RULE_OF_FIVE>
1

> <ALOGPS_SOLUBILITY>
3.30e-03 g/l

> <JCHEM_TRADITIONAL_IUPAC>
fumagillin

> <JCHEM_VEBER_RULE>
0

> <DRUGBANK_ID>
DB02640

> <SECONDARY_ACCESSION_NUMBERS>
EXPT01509

> <DRUG_GROUPS>
experimental

> <GENERIC_NAME>
Fumagillin

> <SYNONYMS>
fumagilina; Fumagillin

> <INTERNATIONAL_BRANDS>
Flisint; Fugillin; Furnidil

$$$$
