
  Mrv1718007031813332D          

 45 48  0  0  0  0            999 V2000
   -3.6289   -0.3767    0.0000 C   0  0  0  0  0  0  0  0  0  0  0  0
   -4.3603   -0.7827    0.0000 C   0  0  0  0  0  0  0  0  0  0  0  0
   -4.3810   -1.6075    0.0000 C   0  0  0  0  0  0  0  0  0  0  0  0
   -2.9180   -0.7955    0.0000 C   0  0  0  0  0  0  0  0  0  0  0  0
   -2.9183   -1.6568    0.0000 C   0  0  0  0  0  0  0  0  0  0  0  0
   -3.6499   -2.0628    0.0000 C   0  0  0  0  0  0  0  0  0  0  0  0
   -2.9963   -3.3266    0.0000 C   0  0  0  0  0  0  0  0  0  0  0  0
   -2.2647   -2.9206    0.0000 C   0  0  0  0  0  0  0  0  0  0  0  0
   -2.2075   -2.0755    0.0000 N   0  0  0  0  0  0  0  0  0  0  0  0
   -1.5336   -3.3759    0.0000 O   0  0  0  0  0  0  0  0  0  0  0  0
   -3.6083    0.4479    0.0000 O   0  0  0  0  0  0  0  0  0  0  0  0
   -2.8553    0.8661    0.0000 C   0  0  0  0  0  0  0  0  0  0  0  0
   -2.1442    0.4479    0.0000 C   0  0  0  0  0  0  0  0  0  0  0  0
   -1.4332    0.8661    0.0000 C   0  0  0  0  0  0  0  0  0  0  0  0
   -0.6803    0.4479    0.0000 C   0  0  0  0  0  0  0  0  0  0  0  0
    0.0726    0.8661    0.0000 N   0  0  0  0  0  0  0  0  0  0  0  0
    0.7419    0.4479    0.0000 C   0  0  0  0  0  0  0  0  0  0  0  0
    1.4947    0.8661    0.0000 C   0  0  0  0  0  0  0  0  0  0  0  0
    1.4947    1.7027    0.0000 N   0  0  0  0  0  0  0  0  0  0  0  0
    0.7419    2.1210    0.0000 C   0  0  0  0  0  0  0  0  0  0  0  0
    0.0726    1.7027    0.0000 C   0  0  0  0  0  0  0  0  0  0  0  0
    2.2058    2.1210    0.0000 C   0  0  0  0  0  0  0  0  0  0  0  0
    2.9168    1.7027    0.0000 C   0  0  0  0  0  0  0  0  0  0  0  0
    3.6698    2.1210    0.0000 C   0  0  0  0  0  0  0  0  0  0  0  0
    3.6698    2.9577    0.0000 C   0  0  0  0  0  0  0  0  0  0  0  0
    2.9168    3.3759    0.0000 C   0  0  0  0  0  0  0  0  0  0  0  0
    2.2058    2.9577    0.0000 C   0  0  0  0  0  0  0  0  0  0  0  0
    2.9168    0.8661    0.0000 Cl  0  0  0  0  0  0  0  0  0  0  0  0
    4.3810    1.7027    0.0000 Cl  0  0  0  0  0  0  0  0  0  0  0  0
   -3.6705   -2.8875    0.0000 C   0  0  0  0  0  0  0  0  0  0  0  0
   -1.4778   -1.6905    0.0000 C   0  0  0  0  0  0  0  0  0  0  0  0
   -0.7797   -2.1300    0.0000 O   0  0  0  0  0  0  0  0  0  0  0  0
    2.0771   -2.1105    0.0000 C   0  0  0  0  0  0  0  0  0  0  0  0
    2.0771   -2.9355    0.0000 C   0  0  0  0  0  0  0  0  0  0  0  0
    2.7915   -1.6981    0.0000 C   0  0  0  0  0  0  0  0  0  0  0  0
    2.7915   -3.3480    0.0000 C   0  0  0  0  0  0  0  0  0  0  0  0
    3.5061   -2.1105    0.0000 C   0  0  0  0  0  0  0  0  0  0  0  0
    3.5061   -2.9355    0.0000 C   0  0  0  0  0  0  0  0  0  0  0  0
    0.6482   -2.1105    0.0000 C   0  0  0  0  0  0  0  0  0  0  0  0
    0.6482   -2.9355    0.0000 C   0  0  0  0  0  0  0  0  0  0  0  0
    1.3627   -1.6981    0.0000 C   0  0  0  0  0  0  0  0  0  0  0  0
    1.3627   -3.3480    0.0000 C   0  0  0  0  0  0  0  0  0  0  0  0
   -0.0708   -1.7080    0.0000 C   0  0  0  0  0  0  0  0  0  0  0  0
   -0.0819   -0.8832    0.0000 O   0  0  0  0  0  0  0  0  0  0  0  0
   -0.0661   -3.3480    0.0000 C   0  0  0  0  0  0  0  0  0  0  0  0
  5  4  2  0  0  0  0
 14 15  1  0  0  0  0
  5  6  1  0  0  0  0
 15 16  1  0  0  0  0
 30  7  1  0  0  0  0
  7  8  1  0  0  0  0
  8  9  1  0  0  0  0
  9  5  1  0  0  0  0
  4  1  1  0  0  0  0
 16 17  1  0  0  0  0
 17 18  1  0  0  0  0
 18 19  1  0  0  0  0
 19 20  1  0  0  0  0
 20 21  1  0  0  0  0
 21 16  1  0  0  0  0
  8 10  2  0  0  0  0
 19 22  1  0  0  0  0
  1 11  1  0  0  0  0
  1  2  2  0  0  0  0
 11 12  1  0  0  0  0
  2  3  1  0  0  0  0
 22 23  2  0  0  0  0
 23 24  1  0  0  0  0
 24 25  2  0  0  0  0
 25 26  1  0  0  0  0
 26 27  2  0  0  0  0
 27 22  1  0  0  0  0
 12 13  1  0  0  0  0
 23 28  1  0  0  0  0
  3  6  2  0  0  0  0
 24 29  1  0  0  0  0
 13 14  1  0  0  0  0
  6 30  1  0  0  0  0
  9 31  1  0  0  0  0
 31 32  1  0  0  0  0
 35 33  1  0  0  0  0
 36 34  1  0  0  0  0
 37 35  1  0  0  0  0
 38 36  1  0  0  0  0
 38 37  1  0  0  0  0
 41 39  1  0  0  0  0
 42 40  1  0  0  0  0
 33 41  1  0  0  0  0
 34 42  1  0  0  0  0
 39 43  1  0  0  0  0
 43 32  1  0  0  0  0
 43 44  2  0  0  0  0
 40 45  1  0  0  0  0
M  END
> <DATABASE_ID>
DB14185

> <DATABASE_NAME>
drugbank

> <SMILES>
CCCCCCCCCCCC(=O)OCN1C(=O)CCC2=CC=C(OCCCCN3CCN(CC3)C3=C(Cl)C(Cl)=CC=C3)C=C12

> <INCHI_IDENTIFIER>
InChI=1S/C36H51Cl2N3O4/c1-2-3-4-5-6-7-8-9-10-16-35(43)45-28-41-33-27-30(19-17-29(33)18-20-34(41)42)44-26-12-11-21-39-22-24-40(25-23-39)32-15-13-14-31(37)36(32)38/h13-15,17,19,27H,2-12,16,18,20-26,28H2,1H3

> <INCHI_KEY>
DDINXHAORAAYAD-UHFFFAOYSA-N

> <FORMULA>
C36H51Cl2N3O4

> <MOLECULAR_WEIGHT>
660.72

> <EXACT_MASS>
659.3256625

> <JCHEM_ACCEPTOR_COUNT>
5

> <JCHEM_ATOM_COUNT>
96

> <JCHEM_AVERAGE_POLARIZABILITY>
76.94560470813805

> <JCHEM_BIOAVAILABILITY>
0

> <JCHEM_DONOR_COUNT>
0

> <JCHEM_FORMAL_CHARGE>
0

> <JCHEM_GHOSE_FILTER>
0

> <JCHEM_IUPAC>
(7-{4-[4-(2,3-dichlorophenyl)piperazin-1-yl]butoxy}-2-oxo-1,2,3,4-tetrahydroquinolin-1-yl)methyl dodecanoate

> <ALOGPS_LOGP>
7.91

> <JCHEM_LOGP>
9.328087900666665

> <ALOGPS_LOGS>
-6.44

> <JCHEM_MDDR_LIKE_RULE>
1

> <JCHEM_NUMBER_OF_RINGS>
4

> <JCHEM_PHYSIOLOGICAL_CHARGE>
1

> <JCHEM_PKA_STRONGEST_BASIC>
7.460056905870227

> <JCHEM_POLAR_SURFACE_AREA>
62.32

> <JCHEM_REFRACTIVITY>
183.74150000000003

> <JCHEM_ROTATABLE_BOND_COUNT>
20

> <JCHEM_RULE_OF_FIVE>
0

> <ALOGPS_SOLUBILITY>
2.37e-04 g/l

> <JCHEM_TRADITIONAL_IUPAC>
aripiprazole lauroxil

> <JCHEM_VEBER_RULE>
0

> <DRUGBANK_ID>
DB14185

> <SECONDARY_ACCESSION_NUMBERS>
DBSALT001351

> <DRUG_GROUPS>
approved; investigational

> <GENERIC_NAME>
Aripiprazole lauroxil

> <SYNONYMS>
Aripiprazole lauroxil

> <PRODUCTS>
Aristada; Aristada Initio

$$$$
