
  Mrv1652310201623072D          

 46 51  0  0  0  0            999 V2000
   -9.7227    6.0034    0.0000 C   0  0  0  0  0  0  0  0  0  0  0  0
   -9.0907    5.4731    0.0000 N   0  0  0  0  0  0  0  0  0  0  0  0
   -8.3154    5.7553    0.0000 C   0  0  0  0  0  0  0  0  0  0  0  0
   -7.6835    5.2250    0.0000 C   0  0  0  0  0  0  0  0  0  0  0  0
   -7.8267    4.4125    0.0000 N   0  0  0  0  0  0  0  0  0  0  0  0
   -8.6020    4.1304    0.0000 C   0  0  0  0  0  0  0  0  0  0  0  0
   -9.2339    4.6607    0.0000 C   0  0  0  0  0  0  0  0  0  0  0  0
   -7.1947    3.8822    0.0000 C   0  0  0  0  0  0  0  0  0  0  0  0
   -6.4195    4.1644    0.0000 C   0  0  0  0  0  0  0  0  0  0  0  0
   -5.7875    3.6341    0.0000 C   0  0  0  0  0  0  0  0  0  0  0  0
   -5.9308    2.8216    0.0000 N   0  0  0  0  0  0  0  0  0  0  0  0
   -6.7060    2.5395    0.0000 C   0  0  0  0  0  0  0  0  0  0  0  0
   -7.3380    3.0698    0.0000 C   0  0  0  0  0  0  0  0  0  0  0  0
   -5.2988    2.2913    0.0000 C   0  0  0  0  0  0  0  0  0  0  0  0
   -5.4420    1.4789    0.0000 O   0  0  0  0  0  0  0  0  0  0  0  0
   -4.5235    2.5735    0.0000 N   0  0  0  0  0  0  0  0  0  0  0  0
   -3.8915    2.0432    0.0000 C   0  0  0  0  0  0  0  0  0  0  0  0
   -3.1163    2.3254    0.0000 C   0  0  0  0  0  0  0  0  0  0  0  0
   -2.4843    1.7951    0.0000 C   0  0  0  0  0  0  0  0  0  0  0  0
   -2.6276    0.9826    0.0000 C   0  0  0  0  0  0  0  0  0  0  0  0
   -3.4028    0.7004    0.0000 C   0  0  0  0  0  0  0  0  0  0  0  0
   -4.0348    1.2307    0.0000 N   0  0  0  0  0  0  0  0  0  0  0  0
   -1.7091    2.0772    0.0000 O   0  0  0  0  0  0  0  0  0  0  0  0
   -1.0771    1.5469    0.0000 C   0  0  0  0  0  0  0  0  0  0  0  0
   -0.3018    1.8291    0.0000 C   0  0  0  0  0  0  0  0  0  0  0  0
    0.3302    1.2988    0.0000 C   0  0  0  0  0  0  0  0  0  0  0  0
    0.1869    0.4863    0.0000 C   0  0  0  0  0  0  0  0  0  0  0  0
   -0.5883    0.2042    0.0000 C   0  0  0  0  0  0  0  0  0  0  0  0
   -1.2203    0.7345    0.0000 C   0  0  0  0  0  0  0  0  0  0  0  0
   -0.7316   -0.6083    0.0000 F   0  0  0  0  0  0  0  0  0  0  0  0
    0.8189   -0.0440    0.0000 N   0  0  0  0  0  0  0  0  0  0  0  0
    1.5941    0.2382    0.0000 C   0  0  0  0  0  0  0  0  0  0  0  0
    1.7374    1.0507    0.0000 O   0  0  0  0  0  0  0  0  0  0  0  0
    2.2261   -0.2921    0.0000 C   0  0  0  0  0  0  0  0  0  0  0  0
    2.6386   -1.0066    0.0000 C   0  0  0  0  0  0  0  0  0  0  0  0
    1.8136   -1.0066    0.0000 C   0  0  0  0  0  0  0  0  0  0  0  0
    2.8581    0.2382    0.0000 C   0  0  0  0  0  0  0  0  0  0  0  0
    2.7149    1.0507    0.0000 O   0  0  0  0  0  0  0  0  0  0  0  0
    3.6334   -0.0440    0.0000 N   0  0  0  0  0  0  0  0  0  0  0  0
    3.7766   -0.8564    0.0000 C   0  0  0  0  0  0  0  0  0  0  0  0
    4.5519   -1.1386    0.0000 C   0  0  0  0  0  0  0  0  0  0  0  0
    4.6951   -1.9511    0.0000 C   0  0  0  0  0  0  0  0  0  0  0  0
    4.0631   -2.4814    0.0000 C   0  0  0  0  0  0  0  0  0  0  0  0
    3.2879   -2.1992    0.0000 C   0  0  0  0  0  0  0  0  0  0  0  0
    3.1446   -1.3867    0.0000 C   0  0  0  0  0  0  0  0  0  0  0  0
    4.2064   -3.2938    0.0000 F   0  0  0  0  0  0  0  0  0  0  0  0
  1  2  1  0  0  0  0
  2  3  1  0  0  0  0
  3  4  1  0  0  0  0
  4  5  1  0  0  0  0
  5  6  1  0  0  0  0
  6  7  1  0  0  0  0
  2  7  1  0  0  0  0
  5  8  1  0  0  0  0
  8  9  1  0  0  0  0
  9 10  1  0  0  0  0
 10 11  1  0  0  0  0
 11 12  1  0  0  0  0
 12 13  1  0  0  0  0
  8 13  1  0  0  0  0
 11 14  1  0  0  0  0
 14 15  2  0  0  0  0
 14 16  1  0  0  0  0
 16 17  1  0  0  0  0
 17 18  2  0  0  0  0
 18 19  1  0  0  0  0
 19 20  2  0  0  0  0
 20 21  1  0  0  0  0
 21 22  2  0  0  0  0
 17 22  1  0  0  0  0
 19 23  1  0  0  0  0
 23 24  1  0  0  0  0
 24 25  2  0  0  0  0
 25 26  1  0  0  0  0
 26 27  2  0  0  0  0
 27 28  1  0  0  0  0
 28 29  2  0  0  0  0
 24 29  1  0  0  0  0
 28 30  1  0  0  0  0
 27 31  1  0  0  0  0
 31 32  1  0  0  0  0
 32 33  2  0  0  0  0
 32 34  1  0  0  0  0
 34 35  1  0  0  0  0
 35 36  1  0  0  0  0
 34 36  1  0  0  0  0
 34 37  1  0  0  0  0
 37 38  2  0  0  0  0
 37 39  1  0  0  0  0
 39 40  1  0  0  0  0
 40 41  2  0  0  0  0
 41 42  1  0  0  0  0
 42 43  2  0  0  0  0
 43 44  1  0  0  0  0
 44 45  2  0  0  0  0
 40 45  1  0  0  0  0
 43 46  1  0  0  0  0
M  END
> <DATABASE_ID>
DB11977

> <DATABASE_NAME>
drugbank

> <SMILES>
CN1CCN(CC1)C1CCN(CC1)C(=O)NC1=CC(OC2=CC=C(NC(=O)C3(CC3)C(=O)NC3=CC=C(F)C=C3)C(F)=C2)=CC=N1

> <INCHI_IDENTIFIER>
InChI=1S/C33H37F2N7O4/c1-40-16-18-41(19-17-40)24-9-14-42(15-10-24)32(45)39-29-21-26(8-13-36-29)46-25-6-7-28(27(35)20-25)38-31(44)33(11-12-33)30(43)37-23-4-2-22(34)3-5-23/h2-8,13,20-21,24H,9-12,14-19H2,1H3,(H,37,43)(H,38,44)(H,36,39,45)

> <INCHI_KEY>
UQRCJCNVNUFYDX-UHFFFAOYSA-N

> <FORMULA>
C33H37F2N7O4

> <MOLECULAR_WEIGHT>
633.701

> <EXACT_MASS>
633.287509025

> <JCHEM_ACCEPTOR_COUNT>
6

> <JCHEM_ATOM_COUNT>
83

> <JCHEM_AVERAGE_POLARIZABILITY>
64.23133796383514

> <JCHEM_BIOAVAILABILITY>
1

> <JCHEM_DONOR_COUNT>
3

> <JCHEM_FORMAL_CHARGE>
0

> <JCHEM_GHOSE_FILTER>
0

> <JCHEM_IUPAC>
N'1-{2-fluoro-4-[(2-{[4-(4-methylpiperazin-1-yl)piperidine-1-carbonyl]amino}pyridin-4-yl)oxy]phenyl}-N1-(4-fluorophenyl)cyclopropane-1,1-dicarboxamide

> <ALOGPS_LOGP>
3.19

> <JCHEM_LOGP>
3.5606800343333322

> <ALOGPS_LOGS>
-4.20

> <JCHEM_MDDR_LIKE_RULE>
1

> <JCHEM_NUMBER_OF_RINGS>
6

> <JCHEM_PHYSIOLOGICAL_CHARGE>
1

> <JCHEM_PKA>
11.977406348451689

> <JCHEM_PKA_STRONGEST_ACIDIC>
11.375384741167267

> <JCHEM_PKA_STRONGEST_BASIC>
8.261068756065356

> <JCHEM_POLAR_SURFACE_AREA>
119.13999999999999

> <JCHEM_REFRACTIVITY>
172.48019999999997

> <JCHEM_ROTATABLE_BOND_COUNT>
8

> <JCHEM_RULE_OF_FIVE>
0

> <ALOGPS_SOLUBILITY>
4.03e-02 g/l

> <JCHEM_TRADITIONAL_IUPAC>
N'1-[2-fluoro-4-({2-[4-(4-methylpiperazin-1-yl)piperidine-1-carbonylamino]pyridin-4-yl}oxy)phenyl]-N1-(4-fluorophenyl)cyclopropane-1,1-dicarboxamide

> <JCHEM_VEBER_RULE>
0

> <DRUGBANK_ID>
DB11977

> <DRUG_GROUPS>
investigational

> <GENERIC_NAME>
Golvatinib

> <SYNONYMS>
Golvatinib

> <SALTS>
Golvatinib Tartrate

$$$$
