
  Mrv1909 05201915282D          

 29 31  0  0  1  0            999 V2000
    4.7812    4.4104    0.0000 C   0  0  0  0  0  0  0  0  0  0  0  0
    4.7812    3.5854    0.0000 C   0  0  0  0  0  0  0  0  0  0  0  0
    4.0668    3.1729    0.0000 C   0  0  2  0  0  0  0  0  0  0  0  0
    4.0668    2.3479    0.0000 N   0  0  0  0  0  0  0  0  0  0  0  0
    3.3523    1.9354    0.0000 C   0  0  0  0  0  0  0  0  0  0  0  0
    3.3523    1.1104    0.0000 N   0  0  0  0  0  0  0  0  0  0  0  0
    2.6378    0.6979    0.0000 C   0  0  0  0  0  0  0  0  0  0  0  0
    2.6378   -0.1271    0.0000 N   0  0  0  0  0  0  0  0  0  0  0  0
    3.3523   -0.5396    0.0000 C   0  0  0  0  0  0  0  0  0  0  0  0
    3.3523   -1.3646    0.0000 C   0  0  0  0  0  0  0  0  0  0  0  0
    4.0668   -1.7771    0.0000 C   0  0  0  0  0  0  0  0  0  0  0  0
    4.7812   -1.3646    0.0000 C   0  0  0  0  0  0  0  0  0  0  0  0
    4.0668   -2.6021    0.0000 C   0  0  0  0  0  0  0  0  0  0  0  0
    3.3523   -3.0146    0.0000 C   0  0  0  0  0  0  0  0  0  0  0  0
    3.3523   -3.8396    0.0000 C   0  0  0  0  0  0  0  0  0  0  0  0
    2.6378   -2.6021    0.0000 N   0  0  0  0  0  0  0  0  0  0  0  0
    2.6378   -1.7771    0.0000 C   0  0  0  0  0  0  0  0  0  0  0  0
    1.9233    1.1104    0.0000 C   0  0  0  0  0  0  0  0  0  0  0  0
    1.1387    0.8555    0.0000 N   0  0  0  0  0  0  0  0  0  0  0  0
    0.6538    1.5229    0.0000 C   0  0  0  0  0  0  0  0  0  0  0  0
    1.1387    2.1904    0.0000 N   0  0  0  0  0  0  0  0  0  0  0  0
    0.8838    2.9750    0.0000 C   0  0  0  0  0  0  0  0  0  0  0  0
    1.4358    3.5881    0.0000 C   0  0  0  0  0  0  0  0  0  0  0  0
    0.0768    3.1465    0.0000 C   0  0  0  0  0  0  0  0  0  0  0  0
    1.9233    1.9354    0.0000 C   0  0  0  0  0  0  0  0  0  0  0  0
    2.6378    2.3479    0.0000 N   0  0  0  0  0  0  0  0  0  0  0  0
    3.3523    3.5854    0.0000 C   0  0  1  0  0  0  0  0  0  0  0  0
    2.6378    3.1729    0.0000 C   0  0  0  0  0  0  0  0  0  0  0  0
    3.3523    4.4104    0.0000 O   0  0  0  0  0  0  0  0  0  0  0  0
  1  2  1  0  0  0  0
  3  2  1  0  0  0  0
  3  4  1  6  0  0  0
  4  5  1  0  0  0  0
  5  6  2  0  0  0  0
  6  7  1  0  0  0  0
  7  8  1  0  0  0  0
  8  9  1  0  0  0  0
  9 10  1  0  0  0  0
 10 11  2  0  0  0  0
 11 12  1  0  0  0  0
 11 13  1  0  0  0  0
 13 14  2  0  0  0  0
 14 15  1  0  0  0  0
 14 16  1  0  0  0  0
 16 17  2  0  0  0  0
 10 17  1  0  0  0  0
  7 18  2  0  0  0  0
 18 19  1  0  0  0  0
 19 20  2  0  0  0  0
 20 21  1  0  0  0  0
 21 22  1  0  0  0  0
 22 23  1  0  0  0  0
 22 24  1  0  0  0  0
 21 25  1  0  0  0  0
 18 25  1  0  0  0  0
 25 26  2  0  0  0  0
  5 26  1  0  0  0  0
  3 27  1  0  0  0  0
 27 28  1  0  0  0  0
 27 29  1  1  0  0  0
M  END
> <DATABASE_ID>
DB15425

> <DATABASE_NAME>
drugbank

> <SMILES>
CC[C@H](NC1=NC(NCC2=C(C)C=C(C)N=C2)=C2N=CN(C(C)C)C2=N1)[C@@H](C)O

> <INCHI_IDENTIFIER>
InChI=1S/C21H31N7O/c1-7-17(15(6)29)25-21-26-19(18-20(27-21)28(11-24-18)12(2)3)23-10-16-9-22-14(5)8-13(16)4/h8-9,11-12,15,17,29H,7,10H2,1-6H3,(H2,23,25,26,27)/t15-,17+/m1/s1

> <INCHI_KEY>
DLPIYBKBHMZCJI-WBVHZDCISA-N

> <FORMULA>
C21H31N7O

> <MOLECULAR_WEIGHT>
397.527

> <EXACT_MASS>
397.259008646

> <JCHEM_ACCEPTOR_COUNT>
7

> <JCHEM_ATOM_COUNT>
60

> <JCHEM_AVERAGE_POLARIZABILITY>
45.53287014735418

> <JCHEM_BIOAVAILABILITY>
1

> <JCHEM_DONOR_COUNT>
3

> <JCHEM_FORMAL_CHARGE>
0

> <JCHEM_GHOSE_FILTER>
1

> <JCHEM_IUPAC>
(2R,3S)-3-[(6-{[(4,6-dimethylpyridin-3-yl)methyl]amino}-9-(propan-2-yl)-9H-purin-2-yl)amino]pentan-2-ol

> <ALOGPS_LOGP>
3.10

> <JCHEM_LOGP>
2.7364772266666675

> <ALOGPS_LOGS>
-3.82

> <JCHEM_MDDR_LIKE_RULE>
1

> <JCHEM_NUMBER_OF_RINGS>
3

> <JCHEM_PHYSIOLOGICAL_CHARGE>
0

> <JCHEM_PKA>
15.257838680513705

> <JCHEM_PKA_STRONGEST_ACIDIC>
14.204192057373044

> <JCHEM_PKA_STRONGEST_BASIC>
6.358138611699046

> <JCHEM_POLAR_SURFACE_AREA>
100.78

> <JCHEM_REFRACTIVITY>
118.0389

> <JCHEM_ROTATABLE_BOND_COUNT>
8

> <JCHEM_RULE_OF_FIVE>
1

> <ALOGPS_SOLUBILITY>
5.98e-02 g/l

> <JCHEM_TRADITIONAL_IUPAC>
(2R)-14-fluoro-2-methyl-6,9,10,19-tetraazapentacyclo[14.2.1.0^{2,6}.0^{8,18}.0^{12,17}]nonadeca-1(18),8,12(17),13,15-pentaen-11-one

> <JCHEM_VEBER_RULE>
0

> <DRUGBANK_ID>
DB15425

> <DRUG_GROUPS>
investigational

> <GENERIC_NAME>
CYC-065

$$$$
