
  Mrv1718007161809422D          

 27 31  0  0  1  0            999 V2000
    6.6024    2.6664    0.0000 C   0  0  0  0  0  0  0  0  0  0  0  0
    7.4274    2.6664    0.0000 C   0  0  0  0  0  0  0  0  0  0  0  0
    7.8399    1.9520    0.0000 C   0  0  0  0  0  0  0  0  0  0  0  0
    7.4274    1.2375    0.0000 C   0  0  0  0  0  0  0  0  0  0  0  0
    6.6024    1.2375    0.0000 C   0  0  0  0  0  0  0  0  0  0  0  0
    6.1899    1.9520    0.0000 C   0  0  0  0  0  0  0  0  0  0  0  0
    5.3649    1.9520    0.0000 C   0  0  0  0  0  0  0  0  0  0  0  0
    4.9524    2.6664    0.0000 O   0  0  0  0  0  0  0  0  0  0  0  0
    4.9524    1.2375    0.0000 N   0  0  0  0  0  0  0  0  0  0  0  0
    4.1274    1.2375    0.0000 N   0  0  0  0  0  0  0  0  0  0  0  0
    3.6425    0.5701    0.0000 C   0  0  0  0  0  0  0  0  0  0  0  0
    3.8974   -0.2146    0.0000 O   0  0  0  0  0  0  0  0  0  0  0  0
    2.8579    0.8250    0.0000 C   0  0  2  0  0  0  0  0  0  0  0  0
    2.1434    0.4125    0.0000 C   0  0  2  0  0  0  0  0  0  0  0  0
    2.0059    0.9625    0.0000 C   0  0  0  0  0  0  0  0  0  0  0  0
    2.0059    1.5125    0.0000 C   0  0  0  0  0  0  0  0  0  0  0  0
    2.1434    2.0625    0.0000 C   0  0  2  0  0  0  0  0  0  0  0  0
    2.8579    1.6500    0.0000 C   0  0  2  0  0  0  0  0  0  0  0  0
    3.6425    1.9049    0.0000 C   0  0  0  0  0  0  0  0  0  0  0  0
    3.8974    2.6896    0.0000 O   0  0  0  0  0  0  0  0  0  0  0  0
    1.4289    1.6500    0.0000 C   0  0  2  0  0  0  0  0  0  0  0  0
    1.4289    0.8250    0.0000 C   0  0  1  0  0  0  0  0  0  0  0  0
    0.7145    1.2375    0.0000 C   0  0  0  0  0  0  0  0  0  0  0  0
    8.6649    1.9520    0.0000 C   0  0  0  0  0  0  0  0  0  0  0  0
    9.4899    1.9520    0.0000 F   0  0  0  0  0  0  0  0  0  0  0  0
    8.6649    1.1270    0.0000 F   0  0  0  0  0  0  0  0  0  0  0  0
    8.6649    2.7770    0.0000 F   0  0  0  0  0  0  0  0  0  0  0  0
  1  2  2  0  0  0  0
  2  3  1  0  0  0  0
  3  4  2  0  0  0  0
  4  5  1  0  0  0  0
  5  6  2  0  0  0  0
  1  6  1  0  0  0  0
  6  7  1  0  0  0  0
  7  8  2  0  0  0  0
  7  9  1  0  0  0  0
  9 10  1  0  0  0  0
 10 11  1  0  0  0  0
 11 12  2  0  0  0  0
 13 11  1  6  0  0  0
 13 14  1  0  0  0  0
 14 15  1  6  0  0  0
 15 16  2  0  0  0  0
 17 16  1  6  0  0  0
 17 18  1  0  0  0  0
 13 18  1  0  0  0  0
 18 19  1  6  0  0  0
 10 19  1  0  0  0  0
 19 20  2  0  0  0  0
 17 21  1  0  0  0  0
 21 22  1  0  0  0  0
 14 22  1  0  0  0  0
 22 23  1  6  0  0  0
 21 23  1  6  0  0  0
  3 24  1  0  0  0  0
 24 25  1  0  0  0  0
 24 26  1  0  0  0  0
 24 27  1  0  0  0  0
M  END
> <DATABASE_ID>
DB12020

> <DATABASE_NAME>
drugbank

> <SMILES>
FC(F)(F)C1=CC=C(C=C1)C(=O)NN1C(=O)[C@H]2[C@H]([C@H]3C=C[C@@H]2[C@@H]2C[C@H]32)C1=O

> <INCHI_IDENTIFIER>
InChI=1S/C19H15F3N2O3/c20-19(21,22)9-3-1-8(2-4-9)16(25)23-24-17(26)14-10-5-6-11(13-7-12(10)13)15(14)18(24)27/h1-6,10-15H,7H2,(H,23,25)/t10-,11+,12+,13-,14-,15+

> <INCHI_KEY>
CSKDFZIMJXRJGH-VWLPUNTISA-N

> <FORMULA>
C19H15F3N2O3

> <MOLECULAR_WEIGHT>
376.335

> <EXACT_MASS>
376.10347684

> <JCHEM_ACCEPTOR_COUNT>
3

> <JCHEM_ATOM_COUNT>
42

> <JCHEM_AVERAGE_POLARIZABILITY>
34.02483914675271

> <JCHEM_BIOAVAILABILITY>
1

> <JCHEM_DONOR_COUNT>
1

> <JCHEM_FORMAL_CHARGE>
0

> <JCHEM_GHOSE_FILTER>
1

> <JCHEM_IUPAC>
N-[(1R,2R,6S,7S,8S,10R)-3,5-dioxo-4-azatetracyclo[5.3.2.0^{2,6}.0^{8,10}]dodec-11-en-4-yl]-4-(trifluoromethyl)benzamide

> <ALOGPS_LOGP>
2.03

> <JCHEM_LOGP>
2.0746202326666667

> <ALOGPS_LOGS>
-4.25

> <JCHEM_MDDR_LIKE_RULE>
0

> <JCHEM_NUMBER_OF_RINGS>
5

> <JCHEM_PHYSIOLOGICAL_CHARGE>
0

> <JCHEM_PKA_STRONGEST_ACIDIC>
9.151934700883823

> <JCHEM_PKA_STRONGEST_BASIC>
-6.185050488298548

> <JCHEM_POLAR_SURFACE_AREA>
66.48

> <JCHEM_REFRACTIVITY>
89.44590000000001

> <JCHEM_ROTATABLE_BOND_COUNT>
3

> <JCHEM_RULE_OF_FIVE>
1

> <ALOGPS_SOLUBILITY>
2.10e-02 g/l

> <JCHEM_TRADITIONAL_IUPAC>
N-[(1R,2R,6S,7S,8S,10R)-3,5-dioxo-4-azatetracyclo[5.3.2.0^{2,6}.0^{8,10}]dodec-11-en-4-yl]-4-(trifluoromethyl)benzamide

> <JCHEM_VEBER_RULE>
0

> <DRUGBANK_ID>
DB12020

> <SECONDARY_ACCESSION_NUMBERS>
DB06000

> <DRUG_GROUPS>
approved; investigational

> <GENERIC_NAME>
Tecovirimat

> <SYNONYMS>
ST-246; Tecovirimat

> <PRODUCTS>
Tecovirimat Siga; Tpoxx

> <SALTS>
Tecovirimat monohydrate

$$$$
