
  Mrv1652310211601242D          

 11 10  0  0  0  0            999 V2000
    2.2539   -2.4750    0.0000 C   0  0  0  0  0  0  0  0  0  0  0  0
    1.5395   -2.0625    0.0000 C   0  0  0  0  0  0  0  0  0  0  0  0
    1.5395   -1.2375    0.0000 C   0  0  0  0  0  0  0  0  0  0  0  0
    0.8250   -0.8250    0.0000 C   0  0  0  0  0  0  0  0  0  0  0  0
    0.8250    0.0000    0.0000 P   0  0  0  0  0  0  0  0  0  0  0  0
    1.6500   -0.0000    0.0000 O   0  0  0  0  0  0  0  0  0  0  0  0
    0.8250    0.8250    0.0000 C   0  0  0  0  0  0  0  0  0  0  0  0
    0.1105    1.2375    0.0000 C   0  0  0  0  0  0  0  0  0  0  0  0
    0.1105    2.0625    0.0000 C   0  0  0  0  0  0  0  0  0  0  0  0
   -0.6039    2.4750    0.0000 N   0  0  0  0  0  0  0  0  0  0  0  0
    0.0000    0.0000    0.0000 O   0  0  0  0  0  0  0  0  0  0  0  0
  1  2  1  0  0  0  0
  2  3  1  0  0  0  0
  3  4  1  0  0  0  0
  4  5  1  0  0  0  0
  5  6  2  0  0  0  0
  5  7  1  0  0  0  0
  7  8  1  0  0  0  0
  8  9  1  0  0  0  0
  9 10  1  0  0  0  0
  5 11  1  0  0  0  0
M  END
> <DATABASE_ID>
DB05010

> <DATABASE_NAME>
drugbank

> <SMILES>
CCCCP(O)(=O)CCCN

> <INCHI_IDENTIFIER>
InChI=1S/C7H18NO2P/c1-2-3-6-11(9,10)7-4-5-8/h2-8H2,1H3,(H,9,10)

> <INCHI_KEY>
ONNMDRQRSGKZCN-UHFFFAOYSA-N

> <FORMULA>
C7H18NO2P

> <MOLECULAR_WEIGHT>
179.2

> <EXACT_MASS>
179.107515822

> <JCHEM_ACCEPTOR_COUNT>
3

> <JCHEM_ATOM_COUNT>
29

> <JCHEM_AVERAGE_POLARIZABILITY>
19.458498951172228

> <JCHEM_BIOAVAILABILITY>
1

> <JCHEM_DONOR_COUNT>
2

> <JCHEM_FORMAL_CHARGE>
0

> <JCHEM_GHOSE_FILTER>
0

> <JCHEM_IUPAC>
(3-aminopropyl)(butyl)phosphinic acid

> <ALOGPS_LOGP>
0.19

> <JCHEM_LOGP>
-1.3431968094062736

> <ALOGPS_LOGS>
-0.93

> <JCHEM_MDDR_LIKE_RULE>
0

> <JCHEM_NUMBER_OF_RINGS>
0

> <JCHEM_PHYSIOLOGICAL_CHARGE>
0

> <JCHEM_PKA_STRONGEST_ACIDIC>
1.9206422836588546

> <JCHEM_PKA_STRONGEST_BASIC>
10.208044501653138

> <JCHEM_POLAR_SURFACE_AREA>
63.32000000000001

> <JCHEM_REFRACTIVITY>
47.6217

> <JCHEM_ROTATABLE_BOND_COUNT>
6

> <JCHEM_RULE_OF_FIVE>
1

> <ALOGPS_SOLUBILITY>
2.12e+01 g/l

> <JCHEM_TRADITIONAL_IUPAC>
3-aminopropyl(butyl)phosphinic acid

> <JCHEM_VEBER_RULE>
0

> <DRUGBANK_ID>
DB05010

> <SECONDARY_ACCESSION_NUMBERS>
DB12646

> <DRUG_GROUPS>
investigational

> <GENERIC_NAME>
SGS-742

$$$$
