
  Mrv1718007041812082D          

  1  0  0  0  0  0            999 V2000
    0.0000    0.0000    0.0000 Ni  0  2  0  0  0  0  0  0  0  0  0  0
M  CHG  1   1   2
M  END
> <DATABASE_ID>
DB14204

> <DATABASE_NAME>
drugbank

> <SMILES>
[Ni++]

> <INCHI_IDENTIFIER>
InChI=1S/Ni/q+2

> <INCHI_KEY>
VEQPNABPJHWNSG-UHFFFAOYSA-N

> <FORMULA>
Ni

> <MOLECULAR_WEIGHT>
58.6934

> <EXACT_MASS>
57.935347922

> <JCHEM_ACCEPTOR_COUNT>
0

> <JCHEM_ATOM_COUNT>
1

> <JCHEM_AVERAGE_POLARIZABILITY>
1.7784

> <JCHEM_BIOAVAILABILITY>
1

> <JCHEM_DONOR_COUNT>
0

> <JCHEM_FORMAL_CHARGE>
2

> <JCHEM_GHOSE_FILTER>
0

> <JCHEM_IUPAC>
nickel(2+) ion

> <JCHEM_LOGP>
0.156

> <JCHEM_MDDR_LIKE_RULE>
0

> <JCHEM_NUMBER_OF_RINGS>
0

> <JCHEM_PHYSIOLOGICAL_CHARGE>
2

> <JCHEM_PKA>
3.55

> <JCHEM_PKA_STRONGEST_ACIDIC>
3.09

> <JCHEM_POLAR_SURFACE_AREA>
0.0

> <JCHEM_REFRACTIVITY>
0.0

> <JCHEM_ROTATABLE_BOND_COUNT>
0

> <JCHEM_RULE_OF_FIVE>
1

> <JCHEM_TRADITIONAL_IUPAC>
nickel(2+) ion

> <JCHEM_VEBER_RULE>
1

> <DRUGBANK_ID>
DB14204

> <DRUG_GROUPS>
experimental

> <GENERIC_NAME>
Nickel cation

> <SYNONYMS>
Nickel cation (Ni2+); Nickel ion(2+); Nickel, ion (Ni2+); Nickel(2+); Nickel(2+) ion; Nickel(II) cation; Nickel(II) ion; Nickelous ion

$$$$
