
  Mrv1652310211600062D          

 26 28  0  0  0  0            999 V2000
   -2.1434   -1.2375    0.0000 C   0  0  0  0  0  0  0  0  0  0  0  0
   -1.4289   -1.6500    0.0000 C   0  0  0  0  0  0  0  0  0  0  0  0
   -1.4289   -2.4750    0.0000 C   0  0  0  0  0  0  0  0  0  0  0  0
   -0.7145   -1.2375    0.0000 C   0  0  0  0  0  0  0  0  0  0  0  0
    0.0000   -1.6500    0.0000 C   0  0  0  0  0  0  0  0  0  0  0  0
    0.7145   -1.2375    0.0000 C   0  0  0  0  0  0  0  0  0  0  0  0
    0.7145   -0.4125    0.0000 C   0  0  0  0  0  0  0  0  0  0  0  0
    0.0000   -0.0000    0.0000 C   0  0  0  0  0  0  0  0  0  0  0  0
   -0.7145   -0.4125    0.0000 C   0  0  0  0  0  0  0  0  0  0  0  0
   -1.4289    0.0000    0.0000 C   0  0  0  0  0  0  0  0  0  0  0  0
   -2.1826   -0.3356    0.0000 C   0  0  0  0  0  0  0  0  0  0  0  0
   -2.7346    0.2775    0.0000 C   0  0  0  0  0  0  0  0  0  0  0  0
   -2.3221    0.9920    0.0000 N   0  0  0  0  0  0  0  0  0  0  0  0
   -1.5152    0.8205    0.0000 N   0  0  0  0  0  0  0  0  0  0  0  0
   -0.9021    1.3725    0.0000 C   0  0  0  0  0  0  0  0  0  0  0  0
    1.4289   -0.0000    0.0000 C   0  0  0  0  0  0  0  0  0  0  0  0
    1.4289    0.8250    0.0000 O   0  0  0  0  0  0  0  0  0  0  0  0
    2.1434   -0.4125    0.0000 N   0  0  0  0  0  0  0  0  0  0  0  0
    2.1434   -1.2375    0.0000 C   0  0  0  0  0  0  0  0  0  0  0  0
    2.8579   -1.6500    0.0000 O   0  0  0  0  0  0  0  0  0  0  0  0
    1.4289   -1.6500    0.0000 N   0  0  0  0  0  0  0  0  0  0  0  0
    2.8579   -0.0000    0.0000 N   0  0  0  0  0  0  0  0  0  0  0  0
    2.8579    0.8250    0.0000 S   0  0  0  0  0  0  0  0  0  0  0  0
    2.8579    1.6500    0.0000 O   0  0  0  0  0  0  0  0  0  0  0  0
    3.6829    0.8250    0.0000 O   0  0  0  0  0  0  0  0  0  0  0  0
    2.0329    0.8250    0.0000 C   0  0  0  0  0  0  0  0  0  0  0  0
  1  2  1  0  0  0  0
  2  3  1  0  0  0  0
  2  4  1  0  0  0  0
  4  5  1  0  0  0  0
  5  6  2  0  0  0  0
  6  7  1  0  0  0  0
  7  8  2  0  0  0  0
  8  9  1  0  0  0  0
  4  9  2  0  0  0  0
  9 10  1  0  0  0  0
 10 11  2  0  0  0  0
 11 12  1  0  0  0  0
 12 13  2  0  0  0  0
 13 14  1  0  0  0  0
 10 14  1  0  0  0  0
 14 15  1  0  0  0  0
  7 16  1  0  0  0  0
 16 17  2  0  0  0  0
 16 18  1  0  0  0  0
 18 19  1  0  0  0  0
 19 20  2  0  0  0  0
 19 21  1  0  0  0  0
  6 21  1  0  0  0  0
 18 22  1  0  0  0  0
 22 23  1  0  0  0  0
 23 24  2  0  0  0  0
 23 25  2  0  0  0  0
 23 26  1  0  0  0  0
M  END
> <DATABASE_ID>
DB12367

> <DATABASE_NAME>
drugbank

> <SMILES>
CC(C)C1=C(C=C2C(NC(=O)N(NS(C)(=O)=O)C2=O)=C1)C1=CC=NN1C

> <INCHI_IDENTIFIER>
InChI=1S/C16H19N5O4S/c1-9(2)10-8-13-12(7-11(10)14-5-6-17-20(14)3)15(22)21(16(23)18-13)19-26(4,24)25/h5-9,19H,1-4H3,(H,18,23)

> <INCHI_KEY>
MCECSFFXUPEPDB-UHFFFAOYSA-N

> <FORMULA>
C16H19N5O4S

> <MOLECULAR_WEIGHT>
377.42

> <EXACT_MASS>
377.115775286

> <JCHEM_ACCEPTOR_COUNT>
5

> <JCHEM_ATOM_COUNT>
45

> <JCHEM_AVERAGE_POLARIZABILITY>
37.820916222204545

> <JCHEM_BIOAVAILABILITY>
1

> <JCHEM_DONOR_COUNT>
2

> <JCHEM_FORMAL_CHARGE>
0

> <JCHEM_GHOSE_FILTER>
1

> <JCHEM_IUPAC>
N-[6-(1-methyl-1H-pyrazol-5-yl)-2,4-dioxo-7-(propan-2-yl)-1,2,3,4-tetrahydroquinazolin-3-yl]methanesulfonamide

> <ALOGPS_LOGP>
1.69

> <JCHEM_LOGP>
1.5426327149999994

> <ALOGPS_LOGS>
-3.26

> <JCHEM_MDDR_LIKE_RULE>
0

> <JCHEM_NUMBER_OF_RINGS>
3

> <JCHEM_PHYSIOLOGICAL_CHARGE>
0

> <JCHEM_PKA>
15.044388124479891

> <JCHEM_PKA_STRONGEST_ACIDIC>
8.296491069341167

> <JCHEM_PKA_STRONGEST_BASIC>
2.434730342629028

> <JCHEM_POLAR_SURFACE_AREA>
113.4

> <JCHEM_REFRACTIVITY>
108.35089999999995

> <JCHEM_ROTATABLE_BOND_COUNT>
3

> <JCHEM_RULE_OF_FIVE>
1

> <ALOGPS_SOLUBILITY>
2.07e-01 g/l

> <JCHEM_TRADITIONAL_IUPAC>
N-[7-isopropyl-6-(2-methylpyrazol-3-yl)-2,4-dioxo-1H-quinazolin-3-yl]methanesulfonamide

> <JCHEM_VEBER_RULE>
0

> <DRUGBANK_ID>
DB12367

> <DRUG_GROUPS>
investigational

> <GENERIC_NAME>
Selurampanel

> <SYNONYMS>
Selurampanel

$$$$
