
  Mrv1909 11302221012D          

 17 17  0  0  0  0            999 V2000
   -2.8579   -0.8250    0.0000 N   0  0  0  0  0  0  0  0  0  0  0  0
   -2.8579   -0.0000    0.0000 C   0  0  0  0  0  0  0  0  0  0  0  0
   -3.5724    0.4125    0.0000 N   0  0  0  0  0  0  0  0  0  0  0  0
   -2.1434    0.4125    0.0000 N   0  0  0  0  0  0  0  0  0  0  0  0
   -2.1434    1.2375    0.0000 C   0  0  0  0  0  0  0  0  0  0  0  0
   -1.4289    1.6500    0.0000 C   0  0  0  0  0  0  0  0  0  0  0  0
   -1.4289    2.4750    0.0000 C   0  0  0  0  0  0  0  0  0  0  0  0
   -0.7145    2.8875    0.0000 C   0  0  0  0  0  0  0  0  0  0  0  0
   -0.7145    3.7125    0.0000 Br  0  0  0  0  0  0  0  0  0  0  0  0
    0.0000    2.4750    0.0000 C   0  0  0  0  0  0  0  0  0  0  0  0
    0.7145    2.8875    0.0000 O   0  0  0  0  0  0  0  0  0  0  0  0
    1.4289    2.4750    0.0000 C   0  0  0  0  0  0  0  0  0  0  0  0
    2.1434    2.8875    0.0000 C   0  0  0  0  0  0  0  0  0  0  0  0
    2.8579    2.4750    0.0000 C   0  0  0  0  0  0  0  0  0  0  0  0
    3.5724    2.8875    0.0000 F   0  0  0  0  0  0  0  0  0  0  0  0
    0.0000    1.6500    0.0000 C   0  0  0  0  0  0  0  0  0  0  0  0
   -0.7145    1.2375    0.0000 C   0  0  0  0  0  0  0  0  0  0  0  0
  1  2  1  0  0  0  0
  2  3  2  0  0  0  0
  2  4  1  0  0  0  0
  4  5  1  0  0  0  0
  5  6  1  0  0  0  0
  6  7  2  0  0  0  0
  7  8  1  0  0  0  0
  8  9  1  0  0  0  0
  8 10  2  0  0  0  0
 10 11  1  0  0  0  0
 11 12  1  0  0  0  0
 12 13  1  0  0  0  0
 13 14  1  0  0  0  0
 14 15  1  0  0  0  0
 10 16  1  0  0  0  0
 16 17  2  0  0  0  0
  6 17  1  0  0  0  0
M  ISO  1  15  18
M  END
> <DATABASE_ID>
DB17261

> <DATABASE_NAME>
drugbank

> <SMILES>
NC(=N)NCC1=CC(Br)=C(OCCC[18F])C=C1

> <INCHI_IDENTIFIER>
InChI=1S/C11H15BrFN3O/c12-9-6-8(7-16-11(14)15)2-3-10(9)17-5-1-4-13/h2-3,6H,1,4-5,7H2,(H4,14,15,16)/i13-1

> <INCHI_KEY>
ZYULQCDNUYJBRI-HSGWXFLFSA-N

> <FORMULA>
C11H15BrFN3O

> <MOLECULAR_WEIGHT>
303.166

> <EXACT_MASS>
302.040788

> <JCHEM_ACCEPTOR_COUNT>
4

> <JCHEM_ATOM_COUNT>
32

> <JCHEM_AVERAGE_NEUTRAL_MICROSPECIES_CHARGE>
1.0214700747967338

> <JCHEM_AVERAGE_POLARIZABILITY>
26.895416957707376

> <JCHEM_BIOAVAILABILITY>
1

> <JCHEM_DONOR_COUNT>
3

> <JCHEM_FORMAL_CHARGE>
0

> <JCHEM_GHOSE_FILTER>
1

> <JCHEM_IUPAC>
N-({3-bromo-4-[3-(¹⁸F)fluoropropoxy]phenyl}methyl)guanidine

> <ALOGPS_LOGP>
1.46

> <JCHEM_LOGP>
1.6372743619999997

> <ALOGPS_LOGS>
-4.04

> <JCHEM_MDDR_LIKE_RULE>
0

> <JCHEM_NEUTRAL_CHARGE>
1

> <JCHEM_NUMBER_OF_RINGS>
1

> <JCHEM_PHYSIOLOGICAL_CHARGE>
1

> <JCHEM_PKA_STRONGEST_BASIC>
11.675534977660018

> <JCHEM_POLAR_SURFACE_AREA>
71.13000000000001

> <JCHEM_REFRACTIVITY>
78.7976

> <JCHEM_ROTATABLE_BOND_COUNT>
6

> <JCHEM_RULE_OF_FIVE>
1

> <ALOGPS_SOLUBILITY>
2.76e-02 g/l

> <JCHEM_TRADITIONAL_IUPAC>
N-({3-bromo-4-[3-(¹⁸F)fluoropropoxy]phenyl}methyl)guanidine

> <JCHEM_VEBER_RULE>
0

> <DRUGBANK_ID>
DB17261

> <DRUG_GROUPS>
investigational

> <GENERIC_NAME>
Flubrobenguane F18

> <SYNONYMS>
Flubrobenguane (18f); Flubrobenguane F-18; N-((3-bromo-4-(3-(fluoro-18f)propoxy)phenyl)methyl)guanidine

$$$$
