
  Mrv1909 09142218592D          

111115  0  0  1  0            999 V2000
  -12.8195    4.9546    0.0000 H   0  0  0  0  0  0  0  0  0  0  0  0
  -12.0706    5.3006    0.0000 C   0  0  2  0  0  0  0  0  0  0  0  0
  -12.1455    4.4790    0.0000 O   0  0  0  0  0  0  0  0  0  0  0  0
  -11.4714    4.0033    0.0000 C   0  0  1  0  0  0  0  0  0  0  0  0
  -10.7224    4.3492    0.0000 C   0  0  1  0  0  0  0  0  0  0  0  0
  -10.6475    5.1708    0.0000 O   0  0  0  0  0  0  0  0  0  0  0  0
  -10.0484    3.8736    0.0000 C   0  0  1  0  0  0  0  0  0  0  0  0
   -9.2994    4.2195    0.0000 C   0  0  0  0  0  0  0  0  0  0  0  0
   -9.2245    5.0411    0.0000 O   0  0  0  0  0  0  0  0  0  0  0  0
  -10.1233    3.0520    0.0000 O   0  0  0  0  0  0  0  0  0  0  0  0
  -10.8722    2.7061    0.0000 C   0  0  1  0  0  0  0  0  0  0  0  0
  -11.6212    2.3601    0.0000 H   0  0  0  0  0  0  0  0  0  0  0  0
  -10.9471    1.8845    0.0000 O   0  0  0  0  0  0  0  0  0  0  0  0
  -10.2731    1.4088    0.0000 C   0  0  1  0  0  0  0  0  0  0  0  0
   -9.5241    1.7547    0.0000 C   0  0  1  0  0  0  0  0  0  0  0  0
   -9.4492    2.5763    0.0000 C   0  0  0  0  0  0  0  0  0  0  0  0
   -8.7002    2.9223    0.0000 O   0  0  0  0  0  0  0  0  0  0  0  0
   -8.8500    1.2791    0.0000 O   0  0  0  0  0  0  0  0  0  0  0  0
   -8.9249    0.4575    0.0000 C   0  0  1  0  0  0  0  0  0  0  0  0
   -8.9998   -0.3641    0.0000 H   0  0  0  0  0  0  0  0  0  0  0  0
   -8.2508   -0.0182    0.0000 O   0  0  0  0  0  0  0  0  0  0  0  0
   -7.5019    0.3278    0.0000 C   0  0  2  0  0  0  0  0  0  0  0  0
   -6.8278   -0.1479    0.0000 C   0  0  1  0  0  0  0  0  0  0  0  0
   -6.9027   -0.9695    0.0000 C   0  0  0  0  0  0  0  0  0  0  0  0
   -7.6517   -1.3154    0.0000 O   0  0  0  0  0  0  0  0  0  0  0  0
   -6.0788    0.1980    0.0000 O   0  0  0  0  0  0  0  0  0  0  0  0
   -6.0039    1.0196    0.0000 C   0  0  1  0  0  0  0  0  0  0  0  0
   -5.2550    1.3656    0.0000 O   0  0  0  0  0  0  0  0  0  0  0  0
   -4.5809    0.8899    0.0000 C   0  0  0  0  0  0  0  0  0  0  0  0
   -3.8319    1.2358    0.0000 C   0  0  2  0  0  0  0  0  0  0  0  0
   -3.1578    0.7602    0.0000 N   0  0  0  0  0  0  0  0  0  0  0  0
   -2.4089    1.1061    0.0000 C   0  0  0  0  0  0  0  0  0  0  0  0
   -2.3340    1.9277    0.0000 O   0  0  0  0  0  0  0  0  0  0  0  0
   -1.7348    0.6305    0.0000 C   0  0  0  0  0  0  0  0  0  0  0  0
   -0.9858    0.9764    0.0000 C   0  0  0  0  0  0  0  0  0  0  0  0
   -0.3118    0.5007    0.0000 C   0  0  0  0  0  0  0  0  0  0  0  0
    0.4372    0.8467    0.0000 C   0  0  0  0  0  0  0  0  0  0  0  0
    1.1113    0.3710    0.0000 C   0  0  0  0  0  0  0  0  0  0  0  0
    1.8602    0.7169    0.0000 C   0  0  0  0  0  0  0  0  0  0  0  0
    1.9351    1.5385    0.0000 C   0  0  0  0  0  0  0  0  0  0  0  0
    2.6841    1.8845    0.0000 C   0  0  0  0  0  0  0  0  0  0  0  0
    3.3582    1.4088    0.0000 C   0  0  0  0  0  0  0  0  0  0  0  0
    4.1072    1.7547    0.0000 C   0  0  0  0  0  0  0  0  0  0  0  0
    4.7812    1.2791    0.0000 C   0  0  0  0  0  0  0  0  0  0  0  0
    5.5302    1.6250    0.0000 C   0  0  0  0  0  0  0  0  0  0  0  0
    6.2043    1.1494    0.0000 C   0  0  0  0  0  0  0  0  0  0  0  0
    6.9532    1.4953    0.0000 C   0  0  0  0  0  0  0  0  0  0  0  0
    7.6273    1.0196    0.0000 C   0  0  0  0  0  0  0  0  0  0  0  0
    8.3763    1.3656    0.0000 C   0  0  0  0  0  0  0  0  0  0  0  0
    9.0503    0.8899    0.0000 C   0  0  0  0  0  0  0  0  0  0  0  0
   -3.7570    2.0574    0.0000 C   0  0  2  0  0  0  0  0  0  0  0  0
   -3.0081    2.4034    0.0000 O   0  0  0  0  0  0  0  0  0  0  0  0
   -4.4311    2.5331    0.0000 C   0  0  0  0  0  0  0  0  0  0  0  0
   -5.1801    2.1872    0.0000 C   0  0  0  0  0  0  0  0  0  0  0  0
   -5.8541    2.6628    0.0000 C   0  0  0  0  0  0  0  0  0  0  0  0
   -5.7792    3.4844    0.0000 C   0  0  0  0  0  0  0  0  0  0  0  0
   -5.0303    3.8303    0.0000 C   0  0  0  0  0  0  0  0  0  0  0  0
   -4.9554    4.6519    0.0000 C   0  0  0  0  0  0  0  0  0  0  0  0
   -4.2064    4.9979    0.0000 C   0  0  0  0  0  0  0  0  0  0  0  0
   -4.1315    5.8195    0.0000 C   0  0  0  0  0  0  0  0  0  0  0  0
   -3.3825    6.1654    0.0000 C   0  0  0  0  0  0  0  0  0  0  0  0
   -3.3076    6.9870    0.0000 C   0  0  0  0  0  0  0  0  0  0  0  0
   -2.5587    7.3329    0.0000 C   0  0  0  0  0  0  0  0  0  0  0  0
   -2.4838    8.1545    0.0000 C   0  0  0  0  0  0  0  0  0  0  0  0
   -1.7348    8.5005    0.0000 C   0  0  0  0  0  0  0  0  0  0  0  0
   -1.6599    9.3220    0.0000 C   0  0  0  0  0  0  0  0  0  0  0  0
   -0.9109    9.6680    0.0000 C   0  0  0  0  0  0  0  0  0  0  0  0
   -6.6780    1.4953    0.0000 C   0  0  2  0  0  0  0  0  0  0  0  0
   -6.6031    2.3169    0.0000 O   0  0  0  0  0  0  0  0  0  0  0  0
   -7.4270    1.1494    0.0000 C   0  0  1  0  0  0  0  0  0  0  0  0
   -8.1010    1.6250    0.0000 O   0  0  0  0  0  0  0  0  0  0  0  0
   -9.6739    0.1116    0.0000 C   0  0  2  0  0  0  0  0  0  0  0  0
   -9.7488   -0.7100    0.0000 O   0  0  0  0  0  0  0  0  0  0  0  0
  -10.3480    0.5872    0.0000 C   0  0  1  0  0  0  0  0  0  0  0  0
  -11.0969    0.2413    0.0000 O   0  0  0  0  0  0  0  0  0  0  0  0
  -11.1718   -0.5803    0.0000 C   0  0  2  0  0  0  0  0  0  0  0  0
  -10.3497   -0.5114    0.0000 C   0  0  0  0  0  0  0  0  0  0  0  0
   -9.8790   -1.1889    0.0000 C   0  0  2  0  0  0  0  0  0  0  0  0
   -9.0568   -1.1200    0.0000 O   0  0  0  0  0  0  0  0  0  0  0  0
  -10.2303   -1.9354    0.0000 C   0  0  1  0  0  0  0  0  0  0  0  0
   -9.7596   -2.6129    0.0000 N   0  0  0  0  0  0  0  0  0  0  0  0
   -8.9375   -2.5440    0.0000 C   0  0  0  0  0  0  0  0  0  0  0  0
   -8.4668   -3.2215    0.0000 C   0  0  0  0  0  0  0  0  0  0  0  0
   -8.5861   -1.7975    0.0000 O   0  0  0  0  0  0  0  0  0  0  0  0
  -11.0525   -2.0043    0.0000 C   0  0  1  0  0  0  0  0  0  0  0  0
  -11.8746   -2.0732    0.0000 H   0  0  0  0  0  0  0  0  0  0  0  0
  -11.5232   -1.3267    0.0000 O   0  0  0  0  0  0  0  0  0  0  0  0
  -11.4038   -2.7507    0.0000 C   0  0  2  0  0  0  0  0  0  0  0  0
  -10.9331   -3.4282    0.0000 O   0  0  0  0  0  0  0  0  0  0  0  0
  -12.2260   -2.8196    0.0000 C   0  0  2  0  0  0  0  0  0  0  0  0
  -12.6967   -2.1421    0.0000 O   0  0  0  0  0  0  0  0  0  0  0  0
  -12.5773   -3.5660    0.0000 C   0  0  0  0  0  0  0  0  0  0  0  0
  -13.3995   -3.6349    0.0000 O   0  0  0  0  0  0  0  0  0  0  0  0
  -11.9679   -0.3639    0.0000 C   0  0  0  0  0  0  0  0  0  0  0  0
  -12.1785    0.4338    0.0000 O   0  0  0  0  0  0  0  0  0  0  0  0
  -12.5534   -0.9451    0.0000 O   0  0  0  0  0  0  0  0  0  0  0  0
  -11.5463    3.1817    0.0000 C   0  0  2  0  0  0  0  0  0  0  0  0
  -12.2953    2.8358    0.0000 N   0  0  0  0  0  0  0  0  0  0  0  0
  -12.9693    3.3114    0.0000 C   0  0  0  0  0  0  0  0  0  0  0  0
  -13.7183    2.9655    0.0000 C   0  0  0  0  0  0  0  0  0  0  0  0
  -12.8944    4.1330    0.0000 O   0  0  0  0  0  0  0  0  0  0  0  0
  -11.3216    5.6465    0.0000 O   0  0  0  0  0  0  0  0  0  0  0  0
  -11.2467    6.4681    0.0000 C   0  0  2  0  0  0  0  0  0  0  0  0
  -10.4977    6.8140    0.0000 C   0  0  0  0  0  0  0  0  0  0  0  0
   -9.8237    6.3384    0.0000 O   0  0  0  0  0  0  0  0  0  0  0  0
  -11.9208    6.9438    0.0000 C   0  0  2  0  0  0  0  0  0  0  0  0
  -11.8459    7.7653    0.0000 O   0  0  0  0  0  0  0  0  0  0  0  0
  -12.6698    6.5978    0.0000 C   0  0  2  0  0  0  0  0  0  0  0  0
  -13.3438    7.0735    0.0000 O   0  0  0  0  0  0  0  0  0  0  0  0
  -12.7447    5.7762    0.0000 C   0  0  1  0  0  0  0  0  0  0  0  0
  -13.4936    5.4303    0.0000 O   0  0  0  0  0  0  0  0  0  0  0  0
  2  1  1  6  0  0  0
  2  3  1  0  0  0  0
  4  3  1  1  0  0  0
  4  5  1  0  0  0  0
  5  6  1  1  0  0  0
  5  7  1  0  0  0  0
  7  8  1  1  0  0  0
  8  9  1  0  0  0  0
  7 10  1  0  0  0  0
 11 10  1  0  0  0  0
 11 12  1  6  0  0  0
 11 13  1  0  0  0  0
 14 13  1  1  0  0  0
 14 15  1  0  0  0  0
 15 16  1  1  0  0  0
 16 17  1  0  0  0  0
 15 18  1  0  0  0  0
 19 18  1  0  0  0  0
 19 20  1  6  0  0  0
 19 21  1  0  0  0  0
 22 21  1  1  0  0  0
 22 23  1  0  0  0  0
 23 24  1  6  0  0  0
 24 25  1  0  0  0  0
 23 26  1  0  0  0  0
 27 26  1  0  0  0  0
 27 28  1  6  0  0  0
 28 29  1  0  0  0  0
 30 29  1  0  0  0  0
 30 31  1  1  0  0  0
 31 32  1  0  0  0  0
 32 33  2  0  0  0  0
 32 34  1  0  0  0  0
 34 35  1  0  0  0  0
 35 36  1  0  0  0  0
 36 37  1  0  0  0  0
 37 38  1  0  0  0  0
 38 39  1  0  0  0  0
 39 40  1  0  0  0  0
 40 41  1  0  0  0  0
 41 42  1  0  0  0  0
 42 43  1  0  0  0  0
 43 44  1  0  0  0  0
 44 45  1  0  0  0  0
 45 46  1  0  0  0  0
 46 47  1  0  0  0  0
 47 48  1  0  0  0  0
 48 49  1  0  0  0  0
 49 50  1  0  0  0  0
 30 51  1  0  0  0  0
 51 52  1  1  0  0  0
 51 53  1  0  0  0  0
 53 54  2  0  0  0  0
 54 55  1  0  0  0  0
 55 56  1  0  0  0  0
 56 57  1  0  0  0  0
 57 58  1  0  0  0  0
 58 59  1  0  0  0  0
 59 60  1  0  0  0  0
 60 61  1  0  0  0  0
 61 62  1  0  0  0  0
 62 63  1  0  0  0  0
 63 64  1  0  0  0  0
 64 65  1  0  0  0  0
 65 66  1  0  0  0  0
 66 67  1  0  0  0  0
 68 27  1  0  0  0  0
 68 69  1  1  0  0  0
 70 68  1  0  0  0  0
 22 70  1  0  0  0  0
 70 71  1  6  0  0  0
 72 19  1  0  0  0  0
 72 73  1  6  0  0  0
 74 72  1  0  0  0  0
 14 74  1  0  0  0  0
 74 75  1  1  0  0  0
 76 75  1  6  0  0  0
 76 77  1  0  0  0  0
 78 77  1  0  0  0  0
 78 79  1  6  0  0  0
 80 78  1  0  0  0  0
 80 81  1  1  0  0  0
 81 82  1  0  0  0  0
 82 83  1  0  0  0  0
 82 84  2  0  0  0  0
 80 85  1  0  0  0  0
 85 86  1  1  0  0  0
 85 87  1  0  0  0  0
 76 87  1  0  0  0  0
 85 88  1  0  0  0  0
 88 89  1  6  0  0  0
 88 90  1  0  0  0  0
 90 91  1  1  0  0  0
 90 92  1  0  0  0  0
 92 93  1  0  0  0  0
 76 94  1  1  0  0  0
 94 95  1  0  0  0  0
 94 96  2  0  0  0  0
 97 11  1  0  0  0  0
  4 97  1  0  0  0  0
 97 98  1  6  0  0  0
 98 99  1  0  0  0  0
 99100  1  0  0  0  0
 99101  2  0  0  0  0
  2102  1  0  0  0  0
103102  1  0  0  0  0
103104  1  1  0  0  0
104105  1  0  0  0  0
106103  1  0  0  0  0
106107  1  1  0  0  0
106108  1  0  0  0  0
108109  1  1  0  0  0
108110  1  0  0  0  0
110  2  1  0  0  0  0
110111  1  6  0  0  0
M  END
> <DATABASE_ID>
DB16948

> <DATABASE_NAME>
drugbank

> <SMILES>
[H][C@@]1(O[C@H]2[C@@H](O)[C@@H](CO)O[C@@]([H])(O[C@H]3[C@@H](CO)O[C@@]([H])(O[C@H]4[C@H](O)[C@@H](O)[C@H](OC[C@H](NC(=O)CCCCCCCCCCCCCCCCC)[C@H](O)\C=C\CCCCCCCCCCCCC)O[C@@H]4CO)[C@H](O)[C@H]3O[C@@]3(C[C@H](O)[C@@H](NC(C)=O)[C@@]([H])(O3)[C@H](O)[C@H](O)CO)C(O)=O)[C@@H]2NC(C)=O)O[C@H](CO)[C@H](O)[C@H](O)[C@H]1O

> <INCHI_IDENTIFIER>
InChI=1S/C73H131N3O31/c1-5-7-9-11-13-15-17-19-20-22-24-26-28-30-32-34-52(87)76-44(45(84)33-31-29-27-25-23-21-18-16-14-12-10-8-6-2)41-98-69-61(94)59(92)63(50(39-80)101-69)103-71-62(95)67(107-73(72(96)97)35-46(85)53(74-42(3)82)66(106-73)55(88)47(86)36-77)64(51(40-81)102-71)104-68-54(75-43(4)83)65(57(90)49(38-79)99-68)105-70-60(93)58(91)56(89)48(37-78)100-70/h31,33,44-51,53-71,77-81,84-86,88-95H,5-30,32,34-41H2,1-4H3,(H,74,82)(H,75,83)(H,76,87)(H,96,97)/b33-31+/t44-,45+,46-,47+,48+,49+,50+,51+,53+,54+,55+,56-,57-,58-,59+,60+,61+,62+,63+,64-,65+,66+,67+,68-,69+,70-,71-,73-/m0/s1

> <INCHI_KEY>
QPJBWNIQKHGLAU-IQZHVAEDSA-N

> <FORMULA>
C73H131N3O31

> <MOLECULAR_WEIGHT>
1546.841

> <EXACT_MASS>
1545.87665445

> <JCHEM_ACCEPTOR_COUNT>
31

> <JCHEM_ATOM_COUNT>
238

> <JCHEM_AVERAGE_NEUTRAL_MICROSPECIES_CHARGE>
-0.9999935774090812

> <JCHEM_AVERAGE_POLARIZABILITY>
168.81466566220047

> <JCHEM_BIOAVAILABILITY>
0

> <JCHEM_DONOR_COUNT>
20

> <JCHEM_FORMAL_CHARGE>
0

> <JCHEM_GHOSE_FILTER>
0

> <JCHEM_IUPAC>
(2S,4S,5R,6R)-2-{[(2S,3R,4R,5S,6R)-2-{[(2R,3S,4R,5R,6R)-4,5-dihydroxy-6-{[(2S,3R,4E)-3-hydroxy-2-octadecanamidooctadec-4-en-1-yl]oxy}-2-(hydroxymethyl)oxan-3-yl]oxy}-5-{[(2S,3R,4R,5R,6R)-3-acetamido-5-hydroxy-6-(hydroxymethyl)-4-{[(2R,3R,4S,5R,6R)-3,4,5-trihydroxy-6-(hydroxymethyl)oxan-2-yl]oxy}oxan-2-yl]oxy}-3-hydroxy-6-(hydroxymethyl)oxan-4-yl]oxy}-5-acetamido-4-hydroxy-6-[(1R,2R)-1,2,3-trihydroxypropyl]oxane-2-carboxylic acid

> <ALOGPS_LOGP>
2.12

> <JCHEM_LOGP>
1.9808807506666628

> <ALOGPS_LOGS>
-3.89

> <JCHEM_MDDR_LIKE_RULE>
1

> <JCHEM_NEUTRAL_CHARGE>
-1

> <JCHEM_NUMBER_OF_RINGS>
5

> <JCHEM_PHYSIOLOGICAL_CHARGE>
-1

> <JCHEM_PKA>
11.577076642728505

> <JCHEM_PKA_STRONGEST_ACIDIC>
2.8020197059253444

> <JCHEM_PKA_STRONGEST_BASIC>
-3.6786211370289137

> <JCHEM_POLAR_SURFACE_AREA>
540.58

> <JCHEM_REFRACTIVITY>
376.0034999999998

> <JCHEM_ROTATABLE_BOND_COUNT>
52

> <JCHEM_RULE_OF_FIVE>
0

> <ALOGPS_SOLUBILITY>
1.98e-01 g/l

> <JCHEM_TRADITIONAL_IUPAC>
6-cyclopropaneamido-N-[hydroxy(2H2)methyl]-4-{[2-methoxy-3-(1-methyl-1,2,4-triazol-3-yl)phenyl]amino}pyridazine-3-carboxamide

> <JCHEM_VEBER_RULE>
0

> <DRUGBANK_ID>
DB16948

> <DRUG_GROUPS>
investigational

> <GENERIC_NAME>
Ganglioside GM1

> <SYNONYMS>
Ganglioside gm1 (d18:1/18:0); Monosialotetrahexosyl ganglioside (GM1); Monosialotetrahexosylganglioside; Monosialotetrahexosylganglioside (d18:1/18:0)

$$$$
