
  Mrv1909 11242222262D          

 21 23  0  0  0  0            999 V2000
    4.2868   -2.4750    0.0000 C   0  0  0  0  0  0  0  0  0  0  0  0
    3.5724   -2.8875    0.0000 O   0  0  0  0  0  0  0  0  0  0  0  0
    2.8579   -2.4750    0.0000 C   0  0  0  0  0  0  0  0  0  0  0  0
    2.1434   -2.8875    0.0000 C   0  0  0  0  0  0  0  0  0  0  0  0
    1.4289   -2.4750    0.0000 C   0  0  0  0  0  0  0  0  0  0  0  0
    1.4289   -1.6500    0.0000 C   0  0  0  0  0  0  0  0  0  0  0  0
    2.1434   -1.2375    0.0000 C   0  0  0  0  0  0  0  0  0  0  0  0
    2.8579   -1.6500    0.0000 C   0  0  0  0  0  0  0  0  0  0  0  0
    0.7145   -1.2375    0.0000 N   0  0  0  0  0  0  0  0  0  0  0  0
    0.0000   -1.6500    0.0000 C   0  0  0  0  0  0  0  0  0  0  0  0
    0.7145   -0.4125    0.0000 C   0  0  0  0  0  0  0  0  0  0  0  0
    0.0000    0.0000    0.0000 C   0  0  0  0  0  0  0  0  0  0  0  0
   -0.7846   -0.2549    0.0000 C   0  0  0  0  0  0  0  0  0  0  0  0
   -1.2695    0.4125    0.0000 C   0  0  0  0  0  0  0  0  0  0  0  0
   -2.0945    0.4125    0.0000 C   0  0  0  0  0  0  0  0  0  0  0  0
   -0.7846    1.0799    0.0000 O   0  0  0  0  0  0  0  0  0  0  0  0
    0.0000    0.8250    0.0000 C   0  0  0  0  0  0  0  0  0  0  0  0
    0.7145    1.2375    0.0000 N   0  0  0  0  0  0  0  0  0  0  0  0
    1.4289    0.8250    0.0000 C   0  0  0  0  0  0  0  0  0  0  0  0
    2.1434    1.2375    0.0000 C   0  0  0  0  0  0  0  0  0  0  0  0
    1.4289    0.0000    0.0000 N   0  0  0  0  0  0  0  0  0  0  0  0
  1  2  1  0  0  0  0
  2  3  1  0  0  0  0
  3  4  2  0  0  0  0
  4  5  1  0  0  0  0
  5  6  2  0  0  0  0
  6  7  1  0  0  0  0
  7  8  2  0  0  0  0
  3  8  1  0  0  0  0
  6  9  1  0  0  0  0
  9 10  1  0  0  0  0
  9 11  1  0  0  0  0
 11 12  2  0  0  0  0
 12 13  1  0  0  0  0
 13 14  2  0  0  0  0
 14 15  1  0  0  0  0
 14 16  1  0  0  0  0
 16 17  1  0  0  0  0
 12 17  1  0  0  0  0
 17 18  2  0  0  0  0
 18 19  1  0  0  0  0
 19 20  1  0  0  0  0
 19 21  2  0  0  0  0
 11 21  1  0  0  0  0
M  END
> <DATABASE_ID>
DB17199

> <DATABASE_NAME>
drugbank

> <SMILES>
COC1=CC=C(C=C1)N(C)C1=C2C=C(C)OC2=NC(C)=N1

> <INCHI_IDENTIFIER>
InChI=1S/C16H17N3O2/c1-10-9-14-15(17-11(2)18-16(14)21-10)19(3)12-5-7-13(20-4)8-6-12/h5-9H,1-4H3

> <INCHI_KEY>
KVMLMFRXRZLEGU-UHFFFAOYSA-N

> <FORMULA>
C16H17N3O2

> <MOLECULAR_WEIGHT>
283.331

> <EXACT_MASS>
283.132076799

> <JCHEM_ACCEPTOR_COUNT>
4

> <JCHEM_ATOM_COUNT>
38

> <JCHEM_AVERAGE_NEUTRAL_MICROSPECIES_CHARGE>
0.00015070304156558487

> <JCHEM_AVERAGE_POLARIZABILITY>
30.950550151946914

> <JCHEM_BIOAVAILABILITY>
1

> <JCHEM_DONOR_COUNT>
0

> <JCHEM_FORMAL_CHARGE>
0

> <JCHEM_GHOSE_FILTER>
1

> <JCHEM_IUPAC>
N-(4-methoxyphenyl)-N,2,6-trimethylfuro[2,3-d]pyrimidin-4-amine

> <ALOGPS_LOGP>
3.51

> <JCHEM_LOGP>
3.305716532999999

> <ALOGPS_LOGS>
-3.20

> <JCHEM_MDDR_LIKE_RULE>
0

> <JCHEM_NEUTRAL_CHARGE>
0

> <JCHEM_NUMBER_OF_RINGS>
3

> <JCHEM_PHYSIOLOGICAL_CHARGE>
0

> <JCHEM_PKA_STRONGEST_BASIC>
2.2943946206461026

> <JCHEM_POLAR_SURFACE_AREA>
51.39

> <JCHEM_REFRACTIVITY>
81.4497

> <JCHEM_ROTATABLE_BOND_COUNT>
3

> <JCHEM_RULE_OF_FIVE>
1

> <ALOGPS_SOLUBILITY>
1.78e-01 g/l

> <JCHEM_TRADITIONAL_IUPAC>
N-(4-{[3-(2-aminopyrimidin-4-yl)pyridin-2-yl]oxy}phenyl)-4-(4-methylthiophen-2-yl)phthalazin-1-amine

> <JCHEM_VEBER_RULE>
0

> <DRUGBANK_ID>
DB17199

> <DRUG_GROUPS>
investigational

> <GENERIC_NAME>
AAG-1

> <SYNONYMS>
Flag-003 free base; Furo(2,3-d)pyrimidin-4-amine, n-(4-methoxyphenyl)-n,2,6-trimethyl-; N-(4-methoxyphenyl)-n,2,6-trimethylfuro(2,3-d) pyrimidin-4-amine

$$$$
