
  Mrv1909 05201915002D          

 32 35  0  0  0  0            999 V2000
   -1.3328   -3.9584    0.0000 C   0  0  0  0  0  0  0  0  0  0  0  0
   -1.3328   -3.1334    0.0000 C   0  0  0  0  0  0  0  0  0  0  0  0
   -0.6183   -2.7209    0.0000 S   0  0  0  0  0  0  0  0  0  0  0  0
   -0.2058   -3.4354    0.0000 O   0  0  0  0  0  0  0  0  0  0  0  0
   -1.0308   -2.0065    0.0000 O   0  0  0  0  0  0  0  0  0  0  0  0
    0.0962   -2.3084    0.0000 C   0  0  0  0  0  0  0  0  0  0  0  0
    0.0962   -1.4834    0.0000 C   0  0  0  0  0  0  0  0  0  0  0  0
    0.8106   -1.0709    0.0000 C   0  0  0  0  0  0  0  0  0  0  0  0
    0.8106   -0.2459    0.0000 C   0  0  0  0  0  0  0  0  0  0  0  0
    0.0962    0.1666    0.0000 C   0  0  0  0  0  0  0  0  0  0  0  0
    0.0962    0.9916    0.0000 C   0  0  0  0  0  0  0  0  0  0  0  0
    0.8106    1.4041    0.0000 C   0  0  0  0  0  0  0  0  0  0  0  0
    1.5251    0.9916    0.0000 C   0  0  0  0  0  0  0  0  0  0  0  0
    1.5251    0.1666    0.0000 C   0  0  0  0  0  0  0  0  0  0  0  0
    0.9481    0.8541    0.0000 C   0  0  0  0  0  0  0  0  0  0  0  0
    0.9481    0.3041    0.0000 C   0  0  0  0  0  0  0  0  0  0  0  0
    0.8106    2.2291    0.0000 C   0  0  0  0  0  0  0  0  0  0  0  0
    0.1432    2.7140    0.0000 N   0  0  0  0  0  0  0  0  0  0  0  0
    0.3981    3.4986    0.0000 N   0  0  0  0  0  0  0  0  0  0  0  0
    1.2231    3.4986    0.0000 C   0  0  0  0  0  0  0  0  0  0  0  0
    1.4781    2.7140    0.0000 N   0  0  0  0  0  0  0  0  0  0  0  0
    2.2627    2.4590    0.0000 C   0  0  0  0  0  0  0  0  0  0  0  0
    1.7081    4.1660    0.0000 C   0  0  0  0  0  0  0  0  0  0  0  0
    1.3725    4.9197    0.0000 C   0  0  0  0  0  0  0  0  0  0  0  0
    1.8574    5.5872    0.0000 C   0  0  0  0  0  0  0  0  0  0  0  0
    2.6779    5.5009    0.0000 C   0  0  0  0  0  0  0  0  0  0  0  0
    3.0135    4.7472    0.0000 C   0  0  0  0  0  0  0  0  0  0  0  0
    2.5285    4.0798    0.0000 C   0  0  0  0  0  0  0  0  0  0  0  0
    2.8641    3.3261    0.0000 C   0  0  0  0  0  0  0  0  0  0  0  0
    3.1997    2.5725    0.0000 F   0  0  0  0  0  0  0  0  0  0  0  0
    2.1104    2.9906    0.0000 F   0  0  0  0  0  0  0  0  0  0  0  0
    3.6178    3.6617    0.0000 F   0  0  0  0  0  0  0  0  0  0  0  0
  1  2  1  0  0  0  0
  2  3  1  0  0  0  0
  3  4  2  0  0  0  0
  3  5  2  0  0  0  0
  3  6  1  0  0  0  0
  6  7  1  0  0  0  0
  7  8  1  0  0  0  0
  8  9  1  0  0  0  0
  9 10  1  0  0  0  0
 10 11  1  0  0  0  0
 11 12  1  0  0  0  0
 12 13  1  0  0  0  0
 13 14  1  0  0  0  0
  9 14  1  0  0  0  0
 12 15  1  0  0  0  0
 15 16  1  0  0  0  0
  9 16  1  0  0  0  0
 12 17  1  0  0  0  0
 17 18  2  0  0  0  0
 18 19  1  0  0  0  0
 19 20  2  0  0  0  0
 20 21  1  0  0  0  0
 17 21  1  0  0  0  0
 21 22  1  0  0  0  0
 20 23  1  0  0  0  0
 23 24  2  0  0  0  0
 24 25  1  0  0  0  0
 25 26  2  0  0  0  0
 26 27  1  0  0  0  0
 27 28  2  0  0  0  0
 23 28  1  0  0  0  0
 28 29  1  0  0  0  0
 29 30  1  0  0  0  0
 29 31  1  0  0  0  0
 29 32  1  0  0  0  0
M  END
> <DATABASE_ID>
DB15209

> <DATABASE_NAME>
drugbank

> <SMILES>
CCS(=O)(=O)CCCC12CCC(CC1)(CC2)C1=NN=C(N1C)C1=CC=CC=C1C(F)(F)F

> <INCHI_IDENTIFIER>
InChI=1S/C23H30F3N3O2S/c1-3-32(30,31)16-6-9-21-10-13-22(14-11-21,15-12-21)20-28-27-19(29(20)2)17-7-4-5-8-18(17)23(24,25)26/h4-5,7-8H,3,6,9-16H2,1-2H3

> <INCHI_KEY>
ORQZQBUNAMJFCY-UHFFFAOYSA-N

> <FORMULA>
C23H30F3N3O2S

> <MOLECULAR_WEIGHT>
469.57

> <EXACT_MASS>
469.201082881

> <JCHEM_ACCEPTOR_COUNT>
4

> <JCHEM_ATOM_COUNT>
62

> <JCHEM_AVERAGE_POLARIZABILITY>
48.857174846169315

> <JCHEM_BIOAVAILABILITY>
1

> <JCHEM_DONOR_COUNT>
0

> <JCHEM_FORMAL_CHARGE>
0

> <JCHEM_GHOSE_FILTER>
0

> <JCHEM_IUPAC>
3-{4-[3-(ethanesulfonyl)propyl]bicyclo[2.2.2]octan-1-yl}-4-methyl-5-[2-(trifluoromethyl)phenyl]-4H-1,2,4-triazole

> <ALOGPS_LOGP>
4.29

> <JCHEM_LOGP>
4.267790922

> <ALOGPS_LOGS>
-5.59

> <JCHEM_MDDR_LIKE_RULE>
1

> <JCHEM_NUMBER_OF_RINGS>
4

> <JCHEM_PHYSIOLOGICAL_CHARGE>
0

> <JCHEM_PKA_STRONGEST_BASIC>
2.240585071728069

> <JCHEM_POLAR_SURFACE_AREA>
64.85

> <JCHEM_REFRACTIVITY>
130.5514

> <JCHEM_ROTATABLE_BOND_COUNT>
8

> <JCHEM_RULE_OF_FIVE>
1

> <ALOGPS_SOLUBILITY>
1.21e-03 g/l

> <JCHEM_TRADITIONAL_IUPAC>
(2R)-14-fluoro-2-methyl-6,9,10,19-tetraazapentacyclo[14.2.1.0^{2,6}.0^{8,18}.0^{12,17}]nonadeca-1(18),8,12(17),13,15-pentaen-11-one

> <JCHEM_VEBER_RULE>
0

> <DRUGBANK_ID>
DB15209

> <DRUG_GROUPS>
investigational

> <GENERIC_NAME>
MK-0736

$$$$
