
  Mrv1909 07102021182D          

  1  0  0  0  0  0            999 V2000
    0.0000    0.0000    0.0000 Mg  0  2  0  0  0  0  0  0  0  0  0  0
M  CHG  1   1   2
M  END
> <DATABASE_ID>
DB01378

> <DATABASE_NAME>
drugbank

> <SMILES>
[Mg++]

> <INCHI_IDENTIFIER>
InChI=1S/Mg/q+2

> <INCHI_KEY>
JLVVSXFLKOJNIY-UHFFFAOYSA-N

> <FORMULA>
Mg

> <MOLECULAR_WEIGHT>
24.305

> <EXACT_MASS>
23.985041898

> <JCHEM_ACCEPTOR_COUNT>
0

> <JCHEM_ATOM_COUNT>
1

> <JCHEM_AVERAGE_NEUTRAL_MICROSPECIES_CHARGE>
2.0

> <JCHEM_AVERAGE_POLARIZABILITY>
1.7784

> <JCHEM_BIOAVAILABILITY>
1

> <JCHEM_DONOR_COUNT>
0

> <JCHEM_FORMAL_CHARGE>
2

> <JCHEM_GHOSE_FILTER>
0

> <JCHEM_IUPAC>
magnesium(2+) ion

> <JCHEM_LOGP>
-0.57

> <JCHEM_MDDR_LIKE_RULE>
0

> <JCHEM_NEUTRAL_CHARGE>
2

> <JCHEM_NUMBER_OF_RINGS>
0

> <JCHEM_PHYSIOLOGICAL_CHARGE>
2

> <JCHEM_PKA>
3.55

> <JCHEM_PKA_STRONGEST_ACIDIC>
3.09

> <JCHEM_POLAR_SURFACE_AREA>
0.0

> <JCHEM_REFRACTIVITY>
0.0

> <JCHEM_ROTATABLE_BOND_COUNT>
0

> <JCHEM_RULE_OF_FIVE>
1

> <JCHEM_TRADITIONAL_IUPAC>
ethane

> <JCHEM_VEBER_RULE>
1

> <DRUGBANK_ID>
DB01378

> <DRUG_GROUPS>
approved; nutraceutical

> <GENERIC_NAME>
Magnesium cation

> <SYNONYMS>
Magnesium ion; Magnesium, ion(Mg2+)

$$$$
