
  Mrv1909 12152018162D          

 43 46  0  0  1  0            999 V2000
   -2.0545   -1.0852    0.0000 C   0  0  0  0  0  0  0  0  0  0  0  0
   -1.5025   -0.4721    0.0000 O   0  0  0  0  0  0  0  0  0  0  0  0
   -1.7575    0.3126    0.0000 C   0  0  0  0  0  0  0  0  0  0  0  0
   -2.5644    0.4841    0.0000 C   0  0  0  0  0  0  0  0  0  0  0  0
   -2.8194    1.2687    0.0000 C   0  0  0  0  0  0  0  0  0  0  0  0
   -2.2673    1.8818    0.0000 C   0  0  0  0  0  0  0  0  0  0  0  0
   -1.4604    1.7103    0.0000 C   0  0  0  0  0  0  0  0  0  0  0  0
   -1.2054    0.9256    0.0000 C   0  0  0  0  0  0  0  0  0  0  0  0
   -0.3984    0.7541    0.0000 C   0  0  0  0  0  0  0  0  0  0  0  0
   -0.1435   -0.0305    0.0000 C   0  0  0  0  0  0  0  0  0  0  0  0
   -0.6284   -0.6979    0.0000 C   0  0  0  0  0  0  0  0  0  0  0  0
   -0.1435   -1.3654    0.0000 N   0  0  0  0  0  0  0  0  0  0  0  0
   -0.3984   -2.1500    0.0000 C   0  0  0  0  0  0  0  0  0  0  0  0
    0.6411   -1.1104    0.0000 C   0  0  0  0  0  0  0  0  0  0  0  0
    0.6411   -0.2854    0.0000 C   0  0  0  0  0  0  0  0  0  0  0  0
    1.3556    0.1271    0.0000 C   0  0  0  0  0  0  0  0  0  0  0  0
    2.0701   -0.2854    0.0000 C   0  0  0  0  0  0  0  0  0  0  0  0
    2.0701   -1.1104    0.0000 C   0  0  0  0  0  0  0  0  0  0  0  0
    1.3556   -1.5229    0.0000 C   0  0  0  0  0  0  0  0  0  0  0  0
    2.7845    0.1271    0.0000 C   0  0  0  0  0  0  0  0  0  0  0  0
    2.7845    0.9521    0.0000 O   0  0  0  0  0  0  0  0  0  0  0  0
    3.4990   -0.2854    0.0000 N   0  0  0  0  0  0  0  0  0  0  0  0
    4.2135    0.1271    0.0000 C   0  0  0  0  0  0  0  0  0  0  0  0
    4.9279   -0.2854    0.0000 C   0  0  2  0  0  0  0  0  0  0  0  0
    4.9279   -1.1104    0.0000 C   0  0  0  0  0  0  0  0  0  0  0  0
    5.6424    0.1271    0.0000 C   0  0  0  0  0  0  0  0  0  0  0  0
    6.3569   -0.2854    0.0000 C   0  0  0  0  0  0  0  0  0  0  0  0
    7.0714   -0.6979    0.0000 F   0  0  0  0  0  0  0  0  0  0  0  0
    6.7694    0.4290    0.0000 F   0  0  0  0  0  0  0  0  0  0  0  0
    5.9444   -0.9999    0.0000 F   0  0  0  0  0  0  0  0  0  0  0  0
   -3.6263    1.4402    0.0000 C   0  0  0  0  0  0  0  0  0  0  0  0
   -3.8813    2.2248    0.0000 O   0  0  0  0  0  0  0  0  0  0  0  0
   -4.1784    0.8271    0.0000 N   0  0  0  0  0  0  0  0  0  0  0  0
   -4.9853    0.9987    0.0000 S   0  0  0  0  0  0  0  0  0  0  0  0
   -4.8138    1.8056    0.0000 O   0  0  0  0  0  0  0  0  0  0  0  0
   -5.1569    0.1917    0.0000 O   0  0  0  0  0  0  0  0  0  0  0  0
   -5.7923    1.1702    0.0000 C   0  0  0  0  0  0  0  0  0  0  0  0
   -6.3443    0.5571    0.0000 C   0  0  0  0  0  0  0  0  0  0  0  0
   -7.1513    0.7286    0.0000 C   0  0  0  0  0  0  0  0  0  0  0  0
   -7.4063    1.5132    0.0000 C   0  0  0  0  0  0  0  0  0  0  0  0
   -6.8542    2.1263    0.0000 C   0  0  0  0  0  0  0  0  0  0  0  0
   -6.0472    1.9548    0.0000 C   0  0  0  0  0  0  0  0  0  0  0  0
   -5.4952    2.5679    0.0000 C   0  0  0  0  0  0  0  0  0  0  0  0
  1  2  1  0  0  0  0
  2  3  1  0  0  0  0
  3  4  2  0  0  0  0
  4  5  1  0  0  0  0
  5  6  2  0  0  0  0
  6  7  1  0  0  0  0
  7  8  2  0  0  0  0
  3  8  1  0  0  0  0
  8  9  1  0  0  0  0
  9 10  1  0  0  0  0
 10 11  2  0  0  0  0
 11 12  1  0  0  0  0
 12 13  1  0  0  0  0
 12 14  1  0  0  0  0
 14 15  2  0  0  0  0
 10 15  1  0  0  0  0
 15 16  1  0  0  0  0
 16 17  2  0  0  0  0
 17 18  1  0  0  0  0
 18 19  2  0  0  0  0
 14 19  1  0  0  0  0
 17 20  1  0  0  0  0
 20 21  2  0  0  0  0
 20 22  1  0  0  0  0
 22 23  1  0  0  0  0
 24 23  1  0  0  0  0
 24 25  1  1  0  0  0
 24 26  1  0  0  0  0
 26 27  1  0  0  0  0
 27 28  1  0  0  0  0
 27 29  1  0  0  0  0
 27 30  1  0  0  0  0
  5 31  1  0  0  0  0
 31 32  2  0  0  0  0
 31 33  1  0  0  0  0
 33 34  1  0  0  0  0
 34 35  2  0  0  0  0
 34 36  2  0  0  0  0
 34 37  1  0  0  0  0
 37 38  2  0  0  0  0
 38 39  1  0  0  0  0
 39 40  2  0  0  0  0
 40 41  1  0  0  0  0
 41 42  2  0  0  0  0
 37 42  1  0  0  0  0
 42 43  1  0  0  0  0
M  END
> <DATABASE_ID>
DB16227

> <DATABASE_NAME>
drugbank

> <SMILES>
COC1=CC(=CC=C1CC1=CN(C)C2=C1C=C(C=C2)C(=O)NC[C@H](C)CC(F)(F)F)C(=O)NS(=O)(=O)C1=CC=CC=C1C

> <INCHI_IDENTIFIER>
InChI=1S/C31H32F3N3O5S/c1-19(16-31(32,33)34)17-35-29(38)22-11-12-26-25(14-22)24(18-37(26)3)13-21-9-10-23(15-27(21)42-4)30(39)36-43(40,41)28-8-6-5-7-20(28)2/h5-12,14-15,18-19H,13,16-17H2,1-4H3,(H,35,38)(H,36,39)/t19-/m1/s1

> <INCHI_KEY>
ULMFXAMQUGLVGA-LJQANCHMSA-N

> <FORMULA>
C31H32F3N3O5S

> <MOLECULAR_WEIGHT>
615.67

> <EXACT_MASS>
615.201476805

> <JCHEM_ACCEPTOR_COUNT>
5

> <JCHEM_ATOM_COUNT>
75

> <JCHEM_AVERAGE_NEUTRAL_MICROSPECIES_CHARGE>
-0.9980748710814914

> <JCHEM_AVERAGE_POLARIZABILITY>
62.23015800011263

> <JCHEM_BIOAVAILABILITY>
0

> <JCHEM_DONOR_COUNT>
2

> <JCHEM_FORMAL_CHARGE>
0

> <JCHEM_GHOSE_FILTER>
0

> <JCHEM_IUPAC>
3-({2-methoxy-4-[(2-methylbenzenesulfonyl)carbamoyl]phenyl}methyl)-1-methyl-N-[(2R)-4,4,4-trifluoro-2-methylbutyl]-1H-indole-5-carboxamide

> <ALOGPS_LOGP>
4.48

> <JCHEM_LOGP>
6.145391288333334

> <ALOGPS_LOGS>
-5.88

> <JCHEM_MDDR_LIKE_RULE>
1

> <JCHEM_NEUTRAL_CHARGE>
-1

> <JCHEM_NUMBER_OF_RINGS>
4

> <JCHEM_PHYSIOLOGICAL_CHARGE>
-1

> <JCHEM_PKA>
14.969321365184774

> <JCHEM_PKA_STRONGEST_ACIDIC>
4.285299107072898

> <JCHEM_PKA_STRONGEST_BASIC>
-0.7404427922743766

> <JCHEM_POLAR_SURFACE_AREA>
106.5

> <JCHEM_REFRACTIVITY>
158.78069999999997

> <JCHEM_ROTATABLE_BOND_COUNT>
10

> <JCHEM_RULE_OF_FIVE>
0

> <ALOGPS_SOLUBILITY>
8.14e-04 g/l

> <JCHEM_TRADITIONAL_IUPAC>
2-methoxy-4-[(1E)-3-[4-(nitrooxy)butoxy]-3-oxoprop-1-en-1-yl]phenyl (4R)-4-[(1R,3aS,3bR,4S,5aS,7R,9aS,9bS,11aR)-4,7-dihydroxy-9a,11a-dimethyl-tetradecahydro-1H-cyclopenta[a]phenanthren-1-yl]pentanoate

> <JCHEM_VEBER_RULE>
0

> <DRUGBANK_ID>
DB16227

> <DRUG_GROUPS>
investigational

> <GENERIC_NAME>
Masilukast

> <SYNONYMS>
Masilukast

$$$$
