
  Mrv1909 11212219252D          

 95112  0  0  1  0            999 V2000
   10.3945    4.5921    0.0000 H   0  0  0  0  0  0  0  0  0  0  0  0
   10.7186    3.8334    0.0000 C   0  0  1  0  0  0  0  0  0  0  0  0
   11.0427    3.0747    0.0000 C   0  0  1  0  0  0  0  0  0  0  0  0
   10.5477    2.4147    0.0000 O   0  0  0  0  0  0  0  0  0  0  0  0
   11.8618    2.9761    0.0000 C   0  0  0  0  0  0  0  0  0  0  0  0
   12.3567    3.6361    0.0000 C   0  0  0  0  0  0  0  0  0  0  0  0
   13.1758    3.5375    0.0000 C   0  0  0  0  0  0  0  0  0  0  0  0
   13.6708    4.1975    0.0000 C   0  0  0  0  0  0  0  0  0  0  0  0
   13.3467    4.9562    0.0000 C   0  0  0  0  0  0  0  0  0  0  0  0
   13.9680    5.4989    0.0000 O   0  0  0  0  0  0  0  0  0  0  0  0
   14.6762    5.0756    0.0000 C   0  0  0  0  0  0  0  0  0  0  0  0
   14.4925    4.2714    0.0000 O   0  0  0  0  0  0  0  0  0  0  0  0
   12.5276    5.0548    0.0000 C   0  0  0  0  0  0  0  0  0  0  0  0
   12.0326    4.3948    0.0000 C   0  0  0  0  0  0  0  0  0  0  0  0
   11.2135    4.4934    0.0000 C   0  0  1  0  0  0  0  0  0  0  0  0
   11.7085    5.1535    0.0000 H   0  0  0  0  0  0  0  0  0  0  0  0
   10.8894    5.2521    0.0000 N   0  3  0  0  0  0  0  0  0  0  0  0
   10.7837    6.0012    0.0000 C   0  0  0  0  0  0  0  0  0  0  0  0
   10.4968    6.0963    0.0000 C   0  0  0  0  0  0  0  0  0  0  0  0
   10.4745    6.9662    0.0000 C   0  0  0  0  0  0  0  0  0  0  0  0
   10.6069    7.7849    0.0000 N   0  0  0  0  0  0  0  0  0  0  0  0
   11.3979    8.1622    0.0000 P   0  0  0  0  0  0  0  0  0  0  0  0
   11.9762    8.3834    0.0000 S   0  0  0  0  0  0  0  0  0  0  0  0
   12.3020    8.1776    0.0000 N   0  0  0  0  0  0  0  0  0  0  0  0
   13.1373    7.9135    0.0000 C   0  0  0  0  0  0  0  0  0  0  0  0
   13.6422    7.1848    0.0000 C   0  0  0  0  0  0  0  0  0  0  0  0
   14.3888    6.6830    0.0000 N   0  3  0  0  0  0  0  0  0  0  0  0
   14.7347    7.4101    0.0000 C   0  0  0  0  0  0  0  0  0  0  0  0
   13.8938    6.0230    0.0000 C   0  0  0  0  0  0  0  0  0  0  0  0
   14.2179    5.2643    0.0000 C   0  0  0  0  0  0  0  0  0  0  0  0
   15.0370    5.1657    0.0000 C   0  0  0  0  0  0  0  0  0  0  0  0
   15.3612    4.4070    0.0000 C   0  0  0  0  0  0  0  0  0  0  0  0
   14.8662    3.7470    0.0000 C   0  0  0  0  0  0  0  0  0  0  0  0
   14.0471    3.8456    0.0000 C   0  0  0  0  0  0  0  0  0  0  0  0
   13.7230    4.6043    0.0000 C   0  0  0  0  0  0  0  0  0  0  0  0
   12.9013    4.5305    0.0000 O   0  0  0  0  0  0  0  0  0  0  0  0
   12.7176    3.7262    0.0000 C   0  0  0  0  0  0  0  0  0  0  0  0
   13.4257    3.3029    0.0000 O   0  0  0  0  0  0  0  0  0  0  0  0
   15.5320    5.8257    0.0000 C   0  0  1  0  0  0  0  0  0  0  0  0
   16.0269    6.4858    0.0000 H   0  0  0  0  0  0  0  0  0  0  0  0
   16.3511    5.7271    0.0000 C   0  0  1  0  0  0  0  0  0  0  0  0
   16.6752    4.9684    0.0000 O   0  0  0  0  0  0  0  0  0  0  0  0
   16.8460    6.3871    0.0000 C   0  0  0  0  0  0  0  0  0  0  0  0
   16.5219    7.1458    0.0000 C   0  0  0  0  0  0  0  0  0  0  0  0
   17.0169    7.8058    0.0000 C   0  0  0  0  0  0  0  0  0  0  0  0
   16.6927    8.5645    0.0000 C   0  0  0  0  0  0  0  0  0  0  0  0
   15.8736    8.6631    0.0000 C   0  0  0  0  0  0  0  0  0  0  0  0
   15.7759    9.5717    0.0000 O   0  0  0  0  0  0  0  0  0  0  0  0
   16.4350    9.8742    0.0000 C   0  0  0  0  0  0  0  0  0  0  0  0
   17.0396    9.3130    0.0000 O   0  0  0  0  0  0  0  0  0  0  0  0
   15.3787    8.0031    0.0000 C   0  0  0  0  0  0  0  0  0  0  0  0
   15.7028    7.2444    0.0000 C   0  0  0  0  0  0  0  0  0  0  0  0
   15.2079    6.5844    0.0000 C   0  0  1  0  0  0  0  0  0  0  0  0
   14.7129    5.9244    0.0000 H   0  0  0  0  0  0  0  0  0  0  0  0
   10.7035    8.7211    0.0000 N   0  0  0  0  0  0  0  0  0  0  0  0
   11.3052    9.2714    0.0000 C   0  0  0  0  0  0  0  0  0  0  0  0
   11.3633   10.1091    0.0000 C   0  0  0  0  0  0  0  0  0  0  0  0
   12.0247   10.6551    0.0000 N   0  3  0  0  0  0  0  0  0  0  0  0
   12.7644   10.2338    0.0000 C   0  0  0  0  0  0  0  0  0  0  0  0
   11.2352   10.8945    0.0000 C   0  0  0  0  0  0  0  0  0  0  0  0
   11.0477   11.6979    0.0000 C   0  0  0  0  0  0  0  0  0  0  0  0
   11.6498   12.2619    0.0000 C   0  0  0  0  0  0  0  0  0  0  0  0
   11.4623   13.0654    0.0000 C   0  0  0  0  0  0  0  0  0  0  0  0
   10.6728   13.3047    0.0000 C   0  0  0  0  0  0  0  0  0  0  0  0
   10.0707   12.7407    0.0000 C   0  0  0  0  0  0  0  0  0  0  0  0
   10.2582   11.9373    0.0000 C   0  0  0  0  0  0  0  0  0  0  0  0
    9.5520   11.5107    0.0000 O   0  0  0  0  0  0  0  0  0  0  0  0
    8.9281   12.0505    0.0000 C   0  0  0  0  0  0  0  0  0  0  0  0
    9.2487   12.8107    0.0000 O   0  0  0  0  0  0  0  0  0  0  0  0
   12.4393   12.0226    0.0000 C   0  0  1  0  0  0  0  0  0  0  0  0
   13.2288   11.7832    0.0000 H   0  0  0  0  0  0  0  0  0  0  0  0
   13.0413   12.5866    0.0000 C   0  0  1  0  0  0  0  0  0  0  0  0
   13.1950   13.4533    0.0000 O   0  0  0  0  0  0  0  0  0  0  0  0
   13.8308   12.3473    0.0000 C   0  0  0  0  0  0  0  0  0  0  0  0
   14.0183   11.5439    0.0000 C   0  0  0  0  0  0  0  0  0  0  0  0
   14.8078   11.3045    0.0000 C   0  0  0  0  0  0  0  0  0  0  0  0
   14.9953   10.5011    0.0000 C   0  0  0  0  0  0  0  0  0  0  0  0
   14.3932    9.9370    0.0000 C   0  0  0  0  0  0  0  0  0  0  0  0
   14.7436    9.1901    0.0000 O   0  0  0  0  0  0  0  0  0  0  0  0
   15.5622    9.2926    0.0000 C   0  0  0  0  0  0  0  0  0  0  0  0
   15.7178   10.1028    0.0000 O   0  0  0  0  0  0  0  0  0  0  0  0
   13.6037   10.1764    0.0000 C   0  0  0  0  0  0  0  0  0  0  0  0
   13.4162   10.9798    0.0000 C   0  0  0  0  0  0  0  0  0  0  0  0
   12.6267   11.2192    0.0000 C   0  0  1  0  0  0  0  0  0  0  0  0
   12.8142   10.4157    0.0000 H   0  0  0  0  0  0  0  0  0  0  0  0
   10.0703    5.3507    0.0000 C   0  0  0  0  0  0  0  0  0  0  0  0
    9.5754    4.6907    0.0000 C   0  0  0  0  0  0  0  0  0  0  0  0
    9.8995    3.9320    0.0000 C   0  0  0  0  0  0  0  0  0  0  0  0
    9.4045    3.2720    0.0000 C   0  0  0  0  0  0  0  0  0  0  0  0
    8.5855    3.3706    0.0000 C   0  0  0  0  0  0  0  0  0  0  0  0
    8.2613    4.1293    0.0000 C   0  0  0  0  0  0  0  0  0  0  0  0
    8.7563    4.7893    0.0000 C   0  0  0  0  0  0  0  0  0  0  0  0
    8.2815    5.4640    0.0000 O   0  0  0  0  0  0  0  0  0  0  0  0
    7.4931    5.2210    0.0000 C   0  0  0  0  0  0  0  0  0  0  0  0
    7.4807    4.3961    0.0000 O   0  0  0  0  0  0  0  0  0  0  0  0
  2  1  1  1  0  0  0
  2  3  1  0  0  0  0
  3  4  1  6  0  0  0
  3  5  1  0  0  0  0
  5  6  1  0  0  0  0
  6  7  2  0  0  0  0
  7  8  1  0  0  0  0
  8  9  2  0  0  0  0
  9 10  1  0  0  0  0
 10 11  1  0  0  0  0
 11 12  1  0  0  0  0
  8 12  1  0  0  0  0
  9 13  1  0  0  0  0
 13 14  2  0  0  0  0
  6 14  1  0  0  0  0
 15 14  1  0  0  0  0
  2 15  1  0  0  0  0
 15 16  1  1  0  0  0
 15 17  1  0  0  0  0
 17 18  1  0  0  0  0
 17 19  1  0  0  0  0
 19 20  1  0  0  0  0
 20 21  1  0  0  0  0
 21 22  1  0  0  0  0
 22 23  2  0  0  0  0
 22 24  1  0  0  0  0
 24 25  1  0  0  0  0
 25 26  1  0  0  0  0
 26 27  1  0  0  0  0
 27 28  1  0  0  0  0
 27 29  1  0  0  0  0
 29 30  1  0  0  0  0
 30 31  2  0  0  0  0
 31 32  1  0  0  0  0
 32 33  2  0  0  0  0
 33 34  1  0  0  0  0
 34 35  2  0  0  0  0
 30 35  1  0  0  0  0
 35 36  1  0  0  0  0
 36 37  1  0  0  0  0
 37 38  1  0  0  0  0
 34 38  1  0  0  0  0
 39 31  1  0  0  0  0
 39 40  1  1  0  0  0
 39 41  1  0  0  0  0
 41 42  1  6  0  0  0
 41 43  1  0  0  0  0
 43 44  1  0  0  0  0
 44 45  2  0  0  0  0
 45 46  1  0  0  0  0
 46 47  2  0  0  0  0
 47 48  1  0  0  0  0
 48 49  1  0  0  0  0
 49 50  1  0  0  0  0
 46 50  1  0  0  0  0
 47 51  1  0  0  0  0
 51 52  2  0  0  0  0
 44 52  1  0  0  0  0
 53 52  1  0  0  0  0
 53 27  1  0  0  0  0
 39 53  1  0  0  0  0
 53 54  1  1  0  0  0
 22 55  1  0  0  0  0
 55 56  1  0  0  0  0
 56 57  1  0  0  0  0
 57 58  1  0  0  0  0
 58 59  1  0  0  0  0
 58 60  1  0  0  0  0
 60 61  1  0  0  0  0
 61 62  2  0  0  0  0
 62 63  1  0  0  0  0
 63 64  2  0  0  0  0
 64 65  1  0  0  0  0
 65 66  2  0  0  0  0
 61 66  1  0  0  0  0
 66 67  1  0  0  0  0
 67 68  1  0  0  0  0
 68 69  1  0  0  0  0
 65 69  1  0  0  0  0
 70 62  1  0  0  0  0
 70 71  1  6  0  0  0
 70 72  1  0  0  0  0
 72 73  1  1  0  0  0
 72 74  1  0  0  0  0
 74 75  1  0  0  0  0
 75 76  2  0  0  0  0
 76 77  1  0  0  0  0
 77 78  2  0  0  0  0
 78 79  1  0  0  0  0
 79 80  1  0  0  0  0
 80 81  1  0  0  0  0
 77 81  1  0  0  0  0
 78 82  1  0  0  0  0
 82 83  2  0  0  0  0
 75 83  1  0  0  0  0
 84 83  1  0  0  0  0
 84 58  1  0  0  0  0
 70 84  1  0  0  0  0
 84 85  1  6  0  0  0
 17 86  1  0  0  0  0
 86 87  1  0  0  0  0
 87 88  2  0  0  0  0
  2 88  1  0  0  0  0
 88 89  1  0  0  0  0
 89 90  2  0  0  0  0
 90 91  1  0  0  0  0
 91 92  2  0  0  0  0
 87 92  1  0  0  0  0
 92 93  1  0  0  0  0
 93 94  1  0  0  0  0
 94 95  1  0  0  0  0
 91 95  1  0  0  0  0
M  CHG  3  17   1  27   1  58   1
M  END
> <DATABASE_ID>
DB17150

> <DATABASE_NAME>
drugbank

> <SMILES>
[H][C@]12[C@@H](O)CC3=CC4=C(OCO4)C=C3[C@@]1([H])[N+](C)(CCNP(=S)(NCC[N+]1(C)CC3=C(C=CC4=C3OCO4)[C@@]3([H])[C@@H](O)CC4=CC5=C(OCO5)C=C4[C@@]13[H])NCC[N+]1(C)CC3=C(C=CC4=C3OCO4)[C@@]3([H])[C@@H](O)CC4=CC5=C(OCO5)C=C4[C@@]13[H])CC1=C2C=CC2=C1OCO2

> <INCHI_IDENTIFIER>
InChI=1S/C66H72N6O15PS/c1-70(25-43-37(4-7-49-64(43)85-31-76-49)58-46(73)16-34-19-52-55(82-28-79-52)22-40(34)61(58)70)13-10-67-88(89,68-11-14-71(2)26-44-38(5-8-50-65(44)86-32-77-50)59-47(74)17-35-20-53-56(83-29-80-53)23-41(35)62(59)71)69-12-15-72(3)27-45-39(6-9-51-66(45)87-33-78-51)60-48(75)18-36-21-54-57(84-30-81-54)24-42(36)63(60)72/h4-9,19-24,46-48,58-63,73-75H,10-18,25-33H2,1-3H3,(H3,67,68,69,89)/q+3/t46-,47-,48-,58-,59-,60-,61+,62+,63+,70?,71?,72?,88?/m0/s1

> <INCHI_KEY>
DZWOYVBKCHRHGV-OZLOOOLJSA-N

> <FORMULA>
C66H72N6O15PS

> <MOLECULAR_WEIGHT>
1252.36

> <EXACT_MASS>
1251.449753075

> <JCHEM_ACCEPTOR_COUNT>
18

> <JCHEM_ATOM_COUNT>
161

> <JCHEM_AVERAGE_NEUTRAL_MICROSPECIES_CHARGE>
2.9999998908885073

> <JCHEM_AVERAGE_POLARIZABILITY>
132.24732454305087

> <JCHEM_BIOAVAILABILITY>
0

> <JCHEM_DONOR_COUNT>
6

> <JCHEM_FORMAL_CHARGE>
3

> <JCHEM_GHOSE_FILTER>
0

> <JCHEM_IUPAC>
(1S,12S,13R)-24-(2-{[bis({2-[(1S,12S,13R)-12-hydroxy-24-methyl-5,7,18,20-tetraoxa-24-azahexacyclo[11.11.0.0^{2,10}.0^{4,8}.0^{14,22}.0^{17,21}]tetracosa-2,4(8),9,14(22),15,17(21)-hexaen-24-ium-24-yl]ethyl}amino)(sulfanylidene)-lambda5-phosphanyl]amino}ethyl)-12-hydroxy-24-methyl-5,7,18,20-tetraoxa-24-azahexacyclo[11.11.0.0^{2,10}.0^{4,8}.0^{14,22}.0^{17,21}]tetracosa-2,4(8),9,14(22),15,17(21)-hexaen-24-ium

> <ALOGPS_LOGP>
1.96

> <JCHEM_LOGP>
-8.021184386748569

> <ALOGPS_LOGS>
-6.19

> <JCHEM_MDDR_LIKE_RULE>
1

> <JCHEM_NEUTRAL_CHARGE>
3

> <JCHEM_NUMBER_OF_RINGS>
18

> <JCHEM_PHYSIOLOGICAL_CHARGE>
3

> <JCHEM_PKA>
14.46625384988697

> <JCHEM_PKA_STRONGEST_ACIDIC>
13.989180746805157

> <JCHEM_PKA_STRONGEST_BASIC>
-0.45560831440971067

> <JCHEM_POLAR_SURFACE_AREA>
207.53999999999994

> <JCHEM_REFRACTIVITY>
362.7974999999998

> <JCHEM_ROTATABLE_BOND_COUNT>
12

> <JCHEM_RULE_OF_FIVE>
0

> <ALOGPS_SOLUBILITY>
8.83e-04 g/l

> <JCHEM_TRADITIONAL_IUPAC>
berubicin

> <JCHEM_VEBER_RULE>
0

> <DRUGBANK_ID>
DB17150

> <DRUG_GROUPS>
investigational

> <GENERIC_NAME>
Ukrain cation

> <SYNONYMS>
(1,3)benzodioxolo(5,6-c)-1,3-dioxolo(4,5-i)phenanthridinium, 13,13',13''-(phosphinothioylidynetris(imino-2,1-ethanediyl))tris(5b,6,7,12b,13,14-hexahydro-6-hydroxy-13-methyl-, (5br,5'br,5''br,6s,6's,6''s,12bs,12'bs,12''bs)-; Chelidoninium, 5,5',5''-(phosphinothioylidynetris(imino-2,1-ethanediyl))tris(5-methyl-

> <SALTS>
Ukrain

$$$$
