
  Mrv1909 10112220192D          

 11 12  0  0  1  0            999 V2000
    0.2085    0.3661    0.0000 C   0  0  0  0  0  0  0  0  0  0  0  0
    0.9988    0.1293    0.0000 C   0  0  0  0  0  0  0  0  0  0  0  0
    0.2085   -0.1075    0.0000 C   0  0  0  0  0  0  0  0  0  0  0  0
    1.2050    0.9543    0.0000 C   0  0  2  0  0  0  0  0  0  0  0  0
    0.4906    0.5418    0.0000 C   0  0  0  0  0  0  0  0  0  0  0  0
    0.4906   -0.2832    0.0000 C   0  0  0  0  0  0  0  0  0  0  0  0
    1.2050   -0.6957    0.0000 C   0  0  2  0  0  0  0  0  0  0  0  0
    1.2050   -1.5207    0.0000 C   0  0  0  0  0  0  0  0  0  0  0  0
    1.9195   -0.2832    0.0000 C   0  0  1  0  0  0  0  0  0  0  0  0
    2.6340   -0.6957    0.0000 O   0  0  0  0  0  0  0  0  0  0  0  0
    1.9195    0.5418    0.0000 C   0  0  0  0  0  0  0  0  0  0  0  0
  1  2  1  0  0  0  0
  2  3  1  0  0  0  0
  4  2  1  0  0  0  0
  4  5  1  6  0  0  0
  5  6  1  0  0  0  0
  7  6  1  0  0  0  0
  7  2  1  0  0  0  0
  7  8  1  1  0  0  0
  7  9  1  0  0  0  0
  9 10  1  6  0  0  0
  9 11  1  0  0  0  0
  4 11  1  0  0  0  0
M  END
> <DATABASE_ID>
DB17066

> <DATABASE_NAME>
drugbank

> <SMILES>
CC1(C)[C@@H]2CC[C@@]1(C)[C@@H](O)C2

> <INCHI_IDENTIFIER>
InChI=1S/C10H18O/c1-9(2)7-4-5-10(9,3)8(11)6-7/h7-8,11H,4-6H2,1-3H3/t7-,8+,10+/m1/s1

> <INCHI_KEY>
DTGKSKDOIYIVQL-WEDXCCLWSA-N

> <FORMULA>
C10H18O

> <MOLECULAR_WEIGHT>
154.253

> <EXACT_MASS>
154.1357652

> <JCHEM_ACCEPTOR_COUNT>
1

> <JCHEM_ATOM_COUNT>
29

> <JCHEM_AVERAGE_NEUTRAL_MICROSPECIES_CHARGE>
1.6418866132696337e-08

> <JCHEM_AVERAGE_POLARIZABILITY>
18.47122853018279

> <JCHEM_BIOAVAILABILITY>
1

> <JCHEM_DONOR_COUNT>
1

> <JCHEM_FORMAL_CHARGE>
0

> <JCHEM_GHOSE_FILTER>
0

> <JCHEM_IUPAC>
(1R,2S,4R)-1,7,7-trimethylbicyclo[2.2.1]heptan-2-ol

> <ALOGPS_LOGP>
2.83

> <JCHEM_LOGP>
1.9894578843333337

> <ALOGPS_LOGS>
-2.28

> <JCHEM_MDDR_LIKE_RULE>
0

> <JCHEM_NEUTRAL_CHARGE>
0

> <JCHEM_NUMBER_OF_RINGS>
2

> <JCHEM_PHYSIOLOGICAL_CHARGE>
0

> <JCHEM_PKA_STRONGEST_ACIDIC>
19.60482336496175

> <JCHEM_PKA_STRONGEST_BASIC>
-0.7846502601657299

> <JCHEM_POLAR_SURFACE_AREA>
20.23

> <JCHEM_REFRACTIVITY>
45.3143

> <JCHEM_ROTATABLE_BOND_COUNT>
0

> <JCHEM_RULE_OF_FIVE>
1

> <ALOGPS_SOLUBILITY>
8.05e-01 g/l

> <JCHEM_TRADITIONAL_IUPAC>
6-cyclopropaneamido-N-[hydroxy(2H2)methyl]-4-{[2-methoxy-3-(1-methyl-1,2,4-triazol-3-yl)phenyl]amino}pyridazine-3-carboxamide

> <JCHEM_VEBER_RULE>
1

> <DRUGBANK_ID>
DB17066

> <DRUG_GROUPS>
investigational

> <GENERIC_NAME>
D-Borneol

> <SYNONYMS>
(1r,2s,4r)-borneol; Borneol d-form; Borneol, (+)-; Borneol, d-; D-camphanol

$$$$
