
  Mrv1652310211601292D          

 63 71  0  0  1  0            999 V2000
   -4.6278    8.3482    0.0000 C   0  0  0  0  0  0  0  0  0  0  0  0
   -4.1429    7.6808    0.0000 C   0  0  0  0  0  0  0  0  0  0  0  0
   -4.4784    6.9271    0.0000 C   0  0  0  0  0  0  0  0  0  0  0  0
   -3.3224    7.7670    0.0000 C   0  0  1  0  0  0  0  0  0  0  0  0
   -2.8375    7.0996    0.0000 C   0  0  0  0  0  0  0  0  0  0  0  0
   -3.1730    6.3459    0.0000 O   0  0  0  0  0  0  0  0  0  0  0  0
   -2.0170    7.1858    0.0000 N   0  0  0  0  0  0  0  0  0  0  0  0
   -1.6045    7.9003    0.0000 C   0  0  0  0  0  0  0  0  0  0  0  0
   -0.7975    7.7287    0.0000 C   0  0  0  0  0  0  0  0  0  0  0  0
   -0.7113    6.9083    0.0000 C   0  0  0  0  0  0  0  0  0  0  0  0
   -1.4650    6.5727    0.0000 C   0  0  1  0  0  0  0  0  0  0  0  0
   -1.6365    5.7657    0.0000 C   0  0  0  0  0  0  0  0  0  0  0  0
   -1.0844    5.1526    0.0000 N   0  0  0  0  0  0  0  0  0  0  0  0
   -1.4969    4.4382    0.0000 C   0  0  0  0  0  0  0  0  0  0  0  0
   -1.2420    3.6535    0.0000 C   0  0  0  0  0  0  0  0  0  0  0  0
   -1.7940    3.0405    0.0000 C   0  0  0  0  0  0  0  0  0  0  0  0
   -2.6010    3.2120    0.0000 C   0  0  0  0  0  0  0  0  0  0  0  0
   -2.8560    3.9966    0.0000 C   0  0  0  0  0  0  0  0  0  0  0  0
   -2.3039    4.6097    0.0000 C   0  0  0  0  0  0  0  0  0  0  0  0
   -2.3902    5.4302    0.0000 N   0  0  0  0  0  0  0  0  0  0  0  0
   -1.5391    2.2558    0.0000 C   0  0  0  0  0  0  0  0  0  0  0  0
   -2.0240    1.5884    0.0000 C   0  0  0  0  0  0  0  0  0  0  0  0
   -1.5391    0.9210    0.0000 S   0  0  0  0  0  0  0  0  0  0  0  0
   -0.7545    1.1759    0.0000 C   0  0  0  0  0  0  0  0  0  0  0  0
   -0.7545    2.0009    0.0000 C   0  0  0  0  0  0  0  0  0  0  0  0
    0.0301    2.2558    0.0000 S   0  0  0  0  0  0  0  0  0  0  0  0
    0.5151    1.5884    0.0000 C   0  0  0  0  0  0  0  0  0  0  0  0
    0.0301    0.9210    0.0000 C   0  0  0  0  0  0  0  0  0  0  0  0
    0.2851    0.1363    0.0000 C   0  0  0  0  0  0  0  0  0  0  0  0
    1.0921   -0.0352    0.0000 C   0  0  0  0  0  0  0  0  0  0  0  0
    1.3470   -0.8198    0.0000 C   0  0  0  0  0  0  0  0  0  0  0  0
    0.7950   -1.4329    0.0000 C   0  0  0  0  0  0  0  0  0  0  0  0
   -0.0120   -1.2614    0.0000 C   0  0  0  0  0  0  0  0  0  0  0  0
   -0.2670   -0.4768    0.0000 C   0  0  0  0  0  0  0  0  0  0  0  0
    1.0499   -2.2175    0.0000 C   0  0  0  0  0  0  0  0  0  0  0  0
    1.8345   -2.4725    0.0000 C   0  0  0  0  0  0  0  0  0  0  0  0
    1.8345   -3.2975    0.0000 N   0  0  0  0  0  0  0  0  0  0  0  0
    1.0499   -3.5524    0.0000 C   0  0  0  0  0  0  0  0  0  0  0  0
    0.5650   -2.8850    0.0000 N   0  0  0  0  0  0  0  0  0  0  0  0
    0.7950   -4.3370    0.0000 C   0  0  2  0  0  0  0  0  0  0  0  0
    1.2799   -5.0045    0.0000 C   0  0  0  0  0  0  0  0  0  0  0  0
    0.7950   -5.6719    0.0000 C   0  0  0  0  0  0  0  0  0  0  0  0
    0.0103   -5.4170    0.0000 C   0  0  0  0  0  0  0  0  0  0  0  0
    0.0103   -4.5920    0.0000 N   0  0  0  0  0  0  0  0  0  0  0  0
   -0.6571   -4.1070    0.0000 C   0  0  0  0  0  0  0  0  0  0  0  0
   -0.5709   -3.2866    0.0000 O   0  0  0  0  0  0  0  0  0  0  0  0
   -1.4108   -4.4426    0.0000 C   0  0  1  0  0  0  0  0  0  0  0  0
   -2.0782   -3.9577    0.0000 C   0  0  0  0  0  0  0  0  0  0  0  0
   -2.8319   -4.2932    0.0000 C   0  0  0  0  0  0  0  0  0  0  0  0
   -3.4993   -3.8083    0.0000 C   0  0  0  0  0  0  0  0  0  0  0  0
   -3.4131   -2.9878    0.0000 C   0  0  0  0  0  0  0  0  0  0  0  0
   -2.6594   -2.6523    0.0000 C   0  0  0  0  0  0  0  0  0  0  0  0
   -1.9920   -3.1372    0.0000 C   0  0  0  0  0  0  0  0  0  0  0  0
   -1.4970   -5.2631    0.0000 N   0  0  0  0  0  0  0  0  0  0  0  0
   -2.2507   -5.5986    0.0000 C   0  0  0  0  0  0  0  0  0  0  0  0
   -2.9181   -5.1137    0.0000 O   0  0  0  0  0  0  0  0  0  0  0  0
   -2.3369   -6.4191    0.0000 O   0  0  0  0  0  0  0  0  0  0  0  0
   -3.0906   -6.7547    0.0000 C   0  0  0  0  0  0  0  0  0  0  0  0
   -2.9868    8.5207    0.0000 N   0  0  0  0  0  0  0  0  0  0  0  0
   -3.4718    9.1881    0.0000 C   0  0  0  0  0  0  0  0  0  0  0  0
   -4.2922    9.1019    0.0000 O   0  0  0  0  0  0  0  0  0  0  0  0
   -3.1362    9.9418    0.0000 O   0  0  0  0  0  0  0  0  0  0  0  0
   -2.3157   10.0280    0.0000 C   0  0  0  0  0  0  0  0  0  0  0  0
  1  2  1  0  0  0  0
  2  3  1  0  0  0  0
  2  4  1  0  0  0  0
  4  5  1  0  0  0  0
  5  6  2  0  0  0  0
  5  7  1  0  0  0  0
  7  8  1  0  0  0  0
  8  9  1  0  0  0  0
  9 10  1  0  0  0  0
 10 11  1  0  0  0  0
  7 11  1  0  0  0  0
 11 12  1  1  0  0  0
 12 13  1  0  0  0  0
 13 14  1  0  0  0  0
 14 15  2  0  0  0  0
 15 16  1  0  0  0  0
 16 17  2  0  0  0  0
 17 18  1  0  0  0  0
 18 19  2  0  0  0  0
 14 19  1  0  0  0  0
 19 20  1  0  0  0  0
 12 20  2  0  0  0  0
 16 21  1  0  0  0  0
 21 22  2  0  0  0  0
 22 23  1  0  0  0  0
 23 24  1  0  0  0  0
 24 25  2  0  0  0  0
 21 25  1  0  0  0  0
 25 26  1  0  0  0  0
 26 27  1  0  0  0  0
 27 28  2  0  0  0  0
 24 28  1  0  0  0  0
 28 29  1  0  0  0  0
 29 30  2  0  0  0  0
 30 31  1  0  0  0  0
 31 32  2  0  0  0  0
 32 33  1  0  0  0  0
 33 34  2  0  0  0  0
 29 34  1  0  0  0  0
 32 35  1  0  0  0  0
 35 36  2  0  0  0  0
 36 37  1  0  0  0  0
 37 38  2  0  0  0  0
 38 39  1  0  0  0  0
 35 39  1  0  0  0  0
 40 38  1  6  0  0  0
 40 41  1  0  0  0  0
 41 42  1  0  0  0  0
 42 43  1  0  0  0  0
 43 44  1  0  0  0  0
 40 44  1  0  0  0  0
 44 45  1  0  0  0  0
 45 46  2  0  0  0  0
 45 47  1  0  0  0  0
 47 48  1  0  0  0  0
 48 49  2  0  0  0  0
 49 50  1  0  0  0  0
 50 51  2  0  0  0  0
 51 52  1  0  0  0  0
 52 53  2  0  0  0  0
 48 53  1  0  0  0  0
 47 54  1  6  0  0  0
 54 55  1  0  0  0  0
 55 56  2  0  0  0  0
 55 57  1  0  0  0  0
 57 58  1  0  0  0  0
  4 59  1  6  0  0  0
 59 60  1  0  0  0  0
 60 61  2  0  0  0  0
 60 62  1  0  0  0  0
 62 63  1  0  0  0  0
M  END
> <DATABASE_ID>
DB12660

> <DATABASE_NAME>
drugbank

> <SMILES>
COC(=O)N[C@@H](C(C)C)C(=O)N1CCC[C@H]1C1=NC2=CC=C(C=C2N1)C1=CSC2=C1SC=C2C1=CC=C(C=C1)C1=CN=C(N1)[C@@H]1CCCN1C(=O)[C@H](NC(=O)OC)C1=CC=CC=C1

> <INCHI_IDENTIFIER>
InChI=1S/C47H48N8O6S2/c1-26(2)38(52-46(58)60-3)44(56)55-21-9-13-37(55)43-49-33-19-18-30(22-34(33)50-43)32-25-63-40-31(24-62-41(32)40)27-14-16-28(17-15-27)35-23-48-42(51-35)36-12-8-20-54(36)45(57)39(53-47(59)61-4)29-10-6-5-7-11-29/h5-7,10-11,14-19,22-26,36-39H,8-9,12-13,20-21H2,1-4H3,(H,48,51)(H,49,50)(H,52,58)(H,53,59)/t36-,37-,38-,39+/m0/s1

> <INCHI_KEY>
ATOLIHZIXHZSBA-BTSKBWHGSA-N

> <FORMULA>
C47H48N8O6S2

> <MOLECULAR_WEIGHT>
885.07

> <EXACT_MASS>
884.313823646

> <JCHEM_ACCEPTOR_COUNT>
6

> <JCHEM_ATOM_COUNT>
111

> <JCHEM_AVERAGE_POLARIZABILITY>
97.77179830778317

> <JCHEM_BIOAVAILABILITY>
0

> <JCHEM_DONOR_COUNT>
4

> <JCHEM_FORMAL_CHARGE>
0

> <JCHEM_GHOSE_FILTER>
0

> <JCHEM_IUPAC>
methyl N-[(1R)-2-[(2S)-2-{5-[4-(6-{2-[(2S)-1-[(2S)-2-[(methoxycarbonyl)amino]-3-methylbutanoyl]pyrrolidin-2-yl]-1H-1,3-benzodiazol-6-yl}thieno[3,2-b]thiophen-3-yl)phenyl]-1H-imidazol-2-yl}pyrrolidin-1-yl]-2-oxo-1-phenylethyl]carbamate

> <ALOGPS_LOGP>
6.62

> <JCHEM_LOGP>
6.904411304999999

> <ALOGPS_LOGS>
-6.11

> <JCHEM_MDDR_LIKE_RULE>
1

> <JCHEM_NUMBER_OF_RINGS>
9

> <JCHEM_PHYSIOLOGICAL_CHARGE>
0

> <JCHEM_PKA>
11.624128517040939

> <JCHEM_PKA_STRONGEST_ACIDIC>
10.995778950473918

> <JCHEM_PKA_STRONGEST_BASIC>
5.823042016576034

> <JCHEM_POLAR_SURFACE_AREA>
174.63999999999996

> <JCHEM_REFRACTIVITY>
238.99539999999993

> <JCHEM_ROTATABLE_BOND_COUNT>
13

> <JCHEM_RULE_OF_FIVE>
0

> <ALOGPS_SOLUBILITY>
6.91e-04 g/l

> <JCHEM_TRADITIONAL_IUPAC>
methyl N-[(1R)-2-[(2S)-2-{4-[4-(6-{2-[(2S)-1-[(2S)-2-[(methoxycarbonyl)amino]-3-methylbutanoyl]pyrrolidin-2-yl]-3H-1,3-benzodiazol-5-yl}thieno[3,2-b]thiophen-3-yl)phenyl]-3H-imidazol-2-yl}pyrrolidin-1-yl]-2-oxo-1-phenylethyl]carbamate

> <JCHEM_VEBER_RULE>
0

> <DRUGBANK_ID>
DB12660

> <DRUG_GROUPS>
investigational

> <GENERIC_NAME>
Samatasvir

> <SYNONYMS>
Samatasvir

$$$$
