
  Mrv1572001261616502D          

 30 33  0  0  1  0            999 V2000
   -1.6810    0.4304    0.0000 C   0  0  0  0  0  0  0  0  0  0  0  0
    2.6232    0.6018    0.0000 C   0  0  0  0  0  0  0  0  0  0  0  0
    0.1073    0.1997    0.0000 C   0  0  0  0  0  0  0  0  0  0  0  0
    2.6520    2.7844    0.0000 C   0  0  0  0  0  0  0  0  0  0  0  0
    1.8399    2.6391    0.0000 C   0  0  0  0  0  0  0  0  0  0  0  0
   -0.5867    1.7614    0.0000 C   0  0  0  0  0  0  0  0  0  0  0  0
    0.0962    2.2244    0.0000 C   0  0  0  0  0  0  0  0  0  0  0  0
    4.2475    0.8922    0.0000 C   0  0  0  0  0  0  0  0  0  0  0  0
    3.4354    0.7470    0.0000 C   0  0  0  0  0  0  0  0  0  0  0  0
    3.9960    2.2989    0.0000 C   0  0  0  0  0  0  0  0  0  0  0  0
    0.9990    0.3114    0.0000 C   0  0  0  0  0  0  0  0  0  0  0  0
   -0.8637    0.3176    0.0000 C   0  0  0  0  0  0  0  0  0  0  0  0
    3.1838    2.1537    0.0000 C   0  0  1  0  0  0  0  0  0  0  0  0
    4.5278    1.6682    0.0000 C   0  0  2  0  0  0  0  0  0  0  0  0
    1.5596    1.8632    0.0000 C   0  0  1  0  0  0  0  0  0  0  0  0
   -0.3574    0.9689    0.0000 C   0  0  2  0  0  0  0  0  0  0  0  0
    0.7475    1.7180    0.0000 C   0  0  1  0  0  0  0  0  0  0  0  0
    1.8111    0.4566    0.0000 C   0  0  0  0  0  0  0  0  0  0  0  0
    2.0914    1.2325    0.0000 C   0  0  2  0  0  0  0  0  0  0  0  0
    2.9035    1.3777    0.0000 C   0  0  2  0  0  0  0  0  0  0  0  0
    0.4672    0.9421    0.0000 C   0  0  1  0  0  0  0  0  0  0  0  0
   -0.5528   -0.4466    0.0000 O   0  0  0  0  0  0  0  0  0  0  0  0
    5.3399    1.8134    0.0000 O   0  0  0  0  0  0  0  0  0  0  0  0
    2.3429   -0.1741    0.0000 O   0  0  0  0  0  0  0  0  0  0  0  0
    3.7157    1.5229    0.0000 H   0  0  0  0  0  0  0  0  0  0  0  0
    4.8081    2.4441    0.0000 H   0  0  0  0  0  0  0  0  0  0  0  0
    1.0278    2.4939    0.0000 H   0  0  0  0  0  0  0  0  0  0  0  0
   -1.1676    1.1244    0.0000 H   0  0  0  0  0  0  0  0  0  0  0  0
    1.2793    1.0873    0.0000 H   0  0  0  0  0  0  0  0  0  0  0  0
    2.3717    2.0084    0.0000 H   0  0  0  0  0  0  0  0  0  0  0  0
  5  4  1  0  0  0  0
  7  6  1  0  0  0  0
  9  8  1  0  0  0  0
 12  1  1  0  0  0  0
 13  4  1  0  0  0  0
 13 10  1  0  0  0  0
 14  8  1  0  0  0  0
 14 10  1  0  0  0  0
 15  5  1  0  0  0  0
 16  6  1  0  0  0  0
 16 12  1  1  0  0  0
 17  7  1  0  0  0  0
 17 15  1  0  0  0  0
 18 11  1  0  0  0  0
 19 15  1  0  0  0  0
 19 18  1  0  0  0  0
 20  2  1  1  0  0  0
 20  9  1  0  0  0  0
 20 13  1  0  0  0  0
 20 19  1  0  0  0  0
 21  3  1  1  0  0  0
 21 11  1  0  0  0  0
 21 16  1  0  0  0  0
 21 17  1  0  0  0  0
 22 12  2  0  0  0  0
 14 23  1  6  0  0  0
 24 18  2  0  0  0  0
 13 25  1  6  0  0  0
 14 26  1  1  0  0  0
 15 27  1  1  0  0  0
 16 28  1  6  0  0  0
 17 29  1  6  0  0  0
 19 30  1  6  0  0  0
M  END
> <DATABASE_ID>
DB11371

> <DATABASE_NAME>
drugbank

> <SMILES>
[H][C@@]1(CC[C@@]2([H])[C@]3([H])CC[C@@]4([H])C[C@]([H])(O)CC[C@]4(C)[C@@]3([H])C(=O)C[C@]12C)C(C)=O

> <INCHI_IDENTIFIER>
InChI=1S/C21H32O3/c1-12(22)16-6-7-17-15-5-4-13-10-14(23)8-9-20(13,2)19(15)18(24)11-21(16,17)3/h13-17,19,23H,4-11H2,1-3H3/t13-,14+,15-,16+,17-,19+,20-,21+/m0/s1

> <INCHI_KEY>
DUHUCHOQIDJXAT-OLVMNOGESA-N

> <FORMULA>
C21H32O3

> <MOLECULAR_WEIGHT>
332.484

> <EXACT_MASS>
332.23514489

> <JCHEM_ACCEPTOR_COUNT>
3

> <JCHEM_ATOM_COUNT>
56

> <JCHEM_AVERAGE_POLARIZABILITY>
38.64464482367664

> <JCHEM_BIOAVAILABILITY>
1

> <JCHEM_DONOR_COUNT>
1

> <JCHEM_FORMAL_CHARGE>
0

> <JCHEM_GHOSE_FILTER>
1

> <JCHEM_IUPAC>
(1S,2S,5R,7S,10S,11S,14S,15S)-14-acetyl-5-hydroxy-2,15-dimethyltetracyclo[8.7.0.0²,⁷.0¹¹,¹⁵]heptadecan-17-one

> <ALOGPS_LOGP>
3.23

> <JCHEM_LOGP>
3.0636873906666677

> <ALOGPS_LOGS>
-4.14

> <JCHEM_MDDR_LIKE_RULE>
0

> <JCHEM_NUMBER_OF_RINGS>
4

> <JCHEM_PHYSIOLOGICAL_CHARGE>
0

> <JCHEM_PKA>
19.341949025949692

> <JCHEM_PKA_STRONGEST_ACIDIC>
18.29638219625436

> <JCHEM_PKA_STRONGEST_BASIC>
-1.356961632571331

> <JCHEM_POLAR_SURFACE_AREA>
54.37

> <JCHEM_REFRACTIVITY>
93.57399999999997

> <JCHEM_ROTATABLE_BOND_COUNT>
1

> <JCHEM_RULE_OF_FIVE>
1

> <ALOGPS_SOLUBILITY>
2.42e-02 g/l

> <JCHEM_TRADITIONAL_IUPAC>
alfaxalone

> <JCHEM_VEBER_RULE>
0

> <DRUGBANK_ID>
DB11371

> <DRUG_GROUPS>
vet_approved

> <GENERIC_NAME>
Alfaxalone

> <SYNONYMS>
Alfaxalone

$$$$
