
  Mrv1909 10112218422D          

 39 45  0  0  0  0            999 V2000
    1.7120   -1.5762    0.0000 C   0  0  0  0  0  0  0  0  0  0  0  0
    2.2805   -0.9784    0.0000 N   0  0  0  0  0  0  0  0  0  0  0  0
    2.0470   -0.1871    0.0000 C   0  0  0  0  0  0  0  0  0  0  0  0
    2.6155    0.4108    0.0000 C   0  0  0  0  0  0  0  0  0  0  0  0
    3.4175    0.2173    0.0000 C   0  0  0  0  0  0  0  0  0  0  0  0
    3.2680    1.0287    0.0000 C   0  0  0  0  0  0  0  0  0  0  0  0
    3.9934    1.4216    0.0000 O   0  0  0  0  0  0  0  0  0  0  0  0
    4.5913    0.8531    0.0000 C   0  0  0  0  0  0  0  0  0  0  0  0
    5.4138    0.9170    0.0000 C   0  0  0  0  0  0  0  0  0  0  0  0
    5.8804    0.2366    0.0000 C   0  0  0  0  0  0  0  0  0  0  0  0
    5.5245   -0.5077    0.0000 C   0  0  0  0  0  0  0  0  0  0  0  0
    4.7019   -0.5716    0.0000 C   0  0  0  0  0  0  0  0  0  0  0  0
    4.2353    0.1088    0.0000 C   0  0  0  0  0  0  0  0  0  0  0  0
    6.1223   -1.0762    0.0000 N   0  0  0  0  0  0  0  0  0  0  0  0
    6.8477   -0.6833    0.0000 C   0  0  0  0  0  0  0  0  0  0  0  0
    6.6982    0.1281    0.0000 C   0  0  0  0  0  0  0  0  0  0  0  0
    6.0138   -1.8940    0.0000 C   0  0  0  0  0  0  0  0  0  0  0  0
    6.6678   -2.3969    0.0000 O   0  0  0  0  0  0  0  0  0  0  0  0
    5.2513   -2.2090    0.0000 C   0  0  0  0  0  0  0  0  0  0  0  0
    5.1427   -3.0268    0.0000 C   0  0  0  0  0  0  0  0  0  0  0  0
    4.3802   -3.3417    0.0000 C   0  0  0  0  0  0  0  0  0  0  0  0
    3.7262   -2.8388    0.0000 C   0  0  0  0  0  0  0  0  0  0  0  0
    3.8347   -2.0210    0.0000 C   0  0  0  0  0  0  0  0  0  0  0  0
    4.5973   -1.7061    0.0000 C   0  0  0  0  0  0  0  0  0  0  0  0
    2.9637   -3.1537    0.0000 C   0  0  0  0  0  0  0  0  0  0  0  0
    2.8552   -3.9716    0.0000 C   0  0  0  0  0  0  0  0  0  0  0  0
    3.5091   -4.4745    0.0000 C   0  0  0  0  0  0  0  0  0  0  0  0
    2.0926   -4.2865    0.0000 C   0  0  0  0  0  0  0  0  0  0  0  0
    1.4386   -3.7836    0.0000 C   0  0  0  0  0  0  0  0  0  0  0  0
    1.5472   -2.9658    0.0000 C   0  0  0  0  0  0  0  0  0  0  0  0
    2.3097   -2.6508    0.0000 C   0  0  0  0  0  0  0  0  0  0  0  0
    0.6761   -4.0985    0.0000 C   0  0  0  0  0  0  0  0  0  0  0  0
    0.4827   -4.9005    0.0000 N   0  0  0  0  0  0  0  0  0  0  0  0
   -0.3398   -4.9644    0.0000 O   0  0  0  0  0  0  0  0  0  0  0  0
   -0.6548   -4.2019    0.0000 C   0  0  0  0  0  0  0  0  0  0  0  0
   -1.4568   -4.0085    0.0000 C   0  0  0  0  0  0  0  0  0  0  0  0
   -0.0269   -3.6667    0.0000 N   0  0  0  0  0  0  0  0  0  0  0  0
    3.6510   -0.5739    0.0000 C   0  0  0  0  0  0  0  0  0  0  0  0
    3.0825   -1.1718    0.0000 C   0  0  0  0  0  0  0  0  0  0  0  0
  1  2  1  0  0  0  0
  2  3  1  0  0  0  0
  3  4  1  0  0  0  0
  4  5  1  0  0  0  0
  5  6  1  0  0  0  0
  6  7  1  0  0  0  0
  7  8  1  0  0  0  0
  8  9  2  0  0  0  0
  9 10  1  0  0  0  0
 10 11  2  0  0  0  0
 11 12  1  0  0  0  0
 12 13  2  0  0  0  0
  5 13  1  0  0  0  0
  8 13  1  0  0  0  0
 11 14  1  0  0  0  0
 14 15  1  0  0  0  0
 15 16  1  0  0  0  0
 10 16  1  0  0  0  0
 14 17  1  0  0  0  0
 17 18  2  0  0  0  0
 17 19  1  0  0  0  0
 19 20  2  0  0  0  0
 20 21  1  0  0  0  0
 21 22  2  0  0  0  0
 22 23  1  0  0  0  0
 23 24  2  0  0  0  0
 19 24  1  0  0  0  0
 22 25  1  0  0  0  0
 25 26  2  0  0  0  0
 26 27  1  0  0  0  0
 26 28  1  0  0  0  0
 28 29  2  0  0  0  0
 29 30  1  0  0  0  0
 30 31  2  0  0  0  0
 25 31  1  0  0  0  0
 29 32  1  0  0  0  0
 32 33  2  0  0  0  0
 33 34  1  0  0  0  0
 34 35  1  0  0  0  0
 35 36  1  0  0  0  0
 35 37  2  0  0  0  0
 32 37  1  0  0  0  0
  5 38  1  0  0  0  0
 38 39  1  0  0  0  0
  2 39  1  0  0  0  0
M  END
> <DATABASE_ID>
DB17052

> <DATABASE_NAME>
drugbank

> <SMILES>
CN1CCC2(COC3=CC4=C(C=C23)N(CC4)C(=O)C2=CC=C(C=C2)C2=C(C)C=C(C=C2)C2=NOC(C)=N2)CC1

> <INCHI_IDENTIFIER>
InChI=1S/C32H32N4O3/c1-20-16-25(30-33-21(2)39-34-30)8-9-26(20)22-4-6-23(7-5-22)31(37)36-13-10-24-17-29-27(18-28(24)36)32(19-38-29)11-14-35(3)15-12-32/h4-9,16-18H,10-15,19H2,1-3H3

> <INCHI_KEY>
ATQMRMGXINTJHV-UHFFFAOYSA-N

> <FORMULA>
C32H32N4O3

> <MOLECULAR_WEIGHT>
520.633

> <EXACT_MASS>
520.247440906

> <JCHEM_ACCEPTOR_COUNT>
5

> <JCHEM_ATOM_COUNT>
71

> <JCHEM_AVERAGE_NEUTRAL_MICROSPECIES_CHARGE>
0.9851606065907643

> <JCHEM_AVERAGE_POLARIZABILITY>
60.939006291858874

> <JCHEM_BIOAVAILABILITY>
0

> <JCHEM_DONOR_COUNT>
0

> <JCHEM_FORMAL_CHARGE>
0

> <JCHEM_GHOSE_FILTER>
0

> <JCHEM_IUPAC>
1'-methyl-5-[2'-methyl-4'-(5-methyl-1,2,4-oxadiazol-3-yl)-[1,1'-biphenyl]-4-carbonyl]-2,5,6,7-tetrahydrospiro[furo[2,3-f]indole-3,4'-piperidine]

> <ALOGPS_LOGP>
4.90

> <JCHEM_LOGP>
5.335461015333335

> <ALOGPS_LOGS>
-4.15

> <JCHEM_MDDR_LIKE_RULE>
0

> <JCHEM_NEUTRAL_CHARGE>
1

> <JCHEM_NUMBER_OF_RINGS>
7

> <JCHEM_PHYSIOLOGICAL_CHARGE>
1

> <JCHEM_PKA_STRONGEST_BASIC>
8.822090647252118

> <JCHEM_POLAR_SURFACE_AREA>
71.7

> <JCHEM_REFRACTIVITY>
163.82969999999997

> <JCHEM_ROTATABLE_BOND_COUNT>
3

> <JCHEM_RULE_OF_FIVE>
0

> <ALOGPS_SOLUBILITY>
3.67e-02 g/l

> <JCHEM_TRADITIONAL_IUPAC>
6-cyclopropaneamido-N-[hydroxy(2H2)methyl]-4-{[2-methoxy-3-(1-methyl-1,2,4-triazol-3-yl)phenyl]amino}pyridazine-3-carboxamide

> <JCHEM_VEBER_RULE>
0

> <DRUGBANK_ID>
DB17052

> <DRUG_GROUPS>
investigational

> <GENERIC_NAME>
SB 224289

> <SYNONYMS>
(1'-methyl-6,7-dihydro-5h-spiro(furo(2,3-f)indole-3,4'-piperidin)-5-yl)(2'-methyl-4'-(5-methyl-1,2,4-oxadiazol-3-yl)biphenyl-4-yl)methanone; (2'-methyl-4'-(5-methyl-1,2,4-oxadiazol-3-yl)-(1,1'-biphenyl)-4-yl)(1'-methyl-6,7-dihydrospiro(furo(2,3-f)indole-3,4'-piperidin)-5(2h)-yl)methanone; (4-(2-methyl-4-(5-methyl-1,2,4-oxadiazol-3-yl)phenyl)phenyl)-(1'-methylspiro(6,7-dihydro-2h-furo(2,3-f)indole-3,4'-piperidine)-5-yl)methanone; 6,7-dihydro-1'-methyl-5-((2'-methyl-4'-(5-methyl-1,2,4-oxadiazol-3-yl)-1,1'-biphenyl-4-yl)carbonyl)spiro(2h-furo(2,3-f)indole-3(5h),4'-piperidine); Methanone, (2'-methyl-4'-(5-methyl-1,2,4-oxadiazol-3-yl)(1,1'-biphenyl)-4-yl)(2,5,6,7-tetrahydro-1'-methylspiro(3h-furo(2,3-f)indole-3,4'-piperidin)-5-yl)-; Spiro(2h-furo(2,3-f)indole-3(5h),4'-piperidine), 6,7-dihydro-1'-methyl-5-((2'-methyl-4'-(5-methyl-1,2,4-oxadiazol-3-yl)(1,1'-biphenyl)-4-yl)carbonyl)-

> <SALTS>
SB 224289 hydrochloride

$$$$
