
  Mrv1652310211601112D          

 19 20  0  0  1  0            999 V2000
    0.7145   -3.7125    0.0000 C   0  0  0  0  0  0  0  0  0  0  0  0
    0.0000   -4.1250    0.0000 C   0  0  0  0  0  0  0  0  0  0  0  0
   -0.7145   -3.7125    0.0000 C   0  0  0  0  0  0  0  0  0  0  0  0
   -0.7145   -2.8875    0.0000 C   0  0  0  0  0  0  0  0  0  0  0  0
    0.0000   -2.4750    0.0000 C   0  0  0  0  0  0  0  0  0  0  0  0
    0.7145   -2.8875    0.0000 C   0  0  0  0  0  0  0  0  0  0  0  0
    0.0000   -1.6500    0.0000 O   0  0  0  0  0  0  0  0  0  0  0  0
    0.7145   -1.2375    0.0000 C   0  0  0  0  0  0  0  0  0  0  0  0
    0.7145   -0.4125    0.0000 C   0  0  0  0  0  0  0  0  0  0  0  0
    0.0000    0.0000    0.0000 C   0  0  0  0  0  0  0  0  0  0  0  0
    0.0000    0.8250    0.0000 C   0  0  0  0  0  0  0  0  0  0  0  0
    0.7145    1.2375    0.0000 C   0  0  0  0  0  0  0  0  0  0  0  0
    1.4289    0.8250    0.0000 C   0  0  0  0  0  0  0  0  0  0  0  0
    1.4289   -0.0000    0.0000 C   0  0  0  0  0  0  0  0  0  0  0  0
   -1.4289   -4.1250    0.0000 C   0  0  1  0  0  0  0  0  0  0  0  0
   -1.4289   -4.9500    0.0000 C   0  0  0  0  0  0  0  0  0  0  0  0
   -2.1434   -5.3625    0.0000 C   0  0  0  0  0  0  0  0  0  0  0  0
   -2.1434   -6.1875    0.0000 N   0  0  0  0  0  0  0  0  0  0  0  0
   -2.1434   -3.7125    0.0000 O   0  0  0  0  0  0  0  0  0  0  0  0
  1  2  2  0  0  0  0
  2  3  1  0  0  0  0
  3  4  2  0  0  0  0
  4  5  1  0  0  0  0
  5  6  2  0  0  0  0
  1  6  1  0  0  0  0
  5  7  1  0  0  0  0
  7  8  1  0  0  0  0
  8  9  1  0  0  0  0
  9 10  1  0  0  0  0
 10 11  1  0  0  0  0
 11 12  1  0  0  0  0
 12 13  1  0  0  0  0
 13 14  1  0  0  0  0
  9 14  1  0  0  0  0
  3 15  1  0  0  0  0
 15 16  1  0  0  0  0
 16 17  1  0  0  0  0
 17 18  1  0  0  0  0
 15 19  1  1  0  0  0
M  END
> <DATABASE_ID>
DB12608

> <DATABASE_NAME>
drugbank

> <SMILES>
NCC[C@@H](O)C1=CC(OCC2CCCCC2)=CC=C1

> <INCHI_IDENTIFIER>
InChI=1S/C16H25NO2/c17-10-9-16(18)14-7-4-8-15(11-14)19-12-13-5-2-1-3-6-13/h4,7-8,11,13,16,18H,1-3,5-6,9-10,12,17H2/t16-/m1/s1

> <INCHI_KEY>
WJIGGYYSZBWCGC-MRXNPFEDSA-N

> <FORMULA>
C16H25NO2

> <MOLECULAR_WEIGHT>
263.381

> <EXACT_MASS>
263.188529049

> <JCHEM_ACCEPTOR_COUNT>
3

> <JCHEM_ATOM_COUNT>
44

> <JCHEM_AVERAGE_POLARIZABILITY>
31.500343474893004

> <JCHEM_BIOAVAILABILITY>
1

> <JCHEM_DONOR_COUNT>
2

> <JCHEM_FORMAL_CHARGE>
0

> <JCHEM_GHOSE_FILTER>
1

> <JCHEM_IUPAC>
(1R)-3-amino-1-[3-(cyclohexylmethoxy)phenyl]propan-1-ol

> <ALOGPS_LOGP>
3.14

> <JCHEM_LOGP>
2.4852510516666664

> <ALOGPS_LOGS>
-3.93

> <JCHEM_MDDR_LIKE_RULE>
0

> <JCHEM_NUMBER_OF_RINGS>
2

> <JCHEM_PHYSIOLOGICAL_CHARGE>
1

> <JCHEM_PKA_STRONGEST_ACIDIC>
14.38425126123709

> <JCHEM_PKA_STRONGEST_BASIC>
9.668733670259222

> <JCHEM_POLAR_SURFACE_AREA>
55.480000000000004

> <JCHEM_REFRACTIVITY>
77.56749999999998

> <JCHEM_ROTATABLE_BOND_COUNT>
6

> <JCHEM_RULE_OF_FIVE>
1

> <ALOGPS_SOLUBILITY>
3.11e-02 g/l

> <JCHEM_TRADITIONAL_IUPAC>
(1R)-3-amino-1-[3-(cyclohexylmethoxy)phenyl]propan-1-ol

> <JCHEM_VEBER_RULE>
0

> <DRUGBANK_ID>
DB12608

> <DRUG_GROUPS>
investigational

> <GENERIC_NAME>
Emixustat

> <SYNONYMS>
Emixustat

$$$$
