
  Mrv1652310211602462D          

  1  0  0  0  0  0            999 V2000
    0.0000    0.0000    0.0000 Ac  0  0  0  0  0  0  0  0  0  0  0  0
M  END
> <DATABASE_ID>
DB12860

> <DATABASE_NAME>
drugbank

> <SMILES>
[Ac]

> <INCHI_IDENTIFIER>
InChI=1S/Ac

> <INCHI_KEY>
QQINRWTZWGJFDB-UHFFFAOYSA-N

> <FORMULA>
Ac

> <MOLECULAR_WEIGHT>
227.0

> <EXACT_MASS>
227.0

> <JCHEM_ACCEPTOR_COUNT>
0

> <JCHEM_ATOM_COUNT>
1

> <JCHEM_AVERAGE_POLARIZABILITY>
1.7784

> <JCHEM_BIOAVAILABILITY>
1

> <JCHEM_DONOR_COUNT>
0

> <JCHEM_FORMAL_CHARGE>
0

> <JCHEM_GHOSE_FILTER>
0

> <JCHEM_IUPAC>
actinium

> <ALOGPS_LOGP>
-1.31

> <JCHEM_LOGP>
0.0

> <ALOGPS_LOGS>
1.08

> <JCHEM_MDDR_LIKE_RULE>
0

> <JCHEM_NUMBER_OF_RINGS>
0

> <JCHEM_PHYSIOLOGICAL_CHARGE>
0

> <JCHEM_POLAR_SURFACE_AREA>
0.0

> <JCHEM_REFRACTIVITY>
0.0

> <JCHEM_ROTATABLE_BOND_COUNT>
0

> <JCHEM_RULE_OF_FIVE>
1

> <ALOGPS_SOLUBILITY>
0.00e+00 g/l

> <JCHEM_TRADITIONAL_IUPAC>
actinium

> <JCHEM_VEBER_RULE>
1

> <DRUGBANK_ID>
DB12860

> <DRUG_GROUPS>
investigational

> <GENERIC_NAME>
Actinium

> <SYNONYMS>
Ac; actinio

$$$$
