
  Mrv1533004251513122D          

 15 16  0  0  0  0            999 V2000
    1.8883    0.2902    0.0000 C   0  0  0  0  0  0  0  0  0  0  0  0
    1.0758    0.4334    0.0000 C   0  0  0  0  0  0  0  0  0  0  0  0
    0.5455   -0.1986    0.0000 N   0  0  0  0  0  0  0  0  0  0  0  0
   -0.2669   -0.0553    0.0000 C   0  0  0  0  0  0  0  0  0  0  0  0
   -1.0794   -0.1986    0.0000 C   0  0  0  0  0  0  0  0  0  0  0  0
   -1.6097    0.4334    0.0000 C   0  0  0  0  0  0  0  0  0  0  0  0
   -1.3275    1.2087    0.0000 C   0  0  0  0  0  0  0  0  0  0  0  0
   -0.5151    1.3519    0.0000 C   0  0  0  0  0  0  0  0  0  0  0  0
    0.0152    0.7199    0.0000 C   0  0  0  0  0  0  0  0  0  0  0  0
    0.8277    0.8632    0.0000 O   0  0  0  0  0  0  0  0  0  0  0  0
   -0.2669   -0.8803    0.0000 C   0  0  0  0  0  0  0  0  0  0  0  0
   -0.9344   -1.3652    0.0000 C   0  0  0  0  0  0  0  0  0  0  0  0
   -0.6794   -2.1498    0.0000 C   0  0  0  0  0  0  0  0  0  0  0  0
    0.1456   -2.1498    0.0000 C   0  0  0  0  0  0  0  0  0  0  0  0
    0.4005   -1.3652    0.0000 S   0  0  0  0  0  0  0  0  0  0  0  0
  1  2  1  0  0  0  0
  2  3  1  0  0  0  0
  3  4  1  0  0  0  0
  4  5  1  0  0  0  0
  5  6  1  0  0  0  0
  6  7  1  0  0  0  0
  7  8  1  0  0  0  0
  8  9  1  0  0  0  0
  4  9  1  0  0  0  0
  9 10  2  0  0  0  0
  4 11  1  0  0  0  0
 11 12  2  0  0  0  0
 12 13  1  0  0  0  0
 13 14  2  0  0  0  0
 14 15  1  0  0  0  0
 11 15  1  0  0  0  0
M  END
> <DATABASE_ID>
DB11549

> <DATABASE_NAME>
drugbank

> <SMILES>
CCNC1(CCCCC1=O)C1=CC=CS1

> <INCHI_IDENTIFIER>
InChI=1S/C12H17NOS/c1-2-13-12(11-7-5-9-15-11)8-4-3-6-10(12)14/h5,7,9,13H,2-4,6,8H2,1H3

> <INCHI_KEY>
QAXBVGVYDCAVLV-UHFFFAOYSA-N

> <FORMULA>
C12H17NOS

> <MOLECULAR_WEIGHT>
223.33

> <EXACT_MASS>
223.103085345

> <JCHEM_ACCEPTOR_COUNT>
2

> <JCHEM_ATOM_COUNT>
32

> <JCHEM_AVERAGE_POLARIZABILITY>
24.650021020193055

> <JCHEM_BIOAVAILABILITY>
1

> <JCHEM_DONOR_COUNT>
1

> <JCHEM_FORMAL_CHARGE>
0

> <JCHEM_GHOSE_FILTER>
1

> <JCHEM_IUPAC>
2-(ethylamino)-2-(thiophen-2-yl)cyclohexan-1-one

> <ALOGPS_LOGP>
2.58

> <JCHEM_LOGP>
3.0129473173333325

> <ALOGPS_LOGS>
-3.36

> <JCHEM_MDDR_LIKE_RULE>
0

> <JCHEM_NUMBER_OF_RINGS>
2

> <JCHEM_PHYSIOLOGICAL_CHARGE>
1

> <JCHEM_PKA_STRONGEST_ACIDIC>
18.69100819911204

> <JCHEM_PKA_STRONGEST_BASIC>
7.558283519256588

> <JCHEM_POLAR_SURFACE_AREA>
29.1

> <JCHEM_REFRACTIVITY>
62.3875

> <JCHEM_ROTATABLE_BOND_COUNT>
3

> <JCHEM_RULE_OF_FIVE>
1

> <ALOGPS_SOLUBILITY>
9.65e-02 g/l

> <JCHEM_TRADITIONAL_IUPAC>
tiletamine

> <JCHEM_VEBER_RULE>
1

> <DRUGBANK_ID>
DB11549

> <DRUG_GROUPS>
vet_approved

> <GENERIC_NAME>
Tiletamine

> <SYNONYMS>
Tiletamine

> <SALTS>
Tiletamine hydrochloride

$$$$
