
  Mrv1718008221813102D          

 25 28  0  0  0  0            999 V2000
    0.9299    1.5222    0.0000 H   0  0  0  0  0  0  0  0  0  0  0  0
    0.3981    0.8915    0.0000 C   0  0  0  0  0  0  0  0  0  0  0  0
    0.6784    0.1156    0.0000 C   0  0  1  0  0  0  0  0  0  0  0  0
    1.4905   -0.0295    0.0000 C   0  0  2  0  0  0  0  0  0  0  0  0
    2.1419    0.4767    0.0000 C   0  0  0  0  0  0  0  0  0  0  0  0
    2.8247    0.0137    0.0000 C   0  0  0  0  0  0  0  0  0  0  0  0
    2.5954   -0.7787    0.0000 C   0  0  1  0  0  0  0  0  0  0  0  0
    1.7708   -0.8055    0.0000 C   0  0  1  0  0  0  0  0  0  0  0  0
    1.2390   -1.4362    0.0000 C   0  0  0  0  0  0  0  0  0  0  0  0
    0.4269   -1.2910    0.0000 C   0  0  0  0  0  0  0  0  0  0  0  0
    0.1466   -0.5150    0.0000 C   0  0  2  0  0  0  0  0  0  0  0  0
   -0.6654   -0.3698    0.0000 C   0  0  1  0  0  0  0  0  0  0  0  0
   -1.1972   -1.0005    0.0000 C   0  0  0  0  0  0  0  0  0  0  0  0
   -2.0093   -0.8553    0.0000 C   0  0  0  0  0  0  0  0  0  0  0  0
   -2.2896   -0.0794    0.0000 C   0  0  0  0  0  0  0  0  0  0  0  0
   -3.1018    0.0657    0.0000 O   0  0  0  0  0  0  0  0  0  0  0  0
   -1.7578    0.5512    0.0000 C   0  0  0  0  0  0  0  0  0  0  0  0
   -0.9457    0.4060    0.0000 C   0  0  0  0  0  0  0  0  0  0  0  0
   -0.4139    1.0367    0.0000 C   0  0  0  0  0  0  0  0  0  0  0  0
   -0.6942    1.8126    0.0000 H   0  0  0  0  0  0  0  0  0  0  0  0
   -2.5412   -1.4860    0.0000 H   0  0  0  0  0  0  0  0  0  0  0  0
   -1.3424   -1.8126    0.0000 H   0  0  0  0  0  0  0  0  0  0  0  0
   -0.3851   -1.1457    0.0000 C   0  0  0  0  0  0  0  0  0  0  0  0
    2.1307   -1.5478    0.0000 C   0  0  0  0  0  0  0  0  0  0  0  0
    3.1018   -1.4300    0.0000 O   0  0  0  0  0  0  0  0  0  0  0  0
  1  2  1  0  0  0  0
  3  2  1  0  0  0  0
  3  4  1  1  0  0  0
  4  5  1  6  0  0  0
  5  6  1  0  0  0  0
  7  6  1  0  0  0  0
  8  7  1  0  0  0  0
  4  8  1  0  0  0  0
  8  9  1  0  0  0  0
  9 10  1  0  0  0  0
 11 10  1  6  0  0  0
  3 11  1  0  0  0  0
 11 12  1  0  0  0  0
 12 13  1  0  0  0  0
 13 14  1  0  0  0  0
 14 15  1  0  0  0  0
 15 16  2  0  0  0  0
 15 17  1  0  0  0  0
 17 18  2  0  0  0  0
 12 18  1  0  0  0  0
 18 19  1  0  0  0  0
  2 19  1  0  0  0  0
 19 20  1  0  0  0  0
 14 21  1  0  0  0  0
 13 22  1  0  0  0  0
 12 23  1  6  0  0  0
  8 24  1  6  0  0  0
  7 25  1  6  0  0  0
M  ISO  4   1   3  20   3  21   3  22   3
M  END
> <DATABASE_ID>
DB14093

> <DATABASE_NAME>
drugbank

> <SMILES>
[3H]C1C([3H])C2=CC(=O)C([3H])C([3H])[C@]2(C)[C@H]2CC[C@]3(C)[C@@H](O)CC[C@H]3[C@H]12

> <INCHI_IDENTIFIER>
InChI=1S/C19H28O2/c1-18-9-7-13(20)11-12(18)3-4-14-15-5-6-17(21)19(15,2)10-8-16(14)18/h11,14-17,21H,3-10H2,1-2H3/t14-,15-,16-,17-,18-,19-/m0/s1/i3T,4T,7T,9T/t3?,4?,7?,9?,14-,15-,16-,17-,18-,19-

> <INCHI_KEY>
MUMGGOZAMZWBJJ-JQSYSRDDSA-N

> <FORMULA>
C19H28O2

> <MOLECULAR_WEIGHT>
296.463

> <EXACT_MASS>
296.241827085

> <JCHEM_ACCEPTOR_COUNT>
2

> <JCHEM_ATOM_COUNT>
49

> <JCHEM_AVERAGE_POLARIZABILITY>
34.06097106559256

> <JCHEM_BIOAVAILABILITY>
1

> <JCHEM_DONOR_COUNT>
1

> <JCHEM_FORMAL_CHARGE>
0

> <JCHEM_GHOSE_FILTER>
1

> <JCHEM_IUPAC>
(1S,3aS,3bR,9aR,9bS,11aS)-1-hydroxy-9a,11a-dimethyl(4,5,8,9-3H4)-1H,2H,3H,3aH,3bH,4H,5H,7H,8H,9H,9aH,9bH,10H,11H,11aH-cyclopenta[a]phenanthren-7-one

> <ALOGPS_LOGP>
2.99

> <JCHEM_LOGP>
3.365423297666668

> <ALOGPS_LOGS>
-3.94

> <JCHEM_MDDR_LIKE_RULE>
0

> <JCHEM_NUMBER_OF_RINGS>
4

> <JCHEM_PHYSIOLOGICAL_CHARGE>
0

> <JCHEM_PKA>
19.377705208106928

> <JCHEM_PKA_STRONGEST_ACIDIC>
18.52379863216175

> <JCHEM_PKA_STRONGEST_BASIC>
-0.883941123357545

> <JCHEM_POLAR_SURFACE_AREA>
37.3

> <JCHEM_REFRACTIVITY>
84.4298

> <JCHEM_ROTATABLE_BOND_COUNT>
0

> <JCHEM_RULE_OF_FIVE>
1

> <ALOGPS_SOLUBILITY>
3.33e-02 g/l

> <JCHEM_TRADITIONAL_IUPAC>
(1S,3aS,3bR,9aR,9bS,11aS)-1-hydroxy-9a,11a-dimethyl(4,5,8,9-3H4)-1H,2H,3H,3aH,3bH,4H,5H,8H,9H,9bH,10H,11H-cyclopenta[a]phenanthren-7-one

> <JCHEM_VEBER_RULE>
1

> <DRUGBANK_ID>
DB14093

> <DRUG_GROUPS>
experimental

> <GENERIC_NAME>
(1,2,6,7-3H)Testosterone

> <SYNONYMS>
Testosterone, 1,2,6,7-H-3

$$$$
