
  Mrv1572004221603132D          

 18 20  0  0  0  0            999 V2000
    0.7145    2.0625    0.0000 C   0  0  0  0  0  0  0  0  0  0  0  0
    0.0000    0.0000    0.0000 C   0  0  0  0  0  0  0  0  0  0  0  0
    2.5559   -2.5070    0.0000 C   0  0  0  0  0  0  0  0  0  0  0  0
    3.7511    0.9920    0.0000 C   0  0  0  0  0  0  0  0  0  0  0  0
    0.7145   -0.4125    0.0000 C   0  0  0  0  0  0  0  0  0  0  0  0
    2.8109   -1.7224    0.0000 C   0  0  0  0  0  0  0  0  0  0  0  0
    2.9441    0.8205    0.0000 C   0  0  0  0  0  0  0  0  0  0  0  0
    0.0000    0.8250    0.0000 C   0  0  0  0  0  0  0  0  0  0  0  0
    1.7309   -2.5070    0.0000 C   0  0  0  0  0  0  0  0  0  0  0  0
    4.1636    0.2775    0.0000 C   0  0  0  0  0  0  0  0  0  0  0  0
    1.4289    0.8250    0.0000 C   0  0  0  0  0  0  0  0  0  0  0  0
    1.4289    0.0000    0.0000 C   0  0  0  0  0  0  0  0  0  0  0  0
    2.1434   -1.2375    0.0000 C   0  0  0  0  0  0  0  0  0  0  0  0
    2.8579    0.0000    0.0000 C   0  0  0  0  0  0  0  0  0  0  0  0
    2.1434   -0.4125    0.0000 C   0  0  0  0  0  0  0  0  0  0  0  0
    0.7145    1.2375    0.0000 N   0  0  0  0  0  0  0  0  0  0  0  0
    1.4760   -1.7224    0.0000 S   0  0  0  0  0  0  0  0  0  0  0  0
    3.6116   -0.3356    0.0000 S   0  0  0  0  0  0  0  0  0  0  0  0
  5  2  1  0  0  0  0
  6  3  1  0  0  0  0
  7  4  1  0  0  0  0
  8  2  1  0  0  0  0
  9  3  2  0  0  0  0
 10  4  2  0  0  0  0
 12  5  1  0  0  0  0
 12 11  1  0  0  0  0
 13  6  2  0  0  0  0
 14  7  2  0  0  0  0
 15 12  2  0  0  0  0
 15 13  1  0  0  0  0
 15 14  1  0  0  0  0
 16  1  1  0  0  0  0
 16  8  1  0  0  0  0
 16 11  1  0  0  0  0
 17  9  1  0  0  0  0
 17 13  1  0  0  0  0
 18 10  1  0  0  0  0
 18 14  1  0  0  0  0
M  END
> <DATABASE_ID>
DB13474

> <DATABASE_NAME>
drugbank

> <SMILES>
CN1CCCC(C1)=C(C1=CC=CS1)C1=CC=CS1

> <INCHI_IDENTIFIER>
InChI=1S/C15H17NS2/c1-16-8-2-5-12(11-16)15(13-6-3-9-17-13)14-7-4-10-18-14/h3-4,6-7,9-10H,2,5,8,11H2,1H3

> <INCHI_KEY>
JWIXXNLOKOAAQT-UHFFFAOYSA-N

> <FORMULA>
C15H17NS2

> <MOLECULAR_WEIGHT>
275.43

> <EXACT_MASS>
275.080241899

> <JCHEM_ACCEPTOR_COUNT>
1

> <JCHEM_ATOM_COUNT>
35

> <JCHEM_AVERAGE_POLARIZABILITY>
30.576134773959883

> <JCHEM_BIOAVAILABILITY>
1

> <JCHEM_DONOR_COUNT>
0

> <JCHEM_FORMAL_CHARGE>
0

> <JCHEM_GHOSE_FILTER>
1

> <JCHEM_IUPAC>
3-[bis(thiophen-2-yl)methylidene]-1-methylpiperidine

> <ALOGPS_LOGP>
4.08

> <JCHEM_LOGP>
3.997916633666666

> <ALOGPS_LOGS>
-3.35

> <JCHEM_MDDR_LIKE_RULE>
0

> <JCHEM_NUMBER_OF_RINGS>
3

> <JCHEM_PHYSIOLOGICAL_CHARGE>
1

> <JCHEM_PKA_STRONGEST_BASIC>
7.844354583915872

> <JCHEM_POLAR_SURFACE_AREA>
3.24

> <JCHEM_REFRACTIVITY>
89.40319999999998

> <JCHEM_ROTATABLE_BOND_COUNT>
2

> <JCHEM_RULE_OF_FIVE>
1

> <ALOGPS_SOLUBILITY>
1.22e-01 g/l

> <JCHEM_TRADITIONAL_IUPAC>
tipepidine

> <JCHEM_VEBER_RULE>
1

> <DRUGBANK_ID>
DB13474

> <DRUG_GROUPS>
experimental

> <GENERIC_NAME>
Tipepidine

> <SYNONYMS>
Tipepidine

$$$$
