
  Mrv1909 02282219152D          

 23 24  0  0  1  0            999 V2000
    2.5006    1.6500    0.0000 O   0  0  0  0  0  0  0  0  0  0  0  0
    2.5006    0.8250    0.0000 C   0  0  0  0  0  0  0  0  0  0  0  0
    3.2151    0.4125    0.0000 C   0  0  0  0  0  0  0  0  0  0  0  0
    3.9295    0.8250    0.0000 O   0  0  0  0  0  0  0  0  0  0  0  0
    3.2151   -0.4125    0.0000 C   0  0  0  0  0  0  0  0  0  0  0  0
    2.5006   -0.8250    0.0000 C   0  0  0  0  0  0  0  0  0  0  0  0
    1.7861   -0.4125    0.0000 C   0  0  0  0  0  0  0  0  0  0  0  0
    1.0717   -0.8250    0.0000 C   0  0  0  0  0  0  0  0  0  0  0  0
    0.3572   -0.4125    0.0000 C   0  0  0  0  0  0  0  0  0  0  0  0
   -0.3572   -0.8250    0.0000 C   0  0  0  0  0  0  0  0  0  0  0  0
   -1.0717   -0.4125    0.0000 N   0  0  0  0  0  0  0  0  0  0  0  0
   -1.7861   -0.8250    0.0000 C   0  0  2  0  0  0  0  0  0  0  0  0
   -1.7861   -1.6500    0.0000 C   0  0  0  0  0  0  0  0  0  0  0  0
   -2.5006   -0.4125    0.0000 C   0  0  0  0  0  0  0  0  0  0  0  0
   -3.2151   -0.8250    0.0000 C   0  0  0  0  0  0  0  0  0  0  0  0
   -3.9295   -0.4125    0.0000 C   0  0  0  0  0  0  0  0  0  0  0  0
   -3.9295    0.4125    0.0000 C   0  0  0  0  0  0  0  0  0  0  0  0
   -3.2151    0.8250    0.0000 C   0  0  0  0  0  0  0  0  0  0  0  0
   -2.5006    0.4125    0.0000 C   0  0  0  0  0  0  0  0  0  0  0  0
   -0.3572   -1.6500    0.0000 O   0  0  0  0  0  0  0  0  0  0  0  0
    0.3572    0.4125    0.0000 C   0  0  0  0  0  0  0  0  0  0  0  0
    0.3572    1.2375    0.0000 N   0  0  0  0  0  0  0  0  0  0  0  0
    1.7861    0.4125    0.0000 C   0  0  0  0  0  0  0  0  0  0  0  0
  1  2  1  0  0  0  0
  2  3  2  0  0  0  0
  3  4  1  0  0  0  0
  3  5  1  0  0  0  0
  5  6  2  0  0  0  0
  6  7  1  0  0  0  0
  7  8  1  0  0  0  0
  8  9  2  0  0  0  0
  9 10  1  0  0  0  0
 10 11  1  0  0  0  0
 12 11  1  0  0  0  0
 12 13  1  6  0  0  0
 12 14  1  0  0  0  0
 14 15  2  0  0  0  0
 15 16  1  0  0  0  0
 16 17  2  0  0  0  0
 17 18  1  0  0  0  0
 18 19  2  0  0  0  0
 14 19  1  0  0  0  0
 10 20  2  0  0  0  0
  9 21  1  0  0  0  0
 21 22  3  0  0  0  0
  7 23  2  0  0  0  0
  2 23  1  0  0  0  0
M  END
> <DATABASE_ID>
DB16762

> <DATABASE_NAME>
drugbank

> <SMILES>
C[C@@H](NC(=O)C(=C\C1=CC(O)=C(O)C=C1)\C#N)C1=CC=CC=C1

> <INCHI_IDENTIFIER>
InChI=1S/C18H16N2O3/c1-12(14-5-3-2-4-6-14)20-18(23)15(11-19)9-13-7-8-16(21)17(22)10-13/h2-10,12,21-22H,1H3,(H,20,23)/b15-9+/t12-/m1/s1

> <INCHI_KEY>
UMGQVUWXNOJOSJ-KMHUVPDISA-N

> <FORMULA>
C18H16N2O3

> <MOLECULAR_WEIGHT>
308.337

> <EXACT_MASS>
308.116092383

> <JCHEM_ACCEPTOR_COUNT>
4

> <JCHEM_ATOM_COUNT>
39

> <JCHEM_AVERAGE_NEUTRAL_MICROSPECIES_CHARGE>
-0.03581612142390305

> <JCHEM_AVERAGE_POLARIZABILITY>
32.264119719616474

> <JCHEM_BIOAVAILABILITY>
1

> <JCHEM_DONOR_COUNT>
3

> <JCHEM_FORMAL_CHARGE>
0

> <JCHEM_GHOSE_FILTER>
1

> <JCHEM_IUPAC>
(2E)-2-cyano-3-(3,4-dihydroxyphenyl)-N-[(1R)-1-phenylethyl]prop-2-enamide

> <ALOGPS_LOGP>
2.92

> <JCHEM_LOGP>
2.898595832333333

> <ALOGPS_LOGS>
-4.30

> <JCHEM_MDDR_LIKE_RULE>
0

> <JCHEM_NEUTRAL_CHARGE>
0

> <JCHEM_NUMBER_OF_RINGS>
2

> <JCHEM_PHYSIOLOGICAL_CHARGE>
0

> <JCHEM_PKA>
11.937774041397866

> <JCHEM_PKA_STRONGEST_ACIDIC>
8.430275458746529

> <JCHEM_PKA_STRONGEST_BASIC>
-1.4446027561055688

> <JCHEM_POLAR_SURFACE_AREA>
93.35

> <JCHEM_REFRACTIVITY>
87.82560000000001

> <JCHEM_ROTATABLE_BOND_COUNT>
4

> <JCHEM_RULE_OF_FIVE>
1

> <ALOGPS_SOLUBILITY>
1.56e-02 g/l

> <JCHEM_TRADITIONAL_IUPAC>
tpmpa

> <JCHEM_VEBER_RULE>
0

> <DRUGBANK_ID>
DB16762

> <DRUG_GROUPS>
experimental

> <GENERIC_NAME>
Tyrphostin B44

> <SYNONYMS>
AG 527; AG527; Tyrphostin AG 527; Tyrphostin B-44; Tyrphostin B44, (-) enantiomer; Tyrphostin B44(-)

$$$$
