
  Mrv1909 02092020182D          

 40 44  0  0  0  0            999 V2000
   -2.7787   -0.8748    0.0000 C   0  0  0  0  0  0  0  0  0  0  0  0
   -3.0218   -1.6632    0.0000 C   0  0  0  0  0  0  0  0  0  0  0  0
   -2.4607   -2.2679    0.0000 C   0  0  0  0  0  0  0  0  0  0  0  0
   -1.6564   -2.0844    0.0000 C   0  0  0  0  0  0  0  0  0  0  0  0
   -1.4132   -1.2960    0.0000 C   0  0  0  0  0  0  0  0  0  0  0  0
   -1.9744   -0.6913    0.0000 C   0  0  0  0  0  0  0  0  0  0  0  0
   -1.7312    0.0970    0.0000 C   0  0  0  0  0  0  0  0  0  0  0  0
    1.4132   -1.2960    0.0000 C   0  0  0  0  0  0  0  0  0  0  0  0
    1.6563   -2.0844    0.0000 C   0  0  0  0  0  0  0  0  0  0  0  0
    2.4606   -2.2679    0.0000 C   0  0  0  0  0  0  0  0  0  0  0  0
    3.0219   -1.6632    0.0000 C   0  0  0  0  0  0  0  0  0  0  0  0
    2.7786   -0.8748    0.0000 C   0  0  0  0  0  0  0  0  0  0  0  0
    1.9743   -0.6913    0.0000 C   0  0  0  0  0  0  0  0  0  0  0  0
    1.7311    0.0970    0.0000 C   0  0  0  0  0  0  0  0  0  0  0  0
   -0.9269    0.2806    0.0000 C   0  0  2  0  0  0  0  0  0  0  0  0
   -0.4125   -0.3643    0.0000 C   0  0  2  0  0  0  0  0  0  0  0  0
   -0.7704   -1.1076    0.0000 O   0  0  0  0  0  0  0  0  0  0  0  0
    0.4124   -0.3643    0.0000 C   0  0  1  0  0  0  0  0  0  0  0  0
    0.7704   -1.1076    0.0000 O   0  0  0  0  0  0  0  0  0  0  0  0
    0.9269    0.2806    0.0000 C   0  0  2  0  0  0  0  0  0  0  0  0
   -2.1563    1.2979    0.0000 C   0  0  0  0  0  0  0  0  0  0  0  0
   -2.2792    0.4821    0.0000 C   0  0  0  0  0  0  0  0  0  0  0  0
   -3.0472    0.1808    0.0000 C   0  0  0  0  0  0  0  0  0  0  0  0
   -3.6922    0.6951    0.0000 C   0  0  0  0  0  0  0  0  0  0  0  0
   -3.5692    1.5108    0.0000 C   0  0  0  0  0  0  0  0  0  0  0  0
   -2.8013    1.8122    0.0000 C   0  0  0  0  0  0  0  0  0  0  0  0
    3.5693    1.5108    0.0000 C   0  0  0  0  0  0  0  0  0  0  0  0
    3.6922    0.6951    0.0000 C   0  0  0  0  0  0  0  0  0  0  0  0
    3.0472    0.1808    0.0000 C   0  0  0  0  0  0  0  0  0  0  0  0
    2.2793    0.4821    0.0000 C   0  0  0  0  0  0  0  0  0  0  0  0
    2.1563    1.2979    0.0000 C   0  0  0  0  0  0  0  0  0  0  0  0
    2.8012    1.8122    0.0000 C   0  0  0  0  0  0  0  0  0  0  0  0
    0.7432    1.0849    0.0000 N   0  0  0  0  0  0  0  0  0  0  0  0
    0.0000    1.4428    0.0000 C   0  0  0  0  0  0  0  0  0  0  0  0
   -0.7433    1.0849    0.0000 N   0  0  0  0  0  0  0  0  0  0  0  0
    0.0000    2.2678    0.0000 O   0  0  0  0  0  0  0  0  0  0  0  0
    1.3883    1.5993    0.0000 C   0  0  0  0  0  0  0  0  0  0  0  0
   -1.3883    1.5993    0.0000 C   0  0  0  0  0  0  0  0  0  0  0  0
    4.2143    2.0252    0.0000 N   0  0  0  0  0  0  0  0  0  0  0  0
   -4.2143    2.0252    0.0000 N   0  0  0  0  0  0  0  0  0  0  0  0
 20 14  1  6  0  0  0
  5  6  2  0  0  0  0
 11 12  1  0  0  0  0
  6  1  1  0  0  0  0
 12 13  2  0  0  0  0
 21 22  2  0  0  0  0
 13  8  1  0  0  0  0
 22 23  1  0  0  0  0
  1  2  2  0  0  0  0
 23 24  2  0  0  0  0
 13 14  1  0  0  0  0
 24 25  1  0  0  0  0
 15  7  1  1  0  0  0
 25 26  2  0  0  0  0
 26 21  1  0  0  0  0
  6  7  1  0  0  0  0
 27 28  2  0  0  0  0
  3  4  2  0  0  0  0
 28 29  1  0  0  0  0
 16 17  1  1  0  0  0
 29 30  2  0  0  0  0
 30 31  1  0  0  0  0
 31 32  2  0  0  0  0
 32 27  1  0  0  0  0
  8  9  2  0  0  0  0
  4  5  1  0  0  0  0
 33 34  1  0  0  0  0
 34 35  1  0  0  0  0
 20 33  1  0  0  0  0
 15 35  1  0  0  0  0
 18 20  1  0  0  0  0
 16 15  1  0  0  0  0
 16 18  1  0  0  0  0
 18 19  1  6  0  0  0
 34 36  2  0  0  0  0
  9 10  1  0  0  0  0
 33 37  1  0  0  0  0
 37 31  1  0  0  0  0
  2  3  1  0  0  0  0
 35 38  1  0  0  0  0
 38 21  1  0  0  0  0
 10 11  2  0  0  0  0
 27 39  1  0  0  0  0
 25 40  1  0  0  0  0
M  END
> <DATABASE_ID>
DB02102

> <DATABASE_NAME>
drugbank

> <SMILES>
NC1=CC(CN2[C@H](CC3=CC=CC=C3)[C@H](O)[C@@H](O)[C@@H](CC3=CC=CC=C3)N(CC3=CC(N)=CC=C3)C2=O)=CC=C1

> <INCHI_IDENTIFIER>
InChI=1S/C33H36N4O3/c34-27-15-7-13-25(17-27)21-36-29(19-23-9-3-1-4-10-23)31(38)32(39)30(20-24-11-5-2-6-12-24)37(33(36)40)22-26-14-8-16-28(35)18-26/h1-18,29-32,38-39H,19-22,34-35H2/t29-,30-,31+,32+/m1/s1

> <INCHI_KEY>
KYRSNWPSSXSNEP-ZRTHHSRSSA-N

> <FORMULA>
C33H36N4O3

> <MOLECULAR_WEIGHT>
536.6639

> <EXACT_MASS>
536.278741038

> <JCHEM_ACCEPTOR_COUNT>
5

> <JCHEM_ATOM_COUNT>
76

> <JCHEM_AVERAGE_NEUTRAL_MICROSPECIES_CHARGE>
0.003361035962207138

> <JCHEM_AVERAGE_POLARIZABILITY>
57.44798025521008

> <JCHEM_BIOAVAILABILITY>
1

> <JCHEM_DONOR_COUNT>
4

> <JCHEM_FORMAL_CHARGE>
0

> <JCHEM_GHOSE_FILTER>
0

> <JCHEM_IUPAC>
(4R,5S,6S,7R)-1,3-bis[(3-aminophenyl)methyl]-4,7-dibenzyl-5,6-dihydroxy-1,3-diazepan-2-one

> <ALOGPS_LOGP>
3.26

> <JCHEM_LOGP>
4.035572685

> <ALOGPS_LOGS>
-4.41

> <JCHEM_MDDR_LIKE_RULE>
1

> <JCHEM_NEUTRAL_CHARGE>
0

> <JCHEM_NUMBER_OF_RINGS>
5

> <JCHEM_PHYSIOLOGICAL_CHARGE>
0

> <JCHEM_PKA>
14.652882913056612

> <JCHEM_PKA_STRONGEST_ACIDIC>
13.229703203444783

> <JCHEM_PKA_STRONGEST_BASIC>
4.437112091840668

> <JCHEM_POLAR_SURFACE_AREA>
116.05

> <JCHEM_REFRACTIVITY>
159.387

> <JCHEM_ROTATABLE_BOND_COUNT>
8

> <JCHEM_RULE_OF_FIVE>
0

> <ALOGPS_SOLUBILITY>
2.07e-02 g/l

> <JCHEM_TRADITIONAL_IUPAC>
mozenavir

> <JCHEM_VEBER_RULE>
0

> <DRUGBANK_ID>
DB02102

> <SECONDARY_ACCESSION_NUMBERS>
EXPT00197; DB02886

> <DRUG_GROUPS>
experimental

> <GENERIC_NAME>
Mozenavir

> <SYNONYMS>
Mozenavir; Moz√©navir; Mozenavirum

$$$$
