
  Mrv1909 08192022492D          

 16 17  0  0  0  0            999 V2000
   -0.3572    1.4437    0.0000 C   0  0  0  0  0  0  0  0  0  0  0  0
    0.3572    1.0312    0.0000 C   0  0  0  0  0  0  0  0  0  0  0  0
   -1.0716    1.0312    0.0000 C   0  0  0  0  0  0  0  0  0  0  0  0
   -0.3572    2.2687    0.0000 C   0  0  0  0  0  0  0  0  0  0  0  0
    0.3572    0.2062    0.0000 O   0  0  0  0  0  0  0  0  0  0  0  0
    1.0717    1.4437    0.0000 O   0  0  0  0  0  0  0  0  0  0  0  0
   -1.7861    1.4437    0.0000 C   0  0  0  0  0  0  0  0  0  0  0  0
   -1.0716    2.6812    0.0000 N   0  0  0  0  0  0  0  0  0  0  0  0
    1.0717   -0.2062    0.0000 C   0  0  0  0  0  0  0  0  0  0  0  0
   -1.7861    2.2687    0.0000 C   0  0  0  0  0  0  0  0  0  0  0  0
    1.0717   -1.0312    0.0000 C   0  0  0  0  0  0  0  0  0  0  0  0
    1.7861   -1.4437    0.0000 C   0  0  0  0  0  0  0  0  0  0  0  0
    0.3572   -1.4437    0.0000 C   0  0  0  0  0  0  0  0  0  0  0  0
    1.7861   -2.2687    0.0000 C   0  0  0  0  0  0  0  0  0  0  0  0
    0.3572   -2.2687    0.0000 C   0  0  0  0  0  0  0  0  0  0  0  0
    1.0717   -2.6812    0.0000 C   0  0  0  0  0  0  0  0  0  0  0  0
  1  2  1  0  0  0  0
  1  3  2  0  0  0  0
  1  4  1  0  0  0  0
  2  5  1  0  0  0  0
  2  6  2  0  0  0  0
  3  7  1  0  0  0  0
  4  8  2  0  0  0  0
  5  9  1  0  0  0  0
  7 10  2  0  0  0  0
  9 11  1  0  0  0  0
 11 12  2  0  0  0  0
 11 13  1  0  0  0  0
 12 14  1  0  0  0  0
 13 15  2  0  0  0  0
 14 16  2  0  0  0  0
  8 10  1  0  0  0  0
 15 16  1  0  0  0  0
M  END
> <DATABASE_ID>
DB15764

> <DATABASE_NAME>
drugbank

> <SMILES>
O=C(OCC1=CC=CC=C1)C1=CC=CN=C1

> <INCHI_IDENTIFIER>
InChI=1S/C13H11NO2/c15-13(12-7-4-8-14-9-12)16-10-11-5-2-1-3-6-11/h1-9H,10H2

> <INCHI_KEY>
KVYGGMBOZFWZBQ-UHFFFAOYSA-N

> <FORMULA>
C13H11NO2

> <MOLECULAR_WEIGHT>
213.236

> <EXACT_MASS>
213.078978598

> <JCHEM_ACCEPTOR_COUNT>
2

> <JCHEM_ATOM_COUNT>
27

> <JCHEM_AVERAGE_NEUTRAL_MICROSPECIES_CHARGE>
0.00017398935319878873

> <JCHEM_AVERAGE_POLARIZABILITY>
22.390719858057697

> <JCHEM_BIOAVAILABILITY>
1

> <JCHEM_DONOR_COUNT>
0

> <JCHEM_FORMAL_CHARGE>
0

> <JCHEM_GHOSE_FILTER>
1

> <JCHEM_IUPAC>
benzyl pyridine-3-carboxylate

> <ALOGPS_LOGP>
2.40

> <JCHEM_LOGP>
2.4835234703333335

> <ALOGPS_LOGS>
-2.02

> <JCHEM_MDDR_LIKE_RULE>
0

> <JCHEM_NEUTRAL_CHARGE>
0

> <JCHEM_NUMBER_OF_RINGS>
2

> <JCHEM_PHYSIOLOGICAL_CHARGE>
0

> <JCHEM_PKA_STRONGEST_BASIC>
3.240598242853329

> <JCHEM_POLAR_SURFACE_AREA>
39.19

> <JCHEM_REFRACTIVITY>
60.539000000000016

> <JCHEM_ROTATABLE_BOND_COUNT>
4

> <JCHEM_RULE_OF_FIVE>
1

> <ALOGPS_SOLUBILITY>
2.04e+00 g/l

> <JCHEM_TRADITIONAL_IUPAC>
unii-71TH42O2CQ

> <JCHEM_VEBER_RULE>
1

> <DRUGBANK_ID>
DB15764

> <DRUG_GROUPS>
experimental

> <GENERIC_NAME>
Benzyl nicotinate

> <SYNONYMS>
Benzyl nicotinate; Nicotinic acid benzyl ester; Phenylmethyl 3-pyridinecarboxylate

$$$$
