
  Mrv1909 12152018042D          

 20 21  0  0  0  0            999 V2000
    0.0000   -1.6500    0.0000 O   0  0  0  0  0  0  0  0  0  0  0  0
    0.0000   -2.4750    0.0000 C   0  0  0  0  0  0  0  0  0  0  0  0
    0.7145   -2.8875    0.0000 C   0  0  0  0  0  0  0  0  0  0  0  0
    0.7145   -3.7125    0.0000 C   0  0  0  0  0  0  0  0  0  0  0  0
    1.4289   -4.1250    0.0000 C   0  0  0  0  0  0  0  0  0  0  0  0
    1.4289   -4.9500    0.0000 C   0  0  0  0  0  0  0  0  0  0  0  0
    2.1434   -5.3625    0.0000 C   0  0  0  0  0  0  0  0  0  0  0  0
    2.8579   -4.9500    0.0000 C   0  0  0  0  0  0  0  0  0  0  0  0
    3.5724   -5.3625    0.0000 C   0  0  0  0  0  0  0  0  0  0  0  0
    3.5724   -6.1875    0.0000 C   0  0  0  0  0  0  0  0  0  0  0  0
    2.8579   -6.6000    0.0000 C   0  0  0  0  0  0  0  0  0  0  0  0
    2.1434   -6.1875    0.0000 C   0  0  0  0  0  0  0  0  0  0  0  0
    4.2868   -6.6000    0.0000 C   0  0  0  0  0  0  0  0  0  0  0  0
    5.0013   -7.0125    0.0000 F   0  0  0  0  0  0  0  0  0  0  0  0
    4.6993   -5.8855    0.0000 F   0  0  0  0  0  0  0  0  0  0  0  0
    3.8743   -7.3145    0.0000 F   0  0  0  0  0  0  0  0  0  0  0  0
    0.0000   -4.1250    0.0000 N   0  0  0  0  0  0  0  0  0  0  0  0
   -0.7145   -3.7125    0.0000 N   0  0  0  0  0  0  0  0  0  0  0  0
   -0.7145   -2.8875    0.0000 C   0  0  0  0  0  0  0  0  0  0  0  0
   -1.4289   -2.4750    0.0000 O   0  0  0  0  0  0  0  0  0  0  0  0
  1  2  1  0  0  0  0
  2  3  2  0  0  0  0
  3  4  1  0  0  0  0
  4  5  1  0  0  0  0
  5  6  1  0  0  0  0
  6  7  1  0  0  0  0
  7  8  2  0  0  0  0
  8  9  1  0  0  0  0
  9 10  2  0  0  0  0
 10 11  1  0  0  0  0
 11 12  2  0  0  0  0
  7 12  1  0  0  0  0
 10 13  1  0  0  0  0
 13 14  1  0  0  0  0
 13 15  1  0  0  0  0
 13 16  1  0  0  0  0
  4 17  2  0  0  0  0
 17 18  1  0  0  0  0
 18 19  1  0  0  0  0
  2 19  1  0  0  0  0
 19 20  2  0  0  0  0
M  END
> <DATABASE_ID>
DB16067

> <DATABASE_NAME>
drugbank

> <SMILES>
OC1=CC(CCC2=CC=C(C=C2)C(F)(F)F)=NNC1=O

> <INCHI_IDENTIFIER>
InChI=1S/C13H11F3N2O2/c14-13(15,16)9-4-1-8(2-5-9)3-6-10-7-11(19)12(20)18-17-10/h1-2,4-5,7H,3,6H2,(H,17,19)(H,18,20)

> <INCHI_KEY>
QBQMUMMSYHUDFM-UHFFFAOYSA-N

> <FORMULA>
C13H11F3N2O2

> <MOLECULAR_WEIGHT>
284.238

> <EXACT_MASS>
284.077262091

> <JCHEM_ACCEPTOR_COUNT>
3

> <JCHEM_ATOM_COUNT>
31

> <JCHEM_AVERAGE_NEUTRAL_MICROSPECIES_CHARGE>
-0.11312851103039315

> <JCHEM_AVERAGE_POLARIZABILITY>
25.121636299426427

> <JCHEM_BIOAVAILABILITY>
1

> <JCHEM_DONOR_COUNT>
2

> <JCHEM_FORMAL_CHARGE>
0

> <JCHEM_GHOSE_FILTER>
1

> <JCHEM_IUPAC>
4-hydroxy-6-{2-[4-(trifluoromethyl)phenyl]ethyl}-2,3-dihydropyridazin-3-one

> <ALOGPS_LOGP>
2.41

> <JCHEM_LOGP>
2.613035002

> <ALOGPS_LOGS>
-3.83

> <JCHEM_MDDR_LIKE_RULE>
0

> <JCHEM_NEUTRAL_CHARGE>
0

> <JCHEM_NUMBER_OF_RINGS>
2

> <JCHEM_PHYSIOLOGICAL_CHARGE>
0

> <JCHEM_PKA>
12.697717187670438

> <JCHEM_PKA_STRONGEST_ACIDIC>
7.894297366022806

> <JCHEM_PKA_STRONGEST_BASIC>
-3.190707691914994

> <JCHEM_POLAR_SURFACE_AREA>
61.690000000000005

> <JCHEM_REFRACTIVITY>
67.70139999999999

> <JCHEM_ROTATABLE_BOND_COUNT>
4

> <JCHEM_RULE_OF_FIVE>
1

> <ALOGPS_SOLUBILITY>
4.25e-02 g/l

> <JCHEM_TRADITIONAL_IUPAC>
2-methoxy-4-[(1E)-3-[4-(nitrooxy)butoxy]-3-oxoprop-1-en-1-yl]phenyl (4R)-4-[(1R,3aS,3bR,4S,5aS,7R,9aS,9bS,11aR)-4,7-dihydroxy-9a,11a-dimethyl-tetradecahydro-1H-cyclopenta[a]phenanthren-1-yl]pentanoate

> <JCHEM_VEBER_RULE>
0

> <DRUGBANK_ID>
DB16067

> <DRUG_GROUPS>
investigational

> <GENERIC_NAME>
TAK-831

> <SYNONYMS>
Luvadaxistat

$$$$
