
  Mrv1909 07102021182D          

  1  0  0  0  0  0            999 V2000
    0.0000    0.0000    0.0000 Fe  0  0  0  0  0  0  0  0  0  0  0  0
M  END
> <DATABASE_ID>
DB01592

> <DATABASE_NAME>
drugbank

> <SMILES>
[Fe]

> <INCHI_IDENTIFIER>
InChI=1S/Fe

> <INCHI_KEY>
XEEYBQQBJWHFJM-UHFFFAOYSA-N

> <FORMULA>
Fe

> <MOLECULAR_WEIGHT>
55.845

> <EXACT_MASS>
55.934942133

> <JCHEM_ACCEPTOR_COUNT>
0

> <JCHEM_ATOM_COUNT>
1

> <JCHEM_AVERAGE_NEUTRAL_MICROSPECIES_CHARGE>
0.0

> <JCHEM_AVERAGE_POLARIZABILITY>
1.7784

> <JCHEM_BIOAVAILABILITY>
1

> <JCHEM_DONOR_COUNT>
0

> <JCHEM_FORMAL_CHARGE>
0

> <JCHEM_GHOSE_FILTER>
0

> <JCHEM_IUPAC>
iron

> <JCHEM_LOGP>
-0.77

> <JCHEM_MDDR_LIKE_RULE>
0

> <JCHEM_NEUTRAL_CHARGE>
0

> <JCHEM_NUMBER_OF_RINGS>
0

> <JCHEM_PHYSIOLOGICAL_CHARGE>
0

> <JCHEM_POLAR_SURFACE_AREA>
0.0

> <JCHEM_REFRACTIVITY>
0.0

> <JCHEM_ROTATABLE_BOND_COUNT>
0

> <JCHEM_RULE_OF_FIVE>
1

> <JCHEM_TRADITIONAL_IUPAC>
ethane

> <JCHEM_VEBER_RULE>
1

> <DRUGBANK_ID>
DB01592

> <DRUG_GROUPS>
approved

> <GENERIC_NAME>
Iron

> <SYNONYMS>
Carbonyl iron; Eisen; Electrolytic iron; Fe; fer; Ferrum; Ferrum metallicum; Hierro; Iron powder; Iron, carbonyl; Iron, electrolytic; Iron, elemental; Iron, reduced; Reduced iron

> <PRODUCTS>
Active FE; Active OB; Actyform; Advanced B & T Formula; BioFerr 90; BumP DHA; Calcium Et Magnesium Plus Vitamine D/fe/zn; Cavan Alpha; Cavan Heme OB; Cavan One; Centratex; Chela Iron Plus C,b Complex; Chelamins Plus Tab; Chelated Iron 25mg - Caplet; Chelated Iron Supplement - Tab; Chelated Iron Tab 25mg; Children's Chewable Multi-vitamin Complete With Minerals; Children's Chewable Vit and Min Tab; Childrens Chewab Vitamin W Chel Minerals; CitraNatal 90 DHA; CitraNatal Assure; CitraNatal B-Calm; CitraNatal Bloom; CitraNatal Bloom DHA; CitraNatal DHA; CitraNatal Essence; CitraNatal Harmony; CitraNatal Harmony 3.0; CitraNatal Medley; CitraNatal Rx; Citranatal B-calm; Citranatal Harmony 2.1; Classic Swiss One 10 Multivitamin and Mineral Tab; Complete Multivitamins and Minerals Tablets Timed Release; Complete One A Day Tab; Complete-RF Prenatal; Concept DHA; Concept OB; Copper 3mg Plus Iron & Zinc Tab; Corvita; Corvita 150; Corvite; Corvite 150; Corvite FE; Docosavit; Dothelle DHA; Duet DHA; Duet DHA 400; Duet DHA 400 ec; Duet DHA Balanced; DuetDHA Balanced; DuetDHA Complete; Edge OB; Elite OB Prenatal Multivitamin; Escavite; FE C Tab; FE C Tab Plus; Fe-chelate Tab; Fem - Control; Fem Time Tab; Fera Liq 16.7mg/15ml; Ferra Naka Plus Vitamins; FerraPlus 90; Ferralet 90; Ferrex 150 Forte; Ferrex 150 Forte Plus; Ferrex 150 Plus; Ferrex 28; Floradix Formula Liq; Focalgin 90 DHA; Focalgin CA; Focalgin DSS; FolaGent DHA; FolaMed DHA; Folcaps Care One; Folcaps Omega-3; Folet One; Folivane-F; Folivane-OB; Folivane-PRx DHA; Folivane-Plus with Ascorbic Acid Precursors; Foltabs Prenatal; Foltabs Prenatal Plus DHA; Folvite-FE; For-2; Formula Fm Vitamins & Minerals Tab; Formula Int; Fusion Plus; Glyco Lite Ect; Glyco Plus Ect; Hi Potency Multi Tab; INATAL Ultra; Iferex 150; Inatal Advance; Innersource Tab; Integra; Iron; Iron 25mg With Vit B-cmplx, Vit C, Cu & Mo; Iron Amino Chelate Tab 37mg; Iron Chelate 25 mg; Iron Chews; Iron Proteinate Chelate Tab 25mg; Iron Proteinate Tab 25mg; Iron Tab 40mg; Iron W Zinc Chelated W Liver Tab; Iron With Vitamins Tab; LYDIA PINKHAM Herbal Supplement; Liquid Opti-minplex +d; Maintain Multiple Vitamin & Minerals; MaxFe; Maxaron Forte; Mega Multiple Minerals; Mega Plex III - Pck; Mega Plex IV - Pck; Mega-vim 75 With Beta-carotene - Tablets; Moms Choice Rx; Multi #2; Multi Cal Mag Liquid; Multi II IV Vi Tab; Multi Mega Minerals With Vitamin D; Multi Plex I - Tab; Multi Plex II - Tab; Multi Vitamin - Mineral; Multi Vitamin, Iron and Fluoride; Multi Vitamins & Minerals; Multi-Nate 30; Multi-Vitamin Fluoride and Iron Drops; Multi-mins Minerals; Multi-phyto Capsules; Multimineral Chelates; Multiminerals; Multinate DHA; Multinate DHA Extra; Multipack II; Multiple Minerals; Multra Plex; NESTABS ABC Prenatal Multi-vitamin/Mineral Supplement with DHA/EPA; Nata Komplete; NataChew; NataFort; Natal-V RX Multi-vitamin/Multi-mineral; Natalvirt 90dha; Natalvirt Ca; Natelle One; Neonatal Fe; Nephron FA; Nestabs ONE; Nexa Plus; Nexa Select Rx Prenatal Vitamin with Plant-Based DHA; Niron Komplete; Nitro Vites - Tab; NovaFerrum; NovaFerrum 125; NovaFerrum 50; NovaFerrum Multivitamin with Iron Pediatric Drops; NovaFerrum Pediatric Drops; NuFera; OB Complete 400; OB Complete DHA; OB Complete Gold; OB Complete Petite; OB Complete Prenatal; P.N. Vitamin-mineral Drink; PNV Tabs 29-1; PROTECT IRON Liquid; Paire OB Plus DHA; Pnv Ob DHA; Poly-Vi-Flor; Polysacc Iron Complex; Polysaccharide-Iron; PreFol-DHA; PreGen DHA; PreNatal Vitamins Plus; PreQue 10; Prenaissance Plus; Prenatal Formula Tab; Prenatal Plus; Prenatal Plus Iron; Prenatal Vi-min; Prenatal Vitamins Plus Low Iron; Prenate Mini; Provida DHA; Provida OB; Quflora FE; RE Nata; RE Nata OB; RE Prenatal Multivitamin with Iron; RayaVit; Re Kar C Plus; Re Ob 90 DHA; Reaphirm Plant Source DHA; Relnate DHA; Renate; Renate DHA; Revitalize Multi-vitamin and Mineral Complex; Rocky Mountain Multiple Vit and Min Mega Tab; Select OB; Select-OB Plus DHA Prenatal Supplement Plus DHA; SetonET; Spark Cap; Spectrum 2 Cap; Strovite Forte Caplet; Super Vita Vim Multivitamins and Minerals; Super Vita-vim With Beta-carotene - Tab; Supplement De Fer; Swiss One Multi Vit & Chel Min Tab; TL-Fluorivite; Tandem DHA; Tandem OB; Taron BC; Taron Forte; Taron-C DHA; Tendera-OB; Thrivite Rx; Timed Release Vita-vim Srt; Tl-hem 150; TriAdvance; TriStart DHA; TriStart FREE; TriStart ONE; Trinatal GT; Trinatal Ultra; Triveen-PRx RNF; Ultimate OB DHA; UltimateCare ONE; UltimateCare ONE NF; VIL-Rx; VITAFOL Gummies; VP CH Plus; VP CH Ultra; VP-Iron-C; VP-Iron-C Plus; Vege Swiss One Multivitamin W Chel Mins Tab; Vena-Bal DHA; Vinacal; Vinate AZ; Virt Vite GT; Virt-Advance; Virt-C DHA; Virt-Care One; Virt-Tabs; Vita Balance 2000; Vita Day Tab; Vita Plex Tab; Vita Vim Multivitamins and Minerals Tab; Vita-Pac; Vita-vim - Tab; VitaPhil Aide; Vitafol Caplet; Vitafol Fe Plus; Vitafol Nano; Vitafol OB Caplet; Vitafol One; Vitafol Plus; Vitafol Ultra; Vitafol-OB Plus DHA Prenatal Supplement Plus DHA; Vitaphil 90 DHA; Vitaphil DHA; Vol-Tab Rx; Vp-CH-pnv; Wee Care; WesCap-C-DHA; WestGel DHA; Zatean-CH; iFerex 150 Forte

> <INTERNATIONAL_BRANDS>
Ed-In-Sol; Fe-40; Feosol; Feostat; Fer-In-Sol; Feratab; Ferate; Fergon; Ferralet; Ferretts; Ferro sanol; Ferro-Caps; Ferro-Time; Ferrousal; Siderol; Simron; Slow Fe; Vitedyn-Slo; Yieronia

$$$$
