
  Mrv1652310211602232D          

 14 15  0  0  0  0            999 V2000
    5.4957    2.3479    0.0000 C   0  0  0  0  0  0  0  0  0  0  0  0
    4.7812    1.9354    0.0000 C   0  0  0  0  0  0  0  0  0  0  0  0
    4.0668    2.3479    0.0000 C   0  0  0  0  0  0  0  0  0  0  0  0
    4.0668    3.1729    0.0000 O   0  0  0  0  0  0  0  0  0  0  0  0
    3.3523    1.9354    0.0000 C   0  0  0  0  0  0  0  0  0  0  0  0
    3.3523    1.1104    0.0000 C   0  0  0  0  0  0  0  0  0  0  0  0
    2.6378    0.6979    0.0000 C   0  0  0  0  0  0  0  0  0  0  0  0
    1.9233    1.1104    0.0000 C   0  0  0  0  0  0  0  0  0  0  0  0
    1.9233    1.9354    0.0000 C   0  0  0  0  0  0  0  0  0  0  0  0
    2.6378    2.3479    0.0000 C   0  0  0  0  0  0  0  0  0  0  0  0
    1.1387    2.1904    0.0000 O   0  0  0  0  0  0  0  0  0  0  0  0
    0.6538    1.5229    0.0000 C   0  0  0  0  0  0  0  0  0  0  0  0
    1.1387    0.8555    0.0000 O   0  0  0  0  0  0  0  0  0  0  0  0
    4.7812    1.1104    0.0000 N   0  0  0  0  0  0  0  0  0  0  0  0
  1  2  1  0  0  0  0
  2  3  1  0  0  0  0
  3  4  2  0  0  0  0
  3  5  1  0  0  0  0
  5  6  2  0  0  0  0
  6  7  1  0  0  0  0
  7  8  2  0  0  0  0
  8  9  1  0  0  0  0
  9 10  2  0  0  0  0
  5 10  1  0  0  0  0
  9 11  1  0  0  0  0
 11 12  1  0  0  0  0
 12 13  1  0  0  0  0
  8 13  1  0  0  0  0
  2 14  1  0  0  0  0
M  END
> <DATABASE_ID>
DB12809

> <DATABASE_NAME>
drugbank

> <SMILES>
CC(N)C(=O)C1=CC=C2OCOC2=C1

> <INCHI_IDENTIFIER>
InChI=1S/C10H11NO3/c1-6(11)10(12)7-2-3-8-9(4-7)14-5-13-8/h2-4,6H,5,11H2,1H3

> <INCHI_KEY>
XDEZOLVDJWWXRG-UHFFFAOYSA-N

> <FORMULA>
C10H11NO3

> <MOLECULAR_WEIGHT>
193.202

> <EXACT_MASS>
193.073893218

> <JCHEM_ACCEPTOR_COUNT>
4

> <JCHEM_ATOM_COUNT>
25

> <JCHEM_AVERAGE_POLARIZABILITY>
19.76496002183369

> <JCHEM_BIOAVAILABILITY>
1

> <JCHEM_DONOR_COUNT>
1

> <JCHEM_FORMAL_CHARGE>
0

> <JCHEM_GHOSE_FILTER>
1

> <JCHEM_IUPAC>
2-amino-1-(2H-1,3-benzodioxol-5-yl)propan-1-one

> <ALOGPS_LOGP>
0.21

> <JCHEM_LOGP>
0.798761202

> <ALOGPS_LOGS>
-1.33

> <JCHEM_MDDR_LIKE_RULE>
0

> <JCHEM_NUMBER_OF_RINGS>
2

> <JCHEM_PHYSIOLOGICAL_CHARGE>
1

> <JCHEM_PKA_STRONGEST_ACIDIC>
18.65164603437661

> <JCHEM_PKA_STRONGEST_BASIC>
7.550731759286066

> <JCHEM_POLAR_SURFACE_AREA>
61.55

> <JCHEM_REFRACTIVITY>
50.081300000000006

> <JCHEM_ROTATABLE_BOND_COUNT>
2

> <JCHEM_RULE_OF_FIVE>
1

> <ALOGPS_SOLUBILITY>
8.98e+00 g/l

> <JCHEM_TRADITIONAL_IUPAC>
methylenedioxycathinone

> <JCHEM_VEBER_RULE>
0

> <DRUGBANK_ID>
DB12809

> <DRUG_GROUPS>
investigational

> <GENERIC_NAME>
BK-MDA

> <SYNONYMS>
MDC

$$$$
