
  Mrv1652310211605102D          

 35 35  0  0  1  0            999 V2000
   -1.4289   -1.6500    0.0000 C   0  0  0  0  0  0  0  0  0  0  0  0
   -0.7145   -1.2375    0.0000 C   0  0  0  0  0  0  0  0  0  0  0  0
    0.0000   -1.6500    0.0000 C   0  0  0  0  0  0  0  0  0  0  0  0
    0.7145   -1.2375    0.0000 C   0  0  0  0  0  0  0  0  0  0  0  0
    0.7145   -0.4125    0.0000 N   0  0  0  0  0  0  0  0  0  0  0  0
    0.0000    0.0000    0.0000 C   0  0  0  0  0  0  0  0  0  0  0  0
    0.0000    0.8250    0.0000 C   0  0  1  0  0  0  0  0  0  0  0  0
    0.7145    1.2375    0.0000 C   0  0  2  0  0  0  0  0  0  0  0  0
    1.4289    0.8250    0.0000 C   0  0  1  0  0  0  0  0  0  0  0  0
    1.4289    0.0000    0.0000 C   0  0  1  0  0  0  0  0  0  0  0  0
    2.1434   -0.4125    0.0000 C   0  0  0  0  0  0  0  0  0  0  0  0
    2.8579    0.0000    0.0000 O   0  0  0  0  0  0  0  0  0  0  0  0
    3.5724   -0.4125    0.0000 C   0  0  0  0  0  0  0  0  0  0  0  0
    3.5724   -1.2375    0.0000 O   0  0  0  0  0  0  0  0  0  0  0  0
    4.2868    0.0000    0.0000 C   0  0  0  0  0  0  0  0  0  0  0  0
    5.0013   -0.4125    0.0000 C   0  0  0  0  0  0  0  0  0  0  0  0
    5.7158    0.0000    0.0000 C   0  0  0  0  0  0  0  0  0  0  0  0
    2.1434    1.2375    0.0000 O   0  0  0  0  0  0  0  0  0  0  0  0
    2.1434    2.0625    0.0000 C   0  0  0  0  0  0  0  0  0  0  0  0
    1.4289    2.4750    0.0000 O   0  0  0  0  0  0  0  0  0  0  0  0
    2.8579    2.4750    0.0000 C   0  0  0  0  0  0  0  0  0  0  0  0
    2.8579    3.3000    0.0000 C   0  0  0  0  0  0  0  0  0  0  0  0
    3.5724    3.7125    0.0000 C   0  0  0  0  0  0  0  0  0  0  0  0
    0.7145    2.0625    0.0000 O   0  0  0  0  0  0  0  0  0  0  0  0
    0.0000    2.4750    0.0000 C   0  0  0  0  0  0  0  0  0  0  0  0
   -0.7145    2.0625    0.0000 O   0  0  0  0  0  0  0  0  0  0  0  0
    0.0000    3.3000    0.0000 C   0  0  0  0  0  0  0  0  0  0  0  0
   -0.7145    3.7125    0.0000 C   0  0  0  0  0  0  0  0  0  0  0  0
   -0.7145    4.5375    0.0000 C   0  0  0  0  0  0  0  0  0  0  0  0
   -0.7145    1.2375    0.0000 O   0  0  0  0  0  0  0  0  0  0  0  0
   -1.4289    0.8250    0.0000 C   0  0  0  0  0  0  0  0  0  0  0  0
   -2.1434    1.2375    0.0000 O   0  0  0  0  0  0  0  0  0  0  0  0
   -1.4289    0.0000    0.0000 C   0  0  0  0  0  0  0  0  0  0  0  0
   -2.1434   -0.4125    0.0000 C   0  0  0  0  0  0  0  0  0  0  0  0
   -2.1434   -1.2375    0.0000 C   0  0  0  0  0  0  0  0  0  0  0  0
  1  2  1  0  0  0  0
  2  3  1  0  0  0  0
  3  4  1  0  0  0  0
  4  5  1  0  0  0  0
  5  6  1  0  0  0  0
  6  7  1  0  0  0  0
  7  8  1  0  0  0  0
  8  9  1  0  0  0  0
  9 10  1  0  0  0  0
  5 10  1  0  0  0  0
 10 11  1  1  0  0  0
 11 12  1  0  0  0  0
 12 13  1  0  0  0  0
 13 14  2  0  0  0  0
 13 15  1  0  0  0  0
 15 16  1  0  0  0  0
 16 17  1  0  0  0  0
  9 18  1  6  0  0  0
 18 19  1  0  0  0  0
 19 20  2  0  0  0  0
 19 21  1  0  0  0  0
 21 22  1  0  0  0  0
 22 23  1  0  0  0  0
  8 24  1  1  0  0  0
 24 25  1  0  0  0  0
 25 26  2  0  0  0  0
 25 27  1  0  0  0  0
 27 28  1  0  0  0  0
 28 29  1  0  0  0  0
  7 30  1  6  0  0  0
 30 31  1  0  0  0  0
 31 32  2  0  0  0  0
 31 33  1  0  0  0  0
 33 34  1  0  0  0  0
 34 35  1  0  0  0  0
M  END
> <DATABASE_ID>
DB13106

> <DATABASE_NAME>
drugbank

> <SMILES>
CCCCN1C[C@H](OC(=O)CCC)[C@@H](OC(=O)CCC)[C@H](OC(=O)CCC)[C@H]1COC(=O)CCC

> <INCHI_IDENTIFIER>
InChI=1S/C26H45NO8/c1-6-11-16-27-17-20(33-22(29)13-8-3)26(35-24(31)15-10-5)25(34-23(30)14-9-4)19(27)18-32-21(28)12-7-2/h19-20,25-26H,6-18H2,1-5H3/t19-,20+,25-,26-/m1/s1

> <INCHI_KEY>
MKGDNVHZSCXBKR-KYVQNOJUSA-N

> <FORMULA>
C26H45NO8

> <MOLECULAR_WEIGHT>
499.645

> <EXACT_MASS>
499.314517413

> <JCHEM_ACCEPTOR_COUNT>
5

> <JCHEM_ATOM_COUNT>
80

> <JCHEM_AVERAGE_POLARIZABILITY>
56.55034891169251

> <JCHEM_BIOAVAILABILITY>
0

> <JCHEM_DONOR_COUNT>
0

> <JCHEM_FORMAL_CHARGE>
0

> <JCHEM_GHOSE_FILTER>
0

> <JCHEM_IUPAC>
[(2R,3R,4R,5S)-3,4,5-tris(butanoyloxy)-1-butylpiperidin-2-yl]methyl butanoate

> <ALOGPS_LOGP>
4.41

> <JCHEM_LOGP>
5.166123458333332

> <ALOGPS_LOGS>
-4.35

> <JCHEM_MDDR_LIKE_RULE>
0

> <JCHEM_NUMBER_OF_RINGS>
1

> <JCHEM_PHYSIOLOGICAL_CHARGE>
1

> <JCHEM_PKA_STRONGEST_BASIC>
7.011482145800142

> <JCHEM_POLAR_SURFACE_AREA>
108.44

> <JCHEM_REFRACTIVITY>
129.26029999999997

> <JCHEM_ROTATABLE_BOND_COUNT>
20

> <JCHEM_RULE_OF_FIVE>
0

> <ALOGPS_SOLUBILITY>
2.24e-02 g/l

> <JCHEM_TRADITIONAL_IUPAC>
[(2R,3R,4R,5S)-3,4,5-tris(butanoyloxy)-1-butylpiperidin-2-yl]methyl butanoate

> <JCHEM_VEBER_RULE>
0

> <DRUGBANK_ID>
DB13106

> <DRUG_GROUPS>
investigational

> <GENERIC_NAME>
Glycovir

$$$$
