
  Mrv1718009241812112D          

 10  9  0  0  0  0            999 V2000
   -1.4264    0.2226    0.0000 C   0  0  0  0  0  0  0  0  0  0  0  0
   -0.7171   -0.1989    0.0000 C   0  0  1  0  0  0  0  0  0  0  0  0
    0.0027    0.2107    0.0000 C   0  0  1  0  0  0  0  0  0  0  0  0
    0.7118   -0.2107    0.0000 C   0  0  1  0  0  0  0  0  0  0  0  0
    1.4318    0.1988    0.0000 C   0  0  0  0  0  0  0  0  0  0  0  0
   -2.1462   -0.1870    0.0000 O   0  0  0  0  0  0  0  0  0  0  0  0
   -0.7171   -1.0239    0.0000 O   0  0  0  0  0  0  0  0  0  0  0  0
    0.0027    1.0357    0.0000 O   0  0  0  0  0  0  0  0  0  0  0  0
    0.7118   -1.0357    0.0000 O   0  0  0  0  0  0  0  0  0  0  0  0
    2.1462   -0.2135    0.0000 O   0  0  0  0  0  0  0  0  0  0  0  0
  6  1  1  0  0  0  0
  2  1  1  0  0  0  0
  2  7  1  1  0  0  0
  3  2  1  0  0  0  0
  3  8  1  6  0  0  0
  4  3  1  0  0  0  0
  4  9  1  1  0  0  0
  5  4  1  0  0  0  0
  5 10  1  0  0  0  0
M  END
> <DATABASE_ID>
DB14704

> <DATABASE_NAME>
drugbank

> <SMILES>
OC[C@H](O)[C@H](O)[C@H](O)CO

> <INCHI_IDENTIFIER>
InChI=1S/C5H12O5/c6-1-3(8)5(10)4(9)2-7/h3-10H,1-2H2/t3-,4+,5-

> <INCHI_KEY>
HEBKCHPVOIAQTA-ZXFHETKHSA-N

> <FORMULA>
C5H12O5

> <MOLECULAR_WEIGHT>
152.1458

> <EXACT_MASS>
152.068473494

> <JCHEM_ACCEPTOR_COUNT>
5

> <JCHEM_ATOM_COUNT>
22

> <JCHEM_AVERAGE_POLARIZABILITY>
14.381408299515499

> <JCHEM_BIOAVAILABILITY>
1

> <JCHEM_DONOR_COUNT>
5

> <JCHEM_FORMAL_CHARGE>
0

> <JCHEM_GHOSE_FILTER>
0

> <JCHEM_IUPAC>
(2R,3s,4S)-pentane-1,2,3,4,5-pentol

> <ALOGPS_LOGP>
-2.53

> <JCHEM_LOGP>
-3.099683906666666

> <ALOGPS_LOGS>
0.64

> <JCHEM_MDDR_LIKE_RULE>
0

> <JCHEM_NUMBER_OF_RINGS>
0

> <JCHEM_PHYSIOLOGICAL_CHARGE>
0

> <JCHEM_PKA>
13.742189661908146

> <JCHEM_PKA_STRONGEST_ACIDIC>
12.760078510562963

> <JCHEM_PKA_STRONGEST_BASIC>
-2.9742034412471314

> <JCHEM_POLAR_SURFACE_AREA>
101.15

> <JCHEM_REFRACTIVITY>
32.4411

> <JCHEM_ROTATABLE_BOND_COUNT>
4

> <JCHEM_RULE_OF_FIVE>
1

> <ALOGPS_SOLUBILITY>
6.64e+02 g/l

> <JCHEM_TRADITIONAL_IUPAC>
ribitol

> <JCHEM_VEBER_RULE>
0

> <DRUGBANK_ID>
DB14704

> <DRUG_GROUPS>
experimental

> <GENERIC_NAME>
Ribitol

> <SYNONYMS>
(2R,3s,4S)-pentane-1,2,3,4,5-pentol; Adonitol; D-Adonitol; D-Ribitol; L-ribitol

$$$$
