
  Mrv1718005031814122D          

 16 17  0  0  0  0            999 V2000
   -0.3572    0.2062    0.0000 C   0  0  0  0  0  0  0  0  0  0  0  0
    0.3572   -0.2062    0.0000 C   0  0  0  0  0  0  0  0  0  0  0  0
   -0.3572    1.0312    0.0000 O   0  0  0  0  0  0  0  0  0  0  0  0
    0.3572   -1.0312    0.0000 O   0  0  0  0  0  0  0  0  0  0  0  0
   -1.0717   -0.2062    0.0000 C   0  0  0  0  0  0  0  0  0  0  0  0
   -1.0717   -1.0312    0.0000 C   0  0  0  0  0  0  0  0  0  0  0  0
   -1.7861    0.2062    0.0000 C   0  0  0  0  0  0  0  0  0  0  0  0
   -1.7861   -1.4437    0.0000 C   0  0  0  0  0  0  0  0  0  0  0  0
   -2.5006   -0.2062    0.0000 C   0  0  0  0  0  0  0  0  0  0  0  0
   -2.5006   -1.0312    0.0000 C   0  0  0  0  0  0  0  0  0  0  0  0
    1.0716    0.2062    0.0000 C   0  0  0  0  0  0  0  0  0  0  0  0
    1.0716    1.0312    0.0000 C   0  0  0  0  0  0  0  0  0  0  0  0
    1.7861   -0.2062    0.0000 C   0  0  0  0  0  0  0  0  0  0  0  0
    1.7861    1.4437    0.0000 C   0  0  0  0  0  0  0  0  0  0  0  0
    2.5006    0.2062    0.0000 C   0  0  0  0  0  0  0  0  0  0  0  0
    2.5006    1.0312    0.0000 C   0  0  0  0  0  0  0  0  0  0  0  0
  2  1  1  0  0  0  0
  3  1  2  0  0  0  0
  5  1  1  0  0  0  0
  2  4  1  0  0  0  0
 11  2  1  0  0  0  0
  6  5  2  0  0  0  0
  7  5  1  0  0  0  0
  8  6  1  0  0  0  0
  9  7  2  0  0  0  0
 10  8  2  0  0  0  0
 10  9  1  0  0  0  0
 12 11  2  0  0  0  0
 13 11  1  0  0  0  0
 14 12  1  0  0  0  0
 15 13  2  0  0  0  0
 16 14  2  0  0  0  0
 16 15  1  0  0  0  0
M  END
> <DATABASE_ID>
DB14020

> <DATABASE_NAME>
drugbank

> <SMILES>
OC(C(=O)C1=CC=CC=C1)C1=CC=CC=C1

> <INCHI_IDENTIFIER>
InChI=1S/C14H12O2/c15-13(11-7-3-1-4-8-11)14(16)12-9-5-2-6-10-12/h1-10,13,15H

> <INCHI_KEY>
ISAOCJYIOMOJEB-UHFFFAOYSA-N

> <FORMULA>
C14H12O2

> <MOLECULAR_WEIGHT>
212.2439

> <EXACT_MASS>
212.083729628

> <JCHEM_ACCEPTOR_COUNT>
2

> <JCHEM_ATOM_COUNT>
28

> <JCHEM_AVERAGE_POLARIZABILITY>
22.445830253977434

> <JCHEM_BIOAVAILABILITY>
1

> <JCHEM_DONOR_COUNT>
1

> <JCHEM_FORMAL_CHARGE>
0

> <JCHEM_GHOSE_FILTER>
1

> <JCHEM_IUPAC>
2-hydroxy-1,2-diphenylethan-1-one

> <ALOGPS_LOGP>
2.64

> <JCHEM_LOGP>
2.650074693666667

> <ALOGPS_LOGS>
-2.58

> <JCHEM_MDDR_LIKE_RULE>
0

> <JCHEM_NUMBER_OF_RINGS>
2

> <JCHEM_PHYSIOLOGICAL_CHARGE>
0

> <JCHEM_PKA_STRONGEST_ACIDIC>
12.617339760665857

> <JCHEM_PKA_STRONGEST_BASIC>
-3.8407029979448213

> <JCHEM_POLAR_SURFACE_AREA>
37.3

> <JCHEM_REFRACTIVITY>
62.52090000000002

> <JCHEM_ROTATABLE_BOND_COUNT>
3

> <JCHEM_RULE_OF_FIVE>
1

> <ALOGPS_SOLUBILITY>
5.61e-01 g/l

> <JCHEM_TRADITIONAL_IUPAC>
(+-)-benzoin

> <JCHEM_VEBER_RULE>
1

> <DRUGBANK_ID>
DB14020

> <DRUG_GROUPS>
approved; experimental

> <GENERIC_NAME>
Benzoin

> <SYNONYMS>
(+-)-Benzoin; 2-Hydroxy-1,2-diphenylethanone; Aerozoin; alpha-Hydroxy-alpha-phenylacetophenone; alpha-Hydroxybenzyl phenyl ketone; Benzoin extract (resinoid); Benzoylphenylcarbinol; Hydroxy-2-phenyl acetophenone; Phenyl-alpha-hydroxybenzyl ketone; phenyl-α-hydroxybenzyl ketone; Phenylbenzoyl carbinol; α-hydroxy-α-phenylacetophenone

$$$$
