
  Mrv1652306091723472D          

134132  0  0  0  0            999 V2000
   -6.7051    5.4262    0.0000 O   0  6  0  0  0  0  0  0  0  0  0  0
   -3.4051    5.4262    0.0000 O   0  6  0  0  0  0  0  0  0  0  0  0
   -1.0480    5.4262    0.0000 O   0  6  0  0  0  0  0  0  0  0  0  0
   -4.2598    2.3381    0.0000 Na  0  3  0  0  0  0  0  0  0  0  0  0
   -7.5301    5.4262    0.0000 Fe  0  1  0  0  0  0  0  0  0  0  0  0
   -4.2301    5.4262    0.0000 Fe  0  1  0  0  0  0  0  0  0  0  0  0
   -9.9755    1.5131    0.0000 O   0  0  0  0  0  0  0  0  0  0  0  0
   -9.2611    1.9256    0.0000 C   0  0  0  0  0  0  0  0  0  0  0  0
   -8.5466    1.5131    0.0000 C   0  0  1  0  0  0  0  0  0  0  0  0
   -8.5466    0.6881    0.0000 O   0  0  0  0  0  0  0  0  0  0  0  0
   -7.8321    1.9256    0.0000 C   0  0  1  0  0  0  0  0  0  0  0  0
   -7.8321    2.7506    0.0000 O   0  0  0  0  0  0  0  0  0  0  0  0
   -7.1176    1.5131    0.0000 C   0  0  2  0  0  0  0  0  0  0  0  0
   -7.1176    0.6881    0.0000 O   0  0  0  0  0  0  0  0  0  0  0  0
   -6.4032    1.9256    0.0000 C   0  0  1  0  0  0  0  0  0  0  0  0
   -6.4032    2.7506    0.0000 O   0  0  0  0  0  0  0  0  0  0  0  0
   -5.6887    1.5131    0.0000 C   0  0  0  0  0  0  0  0  0  0  0  0
   -5.6887    0.6881    0.0000 O   0  0  0  0  0  0  0  0  0  0  0  0
   -4.9742    1.9256    0.0000 O   0  5  0  0  0  0  0  0  0  0  0  0
    2.5607    0.4662    0.0000 O   0  0  0  0  0  0  0  0  0  0  0  0
    1.7538    0.6377    0.0000 C   0  0  0  0  0  0  0  0  0  0  0  0
    1.4988    1.4224    0.0000 C   0  0  1  0  0  0  0  0  0  0  0  0
    0.6919    1.5939    0.0000 O   0  0  0  0  0  0  0  0  0  0  0  0
    0.4369    2.3785    0.0000 C   0  0  2  0  0  0  0  0  0  0  0  0
   -0.3700    2.5500    0.0000 O   0  0  0  0  0  0  0  0  0  0  0  0
   -0.9220    1.9369    0.0000 C   0  0  2  0  0  0  0  0  0  0  0  0
   -1.4740    2.5500    0.0000 C   0  0  0  0  0  0  0  0  0  0  0  0
   -2.2810    2.3785    0.0000 O   0  0  0  0  0  0  0  0  0  0  0  0
   -0.2545    1.4520    0.0000 O   0  0  0  0  0  0  0  0  0  0  0  0
   -0.5095    0.6674    0.0000 C   0  0  2  0  0  0  0  0  0  0  0  0
   -0.0246    0.0000    0.0000 C   0  0  0  0  0  0  0  0  0  0  0  0
    0.7958    0.0862    0.0000 O   0  0  0  0  0  0  0  0  0  0  0  0
   -1.3345    0.6674    0.0000 C   0  0  1  0  0  0  0  0  0  0  0  0
   -1.8194    0.0000    0.0000 O   0  0  0  0  0  0  0  0  0  0  0  0
   -1.5894    1.4520    0.0000 C   0  0  2  0  0  0  0  0  0  0  0  0
   -2.3740    1.7069    0.0000 O   0  0  0  0  0  0  0  0  0  0  0  0
    0.9890    2.9916    0.0000 C   0  0  2  0  0  0  0  0  0  0  0  0
    0.7340    3.7762    0.0000 O   0  0  0  0  0  0  0  0  0  0  0  0
    1.7959    2.8201    0.0000 C   0  0  1  0  0  0  0  0  0  0  0  0
    2.3480    3.4332    0.0000 O   0  0  0  0  0  0  0  0  0  0  0  0
    2.0509    2.0354    0.0000 C   0  0  2  0  0  0  0  0  0  0  0  0
    2.8578    1.8639    0.0000 O   0  0  0  0  0  0  0  0  0  0  0  0
    9.6784    0.4662    0.0000 O   0  0  0  0  0  0  0  0  0  0  0  0
    8.8715    0.6377    0.0000 C   0  0  0  0  0  0  0  0  0  0  0  0
    8.6165    1.4224    0.0000 C   0  0  1  0  0  0  0  0  0  0  0  0
    7.8096    1.5939    0.0000 O   0  0  0  0  0  0  0  0  0  0  0  0
    7.5546    2.3785    0.0000 C   0  0  2  0  0  0  0  0  0  0  0  0
    6.7476    2.5500    0.0000 O   0  0  0  0  0  0  0  0  0  0  0  0
    6.1956    1.9369    0.0000 C   0  0  2  0  0  0  0  0  0  0  0  0
    5.6436    2.5500    0.0000 C   0  0  0  0  0  0  0  0  0  0  0  0
    4.8366    2.3785    0.0000 O   0  0  0  0  0  0  0  0  0  0  0  0
    6.8630    1.4520    0.0000 O   0  0  0  0  0  0  0  0  0  0  0  0
    6.6081    0.6674    0.0000 C   0  0  2  0  0  0  0  0  0  0  0  0
    7.0930    0.0000    0.0000 C   0  0  0  0  0  0  0  0  0  0  0  0
    7.9135    0.0862    0.0000 O   0  0  0  0  0  0  0  0  0  0  0  0
    5.7831    0.6674    0.0000 C   0  0  1  0  0  0  0  0  0  0  0  0
    5.2982    0.0000    0.0000 O   0  0  0  0  0  0  0  0  0  0  0  0
    5.5282    1.4520    0.0000 C   0  0  2  0  0  0  0  0  0  0  0  0
    4.7435    1.7069    0.0000 O   0  0  0  0  0  0  0  0  0  0  0  0
    8.1066    2.9916    0.0000 C   0  0  2  0  0  0  0  0  0  0  0  0
    7.8517    3.7762    0.0000 O   0  0  0  0  0  0  0  0  0  0  0  0
    8.9136    2.8201    0.0000 C   0  0  1  0  0  0  0  0  0  0  0  0
    9.4657    3.4332    0.0000 O   0  0  0  0  0  0  0  0  0  0  0  0
    9.1686    2.0354    0.0000 C   0  0  2  0  0  0  0  0  0  0  0  0
    9.9755    1.8639    0.0000 O   0  0  0  0  0  0  0  0  0  0  0  0
   -4.7986   -4.9600    0.0000 O   0  0  0  0  0  0  0  0  0  0  0  0
   -5.6056   -4.7884    0.0000 C   0  0  0  0  0  0  0  0  0  0  0  0
   -5.8605   -4.0038    0.0000 C   0  0  1  0  0  0  0  0  0  0  0  0
   -6.6675   -3.8323    0.0000 O   0  0  0  0  0  0  0  0  0  0  0  0
   -6.9224   -3.0477    0.0000 C   0  0  2  0  0  0  0  0  0  0  0  0
   -7.7294   -2.8761    0.0000 O   0  0  0  0  0  0  0  0  0  0  0  0
   -8.2814   -3.4892    0.0000 C   0  0  2  0  0  0  0  0  0  0  0  0
   -8.8335   -2.8761    0.0000 C   0  0  0  0  0  0  0  0  0  0  0  0
   -9.6405   -3.0477    0.0000 O   0  0  0  0  0  0  0  0  0  0  0  0
   -7.6140   -3.9742    0.0000 O   0  0  0  0  0  0  0  0  0  0  0  0
   -7.8689   -4.7588    0.0000 C   0  0  2  0  0  0  0  0  0  0  0  0
   -7.3840   -5.4262    0.0000 C   0  0  0  0  0  0  0  0  0  0  0  0
   -6.5635   -5.3400    0.0000 O   0  0  0  0  0  0  0  0  0  0  0  0
   -8.6939   -4.7588    0.0000 C   0  0  1  0  0  0  0  0  0  0  0  0
   -9.1789   -5.4262    0.0000 O   0  0  0  0  0  0  0  0  0  0  0  0
   -8.9489   -3.9742    0.0000 C   0  0  2  0  0  0  0  0  0  0  0  0
   -9.7335   -3.7192    0.0000 O   0  0  0  0  0  0  0  0  0  0  0  0
   -6.3704   -2.4346    0.0000 C   0  0  2  0  0  0  0  0  0  0  0  0
   -6.6253   -1.6500    0.0000 O   0  0  0  0  0  0  0  0  0  0  0  0
   -5.5634   -2.6061    0.0000 C   0  0  1  0  0  0  0  0  0  0  0  0
   -5.0114   -1.9930    0.0000 O   0  0  0  0  0  0  0  0  0  0  0  0
   -5.3085   -3.3907    0.0000 C   0  0  2  0  0  0  0  0  0  0  0  0
   -4.5015   -3.5622    0.0000 O   0  0  0  0  0  0  0  0  0  0  0  0
    2.3190   -4.9600    0.0000 O   0  0  0  0  0  0  0  0  0  0  0  0
    1.5120   -4.7884    0.0000 C   0  0  0  0  0  0  0  0  0  0  0  0
    1.2571   -4.0038    0.0000 C   0  0  1  0  0  0  0  0  0  0  0  0
    0.4501   -3.8323    0.0000 O   0  0  0  0  0  0  0  0  0  0  0  0
    0.1952   -3.0477    0.0000 C   0  0  2  0  0  0  0  0  0  0  0  0
   -0.6117   -2.8761    0.0000 O   0  0  0  0  0  0  0  0  0  0  0  0
   -1.1638   -3.4892    0.0000 C   0  0  2  0  0  0  0  0  0  0  0  0
   -1.7158   -2.8761    0.0000 C   0  0  0  0  0  0  0  0  0  0  0  0
   -2.5228   -3.0477    0.0000 O   0  0  0  0  0  0  0  0  0  0  0  0
   -0.4963   -3.9742    0.0000 O   0  0  0  0  0  0  0  0  0  0  0  0
   -0.7513   -4.7588    0.0000 C   0  0  2  0  0  0  0  0  0  0  0  0
   -0.2663   -5.4262    0.0000 C   0  0  0  0  0  0  0  0  0  0  0  0
    0.5541   -5.3400    0.0000 O   0  0  0  0  0  0  0  0  0  0  0  0
   -1.5763   -4.7588    0.0000 C   0  0  1  0  0  0  0  0  0  0  0  0
   -2.0612   -5.4262    0.0000 O   0  0  0  0  0  0  0  0  0  0  0  0
   -1.8312   -3.9742    0.0000 C   0  0  2  0  0  0  0  0  0  0  0  0
   -2.6158   -3.7192    0.0000 O   0  0  0  0  0  0  0  0  0  0  0  0
    0.7472   -2.4346    0.0000 C   0  0  2  0  0  0  0  0  0  0  0  0
    0.4922   -1.6500    0.0000 O   0  0  0  0  0  0  0  0  0  0  0  0
    1.5542   -2.6061    0.0000 C   0  0  1  0  0  0  0  0  0  0  0  0
    2.1062   -1.9930    0.0000 O   0  0  0  0  0  0  0  0  0  0  0  0
    1.8091   -3.3907    0.0000 C   0  0  2  0  0  0  0  0  0  0  0  0
    2.6161   -3.5622    0.0000 O   0  0  0  0  0  0  0  0  0  0  0  0
    9.4367   -4.9600    0.0000 O   0  0  0  0  0  0  0  0  0  0  0  0
    8.6297   -4.7884    0.0000 C   0  0  0  0  0  0  0  0  0  0  0  0
    8.3748   -4.0038    0.0000 C   0  0  1  0  0  0  0  0  0  0  0  0
    7.5678   -3.8323    0.0000 O   0  0  0  0  0  0  0  0  0  0  0  0
    7.3128   -3.0477    0.0000 C   0  0  2  0  0  0  0  0  0  0  0  0
    6.5059   -2.8761    0.0000 O   0  0  0  0  0  0  0  0  0  0  0  0
    5.9538   -3.4892    0.0000 C   0  0  2  0  0  0  0  0  0  0  0  0
    5.4018   -2.8761    0.0000 C   0  0  0  0  0  0  0  0  0  0  0  0
    4.5948   -3.0477    0.0000 O   0  0  0  0  0  0  0  0  0  0  0  0
    6.6213   -3.9742    0.0000 O   0  0  0  0  0  0  0  0  0  0  0  0
    6.3663   -4.7588    0.0000 C   0  0  2  0  0  0  0  0  0  0  0  0
    6.8513   -5.4262    0.0000 C   0  0  0  0  0  0  0  0  0  0  0  0
    7.6717   -5.3400    0.0000 O   0  0  0  0  0  0  0  0  0  0  0  0
    5.5413   -4.7588    0.0000 C   0  0  1  0  0  0  0  0  0  0  0  0
    5.0564   -5.4262    0.0000 O   0  0  0  0  0  0  0  0  0  0  0  0
    5.2864   -3.9742    0.0000 C   0  0  2  0  0  0  0  0  0  0  0  0
    4.5018   -3.7192    0.0000 O   0  0  0  0  0  0  0  0  0  0  0  0
    7.8649   -2.4346    0.0000 C   0  0  2  0  0  0  0  0  0  0  0  0
    7.6099   -1.6500    0.0000 O   0  0  0  0  0  0  0  0  0  0  0  0
    8.6719   -2.6061    0.0000 C   0  0  1  0  0  0  0  0  0  0  0  0
    9.2239   -1.9930    0.0000 O   0  0  0  0  0  0  0  0  0  0  0  0
    8.9268   -3.3907    0.0000 C   0  0  2  0  0  0  0  0  0  0  0  0
    9.7338   -3.5622    0.0000 O   0  0  0  0  0  0  0  0  0  0  0  0
  7  8  1  0  0  0  0
  8  9  1  0  0  0  0
  9 10  1  6  0  0  0
  9 11  1  0  0  0  0
 11 12  1  1  0  0  0
 11 13  1  0  0  0  0
 13 14  1  1  0  0  0
 13 15  1  0  0  0  0
 15 16  1  1  0  0  0
 15 17  1  0  0  0  0
 17 18  2  0  0  0  0
 17 19  1  0  0  0  0
 20 21  1  0  0  0  0
 22 21  1  1  0  0  0
 22 23  1  0  0  0  0
 23 24  1  0  0  0  0
 24 25  1  6  0  0  0
 26 25  1  6  0  0  0
 26 27  1  1  0  0  0
 27 28  1  0  0  0  0
 26 29  1  0  0  0  0
 29 30  1  0  0  0  0
 30 31  1  6  0  0  0
 31 32  1  0  0  0  0
 30 33  1  0  0  0  0
 33 34  1  1  0  0  0
 33 35  1  0  0  0  0
 26 35  1  0  0  0  0
 35 36  1  6  0  0  0
 24 37  1  0  0  0  0
 37 38  1  6  0  0  0
 37 39  1  0  0  0  0
 39 40  1  1  0  0  0
 39 41  1  0  0  0  0
 22 41  1  0  0  0  0
 41 42  1  6  0  0  0
 43 44  1  0  0  0  0
 45 44  1  1  0  0  0
 45 46  1  0  0  0  0
 46 47  1  0  0  0  0
 47 48  1  6  0  0  0
 49 48  1  6  0  0  0
 49 50  1  1  0  0  0
 50 51  1  0  0  0  0
 49 52  1  0  0  0  0
 52 53  1  0  0  0  0
 53 54  1  6  0  0  0
 54 55  1  0  0  0  0
 53 56  1  0  0  0  0
 56 57  1  1  0  0  0
 56 58  1  0  0  0  0
 49 58  1  0  0  0  0
 58 59  1  6  0  0  0
 47 60  1  0  0  0  0
 60 61  1  6  0  0  0
 60 62  1  0  0  0  0
 62 63  1  1  0  0  0
 62 64  1  0  0  0  0
 45 64  1  0  0  0  0
 64 65  1  6  0  0  0
 66 67  1  0  0  0  0
 68 67  1  1  0  0  0
 68 69  1  0  0  0  0
 69 70  1  0  0  0  0
 70 71  1  6  0  0  0
 72 71  1  6  0  0  0
 72 73  1  1  0  0  0
 73 74  1  0  0  0  0
 72 75  1  0  0  0  0
 75 76  1  0  0  0  0
 76 77  1  6  0  0  0
 77 78  1  0  0  0  0
 76 79  1  0  0  0  0
 79 80  1  1  0  0  0
 79 81  1  0  0  0  0
 72 81  1  0  0  0  0
 81 82  1  6  0  0  0
 70 83  1  0  0  0  0
 83 84  1  6  0  0  0
 83 85  1  0  0  0  0
 85 86  1  1  0  0  0
 85 87  1  0  0  0  0
 68 87  1  0  0  0  0
 87 88  1  6  0  0  0
 89 90  1  0  0  0  0
 91 90  1  1  0  0  0
 91 92  1  0  0  0  0
 92 93  1  0  0  0  0
 93 94  1  6  0  0  0
 95 94  1  6  0  0  0
 95 96  1  1  0  0  0
 96 97  1  0  0  0  0
 95 98  1  0  0  0  0
 98 99  1  0  0  0  0
 99100  1  6  0  0  0
100101  1  0  0  0  0
 99102  1  0  0  0  0
102103  1  1  0  0  0
102104  1  0  0  0  0
 95104  1  0  0  0  0
104105  1  6  0  0  0
 93106  1  0  0  0  0
106107  1  6  0  0  0
106108  1  0  0  0  0
108109  1  1  0  0  0
108110  1  0  0  0  0
 91110  1  0  0  0  0
110111  1  6  0  0  0
112113  1  0  0  0  0
114113  1  1  0  0  0
114115  1  0  0  0  0
115116  1  0  0  0  0
116117  1  6  0  0  0
118117  1  6  0  0  0
118119  1  1  0  0  0
119120  1  0  0  0  0
118121  1  0  0  0  0
121122  1  0  0  0  0
122123  1  6  0  0  0
123124  1  0  0  0  0
122125  1  0  0  0  0
125126  1  1  0  0  0
125127  1  0  0  0  0
118127  1  0  0  0  0
127128  1  6  0  0  0
116129  1  0  0  0  0
129130  1  6  0  0  0
129131  1  0  0  0  0
131132  1  1  0  0  0
131133  1  0  0  0  0
114133  1  0  0  0  0
133134  1  6  0  0  0
M  CHG  7   1  -2   2  -2   3  -2   4   1   5   3   6   3  19  -1
M  END
> <DATABASE_ID>
DB09517

> <DATABASE_NAME>
drugbank

> <SMILES>
[O--].[O--].[O--].[Na+].[Fe+3].[Fe+3].OC[C@@H](O)[C@@H](O)[C@H](O)[C@@H](O)C([O-])=O.OC[C@H]1O[C@@](CO)(O[C@H]2O[C@H](CO)[C@@H](O)[C@H](O)[C@H]2O)[C@@H](O)[C@@H]1O.OC[C@H]1O[C@@](CO)(O[C@H]2O[C@H](CO)[C@@H](O)[C@H](O)[C@H]2O)[C@@H](O)[C@@H]1O.OC[C@H]1O[C@@](CO)(O[C@H]2O[C@H](CO)[C@@H](O)[C@H](O)[C@H]2O)[C@@H](O)[C@@H]1O.OC[C@H]1O[C@@](CO)(O[C@H]2O[C@H](CO)[C@@H](O)[C@H](O)[C@H]2O)[C@@H](O)[C@@H]1O.OC[C@H]1O[C@@](CO)(O[C@H]2O[C@H](CO)[C@@H](O)[C@H](O)[C@H]2O)[C@@H](O)[C@@H]1O

> <INCHI_IDENTIFIER>
InChI=1S/5C12H22O11.C6H12O7.2Fe.Na.3O/c5*13-1-4-6(16)8(18)9(19)11(21-4)23-12(3-15)10(20)7(17)5(2-14)22-12;7-1-2(8)3(9)4(10)5(11)6(12)13;;;;;;/h5*4-11,13-20H,1-3H2;2-5,7-11H,1H2,(H,12,13);;;;;;/q;;;;;;2*+3;+1;3*-2/p-1/t5*4-,5-,6-,7-,8+,9-,10+,11-,12+;2-,3-,4+,5-;;;;;;/m111111....../s1

> <INCHI_KEY>
MQBDAEHWGRMADS-XNHLMZCASA-M

> <FORMULA>
C66H121Fe2NaO65

> <MOLECULAR_WEIGHT>
2089.309

> <EXACT_MASS>
2088.47592

> <JCHEM_ACCEPTOR_COUNT>
11

> <JCHEM_ATOM_COUNT>
255

> <JCHEM_AVERAGE_POLARIZABILITY>
30.857537523942046

> <JCHEM_BIOAVAILABILITY>
0

> <JCHEM_DONOR_COUNT>
8

> <JCHEM_FORMAL_CHARGE>
0

> <JCHEM_GHOSE_FILTER>
0

> <JCHEM_IUPAC>
diiron(3+) ion sodium pentakis((2R,3R,4S,5S,6R)-2-{[(2S,3S,4S,5R)-3,4-dihydroxy-2,5-bis(hydroxymethyl)oxolan-2-yl]oxy}-6-(hydroxymethyl)oxane-3,4,5-triol) (2R,3S,4R,5R)-2,3,4,5,6-pentahydroxyhexanoate trioxidandiide

> <ALOGPS_LOGP>
-2.63

> <JCHEM_LOGP>
-4.528834963666666

> <ALOGPS_LOGS>
0.38

> <JCHEM_MDDR_LIKE_RULE>
1

> <JCHEM_NUMBER_OF_RINGS>
10

> <JCHEM_PHYSIOLOGICAL_CHARGE>
0

> <JCHEM_PKA>
12.393795156229878

> <JCHEM_PKA_STRONGEST_ACIDIC>
11.841279964942517

> <JCHEM_PKA_STRONGEST_BASIC>
-2.9810849127905703

> <JCHEM_POLAR_SURFACE_AREA>
189.52999999999997

> <JCHEM_REFRACTIVITY>
68.77409999999999

> <JCHEM_ROTATABLE_BOND_COUNT>
30

> <JCHEM_RULE_OF_FIVE>
0

> <ALOGPS_SOLUBILITY>
8.24e+02 g/l

> <JCHEM_TRADITIONAL_IUPAC>
diiron(3+) ion sodium pentakis(sucrose) D-gluconate trioxidandiide

> <JCHEM_VEBER_RULE>
0

> <DRUGBANK_ID>
DB09517

> <DRUG_GROUPS>
approved

> <GENERIC_NAME>
Sodium ferric gluconate complex

> <SYNONYMS>
Ferric sodium gluconate complex; Sodium ferric gluconate complex

> <PRODUCTS>
Ferrlecit; Nulecit; Sodium Ferric Gluconate Complex; Sodium Ferric Gluconate Complex in Sucrose

$$$$
