
  Mrv1718003251822522D          

 12 12  0  0  0  0            999 V2000
    0.3572   -0.4125    0.0000 C   0  0  2  0  0  0  0  0  0  0  0  0
    0.3572   -1.2374    0.0000 O   0  0  0  0  0  0  0  0  0  0  0  0
   -0.3572    0.0000    0.0000 C   0  0  2  0  0  0  0  0  0  0  0  0
   -1.0716   -0.4125    0.0000 O   0  0  0  0  0  0  0  0  0  0  0  0
   -0.3572    0.8250    0.0000 C   0  0  2  0  0  0  0  0  0  0  0  0
    1.0717    0.8250    0.0000 C   0  0  0  0  0  0  0  0  0  0  0  0
    1.7861    1.2374    0.0000 O   0  0  0  0  0  0  0  0  0  0  0  0
    1.7861   -0.4125    0.0000 O   0  0  0  0  0  0  0  0  0  0  0  0
    0.3572    1.2374    0.0000 O   0  0  0  0  0  0  0  0  0  0  0  0
    1.0717    0.0000    0.0000 C   0  0  2  0  0  0  0  0  0  0  0  0
   -1.0716    1.2374    0.0000 C   0  0  0  0  0  0  0  0  0  0  0  0
   -1.7861    0.8250    0.0000 O   0  0  0  0  0  0  0  0  0  0  0  0
  5  3  1  0  0  0  0
  5  9  1  0  0  0  0
  3  1  1  0  0  0  0
  9  6  1  0  0  0  0
  1 10  1  0  0  0  0
  6 10  1  0  0  0  0
  1  2  1  6  0  0  0
  3  4  1  6  0  0  0
  5 11  1  1  0  0  0
  6  7  1  0  0  0  0
 10  8  1  6  0  0  0
 11 12  1  0  0  0  0
M  END
> <DATABASE_ID>
DB03989

> <DATABASE_NAME>
drugbank

> <SMILES>
OC[C@H]1OC(O)[C@H](O)[C@H](O)[C@@H]1O

> <INCHI_IDENTIFIER>
InChI=1S/C6H12O6/c7-1-2-3(8)4(9)5(10)6(11)12-2/h2-11H,1H2/t2-,3-,4-,5-,6?/m1/s1

> <INCHI_KEY>
WQZGKKKJIJFFOK-IVMDWMLBSA-N

> <FORMULA>
C6H12O6

> <MOLECULAR_WEIGHT>
180.1559

> <EXACT_MASS>
180.063388116

> <JCHEM_ACCEPTOR_COUNT>
6

> <JCHEM_ATOM_COUNT>
24

> <JCHEM_AVERAGE_POLARIZABILITY>
16.055433567911017

> <JCHEM_BIOAVAILABILITY>
1

> <JCHEM_DONOR_COUNT>
5

> <JCHEM_FORMAL_CHARGE>
0

> <JCHEM_GHOSE_FILTER>
0

> <JCHEM_IUPAC>
(3R,4R,5S,6R)-6-(hydroxymethyl)oxane-2,3,4,5-tetrol

> <ALOGPS_LOGP>
-2.57

> <JCHEM_LOGP>
-2.932539218

> <ALOGPS_LOGS>
0.64

> <JCHEM_MDDR_LIKE_RULE>
0

> <JCHEM_NUMBER_OF_RINGS>
1

> <JCHEM_PHYSIOLOGICAL_CHARGE>
0

> <JCHEM_PKA>
12.687538461190869

> <JCHEM_PKA_STRONGEST_ACIDIC>
11.298101552080594

> <JCHEM_PKA_STRONGEST_BASIC>
-2.9810792051782764

> <JCHEM_POLAR_SURFACE_AREA>
110.38000000000001

> <JCHEM_REFRACTIVITY>
35.923399999999994

> <JCHEM_ROTATABLE_BOND_COUNT>
1

> <JCHEM_RULE_OF_FIVE>
1

> <ALOGPS_SOLUBILITY>
7.82e+02 g/l

> <JCHEM_TRADITIONAL_IUPAC>
D-allopyranose

> <JCHEM_VEBER_RULE>
0

> <DRUGBANK_ID>
DB03989

> <SECONDARY_ACCESSION_NUMBERS>
EXPT00500

> <DRUG_GROUPS>
experimental

> <GENERIC_NAME>
D-Allopyranose

> <SYNONYMS>
D-Allose

$$$$
