
  Mrv1909 11291916482D          

 17 17  0  0  0  0            999 V2000
   -2.1433    1.2375    0.0000 C   0  0  0  0  0  0  0  0  0  0  0  0
   -2.8579    0.8250    0.0000 C   0  0  0  0  0  0  0  0  0  0  0  0
   -2.8579    0.0000    0.0000 C   0  0  0  0  0  0  0  0  0  0  0  0
   -1.4288    0.8250    0.0000 C   0  0  0  0  0  0  0  0  0  0  0  0
   -0.7144    1.2375    0.0000 C   0  0  0  0  0  0  0  0  0  0  0  0
   -2.1433   -0.4125    0.0000 C   0  0  0  0  0  0  0  0  0  0  0  0
   -2.1433   -1.2375    0.0000 C   0  0  0  0  0  0  0  0  0  0  0  0
   -1.4288    0.0000    0.0000 C   0  0  0  0  0  0  0  0  0  0  0  0
   -0.7144   -0.4125    0.0000 N   0  0  0  0  0  0  0  0  0  0  0  0
    0.0000    0.0000    0.0000 C   0  0  0  0  0  0  0  0  0  0  0  0
    0.0000    0.8249    0.0000 O   0  0  0  0  0  0  0  0  0  0  0  0
    0.7145   -0.4125    0.0000 C   0  0  0  0  0  0  0  0  0  0  0  0
    1.4289    0.8249    0.0000 C   0  0  0  0  0  0  0  0  0  0  0  0
    2.1434    1.2374    0.0000 C   0  0  0  0  0  0  0  0  0  0  0  0
    1.4289    0.0000    0.0000 N   0  0  0  0  0  0  0  0  0  0  0  0
    2.1434   -0.4125    0.0000 C   0  0  0  0  0  0  0  0  0  0  0  0
    2.8579    0.0000    0.0000 C   0  0  0  0  0  0  0  0  0  0  0  0
  1  2  1  0  0  0  0
  1  4  2  0  0  0  0
  2  3  2  0  0  0  0
  3  6  1  0  0  0  0
  6  8  2  0  0  0  0
  8  4  1  0  0  0  0
  4  5  1  0  0  0  0
  6  7  1  0  0  0  0
  8  9  1  0  0  0  0
  9 10  1  0  0  0  0
 10 12  1  0  0  0  0
 10 11  2  0  0  0  0
 12 15  1  0  0  0  0
 15 13  1  0  0  0  0
 13 14  1  0  0  0  0
 15 16  1  0  0  0  0
 16 17  1  0  0  0  0
M  END
> <DATABASE_ID>
DB00281

> <DATABASE_NAME>
drugbank

> <SMILES>
CCN(CC)CC(=O)NC1=C(C)C=CC=C1C

> <INCHI_IDENTIFIER>
InChI=1S/C14H22N2O/c1-5-16(6-2)10-13(17)15-14-11(3)8-7-9-12(14)4/h7-9H,5-6,10H2,1-4H3,(H,15,17)

> <INCHI_KEY>
NNJVILVZKWQKPM-UHFFFAOYSA-N

> <FORMULA>
C14H22N2O

> <MOLECULAR_WEIGHT>
234.3373

> <EXACT_MASS>
234.173213336

> <JCHEM_ACCEPTOR_COUNT>
2

> <JCHEM_ATOM_COUNT>
39

> <JCHEM_AVERAGE_POLARIZABILITY>
27.765610056988027

> <JCHEM_BIOAVAILABILITY>
1

> <JCHEM_DONOR_COUNT>
1

> <JCHEM_FORMAL_CHARGE>
0

> <JCHEM_GHOSE_FILTER>
1

> <JCHEM_IUPAC>
2-(diethylamino)-N-(2,6-dimethylphenyl)acetamide

> <ALOGPS_LOGP>
1.81

> <JCHEM_LOGP>
2.842913359666667

> <ALOGPS_LOGS>
-2.60

> <JCHEM_MDDR_LIKE_RULE>
0

> <JCHEM_NUMBER_OF_RINGS>
1

> <JCHEM_PHYSIOLOGICAL_CHARGE>
1

> <JCHEM_PKA_STRONGEST_ACIDIC>
13.775423132503196

> <JCHEM_PKA_STRONGEST_BASIC>
7.754504502964598

> <JCHEM_POLAR_SURFACE_AREA>
32.34

> <JCHEM_REFRACTIVITY>
73.92960000000001

> <JCHEM_ROTATABLE_BOND_COUNT>
5

> <JCHEM_RULE_OF_FIVE>
1

> <ALOGPS_SOLUBILITY>
5.93e-01 g/l

> <JCHEM_TRADITIONAL_IUPAC>
palladium(2+) (4S,5S,14R,15R)-10-acetyl-4-(2-carboxyethyl)-15-ethyl-2-(2-methoxy-2-oxoethyl)-5,9,14,19-tetramethyl-20-[(2-sulfoethyl)carbamoyl]-21,22,23,24-tetraazapentacyclo[16.2.1.1^{3,6}.1^{8,11}.1^{13,16}]tetracosa-1,3(24),6,8,10,12,16(22),17,19-nonaene-21,23-diide

> <JCHEM_VEBER_RULE>
1

> <DRUGBANK_ID>
DB00281

> <SECONDARY_ACCESSION_NUMBERS>
APRD00479; DB05291

> <DRUG_GROUPS>
approved; vet_approved

> <GENERIC_NAME>
Lidocaine

> <SYNONYMS>
2-(Diethylamino)-2',6'-acetoxylidide; 2-(Diethylamino)-N-(2,6-dimethylphenyl)acetamide; alpha-diethylamino-2,6-dimethylacetanilide; Lidocaína; Lidocaina; Lidocaine; Lidocainum; Lignocaine; α-diethylamino-2,6-dimethylacetanilide

> <PRODUCTS>
0.4% Lidocaine Hydrochloride and 5% Dextrose Injection; 0.4% Lidocaine Hydrochloride and 5% Dextrose Injection USP; 0.5% LIDOCAINE HCl; 1% Lidocaine Hci; 10 Person ANSI; 1st Medxpatch With Lidocaine 4%; 1st Medxpatch With Lidocaine 4%-rx; 1st RELIEF TOPICAL; 2% Lidocaine Hci; 2% Lidocaine and Epinephrine 1:100,000 Injection USP; 25 Person ANSI; 3 Step First Aid Kit; 3-Step First Aid Kit; 4 Lidocaine Topical Anesthetic; 4007 First Aid Kit; 4013 First Aid Kit; 4017 First Aid Kit; 4019 First Aid Kit; 4022 First Aid Kit; 4032 First Aid Kit; 4042 First Aid Kit; 4043 First Aid Kit; 4044 First Aid Kit; 4045 First Aid Kit; 4047 Fist Aid Kit; 4048 Fist Aid Kit; 4049 First Aid Kit; 4050 First Aid Kit; 4051 First Aid Kit; 4052 First Aid Kit; 4056 First Aid Kit; 4064 First Aid Kit; 4065 First Aid Kit; 4066 First Aid Kit; 4067 First Aid Kit; 4068 First Aid Kit; 4069 First Aid Kit; 4074 First Aid Kit; 4076 First Aid Kit; 4078 First Aid Kit; 4079 First Aid Kit; 4081 First Aid Kit; 4082 First Aid Kit; 4083 First Aid Kit; 4084 First Aid Kit; 4085 First Aid Kit; 4086 First Aid Kit; 4087 First Aid Kit; 4088 First Aid Kit; 4089 First Aid Kit; 4090 First Aid Kit; 4097 First Aid Kit; 4098 First Aid Kit; 4099 First Aid Kit; 4100 First Aid Kit; 4101 First Aid Kit; 4102 First Aid Kit; 4103 First Aid Kit; 4104 First Aid Kit; 4105 First Aid Kit; 4106 First Aid Kit; 4107 First Aid Kit; 4108 First Aid Kit; 4109 First Aid Kit; 4110 First Aid Kit; 4111 First Aid Kit; 4112 First Aid Kit; 4113 First Aid Kit; 4114 First Aid Kit; 4115 First Aid Kit; 4116 First Aid Kit; 4117 First Aid Kit; 4118 First Aid Kit; 4119 First Aid Kit; 4120 First Aid Kit; 4121 First Aid Kit; 4128 First Aid Kit; 4129 First Aid Kit; 4131 First Aid Kit; 4132 First Aid Kit; 4133 First Aid Kit; 4134 First Aid Kit; 4136 First Aid Kit; 4138 First Aid Kit; 4139 First Aid Kit; 4140 First Aid Kit; 4141 First Aid Kit; 4142 First Aid Kit; 4144 First Aid Kit; 4146 First Aid Kit; 4147 First Aid Kit; 4148 First Aid Kit; 4149 First Aid Kit; 4150 First Aid Kit; 4151 First Aid Kit; 4152 First Aid Kit; 4153 First Aid Kit; 4154 First Aid Kit; 4155 First Aid Kit; 4156 First Aid Kit; 4157 First Aid Kit; 4159 First Aid Kit; 4162 First Aid Kit; 4163 First Aid Kit; 4166 First Aid Kit; 4167 First Aid Kit; 4168 First Aid Kit; 4171 First Aid Kit; 4172 First Aid Kit; 4173 First Aid Kit; 4184 First Aid Kit; 4185 First Aid Kit; 4186 First Aid Kit; 4187 First Aid Kit; 4188 First Aid Kit; 4189 First Aid Kit; 4190 First Aid Kit; 4191 First Aid Kit; 4192 First Aid Kit; 4193 First Aid Kit; 4194 First Aid Kit; 4195 First Aid Kit; 4196 First Aid Kit; 4197 First Aid Kit; 4198 First Aid Kit; 4199 First Aid Kit; 4200 First Aid Kit; 4201 First Aid Kit; 4202 First Aid Kit; 4203 First Aid Kit; 4204 First Aid Kit; 4205 First Aid Kit; 4206 First Aid Kit; 4207 First Aid Kit; 4208 First Aid Kit; 4210 First Aid Kit; 4212 First Aid Kit; 4216 First Aid Kit; 4218 First Aid Kit; 4219 First Aid Kit; 4220 First Aid Kit; 4222 First Aid Kit; 4223 First Aid Kit; 4224 First Aid Kit; 4225 First Aid Kit; 4227 First Aid Kit; 4228 First Aid Kit; 4231First Aid Kit; 4234 First Aid Kit; 4235 First Aid Kit; 4236 First Aid Kit; 4237 First Aid Kit; 4238 First Aid Kit; 4239 First Aid Kit; 4243 First Aid Kit; 4245 First Aid Kit; 4246 First Aid Kit; 4247 First Aid Kit; 4248 First Aid Kit; 4249 First Aid Kit; 4250 First Aid Kit; 4251 First Aid Kit; 4252 First Aid Kit; 4253 First Aid Kit; 4254 First Aid Kit; 4255 First Aid Kit; 4256 First Aid Kit; 4257 First Aid Kit; 4258 First Aid Kit; 4259 First Aid Kit; 4260 First Aid Kit; 4261 First Aid Kit; 4264 First Aid Kit; 4265 First Aid Kit; 4266 First Aid Kit; 4267 First Aid Kit; 4269 First Aid Kit; 4270 First Aid Kit; 4271 First Aid Kit; 4272 First Aid Kit; 4273 First Aid Kit; 4274 First Aid Kit; 4275 First Aid Kit; 4276 First Aid Kit; 4277 First Aid Kit; 4278 First Aid Kit; 4279 First Aid Kit; 4280 First Aid Kit; 4281 First Aid Kit; 4282 First Aid Kit; 4283 First Aid Kit; 4284 First Aid Kit; 4285 First Aid Kit; 4286 First Aid Kit; 4288 First Aid Kit; 4289 First Aid Kit; 4290 First Aid Kit; 4291 First Aid Kit; 4293 First Aid Kit; 4295 First Aid Kit; 4298 First Aid Kit; 4299 First Aid Kit; 4300 First Aid Kit; 4301 First Aid Kit; 4302 First Aid Kit; 4303 First Aid Kit; 4304 First Aid Kit; 4305 First Aid Kit; 4306 First Aid Kit; 4307 First Aid Kit; 4308 First Aid Kit; 4309 First Aid Kit; 4310 First Aid Kit; 4311 First Aid Kit; 4312 First Aid Kit; 4313 First Aid Kit; 4318 First Aid Kit; 4319 First Aid Kit; 4320 First Aid Kit; 4321 First Aid Kit; 4322 First Aid Kit; 4323 First Aid Kit; 4326 First Aid Kit; 4327 First Aid Kit; 4329 First Aid Kit; 4330 First Aid Kit; 4331 First Aid Kit; 4332 First Aid Kit; 4333 First Aid Kit; 4334 First Aid Kit; 4335 First Aid Kit; 4336 First Aid Kit; 4337 First Aid Kit; 4338 First Aid Kit; 4340 First Aid Kit; 4342 First Aid Kit; 4344 First Aid Kit; 4345 First Aid Kit; 4346 First Aid Kit; 4347 First Aid Kit; 4348 First Aid Kit; 4349 First Aid Kit; 4350 First Aid Kit; 4351 First Aid Kit; 4352 First Aid Kit; 4353 First Aid Kit; 4357 First Aid Kit; 4359 First Aid Kit; 4360 First Aid Kit; 4362 First Aid Kit; 4363 First Aid Kit; 4364 First Aid Kit; 4365 First Aid Kit; 4369 First Aid Kit; 4370 First Aid Kit; 4371 First Aid Kit; 4372 First Aid Kit; 4373 First Aid Kit; 4374 First Aid Kit; 4375 First Aid Kit; 4376 First Aid Kit; 4378 First Aid Kit; 4379 First Aid Kit; 4389 First Aid Kit; 4390 First Aid Kit; 4391 First Aid Kit; 4392 First Aid Kit; 4395 First Aid Kit; 4396 First Aid Kit; 4397 First Aid Kit; 4400 First Aid Kit; 4401 First Aid Kit; 4402 First Aid Kit; 5% Xylocaine Mpf With Glucose 7.5% Injection; 50 Person ANSI; 7-Select After Sun Lidicaine HCl Pain-Relieving with Aloe Vera; ACAT SUK Kit (Accelerated COVID-19 Antibody Test Single Use Kit); ACME FIRST AID Contains 404 PIECES; ACME Small Cuts and Burns; ACT Kit (Accelerated COVID-19 Test Kit); ACTIVE-PAC with Gabapentin; ADVANCED NUMB Topical Anesthetic; ANORECTAL Lidocaine Cream; ARC Emergency Preparedness FIRST AID Contains 202 PIECES; ARC FIRST AID Contains 1000 PIECES; ARC FIRST AID Contains 101 PIECES; ARC FIRST AID Contains 101 PIECES Hardcase; ARC FIRST AID Contains 303 PIECES; ARC FIRST AID Contains 303 PIECES HARDCASE; ARC FIRST AID Contains 404 PIECES; ARC FIRST AID Emergency Preparedness Contains 167 PIECES; Absorbine jr. Lidocaine; Accucaine; Acme Home/Office/Auto Kit; Activate Joint and Muscle Relief; Acunistat-30; Acunistat-60; Adazin; Advanced DNA Medicated Collection; Advanced DNA Medicated Collection Kit II; Advanced DNA Medicated Collection Kit III; Advanced Seal Barrier plus Pain Relief; Aerowound Blood Clotting First Aid; Afassco Burn Gel; Afassco First Aid Burn Cream; Aflexeryl-LC; After Bite Wipe; After Burn; After Cuts and Scrapes; After Sun Burn Relief Lidocaine Continuous Spray; After Sun Gel; After Sun Soothing Spray; AfterBurn; Aftersun Cooling CVS; AgonEaze; Akten; Albertson Lidocaine, Menthol Pain Relief Medicated Patch; Albertsons Pain Relief Patch; Alcoholada Gel Pain Relieving Pain; Alcoholada Pain Relieving; Alivio; Alocane; Alocane Emergency Burn; Alocane Emergency Burn Pads; Alocane On The Go; Alocane Plus; Alocane Severe Sunburn; Aloe; Aloe Burn Relief; Aloe Gel Pain Reliever Well at Walgreens; Aloe Ice Sunburn Relief; Aloe Ice Sunburn Relief Jelly; Aloe Vera Gel; Ambator Lidocaine Patch; American Safety First Aid; Amino Rip Muscle Pain Relief; Amniocentesis Tray 1%; Amour CBD; Ana-Lex; AnaMantle HC; Analgesic; Anecream; Anecream 5; Anesta; Anestacon; Anestafoam; Anesthetic; Anodyne Ile; Anodyne LPT; AnodyneRx; Anorectal; Anorectal Equate; Anorectal Walgreens; Antecubital Cent Venous Catheterization Kit; Antibacterial Lidocaine Wound Gel; Antibiotic Cream Plus Pain Relief; Antibiotic Cream Plus Pain Relief for Kids; Antibiotic Cream for Kids; Antibiotic Free Wound Gel and Pain Relief; Antibiotic Plus Pain Relief Cream; Antiseptic; Antiseptic Formula Filled Swab; Apicaine-X; Apr15; Aprizio Pak; Aprizio Pak II; Aramark Blood Clotting; Aramark Burn; Aramark Burn Cream; Aramark Burn Gel; Aramark Star Burn Gel; Aromalief Lidocaine Roll On; Arrow Central Venous Catheterization Kit; Arrow Multi-lumen Central Venous Catheter Kit; Arrow Pneumothorax Kit; Arrow Two-lumen Central Venous Cathetar Kit; Arrow Two-lumen Jugular Catheterization Kit; Arthrocare Maximum Arthritis Pain Relief; Arthrogram Tray 1%; AsperFlex; AsperFlex MAX; Aspercreme; Aspercreme Lidocaine Foot (Diabetic); Aspercreme Lidocaine No-Mess Bergamot Orange; Aspercreme Lidocaine No-Mess plus Lavender; Aspercreme Lidocaine XL; Aspercreme with Lidocaine; Aspercreme with Lidocaine Dry; Aspercreme with Lidocaine Essential Oils Rosemary Mint; Aspercreme with Lidocaine Foot Pain Creme; Aspercreme with Lidocaine No-Mess Applicator; Aspercreme with Lidocaine Pain Relieving Creme; Aspercreme with Lidocaine XL; Asperflex 24hrs; Assured; Assured Bikini Smooth Cream; Assured Pain Relief; Astero; Atelocollagen Implant; Atendia; Aubio Life Sciences Lip; Australian Gold Aloe Freeze Gel with Lidocaine; Australian Gold Aloe Gel with Lidocaine; Auto 157; AvaDerm; Avalin External Analgesic Patch; Avalin-RX; Avon Foot Works Therapeutic Cracked Heel Relief Cream; BENGAY Ginger Citrus; BENGAY Tropical Jasmine; BLT Skin Cream; BLUE ACME SLEEVE FIRST AID Contains 1000 PIECES; BZ Step Pain Relief Cream; Baciguent Plus Pain Reliever Ont; Bactine First Aid Spray; Bactine First Aid Spray Liq; Bactine Max; Bactine Original First Aid; Bactine Pain Relieving; Baker's Best Maximum Strength Pain Relief; Bakers Best Arthritis Pain Relief; Banana Boat Sooth-A-caine Spray Gel; Banana Boat Sooth-A-caine W.moist.aloe V.gel; Banana Boat Soothacaine Spray Gel; Band Aid Antiseptic Cleansing Liquid; Band-Aid Brand Hurt-Free Antiseptic Pain Relieving; Band-Aid Brand Hurt-Free Antiseptic Wash; Band-aid Brand Antiseptic Wash; Base Laboratories Base Numb Extra Strength Topical Anorectal; Base Laboratories Base Numb Topical Anorectal Cream; Base Laboratories Hemorrhoidal; Base Laboratories Lidocaine Anesthetic Pain Relief; Base Laboratories Numb Gel; Base Numb Topical Anesthetic; Base Numb Topical Anorectal; Basic Biopsy Tray 1%; Basic Care Endure; Basic Care Lidocaine; BeKoool Itch Relief; Bed Bug Instant Bite Relief; Bene Patch; BenePatch; Benzalkonium Chloride and Lidocaine Hydrochloride; Benzocaine 20% / Lidocaine 10% / Tetracaine 10%; Beta Inject Kit; Betacaine Gel; Betalido Kit; Bikini Relief; Bikini Zone; Bikini Zone Medicated; Bikini Zone Medicated CREME; Bikini Zone Topical Analgesic Gel; Bio-Scriptives Lidum; Bio-Scriptives Lidum Hemorroidal (Anorectal); Bio-Scriptives Lidum Topical Analgesic; Biotic-Plus; Bite and Sting Relief Wipe; Bl; Blockaid; Blood Clotting First Aid; Blt 2; Blue Gel Anesthetic; Blue Tube; Blue-Emu Lidocaine Dry; Blue-Emu Lidocaine Pain Relief Cream; BonaDur; Botanika Life Pain Relief Roller; Botanika Life Soothing Pain Serum; Botanika Life Ultra-Relief Pain Rub; Bottoms Up; Braline Patch; Budpak First Aid; Burn; Burn Cream; Burn First Aid; Burn Gel; Burn Jel; Burn Jel 20 mg/g; Burn Jel Plus; Burn Mist; Burn N Bite; Burn Relief; Burn Relief Aloe; Burn Relief Aloe Vera Gel GNP; Burn Relief CVS; Burn Relief Continuous; Burn Relief Cream; Burn Relief Extra Strength Kool-Down; Burn Relief Gel; Burn Relief Gel With Lidocaine; Burn Relief Kol-Down; Burn Relief Leader; Burn Relief Max Strength; Burn Relief Pain Reliever Well at Walgreens; Burn Relief Professional Bio-Kool; Burn Relief Professional Kool-Down; Burn Relief Signature Care; Burn ReliefPreferred Plus Ph Preferred Plus Pharmacy; Burn ReliefRelief; Burn Treatment; Burn relief aloe Daylogic; Burn with Aloe; Burn with Lidocaine; BurnX Pain Relieving Burn; BurnZone; Burncare Kit; Burncare Spray; Burnrelief; Bus and Classroom Yellow; CANNA NUMB Pain Relief; CANNA NUMB Roll On; CBD Clinic - Mild Pain Therapy; CBD Clinic Pain Relief - Level 1; CBD MIST Topical Anesthetic; CBD Medic - Odor-Free Serious Relief; CBD PAIN RELIEF Cream; CBD Pain; CBD Pain Patches; CBD pain cream; CBD4 pain relief cream; CBDMEDIC Itch and Rash; CBDaF Topical Gel; CLIN-LIDO-Single Use Kit; CLM Patch; COOL CURE Pain Relief; CVS All Purpose First Aid Kit; CVS Antiseptic Wash; CVS Bacitracin with Pain Relief; CVS Burn Relief w/Lido 8oz; CVS Cold and Hot; CVS First Aid Kit; CVS Health Aftersun Aloe Vera Cooling; CVS Health All Purpose Kit; CVS Health Antibiotic Free Wound and Pain Relief; CVS Health Antiseptic Wound Wash; CVS Health Cold and Hot Roll-On; CVS Health Lidocaine Cream; CVS Health Lidocaine Pain Relief; CVS Health Lidocaine Pain Relief Plus Menthol; CVS Health Lidocaine Pain-Relieving; CVS Health Lidocaine Plus Pain Relieving; CVS Health Maximum Strength Lidocaine Pain Relief Cream Plus Menthol; CVS Health Sunburn Relief Cooling Lidocaine 0.5 Pain-Relieving; CVS Health XL Lidocaine Pain Relief; CVS Lidocaine Maximum Strength; CVS Lidocaine Pain Relief Dry; CVS Maximum Strength LIDOCAINE PLUS; CVS Pain Relief; CVS Pain Relieving First Aid Antiseptic; CVSLidocaineAntisepticSpray; CYHOT Cream with Lidocaine Well at WAlgreens; Cacitrix; Cadira Compliant Blood Stat; Calm and Correct Serum with Lidocaine; Cannabicool Pain Relieving Lidocaine Roll-On; Care Bus and Classroom Yellow; Careone Lidocaine Pain Relief; Caribbean Breeze Burn Relief; Carpal Comfort; Cathejell; Cbd-kings With Lidocaine 4%; Cbd4 Freeze Pump Vanishing Scent; Centipaine for Pain Control; Central Vein Catheterization Kit; Central Venous Catetherization Kit; Central Venous Catheter Expanded Kit; Chi-Myst Resolve Topical; Chi-Myst Synergy Topical; Cicloferon; CidalEaze; Cimetidine 10% / Lidocaine 5% / Salicylic Acid 40%; Cml; Coachs First Aid Contains 102 Pieces; Cold Sore TREATMENT; Cold Sore Treatment; Cold and Heat Lidocaine Patch Plus Menthol; Comfort EZ Extra Strength Pain Relief Patch; Comfort EZ Extra StrengthTransdermal Patch; Comfort EZ Pain Relief Patch; Comfortcaine; Comfortox Lidocaine; Complete Antibiotic Ointment; Continuous Epidural Anesthesia Tray; Cool N Heat Lidocaine Dry; Cool and Heat Evora Labs; Cooling Gel; Coralite Lidocaine Pain Relief; Coralite Odor Free Pain Relief; Crane Safety Burn; Curacaine; Curist Hemorrhoid Relief; Curist Lidocaine Maximum Strength; Curist Lidocaine Numbing Relief; Curist Lidocaine Patch Maximum Strength; Cutiecaine; Cutiecaine-5%; Cyclopak; D-Care 100X; DAYMARK FAK-35 First Aid; DERMA ICE BURN RELIEF with Aloe Vera; DG Health Maximum Strength Cold n Hot; DG Health Maximum Strength Pain Relieving Cleansing; DG Health Pain Relieving; DG health; DX1 OraGenomic Medicated DNA Collection Screen; DX2 OraGenomic Medicated DNA Collection Screen; DYNAMO DELAY Black Label; Dbk; De La Cruz Mercurochrome; Deeveeant Numb; DentiPatch; Dentsply 2% Lidocaine With Epinephrine 1:100,000; Dentsply 2% Lidocaine With Epinephrine 1:50,000; Depo-medrol With Lidocaine; Derma Gel Relief; Derma Numb; Derma Numb Pain Relief; Derma-Caine; DermaNumb Analgesic; DermaNumb Anesthetic Gel; DermaNumb Tattoo Anesthetic; DermaNumb Tattoo Anesthetic Gel; DermaRad Relief; DermaRad Relief Post Radiation Calming; DermacinRx Cinlone-I CPI; DermacinRx Cinlone-II CPI; DermacinRx DPN Pak; DermacinRx Empricaine; DermacinRx Empricaine II; DermacinRx Lexifen; DermacinRx Lido V Pak; DermacinRx Lidotral; DermacinRx PHN Pak; DermacinRx Prikaan; DermacinRx Prizopak; DermacinRx ZRM Pak; Dermalid; Dermatologic Relief; Dermazyl; Desert Harvest RELEVEUM; Dexlido Kit; Dexlido-M Kit; Diabetic First Aid Gel; Diabetic First Aid Gel Professional; Dibucaine HCl 0.5% / Lidocaine 15% / Phenylephrine HCl 1% / Prilocaine 5%; Diclocaine; Diclona Gel; Diclovix; DiolPure Lidocaine Pain Relief Cream; Diphen; Discount Drug Mart Pain Relief Patches; Disposable Convenience Kit (Single Shot Epidural); Doans Pain Relieving; Doctor Butler Hemorrhoid and Fissure Advanced Formula; Doctor Butlers Numb It All Cream; Dollar General Pain Relieving Patch with Lidocaine; Dologesic Roll-On; Dolor-parche With Lidocaine-RX; Doloracin/l Rx With Lidocaine; Dolotranz; Dr Saymans Wonder Rub; Dr. Numb; Dr. Richs Numbing; Dr. Scholl's Cracked Heel Relief Cream; Dragon Pain Numbing Roll-On; Dragon Pain Numbing Topical Analgesic; Dragon Pain Relief; Duane Reade Aloe Vera Pain Relieving; Duane Reade Burn Relief Pain Relieving Gel; Duocaine; DyNAmic Kit; DyNAmic Plus Pak Kit; Dynamo Delay; Dynarex Burn Cream; Dyural 40 Kit; Dyural 80 Kit; Dyural 80-LM; Dyural L Kit; Dyural LM Kit; Dyve Comfort L; Dzul - Lido Creme Maximum Strength; ECOLAB Blood Clotting; ECOLAB Burn; ECOLAB Burn Cream; ENDURE Male Genital Desensitizing; EQUATE Sunburn relief with Aloe After Sun; EXTRA STRENGTH AND MUSCLE RELIEF 900 mg; EXTRA STRENGTH JOINT AND MUSCLE RELIEF 1500 mg; EZ-Relief; Ear Pain MD; Ear Pain MD (E007); Ear Pain MD for Kids; Easy Care First Aid - All Purpose; Easy Care First Aid AfterBurn; Easy Care First Aid Chest - Home and Workshop; Easy Care First Aid Kit - Comprehensive; Ebsl-5; Ebss-5; Eclipse Topical Anesthetic; Eha; Electrum Numb Anesthetic; Electrum Numb Foam; Elemar Patch; Elite; Elite PAIN RELIEF; Emla; Emla Cream; Emla Patch; Endoxcin; Endurance Rx Male Desensitizer; Endure; Epidural Anesthesia Tray; Equaline Lidocaine; Equate After Sun Gel With Lidocaine; Equate Hemorrhoid Relief; Equate Lidocaine Cool and Heat; Equate Pain Relief Cream; Equate Pain Relieving Cream Lidocaine; Equate Pain Relieving Patches; Ever Ready First Aid; Everyday Medical Everyday Numb Topical Anesthetic Cream; Exchange Select Burn Relief Pain Relieving; Exigence One Patch; Expanded Multi-med Kit; Exsel Aloe; Extra Strength AfterTAT; Extra Strength AfterTAT Slime; Extra Strength First Aid; Extra Strength Foot Care Liquid Gel; Extra Strength Liquid Bedsore Relief Gel; Extra Strength Liquid Burn Relief Gel; Extra Strength Liquid Hemorrhoid Relief Gel; Extra Strength Liquid Insect Bite Relief Gel; Extra Strength Liquid Numbing Gel; Extra Strength Naturally HL Foot Care; Extra Strength Naturally HL Warming Ice; Extra Strength Naturally Hl Foot Care; Extra Strength Naturally Hl Hand Care; Extra Strength Naturally Hl Itch Relief; Extra Strength Naturally Hl Sunburn Relief; Extra Strength Naturally Hl Warming Ice; Extra Strength Numbify Anorectal; Extra Strength Numbing Gel; Extra Strength Postherpetic Neuralgia; Extra Strength Postherpetic Neuralgia Care; Extra Strength Postherpetic Neuralgia Relief; Extra Strength Postpartum Relief; Extra Strength PreTAT; Extra Strength Pruritis Care; Extra Strength Pruritis Relief; Extra Strength Scar Prevention; Extra Strength Shingle Chickenpox Relief; Extra Strength Shingles Chickenpox Relief; Extra Strength Skin Repair; Extra Strength Skin repair; Extra Strength Sunburn Relief; Extra Strength Wound Care; Ez Pain Relieving; FAK Care4 Bus and School Yellow ORM D; FAK Large Office First Aid kit; FIRST AID Contains 1000 PIECES; FIRST AID Contains 101 PIECES; FIRST AID Contains 101 PIECES HARDCASE; FIRST AID Contains 202 PIECES; FIRST AID Contains 303 PIECES; FIRST AID Contains 303 PIECES HARDCASE; FIRST AID Contains 404 PIECES; FIRST BXN Mouthwash; FIRST Mouthwash BLM; Family Medic First Aid Treatment - Liq; Family Medic First-aid Treatment Liquid; Family Medic First-aid Treatment Lotion; Fast Freeze Lidocaine; Fast Freeze Lidocaine Roll-On; Feel Better Now; First Aid; First Aid Antiseptic; First Aid Antiseptic Pain Relieving; First Aid Antiseptic Rite Aid pharmacy; First Aid Antiseptic Swabs; First Aid Antiseptic Well at Walgreens; First Aid Burn; First Aid Burn Cream; First Aid Burn Relief Rite Aid; First Aid GNP; First Aid Kit 64058024; First Aid Kit Medication Filled Swabs; First Aid Macimum Sterngth Bacitraycin Plus; First Aid Only Burn; First Aid Only Burn Mist; First Aid Only First Aid/ Burn; First Aid Only First Aid/Burn; First Aid Pocket Pack - 40 Pieces; First Aid Research Bacitraycin Plus Maximum Vertical; First Aid Spray; First Aid Triple Antibiotic with Pain Reliever; First Aid Value Pack - 77 Pieces; First Aid and Burn; First Shield; First aid and Burn; FirstCare Pain Relief Gel Patch; Flanax Back Pain Relief; Fluocinolone Acetonide 0.025% / Lidocaine HCl Monohydrate 1%; Fonow; Foot Hangover; Foot Works Cracked Heel; Foot Works Healthy Cracked Heel Cream; Footworks Healthy Cracked Heel Cream; Footworks Maximum Strength Cracked Heel; Formula 2 Skin Care; Fortacin; Forticept Wounds and Burns Hydrogel; Fossaoprin SPG2; Fossaoprin SPG4; FourPainRX; FranklyNumb 2; Freds Antiseptic Wash; Frost Lidocaine with Aloe; Fruit of the Earth Aloe Vera Cool Blue; Fruit of the Earth Cool Blue Aloe Mist Continuous; Fruit of the Earth Sun Town City; Fruit of the Earth Sun Town City Aloe Vera After Sun with Lidocaine HCL; Fsk-5; GENUINE FIRST AID Emergency Preparedness Contains 167 PIECES HARDCASE; GENUINE FIRST AID Emergency Preparedness Contains 167 Pieces; GFA First Aid; GFA First Aid 16 Unit Metal Case; GFA First Aid 24 Unit Metal Case; GFA First Aid 36 Unit Metal Case; GFA First Aid 75 Person Metal Case; GNP Lidocaine Maximum Strength; GOOD NEIGHBOR PHARMACY FIRST AID Contains 202 PIECES; GPL Pak; GREEN GUARD Topical Pain Relief; Gabacaine; Gabapal; Gardeners Skin Remedy Topical Analgesic Gel; GelAzul Roll-On; Gen 7t; Gen7T; Gen7T Plus; General Numb; Genetic Amniocentesis Tray Kit; Genuine First Aid Burn; Genuine First Aid Burn Antiseptic Pain Relief With Aloe; Genuine First Aid First Aid Antiseptic Pain Relieving Cream; Genuine First Aid Industrial First Aid; GeriGentle FrostyHeat Pain Relief Patch 4 Lodocaine Back; Gigi Anesthetic Numbing; Glycerin, Lidocaine, Petrolatum, and Phenylephrine Hydrochloride; Glydo; Gold Bond Medicated Pain and Itch Relief; Gold Bond Pain and Itch; Good Neighbor Pharmacy Aloe Vera; Good Neighbor Pharmacy Burn Relief Aloe Extra; Good Neighbor Pharmacy Emergency Preparedness and First Aid Contains 167 Pieces; Good Sense Burn Relief Aloe; Good Sense endure; GoodSense Burn Relief Gel; GoodSense Pain Relief; Green Compass Reduce Topical Pain; Green Guard Burn; Green Guard Derma-Caine; Green Guard Derma-Caine Burn; Green Guard Super Stat Blood Clotting First Aid; Greencaine Blast; H-Paxin; H-Releve Hemorrhoidal; H2Ocean Nothing Tattoo Glide And Soothing Balm; HAWAIIAN Tropic; HEM-EASY RELIEF Herbal Hemorrhoidal; HUMCO Mercuroclear; HUSH Fast Acting Topical Anesthetic; Haku Kalima; Hampton Sun 0.5% Lidocaine Gel; Harmony Hemp NeuroComfort 4% Lidocaine Pain Relief 1000mg; Harmony Hemp NeuroComfort 4% Lidocaine Pain Relief 500mg; Harmony Hemp NeuroComfort 4% Lidocaine Pain Relief Roll-on 500mg; Harmony Hemp NeuroComfort Pain Relief Gel 1000; Harmony Hemp NeuroComfort Pain Relief Gel 500; Harmony Hemp NeuroComfort Pain Relief Lotion500; Harmony Hemp NeuroComfort Pain Relief Roll-on 1000; Harmony Hemp NeuroComfort Pain Relief Roll-on 500; Harmony Hemp NeuroComfort Pain Relief Spray500; Harmony Neur Pain Relief; Harmony Neuro 4% Lidocaine Pain Relief 500mg; Harmony Neuro Pain Relief; Harmony NeuroComfort 4% Lidocaine Pain Relief Cream-Gel 1000mg; Harmony Numbing Cream; Harmony Products LLC.; Hawaiian Tropic After Sun Après Soleil Sunburn Relief Soulagement Des Coups De Soleil; Healerz for Noses; Health Mart Lidocaine; HealthWise Lidocaine Pain relief; HealthWise Lidocaine and Menthol Pain Relief; HealthWise Pain Relief Cream with Lidocaine; HemAway; HemRid Anorectal Cream; Hemorrhoid Master Hemorrhoid and Fissure; Hemorrhoid Relief; Hemorrhoid Relief Cream; Hemorrhoid and Fissure Dr. Butler; Hemorrhoidal; Hemorrhoidal Relief Cream; Hemorrhoidal With Lidocaine; Hemorrhoidal-Ointment; Hemporrhoid; Hempvana Knee Bird Ultra Strength Pain Relief; Hempvana Maximum Strength Pain Relief Cream; Hempvana Maximum Strength Pain Relief Cream - Night; Hempvana Pain Relief; Hempvana Ultra Strength Pain Relief; Hempvana Ultra Strength Pain Relief Cream; Hempvana Ultra Strength Pain Relief Cream - Night; Herpecin Pain Relief; Holy Water Mercy In A Bottle; Hot Cold Lidocaine With Menthol; Hot and Cold Cream with Lidocaine Pain Relieving; Hot and Cold Cream with Lidocaine- RA Pain Relieving; Hot and Cold Lidocaine with Menthol Patch Pain Relief; Hot and Cold with Lidocaine Pain Relieving; Hot and Cold with Lidocaine-Careone Pain Relieving; Hot and Cold with Lidocaine-RA Pain Relieving; Hunter Beach 4%; Hush Anesthetic; Hustle Helper; Hustle Helper Comfort Enhancing Anesthetic Antimicrobial Wash; Hyaluronic Acid 60mg and Lidocaine 2% PF; Hydrocath Central Venous Catheter Kit; Hyronan; I.C.E. Lidocaine Gel - Gel Lidocaine; INKED SCIENCE LIDOCAINE 4 Percent; INTIMALE Maximum Strength Delay; IV Infusion CPI; IceQuake Lidocaine Analgesic; Icy Hot; Icy Hot Lidocaine Dry; Icy Hot Lidocaine No Mess Applicator Plus Menthol; Icy Hot Lidocaine No-Mess; Icy Hot Lidocaine Pain Relieving Cream Plus Menthol; Icy Hot with Lidocaine; Icy Hot with Lidocaine No-Mess; Icy Hot with Lidocaine Pain Relieving; Inflammation Reduction Pack; Inkeeze Original B Numb; Inkeeze Original B Numb Cylinder; Innoprax-5; Insta Relief DM; Instant Burn Relief; Instant Burn Relief Aloe Extra CVS; Instant Cool Skin Instant Relief. Sudden Results; Instillagel; Interarticular Joint Kit; Intimale Lidocaine Delay; Itch Relief; Itch Relief Max Strength; Itch relief Cream; Iwk-5; JO for Him Prolonger with Lidocaine; JOINT AND MUSCLE RELIEF 450 mg; JOINT AND MUSCLE RELIEF 750 mg; JOIYA Ease; JTT Physicians Joint, Tunnel and Trigger; Jampocaine 2% Viscous Solution; Jampocaine 5%; Jamshidi Bone Marrow Biopsy Tray; Jamshidi Menghini Soft Tissue Biopsy Tray; Jelido; K-Mart SmartSense First Aid Contains 101 Pieces; K-Mart SmartSense First Aid Contains 303 Pieces; K10-lido; K2k; K40-lido; KARMA RUB Elemental Pain Relief; KDS Lab Liquid Styptic; KY Duration for Him; KY Duration for Men; Keepan A; Kendra SKIN PROTECTION and PAIN RELIEF FOR HAIR REMOVAL; Ketorocaine L Kit; Ketorocaine LM Kit; Kit Breakroom Office First Aid; Kit Large Office First Aid; Konicare 5%; Kope Pain relief gel; Kroger Aloe Vera Pain Relieving; Kroger Burn Relief Aloe; LIDOCAINE HCl; LIDOCAINE HCl AND EPI; LIDOCAINE HCl AND EPINEPHRINE; LIDOCAINE HCl and EPINEPHRINE; LMR Plus; LP Lite PAK; LUCKY SUPERSOFT sunburn relief; Lansinoh Pain Relieving; Large ANSI First Aid Kit; Laryng O Jet Kit; Laryng-O-Jet; Lcm; Leader; Leader After Sun Cooling; Leader Burn Relief; Leader Lidocaine; Leader PAIN RELIEF PATCHES; LeedFrost Cream (lidocaine 5%); Leep RediKit; Lenza Pro; LenzaGel; LenzaPatch; LenzaPro Flex; LenzaPro Flex Path; Leva Set with Occlusive Dressing; LevigoLT; LevigoSP; LexiLido; Leximenth; LiMetCam; LiProZonePak; Lid O Creme Roll On; LidAll; LidaFlex; Lidenza Patch; Lidenzal 1%; Lidenzal 2%; Lido AID; Lido Bdk; Lido E.R.CREME ROLL ON; Lido GB-300; Lido King; Lido Pain Relief; Lido Rx; Lido-K; Lido-Prilo Caine Pack; Lido-RX 4.1; Lido-Sorb External; Lido-mp40; LidoCream 10; LidoCream 4; LidoCream 5; LidoER; LidoFLEX; LidoFLEX Elbow, Single Pouch; LidoFore 4% FlexiPatch; LidoHeal-90; LidoMet-10 Kit; LidoPatch; LidoPatch Pain Relief; LidoPlus Pain Relief; LidoPlus Pain Relief Patch; LidoPro; LidoPro Patch; LidoPure Patch; LidoReal-30 4% Topical Patch; LidoRxKit; LidoSport Pain Relief; LidoSport Pain Relief Patch; LidoStat; LidoStream; LidoVir; LidoWorx; LidoXib; Lidocaine; Lidocaine 0.2% In 5% Dextrose Inj; Lidocaine 15% / Phenylephrine HCl 0.25% / Prilocaine 5%; Lidocaine 2% / Mupirocin 2%; Lidocaine 2% and Epinephrine 1:100 000; Lidocaine 2% and Epinephrine 1:100,000; Lidocaine 2% and Epinephrine 1:50 000; Lidocaine 2% and Epinephrine 1:50,000; Lidocaine 2.5% and Prilocaine 2.5% Cream; Lidocaine 23% / Tetracaine 7%; Lidocaine 3% Topical Anesthetic Cream; Lidocaine 30%; Lidocaine 4 Percent; Lidocaine 4 Percent PLUS; Lidocaine 4 Percent and Menthol 1 Percent Roll-On; Lidocaine 4%; Lidocaine 4% Cream; Lidocaine 4% Menthol 4%; Lidocaine 4% Patch; Lidocaine 4% Topical Anesthetic Cream; Lidocaine 4% plus Menthol 1%; Lidocaine 5 Percent; Lidocaine 5%; Lidocaine 5% Topical Anorectal Cream; Lidocaine 7% / Tetracaine 7%; Lidocaine Anesthetic Cream; Lidocaine Anorectal; Lidocaine Dry; Lidocaine Dry Patch Plus Menthol; Lidocaine HCl; Lidocaine HCl - Hydrocortisone Acetate; Lidocaine HCl - Hydrocortisone Acetate with Aloe; Lidocaine HCl 0.2% and Dextrose 5% Inj; Lidocaine HCl 0.8% and 5% Dextrose Inj; Lidocaine HCl 3.88%; Lidocaine HCl 4 Percent and Menthol 4 Percent; Lidocaine HCl 4%; Lidocaine HCl 4% Menthol 1%; Lidocaine HCl Hydrocortisone Acetate; Lidocaine HCl Inj 1%; Lidocaine HCl Inj 10mg/ml USP; Lidocaine HCl Inj 20mg/ml; Lidocaine HCl Injection USP 1% (50 Mg/5ml); Lidocaine HCl Injection USP 1% (50mg/5ml); Lidocaine HCl Jelly 2%; Lidocaine HCl Topical Solution; Lidocaine HCl and Dextrose 5% Inj USP; Lidocaine HCl and Hydrocortisone Acetate; Lidocaine Hci; Lidocaine Hci and Dextrose; Lidocaine Hci and Epinephrine; Lidocaine Hci and Epinephrine With Epinephrine; Lidocaine Hydrochloride; Lidocaine Hydrochloride - Hydrocortisone Acetate; Lidocaine Hydrochloride 0.5% and Epinephrine 1:200000 Injection USP; Lidocaine Hydrochloride 1.5% and Epinephrine 1:200000 Injection USP; Lidocaine Hydrochloride 1.5% and Epinephrine 1:200000 Injection USP Test Dose; Lidocaine Hydrochloride Gel; Lidocaine Hydrochloride Hydrocortisone Acetate; Lidocaine Hydrochloride Injection; Lidocaine Hydrochloride Injection USP; Lidocaine Hydrochloride Injection USP 0.5%; Lidocaine Hydrochloride Injection USP 2%; Lidocaine Hydrochloride Injection, USP 1%; Lidocaine Hydrochloride Monohydrate; Lidocaine Hydrochloride Solution; Lidocaine Hydrochloride Topical Solution USP; Lidocaine Hydrochloride Viscous; Lidocaine Hydrochloride and 5% Dextrose Injection USP; Lidocaine Hydrochloride and Dextrose; Lidocaine Hydrochloride and Epinephrine; Lidocaine Hydrochloride and Epinephrine Bitartrate; Lidocaine Hydrochloride and Epinephrine Injection USP; Lidocaine Hydrochloride and Hydrocortisone Acetate; Lidocaine Hydrochloride, Hydrocortisone Acetate; Lidocaine Injection BP; Lidocaine Maximum Strength; Lidocaine Menthol Pain Relief; Lidocaine Numbing Cream; Lidocaine Ointment USP; Lidocaine Ointment USP, 5%; Lidocaine Ont 5% Graham Flavored; Lidocaine Pain Relief Gel Patch; Lidocaine Pain Relief Patch; Lidocaine Pain Relief Roll-On; Lidocaine Pain Relief with Lavender; Lidocaine Pain Relieving; Lidocaine Pain Relieving Creme; Lidocaine Patch; Lidocaine Patch, 5%; Lidocaine Patchs; Lidocaine Plus Maximum Strength Pain Relieving Cream; Lidocaine Viscous; Lidocaine and Epinephrine Inj.usp 2% 1:100000; Lidocaine and Menthol; Lidocaine and Prilocaine; Lidocaine and Prilocaine Cream; Lidocaine and Tetracaine; Lidocaine creme; Lidocaine hydrochloride; Lidocaine plus Menthol; Lidocaine with Menthol; Lidocaine with Menthol Patch Pain Releif; Lidocaine-Prilocaine-Cream Base; Lidocaine4; Lidocanna; Lidocare 03; Lidocare Arm, Neck, Leg; Lidocare Mist; Lidocin; Lidocoll; Lidocort; Lidocream Plus; Lidodan 4% Topical Solution; Lidodan Cream 4%; Lidodan Cream 5%; Lidodan Endotracheal Non-aerosol Spray; Lidodan Jelly 2%; Lidodan Jelly 2%(single Use Syringe); Lidodan Ointment 5%; Lidodan Viscous 2%; Lidoderm; Lidoderm 5; Lidodextrapine; Lidodose; Lidogel; Lidolog Kit; Lidomark 1/5; Lidomark 2/5; Lidomax 5; Lidomyxin; Lidonex; Lidonexe; Lidopac; Lidopatch; Lidopen; Lidopin; Lidopril; Lidopril XR; Lidopro; Lidorex; Lidosite; Lidosporin Cream; Lidosporin Ear Drops; Lidothal Relief; Lidothol; Lidothol Gel; Lidotin; Lidotor; Lidotran; Lidotrans 5 Pak; Lidovex; Lidovin; Lidovix Delayed Release; Lidovix L; Lidoxryl; Lidozen; Lidozen Gel; Lidozen Patch; Lidozion; Lidozo Topical Pain Patch; Lidozol; LifeStyles EPIC Male Genital Desensitizer; Lignospan Forte; Lignospan Speciale Inj; Lignospan Standard; Limencin; Lipocaine 5; Lipovite; Lipritin; Lipritin II; Liprotek; Lipsorex Plus; Liquid Sex; Livixil Pak; Lixtraxen 1%; Lmc; Lmx4; Lmx5; Lorenza Pain Relief Patch; Lt; Lubricaine; Lubricaine 5; Lumbar Puncture Tray 1%; Lumbar Puncture Tray 1% Pediatric/infant; Lydexa 4.12%; Lyracaine Gel; MAKESENSE First Aid; MAXIMUM STRENGTH HEMORRHOIDAL RELIEF with Finger Cots; MAXIMUM STRENGTH Lidocaine Plus Menthol; MAXOCAINE Lidocaine Hemp Oil Topical Analgesic; MAXOCAINE Topical Anesthetic; MAXOCAINE Topical Anesthetic Anorectal; MEDI-FIRST Topical Analgesic; MG217CoolingBurnSpray; MLK F1 Kit; MLK F3 Kit; MLK F4 Kit; MLK Kit F2; MTX Topical Pain; MaL; Male Genital Desensitizer Stud 100; Mamisan Pain Relieving; ManaMed Lidocaine 4% Pain Relieving Gel Patch; Mango Bay 0.5% Lidocaine Gel; Marbeta L Kit; Marlido 25 Kit; Marlido Kit; Max 4 Men - Max Control Male Sex Prolong Unscented; Maxilene 4; Maxilene 5; Maximum Stremgth Pain Relief Good Sense; Maximum Stremgth Pain Relieving DG Health; Maximum Strenght Lidocaine plus Menthol Pain Relief Patch; Maximum Strength Burn Relief Aloe Gel Scherer Labs; Maximum Strength Cold and Hot CVS; Maximum Strength Hemorrhoidal Relief; Maximum Strength Pain Relief Lidocaine Patch; Maximum strength Lidocaine Patch; Maximun Strength Lidocaine Patch Plus Menthol; Maxocaine Pain Relieving Roll-ON; Mcl; Md Science Cannabidiol; Md Science Cannabigerol; Med Numb; Medi-First Burn; Medi-First Burn with Lidocaine; Medi-First First Aid Burn Cream; Medi-First Plus Burn Cream; Medi-First Plus Burn with Lidocaine; Medi-Quik First Aid Antiseptic; Medi-derm / L With Lidocaine; Medi-derm / L With Lidocaine Rx; Medi-patch With Lidocaine; Medi-patch With Lidocaine Rx; Medi-quik First Aid Spray; Medi-quik First-aid Spray - Aer Top; Medi-sulting Topical Pain Relief; MediFirst Burn; MediNumb; MediRelief; Medicated Buccal DNA Collection Kit; Medicated Buccal DNA Collection Kit 2; Medicated DNA Collection Kit; Medicated Pain Relief Foot CVS; Medline; Medolor Pak Lidocaine and Prilocaine Cream Kit; Meijer Aloe Gel; Meijer Analgesic Lidocaine Topical Analgesic; Meijer Burn Relief; Meijer Burn Relief Aloe Vera Pain Relieving Gel; Meijer Cold and Hot Pain Relieving Analgesic; Meijer Lidocaine Pain Relief Back and Large Areas; Meijer Lidocaine Pain Relief Patch Assortment Large; Meijer Lidocaine Pain Relief Patch Assortment Medium; Meijer Lidocaine Pain Relief Patch Assortment Small; Meijer Maximum strength pain relieving cleansing; Meijer Odor Free Analgesic Pain Relieving Topical Analgesic; Meijer Pain Relief; Meijer Pain Relief Patches; Meijer Pain Relieving Max Strength with Lavender Essential Oil Analgesic; Mencaine; MenthoReal-10 Kit; Menthocin Patch with Lidocaine; Menthocin Patch with Lidocaine - Strong; Menthol, Lidocaine, Camphor; Mentholatum Lidocaine Heat; Mentholatum Lidocaine Ice; Mentholix; Mericaine; Miami Beach Burn Relief; Microcaine Topical Analgesic; Microvix L; Microvix LP; Minims Lidocaine and Fluorescein; Minnerva II; Mlc; Mld; Mlp A-1; Mlp A-2; Moxicaine kit; Mueller First Aid Antiseptic; Multi-Specialty Kit; Multi-lumen Central Venous Cathet Kit; MyDerm; Myelogram Tray 1%; NATURES CRAFT LIDOCAINE Male Genital Desensitizer; NORTH Antiseptic First Aid; NOpiod-TC; NOpioid-LMC; NOpioid-TC; NULIDO Lidocaine Patch Plus Menthol; NUMB PLUS Maximum Strength Anorectal; Na; Nanonumb; Natural Seal Itch Relief for Kids; Naturally HL Extra Strength Bedsore Numbing; Naturally HL Extra Strength Burn Numbing; Naturally HL Extra Strength Hand Care; Naturally HL Extra Strength Hemorrhoid Numbing; Naturally HL Extra Strength Insect Bite Numbing; Naturally HL Extra Strength Numbing; Natureplex Lidocaine 4%; Ndc 72934- 5010-4 Benzocaine 20% / Lidocaine 8% / Tetracaine 4%.; Neo-bex Injectable; Neolinn; Neptune Ice; Neptune Ice Patch; Nervive Pain Relieving Cream; Nervive Pain Relieving Liquid Roll-on; Neurcaine; NeuroMed 7 Topical Pain Relief; NeuroMed AR; NeuroMed Topical Anesthetic 7; Neutrogena Anti-itch Moisturizer; Niravi 24 Hours Lidocaine 4 % Patch; No-AD Aloe Vera Gel 98% Pure; No-AD Sunburn Relief Gel; Noble Art Numbing Cream with Lidocaine; North Burn Jel; North Burn Relief; Nothing; Nox-A-Sting; NuLido; NuNature First Aid Gel; Numb; Numb 100; Numb 520; Numb Gel Anesthetic; Numb Master; Numb Nuts; Numb Skin; Numb Soothe; Numb Zone; Numb520; Numbify Sanitize; Numbify Smooth; Numbify Tropical Gold; Numbify sanitize; Numbing Cream; Numbing Hemorrhoidal Label; Numbing Label; Numbing Max Strength; Numbs Up; Numbskin; Numpot Topical Anesthetic; Numquick Analgesic; Numquick Topical Analgesic; Numstick; Nuvakaan; Nuvakaan II; OKeeffes Healthy Feet; OKeeffes Healthy Feet Pain Relief Cream; Ocean Breeze Pain Relief; Ocean Potion Instant Burn Relief Ice; Octocaine 100; Octocaine 100 Needleject Inj; Octocaine 50; Octocaine HCl 2% Epinephrine 1:100000; Octocaine HCl 2% Epinephrine 1:50000; Odorless Analgesic Roll-on Meijer; Odynia-R Regular; Odynia-U; Odynia-UUltra Patch Ultra Patch; Omeza Lavage; Omeza Licodaine Pain and Itch Relief Oil; Omeza Lidocaine Lavage; Omnitrenidol; Oraqix; Ori-power; Otizol HC Liq; Ozonol Antibiotic Plus - Ointment; Ozonol Antibiotic Plus Ont; Ozonol Antibiotics Plus; P-Care 100MX; P-Care D40MX; P-Care D80MX; P-Care K40MX; P-Care K80MX; P-Care X; PAIN RELIEF Gel-Patch; PAIN RELIEF Gel-Roll On; PM External; PMS-lidocaine Viscous 2%; POWERECT Lidocaine Male Delay; POWERECT Max Power Male Delay; PRILOVIX Lite; PRILOVIX Lite Plus; PRILOVIX Plus; PRILOVIX UltraLite; PRILOVIX Ultralite Plus; PRILOVIXIL Plus; Pacing Catheter Introducer Kit Acp-001px; Pain Gel; Pain Prescriptives 4; Pain Prescriptives 5; Pain Relief; Pain Relief 4% Lidocaine; Pain Relief 4% Lidocaine Dry Patch; Pain Relief Body Audacious Wreck Relief; Pain Relief CVS; Pain Relief Cream; Pain Relief Equate; Pain Relief Gel-Patch; Pain Relief Lidocaine; Pain Relief Max Strength; Pain Relief Patch; Pain Relief Patches; Pain Relief Rite Aid; Pain Relief Roll On Evora Labs; Pain Relief Roll-on; Pain Relief Roll-on Good Sense; Pain Relief Roll-on Rite Aid; Pain Relief Signature Care; Pain Relief Well at Walgreens; Pain Relieving; Pain Relieving Burn Gel; Pain Relieving Cleansing; Pain Relieving Cleansing Spray; Pain Relieving Gel-Patch; Pain Relieving Lidocaine Patch; Pain Relieving Well at walgreens; Pain and Itch Relief 4% Lidocaine; Pain free IV; PainBloc24 Flexi-Stretch Pain Tape; PainGo KFT; PainPatrol CBD Pain Relief with Lidocaine; Panama Jack Burn Relief Gel; Panama Jack Burn Relief Gel with Lidocaine; Pantin; Paracentesis Tray W Boasberg Catheter Set; Paraid Burn; Parche de Leon; Pentican; Percutaneous Sheath Introducer Kit Hl-09883; Percutaneous Sheath Introducer Tray; Performance Brands Steel Releaf Pain Relieving Liquid; Permavan External Patch; Pharmacist Choice Pain Relief Patch; Pharmacist Choice TSX Transdermal Patch; PharmapureRx Lidocaine HCl 4.12%; PharmapureRx Menthotral; Pharmassist Soothenel Gel; Phenyl-Lido; Physician EZ Use Joint Tunnel and Trigger Kit; Physician EZ Use Joint Tunnel and Trigger Kit II; Physician Force Maximum Strength Pain Relief; Planticin Advanced Topical Pain Relief; Pleura-seal Thoracentesis Kit; Pliaglis; Plum Smooth Plumb Numb Gelee; Plush anesthetics L; Point Of Care L2; Point Of Care L5; Point Of Care LM DEP 2; Point Relief LidoSpot; Point Relief LidoSpot with Menthol; Point relief Lidospot; Poly-Prep; Polyderm Antibiotic Ointment; Polysporin Antibiotic Burn Cream; Polysporin Burn Formula Cream; Polysporin Cold Sore Ointment; Polysporin Complete; Polysporin Plus Pain Relief; Polysporin Plus Pain Relief Ear Drops; Polysporin for Kids; Polysporin for Stitches; Pomoda Dragon Pain Numbing; Pre-wax Pain Relief; Pre-wax Spray; Preattached Lta Kit; Precaine; Precision Pain Relief Audacious Wreck Relief; Predator; Preginot; Prelidopine Pre-Operative System; Premier Value Pain Relief Patches; Premium HEMP Pain Relief; Premium Lidocaine; Premium Lidocaine 5% Extra; Premium Scar Patch; Premjact; Premjact Male Desensitizer Pound International; Preparation H Rapid Relief; Prikaan; Prikaan Lite; Prilo Patch; Prilo Patch-II; Priloheal Plus 30; Prilolid; Prilopentin; Prilopentin -II; Prilovix; Prilovixil; Priloxx LP External Kit; Prizopak II; Prizotral; Prizotral II; Pro Plus; Pro-C-Dure 1 Kit; Pro-C-Dure 2 Kit; Pro-C-Dure 3 Kit; Pro-C-Dure 4 Kit; ProCoMycin; ProStat Blood Clotting First Aid; Procicept L Lidocaine 4%; Professional Medicated DNA Collection; Prolayed; Prolayed Lidocaine Male Genital Desensitizer; Prolida; ProloGel Urgent Care; Promescent; Proplex Lidocaine; Provenza; Publix Burn Relief; Publix Burn Relief ALOE VERA; Pure CBD Hydrogel XL With Lidocaine 4%; Pure-Aid; Puroxcin; QC Burn Relief Aloe; QC Cool and Heat Roll-On; QC Lidocaine Maximum Strength; QKit Procedure Tray; Quality Choice Pain Relief Patches; Quick Numb; RECOVERY Numbing; RITE AID Maximum strength pain relieving; RR Roll-On for Pain; RX300 Topical Pain Cream Pain Cream; Racestyptine Cord; RadX; RadiaGuard Advanced Radiation Relief; Radiaura Skin Recovery; Rapid Pain-relief Topical; Re-Lieved 4% Lidocaine Fabric Tape; Re-Lieved Lidocaine Patch; ReCellTis; ReCellTis Wound Cream; Ready America First Aid Outdoor- 107 Pieces; ReadySharp Anesthetics plus Betamethasone; ReadySharp Anesthetics plus Dexamethasone; ReadySharp Anesthetics plus Ketorolac; ReadySharp Anesthetics plus MethylPrednisolone 80; ReadySharp Lidocaine; ReadySharp-A; ReadySharp-K; ReadySharp-P40; ReadySharp-P80; Realheal-I; Reciphexamine; Recovery Numb; RectaEase Hemorrhoid Relief Cream; RectaGel HC; RectaSmoothe; Rectal Care Cream Revivol; RectiCare Complete; Recticare; Recticare Advanced; Rediburn Burn Gel Skin Protectant; Redicare Burn Gel; Refill 3; Reg; Regenecare Ha; Regenecare Hydrogel; Relador Pak Plus; Relador Pak with Occlusive Dressing; Releevia LM Patch; Relief Gel; Relieve Cream with Lidocaine; RelivBliss; Relyyks; Rematex; Remaxazon External Patch; Renovo Lido5; Renuu Patch; Res-Q Analgesic Topical Pain Relief; Res-Q Analgesic Topical Pain Relief Spray; Res-Q Topical Analgesic Soothing; Res-Q Topical Analgesic Soothing Gel; Restore Lidocaine Pain Relief Cream; Restoriden Lidocaine Cream; Ricora; Rite Aid; Rite Aid Burn Relief; Rite Aid Hot and Cold Pain Relief Pain Relieving; Rite Aid Lidocaine Roll on; Rite Aid Pain Relief Cream; Rite Aid Pain Relief Cream with Lidocaine; Rite Aid Rectal Care; Rite aid Pain Relief Cream Lidocaine 4%; Ritual Tattoo; Ritual Tattoo Reveal Foam; Roll-On Pain; Roosin Burn; Rugby Lidocaine; Rugby PAIN RELIEF PATCHES; SCLERA CARE Topical Anesthetic Gel; SECONDARY NUMB Lidocaine Phenylephrine Gel; SHINGBASE Topical Analgesic; SIMPLY VITAL HEMORRHOID and ANORECTAL RELIEF; SKINS DELAY Climax Control Lidocaine; SKINS DELAY Maximum Strength Lidocaine; SUGAR BRANDS Rescue Pain Relief and Recovery; SWISS NAVY Endurance Rx; SYREN Intimate Relief Topical Pain Relief; Safetec Burn Gel; Safetec Burn Spray; Safetec Sting Relief; Salonpas LIDOCAINE PLUS; Salonpas LIDOCAINE Pain Relieving; Salonpas Pain Relieving Cream; Salonpas Pain Relieving LIDOCAINE 4% FLEX; Salonpas Pain Relieving Solution; Sanoba; Satohap Lidocaine 4% Menthol 1% Pain Relieving Cream; Satohap Lidocaine 4% Pain Relieving Pad; Satohap Lidocaine Hydrochloride 4 Percent Pain Relieving; Scadexe; Scalpanumb; Scar Patch; Scar Zone Burn Extra Strength Burn Relief Topical Analgesic and Antiseptic; Scar Zone Burn Gel; Scar Zone Burn Topical Analgesic and Antiseptic; ScleraCare Lidocaine HCL; Sea and Ski Coolest Burn Relief; Select Brand Burn Relief; Senstend; Sera Relief Ultimate Rapid Soothing Creme; Serum X; Shave Zone; Sheffield Lidocaine; Signature Care Aloe Vera Gel with Lidocaine; Signature Care Lidocaine Cream; Silvera Pain Relief Patch; Simplicity Desensitizing; Simply Numb Endure; Single-shot Epidural Anesthesia Tray; Sinsinpas Lidocaine Pain Relieving; Siterol; Sj3; Skin Envy Soothing Cream; Skin Soothing Aid; Skullduggery Pain Relief and Skin Protection for Tattoos; Sky Wellness Max Pain Relief; SkyaDerm-LP; Skyn Endurance Delay For Men; Small Cuts and Burns; SmartRx Gaba Kit; Smartshield After Sun; Solarcaine; Solarcaine First Aid Lidocaine Spray; Solarcaine Medicated First Aid Lotion; Solarcaine Medicated Lidocaine Gel; Solarcaine cool aloe; Sole Serum; Solmara; Solmate Burn Relief Gel; Sonacaine Topical Anesthetic With Menthol; Soothee Patch; Soothing Gel With Lidocaine; Sore Relief; Sore relief; Soulus Rp Rash and Pain; Soundbody; Spinal Anaesthesia Tray; Spinal Anesthesia Tray; Spinal Anesthesia Tray 1%; Sportcaine Patch; Stag 9000 DelaySpray for men; Stallion; Stama Pro; Standard ANSI First Aid; StaphAseptic; Steady Freddy; Sting Master; Sting Relief; Sting Relief Pad; Stud 100; Sun Burn Relief Cream; Sun basics Burn Relief Gel with Lidocaine; SunBurnt PLUS; SunBurnt PLUS Pain Relief; Sunburn Pain Reliever CVS; Sunburn Pain Reliever Well at Walgreens; Sunburn Pain relief; Sunburn Relief; Sunburn Relief Gel; Sunmed Motion; Suntone After Sun Burn Relief Gel with Lidocaine; Super Magic Man Premium Gold; Super T; Super-Stop BloodClotter; Superior Pain and Itch Relief; Superior pain and itch relief; Swabplus Piercing Care Swabs; Swift River Pain Relief; Swiss Navy Endurance Rx Pro; Swiss Navy EnduranceRx; Sx1 Medicated Post-Operative System; Synera; SynoFlex Patch; Synvexia; Synvexia TC; Syren Intimate Pain Relief; THERA CARE 24hrs Lidocaine Patch; TLC Plus Anesthetic G; TLC Plus Anesthetic S; Target Up and Up After Sun Cooling; Tattoo Numbing Cream; Tecnu First Aid; Terocin; Terrasil Cold Sore Treatment Max; Terrasil Itch, Rash and Pain Relief; Terrasil Itch, Rash and Pain Relief MAX; Terrasil Rash and Pain Relief; Tetrakam; The Davinci Company; The Solution; The Solution Anorectal Spray Temporary Pain Relief; Thera Care Pain Therapy; TheraCare 4% Lidocaine Cream; TheraCare 4% Lidocaine and 1% Menthol Cream; TheraCare Maximum Strength Pain Relief Patch; TheraCare Pain Relief Lidocaine; Thoracentesis Tray 1%; Tidl Pain Relief Massaging Roll-ON; Tidl Pain Relief Numbing Tidl; Tiger delayspray; Top Safety First Aid Burn Cream; TopCare Cold and Hot Pain Relieving Analgesic; TopCare Everyday After Sun Cooling; TopCare Pain Relief Maximum Strength; TopCare Pain Relief Patch; TopCare Pain Relieving Analgesic; Topcare Pain Relief Patches; Topicaine; Topicaine 5; Topical Anesthetic Anorectal Cream Numb and Number; Topical Pain Relief; Toplast Pain Relief Lidocaine 4percent; Toplast Pain Relief Lidocaine 4percent plus Menthol 1percent; Totally Fun After Sun; Tough Love Pain Relieving; Tpr20; Transderm Iq; Transderm-IQ; Transderm-iQ; Tranzarel; TriXylitral; Tribioticlc Lc Lc; Triceptin; Triderma Pain Relief; Triple Antibiotic; Truu Balance Pain Relief; Tucks Multi-Care Relief Kit (Tucks Hemorrhoidal and Tucks Medicated Cooling 40 Count); Uber Numb; Uber Numb Topical Anesthetic; Ultimate Lidocaine Pain Relief Patch; Unburn; Unburn-gel 2.5%; Up and Up Lidocaine Pain Relief; Up and Up Pain Relieving Cleansing; VIVA Patch; VacuStim Black; VacuStim Silver; VallaDerm-90; Vallement Flex; Vasocaine; Velma Pain Relief Patch; Veltrix; Venia Patch Premium Pain Patch; Venipuncture CPI; Venipuncture Px1; Vexa; Viadur; Vonaflex; WAXUP Numbing; WPR Plus; Walg Aftrsn Burn Relief; Walgreen Maximum strength pain relieving cleansing; Walgreen Pain Relieving Fragrance Free; Walgreens; Walgreens 24-Hour Lidocaine Patch; Walgreens Aloe Vera Burn Relief Pain Relieving; Walgreens Aloe Vera Pain Relieving; Walgreens Anorectal Lidocaine Cream; Walgreens Burn; Walgreens Burn relief; Walgreens Cool N Heat Dry; Walgreens Cool n heat; Walgreens Cooling; Walgreens First Aid Antiseptic; Walgreens PAIN RELIEVING; Walgreens Pain Relieving Cream; Walgreens Sunburn Relief; Walgreens pain relieving; Warrior Burn Relief Aloe Maximum Strength; Warrior Pain Relief Roll-On Maximum Strength; Water-jel Burn Jel-2%; Watkins Burn Cream; Welly Superhero Supplies Kit; Welmate Lidocaine Pain Relieving Patch; Western Family Aloe Vera Moisturizing; Will Relieve; Will Relieve Roll-On; Workvie; Workvie Roll On; Wound Debridement Kit; Wound and Burn Care Refill Pack; X3 On The Go First Aid Bite Relief Spray; X3 On The Go First Aid Burn Relief Spray; X3 On-the-GO First Aid Burn Relief Spray; XYLOCAIN (LIDOCAINE HCl ); XYLOCAINE- MPF (LIDOCAINE HCl ); XeroBurn Burn Gel; Xesso Rear Comfort Glide; Xesso Strawberry Rear Comfort Glide 4% Lidocaine; Xolido; Xpacaine; Xpect Burn Care; Xpect First Aid Cream; Xryliderm; Xylocaine; Xylocaine - Mpf 5% With Glucose 7.5%; Xylocaine -MPF; Xylocaine 0.5%; Xylocaine 0.5% W Epinephrine 1:100000; Xylocaine 0.5% W Epinephrine 1:200000; Xylocaine 1%; Xylocaine 1% W Epinephrine 1:100000; Xylocaine 1% W Epinephrine 1:200000; Xylocaine 1.5%; Xylocaine 1.5% W Epinephrine 1:200000; Xylocaine 1.5% W Epinephrine 1:200000 Test Dose; Xylocaine 2%; Xylocaine 2% Epidural; Xylocaine 2% W Epinephrine 1:100000; Xylocaine 2% W Epinephrine 1:200000; Xylocaine 2% With Epinephrine 1:200000; Xylocaine 5% Spinal; Xylocaine Co2 Inj; Xylocaine Dental Lidocaine HCl 2% and Epinephrine 1:100,000; Xylocaine Dental Lidocaine Hydrochloride 2% and Epinephrine 1:50,000; Xylocaine Jelly 2%; Xylocaine MPF; Xylocaine Mpf; Xylocaine Mpf 1%; Xylocaine Mpf 1.5% With Epinephrine; Xylocaine Ointment 5%; Xylocaine Oral Spray; Xylocaine Spray; Xylocaine Topical 4%; Xylocaine Topical 5%; Xylocaine Viscous 2%; Xylocaine with epinephrine; Xylocaine(r) -mpf (lidocaine Hci and Epinephrine); Xylocaine-mpf With Epi; Xylocaine-mpf, 2%; Xylocard; Xylocard One Gm Additive Unit 20% Inj; Xylonor; Xylonor Gel; Xylonor Spray; Xyralid; Your Label Here Blood Clotting First Aid; Your Logo Here Antiseptic First Aid; Yowch Extra Strength for minor burns; Yowch extra strength for insect bites and stings; Yowch for insect bites and stings by Pain Balm; Yowch for minor burns by Pain Balm; Zcaine; Zcaine Fast Acting Anesthetic; Zee Blood Clotting Antiseptic; Zee Burn Relief; Zee First Aid Cream; Zensa; Zeruvia; Zeyocaine; Zilacaine Patch; Zilactin-L; Zilactin-L Early Relief Cold Sore Liquid; ZiloVal 5%; Zims Lido Freeze; Zims Max Freeze; Zingo; Zionodil 100; Zionodil 50; Zionodil External; Zone 1; Zone 2; Zovacil 5; Ztlido; Zylotrol; Zylotrol Maximum Pain; Zylotrol Maximum Pain Patch; Zylotrol Pain Relieving; Zylotrol Plus; Zylotrol-L; Zyvodol; biochemistry PAIN RELIEF FOOT ACTIVE; curacaine Transdermal Corporation; eLenza Patch; lidoForte Hemorrhoidal; miaderm-L radiation relief

> <INTERNATIONAL_BRANDS>
After Burn Double Strength Gel; After Burn Double Strength Spray; After Burn Gel; After Burn Spray; Alphacaine; Anestacon Jelly; DermaFlex; Dilocaine; Esracaine; L-Caine; Lidoject-1; Lidoject-2; LidoPain SP; Norwood Sunburn Spray; Xilocaina; Xylocaine

> <SALTS>
Lidocaine hydrochloride; Lidocaine hydrochloride anhydrous

$$$$
