
  Mrv1909 05201914352D          

 39 40  0  0  1  0            999 V2000
  -18.6050   -5.0662    0.0000 C   0  0  0  0  0  0  0  0  0  0  0  0
  -17.8906   -5.4787    0.0000 C   0  0  0  0  0  0  0  0  0  0  0  0
  -17.1761   -5.0662    0.0000 C   0  0  0  0  0  0  0  0  0  0  0  0
  -16.4616   -5.4787    0.0000 C   0  0  0  0  0  0  0  0  0  0  0  0
  -15.7471   -5.0662    0.0000 C   0  0  0  0  0  0  0  0  0  0  0  0
  -15.0327   -5.4787    0.0000 C   0  0  0  0  0  0  0  0  0  0  0  0
  -14.3182   -5.0662    0.0000 C   0  0  0  0  0  0  0  0  0  0  0  0
  -13.6037   -5.4787    0.0000 C   0  0  0  0  0  0  0  0  0  0  0  0
  -12.8893   -5.0662    0.0000 C   0  0  0  0  0  0  0  0  0  0  0  0
  -12.1748   -5.4787    0.0000 C   0  0  0  0  0  0  0  0  0  0  0  0
  -11.4603   -5.0662    0.0000 C   0  0  0  0  0  0  0  0  0  0  0  0
  -10.7458   -5.4787    0.0000 C   0  0  0  0  0  0  0  0  0  0  0  0
  -10.0314   -5.0662    0.0000 C   0  0  0  0  0  0  0  0  0  0  0  0
   -9.3169   -5.4787    0.0000 C   0  0  0  0  0  0  0  0  0  0  0  0
   -8.6024   -5.0662    0.0000 C   0  0  0  0  0  0  0  0  0  0  0  0
   -7.8880   -5.4787    0.0000 C   0  0  0  0  0  0  0  0  0  0  0  0
   -7.1735   -5.0662    0.0000 O   0  0  0  0  0  0  0  0  0  0  0  0
   -6.4590   -5.4787    0.0000 C   0  0  0  0  0  0  0  0  0  0  0  0
   -5.7446   -5.0662    0.0000 C   0  0  0  0  0  0  0  0  0  0  0  0
   -5.0301   -5.4787    0.0000 C   0  0  0  0  0  0  0  0  0  0  0  0
   -4.3156   -5.0662    0.0000 O   0  0  0  0  0  0  0  0  0  0  0  0
   -3.6011   -5.4787    0.0000 P   0  0  0  0  0  0  0  0  0  0  0  0
   -4.0136   -6.1932    0.0000 O   0  0  0  0  0  0  0  0  0  0  0  0
   -3.1886   -4.7642    0.0000 O   0  0  0  0  0  0  0  0  0  0  0  0
   -2.8867   -5.8912    0.0000 C   0  0  0  0  0  0  0  0  0  0  0  0
   -2.1722   -5.4787    0.0000 O   0  0  0  0  0  0  0  0  0  0  0  0
   -1.4577   -5.8912    0.0000 C   0  0  2  0  0  0  0  0  0  0  0  0
   -1.4577   -6.7162    0.0000 C   0  0  0  0  0  0  0  0  0  0  0  0
   -0.7433   -5.4787    0.0000 C   0  0  0  0  0  0  0  0  0  0  0  0
   -0.0288   -5.8912    0.0000 N   0  0  0  0  0  0  0  0  0  0  0  0
    0.0575   -6.7117    0.0000 C   0  0  0  0  0  0  0  0  0  0  0  0
    0.8644   -6.8832    0.0000 N   0  0  0  0  0  0  0  0  0  0  0  0
    1.2769   -6.1688    0.0000 C   0  0  0  0  0  0  0  0  0  0  0  0
    0.7249   -5.5557    0.0000 C   0  0  0  0  0  0  0  0  0  0  0  0
    0.9798   -4.7710    0.0000 N   0  0  0  0  0  0  0  0  0  0  0  0
    1.7868   -4.5995    0.0000 C   0  0  0  0  0  0  0  0  0  0  0  0
    2.3388   -5.2126    0.0000 N   0  0  0  0  0  0  0  0  0  0  0  0
    2.0839   -5.9972    0.0000 C   0  0  0  0  0  0  0  0  0  0  0  0
    2.6359   -6.6103    0.0000 N   0  0  0  0  0  0  0  0  0  0  0  0
  1  2  1  0  0  0  0
  2  3  1  0  0  0  0
  3  4  1  0  0  0  0
  4  5  1  0  0  0  0
  5  6  1  0  0  0  0
  6  7  1  0  0  0  0
  7  8  1  0  0  0  0
  8  9  1  0  0  0  0
  9 10  1  0  0  0  0
 10 11  1  0  0  0  0
 11 12  1  0  0  0  0
 12 13  1  0  0  0  0
 13 14  1  0  0  0  0
 14 15  1  0  0  0  0
 15 16  1  0  0  0  0
 16 17  1  0  0  0  0
 17 18  1  0  0  0  0
 18 19  1  0  0  0  0
 19 20  1  0  0  0  0
 20 21  1  0  0  0  0
 21 22  1  0  0  0  0
 22 23  1  0  0  0  0
 22 24  2  0  0  0  0
 22 25  1  0  0  0  0
 25 26  1  0  0  0  0
 27 26  1  0  0  0  0
 27 28  1  1  0  0  0
 27 29  1  0  0  0  0
 29 30  1  0  0  0  0
 30 31  1  0  0  0  0
 31 32  2  0  0  0  0
 32 33  1  0  0  0  0
 33 34  2  0  0  0  0
 30 34  1  0  0  0  0
 34 35  1  0  0  0  0
 35 36  2  0  0  0  0
 36 37  1  0  0  0  0
 37 38  2  0  0  0  0
 33 38  1  0  0  0  0
 38 39  1  0  0  0  0
M  END
> <DATABASE_ID>
DB14925

> <DATABASE_NAME>
drugbank

> <SMILES>
CCCCCCCCCCCCCCCCOCCCOP(O)(=O)CO[C@H](C)CN1C=NC2=C1N=CN=C2N

> <INCHI_IDENTIFIER>
InChI=1S/C28H52N5O5P/c1-3-4-5-6-7-8-9-10-11-12-13-14-15-16-18-36-19-17-20-38-39(34,35)24-37-25(2)21-33-23-32-26-27(29)30-22-31-28(26)33/h22-23,25H,3-21,24H2,1-2H3,(H,34,35)(H2,29,30,31)/t25-/m1/s1

> <INCHI_KEY>
SCTJKHUUZLXJIP-RUZDIDTESA-N

> <FORMULA>
C28H52N5O5P

> <MOLECULAR_WEIGHT>
569.728

> <EXACT_MASS>
569.370606792

> <JCHEM_ACCEPTOR_COUNT>
8

> <JCHEM_ATOM_COUNT>
91

> <JCHEM_AVERAGE_POLARIZABILITY>
66.60631812364961

> <JCHEM_BIOAVAILABILITY>
0

> <JCHEM_DONOR_COUNT>
2

> <JCHEM_FORMAL_CHARGE>
0

> <JCHEM_GHOSE_FILTER>
0

> <JCHEM_IUPAC>
({[(2R)-1-(6-amino-9H-purin-9-yl)propan-2-yl]oxy}methyl)[3-(hexadecyloxy)propoxy]phosphinic acid

> <ALOGPS_LOGP>
5.60

> <JCHEM_LOGP>
3.4033128886654525

> <ALOGPS_LOGS>
-5.55

> <JCHEM_MDDR_LIKE_RULE>
0

> <JCHEM_NUMBER_OF_RINGS>
2

> <JCHEM_PHYSIOLOGICAL_CHARGE>
-1

> <JCHEM_PKA>
18.546079739756784

> <JCHEM_PKA_STRONGEST_ACIDIC>
1.3990428910138204

> <JCHEM_PKA_STRONGEST_BASIC>
3.7454869214874593

> <JCHEM_POLAR_SURFACE_AREA>
134.60999999999999

> <JCHEM_REFRACTIVITY>
157.0118

> <JCHEM_ROTATABLE_BOND_COUNT>
25

> <JCHEM_RULE_OF_FIVE>
0

> <ALOGPS_SOLUBILITY>
1.60e-03 g/l

> <JCHEM_TRADITIONAL_IUPAC>
(2R)-14-fluoro-2-methyl-6,9,10,19-tetraazapentacyclo[14.2.1.0^{2,6}.0^{8,18}.0^{12,17}]nonadeca-1(18),8,12(17),13,15-pentaen-11-one

> <JCHEM_VEBER_RULE>
0

> <DRUGBANK_ID>
DB14925

> <DRUG_GROUPS>
investigational

> <GENERIC_NAME>
Tenofovir exalidex

> <SYNONYMS>
Tenofovir exalidex

$$$$
