
  Mrv1909 05201915292D          

 18 19  0  0  1  0            999 V2000
    0.0000   -0.0000    0.0000 O   0  0  0  0  0  0  0  0  0  0  0  0
    0.7145   -0.4125    0.0000 C   0  0  0  0  0  0  0  0  0  0  0  0
    0.7145   -1.2375    0.0000 C   0  0  1  0  0  0  0  0  0  0  0  0
    1.3819   -1.7224    0.0000 O   0  0  0  0  0  0  0  0  0  0  0  0
    1.1270   -2.5070    0.0000 C   0  0  2  0  0  0  0  0  0  0  0  0
    0.3020   -2.5070    0.0000 C   0  0  1  0  0  0  0  0  0  0  0  0
   -0.1830   -3.1745    0.0000 F   0  0  0  0  0  0  0  0  0  0  0  0
    0.0470   -1.7224    0.0000 C   0  0  2  0  0  0  0  0  0  0  0  0
   -0.7376   -1.4675    0.0000 O   0  0  0  0  0  0  0  0  0  0  0  0
    1.6119   -3.1745    0.0000 N   0  0  0  0  0  0  0  0  0  0  0  0
    2.4324   -3.0882    0.0000 C   0  0  0  0  0  0  0  0  0  0  0  0
    2.9173   -3.7557    0.0000 C   0  0  0  0  0  0  0  0  0  0  0  0
    3.7378   -3.6695    0.0000 I   0  0  0  0  0  0  0  0  0  0  0  0
    2.5817   -4.5094    0.0000 C   0  0  0  0  0  0  0  0  0  0  0  0
    3.0667   -5.1768    0.0000 O   0  0  0  0  0  0  0  0  0  0  0  0
    1.7613   -4.5956    0.0000 N   0  0  0  0  0  0  0  0  0  0  0  0
    1.2763   -3.9282    0.0000 C   0  0  0  0  0  0  0  0  0  0  0  0
    0.4559   -4.0144    0.0000 O   0  0  0  0  0  0  0  0  0  0  0  0
  1  2  1  0  0  0  0
  3  2  1  1  0  0  0
  3  4  1  0  0  0  0
  5  4  1  0  0  0  0
  6  5  1  0  0  0  0
  6  7  1  1  0  0  0
  6  8  1  0  0  0  0
  8  3  1  0  0  0  0
  8  9  1  6  0  0  0
  5 10  1  1  0  0  0
 10 11  1  0  0  0  0
 11 12  2  0  0  0  0
 12 13  1  0  0  0  0
 12 14  1  0  0  0  0
 14 15  2  0  0  0  0
 14 16  1  0  0  0  0
 16 17  1  0  0  0  0
 10 17  1  0  0  0  0
 17 18  2  0  0  0  0
M  END
> <DATABASE_ID>
DB15427

> <DATABASE_NAME>
drugbank

> <SMILES>
OC[C@H]1O[C@H]([C@@H](F)[C@@H]1O)N1C=C(I)C(=O)NC1=O

> <INCHI_IDENTIFIER>
InChI=1S/C9H10FIN2O5/c10-5-6(15)4(2-14)18-8(5)13-1-3(11)7(16)12-9(13)17/h1,4-6,8,14-15H,2H2,(H,12,16,17)/t4-,5+,6-,8-/m1/s1

> <INCHI_KEY>
IPVFGAYTKQKGBM-BYPJNBLXSA-N

> <FORMULA>
C9H10FIN2O5

> <MOLECULAR_WEIGHT>
372.091

> <EXACT_MASS>
371.96184

> <JCHEM_ACCEPTOR_COUNT>
5

> <JCHEM_ATOM_COUNT>
28

> <JCHEM_AVERAGE_POLARIZABILITY>
26.398252660030423

> <JCHEM_BIOAVAILABILITY>
1

> <JCHEM_DONOR_COUNT>
3

> <JCHEM_FORMAL_CHARGE>
0

> <JCHEM_GHOSE_FILTER>
0

> <JCHEM_IUPAC>
1-[(2R,3S,4R,5R)-3-fluoro-4-hydroxy-5-(hydroxymethyl)oxolan-2-yl]-5-iodo-1,2,3,4-tetrahydropyrimidine-2,4-dione

> <ALOGPS_LOGP>
0.07

> <JCHEM_LOGP>
-0.5384649156666664

> <ALOGPS_LOGS>
-1.21

> <JCHEM_MDDR_LIKE_RULE>
0

> <JCHEM_NUMBER_OF_RINGS>
2

> <JCHEM_PHYSIOLOGICAL_CHARGE>
0

> <JCHEM_PKA>
12.735978192635589

> <JCHEM_PKA_STRONGEST_ACIDIC>
8.501130167294397

> <JCHEM_PKA_STRONGEST_BASIC>
-2.980544038533232

> <JCHEM_POLAR_SURFACE_AREA>
99.1

> <JCHEM_REFRACTIVITY>
64.2225

> <JCHEM_ROTATABLE_BOND_COUNT>
2

> <JCHEM_RULE_OF_FIVE>
1

> <ALOGPS_SOLUBILITY>
2.31e+01 g/l

> <JCHEM_TRADITIONAL_IUPAC>
(2R)-14-fluoro-2-methyl-6,9,10,19-tetraazapentacyclo[14.2.1.0^{2,6}.0^{8,18}.0^{12,17}]nonadeca-1(18),8,12(17),13,15-pentaen-11-one

> <JCHEM_VEBER_RULE>
0

> <DRUGBANK_ID>
DB15427

> <DRUG_GROUPS>
investigational

> <GENERIC_NAME>
Fialuridine

> <SYNONYMS>
Fialuridine

$$$$
