
  Mrv1909 02102018422D          

 48 53  0  0  0  0            999 V2000
    2.0726   -0.2081    0.0000 C   0  0  0  0  0  0  0  0  0  0  0  0
    1.9422   -1.0206    0.0000 C   0  0  0  0  0  0  0  0  0  0  0  0
    2.5797   -1.5377    0.0000 C   0  0  0  0  0  0  0  0  0  0  0  0
    3.3479   -1.2437    0.0000 C   0  0  0  0  0  0  0  0  0  0  0  0
    3.4750   -0.4275    0.0000 C   0  0  0  0  0  0  0  0  0  0  0  0
    2.8361    0.0860    0.0000 C   0  0  0  0  0  0  0  0  0  0  0  0
    3.6190    2.3876    0.0000 C   0  0  1  0  0  0  0  0  0  0  0  0
    3.6190    1.5618    0.0000 C   0  0  0  0  0  0  0  0  0  0  0  0
    4.3277    2.8047    0.0000 C   0  0  0  0  0  0  0  0  0  0  0  0
   -2.1830   -0.9200    0.0000 N   0  0  0  0  0  0  0  0  0  0  0  0
   -1.4697   -1.3330    0.0000 C   0  0  0  0  0  0  0  0  0  0  0  0
   -0.7594   -0.9239    0.0000 C   0  0  2  0  0  0  0  0  0  0  0  0
   -0.7561   -0.1004    0.0000 N   0  0  0  0  0  0  0  0  0  0  0  0
   -1.4694    0.3124    0.0000 C   0  0  0  0  0  0  0  0  0  0  0  0
   -2.1860   -0.0981    0.0000 C   0  0  0  0  0  0  0  0  0  0  0  0
   -3.6060   -0.9262    0.0000 C   0  0  0  0  0  0  0  0  0  0  0  0
   -3.6035   -0.1004    0.0000 C   0  0  0  0  0  0  0  0  0  0  0  0
   -5.0292   -0.0962    0.0000 C   0  0  0  0  0  0  0  0  0  0  0  0
   -5.0315   -0.9220    0.0000 C   0  0  0  0  0  0  0  0  0  0  0  0
   -4.3159   -1.3413    0.0000 O   0  0  0  0  0  0  0  0  0  0  0  0
   -6.4685   -0.9081    0.0000 C   0  0  0  0  0  0  0  0  0  0  0  0
   -5.7559   -1.3305    0.0000 C   0  0  0  0  0  0  0  0  0  0  0  0
   -5.7448    0.3237    0.0000 C   0  0  0  0  0  0  0  0  0  0  0  0
   -6.4618   -0.0845    0.0000 C   0  0  0  0  0  0  0  0  0  0  0  0
   -2.8963   -1.3371    0.0000 C   0  0  0  0  0  0  0  0  0  0  0  0
   -0.4506   -1.6837    0.0000 C   0  0  0  0  0  0  0  0  0  0  0  0
   -0.0431    0.3187    0.0000 C   0  0  0  0  0  0  0  0  0  0  0  0
    0.3685   -1.7918    0.0000 N   0  0  0  0  0  0  0  0  0  0  0  0
   -0.9605   -2.3334    0.0000 O   0  0  0  0  0  0  0  0  0  0  0  0
    0.0069    1.1362    0.0000 C   0  0  1  0  0  0  0  0  0  0  0  0
   -0.7106    1.5493    0.0000 O   0  0  0  0  0  0  0  0  0  0  0  0
    0.7200    1.5534    0.0000 C   0  0  0  0  0  0  0  0  0  0  0  0
    1.4333    1.1405    0.0000 C   0  0  2  0  0  0  0  0  0  0  0  0
    2.1466    1.5575    0.0000 C   0  0  0  0  0  0  0  0  0  0  0  0
    2.8599    1.1446    0.0000 N   0  0  0  0  0  0  0  0  0  0  0  0
    2.1424    2.3835    0.0000 O   0  0  0  0  0  0  0  0  0  0  0  0
    5.0446    2.3876    0.0000 C   0  0  0  0  0  0  0  0  0  0  0  0
    5.0430    1.5636    0.0000 C   0  0  0  0  0  0  0  0  0  0  0  0
    5.7548    1.1519    0.0000 C   0  0  0  0  0  0  0  0  0  0  0  0
    6.4685    1.5633    0.0000 C   0  0  0  0  0  0  0  0  0  0  0  0
    6.4662    2.3904    0.0000 C   0  0  0  0  0  0  0  0  0  0  0  0
    5.7539    2.7984    0.0000 C   0  0  0  0  0  0  0  0  0  0  0  0
    3.2019    3.1051    0.0000 O   0  0  0  0  0  0  0  0  0  0  0  0
    1.4292    0.3146    0.0000 C   0  0  0  0  0  0  0  0  0  0  0  0
    0.8673   -2.4485    0.0000 C   0  0  0  0  0  0  0  0  0  0  0  0
    1.6302   -2.1326    0.0000 C   0  0  0  0  0  0  0  0  0  0  0  0
    0.2073   -2.9446    0.0000 C   0  0  0  0  0  0  0  0  0  0  0  0
    1.3660   -3.1051    0.0000 C   0  0  0  0  0  0  0  0  0  0  0  0
  5  6  2  0  0  0  0
 23 24  2  0  0  0  0
 24 21  1  0  0  0  0
  6  1  1  0  0  0  0
 16 25  1  0  0  0  0
 25 10  1  0  0  0  0
  7  8  1  0  0  0  0
 12 26  1  6  0  0  0
  1  2  2  0  0  0  0
 13 27  1  0  0  0  0
 10 15  1  0  0  0  0
 26 28  1  0  0  0  0
 11 12  1  0  0  0  0
 26 29  2  0  0  0  0
 12 13  1  0  0  0  0
 30 27  1  1  0  0  0
 13 14  1  0  0  0  0
 30 31  1  0  0  0  0
 14 15  1  0  0  0  0
 30 32  1  0  0  0  0
 16 17  2  0  0  0  0
 32 33  1  0  0  0  0
  3  4  2  0  0  0  0
 33 34  1  0  0  0  0
 34 35  1  0  0  0  0
 37  9  1  0  0  0  0
 34 36  2  0  0  0  0
 35  8  1  0  0  0  0
  9  7  1  0  0  0  0
  8 38  1  0  0  0  0
 37 38  2  0  0  0  0
 18 19  2  0  0  0  0
 38 39  1  0  0  0  0
 19 20  1  0  0  0  0
 39 40  2  0  0  0  0
 20 16  1  0  0  0  0
 40 41  1  0  0  0  0
 17 18  1  0  0  0  0
 41 42  2  0  0  0  0
 42 37  1  0  0  0  0
 10 11  1  0  0  0  0
  7 43  1  6  0  0  0
  4  5  1  0  0  0  0
 33 44  1  6  0  0  0
 44  1  1  0  0  0  0
 21 22  2  0  0  0  0
 28 45  1  0  0  0  0
 22 19  1  0  0  0  0
 45 46  1  0  0  0  0
  2  3  1  0  0  0  0
 45 47  1  0  0  0  0
 18 23  1  0  0  0  0
 45 48  1  0  0  0  0
M  END
> <DATABASE_ID>
DB02009

> <DATABASE_NAME>
drugbank

> <SMILES>
CC(C)(C)NC(=O)[C@@H]1CN(CC2=CC3=C(O2)C=CC=C3)CCN1C[C@@H](O)C[C@@H](CC1=CC=CC=C1)C(=O)NC1[C@H](O)CC2=C1C=CC=C2

> <INCHI_IDENTIFIER>
InChI=1S/C39H48N4O5/c1-39(2,3)41-38(47)33-25-42(24-31-21-28-14-8-10-16-35(28)48-31)17-18-43(33)23-30(44)20-29(19-26-11-5-4-6-12-26)37(46)40-36-32-15-9-7-13-27(32)22-34(36)45/h4-16,21,29-30,33-34,36,44-45H,17-20,22-25H2,1-3H3,(H,40,46)(H,41,47)/t29-,30+,33+,34-,36?/m1/s1

> <INCHI_KEY>
AOMZDQMIOCTPQP-CFSTZTOESA-N

> <FORMULA>
C39H48N4O5

> <MOLECULAR_WEIGHT>
652.836

> <EXACT_MASS>
652.362470662

> <JCHEM_ACCEPTOR_COUNT>
6

> <JCHEM_ATOM_COUNT>
96

> <JCHEM_AVERAGE_NEUTRAL_MICROSPECIES_CHARGE>
0.6027556473723138

> <JCHEM_AVERAGE_POLARIZABILITY>
72.80413674602349

> <JCHEM_BIOAVAILABILITY>
0

> <JCHEM_DONOR_COUNT>
4

> <JCHEM_FORMAL_CHARGE>
0

> <JCHEM_GHOSE_FILTER>
0

> <JCHEM_IUPAC>
(2S)-4-[(1-benzofuran-2-yl)methyl]-1-[(2S,4R)-4-benzyl-2-hydroxy-4-{[(2R)-2-hydroxy-2,3-dihydro-1H-inden-1-yl]carbamoyl}butyl]-N-tert-butylpiperazine-2-carboxamide

> <ALOGPS_LOGP>
4.30

> <JCHEM_LOGP>
4.106727809333332

> <ALOGPS_LOGS>
-4.32

> <JCHEM_MDDR_LIKE_RULE>
1

> <JCHEM_NEUTRAL_CHARGE>
1

> <JCHEM_NUMBER_OF_RINGS>
6

> <JCHEM_PHYSIOLOGICAL_CHARGE>
1

> <JCHEM_PKA>
14.195753505674583

> <JCHEM_PKA_STRONGEST_ACIDIC>
13.006849013952559

> <JCHEM_PKA_STRONGEST_BASIC>
7.210271668361258

> <JCHEM_POLAR_SURFACE_AREA>
118.28000000000002

> <JCHEM_REFRACTIVITY>
186.76960000000003

> <JCHEM_ROTATABLE_BOND_COUNT>
12

> <JCHEM_RULE_OF_FIVE>
0

> <ALOGPS_SOLUBILITY>
3.09e-02 g/l

> <JCHEM_TRADITIONAL_IUPAC>
(2S)-4-(1-benzofuran-2-ylmethyl)-1-[(2S,4R)-4-benzyl-2-hydroxy-4-{[(2R)-2-hydroxy-2,3-dihydro-1H-inden-1-yl]carbamoyl}butyl]-N-tert-butylpiperazine-2-carboxamide

> <JCHEM_VEBER_RULE>
0

> <DRUGBANK_ID>
DB02009

> <SECONDARY_ACCESSION_NUMBERS>
EXPT01995

> <DRUG_GROUPS>
experimental

> <GENERIC_NAME>
L-756423

$$$$
