
  Mrv1909 01172018532D          

 98101  0  0  0  0            999 V2000
   11.7277   -3.6823    0.0000 C   0  0  0  0  0  0  0  0  0  0  0  0
   11.7166   -2.8527    0.0000 N   0  0  0  0  0  0  0  0  0  0  0  0
   11.0224   -4.1083    0.0000 N   0  0  0  0  0  0  0  0  0  0  0  0
   12.4504   -4.0759    0.0000 N   0  0  0  0  0  0  0  0  0  0  0  0
   10.3015   -3.7071    0.0000 C   0  0  0  0  0  0  0  0  0  0  0  0
    3.2237   -2.8307    0.0000 N   0  0  0  0  0  0  0  0  0  0  0  0
    7.4587   -2.8915    0.0000 N   0  0  0  0  0  0  0  0  0  0  0  0
    3.9314   -2.4106    0.0000 C   0  0  0  0  0  0  0  0  0  0  0  0
    7.4532   -3.7152    0.0000 C   0  0  0  0  0  0  0  0  0  0  0  0
    6.0766   -2.8087    0.0000 C   0  0  0  0  0  0  0  0  0  0  0  0
    2.5546   -1.5204    0.0000 C   0  0  0  0  0  0  0  0  0  0  0  0
    6.7898   -2.4049    0.0000 C   0  0  2  0  0  0  0  0  0  0  0  0
    2.5546   -2.3497    0.0000 C   0  0  2  0  0  0  0  0  0  0  0  0
   -2.4488    2.1063    0.0000 C   0  0  0  0  0  0  0  0  0  0  0  0
   -8.1489    3.7318    0.0000 C   0  0  0  0  0  0  0  0  0  0  0  0
   -0.3091    1.6917    0.0000 C   0  0  0  0  0  0  0  0  0  0  0  0
    1.1116    0.1216    0.0000 C   0  0  0  0  0  0  0  0  0  0  0  0
    5.3633   -2.3995    0.0000 N   0  0  0  0  0  0  0  0  0  0  0  0
    1.8414   -1.1113    0.0000 N   0  0  0  0  0  0  0  0  0  0  0  0
   -1.0223    2.1063    0.0000 N   0  0  0  0  0  0  0  0  0  0  0  0
   -3.1620    1.6917    0.0000 N   0  0  0  0  0  0  0  0  0  0  0  0
    0.4094   -0.2930    0.0000 N   0  0  0  0  0  0  0  0  0  0  0  0
   -8.8622    4.1465    0.0000 N   0  0  0  0  0  0  0  0  0  0  0  0
   -4.5884    1.6917    0.0000 C   0  0  0  0  0  0  0  0  0  0  0  0
   -1.7356    1.6917    0.0000 C   0  0  1  0  0  0  0  0  0  0  0  0
    4.6501   -2.8197    0.0000 C   0  0  1  0  0  0  0  0  0  0  0  0
   -3.8752    2.1063    0.0000 C   0  0  2  0  0  0  0  0  0  0  0  0
   -8.1489    2.1063    0.0000 C   0  0  1  0  0  0  0  0  0  0  0  0
   -7.4357    1.6917    0.0000 N   0  0  0  0  0  0  0  0  0  0  0  0
   -9.5811    2.9137    0.0000 C   0  0  0  0  0  0  0  0  0  0  0  0
    1.8358   -0.2820    0.0000 C   0  0  1  0  0  0  0  0  0  0  0  0
   -0.3091    0.1160    0.0000 C   0  0  1  0  0  0  0  0  0  0  0  0
   -6.7281    2.1063    0.0000 C   0  0  0  0  0  0  0  0  0  0  0  0
   -5.3016    2.1063    0.0000 N   0  0  0  0  0  0  0  0  0  0  0  0
   -9.5810    3.7374    0.0000 C   0  0  2  0  0  0  0  0  0  0  0  0
    3.9755    0.1436    0.0000 C   0  0  0  0  0  0  0  0  0  0  0  0
    3.9259   -1.5922    0.0000 O   0  0  0  0  0  0  0  0  0  0  0  0
    6.7344   -4.1244    0.0000 O   0  0  0  0  0  0  0  0  0  0  0  0
    3.2624   -1.1057    0.0000 O   0  0  0  0  0  0  0  0  0  0  0  0
    6.0710   -3.6381    0.0000 O   0  0  0  0  0  0  0  0  0  0  0  0
    8.1665   -4.1300    0.0000 C   0  0  1  0  0  0  0  0  0  0  0  0
   -2.4488    2.9301    0.0000 O   0  0  0  0  0  0  0  0  0  0  0  0
   -7.4303    4.1465    0.0000 O   0  0  0  0  0  0  0  0  0  0  0  0
    1.1116    0.9453    0.0000 O   0  0  0  0  0  0  0  0  0  0  0  0
    0.4040    2.1063    0.0000 O   0  0  0  0  0  0  0  0  0  0  0  0
   -1.7356    0.8679    0.0000 C   0  0  0  0  0  0  0  0  0  0  0  0
   -3.8752    3.6268    0.0000 C   0  0  0  0  0  0  0  0  0  0  0  0
   -4.5884    0.8679    0.0000 O   0  0  0  0  0  0  0  0  0  0  0  0
   -8.8678    2.4990    0.0000 O   0  0  0  0  0  0  0  0  0  0  0  0
   -8.8622    1.6917    0.0000 C   0  0  0  0  0  0  0  0  0  0  0  0
   -6.7281    2.9301    0.0000 O   0  0  0  0  0  0  0  0  0  0  0  0
    3.9645    0.9675    0.0000 O   0  0  0  0  0  0  0  0  0  0  0  0
    2.5491    0.1326    0.0000 C   0  0  0  0  0  0  0  0  0  0  0  0
   -1.0223   -0.2930    0.0000 C   0  0  0  0  0  0  0  0  0  0  0  0
   -6.0149    1.6917    0.0000 C   0  0  0  0  0  0  0  0  0  0  0  0
    8.1221   -2.4050    0.0000 C   0  0  0  0  0  0  0  0  0  0  0  0
    2.9639   -3.6213    0.0000 C   0  0  0  0  0  0  0  0  0  0  0  0
    3.2623   -0.2764    0.0000 C   0  0  0  0  0  0  0  0  0  0  0  0
    4.6889   -0.2710    0.0000 N   0  0  0  0  0  0  0  0  0  0  0  0
  -10.2997    2.4990    0.0000 N   0  0  0  0  0  0  0  0  0  0  0  0
  -10.2997    4.1521    0.0000 C   0  0  0  0  0  0  0  0  0  0  0  0
    8.1665   -4.9594    0.0000 N   0  0  0  0  0  0  0  0  0  0  0  0
    8.8797   -3.7098    0.0000 C   0  0  0  0  0  0  0  0  0  0  0  0
   -4.5940    4.0414    0.0000 C   0  0  0  0  0  0  0  0  0  0  0  0
   -2.4488    0.4589    0.0000 C   0  0  0  0  0  0  0  0  0  0  0  0
  -11.7318    4.1575    0.0000 S   0  0  0  0  0  0  0  0  0  0  0  0
    2.4994   -4.8765    0.0000 N   0  0  0  0  0  0  0  0  0  0  0  0
    1.8857   -2.8307    0.0000 C   0  0  0  0  0  0  0  0  0  0  0  0
    7.0496   -1.6199    0.0000 C   0  0  0  0  0  0  0  0  0  0  0  0
    2.1400   -3.6213    0.0000 C   0  0  0  0  0  0  0  0  0  0  0  0
    7.8733   -1.6199    0.0000 C   0  0  0  0  0  0  0  0  0  0  0  0
    4.6612   -3.6434    0.0000 C   0  0  0  0  0  0  0  0  0  0  0  0
   -8.8622    0.8679    0.0000 C   0  0  0  0  0  0  0  0  0  0  0  0
  -11.0129    3.7428    0.0000 C   0  0  0  0  0  0  0  0  0  0  0  0
    3.2237   -5.2855    0.0000 C   0  0  0  0  0  0  0  0  0  0  0  0
  -12.4504    3.7428    0.0000 C   0  0  0  0  0  0  0  0  0  0  0  0
   -3.1620    0.8790    0.0000 C   0  0  0  0  0  0  0  0  0  0  0  0
   -2.4544   -0.3593    0.0000 C   0  0  0  0  0  0  0  0  0  0  0  0
   -4.5940    4.8765    0.0000 C   0  0  0  0  0  0  0  0  0  0  0  0
   -5.3072    3.6213    0.0000 C   0  0  0  0  0  0  0  0  0  0  0  0
    3.9424   -4.0471    0.0000 C   0  0  0  0  0  0  0  0  0  0  0  0
    3.9424   -4.8765    0.0000 C   0  0  0  0  0  0  0  0  0  0  0  0
   -9.5810    0.4589    0.0000 C   0  0  0  0  0  0  0  0  0  0  0  0
   -8.1545    0.4533    0.0000 C   0  0  0  0  0  0  0  0  0  0  0  0
   -6.0258    4.0304    0.0000 C   0  0  0  0  0  0  0  0  0  0  0  0
   -3.8808    0.4698    0.0000 C   0  0  0  0  0  0  0  0  0  0  0  0
   -3.1676   -0.7686    0.0000 C   0  0  0  0  0  0  0  0  0  0  0  0
   -5.3126    5.2855    0.0000 C   0  0  0  0  0  0  0  0  0  0  0  0
   -3.8808   -0.3537    0.0000 C   0  0  0  0  0  0  0  0  0  0  0  0
   -6.0315    4.8709    0.0000 C   0  0  0  0  0  0  0  0  0  0  0  0
   -1.0279   -1.1113    0.0000 C   0  0  0  0  0  0  0  0  0  0  0  0
   -1.7411   -1.5148    0.0000 C   0  0  0  0  0  0  0  0  0  0  0  0
   -2.4544   -1.1002    0.0000 N   0  0  0  0  0  0  0  0  0  0  0  0
   -1.7467   -2.3387    0.0000 O   0  0  0  0  0  0  0  0  0  0  0  0
   -5.3072    2.9357    0.0000 C   0  0  0  0  0  0  0  0  0  0  0  0
  -11.1512    4.7492    0.0000 O   0  0  0  0  0  0  0  0  0  0  0  0
  -12.3289    4.7492    0.0000 O   0  0  0  0  0  0  0  0  0  0  0  0
    9.5928   -4.1189    0.0000 C   0  0  0  0  0  0  0  0  0  0  0  0
 10 18  1  0  0  0  0
 13 11  1  1  0  0  0
 12 10  1  6  0  0  0
 13  6  1  0  0  0  0
 14 25  1  0  0  0  0
 28 15  1  1  0  0  0
 32 16  1  1  0  0  0
 17 31  1  0  0  0  0
 18 26  1  0  0  0  0
 19 11  1  0  0  0  0
 20 16  1  0  0  0  0
 21 14  1  0  0  0  0
 22 17  1  0  0  0  0
 23 15  1  0  0  0  0
 24 27  1  0  0  0  0
 25 20  1  0  0  0  0
 26  8  1  0  0  0  0
 27 21  1  0  0  0  0
 28 29  1  0  0  0  0
 29 33  1  0  0  0  0
 35 30  1  6  0  0  0
 31 19  1  6  0  0  0
 32 22  1  0  0  0  0
 33 55  1  0  0  0  0
 34 24  1  0  0  0  0
 35 23  1  0  0  0  0
 36 58  1  0  0  0  0
 37  8  2  0  0  0  0
 38  9  2  0  0  0  0
 39 11  2  0  0  0  0
 40 10  2  0  0  0  0
 41  9  1  0  0  0  0
 42 14  2  0  0  0  0
 43 15  2  0  0  0  0
 44 17  2  0  0  0  0
 45 16  2  0  0  0  0
 25 46  1  1  0  0  0
 27 47  1  6  0  0  0
 48 24  2  0  0  0  0
 49 30  2  0  0  0  0
 50 28  1  0  0  0  0
 51 33  2  0  0  0  0
 52 36  2  0  0  0  0
 53 31  1  0  0  0  0
 54 32  1  0  0  0  0
 55 34  1  0  0  0  0
 56  7  1  0  0  0  0
 57  6  1  0  0  0  0
 58 53  1  0  0  0  0
 59 36  1  0  0  0  0
 60 30  1  0  0  0  0
 61 35  1  0  0  0  0
 41 62  1  6  0  0  0
 63 41  1  0  0  0  0
 64 47  1  0  0  0  0
 65 46  1  0  0  0  0
 66 74  1  0  0  0  0
 67 75  1  0  0  0  0
 68 13  1  0  0  0  0
 69 12  1  0  0  0  0
 70 57  1  0  0  0  0
 71 69  1  0  0  0  0
 26 72  1  1  0  0  0
 73 50  1  0  0  0  0
 74 61  1  0  0  0  0
 75 82  1  0  0  0  0
 76 66  1  0  0  0  0
 77 65  2  0  0  0  0
 78 65  1  0  0  0  0
 79 64  2  0  0  0  0
 80 64  1  0  0  0  0
 81 72  1  0  0  0  0
 82 81  1  0  0  0  0
 83 73  1  0  0  0  0
 84 73  1  0  0  0  0
 85 80  2  0  0  0  0
 86 77  1  0  0  0  0
 87 78  2  0  0  0  0
 88 79  1  0  0  0  0
 89 87  1  0  0  0  0
 90 85  1  0  0  0  0
 70 68  1  0  0  0  0
 71 56  1  0  0  0  0
 89 86  2  0  0  0  0
 90 88  2  0  0  0  0
 54 91  1  0  0  0  0
  1  3  1  0  0  0  0
 91 92  1  0  0  0  0
  2  1  2  0  0  0  0
 92 93  1  0  0  0  0
  3  5  1  0  0  0  0
 92 94  2  0  0  0  0
  4  1  1  0  0  0  0
 34 95  1  0  0  0  0
  7 12  1  0  0  0  0
 66 96  2  0  0  0  0
  8  6  1  0  0  0  0
 66 97  2  0  0  0  0
  9  7  1  0  0  0  0
 63 98  1  0  0  0  0
 98  5  1  0  0  0  0
M  END
> <DATABASE_ID>
DB05875

> <DATABASE_NAME>
drugbank

> <SMILES>
CC(C)C[C@H](NC(=O)CN(C)C(=O)[C@H](CC1=CC=CC=C1)NC(=O)[C@H](CC1=CC=CC=C1)NC(=O)[C@H](CCC(N)=O)NC(=O)[C@H](CCC(N)=O)NC(=O)[C@@H]1CCCN1C(=O)[C@H](CCCCN)NC(=O)[C@@H]1CCCN1C(=O)[C@@H](N)CCCNC(N)=N)C(=O)N[C@@H](CCS(C)(=O)=O)C(N)=O

> <INCHI_IDENTIFIER>
InChI=1S/C64H100N18O15S/c1-38(2)34-46(57(89)74-42(54(69)86)28-33-98(4,96)97)73-53(85)37-80(3)62(94)48(36-40-18-9-6-10-19-40)79-58(90)47(35-39-16-7-5-8-17-39)78-56(88)43(24-26-51(67)83)75-55(87)44(25-27-52(68)84)76-59(91)50-23-15-32-82(50)63(95)45(21-11-12-29-65)77-60(92)49-22-14-31-81(49)61(93)41(66)20-13-30-72-64(70)71/h5-10,16-19,38,41-50H,11-15,20-37,65-66H2,1-4H3,(H2,67,83)(H2,68,84)(H2,69,86)(H,73,85)(H,74,89)(H,75,87)(H,76,91)(H,77,92)(H,78,88)(H,79,90)(H4,70,71,72)/t41-,42-,43-,44-,45-,46-,47-,48-,49-,50-/m0/s1

> <INCHI_KEY>
OUPXSLGGCPUZJJ-SARDKLJWSA-N

> <FORMULA>
C64H100N18O15S

> <MOLECULAR_WEIGHT>
1393.68

> <EXACT_MASS>
1392.733625766

> <JCHEM_ACCEPTOR_COUNT>
20

> <JCHEM_ATOM_COUNT>
198

> <JCHEM_AVERAGE_NEUTRAL_MICROSPECIES_CHARGE>
2.870047691767342

> <JCHEM_AVERAGE_POLARIZABILITY>
144.97468378785123

> <JCHEM_BIOAVAILABILITY>
0

> <JCHEM_DONOR_COUNT>
15

> <JCHEM_FORMAL_CHARGE>
0

> <JCHEM_GHOSE_FILTER>
0

> <JCHEM_IUPAC>
(2S)-2-{[(2S)-1-[(2S)-6-amino-2-{[(2S)-1-[(2S)-2-amino-5-carbamimidamidopentanoyl]pyrrolidin-2-yl]formamido}hexanoyl]pyrrolidin-2-yl]formamido}-N-[(1S)-3-carbamoyl-1-{[(1S)-1-{[(1S)-1-[({[(1S)-1-{[(1S)-1-carbamoyl-3-methanesulfonylpropyl]carbamoyl}-3-methylbutyl]carbamoyl}methyl)(methyl)carbamoyl]-2-phenylethyl]carbamoyl}-2-phenylethyl]carbamoyl}propyl]pentanediamide

> <ALOGPS_LOGP>
-0.33

> <JCHEM_LOGP>
-7.7949059281380695

> <ALOGPS_LOGS>
-4.54

> <JCHEM_MDDR_LIKE_RULE>
1

> <JCHEM_NEUTRAL_CHARGE>
3

> <JCHEM_NUMBER_OF_RINGS>
4

> <JCHEM_PHYSIOLOGICAL_CHARGE>
3

> <JCHEM_PKA>
12.174303716858386

> <JCHEM_PKA_STRONGEST_ACIDIC>
11.482994386913866

> <JCHEM_PKA_STRONGEST_BASIC>
11.874234887145098

> <JCHEM_POLAR_SURFACE_AREA>
541.9799999999999

> <JCHEM_REFRACTIVITY>
368.5471000000002

> <JCHEM_ROTATABLE_BOND_COUNT>
42

> <JCHEM_RULE_OF_FIVE>
0

> <ALOGPS_SOLUBILITY>
4.00e-02 g/l

> <JCHEM_TRADITIONAL_IUPAC>
motesanib

> <JCHEM_VEBER_RULE>
0

> <DRUGBANK_ID>
DB05875

> <DRUG_GROUPS>
investigational

> <GENERIC_NAME>
Sar9, Met (O2)11-Substance P

> <SYNONYMS>
(Sar(9),met(O2)(11))SP; (Sar(9))SP sulfone; 9-Sar-11-met(O2)-substance P; 9-Sar-substance P sulfone; 9-Sarcosyl-11-methionine(O2)-substance P; Bolton hunter-9-sar-11-met(02)-substance P; Sarcosyl(9)-substance P sulfone

> <INTERNATIONAL_BRANDS>
Homspera; Viprovex

$$$$
