
  Mrv1902 03191917372D          

 52 56  0  0  0  0            999 V2000
   -2.7918    0.6708    0.0000 C   0  0  2  0  0  0  0  0  0  0  0  0
   -1.9693    0.0216    0.0000 O   0  0  0  0  0  0  0  0  0  0  0  0
   -3.2245   -0.0649    0.0000 O   0  0  0  0  0  0  0  0  0  0  0  0
   -2.4021    1.4067    0.0000 C   0  0  0  0  0  0  0  0  0  0  0  0
   -3.2245    1.3633    0.0000 C   0  0  0  0  0  0  0  0  0  0  0  0
   -1.1469    0.6708    0.0000 C   0  0  1  0  0  0  0  0  0  0  0  0
   -4.0468   -0.0649    0.0000 C   0  0  2  0  0  0  0  0  0  0  0  0
   -1.5797    1.4067    0.0000 C   0  0  0  0  0  0  0  0  0  0  0  0
   -4.0468    1.3633    0.0000 C   0  0  1  0  0  0  0  0  0  0  0  0
   -0.3246    0.6708    0.0000 C   0  0  2  0  0  0  0  0  0  0  0  0
   -4.4797   -0.7574    0.0000 C   0  0  2  0  0  0  0  0  0  0  0  0
   -4.4797    0.6708    0.0000 C   0  0  1  0  0  0  0  0  0  0  0  0
   -4.4797    2.0991    0.0000 O   0  0  0  0  0  0  0  0  0  0  0  0
    0.5410    0.0216    0.0000 O   0  0  0  0  0  0  0  0  0  0  0  0
    0.1082    1.4067    0.0000 C   0  0  0  0  0  0  0  0  0  0  0  0
   -5.3020   -0.7574    0.0000 C   0  0  2  0  0  0  0  0  0  0  0  0
   -4.0902   -1.4932    0.0000 C   0  0  0  0  0  0  0  0  0  0  0  0
   -5.3020    0.6708    0.0000 C   0  0  0  0  0  0  0  0  0  0  0  0
    1.3633    0.6708    0.0000 C   0  0  1  0  0  0  0  0  0  0  0  0
    0.9306    1.4067    0.0000 C   0  0  0  0  0  0  0  0  0  0  0  0
   -5.7349   -1.4932    0.0000 C   0  0  1  0  0  0  0  0  0  0  0  0
   -5.7349   -0.0649    0.0000 O   0  0  0  0  0  0  0  0  0  0  0  0
    2.1857    0.6708    0.0000 C   0  0  2  0  0  0  0  0  0  0  0  0
    1.7530    1.4067    0.0000 C   0  0  0  0  0  0  0  0  0  0  0  0
   -6.5573   -1.4932    0.0000 C   0  0  0  0  0  0  0  0  0  0  0  0
   -5.3020   -2.2290    0.0000 C   0  0  0  0  0  0  0  0  0  0  0  0
   -6.5573   -0.0649    0.0000 C   0  0  0  0  0  0  0  0  0  0  0  0
    3.0081    0.0649    0.0000 O   0  0  0  0  0  0  0  0  0  0  0  0
   -6.9901   -2.2290    0.0000 O   0  0  0  0  0  0  0  0  0  0  0  0
   -7.1633   -0.8873    0.0000 O   0  0  0  0  0  0  0  0  0  0  0  0
    3.8304    0.6708    0.0000 C   0  0  2  0  0  0  0  0  0  0  0  0
    3.3977    1.4067    0.0000 C   0  0  0  0  0  0  0  0  0  0  0  0
    4.6529    0.6708    0.0000 C   0  0  1  0  0  0  0  0  0  0  0  0
    5.0857   -0.0216    0.0000 O   0  0  0  0  0  0  0  0  0  0  0  0
    5.0857    1.4067    0.0000 C   0  0  2  0  0  0  0  0  0  0  0  0
    5.9081   -0.0649    0.0000 C   0  0  1  0  0  0  0  0  0  0  0  0
    5.9081    1.4067    0.0000 C   0  0  0  0  0  0  0  0  0  0  0  0
    4.6529    2.0991    0.0000 C   0  0  0  0  0  0  0  0  0  0  0  0
    6.3409    0.6708    0.0000 C   0  0  1  0  0  0  0  0  0  0  0  0
    6.7107    0.1431    0.0000 O   0  0  0  0  0  0  0  0  0  0  0  0
    7.1633    0.6708    0.0000 C   0  0  0  0  0  0  0  0  0  0  0  0
    2.5754    2.2290    0.0000 C   0  0  0  0  0  0  0  0  0  0  0  0
   -3.6573   -0.7574    0.0000 H   0  0  0  0  0  0  0  0  0  0  0  0
    2.1857   -0.2813    0.0000 H   0  0  0  0  0  0  0  0  0  0  0  0
   -1.1469   -0.2813    0.0000 C   0  0  0  0  0  0  0  0  0  0  0  0
   -0.3246   -0.2813    0.0000 H   0  0  0  0  0  0  0  0  0  0  0  0
    3.9912    1.5239    0.0000 H   0  0  0  0  0  0  0  0  0  0  0  0
    4.6535    1.4968    0.0000 H   0  0  0  0  0  0  0  0  0  0  0  0
    2.6186    1.4067    0.0000 C   0  0  2  0  0  0  0  0  0  0  0  0
    1.3201    2.1425    0.0000 C   0  0  0  0  0  0  0  0  0  0  0  0
    6.3118   -0.7832    0.0000 C   0  0  0  0  0  0  0  0  0  0  0  0
    5.9056   -1.4965    0.0000 O   0  0  0  0  0  0  0  0  0  0  0  0
 10 14  1  0  0  0  0
 10 15  1  0  0  0  0
 11 16  1  0  0  0  0
 11 17  1  1  0  0  0
 12 18  1  6  0  0  0
 19 14  1  0  0  0  0
 15 20  1  0  0  0  0
 16 21  1  0  0  0  0
 16 22  1  6  0  0  0
 19 23  1  0  0  0  0
 19 24  1  6  0  0  0
 21 25  1  0  0  0  0
 21 26  1  6  0  0  0
 22 27  1  0  0  0  0
 23 28  1  0  0  0  0
 23 49  1  0  0  0  0
 25 29  1  0  0  0  0
 25 30  2  0  0  0  0
 28 31  1  0  0  0  0
 49 32  1  0  0  0  0
 31 33  1  0  0  0  0
 33 34  1  0  0  0  0
 33 35  1  0  0  0  0
 34 36  1  0  0  0  0
 35 37  1  0  0  0  0
 35 38  1  1  0  0  0
 36 39  1  0  0  0  0
 36 40  1  1  0  0  0
 39 41  1  1  0  0  0
  6  8  1  0  0  0  0
  9 12  1  0  0  0  0
 19 20  1  0  0  0  0
 31 32  1  0  0  0  0
 37 39  1  0  0  0  0
  1  2  1  1  0  0  0
  1  3  1  0  0  0  0
  1  4  1  6  0  0  0
  1  5  1  0  0  0  0
  6  2  1  0  0  0  0
 49 42  1  1  0  0  0
  7  3  1  0  0  0  0
  7 43  1  1  0  0  0
  4  8  1  0  0  0  0
 23 44  1  6  0  0  0
  5  9  1  0  0  0  0
  6 45  1  6  0  0  0
  6 10  1  0  0  0  0
 10 46  1  6  0  0  0
  7 11  1  0  0  0  0
 31 47  1  1  0  0  0
  7 12  1  0  0  0  0
 33 48  1  1  0  0  0
  9 13  1  1  0  0  0
 24 50  1  0  0  0  0
 36 51  1  6  0  0  0
 51 52  1  0  0  0  0
M  END
> <DATABASE_ID>
DB11430

> <DATABASE_NAME>
drugbank

> <SMILES>
[H][C@@]1(C[C@H](C)[C@@]([H])(O1)[C@]1(CC)CC[C@@]([H])(O1)[C@]1(C)CC[C@]2(C[C@H](O)[C@@H](C)[C@]([H])(O2)[C@@H](C)[C@@H](OC)[C@H](C)C(O)=O)O1)[C@@]1([H])O[C@@](O)(CO)[C@H](C)C[C@@H]1C

> <INCHI_IDENTIFIER>
InChI=1S/C36H62O11/c1-10-34(31-20(3)16-26(43-31)28-19(2)15-21(4)36(41,18-37)46-28)12-11-27(44-34)33(8)13-14-35(47-33)17-25(38)22(5)30(45-35)23(6)29(42-9)24(7)32(39)40/h19-31,37-38,41H,10-18H2,1-9H3,(H,39,40)/t19-,20-,21+,22+,23-,24-,25-,26+,27+,28-,29+,30-,31+,33-,34-,35+,36-/m0/s1

> <INCHI_KEY>
GAOZTHIDHYLHMS-KEOBGNEYSA-N

> <FORMULA>
C36H62O11

> <MOLECULAR_WEIGHT>
670.881

> <EXACT_MASS>
670.429212816

> <JCHEM_ACCEPTOR_COUNT>
11

> <JCHEM_ATOM_COUNT>
109

> <JCHEM_AVERAGE_POLARIZABILITY>
73.5942027620601

> <JCHEM_BIOAVAILABILITY>
0

> <JCHEM_DONOR_COUNT>
4

> <JCHEM_FORMAL_CHARGE>
0

> <JCHEM_GHOSE_FILTER>
0

> <JCHEM_IUPAC>
(2S,3R,4S)-4-[(2S,5R,7S,8R,9S)-2-[(2S,2'R,3'S,5R,5'R)-2-ethyl-5'-[(2S,3S,5R,6R)-6-hydroxy-6-(hydroxymethyl)-3,5-dimethyloxan-2-yl]-3'-methyl-[2,2'-bioxolan]-5-yl]-9-hydroxy-2,8-dimethyl-1,6-dioxaspiro[4.5]decan-7-yl]-3-methoxy-2-methylpentanoic acid

> <ALOGPS_LOGP>
2.70

> <JCHEM_LOGP>
4.816267208666666

> <ALOGPS_LOGS>
-5.03

> <JCHEM_MDDR_LIKE_RULE>
1

> <JCHEM_NUMBER_OF_RINGS>
5

> <JCHEM_PHYSIOLOGICAL_CHARGE>
-1

> <JCHEM_PKA>
11.10724831331534

> <JCHEM_PKA_STRONGEST_ACIDIC>
4.23615976355167

> <JCHEM_PKA_STRONGEST_BASIC>
-2.928957471028724

> <JCHEM_POLAR_SURFACE_AREA>
153.37

> <JCHEM_REFRACTIVITY>
172.37980000000005

> <JCHEM_ROTATABLE_BOND_COUNT>
10

> <JCHEM_RULE_OF_FIVE>
0

> <ALOGPS_SOLUBILITY>
6.33e-03 g/l

> <JCHEM_TRADITIONAL_IUPAC>
flupirtine maleate

> <JCHEM_VEBER_RULE>
0

> <DRUGBANK_ID>
DB11430

> <DRUG_GROUPS>
experimental; vet_approved

> <GENERIC_NAME>
Monensin

> <SYNONYMS>
Monensic acid; Monensin; Monensin A; Monensina; Monensinum

> <SALTS>
Monensin sodium

$$$$
