
  Mrv1909 12152018162D          

 17 18  0  0  0  0            999 V2000
    1.4289   -1.6500    0.0000 C   0  0  0  0  0  0  0  0  0  0  0  0
    1.4289   -2.4750    0.0000 C   0  0  0  0  0  0  0  0  0  0  0  0
    2.0964   -2.9599    0.0000 C   0  0  0  0  0  0  0  0  0  0  0  0
    2.8810   -2.7050    0.0000 C   0  0  0  0  0  0  0  0  0  0  0  0
    1.8414   -3.7445    0.0000 C   0  0  0  0  0  0  0  0  0  0  0  0
    2.3264   -4.4120    0.0000 C   0  0  0  0  0  0  0  0  0  0  0  0
    1.9908   -5.1657    0.0000 O   0  0  0  0  0  0  0  0  0  0  0  0
    3.1468   -4.3257    0.0000 N   0  0  0  0  0  0  0  0  0  0  0  0
    3.6318   -4.9932    0.0000 C   0  0  0  0  0  0  0  0  0  0  0  0
    4.4522   -4.9070    0.0000 C   0  0  0  0  0  0  0  0  0  0  0  0
    4.9372   -5.5744    0.0000 C   0  0  0  0  0  0  0  0  0  0  0  0
    4.6016   -6.3281    0.0000 C   0  0  0  0  0  0  0  0  0  0  0  0
    3.7811   -6.4143    0.0000 C   0  0  0  0  0  0  0  0  0  0  0  0
    3.2962   -5.7469    0.0000 C   0  0  0  0  0  0  0  0  0  0  0  0
    1.0164   -3.7445    0.0000 C   0  0  0  0  0  0  0  0  0  0  0  0
    0.5315   -4.4120    0.0000 C   0  0  0  0  0  0  0  0  0  0  0  0
    0.7615   -2.9599    0.0000 O   0  0  0  0  0  0  0  0  0  0  0  0
  1  2  1  0  0  0  0
  2  3  2  0  0  0  0
  3  4  1  0  0  0  0
  3  5  1  0  0  0  0
  5  6  1  0  0  0  0
  6  7  2  0  0  0  0
  6  8  1  0  0  0  0
  8  9  1  0  0  0  0
  9 10  2  0  0  0  0
 10 11  1  0  0  0  0
 11 12  2  0  0  0  0
 12 13  1  0  0  0  0
 13 14  2  0  0  0  0
  9 14  1  0  0  0  0
  5 15  2  0  0  0  0
 15 16  1  0  0  0  0
 15 17  1  0  0  0  0
  2 17  1  0  0  0  0
M  END
> <DATABASE_ID>
DB16231

> <DATABASE_NAME>
drugbank

> <SMILES>
CC1=C(C)C(C(=O)NC2=CC=CC=C2)=C(C)O1

> <INCHI_IDENTIFIER>
InChI=1S/C14H15NO2/c1-9-10(2)17-11(3)13(9)14(16)15-12-7-5-4-6-8-12/h4-8H,1-3H3,(H,15,16)

> <INCHI_KEY>
ZWJNEYVWPYIKMB-UHFFFAOYSA-N

> <FORMULA>
C14H15NO2

> <MOLECULAR_WEIGHT>
229.279

> <EXACT_MASS>
229.110278727

> <JCHEM_ACCEPTOR_COUNT>
1

> <JCHEM_ATOM_COUNT>
32

> <JCHEM_AVERAGE_NEUTRAL_MICROSPECIES_CHARGE>
-1.2111353415939218e-08

> <JCHEM_AVERAGE_POLARIZABILITY>
25.71987953675229

> <JCHEM_BIOAVAILABILITY>
1

> <JCHEM_DONOR_COUNT>
1

> <JCHEM_FORMAL_CHARGE>
0

> <JCHEM_GHOSE_FILTER>
1

> <JCHEM_IUPAC>
2,4,5-trimethyl-N-phenylfuran-3-carboxamide

> <ALOGPS_LOGP>
2.83

> <JCHEM_LOGP>
3.1179201773333336

> <ALOGPS_LOGS>
-3.55

> <JCHEM_MDDR_LIKE_RULE>
0

> <JCHEM_NEUTRAL_CHARGE>
0

> <JCHEM_NUMBER_OF_RINGS>
2

> <JCHEM_PHYSIOLOGICAL_CHARGE>
0

> <JCHEM_PKA_STRONGEST_ACIDIC>
14.910638480465511

> <JCHEM_PKA_STRONGEST_BASIC>
-2.7396102397231434

> <JCHEM_POLAR_SURFACE_AREA>
42.24

> <JCHEM_REFRACTIVITY>
69.44550000000002

> <JCHEM_ROTATABLE_BOND_COUNT>
2

> <JCHEM_RULE_OF_FIVE>
1

> <ALOGPS_SOLUBILITY>
6.41e-02 g/l

> <JCHEM_TRADITIONAL_IUPAC>
5-({4-[2-(3-methoxyphenyl)-2-oxoethoxy]phenyl}methyl)-1,3-thiazolidine-2,4-dione

> <JCHEM_VEBER_RULE>
0

> <DRUGBANK_ID>
DB16231

> <DRUG_GROUPS>
investigational

> <GENERIC_NAME>
Methfuroxam

> <SYNONYMS>
Furavax; Trivax

$$$$
