
  Mrv1909 02232022592D          

 37 40  0  0  0  0            999 V2000
    2.4732   -1.9017    0.0000 O   0  0  0  0  0  0  0  0  0  0  0  0
    3.2765   -1.7238    0.0000 C   0  0  0  0  0  0  0  0  0  0  0  0
    3.5239   -0.9365    0.0000 O   0  0  0  0  0  0  0  0  0  0  0  0
    2.9681   -0.3317    0.0000 C   0  0  2  0  0  0  0  0  0  0  0  0
    2.1636   -0.5149    0.0000 C   0  0  0  0  0  0  0  0  0  0  0  0
    1.6075    0.0985    0.0000 C   0  0  0  0  0  0  0  0  0  0  0  0
    1.8563    0.8868    0.0000 C   0  0  1  0  0  0  0  0  0  0  0  0
    1.3002    1.4958    0.0000 N   0  0  0  0  0  0  0  0  0  0  0  0
    0.5003    1.3190    0.0000 C   0  0  0  0  0  0  0  0  0  0  0  0
    0.2488    0.5302    0.0000 C   0  0  0  0  0  0  0  0  0  0  0  0
   -0.5605    0.3639    0.0000 C   0  0  0  0  0  0  0  0  0  0  0  0
   -0.8121   -0.4189    0.0000 N   0  0  0  0  0  0  0  0  0  0  0  0
   -1.5998   -0.6779    0.0000 C   0  0  0  0  0  0  0  0  0  0  0  0
   -2.3155   -0.2607    0.0000 C   0  0  0  0  0  0  0  0  0  0  0  0
   -3.0312   -0.6779    0.0000 C   0  0  0  0  0  0  0  0  0  0  0  0
   -3.3144    0.0968    0.0000 C   0  0  0  0  0  0  0  0  0  0  0  0
   -3.8369   -0.8210    0.0000 C   0  0  0  0  0  0  0  0  0  0  0  0
   -3.0312   -1.5036    0.0000 C   0  0  0  0  0  0  0  0  0  0  0  0
   -2.3155   -1.9118    0.0000 C   0  0  0  0  0  0  0  0  0  0  0  0
   -2.3155   -2.7342    0.0000 O   0  0  0  0  0  0  0  0  0  0  0  0
   -1.5998   -1.5054    0.0000 C   0  0  0  0  0  0  0  0  0  0  0  0
   -0.8121   -1.7600    0.0000 C   0  0  0  0  0  0  0  0  0  0  0  0
   -0.5606   -2.5432    0.0000 C   0  0  0  0  0  0  0  0  0  0  0  0
    0.2224   -2.2870    0.0000 F   0  0  0  0  0  0  0  0  0  0  0  0
   -1.3389   -2.7993    0.0000 F   0  0  0  0  0  0  0  0  0  0  0  0
   -0.3044   -3.3264    0.0000 F   0  0  0  0  0  0  0  0  0  0  0  0
   -0.3260   -1.0893    0.0000 N   0  0  0  0  0  0  0  0  0  0  0  0
   -1.1136    0.9763    0.0000 C   0  0  0  0  0  0  0  0  0  0  0  0
   -0.8619    1.7591    0.0000 C   0  0  0  0  0  0  0  0  0  0  0  0
   -0.0573    1.9312    0.0000 C   0  0  0  0  0  0  0  0  0  0  0  0
    0.1932    2.7160    0.0000 C   0  0  0  0  0  0  0  0  0  0  0  0
    0.9982    2.8907    0.0000 N   0  0  0  0  0  0  0  0  0  0  0  0
   -0.3613    3.3264    0.0000 O   0  0  0  0  0  0  0  0  0  0  0  0
    2.6612    1.0614    0.0000 C   0  0  0  0  0  0  0  0  0  0  0  0
    3.2170    0.4566    0.0000 C   0  0  0  0  0  0  0  0  0  0  0  0
    3.8369   -2.3285    0.0000 C   0  0  0  0  0  0  0  0  0  0  0  0
    3.5893   -3.1113    0.0000 N   0  0  0  0  0  0  0  0  0  0  0  0
  2  1  2  0  0  0  0
  2  3  1  0  0  0  0
  4  3  1  6  0  0  0
  4  5  1  0  0  0  0
  6  5  1  0  0  0  0
  7  6  1  0  0  0  0
  7  8  1  1  0  0  0
  9  8  1  0  0  0  0
  9 10  1  0  0  0  0
 11 10  2  0  0  0  0
 12 11  1  0  0  0  0
 13 12  1  0  0  0  0
 13 14  1  0  0  0  0
 15 14  1  0  0  0  0
 16 15  1  0  0  0  0
 17 15  1  0  0  0  0
 18 15  1  0  0  0  0
 19 18  1  0  0  0  0
 20 19  2  0  0  0  0
 21 19  1  0  0  0  0
 21 22  1  0  0  0  0
 23 22  1  0  0  0  0
 24 23  1  0  0  0  0
 25 23  1  0  0  0  0
 26 23  1  0  0  0  0
 27 22  2  0  0  0  0
 12 27  1  0  0  0  0
 21 13  2  0  0  0  0
 28 11  1  0  0  0  0
 29 28  2  0  0  0  0
 30 29  1  0  0  0  0
 31 30  1  0  0  0  0
 31 32  1  0  0  0  0
 31 33  2  0  0  0  0
  9 30  2  0  0  0  0
 34  7  1  0  0  0  0
 35 34  1  0  0  0  0
  4 35  1  0  0  0  0
  2 36  1  0  0  0  0
 37 36  1  0  0  0  0
M  END
> <DATABASE_ID>
DB06070

> <DATABASE_NAME>
drugbank

> <SMILES>
CC1(C)CC2=C(C(=NN2C2=CC(N[C@H]3CC[C@@H](CC3)OC(=O)CN)=C(C=C2)C(N)=O)C(F)(F)F)C(=O)C1

> <INCHI_IDENTIFIER>
InChI=1S/C25H30F3N5O4/c1-24(2)10-18-21(19(34)11-24)22(25(26,27)28)32-33(18)14-5-8-16(23(30)36)17(9-14)31-13-3-6-15(7-4-13)37-20(35)12-29/h5,8-9,13,15,31H,3-4,6-7,10-12,29H2,1-2H3,(H2,30,36)/t13-,15-

> <INCHI_KEY>
AVDSOVJPJZVBTC-CTYIDZIISA-N

> <FORMULA>
C25H30F3N5O4

> <MOLECULAR_WEIGHT>
521.541

> <EXACT_MASS>
521.224988955

> <JCHEM_ACCEPTOR_COUNT>
6

> <JCHEM_ATOM_COUNT>
67

> <JCHEM_AVERAGE_NEUTRAL_MICROSPECIES_CHARGE>
0.5511812465757843

> <JCHEM_AVERAGE_POLARIZABILITY>
51.659197032660714

> <JCHEM_BIOAVAILABILITY>
1

> <JCHEM_DONOR_COUNT>
3

> <JCHEM_FORMAL_CHARGE>
0

> <JCHEM_GHOSE_FILTER>
0

> <JCHEM_IUPAC>
(1r,4r)-4-({2-carbamoyl-5-[6,6-dimethyl-4-oxo-3-(trifluoromethyl)-4,5,6,7-tetrahydro-1H-indazol-1-yl]phenyl}amino)cyclohexyl 2-aminoacetate

> <ALOGPS_LOGP>
3.15

> <JCHEM_LOGP>
2.884767856000001

> <ALOGPS_LOGS>
-4.75

> <JCHEM_MDDR_LIKE_RULE>
1

> <JCHEM_NEUTRAL_CHARGE>
1

> <JCHEM_NUMBER_OF_RINGS>
4

> <JCHEM_PHYSIOLOGICAL_CHARGE>
0

> <JCHEM_PKA>
16.463060247501424

> <JCHEM_PKA_STRONGEST_ACIDIC>
15.081415259457073

> <JCHEM_PKA_STRONGEST_BASIC>
7.089161279289438

> <JCHEM_POLAR_SURFACE_AREA>
142.33

> <JCHEM_REFRACTIVITY>
131.81239999999997

> <JCHEM_ROTATABLE_BOND_COUNT>
8

> <JCHEM_RULE_OF_FIVE>
0

> <ALOGPS_SOLUBILITY>
9.24e-03 g/l

> <JCHEM_TRADITIONAL_IUPAC>
2-methoxy-4-vinyl-phenol

> <JCHEM_VEBER_RULE>
0

> <DRUGBANK_ID>
DB06070

> <DRUG_GROUPS>
investigational

> <GENERIC_NAME>
SNX-5422

$$$$
