
  Mrv1652310201623162D          

 38 43  0  0  1  0            999 V2000
   -5.0013   -4.5375    0.0000 C   0  0  0  0  0  0  0  0  0  0  0  0
   -5.0013   -3.7125    0.0000 S   0  0  0  0  0  0  0  0  0  0  0  0
   -4.1763   -3.7125    0.0000 O   0  0  0  0  0  0  0  0  0  0  0  0
   -5.8263   -3.7125    0.0000 O   0  0  0  0  0  0  0  0  0  0  0  0
   -5.0013   -2.8875    0.0000 N   0  0  0  0  0  0  0  0  0  0  0  0
   -4.2868   -2.4750    0.0000 C   0  0  0  0  0  0  0  0  0  0  0  0
   -3.5724   -2.8875    0.0000 C   0  0  0  0  0  0  0  0  0  0  0  0
   -2.8579   -2.4750    0.0000 C   0  0  0  0  0  0  0  0  0  0  0  0
   -2.8579   -1.6500    0.0000 C   0  0  0  0  0  0  0  0  0  0  0  0
   -3.5724   -1.2375    0.0000 C   0  0  0  0  0  0  0  0  0  0  0  0
   -4.2868   -1.6500    0.0000 C   0  0  0  0  0  0  0  0  0  0  0  0
   -3.5724   -0.4125    0.0000 S   0  0  0  0  0  0  0  0  0  0  0  0
   -4.3848   -0.5558    0.0000 O   0  0  0  0  0  0  0  0  0  0  0  0
   -3.8545    0.3627    0.0000 O   0  0  0  0  0  0  0  0  0  0  0  0
   -2.8579    0.0000    0.0000 N   0  0  0  0  0  0  0  0  0  0  0  0
   -2.1434   -0.4125    0.0000 C   0  0  0  0  0  0  0  0  0  0  0  0
   -2.1434   -1.2375    0.0000 N   0  0  0  0  0  0  0  0  0  0  0  0
   -1.4289    0.0000    0.0000 C   0  0  0  0  0  0  0  0  0  0  0  0
   -0.7145   -0.4125    0.0000 C   0  0  0  0  0  0  0  0  0  0  0  0
    0.0000    0.0000    0.0000 C   0  0  2  0  0  0  0  0  0  0  0  0
    0.7145   -0.4125    0.0000 C   0  0  1  0  0  0  0  0  0  0  0  0
    1.4289    0.0000    0.0000 C   0  0  0  0  0  0  0  0  0  0  0  0
    1.4289    0.8250    0.0000 C   0  0  0  0  0  0  0  0  0  0  0  0
    0.7145    1.2375    0.0000 C   0  0  2  0  0  0  0  0  0  0  0  0
    0.5082    0.4125    0.0000 C   0  0  0  0  0  0  0  0  0  0  0  0
   -0.0000    0.8250    0.0000 C   0  0  2  0  0  0  0  0  0  0  0  0
   -0.7145    1.2375    0.0000 N   0  0  0  0  0  0  0  0  0  0  0  0
   -1.4289    0.8250    0.0000 C   0  0  0  0  0  0  0  0  0  0  0  0
   -2.1434    1.2375    0.0000 O   0  0  0  0  0  0  0  0  0  0  0  0
   -0.7145    2.0625    0.0000 C   0  0  0  0  0  0  0  0  0  0  0  0
    0.0000    2.4750    0.0000 C   0  0  0  0  0  0  0  0  0  0  0  0
    0.0000    3.3000    0.0000 C   0  0  0  0  0  0  0  0  0  0  0  0
    0.7145    3.7125    0.0000 C   0  0  0  0  0  0  0  0  0  0  0  0
    1.4289    3.3000    0.0000 C   0  0  0  0  0  0  0  0  0  0  0  0
    1.4289    2.4750    0.0000 C   0  0  0  0  0  0  0  0  0  0  0  0
    0.7145    2.0625    0.0000 C   0  0  0  0  0  0  0  0  0  0  0  0
    2.1434    3.7125    0.0000 F   0  0  0  0  0  0  0  0  0  0  0  0
   -0.7145   -1.2375    0.0000 O   0  0  0  0  0  0  0  0  0  0  0  0
  1  2  1  0  0  0  0
  2  3  2  0  0  0  0
  2  4  2  0  0  0  0
  2  5  1  0  0  0  0
  5  6  1  0  0  0  0
  6  7  2  0  0  0  0
  7  8  1  0  0  0  0
  8  9  2  0  0  0  0
  9 10  1  0  0  0  0
 10 11  2  0  0  0  0
  6 11  1  0  0  0  0
 10 12  1  0  0  0  0
 12 13  2  0  0  0  0
 12 14  2  0  0  0  0
 12 15  1  0  0  0  0
 15 16  2  0  0  0  0
 16 17  1  0  0  0  0
  9 17  1  0  0  0  0
 16 18  1  0  0  0  0
 18 19  2  0  0  0  0
 20 19  1  1  0  0  0
 20 21  1  0  0  0  0
 21 22  1  0  0  0  0
 22 23  1  0  0  0  0
 23 24  1  0  0  0  0
 24 25  1  1  0  0  0
 21 25  1  1  0  0  0
 24 26  1  0  0  0  0
 20 26  1  0  0  0  0
 26 27  1  1  0  0  0
 27 28  1  0  0  0  0
 18 28  1  0  0  0  0
 28 29  2  0  0  0  0
 27 30  1  0  0  0  0
 30 31  1  0  0  0  0
 31 32  2  0  0  0  0
 32 33  1  0  0  0  0
 33 34  2  0  0  0  0
 34 35  1  0  0  0  0
 35 36  2  0  0  0  0
 31 36  1  0  0  0  0
 34 37  1  0  0  0  0
 19 38  1  0  0  0  0
M  END
> <DATABASE_ID>
DB12051

> <DATABASE_NAME>
drugbank

> <SMILES>
CS(=O)(=O)NC1=CC=C2NC(=NS(=O)(=O)C2=C1)C1=C(O)[C@@H]2[C@H]3CC[C@H](C3)[C@@H]2N(CC2=CC=C(F)C=C2)C1=O

> <INCHI_IDENTIFIER>
InChI=1S/C25H25FN4O6S2/c1-37(33,34)28-17-8-9-18-19(11-17)38(35,36)29-24(27-18)21-23(31)20-14-4-5-15(10-14)22(20)30(25(21)32)12-13-2-6-16(26)7-3-13/h2-3,6-9,11,14-15,20,22,28,31H,4-5,10,12H2,1H3,(H,27,29)/t14-,15+,20+,22-/m0/s1

> <INCHI_KEY>
DEKOYVOWOVJMPM-RLHIPHHXSA-N

> <FORMULA>
C25H25FN4O6S2

> <MOLECULAR_WEIGHT>
560.62

> <EXACT_MASS>
560.119955052

> <JCHEM_ACCEPTOR_COUNT>
8

> <JCHEM_ATOM_COUNT>
63

> <JCHEM_AVERAGE_POLARIZABILITY>
54.98112090537653

> <JCHEM_BIOAVAILABILITY>
1

> <JCHEM_DONOR_COUNT>
3

> <JCHEM_FORMAL_CHARGE>
0

> <JCHEM_GHOSE_FILTER>
0

> <JCHEM_IUPAC>
N-{3-[(1R,2S,7R,8S)-3-[(4-fluorophenyl)methyl]-6-hydroxy-4-oxo-3-azatricyclo[6.2.1.0^{2,7}]undec-5-en-5-yl]-1,1-dioxo-4H-1lambda6,2,4-benzothiadiazin-7-yl}methanesulfonamide

> <ALOGPS_LOGP>
2.37

> <JCHEM_LOGP>
0.7772164693333335

> <ALOGPS_LOGS>
-4.30

> <JCHEM_MDDR_LIKE_RULE>
0

> <JCHEM_NUMBER_OF_RINGS>
6

> <JCHEM_PHYSIOLOGICAL_CHARGE>
-1

> <JCHEM_PKA>
9.278808395267275

> <JCHEM_PKA_STRONGEST_ACIDIC>
5.502400864225763

> <JCHEM_PKA_STRONGEST_BASIC>
0.6852534743539451

> <JCHEM_POLAR_SURFACE_AREA>
145.23999999999998

> <JCHEM_REFRACTIVITY>
138.60539999999997

> <JCHEM_ROTATABLE_BOND_COUNT>
4

> <JCHEM_RULE_OF_FIVE>
0

> <ALOGPS_SOLUBILITY>
2.81e-02 g/l

> <JCHEM_TRADITIONAL_IUPAC>
N-{3-[(1R,2S,7R,8S)-3-[(4-fluorophenyl)methyl]-6-hydroxy-4-oxo-3-azatricyclo[6.2.1.0^{2,7}]undec-5-en-5-yl]-1,1-dioxo-4H-1lambda6,2,4-benzothiadiazin-7-yl}methanesulfonamide

> <JCHEM_VEBER_RULE>
0

> <DRUGBANK_ID>
DB12051

> <DRUG_GROUPS>
investigational

> <GENERIC_NAME>
Setrobuvir

> <SYNONYMS>
Setrobuvir

$$$$
