
  Mrv1652310201623172D          

 32 36  0  0  1  0            999 V2000
    4.0668    2.3479    0.0000 C   0  0  0  0  0  0  0  0  0  0  0  0
    3.3523    1.9354    0.0000 C   0  0  0  0  0  0  0  0  0  0  0  0
    3.3523    1.1104    0.0000 C   0  0  0  0  0  0  0  0  0  0  0  0
    2.6378    0.6979    0.0000 C   0  0  2  0  0  0  0  0  0  0  0  0
    1.9233    1.1104    0.0000 N   0  0  0  0  0  0  0  0  0  0  0  0
    1.9233    1.9354    0.0000 C   0  0  0  0  0  0  0  0  0  0  0  0
    1.1387    2.1904    0.0000 C   0  0  0  0  0  0  0  0  0  0  0  0
    0.6538    1.5229    0.0000 C   0  0  0  0  0  0  0  0  0  0  0  0
    1.1387    0.8555    0.0000 N   0  0  0  0  0  0  0  0  0  0  0  0
    2.6378    2.3479    0.0000 N   0  0  0  0  0  0  0  0  0  0  0  0
    2.6378   -0.1271    0.0000 C   0  0  0  0  0  0  0  0  0  0  0  0
    3.3523   -0.5396    0.0000 C   0  0  0  0  0  0  0  0  0  0  0  0
    3.3523   -1.3646    0.0000 C   0  0  0  0  0  0  0  0  0  0  0  0
    2.6378   -1.7771    0.0000 C   0  0  0  0  0  0  0  0  0  0  0  0
    1.9233   -1.3646    0.0000 C   0  0  0  0  0  0  0  0  0  0  0  0
    1.9233   -0.5396    0.0000 C   0  0  0  0  0  0  0  0  0  0  0  0
    1.2089   -1.7771    0.0000 Cl  0  0  0  0  0  0  0  0  0  0  0  0
    2.6378   -2.6021    0.0000 Cl  0  0  0  0  0  0  0  0  0  0  0  0
    4.0668    0.6979    0.0000 C   0  0  0  0  0  0  0  0  0  0  0  0
    4.0668   -0.1271    0.0000 O   0  0  0  0  0  0  0  0  0  0  0  0
    4.7812    1.1104    0.0000 N   0  0  0  0  0  0  0  0  0  0  0  0
    4.8675    1.9309    0.0000 C   0  0  0  0  0  0  0  0  0  0  0  0
    5.6744    2.1025    0.0000 C   0  0  0  0  0  0  0  0  0  0  0  0
    6.0869    1.3880    0.0000 C   0  0  0  0  0  0  0  0  0  0  0  0
    5.5349    0.7749    0.0000 C   0  0  1  0  0  0  0  0  0  0  0  0
    5.7064   -0.0321    0.0000 C   0  0  0  0  0  0  0  0  0  0  0  0
    6.4911   -0.2870    0.0000 C   0  0  0  0  0  0  0  0  0  0  0  0
    6.6626   -1.0940    0.0000 C   0  0  0  0  0  0  0  0  0  0  0  0
    6.0495   -1.6460    0.0000 C   0  0  0  0  0  0  0  0  0  0  0  0
    5.2649   -1.3911    0.0000 C   0  0  0  0  0  0  0  0  0  0  0  0
    5.0933   -0.5841    0.0000 C   0  0  0  0  0  0  0  0  0  0  0  0
    6.2210   -2.4530    0.0000 F   0  0  0  0  0  0  0  0  0  0  0  0
  1  2  1  0  0  0  0
  2  3  2  0  0  0  0
  3  4  1  0  0  0  0
  4  5  1  0  0  0  0
  5  6  1  0  0  0  0
  6  7  2  0  0  0  0
  7  8  1  0  0  0  0
  8  9  2  0  0  0  0
  5  9  1  0  0  0  0
  6 10  1  0  0  0  0
  2 10  1  0  0  0  0
  4 11  1  1  0  0  0
 11 12  2  0  0  0  0
 12 13  1  0  0  0  0
 13 14  2  0  0  0  0
 14 15  1  0  0  0  0
 15 16  2  0  0  0  0
 11 16  1  0  0  0  0
 15 17  1  0  0  0  0
 14 18  1  0  0  0  0
  3 19  1  0  0  0  0
 19 20  2  0  0  0  0
 19 21  1  0  0  0  0
 21 22  1  0  0  0  0
 22 23  1  0  0  0  0
 23 24  1  0  0  0  0
 24 25  1  0  0  0  0
 21 25  1  0  0  0  0
 25 26  1  1  0  0  0
 26 27  2  0  0  0  0
 27 28  1  0  0  0  0
 28 29  2  0  0  0  0
 29 30  1  0  0  0  0
 30 31  2  0  0  0  0
 26 31  1  0  0  0  0
 29 32  1  0  0  0  0
M  END
> <DATABASE_ID>
DB12067

> <DATABASE_NAME>
drugbank

> <SMILES>
CC1=C([C@H](N2N=CC=C2N1)C1=CC=C(Cl)C(Cl)=C1)C(=O)N1CCC[C@H]1C1=CC=C(F)C=C1

> <INCHI_IDENTIFIER>
InChI=1S/C24H21Cl2FN4O/c1-14-22(24(32)30-12-2-3-20(30)15-4-7-17(27)8-5-15)23(31-21(29-14)10-11-28-31)16-6-9-18(25)19(26)13-16/h4-11,13,20,23,29H,2-3,12H2,1H3/t20-,23+/m0/s1

> <INCHI_KEY>
LADJRPDOKVCQCG-NZQKXSOJSA-N

> <FORMULA>
C24H21Cl2FN4O

> <MOLECULAR_WEIGHT>
471.36

> <EXACT_MASS>
470.1076449

> <JCHEM_ACCEPTOR_COUNT>
3

> <JCHEM_ATOM_COUNT>
53

> <JCHEM_AVERAGE_POLARIZABILITY>
46.66491486493342

> <JCHEM_BIOAVAILABILITY>
1

> <JCHEM_DONOR_COUNT>
1

> <JCHEM_FORMAL_CHARGE>
0

> <JCHEM_GHOSE_FILTER>
0

> <JCHEM_IUPAC>
(2S)-1-[(7R)-7-(3,4-dichlorophenyl)-5-methyl-4H,7H-pyrazolo[1,5-a]pyrimidine-6-carbonyl]-2-(4-fluorophenyl)pyrrolidine

> <ALOGPS_LOGP>
5.32

> <JCHEM_LOGP>
4.565162211666667

> <ALOGPS_LOGS>
-5.12

> <JCHEM_MDDR_LIKE_RULE>
0

> <JCHEM_NUMBER_OF_RINGS>
5

> <JCHEM_PHYSIOLOGICAL_CHARGE>
0

> <JCHEM_PKA_STRONGEST_ACIDIC>
15.232063401796466

> <JCHEM_PKA_STRONGEST_BASIC>
3.451386058311796

> <JCHEM_POLAR_SURFACE_AREA>
50.160000000000004

> <JCHEM_REFRACTIVITY>
136.65409999999994

> <JCHEM_ROTATABLE_BOND_COUNT>
3

> <JCHEM_RULE_OF_FIVE>
1

> <ALOGPS_SOLUBILITY>
3.55e-03 g/l

> <JCHEM_TRADITIONAL_IUPAC>
(2S)-1-[(7R)-7-(3,4-dichlorophenyl)-5-methyl-4H,7H-pyrazolo[1,5-a]pyrimidine-6-carbonyl]-2-(4-fluorophenyl)pyrrolidine

> <JCHEM_VEBER_RULE>
0

> <DRUGBANK_ID>
DB12067

> <DRUG_GROUPS>
investigational

> <GENERIC_NAME>
BMS-394136

$$$$
