
  Mrv1572003271614432D          

 37 41  0  0  0  0            999 V2000
   -3.2176    1.9800    0.0000 C   0  0  0  0  0  0  0  0  0  0  0  0
   -3.2176    1.1550    0.0000 C   0  0  0  0  0  0  0  0  0  0  0  0
   -3.9189    0.7425    0.0000 C   0  0  0  0  0  0  0  0  0  0  0  0
   -4.6614    1.1550    0.0000 C   0  0  0  0  0  0  0  0  0  0  0  0
   -4.6614    1.9800    0.0000 C   0  0  0  0  0  0  0  0  0  0  0  0
   -3.9189    2.3926    0.0000 N   0  0  0  0  0  0  0  0  0  0  0  0
   -2.5163    2.3926    0.0000 C   0  0  0  0  0  0  0  0  0  0  0  0
   -1.7738    1.9800    0.0000 C   0  0  0  0  0  0  0  0  0  0  0  0
   -1.7738    1.1550    0.0000 C   0  0  0  0  0  0  0  0  0  0  0  0
   -2.5163    0.7425    0.0000 C   0  0  0  0  0  0  0  0  0  0  0  0
   -1.0725    2.3926    0.0000 O   0  0  0  0  0  0  0  0  0  0  0  0
   -0.3712    1.9800    0.0000 C   0  0  0  0  0  0  0  0  0  0  0  0
   -1.0725    0.7425    0.0000 O   0  0  0  0  0  0  0  0  0  0  0  0
   -0.3712    1.1550    0.0000 C   0  0  0  0  0  0  0  0  0  0  0  0
   -3.9189   -0.0824    0.0000 O   0  0  0  0  0  0  0  0  0  0  0  0
   -3.1763   -0.4950    0.0000 C   0  0  0  0  0  0  0  0  0  0  0  0
   -3.1763   -1.3201    0.0000 C   0  0  0  0  0  0  0  0  0  0  0  0
   -2.4750   -1.7326    0.0000 C   0  0  0  0  0  0  0  0  0  0  0  0
   -1.7738   -1.3201    0.0000 C   0  0  0  0  0  0  0  0  0  0  0  0
   -1.7738   -0.4537    0.0000 C   0  0  0  0  0  0  0  0  0  0  0  0
   -2.4750   -0.0412    0.0000 C   0  0  0  0  0  0  0  0  0  0  0  0
   -1.0313   -1.6913    0.0000 N   0  0  0  0  0  0  0  0  0  0  0  0
   -0.3300   -1.2788    0.0000 C   0  0  0  0  0  0  0  0  0  0  0  0
    0.4125   -1.6913    0.0000 C   0  0  0  0  0  0  0  0  0  0  0  0
   -0.3300   -0.4537    0.0000 O   0  0  0  0  0  0  0  0  0  0  0  0
    1.1138   -1.2375    0.0000 C   0  0  0  0  0  0  0  0  0  0  0  0
    1.8151   -1.6500    0.0000 N   0  0  0  0  0  0  0  0  0  0  0  0
    1.1138   -0.4125    0.0000 O   0  0  0  0  0  0  0  0  0  0  0  0
    2.5163   -1.2375    0.0000 C   0  0  0  0  0  0  0  0  0  0  0  0
    3.2589   -1.6500    0.0000 C   0  0  0  0  0  0  0  0  0  0  0  0
    3.9189   -1.1963    0.0000 C   0  0  0  0  0  0  0  0  0  0  0  0
    3.9189   -0.3713    0.0000 C   0  0  0  0  0  0  0  0  0  0  0  0
    3.2176    0.0000    0.0000 C   0  0  0  0  0  0  0  0  0  0  0  0
    2.5163   -0.4125    0.0000 C   0  0  0  0  0  0  0  0  0  0  0  0
    4.6615    0.0000    0.0000 F   0  0  0  0  0  0  0  0  0  0  0  0
    0.0000   -2.3926    0.0000 C   0  0  0  0  0  0  0  0  0  0  0  0
    0.8250   -2.3926    0.0000 C   0  0  0  0  0  0  0  0  0  0  0  0
  1  2  2  0  0  0  0
  2  3  1  0  0  0  0
  3  4  2  0  0  0  0
  4  5  1  0  0  0  0
  5  6  2  0  0  0  0
  1  6  1  0  0  0  0
  1  7  1  0  0  0  0
  7  8  2  0  0  0  0
  8  9  1  0  0  0  0
  9 10  2  0  0  0  0
  2 10  1  0  0  0  0
  8 11  1  0  0  0  0
 11 12  1  0  0  0  0
  9 13  1  0  0  0  0
 13 14  1  0  0  0  0
  3 15  1  0  0  0  0
 15 16  1  0  0  0  0
 16 17  2  0  0  0  0
 17 18  1  0  0  0  0
 18 19  2  0  0  0  0
 19 20  1  0  0  0  0
 20 21  2  0  0  0  0
 16 21  1  0  0  0  0
 19 22  1  0  0  0  0
 22 23  1  0  0  0  0
 23 24  1  0  0  0  0
 23 25  2  0  0  0  0
 24 26  1  0  0  0  0
 26 27  1  0  0  0  0
 26 28  2  0  0  0  0
 27 29  1  0  0  0  0
 29 30  2  0  0  0  0
 30 31  1  0  0  0  0
 31 32  2  0  0  0  0
 32 33  1  0  0  0  0
 33 34  2  0  0  0  0
 29 34  1  0  0  0  0
 32 35  1  0  0  0  0
 36 37  1  0  0  0  0
 37 24  1  0  0  0  0
 24 36  1  0  0  0  0
M  END
> <DATABASE_ID>
DB08875

> <DATABASE_NAME>
drugbank

> <SMILES>
COC1=CC2=C(C=C1OC)C(OC1=CC=C(NC(=O)C3(CC3)C(=O)NC3=CC=C(F)C=C3)C=C1)=CC=N2

> <INCHI_IDENTIFIER>
InChI=1S/C28H24FN3O5/c1-35-24-15-21-22(16-25(24)36-2)30-14-11-23(21)37-20-9-7-19(8-10-20)32-27(34)28(12-13-28)26(33)31-18-5-3-17(29)4-6-18/h3-11,14-16H,12-13H2,1-2H3,(H,31,33)(H,32,34)

> <INCHI_KEY>
ONIQOQHATWINJY-UHFFFAOYSA-N

> <FORMULA>
C28H24FN3O5

> <MOLECULAR_WEIGHT>
501.514

> <EXACT_MASS>
501.169999048

> <JCHEM_ACCEPTOR_COUNT>
5

> <JCHEM_ATOM_COUNT>
61

> <JCHEM_AVERAGE_POLARIZABILITY>
51.49370830255501

> <JCHEM_BIOAVAILABILITY>
1

> <JCHEM_DONOR_COUNT>
2

> <JCHEM_FORMAL_CHARGE>
0

> <JCHEM_GHOSE_FILTER>
0

> <JCHEM_IUPAC>
N'1-{4-[(6,7-dimethoxyquinolin-4-yl)oxy]phenyl}-N1-(4-fluorophenyl)cyclopropane-1,1-dicarboxamide

> <ALOGPS_LOGP>
4.01

> <JCHEM_LOGP>
4.658062448

> <ALOGPS_LOGS>
-5.40

> <JCHEM_MDDR_LIKE_RULE>
1

> <JCHEM_NUMBER_OF_RINGS>
5

> <JCHEM_PHYSIOLOGICAL_CHARGE>
0

> <JCHEM_PKA>
14.47114923183193

> <JCHEM_PKA_STRONGEST_ACIDIC>
13.46188656926935

> <JCHEM_PKA_STRONGEST_BASIC>
5.895706033147246

> <JCHEM_POLAR_SURFACE_AREA>
98.78

> <JCHEM_REFRACTIVITY>
136.1206

> <JCHEM_ROTATABLE_BOND_COUNT>
8

> <JCHEM_RULE_OF_FIVE>
0

> <ALOGPS_SOLUBILITY>
1.99e-03 g/l

> <JCHEM_TRADITIONAL_IUPAC>
cabozantinib

> <JCHEM_VEBER_RULE>
0

> <DRUGBANK_ID>
DB08875

> <SECONDARY_ACCESSION_NUMBERS>
DB05153

> <DRUG_GROUPS>
approved; investigational

> <GENERIC_NAME>
Cabozantinib

> <SYNONYMS>
Cabozantinib

> <PRODUCTS>
Cabometyx; Cometriq

> <SALTS>
Cabozantinib malate

$$$$
