
  Mrv1909 05201914572D          

 34 38  0  0  1  0            999 V2000
    1.7100   -2.4055    0.0000 C   0  0  0  0  0  0  0  0  0  0  0  0
    1.4201   -1.6331    0.0000 C   0  0  0  0  0  0  0  0  0  0  0  0
    0.6248   -1.4137    0.0000 N   0  0  0  0  0  0  0  0  0  0  0  0
    0.5878   -0.5895    0.0000 N   0  0  0  0  0  0  0  0  0  0  0  0
    1.3602   -0.2996    0.0000 C   0  0  0  0  0  0  0  0  0  0  0  0
    1.5438    0.5047    0.0000 C   0  0  2  0  0  0  0  0  0  0  0  0
    0.8988    1.0191    0.0000 C   0  0  0  0  0  0  0  0  0  0  0  0
    0.1308    0.7177    0.0000 C   0  0  0  0  0  0  0  0  0  0  0  0
    0.0078   -0.0981    0.0000 O   0  0  0  0  0  0  0  0  0  0  0  0
   -0.5142    1.2321    0.0000 N   0  0  0  0  0  0  0  0  0  0  0  0
   -1.2822    0.9306    0.0000 C   0  0  0  0  0  0  0  0  0  0  0  0
   -1.4051    0.1149    0.0000 C   0  0  0  0  0  0  0  0  0  0  0  0
   -2.1731   -0.1865    0.0000 C   0  0  0  0  0  0  0  0  0  0  0  0
   -2.8181    0.3278    0.0000 C   0  0  0  0  0  0  0  0  0  0  0  0
   -3.5861    0.0264    0.0000 O   0  0  0  0  0  0  0  0  0  0  0  0
   -2.6952    1.1436    0.0000 C   0  0  0  0  0  0  0  0  0  0  0  0
   -1.9272    1.4450    0.0000 C   0  0  0  0  0  0  0  0  0  0  0  0
    2.2871    0.8627    0.0000 N   0  0  0  0  0  0  0  0  0  0  0  0
    3.0304    0.5047    0.0000 C   0  0  0  0  0  0  0  0  0  0  0  0
    3.2140   -0.2996    0.0000 C   0  0  0  0  0  0  0  0  0  0  0  0
    2.6996   -0.9446    0.0000 C   0  0  0  0  0  0  0  0  0  0  0  0
    3.1541   -1.6331    0.0000 S   0  0  0  0  0  0  0  0  0  0  0  0
    3.9493   -1.4137    0.0000 C   0  0  0  0  0  0  0  0  0  0  0  0
    4.5944   -1.9280    0.0000 C   0  0  0  0  0  0  0  0  0  0  0  0
    3.9864   -0.5895    0.0000 C   0  0  0  0  0  0  0  0  0  0  0  0
    4.6749   -0.1350    0.0000 C   0  0  0  0  0  0  0  0  0  0  0  0
    1.8746   -0.9446    0.0000 N   0  0  0  0  0  0  0  0  0  0  0  0
    3.6754    1.0191    0.0000 C   0  0  0  0  0  0  0  0  0  0  0  0
    3.5524    1.8349    0.0000 C   0  0  0  0  0  0  0  0  0  0  0  0
    4.1974    2.3492    0.0000 C   0  0  0  0  0  0  0  0  0  0  0  0
    4.9654    2.0478    0.0000 C   0  0  0  0  0  0  0  0  0  0  0  0
    5.6104    2.5622    0.0000 Cl  0  0  0  0  0  0  0  0  0  0  0  0
    5.0884    1.2321    0.0000 C   0  0  0  0  0  0  0  0  0  0  0  0
    4.4434    0.7177    0.0000 C   0  0  0  0  0  0  0  0  0  0  0  0
  1  2  1  0  0  0  0
  2  3  2  0  0  0  0
  3  4  1  0  0  0  0
  4  5  2  0  0  0  0
  6  5  1  0  0  0  0
  6  7  1  6  0  0  0
  7  8  1  0  0  0  0
  8  9  2  0  0  0  0
  8 10  1  0  0  0  0
 10 11  1  0  0  0  0
 11 12  2  0  0  0  0
 12 13  1  0  0  0  0
 13 14  2  0  0  0  0
 14 15  1  0  0  0  0
 14 16  1  0  0  0  0
 16 17  2  0  0  0  0
 11 17  1  0  0  0  0
  6 18  1  0  0  0  0
 18 19  2  0  0  0  0
 19 20  1  0  0  0  0
 20 21  2  0  0  0  0
 21 22  1  0  0  0  0
 22 23  1  0  0  0  0
 23 24  1  0  0  0  0
 23 25  2  0  0  0  0
 20 25  1  0  0  0  0
 25 26  1  0  0  0  0
 21 27  1  0  0  0  0
  2 27  1  0  0  0  0
  5 27  1  0  0  0  0
 19 28  1  0  0  0  0
 28 29  2  0  0  0  0
 29 30  1  0  0  0  0
 30 31  2  0  0  0  0
 31 32  1  0  0  0  0
 31 33  1  0  0  0  0
 33 34  2  0  0  0  0
 28 34  1  0  0  0  0
M  END
> <DATABASE_ID>
DB15189

> <DATABASE_NAME>
drugbank

> <SMILES>
CC1=C(C)C2=C(S1)N1C(C)=NN=C1[C@H](CC(=O)NC1=CC=C(O)C=C1)N=C2C1=CC=C(Cl)C=C1

> <INCHI_IDENTIFIER>
InChI=1S/C25H22ClN5O2S/c1-13-14(2)34-25-22(13)23(16-4-6-17(26)7-5-16)28-20(24-30-29-15(3)31(24)25)12-21(33)27-18-8-10-19(32)11-9-18/h4-11,20,32H,12H2,1-3H3,(H,27,33)/t20-/m0/s1

> <INCHI_KEY>
GNMUEVRJHCWKTO-FQEVSTJZSA-N

> <FORMULA>
C25H22ClN5O2S

> <MOLECULAR_WEIGHT>
491.99

> <EXACT_MASS>
491.1182738

> <JCHEM_ACCEPTOR_COUNT>
5

> <JCHEM_ATOM_COUNT>
56

> <JCHEM_AVERAGE_POLARIZABILITY>
50.88114351691688

> <JCHEM_BIOAVAILABILITY>
1

> <JCHEM_DONOR_COUNT>
2

> <JCHEM_FORMAL_CHARGE>
0

> <JCHEM_GHOSE_FILTER>
0

> <JCHEM_IUPAC>
2-[(9S)-7-(4-chlorophenyl)-4,5,13-trimethyl-3-thia-1,8,11,12-tetraazatricyclo[8.3.0.0^{2,6}]trideca-2(6),4,7,10,12-pentaen-9-yl]-N-(4-hydroxyphenyl)acetamide

> <ALOGPS_LOGP>
4.04

> <JCHEM_LOGP>
5.186561455333335

> <ALOGPS_LOGS>
-4.57

> <JCHEM_MDDR_LIKE_RULE>
0

> <JCHEM_NUMBER_OF_RINGS>
5

> <JCHEM_PHYSIOLOGICAL_CHARGE>
0

> <JCHEM_PKA>
15.762192547444023

> <JCHEM_PKA_STRONGEST_ACIDIC>
9.459690360865105

> <JCHEM_PKA_STRONGEST_BASIC>
4.208616419853287

> <JCHEM_POLAR_SURFACE_AREA>
92.4

> <JCHEM_REFRACTIVITY>
146.02969999999996

> <JCHEM_ROTATABLE_BOND_COUNT>
4

> <JCHEM_RULE_OF_FIVE>
0

> <ALOGPS_SOLUBILITY>
1.31e-02 g/l

> <JCHEM_TRADITIONAL_IUPAC>
(2R)-14-fluoro-2-methyl-6,9,10,19-tetraazapentacyclo[14.2.1.0^{2,6}.0^{8,18}.0^{12,17}]nonadeca-1(18),8,12(17),13,15-pentaen-11-one

> <JCHEM_VEBER_RULE>
0

> <DRUGBANK_ID>
DB15189

> <DRUG_GROUPS>
investigational

> <GENERIC_NAME>
Birabresib

> <SYNONYMS>
2-[(6S)-4-(4-chlorophenyl)-2,3,9-trimethyl-6H-thienol[3,2,-f]-[1,2,4]triazolo[4,3-a][1,4]diazepin-6-yl]-N-(4-hydroxyphenyl)-acetamide; Birabresib

> <SALTS>
Birabresib dihydrate

$$$$
