
  Mrv1718007021811022D          

 13 13  0  0  0  0            999 V2000
   -0.7144    0.0000    0.0000 C   0  0  0  0  0  0  0  0  0  0  0  0
   -0.7144   -0.8250    0.0000 C   0  0  0  0  0  0  0  0  0  0  0  0
   -1.4289    0.4125    0.0000 C   0  0  0  0  0  0  0  0  0  0  0  0
   -1.4289   -1.2375    0.0000 C   0  0  0  0  0  0  0  0  0  0  0  0
   -2.1434    0.0000    0.0000 C   0  0  0  0  0  0  0  0  0  0  0  0
   -2.1434   -0.8250    0.0000 C   0  0  0  0  0  0  0  0  0  0  0  0
    0.0000    0.4125    0.0000 C   0  0  0  0  0  0  0  0  0  0  0  0
    0.7144    0.0000    0.0000 O   0  0  0  0  0  0  0  0  0  0  0  0
    0.0000    1.2374    0.0000 O   0  0  0  0  0  0  0  0  0  0  0  0
    1.4289    0.4125    0.0000 C   0  0  0  0  0  0  0  0  0  0  0  0
    2.1434    0.0000    0.0000 C   0  0  0  0  0  0  0  0  0  0  0  0
    2.8579    0.4125    0.0000 C   0  0  0  0  0  0  0  0  0  0  0  0
   -2.8579   -1.2375    0.0000 O   0  0  0  0  0  0  0  0  0  0  0  0
  2  1  1  0  0  0  0
  3  1  2  0  0  0  0
  1  7  1  0  0  0  0
  4  2  2  0  0  0  0
  5  3  1  0  0  0  0
  6  4  1  0  0  0  0
  6  5  2  0  0  0  0
  6 13  1  0  0  0  0
  7  8  1  0  0  0  0
  7  9  2  0  0  0  0
  8 10  1  0  0  0  0
 10 11  1  0  0  0  0
 11 12  1  0  0  0  0
M  END
> <DATABASE_ID>
DB14177

> <DATABASE_NAME>
drugbank

> <SMILES>
CCCOC(=O)C1=CC=C(O)C=C1

> <INCHI_IDENTIFIER>
InChI=1S/C10H12O3/c1-2-7-13-10(12)8-3-5-9(11)6-4-8/h3-6,11H,2,7H2,1H3

> <INCHI_KEY>
QELSKZZBTMNZEB-UHFFFAOYSA-N

> <FORMULA>
C10H12O3

> <MOLECULAR_WEIGHT>
180.2005

> <EXACT_MASS>
180.07864425

> <JCHEM_ACCEPTOR_COUNT>
2

> <JCHEM_ATOM_COUNT>
25

> <JCHEM_AVERAGE_POLARIZABILITY>
19.34862036697895

> <JCHEM_BIOAVAILABILITY>
1

> <JCHEM_DONOR_COUNT>
1

> <JCHEM_FORMAL_CHARGE>
0

> <JCHEM_GHOSE_FILTER>
1

> <JCHEM_IUPAC>
propyl 4-hydroxybenzoate

> <ALOGPS_LOGP>
3.28

> <JCHEM_LOGP>
2.552487808

> <ALOGPS_LOGS>
-2.27

> <JCHEM_MDDR_LIKE_RULE>
0

> <JCHEM_NUMBER_OF_RINGS>
1

> <JCHEM_PHYSIOLOGICAL_CHARGE>
0

> <JCHEM_PKA_STRONGEST_ACIDIC>
8.500030087255478

> <JCHEM_PKA_STRONGEST_BASIC>
-6.064410476854477

> <JCHEM_POLAR_SURFACE_AREA>
46.53

> <JCHEM_REFRACTIVITY>
49.33680000000001

> <JCHEM_ROTATABLE_BOND_COUNT>
4

> <JCHEM_RULE_OF_FIVE>
1

> <ALOGPS_SOLUBILITY>
9.60e-01 g/l

> <JCHEM_TRADITIONAL_IUPAC>
propylparaben

> <JCHEM_VEBER_RULE>
0

> <DRUGBANK_ID>
DB14177

> <DRUG_GROUPS>
approved; experimental

> <GENERIC_NAME>
Propylparaben

> <SYNONYMS>
4-Hydroxybenzoic acid propyl ester; 4-Hydroxybenzoic acid, propyl ester; n-Propyl 4-hydroxybenzoate; n-Propyl p-hydroxybenzoate; n-propyl paraben; p-Hydroxybenzoic acid propyl ester; p-Hydroxybenzoic propyl ester; p-OxybenzoesÃ¤urepropylester; Propyl p-hydroxybenzoate; Propyl paraben; Propyl parahydroxybenzoate; Propylparaben

> <PRODUCTS>
T.R.U.E. Test Thin-Layer Rapid Use Patch Test

> <SALTS>
Propylparaben calcium; Propylparaben sodium

$$$$
