
  Mrv1909 01292018162D          

  6  4  0  0  0  0            999 V2000
   -1.1737   -0.2015    0.0000 C   0  0  0  0  0  0  0  0  0  0  0  0
   -1.8814   -0.6241    0.0000 N   0  0  0  0  0  0  0  0  0  0  0  0
   -0.4495   -0.5931    0.0000 N   0  0  0  0  0  0  0  0  0  0  0  0
   -1.1872    0.6241    0.0000 O   0  0  0  0  0  0  0  0  0  0  0  0
    1.0382   -0.3657    0.0000 O   0  0  0  0  0  0  0  0  0  0  0  0
    1.8814   -0.3657    0.0000 O   0  0  0  0  0  0  0  0  0  0  0  0
  1  2  1  0  0  0  0
  1  3  1  0  0  0  0
  1  4  2  0  0  0  0
  5  6  1  0  0  0  0
M  END
> <DATABASE_ID>
DB11129

> <DATABASE_NAME>
drugbank

> <SMILES>
OO.NC(N)=O

> <INCHI_IDENTIFIER>
InChI=1S/CH4N2O.H2O2/c2-1(3)4;1-2/h(H4,2,3,4);1-2H

> <INCHI_KEY>
AQLJVWUFPCUVLO-UHFFFAOYSA-N

> <FORMULA>
CH6N2O3

> <MOLECULAR_WEIGHT>
94.07

> <EXACT_MASS>
94.037842061

> <JCHEM_ACCEPTOR_COUNT>
1

> <JCHEM_ATOM_COUNT>
12

> <JCHEM_AVERAGE_NEUTRAL_MICROSPECIES_CHARGE>
-1.4258194749988955e-09

> <JCHEM_AVERAGE_POLARIZABILITY>
5.103029304550027

> <JCHEM_BIOAVAILABILITY>
1

> <JCHEM_DONOR_COUNT>
2

> <JCHEM_FORMAL_CHARGE>
0

> <JCHEM_GHOSE_FILTER>
0

> <JCHEM_IUPAC>
peroxol; urea

> <ALOGPS_LOGP>
-1.78

> <JCHEM_LOGP>
-1.3638338616666665

> <ALOGPS_LOGS>
0.84

> <JCHEM_MDDR_LIKE_RULE>
0

> <JCHEM_NEUTRAL_CHARGE>
0

> <JCHEM_NUMBER_OF_RINGS>
0

> <JCHEM_PHYSIOLOGICAL_CHARGE>
0

> <JCHEM_PKA_STRONGEST_ACIDIC>
15.731965106806724

> <JCHEM_PKA_STRONGEST_BASIC>
-2.3686972237578967

> <JCHEM_POLAR_SURFACE_AREA>
69.11

> <JCHEM_REFRACTIVITY>
13.1426

> <JCHEM_ROTATABLE_BOND_COUNT>
0

> <JCHEM_RULE_OF_FIVE>
1

> <ALOGPS_SOLUBILITY>
4.12e+02 g/l

> <JCHEM_TRADITIONAL_IUPAC>
fidaxomicin

> <JCHEM_VEBER_RULE>
0

> <DRUGBANK_ID>
DB11129

> <DRUG_GROUPS>
approved

> <GENERIC_NAME>
Carbamide peroxide

> <SYNONYMS>
Carbamide peroxide; Hydrogen peroxide carbamide; Urea dioxide; Urea hydrogen peroxide; Urea peroxide

> <PRODUCTS>
Audiologists Choice Earwax Removal Aid Drops; Audiologists Choice Earwax Removal System; Auralyt; Auro Ear Wax Remover; Best Choice Earwax Removal Drops; Best Choice Earwax Removal Kit; CVS Earwax Removal Aid; CareOne Earwax Removal Drops; CareOne Earwax Removal Kit, Earwax and Bulb; Cleanse Right Ear Wax Drops; Clear canal Earwax softener drops; ClearCanal Ear Wax Softerner Drops; Clinere Ear Wax Remover; Cvs Earwax Rem Cvs; DISCOUNT drug mart FOOD FAIR earwax removal kit; Debrox; Discount Drug Mart Earwax Removal Drops; Dr. Whitiss (8.3%); Dr.Whitiss 10%; Dr.Whitiss 15%; Dr.Whitiss 20%; Dr.Whitiss 35%; EAR WAX RMVL Rite Aid; ENT Essentials Ear Wax Remvoer; Ear Drops; Ear Drops (Carbamide Peroxide 6.5%) Major; Ear Drops Earwax Removal Aid; Ear Drops Earwax Removal Aid CVS; Ear Drops Major; Ear System GNP; Ear Wax Kit Well at Walgreens; Ear Wax Removal; Ear Wax Removal Aid; Ear Wax Removal Aid Drops; Ear Wax Removal Drops; Ear Wax Removal Drops Equate; Ear Wax Removal Drops Preferred Plus Pharmacy; Ear Wax Removal System; Ear Wax Removal System Rite Aid; Ear Wax Remover; Ear Wax Removing Drops Carbamide Peroxide; Ear Wax Rmvl Cvs; Ear Wax Treatment; EarClearRx; EarWax Removal Kit; EarWax Removal Kit Rite Aid; Earwax Rem Cvs; Earwax Removal; Earwax Removal Aid; Earwax Removal Drops; Earwax Removal Drops Equate; Earwax Removal Kit; Earwax Treatment Drops; Earwax Treatment Drops Rugby; Endoperox 100%; Equaline Earwax Removal Drops; Family Care Earwax Removal; Family Wellness Earwax Removal Earwax and Bulb; Gly-Oxide; Good Neighbor Pharmacy Ear System; Good Neighbor Pharmacy Earwax Removal; Good Neighbor Pharmacy Earwax Removal Drops; Hal Hen Earwax Removal Aid Drops; Hal-Hen Earwax Removal System; Harris Teeter Earwax Removal Drops; HealthMart Ear Wax Removal Drops; HealthMart Earwax Removal Kit Ear wax drops and Bulb; LEADER Earwax Removal Kit; Lutooth Tooth Whitening; Lutooth Tooth Whitening Kit; Meijer Earwax Removal Drops; Murine Ear Wax Removal Drops; Murine Earwax Removal Sys-murine Ear Dps; NeilMed Clear Canal Earwax Removal kit; Oral Peroxide; Otix Ear wax Removal Drops; Otix Ear wax Removal System Ear wax and Bulb; Quality Choice Earwax Removal Drops; Quality Choice Earwax Removal Kit; Rexall Earwax Removal; Select Brand Earwax Removal Drops; SuavEar; SuavEar Earwax Removal Aid; Tech Care Earwax Removal Drops; Tech Care Earwax Removal Kit; Thera-Ear; Tilcare; TopCare Earwax Removal Drops; TopCare Earwax Removal Kit; Urea Peroxide; Walgreens Ear Wax Remover; Wax B Gone Ear Wax Removal Drops; Wax Out Plus; WaxRx Ear Wax Removal Aid Drops

> <INTERNATIONAL_BRANDS>
Aquadrate; Balneum plus; Calmurid; Eucerin; Flexifoot; Flexitol; Hydromol intensive; Nutraplus; Sential E; St.James balm; Ureaphil

$$$$
