
  Mrv1909 09132222132D          

 37 40  0  0  1  0            999 V2000
    2.2580   -2.3340    0.0000 H   0  0  0  0  0  0  0  0  0  0  0  0
    3.0683   -2.4895    0.0000 C   0  0  1  0  0  0  0  0  0  0  0  0
    2.8390   -1.6970    0.0000 C   0  0  0  0  0  0  0  0  0  0  0  0
    3.5218   -1.2340    0.0000 C   0  0  0  0  0  0  0  0  0  0  0  0
    4.1731   -1.7404    0.0000 C   0  0  1  0  0  0  0  0  0  0  0  0
    4.3708   -0.9394    0.0000 O   0  0  0  0  0  0  0  0  0  0  0  0
    4.9853   -1.5952    0.0000 C   0  0  0  0  0  0  0  0  0  0  0  0
    5.2655   -0.8192    0.0000 C   0  0  0  0  0  0  0  0  0  0  0  0
    6.0777   -0.6740    0.0000 C   0  0  0  0  0  0  0  0  0  0  0  0
    6.3580    0.1019    0.0000 O   0  0  0  0  0  0  0  0  0  0  0  0
    6.6095   -1.3047    0.0000 C   0  0  2  0  0  0  0  0  0  0  0  0
    7.1413   -1.9354    0.0000 H   0  0  0  0  0  0  0  0  0  0  0  0
    7.4216   -1.1595    0.0000 C   0  0  0  0  0  0  0  0  0  0  0  0
    7.9534   -1.7902    0.0000 C   0  0  1  0  0  0  0  0  0  0  0  0
    8.7655   -1.6450    0.0000 O   0  0  0  0  0  0  0  0  0  0  0  0
    7.6731   -2.5662    0.0000 C   0  0  1  0  0  0  0  0  0  0  0  0
    8.2049   -3.1969    0.0000 O   0  0  0  0  0  0  0  0  0  0  0  0
    6.8610   -2.7114    0.0000 C   0  0  0  0  0  0  0  0  0  0  0  0
    6.3292   -2.0807    0.0000 C   0  0  1  0  0  0  0  0  0  0  0  0
    6.0489   -2.8566    0.0000 C   0  0  0  0  0  0  0  0  0  0  0  0
    5.5171   -2.2259    0.0000 C   0  0  1  0  0  0  0  0  0  0  0  0
    4.7050   -2.3711    0.0000 H   0  0  0  0  0  0  0  0  0  0  0  0
    5.2368   -3.0018    0.0000 C   0  0  0  0  0  0  0  0  0  0  0  0
    4.4247   -3.1470    0.0000 C   0  0  0  0  0  0  0  0  0  0  0  0
    3.8928   -2.5163    0.0000 C   0  0  2  0  0  0  0  0  0  0  0  0
    3.5330   -3.2587    0.0000 C   0  0  0  0  0  0  0  0  0  0  0  0
    2.5619   -3.1408    0.0000 C   0  0  1  0  0  0  0  0  0  0  0  0
    1.9106   -2.6345    0.0000 C   0  0  0  0  0  0  0  0  0  0  0  0
    3.2132   -3.6472    0.0000 O   0  0  0  0  0  0  0  0  0  0  0  0
    2.0556   -3.7922    0.0000 C   0  0  2  0  0  0  0  0  0  0  0  0
    1.2383   -3.6793    0.0000 O   0  0  0  0  0  0  0  0  0  0  0  0
    2.3665   -4.5563    0.0000 C   0  0  0  0  0  0  0  0  0  0  0  0
    1.8601   -5.2077    0.0000 C   0  0  0  0  0  0  0  0  0  0  0  0
    2.1710   -5.9718    0.0000 C   0  0  0  0  0  0  0  0  0  0  0  0
    2.4819   -6.7360    0.0000 C   0  0  0  0  0  0  0  0  0  0  0  0
    1.4068   -6.2827    0.0000 C   0  0  0  0  0  0  0  0  0  0  0  0
    2.9352   -5.6610    0.0000 O   0  0  0  0  0  0  0  0  0  0  0  0
  2  1  1  6  0  0  0
  2  3  1  0  0  0  0
  3  4  1  0  0  0  0
  5  4  1  0  0  0  0
  5  6  1  6  0  0  0
  5  7  1  0  0  0  0
  7  8  2  0  0  0  0
  8  9  1  0  0  0  0
  9 10  2  0  0  0  0
 11  9  1  0  0  0  0
 11 12  1  1  0  0  0
 11 13  1  0  0  0  0
 14 13  1  0  0  0  0
 14 15  1  1  0  0  0
 14 16  1  0  0  0  0
 16 17  1  1  0  0  0
 16 18  1  0  0  0  0
 19 18  1  0  0  0  0
 19 11  1  0  0  0  0
 19 20  1  1  0  0  0
 19 21  1  0  0  0  0
 21  7  1  0  0  0  0
 21 22  1  6  0  0  0
 21 23  1  0  0  0  0
 23 24  1  0  0  0  0
 25 24  1  0  0  0  0
  2 25  1  0  0  0  0
 25  5  1  0  0  0  0
 25 26  1  1  0  0  0
  2 27  1  1  0  0  0
 27 28  1  0  0  0  0
 27 29  1  6  0  0  0
 27 30  1  1  0  0  0
 30 31  1  1  0  0  0
 30 32  1  0  0  0  0
 32 33  1  0  0  0  0
 33 34  1  0  0  0  0
 34 35  1  0  0  0  0
 34 36  1  0  0  0  0
 34 37  1  0  0  0  0
M  END
> <DATABASE_ID>
DB16935

> <DATABASE_NAME>
drugbank

> <SMILES>
[H][C@@]1(CC[C@@]2(O)C3=CC(=O)[C@]4([H])C[C@@H](O)[C@@H](O)C[C@]4(C)[C@@]3([H])CC[C@]12C)[C@@](C)(O)[C@H](O)CCC(C)(C)O

> <INCHI_IDENTIFIER>
InChI=1S/C27H44O7/c1-23(2,32)9-8-22(31)26(5,33)21-7-11-27(34)16-12-18(28)17-13-19(29)20(30)14-24(17,3)15(16)6-10-25(21,27)4/h12,15,17,19-22,29-34H,6-11,13-14H2,1-5H3/t15-,17-,19+,20-,21-,22+,24+,25+,26+,27+/m0/s1

> <INCHI_KEY>
NKDFYOWSKOHCCO-YPVLXUMRSA-N

> <FORMULA>
C27H44O7

> <MOLECULAR_WEIGHT>
480.642

> <EXACT_MASS>
480.308703757

> <JCHEM_ACCEPTOR_COUNT>
7

> <JCHEM_ATOM_COUNT>
78

> <JCHEM_AVERAGE_NEUTRAL_MICROSPECIES_CHARGE>
-8.256969105879291e-07

> <JCHEM_AVERAGE_POLARIZABILITY>
53.80567097097134

> <JCHEM_BIOAVAILABILITY>
1

> <JCHEM_DONOR_COUNT>
6

> <JCHEM_FORMAL_CHARGE>
0

> <JCHEM_GHOSE_FILTER>
0

> <JCHEM_IUPAC>
(1S,3aS,5aR,7R,8S,9aR,9bR,11aR)-3a,7,8-trihydroxy-9a,11a-dimethyl-1-[(2R,3R)-2,3,6-trihydroxy-6-methylheptan-2-yl]-1H,2H,3H,3aH,5H,5aH,6H,7H,8H,9H,9aH,9bH,10H,11H,11aH-cyclopenta[a]phenanthren-5-one

> <ALOGPS_LOGP>
1.30

> <JCHEM_LOGP>
0.6098622046666675

> <ALOGPS_LOGS>
-3.06

> <JCHEM_MDDR_LIKE_RULE>
0

> <JCHEM_NEUTRAL_CHARGE>
0

> <JCHEM_NUMBER_OF_RINGS>
4

> <JCHEM_PHYSIOLOGICAL_CHARGE>
0

> <JCHEM_PKA>
13.736227583537854

> <JCHEM_PKA_STRONGEST_ACIDIC>
13.257504636773962

> <JCHEM_PKA_STRONGEST_BASIC>
-2.627423734269491

> <JCHEM_POLAR_SURFACE_AREA>
138.45000000000002

> <JCHEM_REFRACTIVITY>
128.8758

> <JCHEM_ROTATABLE_BOND_COUNT>
5

> <JCHEM_RULE_OF_FIVE>
0

> <ALOGPS_SOLUBILITY>
4.15e-01 g/l

> <JCHEM_TRADITIONAL_IUPAC>
6-cyclopropaneamido-N-[hydroxy(2H2)methyl]-4-{[2-methoxy-3-(1-methyl-1,2,4-triazol-3-yl)phenyl]amino}pyridazine-3-carboxamide

> <JCHEM_VEBER_RULE>
0

> <DRUGBANK_ID>
DB16935

> <DRUG_GROUPS>
investigational

> <GENERIC_NAME>
20-Hydroxyecdysone

> <SYNONYMS>
20-hydroxy-.alpha.-ecdysone; Cholest-7-en-6-one, 2,3,14,20,22,25-hexahydroxy-, (2.beta.,3.beta.,5.beta.,22r)-; Commisterone; Crustecdyson; Crustecdysone; Ecdysten; Ecdysteron; Ecdysterone; Ekdisten; Isoinokosterone; Polypodin a; Polypodin c; Polypodine a; Polypodine c; Viticosterone

$$$$
