
  Mrv1652310211601332D          

 36 39  0  0  1  0            999 V2000
   -1.3979    4.8583    0.0000 C   0  0  0  0  0  0  0  0  0  0  0  0
   -0.6502    4.5096    0.0000 C   0  0  0  0  0  0  0  0  0  0  0  0
   -0.5783    3.6878    0.0000 C   0  0  0  0  0  0  0  0  0  0  0  0
    0.1694    3.3391    0.0000 C   0  0  0  0  0  0  0  0  0  0  0  0
    0.2413    2.5172    0.0000 C   0  0  2  0  0  0  0  0  0  0  0  0
    0.7145    1.8414    0.0000 C   0  0  1  0  0  0  0  0  0  0  0  0
   -0.1074    1.7695    0.0000 O   0  0  0  0  0  0  0  0  0  0  0  0
    1.5269    1.9847    0.0000 C   0  0  0  0  0  0  0  0  0  0  0  0
    1.1270    1.1270    0.0000 C   0  0  1  0  0  0  0  0  0  0  0  0
    1.9520    1.1270    0.0000 C   0  0  1  0  0  0  0  0  0  0  0  0
    2.3645    0.4125    0.0000 C   0  0  1  0  0  0  0  0  0  0  0  0
    1.9520   -0.3020    0.0000 C   0  0  0  0  0  0  0  0  0  0  0  0
    1.1270   -0.3020    0.0000 C   0  0  0  0  0  0  0  0  0  0  0  0
    0.7145    0.4125    0.0000 C   0  0  2  0  0  0  0  0  0  0  0  0
    0.0000    0.0000    0.0000 C   0  0  0  0  0  0  0  0  0  0  0  0
   -0.0000    0.8250    0.0000 O   0  0  0  0  0  0  0  0  0  0  0  0
    3.1895    0.4125    0.0000 O   0  0  0  0  0  0  0  0  0  0  0  0
    3.6020    1.1270    0.0000 C   0  0  0  0  0  0  0  0  0  0  0  0
    4.4270    1.1270    0.0000 O   0  0  0  0  0  0  0  0  0  0  0  0
    3.1895    1.8414    0.0000 C   0  0  0  0  0  0  0  0  0  0  0  0
    3.6020    2.5559    0.0000 C   0  0  0  0  0  0  0  0  0  0  0  0
    3.1895    3.2704    0.0000 C   0  0  0  0  0  0  0  0  0  0  0  0
    2.3645    3.2704    0.0000 C   0  0  0  0  0  0  0  0  0  0  0  0
    1.9520    3.9849    0.0000 C   0  0  0  0  0  0  0  0  0  0  0  0
    2.3645    4.6993    0.0000 C   0  0  0  0  0  0  0  0  0  0  0  0
    3.1895    4.6993    0.0000 C   0  0  0  0  0  0  0  0  0  0  0  0
    3.6020    3.9849    0.0000 C   0  0  0  0  0  0  0  0  0  0  0  0
    1.9520    5.4138    0.0000 O   0  0  0  0  0  0  0  0  0  0  0  0
    2.3645    6.1283    0.0000 C   0  0  0  0  0  0  0  0  0  0  0  0
    1.9520    6.8427    0.0000 C   0  0  0  0  0  0  0  0  0  0  0  0
    2.3645    7.5572    0.0000 N   0  0  0  0  0  0  0  0  0  0  0  0
    1.9520    8.2717    0.0000 C   0  0  0  0  0  0  0  0  0  0  0  0
    3.1895    7.5572    0.0000 C   0  0  0  0  0  0  0  0  0  0  0  0
    2.3645    1.8414    0.0000 O   0  0  0  0  0  0  0  0  0  0  0  0
    1.9520    2.5559    0.0000 C   0  0  0  0  0  0  0  0  0  0  0  0
    0.0256    4.9828    0.0000 C   0  0  0  0  0  0  0  0  0  0  0  0
  1  2  1  0  0  0  0
  2  3  2  0  0  0  0
  3  4  1  0  0  0  0
  5  4  1  6  0  0  0
  5  6  1  0  0  0  0
  6  7  1  0  0  0  0
  5  7  1  0  0  0  0
  6  8  1  6  0  0  0
  6  9  1  1  0  0  0
  9 10  1  0  0  0  0
 10 11  1  0  0  0  0
 11 12  1  0  0  0  0
 12 13  1  0  0  0  0
 13 14  1  0  0  0  0
  9 14  1  1  0  0  0
 14 15  1  0  0  0  0
 15 16  1  0  0  0  0
 14 16  1  1  0  0  0
 11 17  1  6  0  0  0
 17 18  1  0  0  0  0
 18 19  2  0  0  0  0
 18 20  1  0  0  0  0
 20 21  2  0  0  0  0
 21 22  1  0  0  0  0
 22 23  2  0  0  0  0
 23 24  1  0  0  0  0
 24 25  2  0  0  0  0
 25 26  1  0  0  0  0
 26 27  2  0  0  0  0
 22 27  1  0  0  0  0
 25 28  1  0  0  0  0
 28 29  1  0  0  0  0
 29 30  1  0  0  0  0
 30 31  1  0  0  0  0
 31 32  1  0  0  0  0
 31 33  1  0  0  0  0
 10 34  1  6  0  0  0
 34 35  1  0  0  0  0
  2 36  1  0  0  0  0
M  END
> <DATABASE_ID>
DB12671

> <DATABASE_NAME>
drugbank

> <SMILES>
CO[C@@H]1[C@@H](CC[C@]2(CO2)[C@H]1[C@@]1(C)O[C@@H]1CC=C(C)C)OC(=O)\C=C\C1=CC=C(OCCN(C)C)C=C1

> <INCHI_IDENTIFIER>
InChI=1S/C29H41NO6/c1-20(2)7-13-24-28(3,36-24)27-26(32-6)23(15-16-29(27)19-34-29)35-25(31)14-10-21-8-11-22(12-9-21)33-18-17-30(4)5/h7-12,14,23-24,26-27H,13,15-19H2,1-6H3/b14-10+/t23-,24-,26-,27-,28+,29+/m1/s1

> <INCHI_KEY>
ZEZFKUBILQRZCK-MJSCXXSSSA-N

> <FORMULA>
C29H41NO6

> <MOLECULAR_WEIGHT>
499.648

> <EXACT_MASS>
499.293388044

> <JCHEM_ACCEPTOR_COUNT>
6

> <JCHEM_ATOM_COUNT>
77

> <JCHEM_AVERAGE_POLARIZABILITY>
57.662824709656896

> <JCHEM_BIOAVAILABILITY>
1

> <JCHEM_DONOR_COUNT>
0

> <JCHEM_FORMAL_CHARGE>
0

> <JCHEM_GHOSE_FILTER>
0

> <JCHEM_IUPAC>
(3R,4S,5S,6R)-5-methoxy-4-[(2R,3R)-2-methyl-3-(3-methylbut-2-en-1-yl)oxiran-2-yl]-1-oxaspiro[2.5]octan-6-yl (2E)-3-{4-[2-(dimethylamino)ethoxy]phenyl}prop-2-enoate

> <ALOGPS_LOGP>
4.15

> <JCHEM_LOGP>
4.504981832333331

> <ALOGPS_LOGS>
-5.28

> <JCHEM_MDDR_LIKE_RULE>
1

> <JCHEM_NUMBER_OF_RINGS>
4

> <JCHEM_PHYSIOLOGICAL_CHARGE>
1

> <JCHEM_PKA_STRONGEST_BASIC>
8.768310825415725

> <JCHEM_POLAR_SURFACE_AREA>
73.06

> <JCHEM_REFRACTIVITY>
140.3542

> <JCHEM_ROTATABLE_BOND_COUNT>
12

> <JCHEM_RULE_OF_FIVE>
1

> <ALOGPS_SOLUBILITY>
2.64e-03 g/l

> <JCHEM_TRADITIONAL_IUPAC>
(3R,4S,5S,6R)-5-methoxy-4-[(2R,3R)-2-methyl-3-(3-methylbut-2-en-1-yl)oxiran-2-yl]-1-oxaspiro[2.5]octan-6-yl (2E)-3-{4-[2-(dimethylamino)ethoxy]phenyl}prop-2-enoate

> <JCHEM_VEBER_RULE>
0

> <DRUGBANK_ID>
DB12671

> <DRUG_GROUPS>
investigational

> <GENERIC_NAME>
Beloranib

> <SYNONYMS>
Beloranib

$$$$
