
  Mrv1909 11181916052D          

 23 22  0  0  0  0            999 V2000
   -0.3587    0.2036    0.0000 O   0  0  0  0  0  0  0  0  0  0  0  0
    1.0666    4.3341    0.0000 O   0  0  0  0  0  0  0  0  0  0  0  0
    2.5016    4.3341    0.0000 O   0  0  0  0  0  0  0  0  0  0  0  0
    2.5016    2.6858    0.0000 C   0  0  0  0  0  0  0  0  0  0  0  0
    2.5016    1.8616    0.0000 C   0  0  0  0  0  0  0  0  0  0  0  0
   -0.3587   -0.6205    0.0000 C   0  0  2  0  0  0  0  0  0  0  0  0
   -1.0763   -1.0277    0.0000 C   0  0  0  0  0  0  0  0  0  0  0  0
    1.7841    3.0930    0.0000 C   0  0  0  0  0  0  0  0  0  0  0  0
    3.2191    1.4447    0.0000 C   0  0  0  0  0  0  0  0  0  0  0  0
   -1.7938   -0.6205    0.0000 C   0  0  0  0  0  0  0  0  0  0  0  0
    0.3587   -1.0277    0.0000 C   0  0  0  0  0  0  0  0  0  0  0  0
    2.5016    0.2036    0.0000 C   0  0  0  0  0  0  0  0  0  0  0  0
    3.2191    0.6205    0.0000 C   0  0  0  0  0  0  0  0  0  0  0  0
   -2.5016   -1.8616    0.0000 C   0  0  0  0  0  0  0  0  0  0  0  0
   -2.5016   -1.0277    0.0000 C   0  0  0  0  0  0  0  0  0  0  0  0
    1.0666   -0.6205    0.0000 C   0  0  0  0  0  0  0  0  0  0  0  0
    2.5016   -0.6205    0.0000 C   0  0  0  0  0  0  0  0  0  0  0  0
    1.7841    3.9269    0.0000 C   0  0  0  0  0  0  0  0  0  0  0  0
    1.7841   -1.0277    0.0000 C   0  0  0  0  0  0  0  0  0  0  0  0
   -3.2191   -2.2689    0.0000 C   0  0  0  0  0  0  0  0  0  0  0  0
   -3.2191   -3.0930    0.0000 C   0  0  0  0  0  0  0  0  0  0  0  0
   -2.5016   -3.5100    0.0000 C   0  0  0  0  0  0  0  0  0  0  0  0
   -2.5016   -4.3341    0.0000 C   0  0  0  0  0  0  0  0  0  0  0  0
  6  1  1  1  0  0  0
  2 18  1  0  0  0  0
  3 18  2  0  0  0  0
  4  5  1  0  0  0  0
  4  8  1  0  0  0  0
  5  9  1  0  0  0  0
  6  7  1  0  0  0  0
  6 11  1  0  0  0  0
  7 10  1  0  0  0  0
  8 18  1  0  0  0  0
  9 13  2  0  0  0  0
 10 15  2  0  0  0  0
 11 16  2  0  0  0  0
 12 13  1  0  0  0  0
 12 17  1  0  0  0  0
 14 15  1  0  0  0  0
 14 20  1  0  0  0  0
 16 19  1  0  0  0  0
 17 19  2  0  0  0  0
 20 21  2  0  0  0  0
 21 22  1  0  0  0  0
 22 23  1  0  0  0  0
M  END
> <DATABASE_ID>
DB15571

> <DATABASE_NAME>
drugbank

> <SMILES>
CC\C=C/C\C=C/C[C@@H](O)\C=C\C=C/C\C=C/CCCC(O)=O

> <INCHI_IDENTIFIER>
InChI=1S/C20H30O3/c1-2-3-4-5-10-13-16-19(21)17-14-11-8-6-7-9-12-15-18-20(22)23/h3-4,7-11,13-14,17,19,21H,2,5-6,12,15-16,18H2,1H3,(H,22,23)/b4-3-,9-7-,11-8-,13-10-,17-14+/t19-/m1/s1

> <INCHI_KEY>
MCRJLMXYVFDXLS-IHWYZUJNSA-N

> <FORMULA>
C20H30O3

> <MOLECULAR_WEIGHT>
318.457

> <EXACT_MASS>
318.219494826

> <JCHEM_ACCEPTOR_COUNT>
3

> <JCHEM_ATOM_COUNT>
53

> <JCHEM_AVERAGE_POLARIZABILITY>
37.18690541411134

> <JCHEM_BIOAVAILABILITY>
1

> <JCHEM_DONOR_COUNT>
2

> <JCHEM_FORMAL_CHARGE>
0

> <JCHEM_GHOSE_FILTER>
1

> <JCHEM_IUPAC>
(5Z,8Z,10E,12R,14Z,17Z)-12-hydroxyicosa-5,8,10,14,17-pentaenoic acid

> <ALOGPS_LOGP>
5.54

> <JCHEM_LOGP>
4.994438087333332

> <ALOGPS_LOGS>
-5.02

> <JCHEM_MDDR_LIKE_RULE>
0

> <JCHEM_NUMBER_OF_RINGS>
0

> <JCHEM_PHYSIOLOGICAL_CHARGE>
-1

> <JCHEM_PKA>
17.720819929173768

> <JCHEM_PKA_STRONGEST_ACIDIC>
4.88963064504959

> <JCHEM_PKA_STRONGEST_BASIC>
-1.6087135008400597

> <JCHEM_POLAR_SURFACE_AREA>
57.53

> <JCHEM_REFRACTIVITY>
102.5861

> <JCHEM_ROTATABLE_BOND_COUNT>
13

> <JCHEM_RULE_OF_FIVE>
1

> <ALOGPS_SOLUBILITY>
3.05e-03 g/l

> <JCHEM_TRADITIONAL_IUPAC>
12R-hepe

> <JCHEM_VEBER_RULE>
0

> <DRUGBANK_ID>
DB15571

> <DRUG_GROUPS>
experimental

> <GENERIC_NAME>
(12R)-12-hydroxyeicosapentaenoic acid

> <PRODUCTS>
Luvira

$$$$
