
  Mrv1652310211600452D          

 26 29  0  0  0  0            999 V2000
    4.2696    1.4288    0.0000 C   0  0  0  0  0  0  0  0  0  0  0  0
    3.4491    1.5150    0.0000 C   0  0  0  0  0  0  0  0  0  0  0  0
    2.8971    0.9019    0.0000 C   0  0  0  0  0  0  0  0  0  0  0  0
    2.1434    1.2375    0.0000 C   0  0  0  0  0  0  0  0  0  0  0  0
    2.2296    2.0580    0.0000 N   0  0  0  0  0  0  0  0  0  0  0  0
    3.0366    2.2295    0.0000 N   0  0  0  0  0  0  0  0  0  0  0  0
    1.4289    0.8250    0.0000 N   0  0  0  0  0  0  0  0  0  0  0  0
    1.4289    0.0000    0.0000 C   0  0  0  0  0  0  0  0  0  0  0  0
    2.1434   -0.4125    0.0000 C   0  0  0  0  0  0  0  0  0  0  0  0
    2.8579    0.0000    0.0000 C   0  0  0  0  0  0  0  0  0  0  0  0
    3.5724   -0.4125    0.0000 C   0  0  0  0  0  0  0  0  0  0  0  0
    3.5724   -1.2375    0.0000 C   0  0  0  0  0  0  0  0  0  0  0  0
    2.8579   -1.6500    0.0000 C   0  0  0  0  0  0  0  0  0  0  0  0
    2.1434   -1.2375    0.0000 C   0  0  0  0  0  0  0  0  0  0  0  0
    1.4289   -1.6500    0.0000 N   0  0  0  0  0  0  0  0  0  0  0  0
    0.7145   -1.2375    0.0000 C   0  0  0  0  0  0  0  0  0  0  0  0
    0.7145   -0.4125    0.0000 N   0  0  0  0  0  0  0  0  0  0  0  0
    0.0000   -1.6500    0.0000 C   0  0  0  0  0  0  0  0  0  0  0  0
   -0.7145   -1.2375    0.0000 C   0  0  0  0  0  0  0  0  0  0  0  0
   -1.4289   -1.6500    0.0000 C   0  0  0  0  0  0  0  0  0  0  0  0
   -2.1434   -1.2375    0.0000 C   0  0  0  0  0  0  0  0  0  0  0  0
   -2.1434   -0.4125    0.0000 C   0  0  0  0  0  0  0  0  0  0  0  0
   -1.4289   -0.0000    0.0000 C   0  0  0  0  0  0  0  0  0  0  0  0
   -0.7145   -0.4125    0.0000 C   0  0  0  0  0  0  0  0  0  0  0  0
   -2.8579   -0.0000    0.0000 F   0  0  0  0  0  0  0  0  0  0  0  0
    0.0000   -2.4750    0.0000 O   0  0  0  0  0  0  0  0  0  0  0  0
  1  2  1  0  0  0  0
  2  3  2  0  0  0  0
  3  4  1  0  0  0  0
  4  5  2  0  0  0  0
  5  6  1  0  0  0  0
  2  6  1  0  0  0  0
  4  7  1  0  0  0  0
  7  8  1  0  0  0  0
  8  9  1  0  0  0  0
  9 10  2  0  0  0  0
 10 11  1  0  0  0  0
 11 12  2  0  0  0  0
 12 13  1  0  0  0  0
 13 14  2  0  0  0  0
  9 14  1  0  0  0  0
 14 15  1  0  0  0  0
 15 16  2  0  0  0  0
 16 17  1  0  0  0  0
  8 17  2  0  0  0  0
 16 18  1  0  0  0  0
 18 19  1  0  0  0  0
 19 20  2  0  0  0  0
 20 21  1  0  0  0  0
 21 22  2  0  0  0  0
 22 23  1  0  0  0  0
 23 24  2  0  0  0  0
 19 24  1  0  0  0  0
 22 25  1  0  0  0  0
 18 26  1  0  0  0  0
M  END
> <DATABASE_ID>
DB12535

> <DATABASE_NAME>
drugbank

> <SMILES>
CC1=CC(NC2=NC(=NC3=CC=CC=C23)C(O)C2=CC=C(F)C=C2)=NN1

> <INCHI_IDENTIFIER>
InChI=1S/C19H16FN5O/c1-11-10-16(25-24-11)22-18-14-4-2-3-5-15(14)21-19(23-18)17(26)12-6-8-13(20)9-7-12/h2-10,17,26H,1H3,(H2,21,22,23,24,25)

> <INCHI_KEY>
DCRWIATZWHLIPN-UHFFFAOYSA-N

> <FORMULA>
C19H16FN5O

> <MOLECULAR_WEIGHT>
349.369

> <EXACT_MASS>
349.133888318

> <JCHEM_ACCEPTOR_COUNT>
5

> <JCHEM_ATOM_COUNT>
42

> <JCHEM_AVERAGE_POLARIZABILITY>
35.703633089870884

> <JCHEM_BIOAVAILABILITY>
1

> <JCHEM_DONOR_COUNT>
3

> <JCHEM_FORMAL_CHARGE>
0

> <JCHEM_GHOSE_FILTER>
1

> <JCHEM_IUPAC>
(4-fluorophenyl)({4-[(5-methyl-1H-pyrazol-3-yl)amino]quinazolin-2-yl})methanol

> <ALOGPS_LOGP>
3.80

> <JCHEM_LOGP>
4.2036199519999995

> <ALOGPS_LOGS>
-4.13

> <JCHEM_MDDR_LIKE_RULE>
0

> <JCHEM_NUMBER_OF_RINGS>
4

> <JCHEM_PHYSIOLOGICAL_CHARGE>
0

> <JCHEM_PKA>
12.882380829846024

> <JCHEM_PKA_STRONGEST_ACIDIC>
12.232875337356582

> <JCHEM_PKA_STRONGEST_BASIC>
3.358256458566166

> <JCHEM_POLAR_SURFACE_AREA>
86.72000000000001

> <JCHEM_REFRACTIVITY>
97.65170000000002

> <JCHEM_ROTATABLE_BOND_COUNT>
4

> <JCHEM_RULE_OF_FIVE>
1

> <ALOGPS_SOLUBILITY>
2.59e-02 g/l

> <JCHEM_TRADITIONAL_IUPAC>
(4-fluorophenyl)({4-[(5-methyl-1H-pyrazol-3-yl)amino]quinazolin-2-yl})methanol

> <JCHEM_VEBER_RULE>
0

> <DRUGBANK_ID>
DB12535

> <DRUG_GROUPS>
investigational

> <GENERIC_NAME>
AC-430

$$$$
