
  Mrv1909 05201914582D          

 49 55  0  0  1  0            999 V2000
    1.9163   -2.6790    0.0000 C   0  0  0  0  0  0  0  0  0  0  0  0
    1.1279   -2.9220    0.0000 C   0  0  0  0  0  0  0  0  0  0  0  0
    0.5233   -2.3607    0.0000 C   0  0  0  0  0  0  0  0  0  0  0  0
    0.9442   -3.7263    0.0000 C   0  0  2  0  0  0  0  0  0  0  0  0
    0.1855   -4.0503    0.0000 C   0  0  0  0  0  0  0  0  0  0  0  0
    0.2592   -4.8720    0.0000 C   0  0  0  0  0  0  0  0  0  0  0  0
    1.0635   -5.0558    0.0000 C   0  0  2  0  0  0  0  0  0  0  0  0
    1.4651   -5.7765    0.0000 C   0  0  0  0  0  0  0  0  0  0  0  0
    2.2900   -5.7890    0.0000 C   0  0  0  0  0  0  0  0  0  0  0  0
    2.7133   -5.0809    0.0000 C   0  0  2  0  0  0  0  0  0  0  0  0
    3.1149   -5.8016    0.0000 C   0  0  0  0  0  0  0  0  0  0  0  0
    2.3117   -4.3603    0.0000 C   0  0  2  0  0  0  0  0  0  0  0  0
    2.7350   -3.6521    0.0000 C   0  0  0  0  0  0  0  0  0  0  0  0
    3.5599   -3.6647    0.0000 C   0  0  0  0  0  0  0  0  0  0  0  0
    3.9615   -4.3853    0.0000 C   0  0  2  0  0  0  0  0  0  0  0  0
    4.7864   -4.3979    0.0000 C   0  0  1  0  0  0  0  0  0  0  0  0
    4.3848   -3.6772    0.0000 C   0  0  0  0  0  0  0  0  0  0  0  0
    5.2097   -3.6898    0.0000 C   0  0  0  0  0  0  0  0  0  0  0  0
    6.0346   -3.7023    0.0000 C   0  0  0  0  0  0  0  0  0  0  0  0
    6.4362   -4.4230    0.0000 C   0  0  0  0  0  0  0  0  0  0  0  0
    7.2611   -4.4355    0.0000 C   0  0  0  0  0  0  0  0  0  0  0  0
    7.6845   -3.7274    0.0000 C   0  0  0  0  0  0  0  0  0  0  0  0
    8.5094   -3.7400    0.0000 C   0  0  0  0  0  0  0  0  0  0  0  0
    8.9109   -4.4606    0.0000 C   0  0  0  0  0  0  0  0  0  0  0  0
    8.4876   -5.1687    0.0000 C   0  0  0  0  0  0  0  0  0  0  0  0
    7.6627   -5.1562    0.0000 C   0  0  0  0  0  0  0  0  0  0  0  0
    9.7359   -4.4732    0.0000 C   0  0  0  0  0  0  0  0  0  0  0  0
   10.1374   -5.1938    0.0000 O   0  0  0  0  0  0  0  0  0  0  0  0
   10.1592   -3.7651    0.0000 O   0  0  0  0  0  0  0  0  0  0  0  0
    6.0129   -5.1311    0.0000 C   0  0  0  0  0  0  0  0  0  0  0  0
    6.7838   -5.4250    0.0000 C   0  0  0  0  0  0  0  0  0  0  0  0
    5.8573   -5.9413    0.0000 C   0  0  0  0  0  0  0  0  0  0  0  0
    5.1880   -5.1186    0.0000 C   0  0  2  0  0  0  0  0  0  0  0  0
    4.7647   -5.8267    0.0000 C   0  0  0  0  0  0  0  0  0  0  0  0
    3.9398   -5.8141    0.0000 C   0  0  0  0  0  0  0  0  0  0  0  0
    3.5382   -5.0935    0.0000 C   0  0  1  0  0  0  0  0  0  0  0  0
    3.6119   -5.9152    0.0000 C   0  0  0  0  0  0  0  0  0  0  0  0
    1.4868   -4.3477    0.0000 C   0  0  1  0  0  0  0  0  0  0  0  0
    0.5685   -5.7158    0.0000 N   0  0  0  0  0  0  0  0  0  0  0  0
   -0.2506   -5.6171    0.0000 C   0  0  0  0  0  0  0  0  0  0  0  0
   -0.7456   -6.2771    0.0000 C   0  0  0  0  0  0  0  0  0  0  0  0
   -1.5647   -6.1784    0.0000 N   0  0  0  0  0  0  0  0  0  0  0  0
   -2.0597   -6.8384    0.0000 C   0  0  0  0  0  0  0  0  0  0  0  0
   -2.8788   -6.7397    0.0000 C   0  0  0  0  0  0  0  0  0  0  0  0
   -3.2028   -5.9810    0.0000 S   0  0  0  0  0  0  0  0  0  0  0  0
   -3.8937   -6.4319    0.0000 O   0  0  0  0  0  0  0  0  0  0  0  0
   -3.7668   -5.3789    0.0000 O   0  0  0  0  0  0  0  0  0  0  0  0
   -2.7078   -5.3210    0.0000 C   0  0  0  0  0  0  0  0  0  0  0  0
   -1.8888   -5.4197    0.0000 C   0  0  0  0  0  0  0  0  0  0  0  0
  1  2  1  0  0  0  0
  2  3  2  0  0  0  0
  4  2  1  1  0  0  0
  4  5  1  0  0  0  0
  5  6  1  0  0  0  0
  7  6  1  0  0  0  0
  7  8  1  0  0  0  0
  8  9  1  0  0  0  0
 10  9  1  0  0  0  0
 10 11  1  1  0  0  0
 12 10  1  0  0  0  0
 12 13  1  1  0  0  0
 13 14  1  0  0  0  0
 15 14  1  6  0  0  0
 15 16  1  0  0  0  0
 16 17  1  6  0  0  0
 16 18  1  0  0  0  0
 18 19  1  0  0  0  0
 19 20  2  0  0  0  0
 20 21  1  0  0  0  0
 21 22  2  0  0  0  0
 22 23  1  0  0  0  0
 23 24  2  0  0  0  0
 24 25  1  0  0  0  0
 25 26  2  0  0  0  0
 21 26  1  0  0  0  0
 24 27  1  0  0  0  0
 27 28  1  0  0  0  0
 27 29  2  0  0  0  0
 20 30  1  0  0  0  0
 30 31  1  0  0  0  0
 30 32  1  0  0  0  0
 33 30  1  0  0  0  0
 16 33  1  0  0  0  0
 33 34  1  6  0  0  0
 34 35  1  0  0  0  0
 36 35  1  0  0  0  0
 10 36  1  0  0  0  0
 36 15  1  0  0  0  0
 36 37  1  6  0  0  0
 38 12  1  0  0  0  0
 38  4  1  6  0  0  0
 38  7  1  0  0  0  0
  7 39  1  6  0  0  0
 39 40  1  0  0  0  0
 40 41  1  0  0  0  0
 41 42  1  0  0  0  0
 42 43  1  0  0  0  0
 43 44  1  0  0  0  0
 44 45  1  0  0  0  0
 45 46  2  0  0  0  0
 45 47  2  0  0  0  0
 45 48  1  0  0  0  0
 48 49  1  0  0  0  0
 42 49  1  0  0  0  0
M  END
> <DATABASE_ID>
DB15193

> <DATABASE_NAME>
drugbank

> <SMILES>
CC(=C)[C@@H]1CC[C@@]2(CC[C@]3(C)[C@H](CC[C@@H]4[C@@]5(C)CC=C(C6=CC=C(C=C6)C(O)=O)C(C)(C)[C@@H]5CC[C@@]34C)[C@@H]12)NCCN1CCS(=O)(=O)CC1

> <INCHI_IDENTIFIER>
InChI=1S/C42H62N2O4S/c1-28(2)31-14-19-42(43-22-23-44-24-26-49(47,48)27-25-44)21-20-40(6)33(36(31)42)12-13-35-39(5)17-15-32(29-8-10-30(11-9-29)37(45)46)38(3,4)34(39)16-18-41(35,40)7/h8-11,15,31,33-36,43H,1,12-14,16-27H2,2-7H3,(H,45,46)/t31-,33+,34-,35+,36+,39-,40+,41+,42-/m0/s1

> <INCHI_KEY>
XDMUFNNPLXHNKA-ZTESCHFWSA-N

> <FORMULA>
C42H62N2O4S

> <MOLECULAR_WEIGHT>
691.03

> <EXACT_MASS>
690.443029658

> <JCHEM_ACCEPTOR_COUNT>
6

> <JCHEM_ATOM_COUNT>
111

> <JCHEM_AVERAGE_POLARIZABILITY>
81.48365850337794

> <JCHEM_BIOAVAILABILITY>
1

> <JCHEM_DONOR_COUNT>
2

> <JCHEM_FORMAL_CHARGE>
0

> <JCHEM_GHOSE_FILTER>
0

> <JCHEM_IUPAC>
4-[(1R,3aS,5aR,5bR,7aR,11aS,11bR,13aR,13bR)-3a-{[2-(1,1-dioxo-1lambda6-thiomorpholin-4-yl)ethyl]amino}-5a,5b,8,8,11a-pentamethyl-1-(prop-1-en-2-yl)-1H,2H,3H,3aH,4H,5H,5aH,5bH,6H,7H,7aH,8H,11H,11aH,11bH,12H,13H,13aH,13bH-cyclopenta[a]chrysen-9-yl]benzoic acid

> <ALOGPS_LOGP>
6.82

> <JCHEM_LOGP>
4.485826100804149

> <ALOGPS_LOGS>
-6.91

> <JCHEM_MDDR_LIKE_RULE>
1

> <JCHEM_NUMBER_OF_RINGS>
7

> <JCHEM_PHYSIOLOGICAL_CHARGE>
0

> <JCHEM_PKA_STRONGEST_ACIDIC>
4.102695823059945

> <JCHEM_PKA_STRONGEST_BASIC>
10.715324595063786

> <JCHEM_POLAR_SURFACE_AREA>
86.71000000000001

> <JCHEM_REFRACTIVITY>
199.32559999999998

> <JCHEM_ROTATABLE_BOND_COUNT>
7

> <JCHEM_RULE_OF_FIVE>
0

> <ALOGPS_SOLUBILITY>
8.57e-05 g/l

> <JCHEM_TRADITIONAL_IUPAC>
(2R)-14-fluoro-2-methyl-6,9,10,19-tetraazapentacyclo[14.2.1.0^{2,6}.0^{8,18}.0^{12,17}]nonadeca-1(18),8,12(17),13,15-pentaen-11-one

> <JCHEM_VEBER_RULE>
0

> <DRUGBANK_ID>
DB15193

> <DRUG_GROUPS>
investigational

> <GENERIC_NAME>
BMS-955176

$$$$
