
  Mrv1718001191817562D          

  6  3  0  0  0  0            999 V2000
    0.0160    0.7145    0.0000 O   0  5  0  0  0  0  0  0  0  0  0  0
    0.0160   -0.7145    0.0000 O   0  5  0  0  0  0  0  0  0  0  0  0
   -0.3964    0.0000    0.0000 C   0  0  0  0  0  0  0  0  0  0  0  0
   -1.2214    0.0000    0.0000 O   0  0  0  0  0  0  0  0  0  0  0  0
    1.2214    0.7145    0.0000 K   0  3  0  0  0  0  0  0  0  0  0  0
    1.2214   -0.7145    0.0000 K   0  3  0  0  0  0  0  0  0  0  0  0
  3  1  1  0  0  0  0
  3  2  1  0  0  0  0
  3  4  2  0  0  0  0
M  CHG  4   1  -1   2  -1   5   1   6   1
M  END
> <DATABASE_ID>
DB13977

> <DATABASE_NAME>
drugbank

> <SMILES>
[K+].[K+].[O-]C([O-])=O

> <INCHI_IDENTIFIER>
InChI=1S/CH2O3.2K/c2-1(3)4;;/h(H2,2,3,4);;/q;2*+1/p-2

> <INCHI_KEY>
BWHMMNNQKKPAPP-UHFFFAOYSA-L

> <FORMULA>
CK2O3

> <MOLECULAR_WEIGHT>
138.2055

> <EXACT_MASS>
137.912157588

> <JCHEM_ACCEPTOR_COUNT>
3

> <JCHEM_ATOM_COUNT>
6

> <JCHEM_AVERAGE_POLARIZABILITY>
3.515525686064489

> <JCHEM_BIOAVAILABILITY>
1

> <JCHEM_DONOR_COUNT>
0

> <JCHEM_FORMAL_CHARGE>
0

> <JCHEM_GHOSE_FILTER>
0

> <JCHEM_IUPAC>
dipotassium carbonate

> <ALOGPS_LOGP>
-0.49

> <JCHEM_LOGP>
0.25005136566666664

> <ALOGPS_LOGS>
0.34

> <JCHEM_MDDR_LIKE_RULE>
0

> <JCHEM_NUMBER_OF_RINGS>
0

> <JCHEM_PHYSIOLOGICAL_CHARGE>
-1

> <JCHEM_PKA>
10.638414228618219

> <JCHEM_PKA_STRONGEST_ACIDIC>
6.052541895520343

> <JCHEM_POLAR_SURFACE_AREA>
63.19

> <JCHEM_REFRACTIVITY>
31.172400000000003

> <JCHEM_ROTATABLE_BOND_COUNT>
0

> <JCHEM_RULE_OF_FIVE>
1

> <ALOGPS_SOLUBILITY>
3.03e+02 g/l

> <JCHEM_TRADITIONAL_IUPAC>
potassium carbonate

> <JCHEM_VEBER_RULE>
0

> <DRUGBANK_ID>
DB13977

> <DRUG_GROUPS>
approved

> <GENERIC_NAME>
Potassium carbonate

> <SYNONYMS>
Carbonate of potash; Carbonic acid, dipotassium salt; Dipotassium carbonate; Kaliumcarbonat; Potash, sulfurated; Potassium carbonate; Potassium carbonate, anhydrous

> <PRODUCTS>
Buffered Vitamin C Powder With Ca Mg and K; Cleaning-S; Face-body-S; Food-S; Greenfish, Body-S; Greenfish, Cleaning-S; Greenfish, Food-S; Moonstar Face and Body Mist; Moonstar Hair Mist; Naro Como; Naro Quinn; Naro Tiamo; Sanitalk - Sanitizer(covid-19); Sanitalk Green - Fruit ,vegetable; Vit C W Calc-mag and Potass Powder; Zeroq; Zeroq Face Body; Zeroq Food

> <INTERNATIONAL_BRANDS>
Racol

$$$$
