
  Mrv1652310201623272D          

 16 17  0  0  1  0            999 V2000
    3.5724    6.7661    0.0000 C   0  0  0  0  0  0  0  0  0  0  0  0
    3.5724    5.9411    0.0000 C   0  0  0  0  0  0  0  0  0  0  0  0
    4.2868    5.5286    0.0000 C   0  0  0  0  0  0  0  0  0  0  0  0
    4.2868    4.7036    0.0000 C   0  0  0  0  0  0  0  0  0  0  0  0
    3.5724    4.2911    0.0000 C   0  0  0  0  0  0  0  0  0  0  0  0
    2.8579    4.7036    0.0000 C   0  0  0  0  0  0  0  0  0  0  0  0
    2.8579    5.5286    0.0000 C   0  0  0  0  0  0  0  0  0  0  0  0
    2.1434    5.9411    0.0000 C   0  0  0  0  0  0  0  0  0  0  0  0
    2.1434    4.2911    0.0000 C   0  0  2  0  0  0  0  0  0  0  0  0
    1.4289    4.7036    0.0000 C   0  0  0  0  0  0  0  0  0  0  0  0
    2.1434    3.4661    0.0000 C   0  0  0  0  0  0  0  0  0  0  0  0
    2.8109    2.9812    0.0000 C   0  0  0  0  0  0  0  0  0  0  0  0
    2.5559    2.1965    0.0000 N   0  0  0  0  0  0  0  0  0  0  0  0
    1.7309    2.1965    0.0000 C   0  0  0  0  0  0  0  0  0  0  0  0
    1.2460    1.5291    0.0000 S   0  0  0  0  0  0  0  0  0  0  0  0
    1.4760    2.9812    0.0000 N   0  0  0  0  0  0  0  0  0  0  0  0
  1  2  1  0  0  0  0
  2  3  2  0  0  0  0
  3  4  1  0  0  0  0
  4  5  2  0  0  0  0
  5  6  1  0  0  0  0
  6  7  2  0  0  0  0
  2  7  1  0  0  0  0
  7  8  1  0  0  0  0
  6  9  1  0  0  0  0
  9 10  1  1  0  0  0
  9 11  1  0  0  0  0
 11 12  2  0  0  0  0
 12 13  1  0  0  0  0
 13 14  1  0  0  0  0
 14 15  2  0  0  0  0
 14 16  1  0  0  0  0
 11 16  1  0  0  0  0
M  END
> <DATABASE_ID>
DB12143

> <DATABASE_NAME>
drugbank

> <SMILES>
C[C@H](C1=CNC(=S)N1)C1=C(C)C(C)=CC=C1

> <INCHI_IDENTIFIER>
InChI=1S/C13H16N2S/c1-8-5-4-6-11(9(8)2)10(3)12-7-14-13(16)15-12/h4-7,10H,1-3H3,(H2,14,15,16)/t10-/m0/s1

> <INCHI_KEY>
WQXVKEDUCPMRRI-JTQLQIEISA-N

> <FORMULA>
C13H16N2S

> <MOLECULAR_WEIGHT>
232.35

> <EXACT_MASS>
232.103419697

> <JCHEM_ACCEPTOR_COUNT>
0

> <JCHEM_ATOM_COUNT>
32

> <JCHEM_AVERAGE_POLARIZABILITY>
26.526349374713753

> <JCHEM_BIOAVAILABILITY>
1

> <JCHEM_DONOR_COUNT>
2

> <JCHEM_FORMAL_CHARGE>
0

> <JCHEM_GHOSE_FILTER>
1

> <JCHEM_IUPAC>
4-[(1S)-1-(2,3-dimethylphenyl)ethyl]-2,3-dihydro-1H-imidazole-2-thione

> <ALOGPS_LOGP>
2.74

> <JCHEM_LOGP>
3.772209086666666

> <ALOGPS_LOGS>
-4.32

> <JCHEM_MDDR_LIKE_RULE>
0

> <JCHEM_NUMBER_OF_RINGS>
2

> <JCHEM_PHYSIOLOGICAL_CHARGE>
0

> <JCHEM_PKA>
11.461533522241307

> <JCHEM_PKA_STRONGEST_ACIDIC>
9.976624942153876

> <JCHEM_POLAR_SURFACE_AREA>
24.06

> <JCHEM_REFRACTIVITY>
73.32759999999999

> <JCHEM_ROTATABLE_BOND_COUNT>
2

> <JCHEM_RULE_OF_FIVE>
1

> <ALOGPS_SOLUBILITY>
1.11e-02 g/l

> <JCHEM_TRADITIONAL_IUPAC>
4-[(1S)-1-(2,3-dimethylphenyl)ethyl]-1,3-dihydroimidazole-2-thione

> <JCHEM_VEBER_RULE>
1

> <DRUGBANK_ID>
DB12143

> <DRUG_GROUPS>
investigational

> <GENERIC_NAME>
Rezatomidine

> <SYNONYMS>
Rezatomidine

> <SALTS>
Agn 203818 Hydrochloride

$$$$
