
  Mrv1652306231722382D          

 45 32  0  0  0  0            999 V2000
    0.8931    0.6394    0.0000 C   0  0  0  0  0  0  0  0  0  0  0  0
    0.8931   -0.1856    0.0000 C   0  0  0  0  0  0  0  0  0  0  0  0
    0.1786   -0.5981    0.0000 C   0  0  0  0  0  0  0  0  0  0  0  0
   -0.5359   -0.1856    0.0000 C   0  0  0  0  0  0  0  0  0  0  0  0
   -0.5359    0.6394    0.0000 C   0  0  0  0  0  0  0  0  0  0  0  0
    0.1786    1.0519    0.0000 C   0  0  0  0  0  0  0  0  0  0  0  0
    0.1786    1.8769    0.0000 O   0  5  0  0  0  0  0  0  0  0  0  0
   -1.2503    1.0519    0.0000 O   0  5  0  0  0  0  0  0  0  0  0  0
   -1.2503   -0.5981    0.0000 S   0  0  0  0  0  0  0  0  0  0  0  0
   -1.6628    0.1163    0.0000 O   0  0  0  0  0  0  0  0  0  0  0  0
   -0.8378   -1.3126    0.0000 O   0  0  0  0  0  0  0  0  0  0  0  0
   -1.9648   -1.0106    0.0000 O   0  5  0  0  0  0  0  0  0  0  0  0
    1.6076   -0.5981    0.0000 S   0  0  0  0  0  0  0  0  0  0  0  0
    1.1951   -1.3126    0.0000 O   0  0  0  0  0  0  0  0  0  0  0  0
    2.0201    0.1163    0.0000 O   0  0  0  0  0  0  0  0  0  0  0  0
    2.3220   -1.0106    0.0000 O   0  5  0  0  0  0  0  0  0  0  0  0
    8.4872    0.4813    0.0000 C   0  0  0  0  0  0  0  0  0  0  0  0
    8.4872   -0.3438    0.0000 C   0  0  0  0  0  0  0  0  0  0  0  0
    7.7728   -0.7563    0.0000 C   0  0  0  0  0  0  0  0  0  0  0  0
    7.0583   -0.3437    0.0000 C   0  0  0  0  0  0  0  0  0  0  0  0
    7.0583    0.4813    0.0000 C   0  0  0  0  0  0  0  0  0  0  0  0
    7.7728    0.8938    0.0000 C   0  0  0  0  0  0  0  0  0  0  0  0
    7.7728    1.7188    0.0000 O   0  5  0  0  0  0  0  0  0  0  0  0
    6.3438    0.8938    0.0000 O   0  5  0  0  0  0  0  0  0  0  0  0
    6.3438   -0.7562    0.0000 S   0  0  0  0  0  0  0  0  0  0  0  0
    5.6294   -1.1687    0.0000 O   0  0  0  0  0  0  0  0  0  0  0  0
    5.9313   -0.0418    0.0000 O   0  0  0  0  0  0  0  0  0  0  0  0
    6.7563   -1.4707    0.0000 O   0  5  0  0  0  0  0  0  0  0  0  0
    9.2017   -0.7563    0.0000 S   0  0  0  0  0  0  0  0  0  0  0  0
    9.9162   -1.1688    0.0000 O   0  0  0  0  0  0  0  0  0  0  0  0
    9.6142   -0.0418    0.0000 O   0  0  0  0  0  0  0  0  0  0  0  0
    8.7892   -1.4707    0.0000 O   0  5  0  0  0  0  0  0  0  0  0  0
   12.2733    0.0000    0.0000 O   0  0  0  0  0  0  0  0  0  0  0  0
    0.0000   -3.1207    0.0000 O   0  0  0  0  0  0  0  0  0  0  0  0
    2.3571   -3.1207    0.0000 O   0  0  0  0  0  0  0  0  0  0  0  0
    4.7143   -3.1207    0.0000 O   0  0  0  0  0  0  0  0  0  0  0  0
    0.0000   -4.7707    0.0000 O   0  0  0  0  0  0  0  0  0  0  0  0
    2.3571   -4.7707    0.0000 O   0  0  0  0  0  0  0  0  0  0  0  0
    4.7143   -4.7707    0.0000 O   0  0  0  0  0  0  0  0  0  0  0  0
    0.1786    2.7019    0.0000 Na  0  3  0  0  0  0  0  0  0  0  0  0
   -1.9648    1.4644    0.0000 Na  0  3  0  0  0  0  0  0  0  0  0  0
   -2.6793   -1.4231    0.0000 Na  0  3  0  0  0  0  0  0  0  0  0  0
    3.0365   -1.4231    0.0000 Na  0  3  0  0  0  0  0  0  0  0  0  0
    7.7728    2.5438    0.0000 Na  0  3  0  0  0  0  0  0  0  0  0  0
    5.6294    1.3063    0.0000 Sb  0  1  0  0  0  0  0  0  0  0  0  0
  1  2  2  0  0  0  0
  2  3  1  0  0  0  0
  3  4  2  0  0  0  0
  4  5  1  0  0  0  0
  5  6  2  0  0  0  0
  1  6  1  0  0  0  0
  6  7  1  0  0  0  0
  5  8  1  0  0  0  0
  4  9  1  0  0  0  0
  9 10  2  0  0  0  0
  9 11  2  0  0  0  0
  9 12  1  0  0  0  0
  2 13  1  0  0  0  0
 13 14  2  0  0  0  0
 13 15  2  0  0  0  0
 13 16  1  0  0  0  0
 17 18  2  0  0  0  0
 18 19  1  0  0  0  0
 19 20  2  0  0  0  0
 20 21  1  0  0  0  0
 21 22  2  0  0  0  0
 17 22  1  0  0  0  0
 22 23  1  0  0  0  0
 21 24  1  0  0  0  0
 20 25  1  0  0  0  0
 25 26  2  0  0  0  0
 25 27  2  0  0  0  0
 25 28  1  0  0  0  0
 18 29  1  0  0  0  0
 29 30  2  0  0  0  0
 29 31  2  0  0  0  0
 29 32  1  0  0  0  0
M  CHG  8   7  -1   8  -1  12  -1  16  -1  23  -1  24  -1  28  -1  32  -1
M  CHG  6  40   1  41   1  42   1  43   1  44   1  45   3
M  END
> <DATABASE_ID>
DB13236

> <DATABASE_NAME>
drugbank

> <SMILES>
O.O.O.O.O.O.O.[Na+].[Na+].[Na+].[Na+].[Na+].[Sb+3].[O-]C1=C([O-])C(=CC(=C1)S([O-])(=O)=O)S([O-])(=O)=O.[O-]C1=C([O-])C(=CC(=C1)S([O-])(=O)=O)S([O-])(=O)=O

> <INCHI_IDENTIFIER>
InChI=1S/2C6H6O8S2.5Na.7H2O.Sb/c2*7-4-1-3(15(9,10)11)2-5(6(4)8)16(12,13)14;;;;;;;;;;;;;/h2*1-2,7-8H,(H,9,10,11)(H,12,13,14);;;;;;7*1H2;/q;;5*+1;;;;;;;;+3/p-8

> <INCHI_KEY>
ZDDUXABBRATYFS-UHFFFAOYSA-F

> <FORMULA>
C12H18Na5O23S4Sb

> <MOLECULAR_WEIGHT>
895.2

> <EXACT_MASS>
893.76483

> <JCHEM_ACCEPTOR_COUNT>
8

> <JCHEM_ATOM_COUNT>
63

> <JCHEM_AVERAGE_POLARIZABILITY>
20.05429982786344

> <JCHEM_BIOAVAILABILITY>
1

> <JCHEM_DONOR_COUNT>
0

> <JCHEM_FORMAL_CHARGE>
0

> <JCHEM_GHOSE_FILTER>
0

> <JCHEM_IUPAC>
antimony(3+) ion pentasodium bis(3,5-disulfobenzene-1,2-bis(olate)) heptahydrate

> <ALOGPS_LOGP>
1.04

> <JCHEM_LOGP>
0.377928606

> <ALOGPS_LOGS>
-2.75

> <JCHEM_MDDR_LIKE_RULE>
0

> <JCHEM_NUMBER_OF_RINGS>
2

> <JCHEM_PHYSIOLOGICAL_CHARGE>
-2

> <JCHEM_PKA>
-2.658171107349262

> <JCHEM_PKA_STRONGEST_ACIDIC>
-3.464658237574292

> <JCHEM_PKA_STRONGEST_BASIC>
-6.455233212407461

> <JCHEM_POLAR_SURFACE_AREA>
160.51999999999998

> <JCHEM_REFRACTIVITY>
70.12199999999999

> <JCHEM_ROTATABLE_BOND_COUNT>
4

> <JCHEM_RULE_OF_FIVE>
0

> <ALOGPS_SOLUBILITY>
9.19e-01 g/l

> <JCHEM_TRADITIONAL_IUPAC>
antimony(3+) ion pentasodium bis(3,5-disulfobenzene-1,2-bis(olate)) heptahydrate

> <JCHEM_VEBER_RULE>
0

> <DRUGBANK_ID>
DB13236

> <DRUG_GROUPS>
experimental

> <GENERIC_NAME>
Stibophen

$$$$
