
  Mrv1909 05201914482D          

 52 56  0  0  1  0            999 V2000
   -6.1753   -0.7743    0.0000 C   0  0  0  0  0  0  0  0  0  0  0  0
   -5.3907   -0.5193    0.0000 C   0  0  0  0  0  0  0  0  0  0  0  0
   -4.7776   -1.0713    0.0000 C   0  0  0  0  0  0  0  0  0  0  0  0
   -5.2192    0.2877    0.0000 C   0  0  0  0  0  0  0  0  0  0  0  0
   -4.4346    0.5426    0.0000 O   0  0  0  0  0  0  0  0  0  0  0  0
   -4.2630    1.3496    0.0000 C   0  0  0  0  0  0  0  0  0  0  0  0
   -4.8761    1.9016    0.0000 O   0  0  0  0  0  0  0  0  0  0  0  0
   -3.4784    1.6045    0.0000 C   0  0  2  0  0  0  0  0  0  0  0  0
   -2.8653    1.0525    0.0000 C   0  0  0  0  0  0  0  0  0  0  0  0
   -3.0368    0.2455    0.0000 C   0  0  0  0  0  0  0  0  0  0  0  0
   -2.4238   -0.3065    0.0000 C   0  0  0  0  0  0  0  0  0  0  0  0
   -2.5953   -1.1135    0.0000 C   0  0  0  0  0  0  0  0  0  0  0  0
   -3.3799   -1.3684    0.0000 C   0  0  0  0  0  0  0  0  0  0  0  0
   -3.9930   -0.8164    0.0000 C   0  0  0  0  0  0  0  0  0  0  0  0
   -3.8215   -0.0094    0.0000 C   0  0  0  0  0  0  0  0  0  0  0  0
   -3.3069    2.4115    0.0000 N   0  0  0  0  0  0  0  0  0  0  0  0
   -2.5223    2.6664    0.0000 P   0  0  0  0  0  0  0  0  0  0  0  0
   -1.7376    2.9214    0.0000 O   0  0  0  0  0  0  0  0  0  0  0  0
   -2.2673    1.8818    0.0000 C   0  0  0  0  0  0  0  0  0  0  0  0
   -1.4604    1.7103    0.0000 O   0  0  0  0  0  0  0  0  0  0  0  0
   -1.2054    0.9256    0.0000 C   0  0  0  0  0  0  0  0  0  0  0  0
   -0.3984    0.7541    0.0000 C   0  0  0  0  0  0  0  0  0  0  0  0
   -0.1435   -0.0305    0.0000 N   0  0  0  0  0  0  0  0  0  0  0  0
   -0.6284   -0.6979    0.0000 C   0  0  0  0  0  0  0  0  0  0  0  0
   -0.1435   -1.3654    0.0000 N   0  0  0  0  0  0  0  0  0  0  0  0
    0.6411   -1.1104    0.0000 C   0  0  0  0  0  0  0  0  0  0  0  0
    0.6411   -0.2854    0.0000 C   0  0  0  0  0  0  0  0  0  0  0  0
    1.3556    0.1271    0.0000 N   0  0  0  0  0  0  0  0  0  0  0  0
    2.0701   -0.2854    0.0000 C   0  0  0  0  0  0  0  0  0  0  0  0
    2.7845    0.1271    0.0000 N   0  0  0  0  0  0  0  0  0  0  0  0
    2.0701   -1.1104    0.0000 N   0  0  0  0  0  0  0  0  0  0  0  0
    1.3556   -1.5229    0.0000 C   0  0  0  0  0  0  0  0  0  0  0  0
    1.3556   -2.3479    0.0000 N   0  0  0  0  0  0  0  0  0  0  0  0
    2.0701   -2.7604    0.0000 C   0  0  0  0  0  0  0  0  0  0  0  0
    2.8951   -2.7604    0.0000 C   0  0  0  0  0  0  0  0  0  0  0  0
    2.4826   -3.4749    0.0000 C   0  0  0  0  0  0  0  0  0  0  0  0
   -2.7772    3.4510    0.0000 N   0  0  0  0  0  0  0  0  0  0  0  0
   -2.2252    4.0641    0.0000 C   0  0  1  0  0  0  0  0  0  0  0  0
   -1.4182    3.8926    0.0000 C   0  0  0  0  0  0  0  0  0  0  0  0
   -0.8662    4.5057    0.0000 C   0  0  0  0  0  0  0  0  0  0  0  0
   -1.1211    5.2903    0.0000 C   0  0  0  0  0  0  0  0  0  0  0  0
   -0.5691    5.9034    0.0000 C   0  0  0  0  0  0  0  0  0  0  0  0
    0.2379    5.7319    0.0000 C   0  0  0  0  0  0  0  0  0  0  0  0
    0.4928    4.9473    0.0000 C   0  0  0  0  0  0  0  0  0  0  0  0
   -0.0592    4.3342    0.0000 C   0  0  0  0  0  0  0  0  0  0  0  0
   -2.4801    4.8488    0.0000 C   0  0  0  0  0  0  0  0  0  0  0  0
   -1.9281    5.4618    0.0000 O   0  0  0  0  0  0  0  0  0  0  0  0
   -3.2871    5.0203    0.0000 O   0  0  0  0  0  0  0  0  0  0  0  0
   -3.5420    5.8049    0.0000 C   0  0  0  0  0  0  0  0  0  0  0  0
   -4.3490    5.9764    0.0000 C   0  0  0  0  0  0  0  0  0  0  0  0
   -4.9010    5.3633    0.0000 C   0  0  0  0  0  0  0  0  0  0  0  0
   -4.6039    6.7611    0.0000 C   0  0  0  0  0  0  0  0  0  0  0  0
  1  2  1  0  0  0  0
  2  3  1  0  0  0  0
  2  4  1  0  0  0  0
  4  5  1  0  0  0  0
  5  6  1  0  0  0  0
  6  7  2  0  0  0  0
  8  6  1  0  0  0  0
  8  9  1  0  0  0  0
  9 10  1  0  0  0  0
 10 11  2  0  0  0  0
 11 12  1  0  0  0  0
 12 13  2  0  0  0  0
 13 14  1  0  0  0  0
 14 15  2  0  0  0  0
 10 15  1  0  0  0  0
  8 16  1  1  0  0  0
 16 17  1  0  0  0  0
 17 18  2  0  0  0  0
 17 19  1  0  0  0  0
 19 20  1  0  0  0  0
 20 21  1  0  0  0  0
 21 22  1  0  0  0  0
 22 23  1  0  0  0  0
 23 24  1  0  0  0  0
 24 25  2  0  0  0  0
 25 26  1  0  0  0  0
 26 27  2  0  0  0  0
 23 27  1  0  0  0  0
 27 28  1  0  0  0  0
 28 29  2  0  0  0  0
 29 30  1  0  0  0  0
 29 31  1  0  0  0  0
 31 32  2  0  0  0  0
 26 32  1  0  0  0  0
 32 33  1  0  0  0  0
 33 34  1  0  0  0  0
 34 35  1  0  0  0  0
 35 36  1  0  0  0  0
 34 36  1  0  0  0  0
 17 37  1  0  0  0  0
 38 37  1  6  0  0  0
 38 39  1  0  0  0  0
 39 40  1  0  0  0  0
 40 41  2  0  0  0  0
 41 42  1  0  0  0  0
 42 43  2  0  0  0  0
 43 44  1  0  0  0  0
 44 45  2  0  0  0  0
 40 45  1  0  0  0  0
 38 46  1  0  0  0  0
 46 47  2  0  0  0  0
 46 48  1  0  0  0  0
 48 49  1  0  0  0  0
 49 50  1  0  0  0  0
 50 51  1  0  0  0  0
 50 52  1  0  0  0  0
M  END
> <DATABASE_ID>
DB15084

> <DATABASE_NAME>
drugbank

> <SMILES>
CC(C)COC(=O)[C@H](CC1=CC=CC=C1)NP(=O)(COCCN1C=NC2=C1N=C(N)N=C2NC1CC1)N[C@@H](CC1=CC=CC=C1)C(=O)OCC(C)C

> <INCHI_IDENTIFIER>
InChI=1S/C37H51N8O6P/c1-25(2)21-50-35(46)30(19-27-11-7-5-8-12-27)43-52(48,44-31(36(47)51-22-26(3)4)20-28-13-9-6-10-14-28)24-49-18-17-45-23-39-32-33(40-29-15-16-29)41-37(38)42-34(32)45/h5-14,23,25-26,29-31H,15-22,24H2,1-4H3,(H2,43,44,48)(H3,38,40,41,42)/t30-,31-/m0/s1

> <INCHI_KEY>
YTMOQFAFGKLYIW-CONSDPRKSA-N

> <FORMULA>
C37H51N8O6P

> <MOLECULAR_WEIGHT>
734.839

> <EXACT_MASS>
734.366918392

> <JCHEM_ACCEPTOR_COUNT>
9

> <JCHEM_ATOM_COUNT>
103

> <JCHEM_AVERAGE_POLARIZABILITY>
78.39556910477286

> <JCHEM_BIOAVAILABILITY>
0

> <JCHEM_DONOR_COUNT>
4

> <JCHEM_FORMAL_CHARGE>
0

> <JCHEM_GHOSE_FILTER>
0

> <JCHEM_IUPAC>
2-methylpropyl (2S)-2-{[({2-[2-amino-6-(cyclopropylamino)-9H-purin-9-yl]ethoxy}methyl)({[(2S)-1-(2-methylpropoxy)-1-oxo-3-phenylpropan-2-yl]amino})phosphoryl]amino}-3-phenylpropanoate

> <ALOGPS_LOGP>
3.52

> <JCHEM_LOGP>
4.953423972666663

> <ALOGPS_LOGS>
-5.14

> <JCHEM_MDDR_LIKE_RULE>
1

> <JCHEM_NUMBER_OF_RINGS>
5

> <JCHEM_PHYSIOLOGICAL_CHARGE>
0

> <JCHEM_PKA>
16.663364294053387

> <JCHEM_PKA_STRONGEST_ACIDIC>
12.484399296372244

> <JCHEM_PKA_STRONGEST_BASIC>
5.42781997862497

> <JCHEM_POLAR_SURFACE_AREA>
184.60999999999999

> <JCHEM_REFRACTIVITY>
200.75300000000001

> <JCHEM_ROTATABLE_BOND_COUNT>
23

> <JCHEM_RULE_OF_FIVE>
0

> <ALOGPS_SOLUBILITY>
5.27e-03 g/l

> <JCHEM_TRADITIONAL_IUPAC>
(2R)-14-fluoro-2-methyl-6,9,10,19-tetraazapentacyclo[14.2.1.0^{2,6}.0^{8,18}.0^{12,17}]nonadeca-1(18),8,12(17),13,15-pentaen-11-one

> <JCHEM_VEBER_RULE>
0

> <DRUGBANK_ID>
DB15084

> <DRUG_GROUPS>
investigational

> <GENERIC_NAME>
GS-9191

$$$$
