
  Mrv1909 03042004472D          

 73 76  0  0  0  0            999 V2000
    3.4832   -1.6499    0.0000 O   0  0  0  0  0  0  0  0  0  0  0  0
    2.0349    0.0366    0.0000 O   0  0  0  0  0  0  0  0  0  0  0  0
    0.6232    0.0366    0.0000 O   0  0  0  0  0  0  0  0  0  0  0  0
    4.9315   -1.6499    0.0000 O   0  0  0  0  0  0  0  0  0  0  0  0
    6.3432   -3.3182    0.0000 O   0  0  0  0  0  0  0  0  0  0  0  0
    0.6232   -1.6499    0.0000 O   0  0  0  0  0  0  0  0  0  0  0  0
    4.4365   -3.9782    0.0000 O   0  0  0  0  0  0  0  0  0  0  0  0
   -6.3065    1.5400    0.0000 O   0  0  0  0  0  0  0  0  0  0  0  0
   -0.4950   -1.0082    0.0000 O   0  0  0  0  0  0  0  0  0  0  0  0
   -5.6099    0.2566    0.0000 O   0  0  0  0  0  0  0  0  0  0  0  0
   -7.0031   -0.5316    0.0000 O   0  0  0  0  0  0  0  0  0  0  0  0
   -8.4698    0.2933    0.0000 O   0  0  0  0  0  0  0  0  0  0  0  0
    7.0581   -2.0716    0.0000 O   0  0  0  0  0  0  0  0  0  0  0  0
   -3.3549   -0.9899    0.0000 O   0  0  0  0  0  0  0  0  0  0  0  0
   -8.4698    1.9433    0.0000 O   0  0  0  0  0  0  0  0  0  0  0  0
   -2.6582    0.2566    0.0000 O   0  0  0  0  0  0  0  0  0  0  0  0
   -1.9616    3.9782    0.0000 O   0  0  0  0  0  0  0  0  0  0  0  0
    0.2199   -2.2365    0.0000 O   0  0  0  0  0  0  0  0  0  0  0  0
    1.6132    1.9065    0.0000 O   0  0  0  0  0  0  0  0  0  0  0  0
    2.0349   -2.4932    0.0000 N   0  0  0  0  0  0  0  0  0  0  0  0
    2.7682   -1.1916    0.0000 C   0  0  1  0  0  0  0  0  0  0  0  0
    2.0349   -1.6499    0.0000 C   0  0  1  0  0  0  0  0  0  0  0  0
    1.3200   -1.1916    0.0000 C   0  0  2  0  0  0  0  0  0  0  0  0
    1.3200   -0.3666    0.0000 C   0  0  1  0  0  0  0  0  0  0  0  0
    4.9315   -3.3182    0.0000 C   0  0  1  0  0  0  0  0  0  0  0  0
    2.7682   -0.3666    0.0000 C   0  0  1  0  0  0  0  0  0  0  0  0
    4.2165   -2.0716    0.0000 C   0  0  2  0  0  0  0  0  0  0  0  0
    5.6281   -2.8966    0.0000 C   0  0  2  0  0  0  0  0  0  0  0  0
    4.2165   -2.8966    0.0000 C   0  0  0  0  0  0  0  0  0  0  0  0
    5.6281   -2.0716    0.0000 C   0  0  2  0  0  0  0  0  0  0  0  0
   -0.4950    0.6600    0.0000 C   0  0  2  0  0  0  0  0  0  0  0  0
   -1.2099    0.2566    0.0000 C   0  0  2  0  0  0  0  0  0  0  0  0
   -0.4950    1.4850    0.0000 C   0  0  2  0  0  0  0  0  0  0  0  0
    5.4998   -3.8866    0.0000 C   0  0  0  0  0  0  0  0  0  0  0  0
    3.4832    0.0366    0.0000 C   0  0  0  0  0  0  0  0  0  0  0  0
   -1.2099   -0.5866    0.0000 C   0  0  1  0  0  0  0  0  0  0  0  0
    7.0581   -2.9149    0.0000 C   0  0  0  0  0  0  0  0  0  0  0  0
    6.3432   -1.6499    0.0000 C   0  0  0  0  0  0  0  0  0  0  0  0
    1.3200   -2.8966    0.0000 C   0  0  0  0  0  0  0  0  0  0  0  0
    2.7315   -2.8966    0.0000 C   0  0  0  0  0  0  0  0  0  0  0  0
   -7.0031    0.2933    0.0000 C   0  0  2  0  0  0  0  0  0  0  0  0
   -7.7547    0.7150    0.0000 C   0  0  1  0  0  0  0  0  0  0  0  0
   -6.3065    0.7150    0.0000 C   0  0  1  0  0  0  0  0  0  0  0  0
   -1.2099    1.9065    0.0000 C   0  0  0  0  0  0  0  0  0  0  0  0
   -7.7547    1.5400    0.0000 C   0  0  1  0  0  0  0  0  0  0  0  0
    0.2016    1.9065    0.0000 C   0  0  0  0  0  0  0  0  0  0  0  0
   -7.0031    1.9433    0.0000 C   0  0  1  0  0  0  0  0  0  0  0  0
   -1.9616   -0.9899    0.0000 C   0  0  0  0  0  0  0  0  0  0  0  0
   -1.9066    0.6600    0.0000 C   0  0  0  0  0  0  0  0  0  0  0  0
   -1.2099    2.7315    0.0000 C   0  0  2  0  0  0  0  0  0  0  0  0
    7.7547   -3.3182    0.0000 C   0  0  0  0  0  0  0  0  0  0  0  0
   -2.6582   -0.5866    0.0000 C   0  0  0  0  0  0  0  0  0  0  0  0
   -4.1432    0.2566    0.0000 C   0  0  1  0  0  0  0  0  0  0  0  0
   -4.1432   -0.5866    0.0000 C   0  0  1  0  0  0  0  0  0  0  0  0
   -1.9616    3.1532    0.0000 C   0  0  0  0  0  0  0  0  0  0  0  0
   -4.8582    0.6600    0.0000 C   0  0  0  0  0  0  0  0  0  0  0  0
   -0.4950   -1.8332    0.0000 C   0  0  0  0  0  0  0  0  0  0  0  0
    0.8982    1.4850    0.0000 C   0  0  0  0  0  0  0  0  0  0  0  0
    8.4697   -2.9149    0.0000 C   0  0  0  0  0  0  0  0  0  0  0  0
   -7.0031    2.7865    0.0000 C   0  0  0  0  0  0  0  0  0  0  0  0
   -3.3549    0.6600    0.0000 C   0  0  0  0  0  0  0  0  0  0  0  0
   -2.6582    2.7315    0.0000 C   0  0  0  0  0  0  0  0  0  0  0  0
   -0.4950    3.1532    0.0000 C   0  0  0  0  0  0  0  0  0  0  0  0
   -3.3549    1.4850    0.0000 C   0  0  0  0  0  0  0  0  0  0  0  0
   -4.8582   -0.9899    0.0000 C   0  0  0  0  0  0  0  0  0  0  0  0
   -2.6582    1.9065    0.0000 C   0  0  0  0  0  0  0  0  0  0  0  0
   -7.7182   -0.9533    0.0000 C   0  0  0  0  0  0  0  0  0  0  0  0
   -9.1664    0.7150    0.0000 C   0  0  0  0  0  0  0  0  0  0  0  0
   -1.2099   -2.2549    0.0000 C   0  0  0  0  0  0  0  0  0  0  0  0
    9.1664   -3.3182    0.0000 C   0  0  0  0  0  0  0  0  0  0  0  0
    8.4330   -2.0716    0.0000 C   0  0  0  0  0  0  0  0  0  0  0  0
   -4.1065    1.9065    0.0000 C   0  0  0  0  0  0  0  0  0  0  0  0
   -5.5549   -0.5866    0.0000 C   0  0  0  0  0  0  0  0  0  0  0  0
 21  1  1  1  0  0  0
 27  1  1  6  0  0  0
  2 24  1  0  0  0  0
  2 26  1  0  0  0  0
 24  3  1  6  0  0  0
 31  3  1  6  0  0  0
  4 27  1  0  0  0  0
  4 30  1  0  0  0  0
 28  5  1  6  0  0  0
  5 37  1  0  0  0  0
 23  6  1  1  0  0  0
 25  7  1  6  0  0  0
  8 43  1  0  0  0  0
  8 47  1  0  0  0  0
 36  9  1  6  0  0  0
  9 57  1  0  0  0  0
 43 10  1  1  0  0  0
 10 56  1  0  0  0  0
 41 11  1  6  0  0  0
 11 67  1  0  0  0  0
 42 12  1  6  0  0  0
 12 68  1  0  0  0  0
 13 37  2  0  0  0  0
 14 52  1  0  0  0  0
 14 54  1  0  0  0  0
 45 15  1  6  0  0  0
 16 52  2  0  0  0  0
 17 55  2  0  0  0  0
 18 57  2  0  0  0  0
 19 58  2  0  0  0  0
 22 20  1  6  0  0  0
 20 39  1  0  0  0  0
 20 40  1  0  0  0  0
 21 22  1  0  0  0  0
 21 26  1  0  0  0  0
 22 23  1  0  0  0  0
 23 24  1  0  0  0  0
 25 28  1  0  0  0  0
 25 29  1  0  0  0  0
 25 34  1  1  0  0  0
 26 35  1  6  0  0  0
 27 29  1  0  0  0  0
 28 30  1  0  0  0  0
 30 38  1  1  0  0  0
 31 32  1  0  0  0  0
 31 33  1  0  0  0  0
 32 36  1  0  0  0  0
 32 49  1  6  0  0  0
 33 44  1  0  0  0  0
 33 46  1  6  0  0  0
 36 48  1  0  0  0  0
 37 51  1  0  0  0  0
 41 42  1  0  0  0  0
 41 43  1  0  0  0  0
 42 45  1  0  0  0  0
 44 50  1  0  0  0  0
 45 47  1  0  0  0  0
 46 58  1  0  0  0  0
 47 60  1  1  0  0  0
 48 52  1  0  0  0  0
 50 55  1  0  0  0  0
 50 63  1  6  0  0  0
 51 59  1  0  0  0  0
 53 54  1  0  0  0  0
 53 56  1  1  0  0  0
 53 61  1  0  0  0  0
 54 65  1  6  0  0  0
 55 62  1  0  0  0  0
 57 69  1  0  0  0  0
 59 70  1  0  0  0  0
 59 71  1  0  0  0  0
 61 64  2  0  0  0  0
 62 66  2  0  0  0  0
 64 66  1  0  0  0  0
 64 72  1  0  0  0  0
 65 73  1  0  0  0  0
M  END
> <DATABASE_ID>
DB11554

> <DATABASE_NAME>
drugbank

> <SMILES>
CC[C@H]1OC(=O)C[C@@H](OC(C)=O)[C@H](C)[C@@H](O[C@@H]2O[C@H](C)[C@@H](O[C@H]3C[C@@](C)(O)[C@@H](OC(=O)CC(C)C)[C@H](C)O3)[C@@H]([C@H]2O)N(C)C)[C@@H](CC=O)C[C@@H](C)C(=O)\C=C\C(\C)=C\[C@@H]1CO[C@@H]1O[C@H](C)[C@@H](O)[C@@H](OC)[C@H]1OC

> <INCHI_IDENTIFIER>
InChI=1S/C53H87NO19/c1-16-38-36(26-65-52-49(64-15)48(63-14)44(60)31(7)67-52)22-28(4)17-18-37(57)29(5)23-35(19-20-55)46(30(6)39(69-34(10)56)24-41(59)70-38)73-51-45(61)43(54(12)13)47(32(8)68-51)72-42-25-53(11,62)50(33(9)66-42)71-40(58)21-27(2)3/h17-18,20,22,27,29-33,35-36,38-39,42-52,60-62H,16,19,21,23-26H2,1-15H3/b18-17+,28-22+/t29-,30+,31-,32-,33+,35+,36-,38-,39-,42+,43-,44-,45-,46-,47-,48-,49-,50+,51+,52-,53-/m1/s1

> <INCHI_KEY>
KCJJINQANFZSAM-HZDSEHBESA-N

> <FORMULA>
C53H87NO19

> <MOLECULAR_WEIGHT>
1042.267

> <EXACT_MASS>
1041.587229585

> <JCHEM_ACCEPTOR_COUNT>
17

> <JCHEM_ATOM_COUNT>
160

> <JCHEM_AVERAGE_NEUTRAL_MICROSPECIES_CHARGE>
0.9641475051011119

> <JCHEM_AVERAGE_POLARIZABILITY>
111.3663513044979

> <JCHEM_BIOAVAILABILITY>
0

> <JCHEM_DONOR_COUNT>
3

> <JCHEM_FORMAL_CHARGE>
0

> <JCHEM_GHOSE_FILTER>
0

> <JCHEM_IUPAC>
(2S,3S,4R,6S)-6-{[(2R,3S,4R,5R,6R)-6-{[(4R,5S,6S,7R,9R,11E,13E,15R,16R)-4-(acetyloxy)-16-ethyl-15-({[(2R,3R,4R,5R,6R)-5-hydroxy-3,4-dimethoxy-6-methyloxan-2-yl]oxy}methyl)-5,9,13-trimethyl-2,10-dioxo-7-(2-oxoethyl)-1-oxacyclohexadeca-11,13-dien-6-yl]oxy}-4-(dimethylamino)-5-hydroxy-2-methyloxan-3-yl]oxy}-4-hydroxy-2,4-dimethyloxan-3-yl 3-methylbutanoate

> <ALOGPS_LOGP>
3.80

> <JCHEM_LOGP>
4.630281733000007

> <ALOGPS_LOGS>
-4.46

> <JCHEM_MDDR_LIKE_RULE>
1

> <JCHEM_NEUTRAL_CHARGE>
1

> <JCHEM_NUMBER_OF_RINGS>
4

> <JCHEM_PHYSIOLOGICAL_CHARGE>
1

> <JCHEM_PKA>
13.19044088293565

> <JCHEM_PKA_STRONGEST_ACIDIC>
12.570482703189043

> <JCHEM_PKA_STRONGEST_BASIC>
8.429670937160706

> <JCHEM_POLAR_SURFACE_AREA>
250.80999999999997

> <JCHEM_REFRACTIVITY>
264.2866

> <JCHEM_ROTATABLE_BOND_COUNT>
19

> <JCHEM_RULE_OF_FIVE>
0

> <ALOGPS_SOLUBILITY>
3.61e-02 g/l

> <JCHEM_TRADITIONAL_IUPAC>
methyl (1R,15S,17S,18R,19S,20S)-6,17,18-trimethoxy-3,13-diazapentacyclo[11.8.0.0^{2,10}.0^{4,9}.0^{15,20}]henicosa-2(10),4(9),5,7-tetraene-19-carboxylate

> <JCHEM_VEBER_RULE>
0

> <DRUGBANK_ID>
DB11554

> <DRUG_GROUPS>
vet_approved

> <GENERIC_NAME>
Tylvalosin

> <SYNONYMS>
Tylvalosin

> <INTERNATIONAL_BRANDS>
Aivlosin

> <SALTS>
Tylvalosin tartrate

$$$$
