
  Mrv1652306231722452D          

 24 26  0  0  1  0            999 V2000
   -4.8263   -0.9941    0.0000 C   0  0  0  0  0  0  0  0  0  0  0  0
   -4.0162   -0.8382    0.0000 C   0  0  0  0  0  0  0  0  0  0  0  0
   -3.4761   -1.4619    0.0000 N   0  0  0  0  0  0  0  0  0  0  0  0
   -3.7461   -2.2414    0.0000 C   0  0  0  0  0  0  0  0  0  0  0  0
   -4.5563   -2.3973    0.0000 C   0  0  0  0  0  0  0  0  0  0  0  0
   -2.6660   -1.3060    0.0000 C   0  0  0  0  0  0  0  0  0  0  0  0
   -2.1259   -1.9296    0.0000 C   0  0  0  0  0  0  0  0  0  0  0  0
   -1.3157   -1.7737    0.0000 C   0  0  0  0  0  0  0  0  0  0  0  0
   -0.7756   -2.3973    0.0000 O   0  0  0  0  0  0  0  0  0  0  0  0
    0.0345   -2.2414    0.0000 C   0  0  0  0  0  0  0  0  0  0  0  0
    0.3045   -1.4619    0.0000 O   0  0  0  0  0  0  0  0  0  0  0  0
    0.5746   -2.8651    0.0000 C   0  0  0  0  0  0  0  0  0  0  0  0
    0.8688   -3.6358    0.0000 C   0  0  0  0  0  0  0  0  0  0  0  0
    1.6834   -3.7664    0.0000 C   0  0  2  0  0  0  0  0  0  0  0  0
    2.2038   -3.1262    0.0000 C   0  0  0  0  0  0  0  0  0  0  0  0
    1.9096   -2.3555    0.0000 C   0  0  0  0  0  0  0  0  0  0  0  0
    1.0950   -2.2249    0.0000 C   0  0  1  0  0  0  0  0  0  0  0  0
    1.1965   -3.0692    0.0000 C   0  0  0  0  0  0  0  0  0  0  0  0
   -0.1334   -3.2887    0.0000 C   0  0  0  0  0  0  0  0  0  0  0  0
   -0.1205   -4.1136    0.0000 C   0  0  0  0  0  0  0  0  0  0  0  0
   -0.8285   -4.5371    0.0000 C   0  0  0  0  0  0  0  0  0  0  0  0
   -1.5493   -4.1358    0.0000 C   0  0  0  0  0  0  0  0  0  0  0  0
   -1.5621   -3.3109    0.0000 C   0  0  0  0  0  0  0  0  0  0  0  0
   -0.8542   -2.8873    0.0000 C   0  0  0  0  0  0  0  0  0  0  0  0
  1  2  1  0  0  0  0
  2  3  1  0  0  0  0
  3  4  1  0  0  0  0
  4  5  1  0  0  0  0
  3  6  1  0  0  0  0
  6  7  1  0  0  0  0
  7  8  1  0  0  0  0
  8  9  1  0  0  0  0
  9 10  1  0  0  0  0
 10 11  2  0  0  0  0
 10 12  1  0  0  0  0
 12 13  1  0  0  0  0
 13 14  1  0  0  0  0
 14 15  1  0  0  0  0
 15 16  1  0  0  0  0
 16 17  1  0  0  0  0
 12 17  1  0  0  0  0
 17 18  1  6  0  0  0
 14 18  1  6  0  0  0
 12 19  1  0  0  0  0
 19 20  2  0  0  0  0
 20 21  1  0  0  0  0
 21 22  2  0  0  0  0
 22 23  1  0  0  0  0
 23 24  2  0  0  0  0
 19 24  1  0  0  0  0
M  END
> <DATABASE_ID>
DB13619

> <DATABASE_NAME>
drugbank

> <SMILES>
CCN(CC)CCCOC(=O)C1(C[C@@H]2CC[C@H]1C2)C1=CC=CC=C1

> <INCHI_IDENTIFIER>
InChI=1S/C21H31NO2/c1-3-22(4-2)13-8-14-24-20(23)21(18-9-6-5-7-10-18)16-17-11-12-19(21)15-17/h5-7,9-10,17,19H,3-4,8,11-16H2,1-2H3/t17-,19+,21?/m1/s1

> <INCHI_KEY>
BDNMABJZSXTKAQ-VCPDFFEISA-N

> <FORMULA>
C21H31NO2

> <MOLECULAR_WEIGHT>
329.484

> <EXACT_MASS>
329.235479242

> <JCHEM_ACCEPTOR_COUNT>
2

> <JCHEM_ATOM_COUNT>
55

> <JCHEM_AVERAGE_POLARIZABILITY>
38.79211486135794

> <JCHEM_BIOAVAILABILITY>
1

> <JCHEM_DONOR_COUNT>
0

> <JCHEM_FORMAL_CHARGE>
0

> <JCHEM_GHOSE_FILTER>
1

> <JCHEM_IUPAC>
3-(diethylamino)propyl (1S,4R)-2-phenylbicyclo[2.2.1]heptane-2-carboxylate

> <ALOGPS_LOGP>
4.85

> <JCHEM_LOGP>
4.183832629666667

> <ALOGPS_LOGS>
-5.11

> <JCHEM_MDDR_LIKE_RULE>
1

> <JCHEM_NUMBER_OF_RINGS>
3

> <JCHEM_PHYSIOLOGICAL_CHARGE>
1

> <JCHEM_PKA_STRONGEST_BASIC>
10.004644596846214

> <JCHEM_POLAR_SURFACE_AREA>
29.54

> <JCHEM_REFRACTIVITY>
98.28670000000001

> <JCHEM_ROTATABLE_BOND_COUNT>
9

> <JCHEM_RULE_OF_FIVE>
1

> <ALOGPS_SOLUBILITY>
2.56e-03 g/l

> <JCHEM_TRADITIONAL_IUPAC>
3-(diethylamino)propyl (1S,4R)-2-phenylbicyclo[2.2.1]heptane-2-carboxylate

> <JCHEM_VEBER_RULE>
1

> <DRUGBANK_ID>
DB13619

> <DRUG_GROUPS>
experimental

> <GENERIC_NAME>
Bornaprine

> <SYNONYMS>
Bornaprine

> <SALTS>
Bornaprine hydrochloride

$$$$
