
  Mrv1909 07282218542D          

 58 64  0  0  0  0            999 V2000
   -1.4905   -3.6851    0.0000 O   0  0  0  0  0  0  0  0  0  0  0  0
   -2.2062   -4.1060    0.0000 C   0  0  2  0  0  0  0  0  0  0  0  0
   -2.9229   -3.7047    0.0000 O   0  0  0  0  0  0  0  0  0  0  0  0
   -2.1899   -4.9326    0.0000 C   0  0  1  0  0  0  0  0  0  0  0  0
   -3.6289   -4.1183    0.0000 C   0  0  1  0  0  0  0  0  0  0  0  0
   -2.9048   -5.3451    0.0000 C   0  0  2  0  0  0  0  0  0  0  0  0
   -1.4702   -5.3355    0.0000 O   0  0  0  0  0  0  0  0  0  0  0  0
   -3.6233   -4.9469    0.0000 C   0  0  2  0  0  0  0  0  0  0  0  0
   -4.3486   -3.7153    0.0000 C   0  0  0  0  0  0  0  0  0  0  0  0
   -2.8940   -6.1728    0.0000 O   0  0  0  0  0  0  0  0  0  0  0  0
   -4.3337   -5.3669    0.0000 O   0  0  0  0  0  0  0  0  0  0  0  0
   -5.0535   -4.1382    0.0000 O   0  0  0  0  0  0  0  0  0  0  0  0
    0.7277   -0.9252    0.0000 C   0  0  2  0  0  0  0  0  0  0  0  0
    0.0273   -0.5032    0.0000 C   0  0  2  0  0  0  0  0  0  0  0  0
    1.4464   -0.5179    0.0000 C   0  0  0  0  0  0  0  0  0  0  0  0
    0.7277   -1.7466    0.0000 C   0  0  0  0  0  0  0  0  0  0  0  0
   -0.6911   -0.9182    0.0000 C   0  0  1  0  0  0  0  0  0  0  0  0
    0.0307    0.3180    0.0000 C   0  0  0  0  0  0  0  0  0  0  0  0
    1.4157    0.3034    0.0000 C   0  0  2  0  0  0  0  0  0  0  0  0
    0.0203   -2.1531    0.0000 C   0  0  0  0  0  0  0  0  0  0  0  0
   -0.6982   -1.7431    0.0000 C   0  0  2  0  0  0  0  0  0  0  0  0
   -1.4063   -0.4999    0.0000 C   0  0  0  0  0  0  0  0  0  0  0  0
   -0.6982   -0.0933    0.0000 C   0  0  0  0  0  0  0  0  0  0  0  0
    0.7459    0.7211    0.0000 C   0  0  0  0  0  0  0  0  0  0  0  0
    1.4505    1.1501    0.0000 O   0  0  0  0  0  0  0  0  0  0  0  0
   -1.4058   -2.1529    0.0000 C   0  0  2  0  0  0  0  0  0  0  0  0
   -2.1256   -0.9182    0.0000 C   0  0  0  0  0  0  0  0  0  0  0  0
    2.1964    1.6326    0.0000 C   0  0  1  0  0  0  0  0  0  0  0  0
   -2.1256   -1.7431    0.0000 C   0  0  0  0  0  0  0  0  0  0  0  0
    2.1998    2.4541    0.0000 C   0  0  2  0  0  0  0  0  0  0  0  0
    2.9157    1.2184    0.0000 O   0  0  0  0  0  0  0  0  0  0  0  0
    1.4883    2.8684    0.0000 O   0  0  0  0  0  0  0  0  0  0  0  0
    2.9157    2.8614    0.0000 C   0  0  2  0  0  0  0  0  0  0  0  0
    3.6268    1.6258    0.0000 C   0  0  1  0  0  0  0  0  0  0  0  0
    1.4813    3.6933    0.0000 C   0  0  2  0  0  0  0  0  0  0  0  0
    3.6268    2.4541    0.0000 C   0  0  1  0  0  0  0  0  0  0  0  0
    2.9227    3.6897    0.0000 O   0  0  0  0  0  0  0  0  0  0  0  0
    4.3417    1.2114    0.0000 C   0  0  0  0  0  0  0  0  0  0  0  0
    2.1853    4.1110    0.0000 O   0  0  0  0  0  0  0  0  0  0  0  0
    0.7628    4.0997    0.0000 C   0  0  1  0  0  0  0  0  0  0  0  0
    4.3417    2.8614    0.0000 O   0  0  0  0  0  0  0  0  0  0  0  0
    5.0535    1.6180    0.0000 O   0  0  0  0  0  0  0  0  0  0  0  0
    2.1817    4.9358    0.0000 C   0  0  1  0  0  0  0  0  0  0  0  0
    0.7591    4.9248    0.0000 C   0  0  2  0  0  0  0  0  0  0  0  0
    0.0475    3.6828    0.0000 O   0  0  0  0  0  0  0  0  0  0  0  0
    1.4632    5.3387    0.0000 C   0  0  2  0  0  0  0  0  0  0  0  0
    2.9011    5.3422    0.0000 C   0  0  0  0  0  0  0  0  0  0  0  0
    0.0406    5.3185    0.0000 O   0  0  0  0  0  0  0  0  0  0  0  0
    1.4597    6.1569    0.0000 O   0  0  0  0  0  0  0  0  0  0  0  0
    0.0203   -1.3283    0.0000 H   0  0  0  0  0  0  0  0  0  0  0  0
   -0.6639   -2.4422    0.0000 H   0  0  0  0  0  0  0  0  0  0  0  0
    1.4373   -1.3324    0.0000 C   0  0  0  0  0  0  0  0  0  0  0  0
    2.1672   -0.1114    0.0000 C   0  0  0  0  0  0  0  0  0  0  0  0
    2.9674    0.0962    0.0000 C   0  0  0  0  0  0  0  0  0  0  0  0
   -1.1680   -2.9897    0.0000 C   0  0  0  0  0  0  0  0  0  0  0  0
   -1.8243   -2.8831    0.0000 C   0  0  0  0  0  0  0  0  0  0  0  0
   -2.6550   -2.8858    0.0000 O   0  0  0  0  0  0  0  0  0  0  0  0
    2.9088    6.1728    0.0000 O   0  0  0  0  0  0  0  0  0  0  0  0
  2  1  1  1  0  0  0
  2  3  1  0  0  0  0
  2  4  1  0  0  0  0
  3  5  1  0  0  0  0
  4  6  1  0  0  0  0
  4  7  1  6  0  0  0
  5  8  1  0  0  0  0
  5  9  1  1  0  0  0
  6 10  1  1  0  0  0
  8 11  1  6  0  0  0
 13 14  1  0  0  0  0
 13 15  1  0  0  0  0
 13 16  1  0  0  0  0
 14 17  1  0  0  0  0
 14 18  1  0  0  0  0
 15 19  1  0  0  0  0
 16 20  1  0  0  0  0
 17 21  1  0  0  0  0
 17 22  1  0  0  0  0
 17 23  1  6  0  0  0
 18 24  1  0  0  0  0
 19 25  1  6  0  0  0
 21 26  1  0  0  0  0
 22 27  1  0  0  0  0
 28 25  1  1  0  0  0
 26 29  1  0  0  0  0
 28 30  1  0  0  0  0
 28 31  1  0  0  0  0
 30 32  1  6  0  0  0
 30 33  1  0  0  0  0
 31 34  1  0  0  0  0
 35 32  1  1  0  0  0
 33 36  1  0  0  0  0
 33 37  1  1  0  0  0
 34 38  1  1  0  0  0
 35 39  1  0  0  0  0
 35 40  1  0  0  0  0
 36 41  1  6  0  0  0
 38 42  1  0  0  0  0
 39 43  1  0  0  0  0
 40 44  1  0  0  0  0
 40 45  1  6  0  0  0
 43 46  1  0  0  0  0
 43 47  1  1  0  0  0
 44 48  1  1  0  0  0
 46 49  1  6  0  0  0
 19 24  1  0  0  0  0
 20 21  1  0  0  0  0
 27 29  1  0  0  0  0
 34 36  1  0  0  0  0
 44 46  1  0  0  0  0
 14 50  1  1  0  0  0
 21 51  1  1  0  0  0
 13 52  1  1  0  0  0
 19 53  1  1  0  0  0
 52 53  1  0  0  0  0
 53 54  2  0  0  0  0
 26 55  1  1  0  0  0
 26 56  1  6  0  0  0
 56  1  1  0  0  0  0
  9 12  1  0  0  0  0
 56 57  2  0  0  0  0
  6  8  1  0  0  0  0
 47 58  1  0  0  0  0
M  END
> <DATABASE_ID>
DB16882

> <DATABASE_NAME>
drugbank

> <SMILES>
[H][C@@]12CC[C@@]3(C[C@]1(CC3=C)CC[C@]1([H])[C@@](C)(CCC[C@@]21C)C(=O)O[C@@H]1O[C@H](CO)[C@@H](O)[C@H](O)[C@H]1O)O[C@@H]1O[C@H](CO)[C@@H](O)[C@H](O)[C@H]1O[C@@H]1O[C@H](CO)[C@@H](O)[C@H](O)[C@H]1O

> <INCHI_IDENTIFIER>
InChI=1S/C38H60O18/c1-16-11-37-9-5-20-35(2,7-4-8-36(20,3)34(50)55-32-29(49)26(46)23(43)18(13-40)52-32)21(37)6-10-38(16,15-37)56-33-30(27(47)24(44)19(14-41)53-33)54-31-28(48)25(45)22(42)17(12-39)51-31/h17-33,39-49H,1,4-15H2,2-3H3/t17-,18-,19-,20+,21+,22-,23-,24-,25+,26+,27+,28-,29-,30-,31+,32+,33+,35-,36-,37-,38+/m1/s1

> <INCHI_KEY>
UEDUENGHJMELGK-HYDKPPNVSA-N

> <FORMULA>
C38H60O18

> <MOLECULAR_WEIGHT>
804.88

> <EXACT_MASS>
804.377965092

> <JCHEM_ACCEPTOR_COUNT>
17

> <JCHEM_ATOM_COUNT>
116

> <JCHEM_AVERAGE_NEUTRAL_MICROSPECIES_CHARGE>
-2.5917608762125242e-05

> <JCHEM_AVERAGE_POLARIZABILITY>
82.03707360008036

> <JCHEM_BIOAVAILABILITY>
0

> <JCHEM_DONOR_COUNT>
11

> <JCHEM_FORMAL_CHARGE>
0

> <JCHEM_GHOSE_FILTER>
0

> <JCHEM_IUPAC>
(2S,3R,4S,5S,6R)-3,4,5-trihydroxy-6-(hydroxymethyl)oxan-2-yl (1R,4S,5R,9S,10R,13S)-13-{[(2S,3R,4S,5S,6R)-4,5-dihydroxy-6-(hydroxymethyl)-3-{[(2S,3R,4S,5S,6R)-3,4,5-trihydroxy-6-(hydroxymethyl)oxan-2-yl]oxy}oxan-2-yl]oxy}-5,9-dimethyl-14-methylidenetetracyclo[11.2.1.0^{1,10}.0^{4,9}]hexadecane-5-carboxylate

> <ALOGPS_LOGP>
-1.20

> <JCHEM_LOGP>
-2.161208385333333

> <ALOGPS_LOGS>
-2.25

> <JCHEM_MDDR_LIKE_RULE>
1

> <JCHEM_NEUTRAL_CHARGE>
0

> <JCHEM_NUMBER_OF_RINGS>
7

> <JCHEM_PHYSIOLOGICAL_CHARGE>
0

> <JCHEM_PKA>
12.308191996873678

> <JCHEM_PKA_STRONGEST_ACIDIC>
11.841073042119964

> <JCHEM_PKA_STRONGEST_BASIC>
-3.6483775957536797

> <JCHEM_POLAR_SURFACE_AREA>
294.97999999999996

> <JCHEM_REFRACTIVITY>
186.14950000000005

> <JCHEM_ROTATABLE_BOND_COUNT>
10

> <JCHEM_RULE_OF_FIVE>
0

> <ALOGPS_SOLUBILITY>
4.51e+00 g/l

> <JCHEM_TRADITIONAL_IUPAC>
4-(2-{[5-methyl-1-(naphthalen-2-yl)pyrazol-3-yl]oxy}ethyl)morpholine

> <JCHEM_VEBER_RULE>
0

> <DRUGBANK_ID>
DB16882

> <DRUG_GROUPS>
investigational

> <GENERIC_NAME>
Stevioside

> <SYNONYMS>
Steviosin

$$$$
