
  Mrv1909 12102021232D          

 17 16  0  0  0  0            999 V2000
    0.7145    0.5066    0.0000 C   0  0  0  0  0  0  0  0  0  0  0  0
    0.0000    0.0941    0.0000 C   0  0  0  0  0  0  0  0  0  0  0  0
   -0.7146    0.5066    0.0000 C   0  0  0  0  0  0  0  0  0  0  0  0
   -0.7146    1.3317    0.0000 C   0  0  0  0  0  0  0  0  0  0  0  0
    1.4289    0.0941    0.0000 O   0  0  0  0  0  0  0  0  0  0  0  0
    0.7145    1.3317    0.0000 O   0  0  0  0  0  0  0  0  0  0  0  0
   -1.4290    1.7442    0.0000 O   0  0  0  0  0  0  0  0  0  0  0  0
    0.0000    1.7442    0.0000 O   0  0  0  0  0  0  0  0  0  0  0  0
    0.0000   -0.7309    0.0000 C   0  0  0  0  0  0  0  0  0  0  0  0
    0.7145   -1.1434    0.0000 P   0  0  0  0  0  0  0  0  0  0  0  0
    1.4289   -1.5559    0.0000 O   0  0  0  0  0  0  0  0  0  0  0  0
    0.3872   -1.7063    0.0000 O   0  0  0  0  0  0  0  0  0  0  0  0
    1.1270   -0.4289    0.0000 O   0  0  0  0  0  0  0  0  0  0  0  0
   -0.7146   -1.1434    0.0000 P   0  0  0  0  0  0  0  0  0  0  0  0
   -1.4290   -1.5559    0.0000 O   0  0  0  0  0  0  0  0  0  0  0  0
   -1.1270   -0.4289    0.0000 O   0  0  0  0  0  0  0  0  0  0  0  0
   -0.3777   -1.7442    0.0000 O   0  0  0  0  0  0  0  0  0  0  0  0
  1  2  1  0  0  0  0
  2  3  1  0  0  0  0
  3  4  1  0  0  0  0
  1  5  2  0  0  0  0
  1  6  1  0  0  0  0
  4  7  2  0  0  0  0
  4  8  1  0  0  0  0
 10 11  1  0  0  0  0
 10 12  1  0  0  0  0
 10 13  2  0  0  0  0
  9 10  1  0  0  0  0
 14 15  1  0  0  0  0
 14 16  2  0  0  0  0
 14 17  1  0  0  0  0
  9 14  1  0  0  0  0
  2  9  1  0  0  0  0
M  END
> <DATABASE_ID>
DB16004

> <DATABASE_NAME>
drugbank

> <SMILES>
OC(=O)CC(C(P(O)(O)=O)P(O)(O)=O)C(O)=O

> <INCHI_IDENTIFIER>
InChI=1S/C5H10O10P2/c6-3(7)1-2(4(8)9)5(16(10,11)12)17(13,14)15/h2,5H,1H2,(H,6,7)(H,8,9)(H2,10,11,12)(H2,13,14,15)

> <INCHI_KEY>
LDTZSTJLVYBEKB-UHFFFAOYSA-N

> <FORMULA>
C5H10O10P2

> <MOLECULAR_WEIGHT>
292.073

> <EXACT_MASS>
291.974920518

> <JCHEM_ACCEPTOR_COUNT>
10

> <JCHEM_ATOM_COUNT>
27

> <JCHEM_AVERAGE_NEUTRAL_MICROSPECIES_CHARGE>
-4.27911696894774

> <JCHEM_AVERAGE_POLARIZABILITY>
20.3520177141066

> <JCHEM_BIOAVAILABILITY>
1

> <JCHEM_DONOR_COUNT>
6

> <JCHEM_FORMAL_CHARGE>
0

> <JCHEM_GHOSE_FILTER>
0

> <JCHEM_IUPAC>
2-(diphosphonomethyl)butanedioic acid

> <ALOGPS_LOGP>
-1.28

> <JCHEM_LOGP>
-2.816869290333333

> <ALOGPS_LOGS>
-1.25

> <JCHEM_MDDR_LIKE_RULE>
0

> <JCHEM_NEUTRAL_CHARGE>
-4

> <JCHEM_NUMBER_OF_RINGS>
0

> <JCHEM_PHYSIOLOGICAL_CHARGE>
-5

> <JCHEM_PKA>
1.9503918676917626

> <JCHEM_PKA_STRONGEST_ACIDIC>
1.1980522763012404

> <JCHEM_POLAR_SURFACE_AREA>
189.65999999999997

> <JCHEM_REFRACTIVITY>
49.4619

> <JCHEM_ROTATABLE_BOND_COUNT>
6

> <JCHEM_RULE_OF_FIVE>
0

> <ALOGPS_SOLUBILITY>
1.64e+01 g/l

> <JCHEM_TRADITIONAL_IUPAC>
L-arginine; L-aspartic acid

> <JCHEM_VEBER_RULE>
0

> <DRUGBANK_ID>
DB16004

> <DRUG_GROUPS>
experimental

> <GENERIC_NAME>
Butedronic acid

> <SYNONYMS>
Butedronic acid

> <SALTS>
Butedronate tetrasodium

$$$$
