
  Mrv1909 01032020502D          

 55 57  0  0  0  0            999 V2000
    2.6740    2.1349    0.0000 C   0  0  2  0  0  0  0  0  0  0  0  0
    2.0065    2.6198    0.0000 O   0  0  0  0  0  0  0  0  0  0  0  0
    2.4190    1.3503    0.0000 C   0  0  1  0  0  0  0  0  0  0  0  0
    1.3390    2.1349    0.0000 C   0  0  1  0  0  0  0  0  0  0  0  0
    1.5940    1.3503    0.0000 C   0  0  1  0  0  0  0  0  0  0  0  0
    2.9040    0.6828    0.0000 O   0  0  0  0  0  0  0  0  0  0  0  0
   -4.0717   -1.9060    0.0000 C   0  0  0  0  0  0  0  0  0  0  0  0
   -3.3289   -2.3185    0.0000 C   0  0  0  0  0  0  0  0  0  0  0  0
   -4.7862   -2.3185    0.0000 N   0  0  0  0  0  0  0  0  0  0  0  0
   -5.5006   -1.9060    0.0000 C   0  0  0  0  0  0  0  0  0  0  0  0
   -6.2151   -2.3185    0.0000 O   0  0  0  0  0  0  0  0  0  0  0  0
   -4.7578   -0.6685    0.0000 C   0  0  0  0  0  0  0  0  0  0  0  0
   -5.5006   -1.0810    0.0000 C   0  0  0  0  0  0  0  0  0  0  0  0
   -4.7578    0.1564    0.0000 N   0  0  0  0  0  0  0  0  0  0  0  0
   -6.1867    0.1564    0.0000 O   0  0  0  0  0  0  0  0  0  0  0  0
   -5.4723    0.5690    0.0000 C   0  0  0  0  0  0  0  0  0  0  0  0
   -4.0433    1.3940    0.0000 C   0  0  0  0  0  0  0  0  0  0  0  0
   -5.1703    2.5209    0.0000 C   0  0  0  0  0  0  0  0  0  0  0  0
   -4.7578    1.8065    0.0000 C   0  0  0  0  0  0  0  0  0  0  0  0
   -4.3453    2.5209    0.0000 C   0  0  0  0  0  0  0  0  0  0  0  0
   -5.4723    1.3940    0.0000 C   0  0  1  0  0  0  0  0  0  0  0  0
   -6.1868    1.8065    0.0000 O   0  0  0  0  0  0  0  0  0  0  0  0
   -3.3289    1.8065    0.0000 O   0  0  0  0  0  0  0  0  0  0  0  0
   -1.6789    1.8065    0.0000 O   0  0  0  0  0  0  0  0  0  0  0  0
   -0.0288    1.8065    0.0000 O   0  0  0  0  0  0  0  0  0  0  0  0
   -2.5039    2.6315    0.0000 O   0  0  0  0  0  0  0  0  0  0  0  0
   -2.5039    0.9815    0.0000 O   0  0  0  0  0  0  0  0  0  0  0  0
   -0.8539    2.6315    0.0000 O   0  0  0  0  0  0  0  0  0  0  0  0
   -0.8539    0.9815    0.0000 O   0  0  0  0  0  0  0  0  0  0  0  0
   -2.5039    1.8065    0.0000 P   0  0  0  0  0  0  0  0  0  0  0  0
   -0.8539    1.8065    0.0000 P   0  0  0  0  0  0  0  0  0  0  0  0
    0.5544    2.3898    0.0000 C   0  0  0  0  0  0  0  0  0  0  0  0
    1.1090    0.6828    0.0000 O   0  0  0  0  0  0  0  0  0  0  0  0
    0.2840   -0.1421    0.0000 O   0  0  0  0  0  0  0  0  0  0  0  0
    1.9340   -0.1421    0.0000 O   0  0  0  0  0  0  0  0  0  0  0  0
    1.1090   -0.1421    0.0000 P   0  0  0  0  0  0  0  0  0  0  0  0
    1.1090   -0.9671    0.0000 O   0  0  0  0  0  0  0  0  0  0  0  0
    3.4585    2.3898    0.0000 N   0  0  0  0  0  0  0  0  0  0  0  0
    4.0717    1.8378    0.0000 C   0  0  0  0  0  0  0  0  0  0  0  0
    3.7941    3.1435    0.0000 C   0  0  0  0  0  0  0  0  0  0  0  0
    4.7861    2.2503    0.0000 C   0  0  0  0  0  0  0  0  0  0  0  0
    4.0717    1.0128    0.0000 N   0  0  0  0  0  0  0  0  0  0  0  0
    4.6146    3.0573    0.0000 N   0  0  0  0  0  0  0  0  0  0  0  0
    5.5006    1.8379    0.0000 C   0  0  0  0  0  0  0  0  0  0  0  0
    4.7862    0.6004    0.0000 C   0  0  0  0  0  0  0  0  0  0  0  0
    5.5006    1.0129    0.0000 N   0  0  0  0  0  0  0  0  0  0  0  0
    6.2150    2.2504    0.0000 N   0  0  0  0  0  0  0  0  0  0  0  0
   -2.6144   -1.9060    0.0000 S   0  0  0  0  0  0  0  0  0  0  0  0
   -1.9000   -2.3185    0.0000 C   0  0  0  0  0  0  0  0  0  0  0  0
   -1.9000   -3.1435    0.0000 O   0  0  0  0  0  0  0  0  0  0  0  0
   -0.4709   -3.1435    0.0000 O   0  0  0  0  0  0  0  0  0  0  0  0
   -0.4709   -2.3185    0.0000 C   0  0  0  0  0  0  0  0  0  0  0  0
    0.2434   -1.9060    0.0000 O   0  0  0  0  0  0  0  0  0  0  0  0
   -1.1855   -1.9060    0.0000 C   0  0  1  0  0  0  0  0  0  0  0  0
   -1.1855   -1.0810    0.0000 C   0  0  0  0  0  0  0  0  0  0  0  0
  1 38  1  1  0  0  0
  2  1  1  0  0  0  0
  3  1  1  0  0  0  0
  4  2  1  0  0  0  0
  5  3  1  0  0  0  0
  3  6  1  6  0  0  0
  4 32  1  1  0  0  0
  5  4  1  0  0  0  0
  5 33  1  6  0  0  0
  9  7  1  0  0  0  0
  7  8  1  0  0  0  0
  8 48  1  0  0  0  0
 10  9  1  0  0  0  0
 13 10  1  0  0  0  0
 10 11  2  0  0  0  0
 12 14  1  0  0  0  0
 13 12  1  0  0  0  0
 16 14  1  0  0  0  0
 16 15  2  0  0  0  0
 16 21  1  0  0  0  0
 19 17  1  0  0  0  0
 17 23  1  0  0  0  0
 19 18  1  0  0  0  0
 21 19  1  0  0  0  0
 19 20  1  0  0  0  0
 21 22  1  6  0  0  0
 23 30  1  0  0  0  0
 30 24  1  0  0  0  0
 24 31  1  0  0  0  0
 31 25  1  0  0  0  0
 32 25  1  0  0  0  0
 30 26  2  0  0  0  0
 30 27  1  0  0  0  0
 31 28  2  0  0  0  0
 31 29  1  0  0  0  0
 33 36  1  0  0  0  0
 36 34  1  0  0  0  0
 36 35  1  0  0  0  0
 36 37  2  0  0  0  0
 39 38  1  0  0  0  0
 40 38  1  0  0  0  0
 41 39  2  0  0  0  0
 42 39  1  0  0  0  0
 43 40  2  0  0  0  0
 44 41  1  0  0  0  0
 43 41  1  0  0  0  0
 45 42  2  0  0  0  0
 46 44  2  0  0  0  0
 47 44  1  0  0  0  0
 46 45  1  0  0  0  0
 48 49  1  0  0  0  0
 49 54  1  0  0  0  0
 54 52  1  0  0  0  0
 49 50  2  0  0  0  0
 52 51  2  0  0  0  0
 52 53  1  0  0  0  0
 54 55  1  6  0  0  0
M  END
> <DATABASE_ID>
DB04045

> <DATABASE_NAME>
drugbank

> <SMILES>
C[C@H](C(O)=O)C(=O)SCCNC(=O)CCNC(=O)[C@H](O)C(C)(C)COP(O)(=O)OP(O)(=O)OC[C@H]1O[C@H]([C@H](O)[C@@H]1OP(O)(O)=O)N1C=NC2=C1N=CN=C2N

> <INCHI_IDENTIFIER>
InChI=1S/C25H40N7O19P3S/c1-12(23(37)38)24(39)55-7-6-27-14(33)4-5-28-21(36)18(35)25(2,3)9-48-54(45,46)51-53(43,44)47-8-13-17(50-52(40,41)42)16(34)22(49-13)32-11-31-15-19(26)29-10-30-20(15)32/h10-13,16-18,22,34-35H,4-9H2,1-3H3,(H,27,33)(H,28,36)(H,37,38)(H,43,44)(H,45,46)(H2,26,29,30)(H2,40,41,42)/t12-,13-,16-,17-,18+,22-/m1/s1

> <INCHI_KEY>
MZFOKIKEPGUZEN-AGCMQPJKSA-N

> <FORMULA>
C25H40N7O19P3S

> <MOLECULAR_WEIGHT>
867.607

> <EXACT_MASS>
867.131252359

> <JCHEM_ACCEPTOR_COUNT>
21

> <JCHEM_ATOM_COUNT>
95

> <JCHEM_AVERAGE_NEUTRAL_MICROSPECIES_CHARGE>
-4.923824668223219

> <JCHEM_AVERAGE_POLARIZABILITY>
76.02503300690921

> <JCHEM_BIOAVAILABILITY>
0

> <JCHEM_DONOR_COUNT>
10

> <JCHEM_FORMAL_CHARGE>
0

> <JCHEM_GHOSE_FILTER>
0

> <JCHEM_IUPAC>
(2R)-3-({2-[(3-{[(2R)-4-({[({[(2R,3S,4R,5R)-5-(6-amino-9H-purin-9-yl)-4-hydroxy-3-(phosphonooxy)oxolan-2-yl]methoxy}(hydroxy)phosphoryl)oxy](hydroxy)phosphoryl}oxy)-1,2-dihydroxy-3,3-dimethylbutylidene]amino}-1-hydroxypropylidene)amino]ethyl}sulfanyl)-2-methyl-3-oxopropanoic acid

> <JCHEM_LOGP>
-3.8121050969724495

> <JCHEM_MDDR_LIKE_RULE>
1

> <JCHEM_NEUTRAL_CHARGE>
-5

> <JCHEM_NUMBER_OF_RINGS>
3

> <JCHEM_PHYSIOLOGICAL_CHARGE>
-5

> <JCHEM_PKA>
1.8865859480222316

> <JCHEM_PKA_STRONGEST_ACIDIC>
0.819172533898453

> <JCHEM_PKA_STRONGEST_BASIC>
4.304447742766525

> <JCHEM_POLAR_SURFACE_AREA>
407.9100000000001

> <JCHEM_REFRACTIVITY>
184.17000000000007

> <JCHEM_ROTATABLE_BOND_COUNT>
22

> <JCHEM_RULE_OF_FIVE>
0

> <JCHEM_TRADITIONAL_IUPAC>
(2S)-2-({4-[(2E)-N-({2-amino-4-oxo-1H-pyrido[3,2-d]pyrimidin-6-yl}methyl)-3-{5-carbamoyl-3-[(2R,3R,4S,5R)-3,4-dihydroxy-5-[(phosphonooxy)methyl]oxolan-2-yl]imidazol-4-yl}prop-2-enamido]phenyl}formamido)pentanedioic acid

> <JCHEM_VEBER_RULE>
0

> <DRUGBANK_ID>
DB04045

> <SECONDARY_ACCESSION_NUMBERS>
EXPT02132

> <DRUG_GROUPS>
experimental

> <GENERIC_NAME>
(R)-methylmalonyl-CoA

> <SYNONYMS>
(R)-2-Methyl-3-oxopropanoyl-CoA; (R)-2-Methyl-3-oxopropionyl-CoA; (R)-3-Oxo-2-methylpropanoyl-CoA; Methylmalonyl-coenzyme A

$$$$
