
  Mrv1909 02282023092D          

 36 38  0  0  0  0            999 V2000
    2.4455    1.0313    0.0000 C   0  0  0  0  0  0  0  0  0  0  0  0
    3.1602    1.4438    0.0000 C   0  0  0  0  0  0  0  0  0  0  0  0
    3.1602    2.2688    0.0000 C   0  0  0  0  0  0  0  0  0  0  0  0
    3.8746    2.6813    0.0000 C   0  0  0  0  0  0  0  0  0  0  0  0
    3.8746    3.5065    0.0000 O   0  0  0  0  0  0  0  0  0  0  0  0
    4.5892    2.2688    0.0000 O   0  0  0  0  0  0  0  0  0  0  0  0
    1.7310    1.4438    0.0000 O   0  0  0  0  0  0  0  0  0  0  0  0
    2.4455    0.2061    0.0000 O   0  0  0  0  0  0  0  0  0  0  0  0
    1.7310   -0.2062    0.0000 C   0  0  0  0  0  0  0  0  0  0  0  0
    1.7310   -1.0314    0.0000 C   0  0  0  0  0  0  0  0  0  0  0  0
    1.0165   -1.4439    0.0000 C   0  0  0  0  0  0  0  0  0  0  0  0
    0.3019   -1.0314    0.0000 C   0  0  0  0  0  0  0  0  0  0  0  0
    0.3019   -0.2062    0.0000 C   0  0  0  0  0  0  0  0  0  0  0  0
    1.0165    0.2061    0.0000 C   0  0  0  0  0  0  0  0  0  0  0  0
   -0.4125    0.2061    0.0000 C   0  0  0  0  0  0  0  0  0  0  0  0
   -1.1271   -0.2062    0.0000 C   0  0  0  0  0  0  0  0  0  0  0  0
   -1.8416    0.2061    0.0000 C   0  0  0  0  0  0  0  0  0  0  0  0
   -2.5561   -0.2062    0.0000 C   0  0  0  0  0  0  0  0  0  0  0  0
   -3.2707    0.2061    0.0000 C   0  0  0  0  0  0  0  0  0  0  0  0
   -3.9853   -0.2062    0.0000 C   0  0  0  0  0  0  0  0  0  0  0  0
   -4.6997    0.2061    0.0000 C   0  0  0  0  0  0  0  0  0  0  0  0
    0.0000    0.9207    0.0000 C   0  0  0  0  0  0  0  0  0  0  0  0
   -0.8251    0.9207    0.0000 C   0  0  0  0  0  0  0  0  0  0  0  0
    1.0165   -2.2689    0.0000 O   0  0  0  0  0  0  0  0  0  0  0  0
    2.4455   -1.4439    0.0000 C   0  0  2  0  0  0  0  0  0  0  0  0
    3.1602   -1.0314    0.0000 C   0  0  1  0  0  0  0  0  0  0  0  0
    3.8746   -1.4439    0.0000 C   0  0  0  0  0  0  0  0  0  0  0  0
    3.8746   -2.2689    0.0000 C   0  0  1  0  0  0  0  0  0  0  0  0
    3.1602   -2.6814    0.0000 C   0  0  0  0  0  0  0  0  0  0  0  0
    2.4455   -2.2689    0.0000 C   0  0  0  0  0  0  0  0  0  0  0  0
    3.1602   -3.5066    0.0000 O   0  0  0  0  0  0  0  0  0  0  0  0
    3.3428   -1.7511    0.0000 C   0  0  0  0  0  0  0  0  0  0  0  0
    4.5892   -2.6814    0.0000 H   0  0  0  0  0  0  0  0  0  0  0  0
    4.6996   -1.4439    0.0000 C   0  0  0  0  0  0  0  0  0  0  0  0
    4.2871   -0.7294    0.0000 C   0  0  0  0  0  0  0  0  0  0  0  0
    3.1602   -0.2062    0.0000 H   0  0  0  0  0  0  0  0  0  0  0  0
  1  2  1  0  0  0  0
  2  3  2  0  0  0  0
  3  4  1  0  0  0  0
  4  5  2  0  0  0  0
  4  6  1  0  0  0  0
  1  7  2  0  0  0  0
  1  8  1  0  0  0  0
  8  9  1  0  0  0  0
  9 10  1  0  0  0  0
 10 11  2  0  0  0  0
 11 12  1  0  0  0  0
 12 13  2  0  0  0  0
 13 14  1  0  0  0  0
  9 14  2  0  0  0  0
 13 15  1  0  0  0  0
 15 16  1  0  0  0  0
 16 17  1  0  0  0  0
 17 18  1  0  0  0  0
 18 19  1  0  0  0  0
 19 20  1  0  0  0  0
 20 21  1  0  0  0  0
 15 22  1  0  0  0  0
 15 23  1  0  0  0  0
 11 24  1  0  0  0  0
 25 10  1  6  0  0  0
 26 25  1  0  0  0  0
 26 27  1  0  0  0  0
 28 27  1  0  0  0  0
 29 28  1  0  0  0  0
 25 30  1  0  0  0  0
 30 29  1  0  0  0  0
 29 31  2  0  0  0  0
 26 32  1  6  0  0  0
 28 32  1  6  0  0  0
 28 33  1  0  0  0  0
 27 34  1  0  0  0  0
 27 35  1  0  0  0  0
 26 36  1  0  0  0  0
M  END
> <DATABASE_ID>
DB05048

> <DATABASE_NAME>
drugbank

> <SMILES>
[H][C@]12C[C@]([H])(C(=O)C[C@@H]1C1=C(O)C=C(C=C1OC(=O)\C=C\C(O)=O)C(C)(C)CCCCCC)C2(C)C

> <INCHI_IDENTIFIER>
InChI=1S/C28H38O6/c1-6-7-8-9-12-27(2,3)17-13-22(30)26(23(14-17)34-25(33)11-10-24(31)32)18-15-21(29)20-16-19(18)28(20,4)5/h10-11,13-14,18-20,30H,6-9,12,15-16H2,1-5H3,(H,31,32)/b11-10+/t18-,19-,20+/m0/s1

> <INCHI_KEY>
GSTZHANFXAKPSE-MXTREEOPSA-N

> <FORMULA>
C28H38O6

> <MOLECULAR_WEIGHT>
470.606

> <EXACT_MASS>
470.266838944

> <JCHEM_ACCEPTOR_COUNT>
5

> <JCHEM_ATOM_COUNT>
72

> <JCHEM_AVERAGE_NEUTRAL_MICROSPECIES_CHARGE>
-1.013066611710571

> <JCHEM_AVERAGE_POLARIZABILITY>
53.09211749492842

> <JCHEM_BIOAVAILABILITY>
0

> <JCHEM_DONOR_COUNT>
2

> <JCHEM_FORMAL_CHARGE>
0

> <JCHEM_GHOSE_FILTER>
0

> <JCHEM_IUPAC>
(2E)-4-{2-[(1S,2S,5S)-6,6-dimethyl-4-oxobicyclo[3.1.1]heptan-2-yl]-3-hydroxy-5-(2-methyloctan-2-yl)phenoxy}-4-oxobut-2-enoic acid

> <ALOGPS_LOGP>
6.17

> <JCHEM_LOGP>
6.905154321666666

> <ALOGPS_LOGS>
-5.84

> <JCHEM_MDDR_LIKE_RULE>
1

> <JCHEM_NEUTRAL_CHARGE>
-1

> <JCHEM_NUMBER_OF_RINGS>
3

> <JCHEM_PHYSIOLOGICAL_CHARGE>
-1

> <JCHEM_PKA>
8.876322726286318

> <JCHEM_PKA_STRONGEST_ACIDIC>
2.7294283903956598

> <JCHEM_PKA_STRONGEST_BASIC>
-6.0764587969443244

> <JCHEM_POLAR_SURFACE_AREA>
100.9

> <JCHEM_REFRACTIVITY>
131.38209999999998

> <JCHEM_ROTATABLE_BOND_COUNT>
11

> <JCHEM_RULE_OF_FIVE>
0

> <ALOGPS_SOLUBILITY>
6.75e-04 g/l

> <JCHEM_TRADITIONAL_IUPAC>
L-saccharopine

> <JCHEM_VEBER_RULE>
0

> <DRUGBANK_ID>
DB05048

> <DRUG_GROUPS>
investigational

> <GENERIC_NAME>
Cannabinor

$$$$
