
  Mrv1909 10262214342D          

 35 38  0  0  0  0            999 V2000
    6.2102    4.4104    0.0000 C   0  0  0  0  0  0  0  0  0  0  0  0
    6.2102    3.5854    0.0000 O   0  0  0  0  0  0  0  0  0  0  0  0
    5.4957    3.1729    0.0000 C   0  0  0  0  0  0  0  0  0  0  0  0
    5.4957    2.3479    0.0000 C   0  0  0  0  0  0  0  0  0  0  0  0
    6.2102    1.9354    0.0000 O   0  0  0  0  0  0  0  0  0  0  0  0
    6.9246    2.3479    0.0000 C   0  0  0  0  0  0  0  0  0  0  0  0
    7.6391    1.9354    0.0000 C   0  0  0  0  0  0  0  0  0  0  0  0
    8.3536    2.3479    0.0000 C   0  0  0  0  0  0  0  0  0  0  0  0
    8.3536    3.1729    0.0000 O   0  0  0  0  0  0  0  0  0  0  0  0
    9.0681    3.5854    0.0000 C   0  0  0  0  0  0  0  0  0  0  0  0
    9.0681    1.9354    0.0000 C   0  0  0  0  0  0  0  0  0  0  0  0
    9.0681    1.1104    0.0000 C   0  0  0  0  0  0  0  0  0  0  0  0
    8.3536    0.6979    0.0000 C   0  0  0  0  0  0  0  0  0  0  0  0
    8.3536   -0.1271    0.0000 F   0  0  0  0  0  0  0  0  0  0  0  0
    7.6391    1.1104    0.0000 C   0  0  0  0  0  0  0  0  0  0  0  0
    6.9246    0.6979    0.0000 F   0  0  0  0  0  0  0  0  0  0  0  0
    4.7812    1.9354    0.0000 C   0  0  0  0  0  0  0  0  0  0  0  0
    4.0668    2.3479    0.0000 C   0  0  0  0  0  0  0  0  0  0  0  0
    3.3523    1.9354    0.0000 N   0  0  0  0  0  0  0  0  0  0  0  0
    3.3523    1.1104    0.0000 C   0  0  0  0  0  0  0  0  0  0  0  0
    4.0668    0.6979    0.0000 O   0  0  0  0  0  0  0  0  0  0  0  0
    2.6378    0.6979    0.0000 N   0  0  0  0  0  0  0  0  0  0  0  0
    1.9233    1.1104    0.0000 C   0  0  0  0  0  0  0  0  0  0  0  0
    1.1387    0.8555    0.0000 C   0  0  0  0  0  0  0  0  0  0  0  0
    0.6538    1.5229    0.0000 S   0  0  0  0  0  0  0  0  0  0  0  0
    1.1387    2.1904    0.0000 C   0  0  0  0  0  0  0  0  0  0  0  0
    0.8838    2.9750    0.0000 C   0  0  0  0  0  0  0  0  0  0  0  0
    0.0768    3.1465    0.0000 O   0  0  0  0  0  0  0  0  0  0  0  0
    1.4358    3.5881    0.0000 O   0  0  0  0  0  0  0  0  0  0  0  0
    1.9233    1.9354    0.0000 C   0  0  0  0  0  0  0  0  0  0  0  0
    2.6378    2.3479    0.0000 C   0  0  0  0  0  0  0  0  0  0  0  0
    2.6378    3.1729    0.0000 O   0  0  0  0  0  0  0  0  0  0  0  0
    4.0668    3.1729    0.0000 C   0  0  0  0  0  0  0  0  0  0  0  0
    3.3523    3.5854    0.0000 F   0  0  0  0  0  0  0  0  0  0  0  0
    4.7812    3.5854    0.0000 C   0  0  0  0  0  0  0  0  0  0  0  0
  1  2  1  0  0  0  0
  2  3  1  0  0  0  0
  3  4  2  0  0  0  0
  4  5  1  0  0  0  0
  5  6  1  0  0  0  0
  6  7  1  0  0  0  0
  7  8  2  0  0  0  0
  8  9  1  0  0  0  0
  9 10  1  0  0  0  0
  8 11  1  0  0  0  0
 11 12  2  0  0  0  0
 12 13  1  0  0  0  0
 13 14  1  0  0  0  0
 13 15  2  0  0  0  0
  7 15  1  0  0  0  0
 15 16  1  0  0  0  0
  4 17  1  0  0  0  0
 17 18  2  0  0  0  0
 18 19  1  0  0  0  0
 19 20  1  0  0  0  0
 20 21  2  0  0  0  0
 20 22  1  0  0  0  0
 22 23  1  0  0  0  0
 23 24  2  0  0  0  0
 24 25  1  0  0  0  0
 25 26  1  0  0  0  0
 26 27  1  0  0  0  0
 27 28  1  0  0  0  0
 27 29  2  0  0  0  0
 26 30  2  0  0  0  0
 23 30  1  0  0  0  0
 30 31  1  0  0  0  0
 19 31  1  0  0  0  0
 31 32  2  0  0  0  0
 18 33  1  0  0  0  0
 33 34  1  0  0  0  0
 33 35  2  0  0  0  0
  3 35  1  0  0  0  0
M  END
> <DATABASE_ID>
DB17083

> <DATABASE_NAME>
drugbank

> <SMILES>
COC1=C(COC2=C(OC)C=C(F)C(=C2)N2C(=O)NC3=CSC(C(O)=O)=C3C2=O)C(F)=C(F)C=C1

> <INCHI_IDENTIFIER>
InChI=1S/C22H15F3N2O7S/c1-32-14-4-3-10(23)18(25)9(14)7-34-16-6-13(11(24)5-15(16)33-2)27-20(28)17-12(26-22(27)31)8-35-19(17)21(29)30/h3-6,8H,7H2,1-2H3,(H,26,31)(H,29,30)

> <INCHI_KEY>
BMAAMIIYNNPHAB-UHFFFAOYSA-N

> <FORMULA>
C22H15F3N2O7S

> <MOLECULAR_WEIGHT>
508.42

> <EXACT_MASS>
508.055206494

> <JCHEM_ACCEPTOR_COUNT>
7

> <JCHEM_ATOM_COUNT>
50

> <JCHEM_AVERAGE_NEUTRAL_MICROSPECIES_CHARGE>
-0.00035961748832937575

> <JCHEM_AVERAGE_POLARIZABILITY>
45.3944951096522

> <JCHEM_BIOAVAILABILITY>
1

> <JCHEM_DONOR_COUNT>
2

> <JCHEM_FORMAL_CHARGE>
0

> <JCHEM_GHOSE_FILTER>
0

> <JCHEM_IUPAC>
3-{5-[(2,3-difluoro-6-methoxyphenyl)methoxy]-2-fluoro-4-methoxyphenyl}-2,4-dioxo-1H,2H,3H,4H-thieno[3,4-d]pyrimidine-5-carboxylic acid

> <ALOGPS_LOGP>
3.20

> <JCHEM_LOGP>
3.878611502333333

> <ALOGPS_LOGS>
-5.41

> <JCHEM_MDDR_LIKE_RULE>
1

> <JCHEM_NEUTRAL_CHARGE>
-1

> <JCHEM_NUMBER_OF_RINGS>
4

> <JCHEM_PHYSIOLOGICAL_CHARGE>
-1

> <JCHEM_PKA>
10.184358904923734

> <JCHEM_PKA_STRONGEST_ACIDIC>
3.1459538554565407

> <JCHEM_PKA_STRONGEST_BASIC>
-3.460608173201295

> <JCHEM_POLAR_SURFACE_AREA>
114.4

> <JCHEM_REFRACTIVITY>
117.24789999999997

> <JCHEM_ROTATABLE_BOND_COUNT>
6

> <JCHEM_RULE_OF_FIVE>
0

> <ALOGPS_SOLUBILITY>
1.98e-03 g/l

> <JCHEM_TRADITIONAL_IUPAC>
linzagolix

> <JCHEM_VEBER_RULE>
0

> <DRUGBANK_ID>
DB17083

> <DRUG_GROUPS>
approved

> <GENERIC_NAME>
Linzagolix

> <SYNONYMS>
3-(5-((2,3-difluoro-6-methoxyphenyl)methoxy)-2-fluoro-4-methoxyphenyl)-2,4-dioxo-1,2,3,4-tetrahydrothieno(3,4-d)pyrimidine-5-carboxylic acid; Linzagolix; Thieno(3,4-d)pyrimidine-5-carboxylic acid, 3-(5-((2,3-difluoro-6-methoxyphenyl)methoxy)-2-fluoro-4-methoxyphenyl)-1,2,3,4-tetrahydro-2,4-dioxo-

> <PRODUCTS>
KLH-2109 Choline; Yselty

> <SALTS>
Linzagolix choline

$$$$
