
  Mrv1909 12022219262D          

 28 30  0  0  1  0            999 V2000
   -3.5724    1.2375    0.0000 C   0  0  0  0  0  0  0  0  0  0  0  0
   -2.8579    0.8250    0.0000 O   0  0  0  0  0  0  0  0  0  0  0  0
   -2.8579   -0.0000    0.0000 C   0  0  0  0  0  0  0  0  0  0  0  0
   -2.1434   -0.4125    0.0000 C   0  0  0  0  0  0  0  0  0  0  0  0
   -2.1434   -1.2375    0.0000 C   0  0  0  0  0  0  0  0  0  0  0  0
   -2.8579   -1.6500    0.0000 C   0  0  0  0  0  0  0  0  0  0  0  0
   -3.5724   -1.2375    0.0000 C   0  0  0  0  0  0  0  0  0  0  0  0
   -4.2868   -1.6500    0.0000 F   0  0  0  0  0  0  0  0  0  0  0  0
   -3.5724   -0.4125    0.0000 C   0  0  0  0  0  0  0  0  0  0  0  0
   -1.4289   -0.0000    0.0000 C   0  0  0  0  0  0  0  0  0  0  0  0
   -1.4289    0.8250    0.0000 C   0  0  0  0  0  0  0  0  0  0  0  0
   -0.7145    1.2375    0.0000 C   0  0  0  0  0  0  0  0  0  0  0  0
   -0.7145    2.0625    0.0000 N   0  0  0  0  0  0  0  0  0  0  0  0
   -1.4289    2.4750    0.0000 C   0  0  0  0  0  0  0  0  0  0  0  0
   -2.1434    2.0625    0.0000 N   0  0  0  0  0  0  0  0  0  0  0  0
   -2.8579    2.4750    0.0000 C   0  0  0  0  0  0  0  0  0  0  0  0
   -2.8579    3.3000    0.0000 C   0  0  0  0  0  0  0  0  0  0  0  0
   -2.1434    3.7125    0.0000 C   0  0  0  0  0  0  0  0  0  0  0  0
   -2.1434    4.5375    0.0000 C   0  0  0  0  0  0  0  0  0  0  0  0
   -2.8579    4.9500    0.0000 S   0  0  1  0  0  0  0  0  0  0  0  0
   -3.5724    5.3625    0.0000 C   0  0  0  0  0  0  0  0  0  0  0  0
   -2.4454    5.6645    0.0000 N   0  0  0  0  0  0  0  0  0  0  0  0
   -3.2704    4.2355    0.0000 O   0  0  0  0  0  0  0  0  0  0  0  0
   -1.4289    3.3000    0.0000 C   0  0  0  0  0  0  0  0  0  0  0  0
    0.0000    0.8250    0.0000 N   0  0  0  0  0  0  0  0  0  0  0  0
    0.0000   -0.0000    0.0000 C   0  0  0  0  0  0  0  0  0  0  0  0
   -0.7145   -0.4125    0.0000 C   0  0  0  0  0  0  0  0  0  0  0  0
   -0.7145   -1.2375    0.0000 F   0  0  0  0  0  0  0  0  0  0  0  0
  1  2  1  0  0  0  0
  2  3  1  0  0  0  0
  3  4  2  0  0  0  0
  4  5  1  0  0  0  0
  5  6  2  0  0  0  0
  6  7  1  0  0  0  0
  7  8  1  0  0  0  0
  7  9  2  0  0  0  0
  3  9  1  0  0  0  0
  4 10  1  0  0  0  0
 10 11  2  0  0  0  0
 11 12  1  0  0  0  0
 12 13  1  0  0  0  0
 13 14  1  0  0  0  0
 14 15  2  0  0  0  0
 15 16  1  0  0  0  0
 16 17  2  0  0  0  0
 17 18  1  0  0  0  0
 18 19  1  0  0  0  0
 20 19  1  1  0  0  0
 20 21  1  1  0  0  0
 20 22  2  0  0  0  0
 20 23  2  0  0  0  0
 18 24  2  0  0  0  0
 14 24  1  0  0  0  0
 12 25  2  0  0  0  0
 25 26  1  0  0  0  0
 26 27  2  0  0  0  0
 10 27  1  0  0  0  0
 27 28  1  0  0  0  0
M  END
> <DATABASE_ID>
DB17297

> <DATABASE_NAME>
drugbank

> <SMILES>
COC1=C(C=CC(F)=C1)C1=CC(NC2=NC=CC(C[S@@](C)(=N)=O)=C2)=NC=C1F

> <INCHI_IDENTIFIER>
InChI=1S/C19H18F2N4O2S/c1-27-17-8-13(20)3-4-14(17)15-9-19(24-10-16(15)21)25-18-7-12(5-6-23-18)11-28(2,22)26/h3-10,22H,11H2,1-2H3,(H,23,24,25)/t28-/m0/s1

> <INCHI_KEY>
YZCUMZWULWOUMD-NDEPHWFRSA-N

> <FORMULA>
C19H18F2N4O2S

> <MOLECULAR_WEIGHT>
404.44

> <EXACT_MASS>
404.111853336

> <JCHEM_ACCEPTOR_COUNT>
6

> <JCHEM_ATOM_COUNT>
46

> <JCHEM_AVERAGE_NEUTRAL_MICROSPECIES_CHARGE>
2.9392960871981053

> <JCHEM_AVERAGE_POLARIZABILITY>
39.70800191545358

> <JCHEM_BIOAVAILABILITY>
1

> <JCHEM_DONOR_COUNT>
2

> <JCHEM_FORMAL_CHARGE>
0

> <JCHEM_GHOSE_FILTER>
1

> <JCHEM_IUPAC>
(S)-[(2-{[5-fluoro-4-(4-fluoro-2-methoxyphenyl)pyridin-2-yl]amino}pyridin-4-yl)methyl](imino)methyl-lambda6-sulfanone

> <ALOGPS_LOGP>
3.71

> <JCHEM_LOGP>
2.556806055333333

> <ALOGPS_LOGS>
-4.72

> <JCHEM_MDDR_LIKE_RULE>
1

> <JCHEM_NEUTRAL_CHARGE>
0

> <JCHEM_NUMBER_OF_RINGS>
3

> <JCHEM_PHYSIOLOGICAL_CHARGE>
0

> <JCHEM_PKA_STRONGEST_ACIDIC>
13.516790298492689

> <JCHEM_PKA_STRONGEST_BASIC>
4.464865617909392

> <JCHEM_POLAR_SURFACE_AREA>
87.96

> <JCHEM_REFRACTIVITY>
103.01589999999997

> <JCHEM_ROTATABLE_BOND_COUNT>
6

> <JCHEM_RULE_OF_FIVE>
1

> <ALOGPS_SOLUBILITY>
7.76e-03 g/l

> <JCHEM_TRADITIONAL_IUPAC>
(S)-[(2-{[5-fluoro-4-(4-fluoro-2-methoxyphenyl)pyridin-2-yl]amino}pyridin-4-yl)methyl](imino)methyl-lambda6-sulfanone

> <JCHEM_VEBER_RULE>
0

> <DRUGBANK_ID>
DB17297

> <DRUG_GROUPS>
investigational

> <GENERIC_NAME>
Enitociclib

> <SYNONYMS>
2-pyridinamine, 5-fluoro-4-(4-fluoro-2-methoxyphenyl)-n-(4-(((s(s))-s-methylsulfonimidoyl)methyl)-2-pyridinyl)-

$$$$
