
  Mrv1909 02092016272D          

 29 32  0  0  0  0            999 V2000
   -0.3572    0.6187    0.0000 C   0  0  0  0  0  0  0  0  0  0  0  0
    0.3572    1.0311    0.0000 N   0  0  0  0  0  0  0  0  0  0  0  0
    1.0717    0.6187    0.0000 C   0  0  0  0  0  0  0  0  0  0  0  0
    1.0717   -0.2063    0.0000 C   0  0  0  0  0  0  0  0  0  0  0  0
    0.3572   -0.6188    0.0000 C   0  0  0  0  0  0  0  0  0  0  0  0
   -0.3572   -0.2063    0.0000 N   0  0  0  0  0  0  0  0  0  0  0  0
    1.7862   -0.6188    0.0000 C   0  0  0  0  0  0  0  0  0  0  0  0
    2.5006   -0.2063    0.0000 C   0  0  0  0  0  0  0  0  0  0  0  0
    2.5006    0.6188    0.0000 C   0  0  0  0  0  0  0  0  0  0  0  0
    1.7862    1.0313    0.0000 N   0  0  0  0  0  0  0  0  0  0  0  0
    3.2151    1.0313    0.0000 O   0  0  0  0  0  0  0  0  0  0  0  0
    1.7862    1.8563    0.0000 C   0  0  0  0  0  0  0  0  0  0  0  0
   -1.0717    1.0311    0.0000 N   0  0  0  0  0  0  0  0  0  0  0  0
   -1.7862    0.6187    0.0000 C   0  0  0  0  0  0  0  0  0  0  0  0
   -2.5006    1.0311    0.0000 C   0  0  0  0  0  0  0  0  0  0  0  0
   -3.2151    0.6187    0.0000 C   0  0  0  0  0  0  0  0  0  0  0  0
   -3.2151   -0.2063    0.0000 C   0  0  0  0  0  0  0  0  0  0  0  0
   -2.5006   -0.6188    0.0000 C   0  0  0  0  0  0  0  0  0  0  0  0
   -1.7862   -0.2063    0.0000 C   0  0  0  0  0  0  0  0  0  0  0  0
   -3.9296    1.0311    0.0000 C   0  0  0  0  0  0  0  0  0  0  0  0
   -4.6441    0.6187    0.0000 O   0  0  0  0  0  0  0  0  0  0  0  0
    3.2151   -0.6188    0.0000 C   0  0  0  0  0  0  0  0  0  0  0  0
    3.9296   -0.2063    0.0000 C   0  0  0  0  0  0  0  0  0  0  0  0
    4.6441   -0.6188    0.0000 C   0  0  0  0  0  0  0  0  0  0  0  0
    4.6441   -1.4438    0.0000 C   0  0  0  0  0  0  0  0  0  0  0  0
    3.9296   -1.8563    0.0000 C   0  0  0  0  0  0  0  0  0  0  0  0
    3.2151   -1.4438    0.0000 C   0  0  0  0  0  0  0  0  0  0  0  0
    2.5006   -1.8563    0.0000 Cl  0  0  0  0  0  0  0  0  0  0  0  0
    3.9296    0.6187    0.0000 Cl  0  0  0  0  0  0  0  0  0  0  0  0
  1  2  1  0  0  0  0
  2  3  2  0  0  0  0
  3  4  1  0  0  0  0
  4  5  2  0  0  0  0
  5  6  1  0  0  0  0
  1  6  2  0  0  0  0
  7  8  2  0  0  0  0
  8  9  1  0  0  0  0
  9 10  1  0  0  0  0
 10  3  1  0  0  0  0
  7  4  1  0  0  0  0
  9 11  2  0  0  0  0
 10 12  1  0  0  0  0
 14 15  1  0  0  0  0
 15 16  2  0  0  0  0
 16 17  1  0  0  0  0
 17 18  2  0  0  0  0
 18 19  1  0  0  0  0
 14 19  2  0  0  0  0
 20 21  1  0  0  0  0
 16 20  1  0  0  0  0
 13 14  1  0  0  0  0
  1 13  1  0  0  0  0
 22 23  1  0  0  0  0
 23 24  2  0  0  0  0
 24 25  1  0  0  0  0
 25 26  2  0  0  0  0
 26 27  1  0  0  0  0
 22 27  2  0  0  0  0
 27 28  1  0  0  0  0
 23 29  1  0  0  0  0
  8 22  1  0  0  0  0
M  END
> <DATABASE_ID>
DB08339

> <DATABASE_NAME>
drugbank

> <SMILES>
CN1C(=O)C(=CC2=CN=C(NC3=CC=CC(CO)=C3)N=C12)C1=C(Cl)C=CC=C1Cl

> <INCHI_IDENTIFIER>
InChI=1S/C21H16Cl2N4O2/c1-27-19-13(9-15(20(27)29)18-16(22)6-3-7-17(18)23)10-24-21(26-19)25-14-5-2-4-12(8-14)11-28/h2-10,28H,11H2,1H3,(H,24,25,26)

> <INCHI_KEY>
ZIQFYVPVJZEOFS-UHFFFAOYSA-N

> <FORMULA>
C21H16Cl2N4O2

> <MOLECULAR_WEIGHT>
427.283

> <EXACT_MASS>
426.06503119

> <JCHEM_ACCEPTOR_COUNT>
5

> <JCHEM_ATOM_COUNT>
45

> <JCHEM_AVERAGE_NEUTRAL_MICROSPECIES_CHARGE>
0.98795456945926

> <JCHEM_AVERAGE_POLARIZABILITY>
43.17923000444964

> <JCHEM_BIOAVAILABILITY>
1

> <JCHEM_DONOR_COUNT>
2

> <JCHEM_FORMAL_CHARGE>
0

> <JCHEM_GHOSE_FILTER>
1

> <JCHEM_IUPAC>
6-(2,6-dichlorophenyl)-2-{[3-(hydroxymethyl)phenyl]amino}-8-methyl-7H,8H-pyrido[2,3-d]pyrimidin-7-one

> <ALOGPS_LOGP>
3.99

> <JCHEM_LOGP>
4.359694758333333

> <ALOGPS_LOGS>
-4.50

> <JCHEM_MDDR_LIKE_RULE>
0

> <JCHEM_NEUTRAL_CHARGE>
0

> <JCHEM_NUMBER_OF_RINGS>
4

> <JCHEM_PHYSIOLOGICAL_CHARGE>
0

> <JCHEM_PKA>
15.207550717795266

> <JCHEM_PKA_STRONGEST_ACIDIC>
13.117382575792046

> <JCHEM_PKA_STRONGEST_BASIC>
0.8713190450924491

> <JCHEM_POLAR_SURFACE_AREA>
78.35000000000001

> <JCHEM_REFRACTIVITY>
114.68269999999998

> <JCHEM_ROTATABLE_BOND_COUNT>
3

> <JCHEM_RULE_OF_FIVE>
1

> <ALOGPS_SOLUBILITY>
1.35e-02 g/l

> <JCHEM_TRADITIONAL_IUPAC>
6-(2,6-dichlorophenyl)-2-{[3-(hydroxymethyl)phenyl]amino}-8-methylpyrido[2,3-d]pyrimidin-7-one

> <JCHEM_VEBER_RULE>
0

> <DRUGBANK_ID>
DB08339

> <DRUG_GROUPS>
experimental

> <GENERIC_NAME>
PD-166326

$$$$
