
  Mrv1909 03042104552D          

 37 39  0  0  0  0            999 V2000
   -4.6718   -2.0074    0.0000 C   0  0  0  0  0  0  0  0  0  0  0  0
   -5.3862   -1.5949    0.0000 C   0  0  0  0  0  0  0  0  0  0  0  0
   -5.3862   -0.7699    0.0000 C   0  0  0  0  0  0  0  0  0  0  0  0
   -3.9573   -1.5949    0.0000 C   0  0  0  0  0  0  0  0  0  0  0  0
   -3.9573   -0.7699    0.0000 C   0  0  0  0  0  0  0  0  0  0  0  0
   -4.6718   -0.3574    0.0000 C   0  0  0  0  0  0  0  0  0  0  0  0
   -3.2428   -0.3574    0.0000 C   0  0  2  0  0  0  0  0  0  0  0  0
   -2.5284   -0.7699    0.0000 C   0  0  2  0  0  0  0  0  0  0  0  0
   -1.8139   -0.3574    0.0000 N   0  0  0  0  0  0  0  0  0  0  0  0
   -1.0994   -0.7699    0.0000 C   0  0  0  0  0  0  0  0  0  0  0  0
   -1.0994   -1.5949    0.0000 C   0  0  0  0  0  0  0  0  0  0  0  0
   -1.8139   -2.0074    0.0000 C   0  0  0  0  0  0  0  0  0  0  0  0
   -2.5284   -1.5949    0.0000 C   0  0  0  0  0  0  0  0  0  0  0  0
   -1.8414    0.3849    0.0000 C   0  0  0  0  0  0  0  0  0  0  0  0
   -1.0994    0.8799    0.0000 O   0  0  0  0  0  0  0  0  0  0  0  0
   -0.3294    0.3574    0.0000 C   0  0  0  0  0  0  0  0  0  0  0  0
    0.3849    0.7699    0.0000 N   0  3  0  0  0  0  0  0  0  0  0  0
    0.3849    1.5949    0.0000 C   0  0  0  0  0  0  0  0  0  0  0  0
    1.0994    2.0074    0.0000 C   0  0  0  0  0  0  0  0  0  0  0  0
    1.0994    0.3574    0.0000 C   0  0  0  0  0  0  0  0  0  0  0  0
    1.8139    0.7699    0.0000 C   0  0  0  0  0  0  0  0  0  0  0  0
    1.8139    1.5949    0.0000 C   0  0  0  0  0  0  0  0  0  0  0  0
    2.5284    0.3574    0.0000 C   0  0  0  0  0  0  0  0  0  0  0  0
    3.2428    0.7699    0.0000 N   0  0  0  0  0  0  0  0  0  0  0  0
    3.9573    0.3574    0.0000 C   0  0  2  0  0  0  0  0  0  0  0  0
    4.6718    0.7699    0.0000 C   0  0  0  0  0  0  0  0  0  0  0  0
    2.5284   -0.4674    0.0000 O   0  0  0  0  0  0  0  0  0  0  0  0
   -3.2703    0.4399    0.0000 C   0  0  0  0  0  0  0  0  0  0  0  0
   -2.8573    1.1274    0.0000 O   0  0  0  0  0  0  0  0  0  0  0  0
   -2.8843    1.8974    0.0000 C   0  0  0  0  0  0  0  0  0  0  0  0
   -4.0403    0.7969    0.0000 O   0  0  0  0  0  0  0  0  0  0  0  0
   -2.5559    0.7974    0.0000 O   0  0  0  0  0  0  0  0  0  0  0  0
    4.6718    1.5949    0.0000 O   0  0  0  0  0  0  0  0  0  0  0  0
    5.3862    0.3574    0.0000 O   0  5  0  0  0  0  0  0  0  0  0  0
    3.9573   -0.4674    0.0000 C   0  0  0  0  0  0  0  0  0  0  0  0
    4.6718   -0.8799    0.0000 O   0  0  0  0  0  0  0  0  0  0  0  0
   -2.5284    0.0549    0.0000 H   0  0  0  0  0  0  0  0  0  0  0  0
  1  2  2  0  0  0  0
  2  3  1  0  0  0  0
  1  4  1  0  0  0  0
  4  5  2  0  0  0  0
  5  6  1  0  0  0  0
  6  3  2  0  0  0  0
  5  7  1  0  0  0  0
  7  8  1  0  0  0  0
  8  9  1  0  0  0  0
  9 10  1  0  0  0  0
 10 11  1  0  0  0  0
 11 12  1  0  0  0  0
 12 13  1  0  0  0  0
 13  8  1  0  0  0  0
  9 14  1  0  0  0  0
 14 15  1  0  0  0  0
 15 16  1  0  0  0  0
 16 17  1  0  0  0  0
 17 18  2  0  0  0  0
 18 19  1  0  0  0  0
 17 20  1  0  0  0  0
 20 21  2  0  0  0  0
 21 22  1  0  0  0  0
 22 19  2  0  0  0  0
 21 23  1  0  0  0  0
 23 24  1  0  0  0  0
 24 25  1  0  0  0  0
 25 26  1  0  0  0  0
 23 27  2  0  0  0  0
  7 28  1  1  0  0  0
 28 29  1  0  0  0  0
 29 30  1  0  0  0  0
 28 31  2  0  0  0  0
 14 32  2  0  0  0  0
 26 33  2  0  0  0  0
 26 34  1  0  0  0  0
 25 35  1  6  0  0  0
 35 36  1  0  0  0  0
  8 37  1  1  0  0  0
M  CHG  2  17   1  34  -1
M  END
> <DATABASE_ID>
DB16629

> <DATABASE_NAME>
drugbank

> <SMILES>
[H][C@@]1(CCCCN1C(=O)OC[N+]1=CC=CC(=C1)C(=O)N[C@@H](CO)C([O-])=O)[C@H](C(=O)OC)C1=CC=CC=C1

> <INCHI_IDENTIFIER>
InChI=1S/C25H29N3O8/c1-35-24(33)21(17-8-3-2-4-9-17)20-11-5-6-13-28(20)25(34)36-16-27-12-7-10-18(14-27)22(30)26-19(15-29)23(31)32/h2-4,7-10,12,14,19-21,29H,5-6,11,13,15-16H2,1H3,(H-,26,30,31,32)/t19-,20+,21+/m0/s1

> <INCHI_KEY>
UBZPNQRBUOBBLN-PWRODBHTSA-N

> <FORMULA>
C25H29N3O8

> <MOLECULAR_WEIGHT>
499.52

> <EXACT_MASS>
499.195464906

> <JCHEM_ACCEPTOR_COUNT>
6

> <JCHEM_ATOM_COUNT>
65

> <JCHEM_AVERAGE_NEUTRAL_MICROSPECIES_CHARGE>
3.127485464504698e-05

> <JCHEM_AVERAGE_POLARIZABILITY>
50.900974089866295

> <JCHEM_BIOAVAILABILITY>
1

> <JCHEM_DONOR_COUNT>
2

> <JCHEM_FORMAL_CHARGE>
0

> <JCHEM_GHOSE_FILTER>
0

> <JCHEM_IUPAC>
3-{[(1S)-1-carboxylato-2-hydroxyethyl]carbamoyl}-1-{[(2R)-2-[(1R)-2-methoxy-2-oxo-1-phenylethyl]piperidine-1-carbonyloxy]methyl}pyridin-1-ium

> <JCHEM_LOGP>
-2.6908965351384118

> <JCHEM_MDDR_LIKE_RULE>
1

> <JCHEM_NEUTRAL_CHARGE>
0

> <JCHEM_NUMBER_OF_RINGS>
3

> <JCHEM_PHYSIOLOGICAL_CHARGE>
0

> <JCHEM_PKA>
12.28564305012155

> <JCHEM_PKA_STRONGEST_ACIDIC>
2.5618689415758635

> <JCHEM_PKA_STRONGEST_BASIC>
-2.4455983606955036

> <JCHEM_POLAR_SURFACE_AREA>
149.17999999999998

> <JCHEM_REFRACTIVITY>
137.74909999999997

> <JCHEM_ROTATABLE_BOND_COUNT>
11

> <JCHEM_RULE_OF_FIVE>
1

> <JCHEM_TRADITIONAL_IUPAC>
N-demethyldiltiazem

> <JCHEM_VEBER_RULE>
0

> <DRUGBANK_ID>
DB16629

> <DRUG_GROUPS>
approved

> <GENERIC_NAME>
Serdexmethylphenidate

> <SYNONYMS>
Serdexmethylphenidate

> <PRODUCTS>
Azstarys

> <SALTS>
Serdexmethylphenidate chloride

$$$$
