
  Mrv1909 12152018132D          

 34 34  0  0  1  0            999 V2000
   -3.1982   -3.7582    0.0000 C   0  0  0  0  0  0  0  0  0  0  0  0
   -2.4136   -3.5033    0.0000 C   0  0  0  0  0  0  0  0  0  0  0  0
   -2.2420   -2.6963    0.0000 C   0  0  0  0  0  0  0  0  0  0  0  0
   -1.4574   -2.4414    0.0000 C   0  0  0  0  0  0  0  0  0  0  0  0
   -1.2859   -1.6344    0.0000 C   0  0  0  0  0  0  0  0  0  0  0  0
   -0.5013   -1.3794    0.0000 C   0  0  2  0  0  0  0  0  0  0  0  0
    0.1118   -1.9315    0.0000 O   0  0  0  0  0  0  0  0  0  0  0  0
   -0.3298   -0.5725    0.0000 C   0  0  0  0  0  0  0  0  0  0  0  0
    0.4549   -0.3175    0.0000 C   0  0  0  0  0  0  0  0  0  0  0  0
    0.6264    0.4894    0.0000 C   0  0  1  0  0  0  0  0  0  0  0  0
    0.0744    1.1025    0.0000 C   0  0  2  0  0  0  0  0  0  0  0  0
   -0.7461    1.0163    0.0000 O   0  0  0  0  0  0  0  0  0  0  0  0
    0.4869    1.8170    0.0000 C   0  0  0  0  0  0  0  0  0  0  0  0
    1.2938    1.6455    0.0000 C   0  0  0  0  0  0  0  0  0  0  0  0
    1.9069    2.1975    0.0000 O   0  0  0  0  0  0  0  0  0  0  0  0
    1.7354    3.0045    0.0000 C   0  0  0  0  0  0  0  0  0  0  0  0
    0.9508    3.2594    0.0000 O   0  0  0  0  0  0  0  0  0  0  0  0
    2.3485    3.5565    0.0000 C   0  0  0  0  0  0  0  0  0  0  0  0
    2.1770    4.3635    0.0000 C   0  0  0  0  0  0  0  0  0  0  0  0
    2.7901    4.9155    0.0000 C   0  0  0  0  0  0  0  0  0  0  0  0
    1.3801    0.8250    0.0000 C   0  0  0  0  0  0  0  0  0  0  0  0
    2.0945    0.4125    0.0000 C   0  0  0  0  0  0  0  0  0  0  0  0
    2.8090    0.8250    0.0000 C   0  0  0  0  0  0  0  0  0  0  0  0
    3.5235    0.4125    0.0000 C   0  0  0  0  0  0  0  0  0  0  0  0
    4.2380    0.8250    0.0000 C   0  0  0  0  0  0  0  0  0  0  0  0
    4.9524    0.4125    0.0000 C   0  0  0  0  0  0  0  0  0  0  0  0
    5.6669    0.8250    0.0000 C   0  0  0  0  0  0  0  0  0  0  0  0
    6.3814    0.4125    0.0000 C   0  0  0  0  0  0  0  0  0  0  0  0
    6.3814   -0.4125    0.0000 O   0  0  0  0  0  0  0  0  0  0  0  0
    7.0958    0.8250    0.0000 O   0  0  0  0  0  0  0  0  0  0  0  0
    7.8103    0.4125    0.0000 C   0  0  0  0  0  0  0  0  0  0  0  0
    8.5248    0.8250    0.0000 C   0  0  0  0  0  0  0  0  0  0  0  0
    9.2393    0.4125    0.0000 C   0  0  0  0  0  0  0  0  0  0  0  0
    9.9537    0.8250    0.0000 C   0  0  0  0  0  0  0  0  0  0  0  0
  1  2  1  0  0  0  0
  2  3  1  0  0  0  0
  3  4  1  0  0  0  0
  4  5  1  0  0  0  0
  6  5  1  0  0  0  0
  6  7  1  1  0  0  0
  6  8  1  0  0  0  0
  8  9  2  0  0  0  0
 10  9  1  1  0  0  0
 10 11  1  0  0  0  0
 11 12  1  6  0  0  0
 11 13  1  0  0  0  0
 13 14  1  0  0  0  0
 14 15  1  0  0  0  0
 15 16  1  0  0  0  0
 16 17  2  0  0  0  0
 16 18  1  0  0  0  0
 18 19  1  0  0  0  0
 19 20  1  0  0  0  0
 14 21  2  0  0  0  0
 10 21  1  0  0  0  0
 21 22  1  0  0  0  0
 22 23  1  0  0  0  0
 23 24  1  0  0  0  0
 24 25  1  0  0  0  0
 25 26  1  0  0  0  0
 26 27  1  0  0  0  0
 27 28  1  0  0  0  0
 28 29  2  0  0  0  0
 28 30  1  0  0  0  0
 30 31  1  0  0  0  0
 31 32  1  0  0  0  0
 32 33  1  0  0  0  0
 33 34  1  0  0  0  0
M  END
> <DATABASE_ID>
DB16148

> <DATABASE_NAME>
drugbank

> <SMILES>
CCCCC[C@H](O)\C=C\[C@H]1[C@H](O)CC(OC(=O)CCC)=C1CCCCCCC(=O)OCCCC

> <INCHI_IDENTIFIER>
InChI=1S/C28H48O6/c1-4-7-11-15-22(29)18-19-23-24(26(21-25(23)30)34-28(32)14-6-3)16-12-9-10-13-17-27(31)33-20-8-5-2/h18-19,22-23,25,29-30H,4-17,20-21H2,1-3H3/b19-18+/t22-,23+,25+/m0/s1

> <INCHI_KEY>
HITYEEHTEOQBAC-OSIGYOHNSA-N

> <FORMULA>
C28H48O6

> <MOLECULAR_WEIGHT>
480.686

> <EXACT_MASS>
480.345089266

> <JCHEM_ACCEPTOR_COUNT>
4

> <JCHEM_ATOM_COUNT>
82

> <JCHEM_AVERAGE_NEUTRAL_MICROSPECIES_CHARGE>
-1.841240909920483e-08

> <JCHEM_AVERAGE_POLARIZABILITY>
58.54668617563051

> <JCHEM_BIOAVAILABILITY>
0

> <JCHEM_DONOR_COUNT>
2

> <JCHEM_FORMAL_CHARGE>
0

> <JCHEM_GHOSE_FILTER>
0

> <JCHEM_IUPAC>
butyl 7-[(4R,5R)-2-(butanoyloxy)-4-hydroxy-5-[(1E,3S)-3-hydroxyoct-1-en-1-yl]cyclopent-1-en-1-yl]heptanoate

> <ALOGPS_LOGP>
5.76

> <JCHEM_LOGP>
5.575130909333334

> <ALOGPS_LOGS>
-5.26

> <JCHEM_MDDR_LIKE_RULE>
0

> <JCHEM_NEUTRAL_CHARGE>
0

> <JCHEM_NUMBER_OF_RINGS>
1

> <JCHEM_PHYSIOLOGICAL_CHARGE>
0

> <JCHEM_PKA>
17.746705801283568

> <JCHEM_PKA_STRONGEST_ACIDIC>
14.677502492449008

> <JCHEM_PKA_STRONGEST_BASIC>
-1.597388119059943

> <JCHEM_POLAR_SURFACE_AREA>
93.05999999999999

> <JCHEM_REFRACTIVITY>
137.67999999999998

> <JCHEM_ROTATABLE_BOND_COUNT>
21

> <JCHEM_RULE_OF_FIVE>
0

> <ALOGPS_SOLUBILITY>
2.66e-03 g/l

> <JCHEM_TRADITIONAL_IUPAC>
5-({4-[2-(3-methoxyphenyl)-2-oxoethoxy]phenyl}methyl)-1,3-thiazolidine-2,4-dione

> <JCHEM_VEBER_RULE>
0

> <DRUGBANK_ID>
DB16148

> <DRUG_GROUPS>
investigational

> <GENERIC_NAME>
Ecraprost

> <SYNONYMS>
Circulase; Ecraprost

$$$$
