
  Mrv1909 11261904532D          

 56 59  0  0  0  0            999 V2000
   -1.7848    0.2099    0.0000 C   0  0  0  0  0  0  0  0  0  0  0  0
   -1.0648   -0.2099    0.0000 C   0  0  1  0  0  0  0  0  0  0  0  0
   -0.3600    0.2099    0.0000 C   0  0  1  0  0  0  0  0  0  0  0  0
    0.3600   -0.2099    0.0000 C   0  0  2  0  0  0  0  0  0  0  0  0
    1.0648    0.2099    0.0000 C   0  0  2  0  0  0  0  0  0  0  0  0
    1.7848   -0.2099    0.0000 C   0  0  0  0  0  0  0  0  0  0  0  0
    1.7848   -1.0348    0.0000 O   0  0  0  0  0  0  0  0  0  0  0  0
    1.0648    1.0348    0.0000 O   0  0  0  0  0  0  0  0  0  0  0  0
    1.7848    1.4398    0.0000 C   0  0  0  0  0  0  0  0  0  0  0  0
    1.7848    2.2648    0.0000 C   0  0  0  0  0  0  0  0  0  0  0  0
    1.7848    3.9146    0.0000 C   0  0  0  0  0  0  0  0  0  0  0  0
    1.0648    3.5096    0.0000 C   0  0  0  0  0  0  0  0  0  0  0  0
    1.0648    2.6847    0.0000 C   0  0  0  0  0  0  0  0  0  0  0  0
    2.5047    2.6847    0.0000 C   0  0  0  0  0  0  0  0  0  0  0  0
    2.5047    3.5096    0.0000 C   0  0  0  0  0  0  0  0  0  0  0  0
   -0.3600    1.0348    0.0000 O   0  0  0  0  0  0  0  0  0  0  0  0
   -1.7848   -1.4398    0.0000 C   0  0  0  0  0  0  0  0  0  0  0  0
   -1.7848   -2.2648    0.0000 C   0  0  0  0  0  0  0  0  0  0  0  0
   -2.5047   -2.6847    0.0000 C   0  0  0  0  0  0  0  0  0  0  0  0
   -2.5047   -3.5096    0.0000 C   0  0  0  0  0  0  0  0  0  0  0  0
   -1.7848   -3.9146    0.0000 C   0  0  0  0  0  0  0  0  0  0  0  0
   -1.0648   -3.5096    0.0000 C   0  0  0  0  0  0  0  0  0  0  0  0
   -1.0648   -2.6847    0.0000 C   0  0  0  0  0  0  0  0  0  0  0  0
   -1.0648   -1.0348    0.0000 O   0  0  0  0  0  0  0  0  0  0  0  0
   -1.7848    1.0348    0.0000 O   0  0  0  0  0  0  0  0  0  0  0  0
   -2.5047   -0.2099    0.0000 N   0  0  0  0  0  0  0  0  0  0  0  0
    0.3600   -1.0348    0.0000 O   0  0  0  0  0  0  0  0  0  0  0  0
   -3.2097    0.2099    0.0000 C   0  0  1  0  0  0  0  0  0  0  0  0
   -3.2097    1.0348    0.0000 C   0  0  0  0  0  0  0  0  0  0  0  0
   -2.5047    1.4398    0.0000 C   0  0  0  0  0  0  0  0  0  0  0  0
   -3.9296    1.4398    0.0000 C   0  0  0  0  0  0  0  0  0  0  0  0
   -3.9296   -0.2099    0.0000 C   0  0  0  0  0  0  0  0  0  0  0  0
   -3.9296   -1.0348    0.0000 O   0  0  0  0  0  0  0  0  0  0  0  0
   -4.6495    0.2099    0.0000 N   0  0  0  0  0  0  0  0  0  0  0  0
    2.5047    0.2099    0.0000 N   0  0  0  0  0  0  0  0  0  0  0  0
    3.2097   -0.2099    0.0000 C   0  0  1  0  0  0  0  0  0  0  0  0
    3.2097   -1.0348    0.0000 C   0  0  0  0  0  0  0  0  0  0  0  0
    2.5047   -1.4398    0.0000 C   0  0  0  0  0  0  0  0  0  0  0  0
    3.9296   -1.4398    0.0000 C   0  0  0  0  0  0  0  0  0  0  0  0
    3.9296    0.2099    0.0000 C   0  0  0  0  0  0  0  0  0  0  0  0
    3.9296    1.0348    0.0000 O   0  0  0  0  0  0  0  0  0  0  0  0
    4.6495   -0.2099    0.0000 N   0  0  0  0  0  0  0  0  0  0  0  0
   -5.3544   -0.2099    0.0000 C   0  0  0  0  0  0  0  0  0  0  0  0
   -6.0743    0.2099    0.0000 C   0  0  0  0  0  0  0  0  0  0  0  0
   -6.7793    1.4398    0.0000 C   0  0  0  0  0  0  0  0  0  0  0  0
   -7.4993    1.0348    0.0000 C   0  0  0  0  0  0  0  0  0  0  0  0
   -7.4993    0.2099    0.0000 C   0  0  0  0  0  0  0  0  0  0  0  0
   -6.0743    1.0348    0.0000 C   0  0  0  0  0  0  0  0  0  0  0  0
   -6.7793   -0.2099    0.0000 N   0  0  0  0  0  0  0  0  0  0  0  0
    5.3544    0.2099    0.0000 C   0  0  0  0  0  0  0  0  0  0  0  0
    6.0743   -0.2099    0.0000 C   0  0  0  0  0  0  0  0  0  0  0  0
    6.0743   -1.0348    0.0000 C   0  0  0  0  0  0  0  0  0  0  0  0
    6.7793   -1.4398    0.0000 C   0  0  0  0  0  0  0  0  0  0  0  0
    7.4993   -1.0348    0.0000 C   0  0  0  0  0  0  0  0  0  0  0  0
    7.4993   -0.2099    0.0000 C   0  0  0  0  0  0  0  0  0  0  0  0
    6.7793    0.2099    0.0000 N   0  0  0  0  0  0  0  0  0  0  0  0
  1 26  1  0  0  0  0
  1  2  1  0  0  0  0
  1 25  2  0  0  0  0
  2  3  1  0  0  0  0
  2 24  1  1  0  0  0
  3  4  1  0  0  0  0
  3 16  1  6  0  0  0
  4  5  1  0  0  0  0
  4 27  1  6  0  0  0
  5  6  1  0  0  0  0
  5  8  1  1  0  0  0
  6 35  1  0  0  0  0
  6  7  2  0  0  0  0
  8  9  1  0  0  0  0
  9 10  1  0  0  0  0
 10 13  2  0  0  0  0
 10 14  1  0  0  0  0
 11 12  2  0  0  0  0
 11 15  1  0  0  0  0
 12 13  1  0  0  0  0
 14 15  2  0  0  0  0
 17 24  1  0  0  0  0
 17 18  1  0  0  0  0
 18 19  2  0  0  0  0
 18 23  1  0  0  0  0
 19 20  1  0  0  0  0
 20 21  2  0  0  0  0
 21 22  1  0  0  0  0
 22 23  2  0  0  0  0
 26 28  1  0  0  0  0
 28 32  1  0  0  0  0
 28 29  1  6  0  0  0
 29 30  1  0  0  0  0
 29 31  1  0  0  0  0
 32 34  1  0  0  0  0
 32 33  2  0  0  0  0
 34 43  1  0  0  0  0
 35 36  1  0  0  0  0
 36 40  1  0  0  0  0
 36 37  1  6  0  0  0
 37 38  1  0  0  0  0
 37 39  1  0  0  0  0
 40 42  1  0  0  0  0
 40 41  2  0  0  0  0
 42 50  1  0  0  0  0
 43 44  1  0  0  0  0
 44 49  2  0  0  0  0
 44 48  1  0  0  0  0
 45 46  1  0  0  0  0
 45 48  2  0  0  0  0
 46 47  2  0  0  0  0
 47 49  1  0  0  0  0
 50 51  1  0  0  0  0
 51 56  1  0  0  0  0
 51 52  2  0  0  0  0
 52 53  1  0  0  0  0
 53 54  2  0  0  0  0
 54 55  1  0  0  0  0
 55 56  2  0  0  0  0
M  END
> <DATABASE_ID>
DB03803

> <DATABASE_NAME>
drugbank

> <SMILES>
CC(C)[C@H](NC(=O)[C@H](OCC1=CC=CC=C1)[C@H](O)[C@@H](O)[C@@H](OCC1=CC=CC=C1)C(=O)N[C@@H](C(C)C)C(=O)NCC1=NC=CC=C1)C(=O)NCC1=CC=CC=N1

> <INCHI_IDENTIFIER>
InChI=1S/C42H52N6O8/c1-27(2)33(39(51)45-23-31-19-11-13-21-43-31)47-41(53)37(55-25-29-15-7-5-8-16-29)35(49)36(50)38(56-26-30-17-9-6-10-18-30)42(54)48-34(28(3)4)40(52)46-24-32-20-12-14-22-44-32/h5-22,27-28,33-38,49-50H,23-26H2,1-4H3,(H,45,51)(H,46,52)(H,47,53)(H,48,54)/t33-,34-,35+,36+,37+,38+/m0/s1

> <INCHI_KEY>
SVFLQOLSPWURCD-CXPJILFNSA-N

> <FORMULA>
C42H52N6O8

> <MOLECULAR_WEIGHT>
768.8977

> <EXACT_MASS>
768.38466267

> <JCHEM_ACCEPTOR_COUNT>
10

> <JCHEM_ATOM_COUNT>
108

> <JCHEM_AVERAGE_POLARIZABILITY>
83.00024657076551

> <JCHEM_BIOAVAILABILITY>
0

> <JCHEM_DONOR_COUNT>
6

> <JCHEM_FORMAL_CHARGE>
0

> <JCHEM_GHOSE_FILTER>
0

> <JCHEM_IUPAC>
(2R,3R,4R,5R)-2,5-bis(benzyloxy)-3,4-dihydroxy-N,N'-bis[(1S)-2-methyl-1-{[(pyridin-2-yl)methyl]carbamoyl}propyl]hexanediamide

> <ALOGPS_LOGP>
3.39

> <JCHEM_LOGP>
2.357693982666668

> <ALOGPS_LOGS>
-4.63

> <JCHEM_MDDR_LIKE_RULE>
1

> <JCHEM_NUMBER_OF_RINGS>
4

> <JCHEM_PHYSIOLOGICAL_CHARGE>
0

> <JCHEM_PKA>
12.042091161545411

> <JCHEM_PKA_STRONGEST_ACIDIC>
11.548978919911699

> <JCHEM_PKA_STRONGEST_BASIC>
4.443414129259138

> <JCHEM_POLAR_SURFACE_AREA>
201.10000000000002

> <JCHEM_REFRACTIVITY>
206.75680000000003

> <JCHEM_ROTATABLE_BOND_COUNT>
21

> <JCHEM_RULE_OF_FIVE>
0

> <ALOGPS_SOLUBILITY>
1.80e-02 g/l

> <JCHEM_TRADITIONAL_IUPAC>
5-[(2R,4S,5R)-4-hydroxy-5-(hydroxymethyl)oxolan-2-yl]-1-methyl-3H-pyrimidine-2,4-dione

> <JCHEM_VEBER_RULE>
0

> <DRUGBANK_ID>
DB03803

> <SECONDARY_ACCESSION_NUMBERS>
EXPT02235

> <DRUG_GROUPS>
experimental

> <GENERIC_NAME>
N,N-[2,5-O-dibenzyl-glucaryl]-DI-[valinyl-aminomethanyl-pyridine]

> <SYNONYMS>
Inhibitor MSA367

$$$$
