
  Mrv1718011031815062D          

  2  0  0  0  0  0            999 V2000
   -0.4125    0.0000    0.0000 K   0  3  0  0  0  0  0  0  0  0  0  0
    0.4125    0.0000    0.0000 O   0  5  0  0  0  0  0  0  0  0  0  0
M  CHG  2   1   1   2  -1
M  END
> <DATABASE_ID>
DB11153

> <DATABASE_NAME>
drugbank

> <SMILES>
[OH-].[K+]

> <INCHI_IDENTIFIER>
InChI=1S/K.H2O/h;1H2/q+1;/p-1

> <INCHI_KEY>
KWYUFKZDYYNOTN-UHFFFAOYSA-M

> <FORMULA>
HKO

> <MOLECULAR_WEIGHT>
56.1056

> <EXACT_MASS>
55.966446515

> <JCHEM_ACCEPTOR_COUNT>
0

> <JCHEM_ATOM_COUNT>
3

> <JCHEM_AVERAGE_POLARIZABILITY>
1.7784

> <JCHEM_BIOAVAILABILITY>
1

> <JCHEM_DONOR_COUNT>
0

> <JCHEM_FORMAL_CHARGE>
0

> <JCHEM_GHOSE_FILTER>
0

> <JCHEM_IUPAC>
potassium hydroxide

> <JCHEM_LOGP>
0.2

> <JCHEM_MDDR_LIKE_RULE>
0

> <JCHEM_NUMBER_OF_RINGS>
0

> <JCHEM_PHYSIOLOGICAL_CHARGE>
1

> <JCHEM_PKA>
3.55

> <JCHEM_PKA_STRONGEST_ACIDIC>
3.09

> <JCHEM_POLAR_SURFACE_AREA>
0.0

> <JCHEM_REFRACTIVITY>
0.0

> <JCHEM_ROTATABLE_BOND_COUNT>
0

> <JCHEM_RULE_OF_FIVE>
1

> <JCHEM_TRADITIONAL_IUPAC>
potassium hydroxide

> <JCHEM_VEBER_RULE>
1

> <DRUGBANK_ID>
DB11153

> <DRUG_GROUPS>
approved

> <GENERIC_NAME>
Potassium hydroxide

> <SYNONYMS>
Ätzkali; hydroxyde de potassium; Kaliumhydroxid; potash lye; potasio hidróxido; potasse caustique; Potassium hydroxide

> <PRODUCTS>
MIRACLE WATER 3 in 1; OHTrust Nano Ion Water; Potassium Hydroxide; Tincture Green; Tincture Green Soap; Vamin N

$$$$
