
  Mrv1909 10112218122D          

 47 50  0  0  1  0            999 V2000
   -0.4706   -5.0690    0.0000 H   0  0  0  0  0  0  0  0  0  0  0  0
   -0.0581   -4.3545    0.0000 C   0  0  1  0  0  0  0  0  0  0  0  0
   -0.7726   -3.9420    0.0000 C   0  0  2  0  0  0  0  0  0  0  0  0
   -1.5159   -3.5841    0.0000 H   0  0  0  0  0  0  0  0  0  0  0  0
   -1.4176   -4.4564    0.0000 C   0  0  0  0  0  0  0  0  0  0  0  0
   -2.2219   -4.2728    0.0000 C   0  0  0  0  0  0  0  0  0  0  0  0
   -2.7363   -4.9178    0.0000 C   0  0  0  0  0  0  0  0  0  0  0  0
   -3.5521   -4.7949    0.0000 O   0  0  0  0  0  0  0  0  0  0  0  0
   -2.5799   -3.5295    0.0000 C   0  0  0  0  0  0  0  0  0  0  0  0
   -2.2219   -2.7862    0.0000 C   0  0  2  0  0  0  0  0  0  0  0  0
   -3.0461   -2.8232    0.0000 O   0  0  0  0  0  0  0  0  0  0  0  0
   -2.6451   -2.0780    0.0000 C   0  0  0  0  0  0  0  0  0  0  0  0
   -3.4668   -2.0041    0.0000 O   0  0  0  0  0  0  0  0  0  0  0  0
   -2.1023   -1.4567    0.0000 C   0  0  0  0  0  0  0  0  0  0  0  0
   -2.2859   -0.6524    0.0000 C   0  0  0  0  0  0  0  0  0  0  0  0
   -1.3437   -1.7810    0.0000 C   0  0  0  0  0  0  0  0  0  0  0  0
   -1.4176   -2.6027    0.0000 C   0  0  1  0  0  0  0  0  0  0  0  0
   -1.6012   -3.4070    0.0000 H   0  0  0  0  0  0  0  0  0  0  0  0
   -0.7726   -3.1170    0.0000 C   0  0  2  0  0  0  0  0  0  0  0  0
   -0.7110   -2.2943    0.0000 O   0  0  0  0  0  0  0  0  0  0  0  0
   -0.0581   -2.7045    0.0000 C   0  0  2  0  0  0  0  0  0  0  0  0
   -0.0581   -1.8795    0.0000 C   0  0  0  0  0  0  0  0  0  0  0  0
    0.6563   -3.1170    0.0000 C   0  0  1  0  0  0  0  0  0  0  0  0
    1.3708   -2.7045    0.0000 O   0  0  0  0  0  0  0  0  0  0  0  0
    2.0853   -3.1170    0.0000 C   0  0  0  0  0  0  0  0  0  0  0  0
    2.0853   -3.9420    0.0000 O   0  0  0  0  0  0  0  0  0  0  0  0
    2.7997   -2.7045    0.0000 C   0  0  0  0  0  0  0  0  0  0  0  0
    3.5142   -3.1170    0.0000 C   0  0  0  0  0  0  0  0  0  0  0  0
    4.2287   -2.7045    0.0000 C   0  0  0  0  0  0  0  0  0  0  0  0
    4.9431   -3.1170    0.0000 C   0  0  0  0  0  0  0  0  0  0  0  0
    5.6576   -2.7045    0.0000 C   0  0  0  0  0  0  0  0  0  0  0  0
    6.3721   -3.1170    0.0000 C   0  0  0  0  0  0  0  0  0  0  0  0
    7.0866   -2.7045    0.0000 C   0  0  0  0  0  0  0  0  0  0  0  0
    7.8010   -3.1170    0.0000 C   0  0  0  0  0  0  0  0  0  0  0  0
    8.5155   -2.7045    0.0000 C   0  0  0  0  0  0  0  0  0  0  0  0
    9.2300   -3.1170    0.0000 C   0  0  0  0  0  0  0  0  0  0  0  0
    9.9444   -2.7045    0.0000 C   0  0  0  0  0  0  0  0  0  0  0  0
   10.6589   -3.1170    0.0000 C   0  0  0  0  0  0  0  0  0  0  0  0
   11.3734   -2.7045    0.0000 C   0  0  0  0  0  0  0  0  0  0  0  0
    0.6563   -3.9420    0.0000 C   0  0  2  0  0  0  0  0  0  0  0  0
    1.4813   -3.9420    0.0000 O   0  0  0  0  0  0  0  0  0  0  0  0
    1.8938   -4.6565    0.0000 C   0  0  0  0  0  0  0  0  0  0  0  0
    2.7188   -4.6565    0.0000 C   0  0  0  0  0  0  0  0  0  0  0  0
    1.4813   -5.3710    0.0000 O   0  0  0  0  0  0  0  0  0  0  0  0
    0.6563   -4.7670    0.0000 C   0  0  0  0  0  0  0  0  0  0  0  0
    1.0563   -5.4886    0.0000 C   0  0  0  0  0  0  0  0  0  0  0  0
    0.5844   -5.5889    0.0000 C   0  0  0  0  0  0  0  0  0  0  0  0
  2  1  1  6  0  0  0
  3  2  1  0  0  0  0
  3  4  1  1  0  0  0
  3  5  1  0  0  0  0
  5  6  2  0  0  0  0
  6  7  1  0  0  0  0
  7  8  1  0  0  0  0
  6  9  1  0  0  0  0
 10  9  1  0  0  0  0
 10 11  1  1  0  0  0
 10 12  1  0  0  0  0
 12 13  2  0  0  0  0
 12 14  1  0  0  0  0
 14 15  1  0  0  0  0
 14 16  2  0  0  0  0
 17 16  1  0  0  0  0
 17 10  1  0  0  0  0
 17 18  1  6  0  0  0
 19 17  1  0  0  0  0
 19  3  1  0  0  0  0
 19 20  1  6  0  0  0
 19 21  1  0  0  0  0
 21 22  1  6  0  0  0
 21 23  1  0  0  0  0
 23 24  1  1  0  0  0
 24 25  1  0  0  0  0
 25 26  2  0  0  0  0
 25 27  1  0  0  0  0
 27 28  1  0  0  0  0
 28 29  1  0  0  0  0
 29 30  1  0  0  0  0
 30 31  1  0  0  0  0
 31 32  1  0  0  0  0
 32 33  1  0  0  0  0
 33 34  1  0  0  0  0
 34 35  1  0  0  0  0
 35 36  1  0  0  0  0
 36 37  1  0  0  0  0
 37 38  1  0  0  0  0
 38 39  1  0  0  0  0
 23 40  1  0  0  0  0
  2 40  1  0  0  0  0
 40 41  1  6  0  0  0
 41 42  1  0  0  0  0
 42 43  1  0  0  0  0
 42 44  2  0  0  0  0
 40 45  1  0  0  0  0
  2 45  1  0  0  0  0
 45 46  1  0  0  0  0
 45 47  1  0  0  0  0
M  END
> <DATABASE_ID>
DB17045

> <DATABASE_NAME>
drugbank

> <SMILES>
[H][C@]12[C@]3([H])C=C(CO)C[C@]4(O)C(=O)C(C)=C[C@@]4([H])[C@@]3(O)[C@H](C)[C@@H](OC(=O)CCCCCCCCCCCCC)[C@@]1(OC(C)=O)C2(C)C

> <INCHI_IDENTIFIER>
InChI=1S/C36H56O8/c1-7-8-9-10-11-12-13-14-15-16-17-18-29(39)43-32-24(3)35(42)27(30-33(5,6)36(30,32)44-25(4)38)20-26(22-37)21-34(41)28(35)19-23(2)31(34)40/h19-20,24,27-28,30,32,37,41-42H,7-18,21-22H2,1-6H3/t24-,27+,28-,30-,32-,34-,35-,36-/m1/s1

> <INCHI_KEY>
PHEDXBVPIONUQT-RGYGYFBISA-N

> <FORMULA>
C36H56O8

> <MOLECULAR_WEIGHT>
616.836

> <EXACT_MASS>
616.397518763

> <JCHEM_ACCEPTOR_COUNT>
6

> <JCHEM_ATOM_COUNT>
100

> <JCHEM_AVERAGE_NEUTRAL_MICROSPECIES_CHARGE>
-2.818778140212786e-06

> <JCHEM_AVERAGE_POLARIZABILITY>
72.23599399056481

> <JCHEM_BIOAVAILABILITY>
0

> <JCHEM_DONOR_COUNT>
3

> <JCHEM_FORMAL_CHARGE>
0

> <JCHEM_GHOSE_FILTER>
0

> <JCHEM_IUPAC>
(1S,2S,6R,10S,11R,13S,14R,15R)-13-(acetyloxy)-1,6-dihydroxy-8-(hydroxymethyl)-4,12,12,15-tetramethyl-5-oxotetracyclo[8.5.0.0^{2,6}.0^{11,13}]pentadeca-3,8-dien-14-yl tetradecanoate

> <ALOGPS_LOGP>
5.53

> <JCHEM_LOGP>
5.692159238333332

> <ALOGPS_LOGS>
-5.93

> <JCHEM_MDDR_LIKE_RULE>
1

> <JCHEM_NEUTRAL_CHARGE>
0

> <JCHEM_NUMBER_OF_RINGS>
4

> <JCHEM_PHYSIOLOGICAL_CHARGE>
0

> <JCHEM_PKA>
13.933225775162542

> <JCHEM_PKA_STRONGEST_ACIDIC>
12.57037024769807

> <JCHEM_PKA_STRONGEST_BASIC>
-2.731613546488827

> <JCHEM_POLAR_SURFACE_AREA>
130.36

> <JCHEM_REFRACTIVITY>
169.31830000000002

> <JCHEM_ROTATABLE_BOND_COUNT>
17

> <JCHEM_RULE_OF_FIVE>
0

> <ALOGPS_SOLUBILITY>
7.24e-04 g/l

> <JCHEM_TRADITIONAL_IUPAC>
6-cyclopropaneamido-N-[hydroxy(2H2)methyl]-4-{[2-methoxy-3-(1-methyl-1,2,4-triazol-3-yl)phenyl]amino}pyridazine-3-carboxamide

> <JCHEM_VEBER_RULE>
0

> <DRUGBANK_ID>
DB17045

> <DRUG_GROUPS>
investigational

> <GENERIC_NAME>
Phorbol 12-myristate 13-acetate diester

> <SYNONYMS>
12-o-tetradecanoylphorbol-13-acetate; 12-tetradecanoylphorbol 13-acetate; Phorbol 12-myristate 13-acetate; Phorbol myristate acetate; Pma (phorbol ester); Tetradecanoylphorbol acetate; Tpa (phorbol ester)

$$$$
