
  Mrv1909 02012020002D          

 32 34  0  0  0  0            999 V2000
    0.7145   -2.0625    0.0000 C   0  0  0  0  0  0  0  0  0  0  0  0
    0.0000   -1.6500    0.0000 C   0  0  0  0  0  0  0  0  0  0  0  0
    0.0000   -0.8250    0.0000 C   0  0  0  0  0  0  0  0  0  0  0  0
   -0.7145   -0.4125    0.0000 C   0  0  0  0  0  0  0  0  0  0  0  0
   -1.4289   -0.8250    0.0000 C   0  0  0  0  0  0  0  0  0  0  0  0
   -1.4289   -1.6500    0.0000 C   0  0  0  0  0  0  0  0  0  0  0  0
   -0.7145   -2.0625    0.0000 C   0  0  0  0  0  0  0  0  0  0  0  0
    0.7145   -2.8875    0.0000 O   0  0  0  0  0  0  0  0  0  0  0  0
    1.4289   -1.6500    0.0000 N   0  0  0  0  0  0  0  0  0  0  0  0
   -2.1434   -2.0625    0.0000 C   0  0  0  0  0  0  0  0  0  0  0  0
   -2.8579   -0.8250    0.0000 O   0  0  0  0  0  0  0  0  0  0  0  0
   -2.8579   -1.6500    0.0000 N   0  0  0  0  0  0  0  0  0  0  0  0
   -3.5724   -2.0625    0.0000 C   0  0  0  0  0  0  0  0  0  0  0  0
   -4.2868   -1.6500    0.0000 C   0  0  0  0  0  0  0  0  0  0  0  0
   -4.2868   -0.8250    0.0000 C   0  0  0  0  0  0  0  0  0  0  0  0
   -3.5724   -0.4125    0.0000 C   0  0  0  0  0  0  0  0  0  0  0  0
   -3.5724   -2.8875    0.0000 O   0  0  0  0  0  0  0  0  0  0  0  0
    2.1434   -2.0625    0.0000 O   0  0  0  0  0  0  0  0  0  0  0  0
    2.8579   -1.6500    0.0000 C   0  0  0  0  0  0  0  0  0  0  0  0
    3.5724   -2.0625    0.0000 C   0  0  0  0  0  0  0  0  0  0  0  0
    4.2868   -1.6500    0.0000 O   0  0  0  0  0  0  0  0  0  0  0  0
    0.7145   -0.4125    0.0000 N   0  0  0  0  0  0  0  0  0  0  0  0
    0.7145    0.4125    0.0000 C   0  0  0  0  0  0  0  0  0  0  0  0
    1.4289    0.8250    0.0000 C   0  0  0  0  0  0  0  0  0  0  0  0
    1.4289    1.6500    0.0000 C   0  0  0  0  0  0  0  0  0  0  0  0
    0.7145    2.0625    0.0000 C   0  0  0  0  0  0  0  0  0  0  0  0
    0.0000    1.6500    0.0000 C   0  0  0  0  0  0  0  0  0  0  0  0
    0.0000    0.8250    0.0000 C   0  0  0  0  0  0  0  0  0  0  0  0
    0.7145    2.8875    0.0000 I   0  0  0  0  0  0  0  0  0  0  0  0
    2.1434    0.4125    0.0000 F   0  0  0  0  0  0  0  0  0  0  0  0
   -2.1434   -0.4125    0.0000 F   0  0  0  0  0  0  0  0  0  0  0  0
   -0.7145    0.4125    0.0000 F   0  0  0  0  0  0  0  0  0  0  0  0
  1  2  1  0  0  0  0
  2  3  1  0  0  0  0
  3  4  2  0  0  0  0
  4  5  1  0  0  0  0
  5  6  2  0  0  0  0
  6  7  1  0  0  0  0
  2  7  2  0  0  0  0
  1  8  2  0  0  0  0
  1  9  1  0  0  0  0
 11 12  1  0  0  0  0
 12 13  1  0  0  0  0
 13 14  1  0  0  0  0
 14 15  1  0  0  0  0
 15 16  1  0  0  0  0
 11 16  1  0  0  0  0
 13 17  2  0  0  0  0
 10 12  1  0  0  0  0
  6 10  1  0  0  0  0
 19 20  1  0  0  0  0
 18 19  1  0  0  0  0
 20 21  1  0  0  0  0
  9 18  1  0  0  0  0
 23 24  1  0  0  0  0
 24 25  2  0  0  0  0
 25 26  1  0  0  0  0
 26 27  2  0  0  0  0
 27 28  1  0  0  0  0
 23 28  2  0  0  0  0
 26 29  1  0  0  0  0
 24 30  1  0  0  0  0
 22 23  1  0  0  0  0
  3 22  1  0  0  0  0
  5 31  1  0  0  0  0
  4 32  1  0  0  0  0
M  END
> <DATABASE_ID>
DB12933

> <DATABASE_NAME>
drugbank

> <SMILES>
OCCONC(=O)C1=CC(CN2OCCCC2=O)=C(F)C(F)=C1NC1=CC=C(I)C=C1F

> <INCHI_IDENTIFIER>
InChI=1S/C20H19F3IN3O5/c21-14-9-12(24)3-4-15(14)25-19-13(20(30)26-31-7-5-28)8-11(17(22)18(19)23)10-27-16(29)2-1-6-32-27/h3-4,8-9,25,28H,1-2,5-7,10H2,(H,26,30)

> <INCHI_KEY>
FIMYFEGKMOCQKT-UHFFFAOYSA-N

> <FORMULA>
C20H19F3IN3O5

> <MOLECULAR_WEIGHT>
565.2816

> <EXACT_MASS>
565.032148768

> <JCHEM_ACCEPTOR_COUNT>
6

> <JCHEM_ATOM_COUNT>
51

> <JCHEM_AVERAGE_NEUTRAL_MICROSPECIES_CHARGE>
-1.3505531497937415e-05

> <JCHEM_AVERAGE_POLARIZABILITY>
45.85407303005623

> <JCHEM_BIOAVAILABILITY>
1

> <JCHEM_DONOR_COUNT>
3

> <JCHEM_FORMAL_CHARGE>
0

> <JCHEM_GHOSE_FILTER>
0

> <JCHEM_IUPAC>
3,4-difluoro-2-[(2-fluoro-4-iodophenyl)amino]-N-(2-hydroxyethoxy)-5-[(3-oxo-1,2-oxazinan-2-yl)methyl]benzamide

> <ALOGPS_LOGP>
3.19

> <JCHEM_LOGP>
4.151936154666667

> <ALOGPS_LOGS>
-4.37

> <JCHEM_MDDR_LIKE_RULE>
1

> <JCHEM_NEUTRAL_CHARGE>
0

> <JCHEM_NUMBER_OF_RINGS>
3

> <JCHEM_PHYSIOLOGICAL_CHARGE>
0

> <JCHEM_PKA>
14.553918571927506

> <JCHEM_PKA_STRONGEST_ACIDIC>
11.870517344492145

> <JCHEM_PKA_STRONGEST_BASIC>
-2.7762823869619515

> <JCHEM_POLAR_SURFACE_AREA>
100.13000000000001

> <JCHEM_REFRACTIVITY>
117.23290000000001

> <JCHEM_ROTATABLE_BOND_COUNT>
8

> <JCHEM_RULE_OF_FIVE>
0

> <ALOGPS_SOLUBILITY>
2.42e-02 g/l

> <JCHEM_TRADITIONAL_IUPAC>
[(3aS,4R,10aS)-2-amino-5,10,10-trihydroxy-6-imino-1H,3aH,4H,8H,9H-pyrrolo[1,2-c]purin-4-yl]methyl carbamate

> <JCHEM_VEBER_RULE>
0

> <DRUGBANK_ID>
DB12933

> <DRUG_GROUPS>
investigational

> <GENERIC_NAME>
RO-4987655

$$$$
