
  Mrv1909 04202015452D          

 33 36  0  0  0  0            999 V2000
   -0.9625    5.1475    0.0000 C   0  0  0  0  0  0  0  0  0  0  0  0
   -1.5145    4.5344    0.0000 S   0  0  0  0  0  0  0  0  0  0  0  0
   -2.1276    5.0865    0.0000 O   0  0  0  0  0  0  0  0  0  0  0  0
   -0.9015    3.9824    0.0000 O   0  0  0  0  0  0  0  0  0  0  0  0
   -2.0666    3.9213    0.0000 C   0  0  0  0  0  0  0  0  0  0  0  0
   -1.8116    3.1367    0.0000 C   0  0  0  0  0  0  0  0  0  0  0  0
   -2.3637    2.5236    0.0000 C   0  0  0  0  0  0  0  0  0  0  0  0
   -2.1087    1.7390    0.0000 N   0  0  0  0  0  0  0  0  0  0  0  0
   -2.5937    1.0716    0.0000 C   0  0  0  0  0  0  0  0  0  0  0  0
   -3.4187    1.0716    0.0000 C   0  0  0  0  0  0  0  0  0  0  0  0
   -3.8312    0.3571    0.0000 N   0  0  0  0  0  0  0  0  0  0  0  0
   -4.6516    0.2708    0.0000 C   0  0  0  0  0  0  0  0  0  0  0  0
   -5.2037    0.8839    0.0000 O   0  0  0  0  0  0  0  0  0  0  0  0
   -4.8232   -0.5361    0.0000 N   0  0  0  0  0  0  0  0  0  0  0  0
   -5.5768   -0.8717    0.0000 C   0  0  0  0  0  0  0  0  0  0  0  0
   -5.6631   -1.6922    0.0000 C   0  0  0  0  0  0  0  0  0  0  0  0
   -5.7493   -2.5126    0.0000 F   0  0  0  0  0  0  0  0  0  0  0  0
   -6.4836   -1.6059    0.0000 F   0  0  0  0  0  0  0  0  0  0  0  0
   -4.8426   -1.7784    0.0000 F   0  0  0  0  0  0  0  0  0  0  0  0
   -4.1087   -0.9486    0.0000 C   0  0  0  0  0  0  0  0  0  0  0  0
   -3.4956   -0.3966    0.0000 C   0  0  0  0  0  0  0  0  0  0  0  0
   -2.7110   -0.6515    0.0000 C   0  0  0  0  0  0  0  0  0  0  0  0
   -2.5394   -1.4585    0.0000 N   0  0  0  0  0  0  0  0  0  0  0  0
   -3.1525   -2.0105    0.0000 C   0  0  0  0  0  0  0  0  0  0  0  0
   -3.9372   -1.7556    0.0000 C   0  0  0  0  0  0  0  0  0  0  0  0
   -2.1087    0.4041    0.0000 C   0  0  0  0  0  0  0  0  0  0  0  0
   -1.3241    0.6591    0.0000 C   0  0  0  0  0  0  0  0  0  0  0  0
   -1.3241    1.4841    0.0000 C   0  0  0  0  0  0  0  0  0  0  0  0
   -0.6096    1.8966    0.0000 C   0  0  0  0  0  0  0  0  0  0  0  0
    0.1048    1.4841    0.0000 C   0  0  0  0  0  0  0  0  0  0  0  0
    0.1048    0.6591    0.0000 C   0  0  0  0  0  0  0  0  0  0  0  0
    0.8193    0.2466    0.0000 Cl  0  0  0  0  0  0  0  0  0  0  0  0
   -0.6096    0.2466    0.0000 C   0  0  0  0  0  0  0  0  0  0  0  0
  1  2  1  0  0  0  0
  2  3  2  0  0  0  0
  2  4  2  0  0  0  0
  2  5  1  0  0  0  0
  5  6  1  0  0  0  0
  6  7  1  0  0  0  0
  7  8  1  0  0  0  0
  8  9  1  0  0  0  0
  9 10  1  0  0  0  0
 10 11  1  0  0  0  0
 11 12  1  0  0  0  0
 12 13  2  0  0  0  0
 12 14  1  0  0  0  0
 14 15  1  0  0  0  0
 15 16  1  0  0  0  0
 16 17  1  0  0  0  0
 16 18  1  0  0  0  0
 16 19  1  0  0  0  0
 14 20  1  0  0  0  0
 20 21  2  0  0  0  0
 11 21  1  0  0  0  0
 21 22  1  0  0  0  0
 22 23  2  0  0  0  0
 23 24  1  0  0  0  0
 24 25  2  0  0  0  0
 20 25  1  0  0  0  0
  9 26  2  0  0  0  0
 26 27  1  0  0  0  0
 27 28  2  0  0  0  0
  8 28  1  0  0  0  0
 28 29  1  0  0  0  0
 29 30  2  0  0  0  0
 30 31  1  0  0  0  0
 31 32  1  0  0  0  0
 31 33  2  0  0  0  0
 27 33  1  0  0  0  0
M  END
> <DATABASE_ID>
DB15672

> <DATABASE_NAME>
drugbank

> <SMILES>
CS(=O)(=O)CCCN1C(CN2C(=O)N(CC(F)(F)F)C3=C2C=NC=C3)=CC2=C1C=CC(Cl)=C2

> <INCHI_IDENTIFIER>
InChI=1S/C21H20ClF3N4O3S/c1-33(31,32)8-2-7-27-16(10-14-9-15(22)3-4-17(14)27)12-28-19-11-26-6-5-18(19)29(20(28)30)13-21(23,24)25/h3-6,9-11H,2,7-8,12-13H2,1H3

> <INCHI_KEY>
GTQTUABHRCWVLL-UHFFFAOYSA-N

> <FORMULA>
C21H20ClF3N4O3S

> <MOLECULAR_WEIGHT>
500.92

> <EXACT_MASS>
500.0896739

> <JCHEM_ACCEPTOR_COUNT>
4

> <JCHEM_ATOM_COUNT>
53

> <JCHEM_AVERAGE_NEUTRAL_MICROSPECIES_CHARGE>
0.0005384189613955758

> <JCHEM_AVERAGE_POLARIZABILITY>
46.71401252741351

> <JCHEM_BIOAVAILABILITY>
1

> <JCHEM_DONOR_COUNT>
0

> <JCHEM_FORMAL_CHARGE>
0

> <JCHEM_GHOSE_FILTER>
0

> <JCHEM_IUPAC>
3-{[5-chloro-1-(3-methanesulfonylpropyl)-1H-indol-2-yl]methyl}-1-(2,2,2-trifluoroethyl)-1H,2H,3H-imidazo[4,5-c]pyridin-2-one

> <ALOGPS_LOGP>
3.16

> <JCHEM_LOGP>
2.2834412049999995

> <ALOGPS_LOGS>
-5.08

> <JCHEM_MDDR_LIKE_RULE>
1

> <JCHEM_NEUTRAL_CHARGE>
0

> <JCHEM_NUMBER_OF_RINGS>
4

> <JCHEM_PHYSIOLOGICAL_CHARGE>
0

> <JCHEM_PKA_STRONGEST_ACIDIC>
17.850980038195296

> <JCHEM_PKA_STRONGEST_BASIC>
3.7313542527667254

> <JCHEM_POLAR_SURFACE_AREA>
75.51

> <JCHEM_REFRACTIVITY>
118.14429999999999

> <JCHEM_ROTATABLE_BOND_COUNT>
8

> <JCHEM_RULE_OF_FIVE>
0

> <ALOGPS_SOLUBILITY>
4.15e-03 g/l

> <JCHEM_TRADITIONAL_IUPAC>
(argentiooxy)silver

> <JCHEM_VEBER_RULE>
0

> <DRUGBANK_ID>
DB15672

> <DRUG_GROUPS>
investigational

> <GENERIC_NAME>
Rilematovir

> <SYNONYMS>
Rilematovir

$$$$
