
  Mrv1652310211604002D          

 23 25  0  0  1  0            999 V2000
   -0.4672    3.4789    0.0000 C   0  0  0  0  0  0  0  0  0  0  0  0
    0.3453    3.6222    0.0000 C   0  0  0  0  0  0  0  0  0  0  0  0
    0.6274    4.3974    0.0000 C   0  0  0  0  0  0  0  0  0  0  0  0
    1.4399    4.5407    0.0000 C   0  0  0  0  0  0  0  0  0  0  0  0
    1.9702    3.9087    0.0000 C   0  0  0  0  0  0  0  0  0  0  0  0
    1.6880    3.1335    0.0000 C   0  0  0  0  0  0  0  0  0  0  0  0
    0.8756    2.9902    0.0000 C   0  0  0  0  0  0  0  0  0  0  0  0
    2.2183    2.5015    0.0000 C   0  0  0  0  0  0  0  0  0  0  0  0
    2.7486    1.8695    0.0000 C   0  0  0  0  0  0  0  0  0  0  0  0
    3.2789    1.2375    0.0000 C   0  0  2  0  0  0  0  0  0  0  0  0
    3.9934    0.8250    0.0000 C   0  0  0  0  0  0  0  0  0  0  0  0
    3.9934    0.0000    0.0000 C   0  0  0  0  0  0  0  0  0  0  0  0
    3.2789   -0.4125    0.0000 C   0  0  0  0  0  0  0  0  0  0  0  0
    2.5645    0.0000    0.0000 C   0  0  2  0  0  0  0  0  0  0  0  0
    2.5645    0.8250    0.0000 C   0  0  1  0  0  0  0  0  0  0  0  0
    1.7798    1.0799    0.0000 C   0  0  0  0  0  0  0  0  0  0  0  0
    1.2949    0.4125    0.0000 C   0  0  0  0  0  0  0  0  0  0  0  0
    1.7798   -0.2549    0.0000 N   0  0  0  0  0  0  0  0  0  0  0  0
    1.5249   -1.0396    0.0000 C   0  0  0  0  0  0  0  0  0  0  0  0
    2.0769   -1.6527    0.0000 O   0  0  0  0  0  0  0  0  0  0  0  0
    0.7179   -1.2111    0.0000 O   0  0  0  0  0  0  0  0  0  0  0  0
    0.4630   -1.9957    0.0000 C   0  0  0  0  0  0  0  0  0  0  0  0
    3.8092    1.8695    0.0000 O   0  0  0  0  0  0  0  0  0  0  0  0
  1  2  1  0  0  0  0
  2  3  2  0  0  0  0
  3  4  1  0  0  0  0
  4  5  2  0  0  0  0
  5  6  1  0  0  0  0
  6  7  2  0  0  0  0
  2  7  1  0  0  0  0
  6  8  1  0  0  0  0
  8  9  3  0  0  0  0
 10  9  1  6  0  0  0
 10 11  1  0  0  0  0
 11 12  1  0  0  0  0
 12 13  1  0  0  0  0
 13 14  1  0  0  0  0
 14 15  1  0  0  0  0
 10 15  1  0  0  0  0
 15 16  1  1  0  0  0
 16 17  1  0  0  0  0
 17 18  1  0  0  0  0
 14 18  1  1  0  0  0
 18 19  1  0  0  0  0
 19 20  2  0  0  0  0
 19 21  1  0  0  0  0
 21 22  1  0  0  0  0
 10 23  1  1  0  0  0
M  END
> <DATABASE_ID>
DB13004

> <DATABASE_NAME>
drugbank

> <SMILES>
COC(=O)N1CC[C@@H]2[C@H]1CCC[C@@]2(O)C#CC1=CC(C)=CC=C1

> <INCHI_IDENTIFIER>
InChI=1S/C19H23NO3/c1-14-5-3-6-15(13-14)8-11-19(22)10-4-7-17-16(19)9-12-20(17)18(21)23-2/h3,5-6,13,16-17,22H,4,7,9-10,12H2,1-2H3/t16-,17-,19-/m1/s1

> <INCHI_KEY>
ZFPZEYHRWGMJCV-ZHALLVOQSA-N

> <FORMULA>
C19H23NO3

> <MOLECULAR_WEIGHT>
313.397

> <EXACT_MASS>
313.167793605

> <JCHEM_ACCEPTOR_COUNT>
2

> <JCHEM_ATOM_COUNT>
46

> <JCHEM_AVERAGE_POLARIZABILITY>
35.69864233822544

> <JCHEM_BIOAVAILABILITY>
1

> <JCHEM_DONOR_COUNT>
1

> <JCHEM_FORMAL_CHARGE>
0

> <JCHEM_GHOSE_FILTER>
1

> <JCHEM_IUPAC>
methyl (3aR,4S,7aR)-4-hydroxy-4-[2-(3-methylphenyl)ethynyl]-octahydro-1H-indole-1-carboxylate

> <ALOGPS_LOGP>
2.53

> <JCHEM_LOGP>
3.0174108293333335

> <ALOGPS_LOGS>
-4.11

> <JCHEM_MDDR_LIKE_RULE>
0

> <JCHEM_NUMBER_OF_RINGS>
3

> <JCHEM_PHYSIOLOGICAL_CHARGE>
0

> <JCHEM_PKA_STRONGEST_ACIDIC>
12.873570398394516

> <JCHEM_PKA_STRONGEST_BASIC>
-3.7289003077422374

> <JCHEM_POLAR_SURFACE_AREA>
49.77

> <JCHEM_REFRACTIVITY>
86.3831

> <JCHEM_ROTATABLE_BOND_COUNT>
3

> <JCHEM_RULE_OF_FIVE>
1

> <ALOGPS_SOLUBILITY>
2.46e-02 g/l

> <JCHEM_TRADITIONAL_IUPAC>
mavoglurant

> <JCHEM_VEBER_RULE>
0

> <DRUGBANK_ID>
DB13004

> <DRUG_GROUPS>
investigational

> <GENERIC_NAME>
Mavoglurant

> <SYNONYMS>
Mavoglurant

$$$$
