
  Mrv1902 02231918262D          

  5  4  0  0  0  0            999 V2000
   -0.7145    0.2062    0.0000 Fe  0  0  0  0  0  0  0  0  0  0  0  0
    0.7146    0.2062    0.0000 Fe  0  0  0  0  0  0  0  0  0  0  0  0
    0.0000   -0.2062    0.0000 O   0  0  0  0  0  0  0  0  0  0  0  0
    1.4290   -0.2062    0.0000 O   0  0  0  0  0  0  0  0  0  0  0  0
   -1.4290   -0.2062    0.0000 O   0  0  0  0  0  0  0  0  0  0  0  0
  1  3  1  0  0  0  0
  3  2  1  0  0  0  0
  2  4  2  0  0  0  0
  1  5  2  0  0  0  0
M  END
> <DATABASE_ID>
DB11576

> <DATABASE_NAME>
drugbank

> <SMILES>
O=[Fe]O[Fe]=O

> <INCHI_IDENTIFIER>
InChI=1S/2Fe.3O

> <INCHI_KEY>
JEIPFZHSYJVQDO-UHFFFAOYSA-N

> <FORMULA>
Fe2O3

> <MOLECULAR_WEIGHT>
159.687

> <EXACT_MASS>
159.854616

> <JCHEM_ACCEPTOR_COUNT>
2

> <JCHEM_ATOM_COUNT>
5

> <JCHEM_AVERAGE_POLARIZABILITY>
7.030198572189008

> <JCHEM_BIOAVAILABILITY>
1

> <JCHEM_DONOR_COUNT>
0

> <JCHEM_FORMAL_CHARGE>
0

> <JCHEM_GHOSE_FILTER>
0

> <JCHEM_IUPAC>
oxo[(oxoferrio)oxy]iron

> <JCHEM_LOGP>
0.36840000000000006

> <JCHEM_MDDR_LIKE_RULE>
0

> <JCHEM_NUMBER_OF_RINGS>
0

> <JCHEM_PHYSIOLOGICAL_CHARGE>
0

> <JCHEM_PKA_STRONGEST_BASIC>
-2.9690778890174876

> <JCHEM_POLAR_SURFACE_AREA>
43.370000000000005

> <JCHEM_REFRACTIVITY>
4.236

> <JCHEM_ROTATABLE_BOND_COUNT>
2

> <JCHEM_RULE_OF_FIVE>
1

> <JCHEM_TRADITIONAL_IUPAC>
FAC

> <JCHEM_VEBER_RULE>
0

> <DRUGBANK_ID>
DB11576

> <DRUG_GROUPS>
experimental

> <GENERIC_NAME>
Ferric oxide

> <SYNONYMS>
Anhydrous Ferric Oxide; Anhydrous Iron (III) Oxide; Blood stone; Eisen(III)-oxid; Eisentrioxid; Ferric oxide red; Hematite; Indian red; Iron oxide; Iron oxide red; Iron oxide, red; Iron trioxide; Iron(III) oxide

> <PRODUCTS>
Anti Monkey Butt Diaper Rash; Au Kah Chuen Fugical; Aveeno Anti Itch Concentrated; Aveeno Anti-Itch Concentrated; Aveeno Anti-itch Lotion; Aveeno Calamine and Pramoxine Hydrochloride Anti Itch; Baby Anti Monkey Butt Diaper Rash; Caladryl; Calamine; Calamine Lotion With Antihistamine; Calamine Plus; Calamine Plus Pramoxine HCL; Calamine Plus Pramoxine HCl; CalmaFX Moisture Barrier; Cellzyme ON-TOX; DermaSav; Dermagesic; Dermaseptin; Fargelin Hemorrhoidal; Henry Schein Flexible Unna Boot with Calamine; L-Topical CALAMINE 8% ZINC OXIDE 8%; Lanoguard Multi-Purpose; Lotion Calamine Avec Antihistaminique; Mayinglong Bezornil Hemorrhoidal; McKesson Unna Boot with Calamine 3; McKesson Unna Boot with Calamine 4; Medi-pak; Primer; REMEDY Calazime Skin Protectant; ReliaMed; Repara; Tenderwrap; UNNAPLAST with CALAMINE; Unnaplast with Calamine; Walgreens Calamine Skin Protectant; Zinc-oxyde Plus

$$$$
