
  Mrv1652310201622592D          

 34 37  0  0  1  0            999 V2000
    2.1434   -6.1875    0.0000 C   0  0  0  0  0  0  0  0  0  0  0  0
    2.8579   -5.7750    0.0000 C   0  0  0  0  0  0  0  0  0  0  0  0
    2.8579   -4.9500    0.0000 N   0  0  0  0  0  0  0  0  0  0  0  0
    3.5724   -4.5375    0.0000 C   0  0  0  0  0  0  0  0  0  0  0  0
    4.2868   -4.9500    0.0000 C   0  0  0  0  0  0  0  0  0  0  0  0
    4.2868   -5.7750    0.0000 C   0  0  0  0  0  0  0  0  0  0  0  0
    3.5724   -6.1875    0.0000 N   0  0  0  0  0  0  0  0  0  0  0  0
    5.0013   -6.1875    0.0000 N   0  0  0  0  0  0  0  0  0  0  0  0
    5.7158   -5.7750    0.0000 C   0  0  0  0  0  0  0  0  0  0  0  0
    6.4302   -6.1875    0.0000 C   0  0  0  0  0  0  0  0  0  0  0  0
    6.4302   -7.0125    0.0000 N   0  0  0  0  0  0  0  0  0  0  0  0
    7.1447   -7.4250    0.0000 C   0  0  0  0  0  0  0  0  0  0  0  0
    7.1447   -8.2500    0.0000 C   0  0  0  0  0  0  0  0  0  0  0  0
    6.4302   -8.6625    0.0000 O   0  0  0  0  0  0  0  0  0  0  0  0
    5.7158   -8.2500    0.0000 C   0  0  0  0  0  0  0  0  0  0  0  0
    5.7158   -7.4250    0.0000 C   0  0  2  0  0  0  0  0  0  0  0  0
    5.0013   -7.0125    0.0000 C   0  0  0  0  0  0  0  0  0  0  0  0
    5.0013   -4.5375    0.0000 F   0  0  0  0  0  0  0  0  0  0  0  0
    3.5724   -3.7125    0.0000 N   0  0  0  0  0  0  0  0  0  0  0  0
    4.2868   -3.3000    0.0000 N   0  0  0  0  0  0  0  0  0  0  0  0
    4.2868   -2.4750    0.0000 C   0  0  0  0  0  0  0  0  0  0  0  0
    3.5724   -2.0625    0.0000 O   0  0  0  0  0  0  0  0  0  0  0  0
    5.0013   -2.0625    0.0000 C   0  0  2  0  0  0  0  0  0  0  0  0
    5.0013   -1.2375    0.0000 C   0  0  0  0  0  0  0  0  0  0  0  0
    5.7158   -0.8250    0.0000 C   0  0  0  0  0  0  0  0  0  0  0  0
    5.8020   -0.0045    0.0000 C   0  0  0  0  0  0  0  0  0  0  0  0
    6.6090    0.1670    0.0000 C   0  0  0  0  0  0  0  0  0  0  0  0
    7.0215   -0.5475    0.0000 C   0  0  0  0  0  0  0  0  0  0  0  0
    6.4694   -1.1606    0.0000 C   0  0  0  0  0  0  0  0  0  0  0  0
    5.7158   -2.4750    0.0000 C   0  0  0  0  0  0  0  0  0  0  0  0
    5.7158   -3.3000    0.0000 N   0  0  0  0  0  0  0  0  0  0  0  0
    6.4302   -3.7125    0.0000 C   0  0  0  0  0  0  0  0  0  0  0  0
    6.4302   -4.5375    0.0000 O   0  0  0  0  0  0  0  0  0  0  0  0
    5.0013   -3.7125    0.0000 O   0  0  0  0  0  0  0  0  0  0  0  0
  1  2  1  0  0  0  0
  2  3  2  0  0  0  0
  3  4  1  0  0  0  0
  4  5  2  0  0  0  0
  5  6  1  0  0  0  0
  6  7  2  0  0  0  0
  2  7  1  0  0  0  0
  6  8  1  0  0  0  0
  8  9  1  0  0  0  0
  9 10  1  0  0  0  0
 10 11  1  0  0  0  0
 11 12  1  0  0  0  0
 12 13  1  0  0  0  0
 13 14  1  0  0  0  0
 14 15  1  0  0  0  0
 15 16  1  0  0  0  0
 16 11  1  6  0  0  0
 16 17  1  0  0  0  0
  8 17  1  0  0  0  0
  5 18  1  0  0  0  0
  4 19  1  0  0  0  0
 19 20  1  0  0  0  0
 20 21  1  0  0  0  0
 21 22  2  0  0  0  0
 23 21  1  6  0  0  0
 23 24  1  0  0  0  0
 24 25  1  0  0  0  0
 25 26  1  0  0  0  0
 26 27  1  0  0  0  0
 27 28  1  0  0  0  0
 28 29  1  0  0  0  0
 25 29  1  0  0  0  0
 23 30  1  0  0  0  0
 30 31  1  0  0  0  0
 31 32  1  0  0  0  0
 32 33  2  0  0  0  0
 31 34  1  0  0  0  0
M  END
> <DATABASE_ID>
DB11912

> <DATABASE_NAME>
drugbank

> <SMILES>
CC1=NC(NNC(=O)[C@H](CC2CCCC2)CN(O)C=O)=C(F)C(=N1)N1CCN2CCOC[C@@H]2C1

> <INCHI_IDENTIFIER>
InChI=1S/C22H34FN7O4/c1-15-24-20(19(23)21(25-15)29-7-6-28-8-9-34-13-18(28)12-29)26-27-22(32)17(11-30(33)14-31)10-16-4-2-3-5-16/h14,16-18,33H,2-13H2,1H3,(H,27,32)(H,24,25,26)/t17-,18+/m1/s1

> <INCHI_KEY>
SWHNZGMQMGFQGW-MSOLQXFVSA-N

> <FORMULA>
C22H34FN7O4

> <MOLECULAR_WEIGHT>
479.557

> <EXACT_MASS>
479.265630766

> <JCHEM_ACCEPTOR_COUNT>
9

> <JCHEM_ATOM_COUNT>
68

> <JCHEM_AVERAGE_POLARIZABILITY>
50.60760318358942

> <JCHEM_BIOAVAILABILITY>
1

> <JCHEM_DONOR_COUNT>
3

> <JCHEM_FORMAL_CHARGE>
0

> <JCHEM_GHOSE_FILTER>
1

> <JCHEM_IUPAC>
N-[(2R)-2-(N'-{6-[(9aS)-octahydropyrazino[2,1-c][1,4]oxazin-8-yl]-5-fluoro-2-methylpyrimidin-4-yl}hydrazinecarbonyl)-2-(cyclopentylmethyl)ethyl]-N-hydroxyformamide

> <ALOGPS_LOGP>
1.60

> <JCHEM_LOGP>
1.6403421311877842

> <ALOGPS_LOGS>
-3.20

> <JCHEM_MDDR_LIKE_RULE>
1

> <JCHEM_NUMBER_OF_RINGS>
4

> <JCHEM_PHYSIOLOGICAL_CHARGE>
1

> <JCHEM_PKA>
12.275819234107963

> <JCHEM_PKA_STRONGEST_ACIDIC>
8.416131856931212

> <JCHEM_PKA_STRONGEST_BASIC>
7.0881821336015

> <JCHEM_POLAR_SURFACE_AREA>
123.16000000000001

> <JCHEM_REFRACTIVITY>
126.00389999999999

> <JCHEM_ROTATABLE_BOND_COUNT>
8

> <JCHEM_RULE_OF_FIVE>
1

> <ALOGPS_SOLUBILITY>
3.04e-01 g/l

> <JCHEM_TRADITIONAL_IUPAC>
N-[(2R)-2-(N'-{6-[(9aS)-hexahydro-1H-pyrazino[2,1-c][1,4]oxazin-8-yl]-5-fluoro-2-methylpyrimidin-4-yl}hydrazinecarbonyl)-2-(cyclopentylmethyl)ethyl]-N-hydroxyformamide

> <JCHEM_VEBER_RULE>
0

> <DRUGBANK_ID>
DB11912

> <DRUG_GROUPS>
investigational

> <GENERIC_NAME>
Lanopepden

> <SYNONYMS>
Lanopepden

> <SALTS>
Lanopepden Mesylate

$$$$
