
  Mrv1909 05201914282D          

 35 38  0  0  1  0            999 V2000
   -1.2197  -10.0208    0.0000 C   0  0  0  0  0  0  0  0  0  0  0  0
   -1.2197   -9.1958    0.0000 O   0  0  0  0  0  0  0  0  0  0  0  0
   -1.9341   -8.7833    0.0000 C   0  0  0  0  0  0  0  0  0  0  0  0
   -1.9341   -7.9583    0.0000 C   0  0  2  0  0  0  0  0  0  0  0  0
   -1.2197   -7.5458    0.0000 C   0  0  0  0  0  0  0  0  0  0  0  0
   -2.6486   -7.5458    0.0000 O   0  0  0  0  0  0  0  0  0  0  0  0
   -2.6486   -6.7208    0.0000 C   0  0  0  0  0  0  0  0  0  0  0  0
   -3.3631   -6.3083    0.0000 C   0  0  0  0  0  0  0  0  0  0  0  0
   -3.3631   -5.4833    0.0000 C   0  0  0  0  0  0  0  0  0  0  0  0
   -2.6486   -5.0708    0.0000 C   0  0  0  0  0  0  0  0  0  0  0  0
   -1.9341   -5.4833    0.0000 C   0  0  0  0  0  0  0  0  0  0  0  0
   -1.2197   -5.0708    0.0000 O   0  0  0  0  0  0  0  0  0  0  0  0
   -0.5052   -5.4833    0.0000 C   0  0  0  0  0  0  0  0  0  0  0  0
    0.2093   -5.0708    0.0000 N   0  0  0  0  0  0  0  0  0  0  0  0
    0.9237   -5.4833    0.0000 C   0  0  0  0  0  0  0  0  0  0  0  0
    0.9237   -6.3083    0.0000 C   0  0  0  0  0  0  0  0  0  0  0  0
    0.2093   -6.7208    0.0000 N   0  0  0  0  0  0  0  0  0  0  0  0
   -0.5052   -6.3083    0.0000 C   0  0  0  0  0  0  0  0  0  0  0  0
    1.6382   -6.7208    0.0000 C   0  0  0  0  0  0  0  0  0  0  0  0
    2.3527   -6.3083    0.0000 O   0  0  0  0  0  0  0  0  0  0  0  0
    1.6382   -7.5458    0.0000 N   0  0  0  0  0  0  0  0  0  0  0  0
    2.2216   -8.1292    0.0000 C   0  0  0  0  0  0  0  0  0  0  0  0
    1.6382   -8.7125    0.0000 C   0  0  0  0  0  0  0  0  0  0  0  0
    1.0548   -8.1292    0.0000 C   0  0  0  0  0  0  0  0  0  0  0  0
   -1.9341   -6.3083    0.0000 C   0  0  0  0  0  0  0  0  0  0  0  0
   -4.0776   -5.0708    0.0000 C   0  0  0  0  0  0  0  0  0  0  0  0
   -4.0776   -4.2458    0.0000 O   0  0  0  0  0  0  0  0  0  0  0  0
   -4.7920   -5.4833    0.0000 N   0  0  0  0  0  0  0  0  0  0  0  0
   -5.5065   -5.0708    0.0000 C   0  0  0  0  0  0  0  0  0  0  0  0
   -6.2210   -5.4833    0.0000 N   0  0  0  0  0  0  0  0  0  0  0  0
   -6.9354   -5.0708    0.0000 C   0  0  0  0  0  0  0  0  0  0  0  0
   -6.9354   -4.2458    0.0000 C   0  0  0  0  0  0  0  0  0  0  0  0
   -7.6499   -3.8333    0.0000 C   0  0  0  0  0  0  0  0  0  0  0  0
   -6.2210   -3.8333    0.0000 N   0  0  0  0  0  0  0  0  0  0  0  0
   -5.5065   -4.2458    0.0000 C   0  0  0  0  0  0  0  0  0  0  0  0
  1  2  1  0  0  0  0
  2  3  1  0  0  0  0
  4  3  1  0  0  0  0
  4  5  1  1  0  0  0
  4  6  1  0  0  0  0
  6  7  1  0  0  0  0
  7  8  2  0  0  0  0
  8  9  1  0  0  0  0
  9 10  2  0  0  0  0
 10 11  1  0  0  0  0
 11 12  1  0  0  0  0
 12 13  1  0  0  0  0
 13 14  2  0  0  0  0
 14 15  1  0  0  0  0
 15 16  2  0  0  0  0
 16 17  1  0  0  0  0
 17 18  2  0  0  0  0
 13 18  1  0  0  0  0
 16 19  1  0  0  0  0
 19 20  2  0  0  0  0
 19 21  1  0  0  0  0
 21 22  1  0  0  0  0
 22 23  1  0  0  0  0
 23 24  1  0  0  0  0
 21 24  1  0  0  0  0
 11 25  2  0  0  0  0
  7 25  1  0  0  0  0
  9 26  1  0  0  0  0
 26 27  2  0  0  0  0
 26 28  1  0  0  0  0
 28 29  1  0  0  0  0
 29 30  2  0  0  0  0
 30 31  1  0  0  0  0
 31 32  2  0  0  0  0
 32 33  1  0  0  0  0
 32 34  1  0  0  0  0
 34 35  2  0  0  0  0
 29 35  1  0  0  0  0
M  END
> <DATABASE_ID>
DB14810

> <DATABASE_NAME>
drugbank

> <SMILES>
COC[C@H](C)OC1=CC(=CC(OC2=NC=C(N=C2)C(=O)N2CCC2)=C1)C(=O)NC1=NC=C(C)N=C1

> <INCHI_IDENTIFIER>
InChI=1S/C24H26N6O5/c1-15-10-27-21(12-25-15)29-23(31)17-7-18(34-16(2)14-33-3)9-19(8-17)35-22-13-26-20(11-28-22)24(32)30-5-4-6-30/h7-13,16H,4-6,14H2,1-3H3,(H,27,29,31)/t16-/m0/s1

> <INCHI_KEY>
FJEJHJINOKKDCW-INIZCTEOSA-N

> <FORMULA>
C24H26N6O5

> <MOLECULAR_WEIGHT>
478.509

> <EXACT_MASS>
478.196467961

> <JCHEM_ACCEPTOR_COUNT>
8

> <JCHEM_ATOM_COUNT>
61

> <JCHEM_AVERAGE_POLARIZABILITY>
50.24729258461241

> <JCHEM_BIOAVAILABILITY>
1

> <JCHEM_DONOR_COUNT>
1

> <JCHEM_FORMAL_CHARGE>
0

> <JCHEM_GHOSE_FILTER>
1

> <JCHEM_IUPAC>
3-{[5-(azetidine-1-carbonyl)pyrazin-2-yl]oxy}-5-{[(2S)-1-methoxypropan-2-yl]oxy}-N-(5-methylpyrazin-2-yl)benzamide

> <ALOGPS_LOGP>
1.92

> <JCHEM_LOGP>
0.7992191233333341

> <ALOGPS_LOGS>
-4.03

> <JCHEM_MDDR_LIKE_RULE>
1

> <JCHEM_NUMBER_OF_RINGS>
4

> <JCHEM_PHYSIOLOGICAL_CHARGE>
0

> <JCHEM_PKA_STRONGEST_ACIDIC>
13.093521192386069

> <JCHEM_PKA_STRONGEST_BASIC>
0.5848887778053092

> <JCHEM_POLAR_SURFACE_AREA>
128.66

> <JCHEM_REFRACTIVITY>
127.74489999999997

> <JCHEM_ROTATABLE_BOND_COUNT>
9

> <JCHEM_RULE_OF_FIVE>
1

> <ALOGPS_SOLUBILITY>
4.43e-02 g/l

> <JCHEM_TRADITIONAL_IUPAC>
(2R)-14-fluoro-2-methyl-6,9,10,19-tetraazapentacyclo[14.2.1.0^{2,6}.0^{8,18}.0^{12,17}]nonadeca-1(18),8,12(17),13,15-pentaen-11-one

> <JCHEM_VEBER_RULE>
0

> <DRUGBANK_ID>
DB14810

> <DRUG_GROUPS>
investigational

> <GENERIC_NAME>
AZD-1656

$$$$
