
  Mrv1718004301813082D          

 10  9  0  0  0  0            999 V2000
    1.0717    1.0312    0.0000 C   0  0  0  0  0  0  0  0  0  0  0  0
    1.0717   -1.4437    0.0000 C   0  0  0  0  0  0  0  0  0  0  0  0
    1.7861   -1.8562    0.0000 O   0  0  0  0  0  0  0  0  0  0  0  0
    1.0717    1.8562    0.0000 O   0  0  0  0  0  0  0  0  0  0  0  0
    0.3572   -0.2062    0.0000 N   0  0  0  0  0  0  0  0  0  0  0  0
    1.0717   -0.6187    0.0000 C   0  0  0  0  0  0  0  0  0  0  0  0
   -0.3572   -0.6187    0.0000 C   0  0  0  0  0  0  0  0  0  0  0  0
   -1.0716   -0.2062    0.0000 C   0  0  0  0  0  0  0  0  0  0  0  0
   -1.7861   -0.6187    0.0000 O   0  0  0  0  0  0  0  0  0  0  0  0
    0.3572    0.6187    0.0000 C   0  0  0  0  0  0  0  0  0  0  0  0
  6  2  1  0  0  0  0
  3  2  1  0  0  0  0
  5  6  1  0  0  0  0
  5  7  1  0  0  0  0
 10  1  1  0  0  0  0
  4  1  1  0  0  0  0
  5 10  1  0  0  0  0
  7  8  1  0  0  0  0
  8  9  1  0  0  0  0
M  END
> <DATABASE_ID>
DB13747

> <DATABASE_NAME>
drugbank

> <SMILES>
OCCN(CCO)CCO

> <INCHI_IDENTIFIER>
InChI=1S/C6H15NO3/c8-4-1-7(2-5-9)3-6-10/h8-10H,1-6H2

> <INCHI_KEY>
GSEJCLTVZPLZKY-UHFFFAOYSA-N

> <FORMULA>
C6H15NO3

> <MOLECULAR_WEIGHT>
149.1882

> <EXACT_MASS>
149.105193351

> <JCHEM_ACCEPTOR_COUNT>
4

> <JCHEM_ATOM_COUNT>
25

> <JCHEM_AVERAGE_POLARIZABILITY>
16.377970748380932

> <JCHEM_BIOAVAILABILITY>
1

> <JCHEM_DONOR_COUNT>
3

> <JCHEM_FORMAL_CHARGE>
0

> <JCHEM_GHOSE_FILTER>
0

> <JCHEM_IUPAC>
2-[bis(2-hydroxyethyl)amino]ethan-1-ol

> <ALOGPS_LOGP>
-1.38

> <JCHEM_LOGP>
-1.8801365703333337

> <ALOGPS_LOGS>
0.52

> <JCHEM_MDDR_LIKE_RULE>
0

> <JCHEM_NUMBER_OF_RINGS>
0

> <JCHEM_PHYSIOLOGICAL_CHARGE>
1

> <JCHEM_PKA>
15.592488438551062

> <JCHEM_PKA_STRONGEST_ACIDIC>
15.115809304716329

> <JCHEM_PKA_STRONGEST_BASIC>
8.439073054943169

> <JCHEM_POLAR_SURFACE_AREA>
63.93000000000001

> <JCHEM_REFRACTIVITY>
38.864999999999995

> <JCHEM_ROTATABLE_BOND_COUNT>
6

> <JCHEM_RULE_OF_FIVE>
1

> <ALOGPS_SOLUBILITY>
4.97e+02 g/l

> <JCHEM_TRADITIONAL_IUPAC>
triethanolamine

> <JCHEM_VEBER_RULE>
0

> <DRUGBANK_ID>
DB13747

> <DRUG_GROUPS>
approved

> <GENERIC_NAME>
Trolamine

> <SYNONYMS>
2,2',2''-nitrilotris(ethanol); nitrilo-2,2',2''-triethanol; nitrilotriethanol; triethanolamine; tris(2-hydroxyethyl)amine; tris(Î²-hydroxyethyl)amine; Trolamine

> <PRODUCTS>
Bee Pollen-jojoba High Moisture Cream; Calenda-cucumber Oil-free Moisturizer; Lecithin-aloe Moisture Cream; Protection Hp Hand Sanitizergel; RUNYI MIAOJIE Hand sanitizer; Sallys Box Friendly Black Head Three Step Sheet; Tru-micin

$$$$
