
  Mrv1652310211600182D          

 34 36  0  0  1  0            999 V2000
    0.7145   -0.4125    0.0000 C   0  0  0  0  0  0  0  0  0  0  0  0
    0.7145   -1.2375    0.0000 C   0  0  2  0  0  0  0  0  0  0  0  0
    1.4289   -1.6500    0.0000 C   0  0  0  0  0  0  0  0  0  0  0  0
    1.4289   -2.4750    0.0000 N   0  0  0  0  0  0  0  0  0  0  0  0
    0.7145   -2.8875    0.0000 C   0  0  0  0  0  0  0  0  0  0  0  0
    0.0000   -2.4750    0.0000 C   0  0  0  0  0  0  0  0  0  0  0  0
    0.0000   -1.6500    0.0000 N   0  0  0  0  0  0  0  0  0  0  0  0
   -0.7145   -1.2375    0.0000 S   0  0  0  0  0  0  0  0  0  0  0  0
   -1.1270   -1.9520    0.0000 O   0  0  0  0  0  0  0  0  0  0  0  0
   -0.3020   -0.5230    0.0000 O   0  0  0  0  0  0  0  0  0  0  0  0
   -1.4289   -0.8250    0.0000 C   0  0  0  0  0  0  0  0  0  0  0  0
   -2.1434   -1.2375    0.0000 C   0  0  0  0  0  0  0  0  0  0  0  0
   -2.8579   -0.8250    0.0000 C   0  0  0  0  0  0  0  0  0  0  0  0
   -2.8579    0.0000    0.0000 C   0  0  0  0  0  0  0  0  0  0  0  0
   -2.1434    0.4125    0.0000 C   0  0  0  0  0  0  0  0  0  0  0  0
   -1.4289    0.0000    0.0000 C   0  0  0  0  0  0  0  0  0  0  0  0
   -2.1434    1.2375    0.0000 C   0  0  2  0  0  0  0  0  0  0  0  0
   -1.3184    1.2375    0.0000 C   0  0  0  0  0  0  0  0  0  0  0  0
   -2.1434    2.0625    0.0000 C   0  0  0  0  0  0  0  0  0  0  0  0
   -2.1434    2.8875    0.0000 F   0  0  0  0  0  0  0  0  0  0  0  0
   -2.9684    2.0625    0.0000 F   0  0  0  0  0  0  0  0  0  0  0  0
   -1.3184    2.0625    0.0000 F   0  0  0  0  0  0  0  0  0  0  0  0
   -2.9684    1.2375    0.0000 O   0  0  0  0  0  0  0  0  0  0  0  0
    2.1434   -2.8875    0.0000 C   0  0  0  0  0  0  0  0  0  0  0  0
    2.8579   -2.4750    0.0000 C   0  0  0  0  0  0  0  0  0  0  0  0
    3.5724   -2.8875    0.0000 C   0  0  0  0  0  0  0  0  0  0  0  0
    3.5724   -3.7125    0.0000 C   0  0  0  0  0  0  0  0  0  0  0  0
    2.8579   -4.1250    0.0000 C   0  0  0  0  0  0  0  0  0  0  0  0
    2.1434   -3.7125    0.0000 C   0  0  0  0  0  0  0  0  0  0  0  0
    1.4289   -4.1250    0.0000 C   0  0  0  0  0  0  0  0  0  0  0  0
    0.7145   -4.5375    0.0000 F   0  0  0  0  0  0  0  0  0  0  0  0
    1.0164   -3.4105    0.0000 F   0  0  0  0  0  0  0  0  0  0  0  0
    1.8414   -4.8395    0.0000 F   0  0  0  0  0  0  0  0  0  0  0  0
    4.2868   -4.1250    0.0000 F   0  0  0  0  0  0  0  0  0  0  0  0
  2  1  1  6  0  0  0
  2  3  1  0  0  0  0
  3  4  1  0  0  0  0
  4  5  1  0  0  0  0
  5  6  1  0  0  0  0
  6  7  1  0  0  0  0
  2  7  1  0  0  0  0
  7  8  1  0  0  0  0
  8  9  2  0  0  0  0
  8 10  2  0  0  0  0
  8 11  1  0  0  0  0
 11 12  2  0  0  0  0
 12 13  1  0  0  0  0
 13 14  2  0  0  0  0
 14 15  1  0  0  0  0
 15 16  2  0  0  0  0
 11 16  1  0  0  0  0
 15 17  1  0  0  0  0
 17 18  1  6  0  0  0
 17 19  1  0  0  0  0
 19 20  1  0  0  0  0
 19 21  1  0  0  0  0
 19 22  1  0  0  0  0
 17 23  1  6  0  0  0
  4 24  1  0  0  0  0
 24 25  2  0  0  0  0
 25 26  1  0  0  0  0
 26 27  2  0  0  0  0
 27 28  1  0  0  0  0
 28 29  2  0  0  0  0
 24 29  1  0  0  0  0
 29 30  1  0  0  0  0
 30 31  1  0  0  0  0
 30 32  1  0  0  0  0
 30 33  1  0  0  0  0
 27 34  1  0  0  0  0
M  END
> <DATABASE_ID>
DB12419

> <DATABASE_NAME>
drugbank

> <SMILES>
C[C@@H]1CN(CCN1S(=O)(=O)C1=CC=CC(=C1)[C@@](C)(O)C(F)(F)F)C1=CC=C(F)C=C1C(F)(F)F

> <INCHI_IDENTIFIER>
InChI=1S/C21H21F7N2O3S/c1-13-12-29(18-7-6-15(22)11-17(18)20(23,24)25)8-9-30(13)34(32,33)16-5-3-4-14(10-16)19(2,31)21(26,27)28/h3-7,10-11,13,31H,8-9,12H2,1-2H3/t13-,19-/m1/s1

> <INCHI_KEY>
ZWASRJHIEFYJGL-BFUOFWGJSA-N

> <FORMULA>
C21H21F7N2O3S

> <MOLECULAR_WEIGHT>
514.46

> <EXACT_MASS>
514.116110859

> <JCHEM_ACCEPTOR_COUNT>
4

> <JCHEM_ATOM_COUNT>
55

> <JCHEM_AVERAGE_POLARIZABILITY>
43.65978369772792

> <JCHEM_BIOAVAILABILITY>
1

> <JCHEM_DONOR_COUNT>
1

> <JCHEM_FORMAL_CHARGE>
0

> <JCHEM_GHOSE_FILTER>
0

> <JCHEM_IUPAC>
(2R)-1,1,1-trifluoro-2-(3-{[(2R)-4-[4-fluoro-2-(trifluoromethyl)phenyl]-2-methylpiperazin-1-yl]sulfonyl}phenyl)propan-2-ol

> <ALOGPS_LOGP>
3.71

> <JCHEM_LOGP>
4.730084155666667

> <ALOGPS_LOGS>
-4.13

> <JCHEM_MDDR_LIKE_RULE>
0

> <JCHEM_NUMBER_OF_RINGS>
3

> <JCHEM_PHYSIOLOGICAL_CHARGE>
0

> <JCHEM_PKA_STRONGEST_ACIDIC>
10.577735656244261

> <JCHEM_PKA_STRONGEST_BASIC>
-1.0050980733387385

> <JCHEM_POLAR_SURFACE_AREA>
60.85000000000001

> <JCHEM_REFRACTIVITY>
111.74120000000005

> <JCHEM_ROTATABLE_BOND_COUNT>
5

> <JCHEM_RULE_OF_FIVE>
0

> <ALOGPS_SOLUBILITY>
3.81e-02 g/l

> <JCHEM_TRADITIONAL_IUPAC>
(2R)-1,1,1-trifluoro-2-{3-[(2R)-4-[4-fluoro-2-(trifluoromethyl)phenyl]-2-methylpiperazin-1-ylsulfonyl]phenyl}propan-2-ol

> <JCHEM_VEBER_RULE>
0

> <DRUGBANK_ID>
DB12419

> <DRUG_GROUPS>
investigational

> <GENERIC_NAME>
HSD-016

$$$$
