
  Mrv1909 05201915322D          

 41 44  0  0  1  0            999 V2000
    1.6119   -3.1745    0.0000 C   0  0  0  0  0  0  0  0  0  0  0  0
    1.1270   -2.5070    0.0000 C   0  0  2  0  0  0  0  0  0  0  0  0
    0.3020   -2.5070    0.0000 C   0  0  0  0  0  0  0  0  0  0  0  0
    0.0470   -1.7224    0.0000 N   0  0  0  0  0  0  0  0  0  0  0  0
   -0.7376   -1.4675    0.0000 C   0  0  0  0  0  0  0  0  0  0  0  0
   -1.3507   -2.0195    0.0000 N   0  0  0  0  0  0  0  0  0  0  0  0
   -2.1353   -1.7646    0.0000 C   0  0  0  0  0  0  0  0  0  0  0  0
   -2.3068   -0.9576    0.0000 C   0  0  0  0  0  0  0  0  0  0  0  0
   -1.6937   -0.4056    0.0000 C   0  0  0  0  0  0  0  0  0  0  0  0
   -0.9091   -0.6605    0.0000 C   0  0  0  0  0  0  0  0  0  0  0  0
   -0.2960   -0.1085    0.0000 C   0  0  0  0  0  0  0  0  0  0  0  0
   -0.4675    0.6985    0.0000 O   0  0  0  0  0  0  0  0  0  0  0  0
    0.4886   -0.3634    0.0000 N   0  0  0  0  0  0  0  0  0  0  0  0
    1.1017    0.1886    0.0000 S   0  0  0  0  0  0  0  0  0  0  0  0
    0.5497    0.8017    0.0000 O   0  0  0  0  0  0  0  0  0  0  0  0
    1.6537   -0.4245    0.0000 O   0  0  0  0  0  0  0  0  0  0  0  0
    1.7148    0.7406    0.0000 C   0  0  0  0  0  0  0  0  0  0  0  0
    1.6286    1.5611    0.0000 C   0  0  0  0  0  0  0  0  0  0  0  0
    2.3822    1.8967    0.0000 N   0  0  0  0  0  0  0  0  0  0  0  0
    2.5538    2.7037    0.0000 C   0  0  0  0  0  0  0  0  0  0  0  0
    2.9343    1.2836    0.0000 N   0  0  0  0  0  0  0  0  0  0  0  0
    2.5218    0.5691    0.0000 C   0  0  0  0  0  0  0  0  0  0  0  0
    2.8573   -0.1846    0.0000 C   0  0  0  0  0  0  0  0  0  0  0  0
   -2.7484   -2.3166    0.0000 N   0  0  0  0  0  0  0  0  0  0  0  0
   -2.6622   -3.1371    0.0000 C   0  0  0  0  0  0  0  0  0  0  0  0
   -3.4158   -3.4726    0.0000 C   0  0  0  0  0  0  0  0  0  0  0  0
   -3.9679   -2.8596    0.0000 C   0  0  0  0  0  0  0  0  0  0  0  0
   -4.7884   -2.9458    0.0000 O   0  0  0  0  0  0  0  0  0  0  0  0
   -5.2733   -2.2784    0.0000 C   0  0  0  0  0  0  0  0  0  0  0  0
   -6.0938   -2.3646    0.0000 C   0  0  0  0  0  0  0  0  0  0  0  0
   -6.1800   -1.5441    0.0000 C   0  0  0  0  0  0  0  0  0  0  0  0
   -6.0075   -3.1851    0.0000 C   0  0  0  0  0  0  0  0  0  0  0  0
   -6.9142   -2.4508    0.0000 C   0  0  0  0  0  0  0  0  0  0  0  0
   -7.7347   -2.5371    0.0000 F   0  0  0  0  0  0  0  0  0  0  0  0
   -7.0005   -1.6303    0.0000 F   0  0  0  0  0  0  0  0  0  0  0  0
   -6.8280   -3.2713    0.0000 F   0  0  0  0  0  0  0  0  0  0  0  0
   -3.5554   -2.1451    0.0000 N   0  0  0  0  0  0  0  0  0  0  0  0
    0.7145   -1.2375    0.0000 C   0  0  0  0  0  0  0  0  0  0  0  0
    0.1624   -0.6244    0.0000 C   0  0  0  0  0  0  0  0  0  0  0  0
    1.2665   -0.6244    0.0000 C   0  0  0  0  0  0  0  0  0  0  0  0
    1.3819   -1.7224    0.0000 C   0  0  0  0  0  0  0  0  0  0  0  0
  2  1  1  6  0  0  0
  2  3  1  0  0  0  0
  3  4  1  0  0  0  0
  4  5  1  0  0  0  0
  5  6  2  0  0  0  0
  6  7  1  0  0  0  0
  7  8  2  0  0  0  0
  8  9  1  0  0  0  0
  9 10  2  0  0  0  0
  5 10  1  0  0  0  0
 10 11  1  0  0  0  0
 11 12  2  0  0  0  0
 11 13  1  0  0  0  0
 13 14  1  0  0  0  0
 14 15  2  0  0  0  0
 14 16  2  0  0  0  0
 14 17  1  0  0  0  0
 17 18  2  0  0  0  0
 18 19  1  0  0  0  0
 19 20  1  0  0  0  0
 19 21  1  0  0  0  0
 21 22  2  0  0  0  0
 17 22  1  0  0  0  0
 22 23  1  0  0  0  0
  7 24  1  0  0  0  0
 24 25  1  0  0  0  0
 25 26  2  0  0  0  0
 26 27  1  0  0  0  0
 27 28  1  0  0  0  0
 28 29  1  0  0  0  0
 29 30  1  0  0  0  0
 30 31  1  0  0  0  0
 30 32  1  0  0  0  0
 30 33  1  0  0  0  0
 33 34  1  0  0  0  0
 33 35  1  0  0  0  0
 33 36  1  0  0  0  0
 27 37  2  0  0  0  0
 24 37  1  0  0  0  0
  4 38  1  0  0  0  0
 38 39  1  0  0  0  0
 38 40  1  0  0  0  0
 38 41  1  0  0  0  0
  2 41  1  0  0  0  0
M  END
> <DATABASE_ID>
DB15444

> <DATABASE_NAME>
drugbank

> <SMILES>
C[C@@H]1CN(C2=NC(=CC=C2C(=O)NS(=O)(=O)C2=CN(C)N=C2C)N2C=CC(OCC(C)(C)C(F)(F)F)=N2)C(C)(C)C1

> <INCHI_IDENTIFIER>
InChI=1S/C26H34F3N7O4S/c1-16-12-25(5,6)35(13-16)22-18(23(37)33-41(38,39)19-14-34(7)31-17(19)2)8-9-20(30-22)36-11-10-21(32-36)40-15-24(3,4)26(27,28)29/h8-11,14,16H,12-13,15H2,1-7H3,(H,33,37)/t16-/m0/s1

> <INCHI_KEY>
MVRHVFSOIWFBTE-INIZCTEOSA-N

> <FORMULA>
C26H34F3N7O4S

> <MOLECULAR_WEIGHT>
597.66

> <EXACT_MASS>
597.234508266

> <JCHEM_ACCEPTOR_COUNT>
8

> <JCHEM_ATOM_COUNT>
75

> <JCHEM_AVERAGE_POLARIZABILITY>
60.59250349960553

> <JCHEM_BIOAVAILABILITY>
0

> <JCHEM_DONOR_COUNT>
1

> <JCHEM_FORMAL_CHARGE>
0

> <JCHEM_GHOSE_FILTER>
0

> <JCHEM_IUPAC>
N-[(1,3-dimethyl-1H-pyrazol-4-yl)sulfonyl]-6-[3-(3,3,3-trifluoro-2,2-dimethylpropoxy)-1H-pyrazol-1-yl]-2-[(4S)-2,2,4-trimethylpyrrolidin-1-yl]pyridine-3-carboxamide

> <ALOGPS_LOGP>
4.46

> <JCHEM_LOGP>
5.037833923000001

> <ALOGPS_LOGS>
-4.49

> <JCHEM_MDDR_LIKE_RULE>
1

> <JCHEM_NUMBER_OF_RINGS>
4

> <JCHEM_PHYSIOLOGICAL_CHARGE>
-1

> <JCHEM_PKA_STRONGEST_ACIDIC>
4.096259937195128

> <JCHEM_PKA_STRONGEST_BASIC>
2.0860502856491627

> <JCHEM_POLAR_SURFACE_AREA>
124.24000000000001

> <JCHEM_REFRACTIVITY>
160.1287

> <JCHEM_ROTATABLE_BOND_COUNT>
8

> <JCHEM_RULE_OF_FIVE>
0

> <ALOGPS_SOLUBILITY>
1.92e-02 g/l

> <JCHEM_TRADITIONAL_IUPAC>
(2R)-14-fluoro-2-methyl-6,9,10,19-tetraazapentacyclo[14.2.1.0^{2,6}.0^{8,18}.0^{12,17}]nonadeca-1(18),8,12(17),13,15-pentaen-11-one

> <JCHEM_VEBER_RULE>
0

> <DRUGBANK_ID>
DB15444

> <DRUG_GROUPS>
approved; investigational

> <GENERIC_NAME>
Elexacaftor

> <SYNONYMS>
Elexacaftor

> <PRODUCTS>
Kaftrio; Trikafta

$$$$
