
  Mrv1652306231722382D          

 18 17  0  0  0  0            999 V2000
    0.1105    0.4125    0.0000 C   0  0  0  0  0  0  0  0  0  0  0  0
    0.8250    0.0000    0.0000 C   0  0  0  0  0  0  0  0  0  0  0  0
    1.5395    0.4125    0.0000 C   0  0  0  0  0  0  0  0  0  0  0  0
    1.9520   -0.3020    0.0000 C   0  0  0  0  0  0  0  0  0  0  0  0
    2.7770   -0.3020    0.0000 O   0  0  0  0  0  0  0  0  0  0  0  0
    3.1895   -1.0164    0.0000 N   0  3  0  0  0  0  0  0  0  0  0  0
    4.0145   -1.0164    0.0000 O   0  0  0  0  0  0  0  0  0  0  0  0
    2.7770   -1.7309    0.0000 O   0  5  0  0  0  0  0  0  0  0  0  0
    1.1270    1.1270    0.0000 C   0  0  0  0  0  0  0  0  0  0  0  0
    0.3020    1.1270    0.0000 O   0  0  0  0  0  0  0  0  0  0  0  0
   -0.1105    1.8414    0.0000 N   0  3  0  0  0  0  0  0  0  0  0  0
   -0.9355    1.8414    0.0000 O   0  0  0  0  0  0  0  0  0  0  0  0
    0.3020    2.5559    0.0000 O   0  5  0  0  0  0  0  0  0  0  0  0
    2.2539    0.8250    0.0000 C   0  0  0  0  0  0  0  0  0  0  0  0
    2.9684    0.4125    0.0000 O   0  0  0  0  0  0  0  0  0  0  0  0
    3.6829    0.8250    0.0000 N   0  3  0  0  0  0  0  0  0  0  0  0
    4.3974    0.4125    0.0000 O   0  0  0  0  0  0  0  0  0  0  0  0
    3.6829    1.6500    0.0000 O   0  5  0  0  0  0  0  0  0  0  0  0
  1  2  1  0  0  0  0
  2  3  1  0  0  0  0
  3  4  1  0  0  0  0
  4  5  1  0  0  0  0
  5  6  1  0  0  0  0
  6  7  2  0  0  0  0
  6  8  1  0  0  0  0
  3  9  1  0  0  0  0
  9 10  1  0  0  0  0
 10 11  1  0  0  0  0
 11 12  2  0  0  0  0
 11 13  1  0  0  0  0
  3 14  1  0  0  0  0
 14 15  1  0  0  0  0
 15 16  1  0  0  0  0
 16 17  2  0  0  0  0
 16 18  1  0  0  0  0
M  CHG  6   6   1   8  -1  11   1  13  -1  16   1  18  -1
M  END
> <DATABASE_ID>
DB13255

> <DATABASE_NAME>
drugbank

> <SMILES>
CCC(CO[N+]([O-])=O)(CO[N+]([O-])=O)CO[N+]([O-])=O

> <INCHI_IDENTIFIER>
InChI=1S/C6H11N3O9/c1-2-6(3-16-7(10)11,4-17-8(12)13)5-18-9(14)15/h2-5H2,1H3

> <INCHI_KEY>
YZZCJYJBCUJISI-UHFFFAOYSA-N

> <FORMULA>
C6H11N3O9

> <MOLECULAR_WEIGHT>
269.166

> <EXACT_MASS>
269.049528946

> <JCHEM_ACCEPTOR_COUNT>
9

> <JCHEM_ATOM_COUNT>
29

> <JCHEM_AVERAGE_POLARIZABILITY>
21.34068580765309

> <JCHEM_BIOAVAILABILITY>
1

> <JCHEM_DONOR_COUNT>
0

> <JCHEM_FORMAL_CHARGE>
0

> <JCHEM_GHOSE_FILTER>
1

> <JCHEM_IUPAC>
1-(nitrooxy)-2,2-bis[(nitrooxy)methyl]butane

> <ALOGPS_LOGP>
1.64

> <JCHEM_LOGP>
1.0822972329999998

> <ALOGPS_LOGS>
-3.02

> <JCHEM_MDDR_LIKE_RULE>
0

> <JCHEM_NUMBER_OF_RINGS>
0

> <JCHEM_PHYSIOLOGICAL_CHARGE>
0

> <JCHEM_PKA_STRONGEST_BASIC>
-5.592794120817742

> <JCHEM_POLAR_SURFACE_AREA>
157.11

> <JCHEM_REFRACTIVITY>
51.62340000000001

> <JCHEM_ROTATABLE_BOND_COUNT>
10

> <JCHEM_RULE_OF_FIVE>
1

> <ALOGPS_SOLUBILITY>
2.57e-01 g/l

> <JCHEM_TRADITIONAL_IUPAC>
propatylnitrate

> <JCHEM_VEBER_RULE>
0

> <DRUGBANK_ID>
DB13255

> <DRUG_GROUPS>
experimental; investigational

> <GENERIC_NAME>
Propatyl nitrate

> <SYNONYMS>
Propatyl nitrate; Propatylnitrate

$$$$
