
  Mrv1572009231512442D          

 16 12  0  0  0  0            999 V2000
   -0.0473   -0.5472    0.0000 C   0  0  0  0  0  0  0  0  0  0  0  0
   -0.7628   -0.9576    0.0000 C   0  0  0  0  0  0  0  0  0  0  0  0
   -1.4785   -0.5472    0.0000 C   0  0  0  0  0  0  0  0  0  0  0  0
   -0.0473    0.2789    0.0000 C   0  0  0  0  0  0  0  0  0  0  0  0
    0.6682   -0.9576    0.0000 C   0  0  0  0  0  0  0  0  0  0  0  0
    1.3838   -0.5472    0.0000 C   0  0  0  0  0  0  0  0  0  0  0  0
   -0.0473   -1.3732    0.0000 O   0  0  0  0  0  0  0  0  0  0  0  0
   -1.4785    0.2789    0.0000 O   0  0  0  0  0  0  0  0  0  0  0  0
   -2.1993   -0.9576    0.0000 O   0  5  0  0  0  0  0  0  0  0  0  0
    1.3838    0.2789    0.0000 O   0  0  0  0  0  0  0  0  0  0  0  0
    2.0993   -0.9576    0.0000 O   0  5  0  0  0  0  0  0  0  0  0  0
   -0.7628    0.6945    0.0000 O   0  5  0  0  0  0  0  0  0  0  0  0
    0.6682    0.6945    0.0000 O   0  0  0  0  0  0  0  0  0  0  0  0
    2.6308    0.1420    0.0000 K   0  3  0  0  0  0  0  0  0  0  0  0
    0.0105    1.3732    0.0000 K   0  3  0  0  0  0  0  0  0  0  0  0
   -2.6308    0.1473    0.0000 K   0  3  0  0  0  0  0  0  0  0  0  0
  1  5  1  0  0  0  0
  1  7  1  0  0  0  0
  1  2  1  0  0  0  0
  1  4  1  0  0  0  0
  2  3  1  0  0  0  0
  3  9  1  0  0  0  0
  3  8  2  0  0  0  0
  4 12  1  0  0  0  0
  4 13  2  0  0  0  0
  5  6  1  0  0  0  0
  6 11  1  0  0  0  0
  6 10  2  0  0  0  0
M  CHG  6   9  -1  11  -1  12  -1  14   1  15   1  16   1
M  END
> <DATABASE_ID>
DB09125

> <DATABASE_NAME>
drugbank

> <SMILES>
[K+].[K+].[K+].OC(CC([O-])=O)(CC([O-])=O)C([O-])=O

> <INCHI_IDENTIFIER>
InChI=1S/C6H8O7.3K/c7-3(8)1-6(13,5(11)12)2-4(9)10;;;/h13H,1-2H2,(H,7,8)(H,9,10)(H,11,12);;;/q;3*+1/p-3

> <INCHI_KEY>
QEEAPRPFLLJWCF-UHFFFAOYSA-K

> <FORMULA>
C6H5K3O7

> <MOLECULAR_WEIGHT>
306.394

> <EXACT_MASS>
305.89464697

> <JCHEM_ACCEPTOR_COUNT>
7

> <JCHEM_ATOM_COUNT>
21

> <JCHEM_AVERAGE_POLARIZABILITY>
14.232174487173907

> <JCHEM_BIOAVAILABILITY>
1

> <JCHEM_DONOR_COUNT>
1

> <JCHEM_FORMAL_CHARGE>
0

> <JCHEM_GHOSE_FILTER>
0

> <JCHEM_IUPAC>
tripotassium 2-hydroxypropane-1,2,3-tricarboxylate

> <ALOGPS_LOGP>
-0.70

> <JCHEM_LOGP>
-1.3226874519999998

> <ALOGPS_LOGS>
-0.89

> <JCHEM_MDDR_LIKE_RULE>
0

> <JCHEM_NUMBER_OF_RINGS>
0

> <JCHEM_PHYSIOLOGICAL_CHARGE>
-3

> <JCHEM_PKA>
4.674836176324002

> <JCHEM_PKA_STRONGEST_ACIDIC>
3.0479515131680714

> <JCHEM_PKA_STRONGEST_BASIC>
-4.185693450231931

> <JCHEM_POLAR_SURFACE_AREA>
140.62

> <JCHEM_REFRACTIVITY>
68.1352

> <JCHEM_ROTATABLE_BOND_COUNT>
5

> <JCHEM_RULE_OF_FIVE>
1

> <ALOGPS_SOLUBILITY>
3.94e+01 g/l

> <JCHEM_TRADITIONAL_IUPAC>
tripotassium citrate

> <JCHEM_VEBER_RULE>
0

> <DRUGBANK_ID>
DB09125

> <DRUG_GROUPS>
approved; investigational; vet_approved

> <GENERIC_NAME>
Potassium citrate

> <SYNONYMS>
Potassium citrate anhydrous; Tripotassium citrate

> <PRODUCTS>
B 6 Plus; B6 Plus Tab; C-1000 Plus Zinc & Potassium; Cal-mag (one To One) With Potass & Zinc; Calcium and Mag-potass and Zinc Cap; Calcium-magnesium With K & Zn and Vitamin D3; Children's Chewable Vit and Min Tab; Cmp Plex; Cytra 3; Cytra-K; Cytra-K Crystals; Dual Mix; Extra P.N. Vitamin-mineral Drink Mix; Formula No. 2 Plus K Liq; Great Day/am Formula Tab; K Lyte Tab Lime & Orange Flav; Kenwood Liquid Supplement; Lab 52 Essential Oil Sensitive; Lab52 Anti-Sensitivity Oral Care; Lytren; Lytren Rhs Liq; Mgk; Multi-force for Women Tab; Nrg Plus Liq; Polycitra-K; Potassium 99mg Tablets; Potassium Citrate; Potassium Citrate Citric Acid Crystals; Potassium Citrate Extended Release; Potassium Citrate and Citric Acid; Potassium Citrate, Sodium Citrate, and Citric Acid; Potassium Citrate-Citric Acid; Potassium Citrate-Sodium Citrate-Citric Acid; Potassium Tab 99mg; Potassium citrate; Potassium-cit; Q-10 Plus; Rehydralyte; SUEROLYTE Oral Electrolyte Solution Apple Flavor; SUEROLYTE Oral Electrolyte Solution Bubbe Gum Flavor; SUEROLYTE Oral Electrolyte Solution Cherry Flavor; SUEROLYTE Oral Electrolyte Solution Coconut Flavor; SUEROLYTE Oral Electrolyte Solution Grape Flavor; SUEROLYTE Oral Electrolyte Solution Horchate Flavor; SUEROLYTE Oral Electrolyte Solution Lemon-Lime Flavor; SUEROLYTE Oral Electrolyte Solution Mango Flavor; SUEROLYTE Oral Electrolyte Solution Orange Flavor; SUEROLYTE Oral Electrolyte Solution Peach Flavor; SUEROLYTE Oral Electrolyte Solution Pineapple Flavor; SUEROLYTE Oral Electrolyte Solution Strawberry Banana Flavor; SUEROLYTE Oral Electrolyte Solution Tropical Fruits Flavor; SUEROLYTE Oral Electrolyte Solution Unflavored Flavor; Sibnayal; Tricitrates; Urocit-K; Virtrate-3; Virtrate-K; Wellness Formula; Z-mass PM Vitamin and Mineral Supplement

> <SALTS>
Potassium citrate monohydrate

$$$$
