
  Mrv1533004171503312D          

 13 13  0  0  0  0            999 V2000
    0.0000   -2.4750    0.0000 O   0  0  0  0  0  0  0  0  0  0  0  0
    0.7145   -2.8875    0.0000 C   0  0  0  0  0  0  0  0  0  0  0  0
    1.4289   -2.4750    0.0000 C   0  0  0  0  0  0  0  0  0  0  0  0
    2.1434   -2.8875    0.0000 O   0  0  0  0  0  0  0  0  0  0  0  0
    2.8579   -2.4750    0.0000 C   0  0  0  0  0  0  0  0  0  0  0  0
    2.8579   -1.6500    0.0000 O   0  0  0  0  0  0  0  0  0  0  0  0
    3.5724   -2.8875    0.0000 C   0  0  0  0  0  0  0  0  0  0  0  0
    4.2868   -2.4750    0.0000 C   0  0  0  0  0  0  0  0  0  0  0  0
    5.0013   -2.8875    0.0000 C   0  0  0  0  0  0  0  0  0  0  0  0
    5.0013   -3.7125    0.0000 C   0  0  0  0  0  0  0  0  0  0  0  0
    4.2868   -4.1250    0.0000 C   0  0  0  0  0  0  0  0  0  0  0  0
    3.5724   -3.7125    0.0000 C   0  0  0  0  0  0  0  0  0  0  0  0
    2.8579   -4.1250    0.0000 O   0  0  0  0  0  0  0  0  0  0  0  0
  1  2  1  0  0  0  0
  2  3  1  0  0  0  0
  3  4  1  0  0  0  0
  4  5  1  0  0  0  0
  5  6  2  0  0  0  0
  5  7  1  0  0  0  0
  7  8  2  0  0  0  0
  8  9  1  0  0  0  0
  9 10  2  0  0  0  0
 10 11  1  0  0  0  0
 11 12  2  0  0  0  0
  7 12  1  0  0  0  0
 12 13  1  0  0  0  0
M  END
> <DATABASE_ID>
DB11323

> <DATABASE_NAME>
drugbank

> <SMILES>
OCCOC(=O)C1=CC=CC=C1O

> <INCHI_IDENTIFIER>
InChI=1S/C9H10O4/c10-5-6-13-9(12)7-3-1-2-4-8(7)11/h1-4,10-11H,5-6H2

> <INCHI_KEY>
LVYLCBNXHHHPSB-UHFFFAOYSA-N

> <FORMULA>
C9H10O4

> <MOLECULAR_WEIGHT>
182.175

> <EXACT_MASS>
182.057908802

> <JCHEM_ACCEPTOR_COUNT>
3

> <JCHEM_ATOM_COUNT>
23

> <JCHEM_AVERAGE_POLARIZABILITY>
18.03783963526122

> <JCHEM_BIOAVAILABILITY>
1

> <JCHEM_DONOR_COUNT>
2

> <JCHEM_FORMAL_CHARGE>
0

> <JCHEM_GHOSE_FILTER>
1

> <JCHEM_IUPAC>
2-hydroxyethyl 2-hydroxybenzoate

> <ALOGPS_LOGP>
0.89

> <JCHEM_LOGP>
1.6330554463333333

> <ALOGPS_LOGS>
-1.68

> <JCHEM_MDDR_LIKE_RULE>
0

> <JCHEM_NUMBER_OF_RINGS>
1

> <JCHEM_PHYSIOLOGICAL_CHARGE>
0

> <JCHEM_PKA>
15.095909197891558

> <JCHEM_PKA_STRONGEST_ACIDIC>
9.717813413928639

> <JCHEM_PKA_STRONGEST_BASIC>
-2.7568512972012167

> <JCHEM_POLAR_SURFACE_AREA>
66.76

> <JCHEM_REFRACTIVITY>
46.356500000000004

> <JCHEM_ROTATABLE_BOND_COUNT>
4

> <JCHEM_RULE_OF_FIVE>
1

> <ALOGPS_SOLUBILITY>
3.80e+00 g/l

> <JCHEM_TRADITIONAL_IUPAC>
glycol salicylate

> <JCHEM_VEBER_RULE>
0

> <DRUGBANK_ID>
DB11323

> <DRUG_GROUPS>
approved

> <GENERIC_NAME>
Glycol salicylate

> <SYNONYMS>
2-hydroxybenzoic acid 2-hydroxyethyl ester; 2-hydroxyethyl 2-oxidanylbenzoate; 2-hydroxyethyl salicylate; Ethylene glycol monosalicylate; Ethylene glycol salicylate; Glycol salicylate

> <PRODUCTS>
Family Care Thera Flex; Jupiter Pain Patch; Midalgan; New Ammeltz; Nopen Cool; Nopen Hot; Salonpas - Pls Top; Salonpas Gel-patch; Tokuhon Medicated Plaster; Ultraplast Analgesic Spray

$$$$
