
  Mrv1652312221600562D          

  3  2  0  0  0  0            999 V2000
   -1.1895    0.4575    0.0000 O   0  0  0  0  0  0  0  0  0  0  0  0
    0.4604    0.4575    0.0000 O   0  0  0  0  0  0  0  0  0  0  0  0
   -0.3645    0.4575    0.0000 Ti  0  0  0  0  0  0  0  0  0  0  0  0
  1  3  2  0  0  0  0
  3  2  2  0  0  0  0
M  END
> <DATABASE_ID>
DB09536

> <DATABASE_NAME>
drugbank

> <SMILES>
O=[Ti]=O

> <INCHI_IDENTIFIER>
InChI=1S/2O.Ti

> <INCHI_KEY>
GWEVSGVZZGPLCZ-UHFFFAOYSA-N

> <FORMULA>
O2Ti

> <MOLECULAR_WEIGHT>
79.865

> <EXACT_MASS>
79.937771

> <JCHEM_ACCEPTOR_COUNT>
2

> <JCHEM_ATOM_COUNT>
3

> <JCHEM_AVERAGE_POLARIZABILITY>
4.194784183297976

> <JCHEM_BIOAVAILABILITY>
1

> <JCHEM_DONOR_COUNT>
0

> <JCHEM_FORMAL_CHARGE>
0

> <JCHEM_GHOSE_FILTER>
0

> <JCHEM_IUPAC>
dioxotitanium

> <JCHEM_LOGP>
-0.7028

> <JCHEM_MDDR_LIKE_RULE>
0

> <JCHEM_NUMBER_OF_RINGS>
0

> <JCHEM_PHYSIOLOGICAL_CHARGE>
0

> <JCHEM_PKA_STRONGEST_BASIC>
-7.711108232191629

> <JCHEM_POLAR_SURFACE_AREA>
34.14

> <JCHEM_REFRACTIVITY>
2.8858

> <JCHEM_ROTATABLE_BOND_COUNT>
0

> <JCHEM_RULE_OF_FIVE>
1

> <JCHEM_TRADITIONAL_IUPAC>
titanium dioxide

> <JCHEM_VEBER_RULE>
1

> <DRUGBANK_ID>
DB09536

> <DRUG_GROUPS>
approved

> <GENERIC_NAME>
Titanium dioxide

> <SYNONYMS>
dióxido de titanio; óxido de titanio(4); Titanium dioxide

> <PRODUCTS>
01 Balancing Foundation SPF 15; 02 Balancing Foundation SPF 15; 02 Cushion Spf45 Sunscreen; 03 Balancing Foundation SPF 15; 04 Balancing Foundation SPF 15; 05 Balancing Foundation SPF 15; 06 Balancing Foundation SPF 15; 07 Balancing Foundation SPF 15; 08 Balancing Foundation SPF 15; 09 Balancing Foundation SPF 15; 10 Armani Prima Control Glow Moisturizer SBS SPF 35; 10 Balancing Foundation SPF 15; 100 % Mineral SPF Mini Set; 100% Mineral Body Mist With Green Tea Extract Broad Spectrum SPF 50; 100% Mineral Broad Spectrum Sunscreen SPF 50; 100% Pure Baby Sunscreen SPF 30; 100% Pure Everywhere Sunscreen SPF 30; 100% Pure Green Tea Oil Free Moisturizer SPF 30; 15HR COVER LASTING M201 Medium Beige SPF50; 15HR COVER LASTING V201 Apricot Beige SPF50; 15hr Cover Lasting Spf50; 2 In 1 Powder Make-UP SPF 15; 21STAY A Thera Sun Block; 24K Bio-Brightening Dark Circle Eye SPF 30; 25 Creme 410; 28 Remedy Juvenile Sun BB Light Beige; 28 Remedy Juvenile Sun BB Natural Beige; 3 Concept Eyes Back To Baby; 3 Concept Eyes Glossing Waterful Foundation Milk Ivory; 3 Concept Eyes Glossing Waterful Foundation Natural Ivory; 3 Concept Eyes Glossing Waterful Foundation Nude Beige; 3 Concept Eyes Glossing Waterful Foundation Soft Beige; 3 Concept Eyes Honey Face Chiffon Fluid 001; 3 Concept Eyes Honey Face Chiffon Fluid 002; 3 Concept Eyes Liquid Foundation Ivory Beige; 3 Concept Eyes Liquid Foundation Lace Beige; 3 Concept Eyes Slim Fit Pact Natural Ivory; 3 Concept Eyes Slim Fit Pact Soft Beige; 30 Plus; 30 SPF Fps High Protection Sunscreen; 30 SPF Fps Kids High Protection Sunscreen; 3CE Fitting Cushion Foundation 001; 3CE Fitting Cushion Foundation 002; 3CE Tinted moisture cushion CC 001; 3CE Tinted moisture cushion CC 002; 3Function CC Cream; 3Function Pearl BB Cream; 3LAB Aqua BB SPF 40 BROAD SPECTRUM 01; 3LAB Aqua BB SPF 40 BROAD SPECTRUM 02; 3LAB Aqua BB SPF 40 BROAD SPECTRUM 03; 3LAB PERFECT BB SPF 40 Broad Spectrum 01; 3LAB PERFECT BB SPF 40 Broad Spectrum 02; 3LAB PERFECT BB SPF 40 Broad Spectrum 03; 3LAB PERFECT Lite Sunscreen SPF 30 Broad Spectrum; 3ce Cre Amy Lip Color 01 Pick Me Up; 3ce Cre Amy Lip Color 03 Zoom In; 3ce Cre Amy Lip Color 04 Joyce; 3ce Cre Amy Lip Color 05 Dazzling; 3ce Cre Amy Lip Color 06 Jazzy Pink; 3ce Cre Amy Lip Color 08 Ladi Dadi; 3ce Cre Amy Lip Color 09 Ki Tsch Biker; 3ce Cre Amy Lip Color 10 Roller Coaster; 3ce Cre Amy Lip Color 12 Me Me; 3ce Cre Amy Lip Color 13 Veg As Night; 3ce Cre Amy Lip Color 14 Lollipop; 3ce Cre Amy Lip Color 15 Beloved; 3ce Cre Amy Lip Color 16 Giddy Up; 3ce Drawing Lip Pen Beware; 3ce Drawing Lip Pen Born Red; 3ce Drawing Lip Pen Butter Pink; 3ce Drawing Lip Pen Crush On You; 3ce Drawing Lip Pen Endear; 3ce Drawing Lip Pen Little More; 3ce Drawing Lip Pen Mayhap; 3ce Drawing Lip Pen Need; 3ce Drawing Lip Sloe Gin; 3ce Drawing Lip Willowy; 3ce Drawing Lip You Got Me; 3ce Duo Color Face Blush Creme De Violette; 3ce Duo Color Face Blush Make Me Blush; 3ce Duo Color Face Blush Miss Flower; 3ce Duo Color Face Blush Peach Crush; 3ce Duo Color Face Blush Retro Drive; 3ce Eye Shadow Palette Bitter Sweet; 3ce Eye Shadow Palette Saddle; 3ce Eye Shadow Palette Sienna; 3ce Eye Shadow Palette Up Close; 3ce Eyebrow Mascara Blondie Gold; 3ce Eyebrow Mascara Brown; 3ce Eyebrow Mascara Gold Brown; 3ce Eyebrow Mascara Red Brown; 3ce Full Cover Concealer 001; 3ce Full Cover Concealer 002; 3ce Lip Color 204 Come To Me; 3ce Lip Color 308 Pink Jam; 3ce Lip Color 309 Celebrity; 3ce Lip Color 401 Scandal; 3ce Lip Color 402 Fuchsia; 3ce Lip Color 408 Chu Chu; 3ce Lip Color 409 Kiss Woo; 3ce Lip Color 501 Bella; 3ce Lip Color 503 Glass Hot Pink; 3ce Lip Color 506 Daily Lady; 3ce Lip Color 507 Lala; 3ce Lip Color 508 Swing Swing; 3ce Lip Color 601 Deep Kisser; 3ce Lip Color 602 V; 3ce Lip Color 609 Jammer; 3ce Lip Color 701 Rondo; 3ce Lip Color 704 Curtain Call; 3ce Lip Color 706 Sweet Impact; 3ce Lip Color 803 Classic Rosy; 3ce Lip Color 804 Stay By Me; 3ce Lip Color 805 R 19; 3ce Lip Color 806 Dusty Coral; 3ce Lip Color 807 Hypnotic; 3ce Lip Color 902 Rose Breath; 3ce Lip Color 903 Glass Rosy; 3ce Lip Color 904 Glass Berry; 3ce Lip Color 905 Gone Bad; 3ce Magic Touch Face Maker Beige; 3ce Magic Touch Face Maker Pink; 3ce Matte Lip Crayon Airy Red; 3ce Matte Lip Crayon Blushed; 3ce Matte Lip Crayon Heaven Way; 3ce Matte Lip Crayon Hotline; 3ce Matte Lip Crayon Peekaboo; 3ce Matte Lip Crayon Pink Leaves; 3ce Matte Lip Crayon Rum; 3ce Matte Lip Crayon Speak Low; 3ce Matte Lip Crayon Terrific; 3ce Pore Silky Balm; 3ce Shimmer Peach; 3ce Shimmer Pink; 3ce Slim Eyebrow Pencil Ash Black; 3ce Slim Eyebrow Pencil Chestnut Brown; 3ce Slim Eyebrow Pencil Light Brown; 3ce Slim Eyebrow Pencil Reddish Brown; 3ce Triple Shadow Body To Body; 3ce Triple Shadow Lemme See; 3ce Triple Shadow More Brown; 3ce Triple Shadow No Nono; 3ce Triple Shadow Tin Tin; 4 in 1 Pressed Mineral SPF 15 Blush Medium; 4 in 1 Pressed Mineral SPF 15 Deep; 4 in 1 Pressed Mineral SPF 15 Deeper; 4 in 1 Pressed Mineral SPF 15 Golden Dark; 4 in 1 Pressed Mineral SPF 15 Golden Medium; 4 in 1 Pressed Mineral SPF 15 Light; 4 in 1 Pressed Mineral SPF 15 Light Tan; 4 in 1 Pressed Mineral SPF 15 Medium Dark; 4 in 1 Pressed Mineral SPF 15 Medium Tan; 4 in 1 Pressed Mineral SPF 15 Porcelain; 4 in 1 Pressed Mineral SPF 15 Tan; 45 Plus; 45 SPF Fps High Protection Sunscreen; 45 SPF High Protection Uva Uvb Cream; 45 SPF Sunblock Lotion; 5281 Sunscreen; 5283 Sunscreen; 5298 Sunscreen; 5299 Sunscreen; 5407 Sunscreen; 60 SPF Stick Protection Ciblee Uva Uvb Anthelios XL; A M Hand Cream SPF 15; A M Intensified Emulsion SPF 8; A Perfect World Age Defense Eye With White Tea Broad Spectrum SPF 20; A.H.C. COMPLETE CHOICE Color Change Cream; A.H.C. COMPLETE CHOICE Moisture Cream; A.H.C. COMPLETE CHOICE liftox Cream; A24 Naturalism Sensitive Skin Sunscreen SPF 50; ACTIBEAU Camellia Floral Calming Sunscreen; ACTIBEAU Camellia Natural Mineral UV Defense Sunscreen; ACWELL SOLAR DEFENSE LICORICE C BLEMISH Sunstick; ACWELL SOLAR DEFENSE LICORICE Suncream; ACWELL UV CUT Mild Sun Fluid; ACWELL UV CUT Natural Sun Cushion; ACWELL UV CUT Waterproof Sun; AEKYUNGLUNA LONG LASTING Tip Concealer FIXING-FIT 01 Light Beige; AEKYUNGLUNA LONG LASTING Tip Concealer FIXING-FIT 02 Natural Beige; AGE 20s SIGNATURE ESSENCE COVER PACT INTENSE COVER 13 IVORY; AGE 20s SIGNATURE ESSENCE COVER PACT INTENSE COVER 21 LIGHT BEIGE; AGE 20s SIGNATURE ESSENCE COVER PACT INTENSE COVER 23 MEDIUM BEIGE; AGE 20s SIGNATURE ESSENCE COVER PACT INTENSE COVER 23 MEDIUM TAN; AGE 20s SIGNATURE ESSENCE COVER PACT INTENSE COVER 31 MEDIUM TAN; AGE 20s SIGNATURE ESSENCE COVER PACT LONG STAY 13 IVORY; AGE 20s SIGNATURE ESSENCE COVER PACT LONG STAY 21 LIGHT BEIGE; AGE 20s SIGNATURE ESSENCE COVER PACT LONG STAY 23 MEDIUM BEIGE; AGE 20s SIGNATURE ESSENCE COVER PACT MOISTURE 13 IVORY; AGE 20s SIGNATURE ESSENCE COVER PACT MOISTURE 21 LIGHT BEIGE; AGE 20s SIGNATURE ESSENCE COVER PACT MOISTURE 23 MEDIUM BEIGE; AGE 20s SIGNATURE ESSENCE COVER TONE-UP BASE 01 PINK; AGE 20s SIGNATURE ESSENCE COVER TONE-UP BASE 03 PURPLE; AGE-X Platinum BB; AGE20s ESSENCE COVER PACT ORIGINAL WHITE LATTE 23; AGE20s JERICHO ROSE EVERASTING SERUM FOUNDATION; AGE20s JERICHO ROSE TONE ESSENTIAL UV PRIMER GREEN MINT; AGE20s JERICHO ROSE TONE ESSENTIAL UV PRIMER PALE LAVENDER; AGE20s SIGNATURE ESSENCE COVER PACT INTENSE COVER 13 IVORY; AGE20s SIGNATURE ESSENCE COVER PACT INTENSE COVER 21 LIGHT BEIGE; AGE20s SIGNATURE ESSENCE COVER PACT INTENSE COVER 23 MEDIUM BEIGE; AGE20s SIGNATURE ESSENCE COVER PACT LONG STAY 21 LIGHT BEIGE; AGE20s SIGNATURE ESSENCE COVER PACT MOISTURE 21 LIGHT BEIGE; AGE20s SIGNATURE ESSENCE COVER TONE UP BOOSTER; AGE20s SIGNATURE ESSENCE COVER TONE-UP BASE 01 PINK; AGE20s SIGNATURE ESSENCE COVER TONE-UP BASE 02 GREEN; AGE20s SIGNATURE ESSENCE COVER TONE-UP BASE 03 PURPLE; AHAVA ACTIVE DEADSEA MINERALS Mineral Suncare spf 15; AHAVA ACTIVE DEADSEA MINERALS Mineral Suncare spf 30; AHAVA ACTIVE DEADSEA MINERALS Mineral Suncare spf 50; AHAVA ACTIVE DEADSEA MINERALS Mineral Suncare spf 50 face; AHC Intense Contour Balm; AHC Intense Contour Balm Light; AHC Premium Intense Contour Balm; AIR COTTON Make-up Base 02 SPF30; AL0040400 Alba VE Mineral Sunscreen SPF35; AL0040500 Alba VE Mineral Sunscreen Herbal Fresh SPF35; ALMOST powder MAKEUP BROAD SPECTRUM SPF 18; AMOREPACIFIC FUTURE RESPONSE Age Defense SPF30; ANNA LOTAN Premium B.B. UVA UVB SPF 36; ANNA LOTAN Rejuvenating Day Broad Spectrum SPF 34; ARTISTRY IDEAL RADIANCE UV Protect SPF 50 PLUS Broad Spectrum Sunscreen; ARTISTRY Time Defiance UV Defense SPF 50 Ultra Facial Sunscreen; ATOMY BB Broad Spectrum; ATONO2 Baby Sun Cream; AV3712501 Mineral Sunscreen SPF 18; AV453902 Avalon Organics Intense Defense Sheer Moisture SPF10; Aaekyungluna Long Lasting Conceal Fixing Cushion Medium Beige 23m; Abalone Crystaldouble EX Bb; Abalone Crystaldouble EX Cc; About Face Line Defiance Liquid Foundation SPF 15; Absolute Finish Foundation SPF15; Absolute Total BB SPF37 PA 3Plus; Abyssine Lotion + SPF 15; Acne Bb Broad Spectrum SPF 40; Acure Mineral Protection Sunscreen Broad Spectrum SPF 30; Acwell Daily Sun Control; Acwell Sensitive Solu Tion Sun Control; Adaptateur De Bronzage - Lot; Adaptive Fps 10; Advanced Cell Boosting EX Bb Spf30 Pa Plus Plus 01 Light Bb; Advanced Cell Boosting EX Bb Spf30 Pa Plus Plus 02 Natural; Advanced Hydro-liquid Compact (refill) B20; Advanced Hydro-liquid Compact (refill) B40; Advanced Hydro-liquid Compact (refill) B60; Advanced Hydro-liquid Compact (refill) I00; Advanced Hydro-liquid Compact (refill) I20; Advanced Hydro-liquid Compact (refill) I40; Advanced Hydro-liquid Compact (refill) I60; Advanced Hydro-liquid Compact (refill) O20; Advanced Hydro-liquid Compact (refill) O40; Advanced Hydro-liquid Compact (refill) O60; Advanced Hydro-liquid Compact (refill) O80; Advent Calendar 2021; Aekyung Luna Long Lasting Tip Concealer Big Light Beige; Aekyung Luna Long Lasting Tip Concealer Big Natural Beige; Aekyungluna Long Lasting Conceal Fixing Cushion 21c Cool Ivory; Aekyungluna Long Lasting Conceal Fixing Cushion 21w Warm Beige; Aekyungluna Long Lasting Conceal Fixing Cushion 23m Medium Beige; Aekyungluna Long Lasting Conceal Fixing Cushion Cool Ivory 21c; Aekyungluna Long Lasting Conceal Fixing Cushion Medium Beige 23m; Aekyungluna Long Lasting Conceal Fixing Cushion Warm Beige 21w; Africa Bird Homme Bb Moisturizer; Agatha Fitting Touch Make Up Set; Age 20s ESSENCE COVER PACT ORIGINAL PINK LATTE 13; Age 20s ESSENCE COVER PACT ORIGINAL PINK LATTE 21; Age 20s ESSENCE COVER PACT ORIGINAL PINK LATTE 23; Age 20s ESSENCE COVER PACT ORIGINAL WHITE LATTE 13; Age 20s ESSENCE COVER PACT ORIGINAL WHITE LATTE 21; Age 20s ESSENCE COVER PACT ORIGINAL WHITE LATTE 23; Age 20s ESSENCE COVER PACT ORIGINAL WHITE LATTE 25; Age 20s ESSENCE COVER PACT ORIGINAL WHITE LATTE 35; Age 20s ESSENCE COVER PACT WHITE DARK BE-35; Age 20s ESSENCE COVER PACT WHITE DEEP BE-25; Age Defense BB Cream SPF 30; Age Defense Bb Broad Spectrum SPF 30 All Skin Types; Age Defense Mineral Moisturizer SPF 30; Age Defense Snail BB Cream; Age Defense Tinted Mineral Sunscreen Broad Spectrum SPF 30; Age Renewal Firming; Age Renewal Firming and Hydrating Moisturizer SPF 30; Ageless Foundation 23; Air Cotton Make Up Base 01 Mint SPF 30; Alabaster Beige Expert Finish Makeup Broad Spectrum SPF 25 Merle Norman; Alabaster Beige Perfecting Makeup SPF 25 Merle Norman; Alabaster Beige Smart Finish Makeup Broad Spectrum Merle Norman; Alabaster Perfecting Makeup SPF 25 Merle Norman; Alabaster Smart Finish Makeup Broad Spectrum SPF 18 Merle Norman; Alba Botanica Baby Mineral Sunscreen SPF45; Alba Botanica Facial Mineral Sunscreen FF SPF20; Alba Botanica Kids Mineral Sunscreen FF SPF30; Alba Botanica Mineral Sport FF Sunscreen SPF45; Alba Botanica Mineral Sunscreen FF SPF30; Alba Botanica Very Emollient / Très Émollient Lavender Fragrance Sunscreen Lotion/lotion Écran Solaire À Parfum De Lavande SPF Fps 45; Alba Botanica Very Emollient / Très Émollient Sport Sunscreen Lotion / Lotion Écran Solaire Sport SPF Fps 45; Alba Botanica Very Emollient/très Émollient Fragrance Free Facial Sunscreen Lotion/lotion Écran Solaire Non Parfumée Pour Le Visage SPF Fps 30; Alba Botanica Very Emollient/très Émollient Kids Sunscreen Lotion/lotion Écran Solaire Pour Enfants SPF Fps 45; Alba Even Advanced Mineral CC Cream Fair to Light SPF15; Alba Even Advanced Mineral CC Cream Light to Medium SPF15; Alba Good and Healthy Moisturizer SPF15; Alba HW Sunscreen Soothing Aloe Vera SPF30; Alba Hawaiian Aloe Vera Sunblock SPF 30; Alba Hawaiian Green Tea Sunblock SPF 45; Alba Hawaiian Sunscreen Green Tea SPF45; Alba Kids Mineral Sunblock SPF 30; Alba Mineral Sunscreen Sport SPF45 Broad Spectrum; Alba Sunblock Facial SPF 20; Alba Sunblock Mineral Aloe Vanilla SPF 30; Alba Sunblock Mineral FF SPF 30; Alba Sunblock Natural FF SPF 30; Alba Sunblock Natural Facial SPF 30; Alba Sunblock Natural Kids SPF 45; Alba Sunblock Natural Lavender SPF 45; Alba Sunblock Natural Sport SPF 45; Alba VE Facial Sunscreen SPF30; Alba VE Sunscreen SPF30 Fragrance Free; Alba VE Sunscreen Sport SPF45; Alex MD PhD Antidotal Skincare Daily Defense Tinted Mineral Anti-Aging Sunscreen; Algenist; All About Soo Sun Stage Coolstick Spf50 Pa; All Aglow Perfect Cushion Foundation; All Calm Clinical Redness Corrector SPF 50; All Physical Sunscreen Broad Spectrum SPF 50; All-Day Liquid Foundation SPF 15 sunscreen Alabaster; All-Day Liquid Foundation SPF 15 sunscreen Almond Beige; All-Day Liquid Foundation SPF 15 sunscreen Amber; All-Day Liquid Foundation SPF 15 sunscreen Caramel; All-Day Liquid Foundation SPF 15 sunscreen Chestnut; All-Day Liquid Foundation SPF 15 sunscreen Cool Beige; All-Day Liquid Foundation SPF 15 sunscreen Cream; All-Day Liquid Foundation SPF 15 sunscreen Ebony; All-Day Liquid Foundation SPF 15 sunscreen Golden Beige; All-Day Liquid Foundation SPF 15 sunscreen Honey; All-Day Liquid Foundation SPF 15 sunscreen Ivory; All-Day Liquid Foundation SPF 15 sunscreen Nougat; All-Day Liquid Foundation SPF 15 sunscreen Olive; All-Day Liquid Foundation SPF 15 sunscreen Porcelain; All-Day Liquid Foundation SPF 15 sunscreen Rose Beige; All-Day Liquid Foundation SPF 15 sunscreen Soft Sand; All-Day Liquid Foundation SPF 15 sunscreen Topaz; All-Day Liquid Foundation SPF 15 sunscreen True Beige; All-Day Liquid Foundation SPF 15 sunscreen Warm Beige; All-Day Liquid Foundation SPF 15 sunscreen Warm Ivory; Almay Age Essentials Makeup SPF 15; Almay Age Smart Shade CC Luminous Primer SPF 15; Almay Amazing Lasting 16 Hour Concealer SPF 6 (shades Light and Medium); Almay Best Blend Forever Makeup; Almay Health Glow 3-In-1 Makeup SPF 20; Almay Healthy Biome Makeup; Almay Healthy Glow Makeup + Gradual Self Tan SPF 20; Almay Kinetin Skin-smoothing Concealer SPF 10; Almay Kinetin Skin-smoothing Foundation SPF 15; Almay Line Smoothing Liquid Make-Up for Dry Skin; Almay Lip Vitality SPF 15; Almay Nearly Naked Liquid Makeup SPF 15; Almay Smart Shade Anti-aging Skintone Matching Makeup SPF 20; Almay Smart Shade CC Cream; Almay Smart Shade Skintone Anti- Aging Make-Up; Almay Smart Shade Skintone Matching Makeup; Almay Smart Shade Smart Balance Make-Up; Almay Time-off Age Smoothing Makeup SPF 12; Almay Time-off Lasting Moisture Lotion; Almay Wake-UP Call Energizing Makeup SPF 15; Almay Wake-UP Liquid Makeup; Almay Wake-Up Liquid Make-Up; Almost Bronzer SPF 15; Almost Makeup Broad Spectrum SPF 15; Almost Makeup SPF 15; Almost Makeup SPF 15 - Deep - Cream 6.4%; Almost Makeup SPF 15 - Fair - Cream 8.0%; Almost Makeup SPF 15 - Light - Cream 7.3%; Almost Makeup SPF 15 - Medium - Cream 7.6%; Almost Makeup SPF 18; Almost Powder Compact Makeup SPF 15; Almost Powder Makeup SPF 15; Almost Powder Makeup Teint Poudre Naturel SPF 18 / Fps 18; Aloe Soothing Suncream; Aloe Sun Bb Spf20 Pa Plus Number1 Natural Skin; Aloe Sun Bb Spf20 Pa Plus Number1 Radiant Skin; Aloe Sun Bb Spf50 Plus Pa Plus Plus Plus; Aloe Sun Essence SPF 27 Pa Plus Plus; Aloette Light CC Cream; Aloette Medium CC Cream; Aloette Tan CC Cream; Aloevella; Alumier MD Clear Shield Broad Spectrum SPF 42 Sunscreen; Alumier MD Moisture Matte Broad Spectrum SPF 40 Sunscreen Amber; Alumier MD Moisture Matte Broad Spectrum SPF 40 Sunscreen Ivory; Alumier MD Moisture Matte Broad Spectrum SPF 40 Sunscreen Sand; Alumier MD Post Procedure Kit; Alumier MD Post Procedure Kit with Hydrocortisone; Alumier MD Post Procedure Prescription; Alumier MD Post Procedure Prescription Hydrocortisone Free; Alumier MD Sheer Hydration; Alumier MD Sheer Hydration Broad Spectrum SPF40 Untinted; Alumier MD Sheer Hydration Tinted Moisturizing Sunscreen; Always Color Stay on Makeup Broad Spectrum SPF 15 Jafra; Always Golden Daily Moisturizer (Tinted); Always Nuddy CC; Always Perfect CC; Always Triple BB; Always color stay on SPF 10 light to medium Jafra; Amarte Natural Finish Bb; Amarte Ultra Veil Ultra Light Sunscreen Fluid; Amazonian Clay 12-Hour Full Coverage Foundation Broad Spectrum SPF 15 Sunscreen 12B Fair Beige; Amazonian Clay 12-Hour Full Coverage Foundation Broad Spectrum SPF 15 Sunscreen 12S Fair Sand; Amazonian Clay 12-Hour Full Coverage Foundation Broad Spectrum SPF 15 Sunscreen 13N Ivory; Amazonian Clay 12-Hour Full Coverage Foundation Broad Spectrum SPF 15 Sunscreen 16B Fair-light Beige; Amazonian Clay 12-Hour Full Coverage Foundation Broad Spectrum SPF 15 Sunscreen 16H Fair-light Honey; Amazonian Clay 12-Hour Full Coverage Foundation Broad Spectrum SPF 15 Sunscreen 16N Fair-light Neutral; Amazonian Clay 12-Hour Full Coverage Foundation Broad Spectrum SPF 15 Sunscreen 22B Light Beige; Amazonian Clay 12-Hour Full Coverage Foundation Broad Spectrum SPF 15 Sunscreen 22G Light Golden; Amazonian Clay 12-Hour Full Coverage Foundation Broad Spectrum SPF 15 Sunscreen 22N Light Neutral; Amazonian Clay 12-Hour Full Coverage Foundation Broad Spectrum SPF 15 Sunscreen 22S Light Sand; Amazonian Clay 12-Hour Full Coverage Foundation Broad Spectrum SPF 15 Sunscreen 27N Light-medium Neutral; Amazonian Clay 12-Hour Full Coverage Foundation Broad Spectrum SPF 15 Sunscreen 27S Light-Medium Sand; Amazonian Clay 12-Hour Full Coverage Foundation Broad Spectrum SPF 15 Sunscreen 29B Light-medium Beige; Amazonian Clay 12-Hour Full Coverage Foundation Broad Spectrum SPF 15 Sunscreen 29H Light-medium Honey; Amazonian Clay 12-Hour Full Coverage Foundation Broad Spectrum SPF 15 Sunscreen 35B Medium Beige; Amazonian Clay 12-Hour Full Coverage Foundation Broad Spectrum SPF 15 Sunscreen 35H Medium Honey; Amazonian Clay 12-Hour Full Coverage Foundation Broad Spectrum SPF 15 Sunscreen 35N Medium Neutral; Amazonian Clay 12-Hour Full Coverage Foundation Broad Spectrum SPF 15 Sunscreen 35S Medium Sand; Amazonian Clay 12-Hour Full Coverage Foundation Broad Spectrum SPF 15 Sunscreen 36H Medium-tan Honey; Amazonian Clay 12-Hour Full Coverage Foundation Broad Spectrum SPF 15 Sunscreen 37B Medium-Tan Beige; Amazonian Clay 12-Hour Full Coverage Foundation Broad Spectrum SPF 15 Sunscreen 37S Medium-Tan Sand; Amazonian Clay 12-Hour Full Coverage Foundation Broad Spectrum SPF 15 Sunscreen 39N Medium-Tan Neutral; Amazonian Clay 12-Hour Full Coverage Foundation Broad Spectrum SPF 15 Sunscreen 40H Tan Honey; Amazonian Clay 12-Hour Full Coverage Foundation Broad Spectrum SPF 15 Sunscreen 42G Tan Golden; Amazonian Clay 12-Hour Full Coverage Foundation Broad Spectrum SPF 15 Sunscreen 42N Tan Neutral; Amazonian Clay 12-Hour Full Coverage Foundation Broad Spectrum SPF 15 Sunscreen 44S Tan Sand; Amazonian Clay 12-Hour Full Coverage Foundation Broad Spectrum SPF 15 Sunscreen 46S Tan-deep Sand; Amazonian Clay 12-Hour Full Coverage Foundation Broad Spectrum SPF 15 Sunscreen 47G Tan-Deep Golden; Amazonian Clay 12-Hour Full Coverage Foundation Broad Spectrum SPF 15 Sunscreen 47H Tan-deep Honey; Amazonian Clay 12-Hour Full Coverage Foundation Broad Spectrum SPF 15 Sunscreen 48N Tan-Deep Neutral; Amazonian Clay 12-Hour Full Coverage Foundation Broad Spectrum SPF 15 Sunscreen 51G Deep Golden; Amazonian Clay 12-Hour Full Coverage Foundation Broad Spectrum SPF 15 Sunscreen 51N Deep Neutral; Amazonian Clay 12-Hour Full Coverage Foundation Broad Spectrum SPF 15 Sunscreen 51S Deep Sand; Amazonian Clay 12-Hour Full Coverage Foundation Broad Spectrum SPF 15 Sunscreen 53H Deep Honey; Amazonian Clay 12-Hour Full Coverage Foundation Broad Spectrum SPF 15 Sunscreen 56G Rich Golden; Amazonian Clay 12-Hour Full Coverage Foundation Broad Spectrum SPF 15 Sunscreen 57H Rich Honey; Amazonian Clay 12-Hour Full Coverage Foundation Broad Spectrum SPF 15 Sunscreen 57S Rich Sand; Amazonian Clay 12-Hour Full Coverage Foundation Broad Spectrum SPF 15 Sunscreen 58N Rich Neutral; Amazonian Clay 12-Hour Full Coverage Foundation Broad Spectrum SPF 15 Sunscreen 60H Mahogany; Amazonian Clay 12-Hour Full Coverage Foundation Broad Spectrum SPF 15 Sunscreen 8B Porcelain Beige; Amazonian Clay 12-Hour Full Coverage Foundation Broad Spectrum SPF 15 Sunscreen Deep Honey; Amazonian Clay 12-Hour Full Coverage Foundation Broad Spectrum SPF 15 Sunscreen Deep Sand; Amazonian Clay 12-Hour Full Coverage Foundation Broad Spectrum SPF 15 Sunscreen Fair Beige; Amazonian Clay 12-Hour Full Coverage Foundation Broad Spectrum SPF 15 Sunscreen Fair Sand; Amazonian Clay 12-Hour Full Coverage Foundation Broad Spectrum SPF 15 Sunscreen Fair- Light Honey; Amazonian Clay 12-Hour Full Coverage Foundation Broad Spectrum SPF 15 Sunscreen Fairly-Light Beige; Amazonian Clay 12-Hour Full Coverage Foundation Broad Spectrum SPF 15 Sunscreen Fairly-Light Neutral; Amazonian Clay 12-Hour Full Coverage Foundation Broad Spectrum SPF 15 Sunscreen Ivory; Amazonian Clay 12-Hour Full Coverage Foundation Broad Spectrum SPF 15 Sunscreen Light Beige; Amazonian Clay 12-Hour Full Coverage Foundation Broad Spectrum SPF 15 Sunscreen Light Medium Neutral; Amazonian Clay 12-Hour Full Coverage Foundation Broad Spectrum SPF 15 Sunscreen Light Neutral; Amazonian Clay 12-Hour Full Coverage Foundation Broad Spectrum SPF 15 Sunscreen Light Sand; Amazonian Clay 12-Hour Full Coverage Foundation Broad Spectrum SPF 15 Sunscreen Light-Medium Beige; Amazonian Clay 12-Hour Full Coverage Foundation Broad Spectrum SPF 15 Sunscreen Light-Medium Honey; Amazonian Clay 12-Hour Full Coverage Foundation Broad Spectrum SPF 15 Sunscreen Light-Medium Sand; Amazonian Clay 12-Hour Full Coverage Foundation Broad Spectrum SPF 15 Sunscreen Medium Beige; Amazonian Clay 12-Hour Full Coverage Foundation Broad Spectrum SPF 15 Sunscreen Medium Honey; Amazonian Clay 12-Hour Full Coverage Foundation Broad Spectrum SPF 15 Sunscreen Medium Neutral; Amazonian Clay 12-Hour Full Coverage Foundation Broad Spectrum SPF 15 Sunscreen Medium Sand; Amazonian Clay 12-Hour Full Coverage Foundation Broad Spectrum SPF 15 Sunscreen Medium-Tan Honey; Amazonian Clay 12-Hour Full Coverage Foundation Broad Spectrum SPF 15 Sunscreen Rich Honey; Amazonian Clay 12-Hour Full Coverage Foundation Broad Spectrum SPF 15 Sunscreen Tan Honey; Amazonian Clay 12-Hour Full Coverage Foundation Broad Spectrum SPF 15 Sunscreen Tan Sand; Amazonian Clay 12-Hour Full Coverage Foundation Broad Spectrum SPF 15 Sunscreen Tan-Deep Sand; Amazonian Clay BB Tinted Moisturizer Broad Spectrum SPF 20 Sunscreen Fair; Amazonian Clay BB Tinted Moisturizer Broad Spectrum SPF 20 Sunscreen Ivory; Amazonian Clay BB Tinted Moisturizer Broad Spectrum SPF 20 Sunscreen Light; Amazonian Clay BB Tinted Moisturizer Broad Spectrum SPF 20 Sunscreen Light-Medium; Amazonian Clay BB Tinted Moisturizer Broad Spectrum SPF 20 Sunscreen Medium; Amazonian Clay BB Tinted Moisturizer Broad Spectrum SPF 20 Sunscreen Medium-Tan; Amazonian Clay BB Tinted Moisturizer Broad Spectrum SPF 20 Sunscreen Tan; Amazonian Clay BB Tinted Moisturizer Broad Spectrum SPF 20 Sunscreen Tan-Deep; Amazonian Colored Clay Foundation Broad Spectrum SPF 15 Sunscreen Deep; Amazonian Colored Clay Foundation Broad Spectrum SPF 15 Sunscreen Fair; Amazonian Colored Clay Foundation Broad Spectrum SPF 15 Sunscreen Light; Amazonian Colored Clay Foundation Broad Spectrum SPF 15 Sunscreen Medium; Amazonian Colored Clay Foundation Broad Spectrum SPF 15 Sunscreen Tan; Amazonian clay BB illuminating moisturizer Broad Spectrum SPF 15 Sunscreen; Amazonic Natural Sunscreen SPF 30 Broad Spectrum UVA/UVB; Amorepacific Color Control Cushion Compact; Amorepacific Color Control Cushion Compact No.102; Amorepacific Color Control Cushion Compact No.104; Amorepacific Color Control Cushion Compact No.106; Amorepacific Color Control Cushion Compact No.204; Amorepacific Color Control Cushion Compact No.208; Amorepacific Future Response Age Defense CRème SPF 30; Amorepacific Future Response Age Defense Dual Eye CRème With SPF 25 Sunscreen; Amorepacific Future Response Age Defense Dual Eye With SPF 25 Sunscreen; Amorepacific Moisture Bound Tinted Treatment Moisturizer No. 102; Amorepacific Moisture Bound Tinted Treatment Moisturizer No. 104; Amorepacific Moisture Bound Tinted Treatment Moisturizer No. 106; Amorepacific Moisture Bound Tinted Treatment Moisturizer No. 204; Amorepacific Natural Protector; Amorepacific Resort Collection Sun Protection Cushion; Amorepacific Resort Collection Sun Protection Cushion Broad Spectrum SPF 30 Sunscreen; Amorepacific Time Response No. 102; Amorepacific Time Response No. 104; Amorepacific Time Response No. 106; Amorepacific Time Response No. 202; Amorepacific Time Response No. 204; Amorepacific Time Response No. 206; Amorepacific Time Response Skin Renewal No. 100; Amorepacific Time Response Skin Renewal No. 102; Amorepacific Time Response Skin Renewal No. 104; Amorepacific Time Response Skin Renewal No. 106; Amorepacific Time Response Skin Renewal No. 200; Amorepacific Time Response Skin Renewal No. 202; Amorepacific Time Response Skin Renewal No. 204; Amorepacific Time Response Skin Renewal No. 206; An Adc Sp Intensive Bb; An Adc Whitening Bb; Anew Age-Transforming Concealer; Anew Age-Transforming Foundation; Anew Age-transforming Compact Makeup Maquillage Compact Transformation-age SPF-fps 15; Anew Age-transforming Cream Concealer; Anew Age-transforming Foundation Lotion; Anew Age-transforming Pressed Powder Poudre Pressee Transformation-age SPF.fps 15; Anew Instant Eye Smoother, SPF 15; Anew Solar Advance Eye and Lip Sunscreen; Angelica UV Shield SPF 40; Anhydrous SPF 30; Anivy; Anna Lotan Lightly Tinted Mineral Day Cream Broad Spectrum SPF 30; Anna Lotan Triple Benefit Tinted Moisturizing Day Broad Spectrum SPF 30; Anthelios - Lait SPF 45; Anthelios Dermo-kids; Anthelios Dermo-kids 50+; Anthelios L - Ecran Intolerances Solaires SPF 60; Anthelios L-lait Ecran Intol.solaire SPF 60; Anthelios S - Ecran Solaire SPF 30; Anthelios SPF 45; Anthelios Spray SPF 30; Anthelios Spray SPF 45; Anthelios XL Cream SPF 60; Anthelios XL Melt-IN Cream; Anthelios XL Stick; Anthelios-creme Solaire SPF 10; Anthelios-ecran Invisible SPF 20; Anthelios-lait Ecran Invisible SPF 20; Antherpos; Antherpos-ceralip Solaire SPF 50; Anti-aging Armour Super Smart Skin-perfecting Beauty Fluid SPF 50; Antibacterial PE film; Antioxidant Primer; April Skin Magic Snow Cushion SPF50 PLUS (15g) (Natural Beige); April Skin Magic Snow Cushion SPF50 PLUS (15g) (Pink Beige); Aprilskin Magic Essence Shower Cushion 21 Light Beige; Aprilskin Magic Essence Shower Cushion 23 Natural Beige; Aprilskin Magic Snow Fixing Foundation 22 Pink Beige; Aprilskin Magic Snow Fixing Foundation 23 Natural Beige; Aqua Aura Moist Finish Pact; Aqua Fusion SPF 15 Peau Normale A Mixte; Aqua Rush Water Drop BB; Aqua Soleil CRème Visage Et Corps Fps 35; Aqua Soleil Creme Visage Et Corps Fps 35; Aqua-fluid; Aquaderm-30; Aquaderm-30 Sunscreen Lotion; Aquasource Uv Fps 15 Peau Normale Mixte; Aquasource Uv Fps 15 Peau Seche; Aquasport; Arbonne Got You Covered Mineral Foundation Broad Spectrum SPF 15 Sunscreen Almond; Arbonne Got You Covered Mineral Foundation Broad Spectrum SPF 15 Sunscreen Beige; Arbonne Got You Covered Mineral Foundation Broad Spectrum SPF 15 Sunscreen Bisque; Arbonne Got You Covered Mineral Foundation Broad Spectrum SPF 15 Sunscreen Bronze; Arbonne Got You Covered Mineral Foundation Broad Spectrum SPF 15 Sunscreen Cocoa; Arbonne Got You Covered Mineral Foundation Broad Spectrum SPF 15 Sunscreen Ivory; Arbonne Got You Covered Mineral Foundation Broad Spectrum SPF 15 Sunscreen Natural; Arbonne Got You Covered Mineral Foundation Broad Spectrum SPF 15 Sunscreen Nude; Arbonne Got You Covered Mineral Foundation Broad Spectrum SPF 15 Sunscreen Olive; Arbonne Got You Covered Mineral Foundation Broad Spectrum SPF 15 Sunscreen Radiant; Arbonne Got You Covered Mineral Foundation Broad Spectrum SPF 15 Sunscreen Rose; Arbonne Got You Covered Mineral Foundation Broad Spectrum SPF 15 Sunscreen Satin; Arbonne Intelligence Pollution Defense SPF30 CC Cream - Dark Shade; Arbonne Intelligence Pollution Defense SPF30 CC Cream - Fair Shade; Arbonne Intelligence Pollution Defense SPF30 CC Cream - Light Shade; Arbonne Intelligence Pollution Defense SPF30 CC Cream - Medium Shade; Arbonne International Luminous Colour Wand SPF 8; Arbonne Setting Pretty Translucent Broad Spectrum SPF 15 Sunscreen; Area Foundy Cover; Area Foundy Natural; Argan Wear Ultra Nourishing Argan Oil BB Cream; Argan Wear Ultra-Nourishing Argan Oil BB Concealer; Arllin Golden Combination Charisma CC; Arocell Tone Up Perfect Sun; Arsainte Eco Therapy Super Repair Bb Spf20; Arsainte Eco Therapy Super Repair Sun Spf45; Artistry Concealer Stick SPF 15; Artistry Exact Fit Longwearing Foundation SPF 15 Broad Spectrum Sunscreen; Artistry Exact Fit Longwearing Foundation Shade Brule L4W1; Artistry Exact Fit Longwearing Foundation Shade Buff L1W1; Artistry Exact Fit Longwearing Foundation Shade Cappuccino L5W1; Artistry Exact Fit Longwearing Foundation Shade Caramel L5N1; Artistry Exact Fit Longwearing Foundation Shade Chablis L1C1; Artistry Exact Fit Longwearing Foundation Shade Chiffon L2C1; Artistry Exact Fit Longwearing Foundation Shade Cream L1W2; Artistry Exact Fit Longwearing Foundation Shade Golden L4N1; Artistry Exact Fit Longwearing Foundation Shade Mink L6W1; Artistry Exact Fit Longwearing Foundation Shade Natural L2N2; Artistry Exact Fit Longwearing Foundation Shade Ochre L2N1; Artistry Exact Fit Longwearing Foundation Shade Plush L3C1; Artistry Exact Fit Longwearing Foundation Shade Sand L2W1; Artistry Exact Fit Longwearing Foundation Shade Soleil L3W1; Artistry Exact Fit Longwearing Foundation Shade Tawny L3N1; Artistry Exact Fit Longwearing Foundation Shade Walnut L6N1; Artistry Ideal Radiance Illuminating CC SPF 50 Broad Spectrum Med/Deep; Artistry Ideal Radiance Illuminating CC SPF 50 Broad Spectrum Sunscreen Deep; Artistry Ideal Radiance Illuminating CC SPF 50 Broad Spectrum Sunscreen Light/Medium; Artistry Ideal Radiance Illuminating CC SPF 50 Broad Spectrum Sunscreen Medium; Artistry Ideal Radiance Illuminating CC SPF50 Broad Spectrum Sunscreen - Light; Artistry Ideal Radiance Illuminating Cc Cream; Artistry Liquid Foundation SPF 8 7.5%; Artists Touch BB 01 Light; Artists Touch BB 02 Medium; Aruba Aloe SPF 30 Mineral Sunscreen; Aruba Aloe SPF 50 Mineral Sunscreen; Aruba Aloe SPF 50 Mineral Sunscreen BABIES; Aruba Aloe SPF 50 Mineral Sunscreen FACES; Aruba Aloe Sport Line Broad Spectrum SPF 50 Anti Chafing; Aruba Aloe Sport Line Lip Balm Broad Spectrum SPF 30; Ato Ai Sun; Atobos Baby Sun; Atobos Centella Baby Sun; Atomy Bb Broad Spectrum Spf30; Atomy Bb Cream SPF 30 Pa; Atomy Bb Spf30 Pa Plus Plus; Atomy Derma Calming Sun; Atomy Mineral Compact No.13; Atomy Mineral Compact No.21; Atomy Mineral Compact No.23; Atomy Mineral Compact No.25; Atomy Mineral Pact Spf35 Pa Plus Plus No.13; Atomy Mineral Pact Spf35 Pa Plus Plus No.21; Atomy Mineral Pact Spf35 Pa Plus Plus No.23; Atomy Mineral Pact Spf35 Pa Plus Plus No.25; Atomy Sun Beige Spf50 Plus Pa Plus Plus Plus; Atomy Sun Cream SPF 50 Pa; Atomy Sun Spf50 Plus Pa Plus Plus Plus; Atomy Sunscreen Beige Broad Spectrum SPF 50 PLUS; Atomy Sunscreen Beige Broad Spectrum Spf50 Plus; Atomy Sunscreen Beige SPF50 PLUS; Atomy Sunscreen White Broad Spectrum SPF 50 PLUS; Atomy Sunscreen White Broad Spectrum Spf50 Plus; Atomy Sunscreen White SPF50 PLUS; Atopalm Bb Light SPF 20 Broad Spectrum Sunscreen; Atopalm Bb Medium SPF 20 Broad Spectrum Sunscreen; Austalian Gold Broad Spectrum SPF 50 Sunscreen; Australian Gold BROAD SPECTRUM SPF 50; Australian Gold BROAD SPECTRUM SPF30; Australian Gold Baby SPF 50 Sunscreen; Australian Gold Botanical Mineral Sunscreen Broad Spectrum SPF 30; Australian Gold Botanical Mineral Sunscreen Broad Spectrum SPF 50; Australian Gold Botanical Sunscreen SPF 50 Kids Broad Spectrum; Australian Gold Botanical Sunscreen Tinted Face 50 for Fair to Light skin tones; Australian Gold Botanical Sunscreen Tinted Face 50 for Medium to Tan skin tones; Australian Gold Botanical Sunscreen Tinted Face 50 for Rich to Deep skin tones; Australian Gold Botanical Tinted Face Mineral Sunscreen Broad Spectrum SPF 50; Australian Gold Botanicals Sunscreen 70 Minerals; Australian Gold Broad Spectrum SPF 50 Sunscreen; Australian Gold Hello Kitty BROAD SPECTRUM SPF 45; Australian Gold Hello Kitty Mineral Faces Sunscreen; Australian Gold Kids SPF 50 Sunscreen; Avalon Organics COQ10 Repair Wrinkle Defense Broad Spectrum SPF15; Avalon Organics Lavender Luminosity Moisture Plus SPF15; Avalon Organics Vitamin C Renewal Moisture Plus SPF15; Aveda Botanical Kinetics Daily Light Guard; Aveda Daily Light Guard SPF 15; Aveda Daily Light Guard SPF 15 - Cream; Aveda Lip Tint SPF 15; Aveda Moisture Plus Tint SPF 15; Aveda Tourmaline Charged Protecting Lotion SPF 15/oil Free; Aveeno Active Naturals Natural Protection Broad Spectrum SPF30; Aveeno Active Naturals Natural Protection MineralBlock SPF 30; Aveeno Active Naturals Ultra-calming Daily Moisturizer SPF 30; Aveeno Baby Natural Protection Face Sunscreen Broad Spectrum SPF50; Aveeno Baby Natural Protection MineralBlock SPF 50plus Face; Aveeno Baby Natural Protection MineralBlock Sunblock SPF 30; Aveeno Baby Natural Protection Sunscreen Broad Spectrum SPF 50; Aveeno Baby Sunblock Lotion SPF 45; Aveeno Baby continuous Protection sensitive skin Face Sunscreen Broad Spectrum SPF50; Aveeno Baby continuous Protection sensitive skin sunscreen Face Broad Spectrum SPF50; Aveeno Natural Protection Sunscreen Broad Spectrum SPF 50; Aveeno Positively Mineral Sensitive Skin Face Milk Sunscreen Broad Spectrum SPF 40 Plus; Aveeno Positively Radiant CC Eye Broad Spectrum SPF25 - Fair to Light; Aveeno Positively Radiant CC Eye Broad Spectrum SPF25 - Medium; Aveeno Protect Plus Soothe Face Mineral Sunscreen SPF 30; Aveeno Protect Plus Soothe Mineral Sunscreen Broad Spectrum SPF 30; Aveeno Ultra-Calming Daily Moisturizer SPF 30; Aveeno Ultra-Calming Daily Moisturizer Sunscreen Broad Spectrum SPF 30; Aveeno ultra-calming daily moisturizer Broad Spectrum SPF 30; Averr Aglow Pure Protection Invisible Mineral Sunscreen Broad Spectrum SPF 30; Avobenzone, Octinoxate, Titanium Dioxide; Avon Anew Line Eliminator Neo-retinol Line Plumper SPF 15; Avon Anew Perfect Eye Care Cream SPF 15; Avon Anew Perfecting Eye Cream SPF 15; Avon Auto Focus Light Adjusting Foundation SPF 15; Avon Beyond Color Illuminating Radiance SPF 12; Avon Beyond Color Line Diminishing Concealer SPF 15; Avon Beyond Color Perfecting Foundation SPF 12; Avon Beyond Color Vertical Lift Foundation SPF 8; Avon Clearskin Clarifying Cover SPF 15; Avon Extralasting; Avon Face-SPF 15 Foundation - Lot; Avon Hydra Finish Stick Foundation SPF 8; Avon Incredible Finish Foundation SPF 8; Avon Nova Perfecting Eye Cream Spf15; Avon Perfect Wear All-day Comfort Lipstick SPF 12; Avon Perfect Wear Concealer SPF 6; Avon Perfect Wear Foundation, SPF 6; Avon Personal Match Cream-TO-powder Foundation SPF 10; Avon Personal Match Souffle Foundation Dewy Spf10; Avon Sheer Nourishment Tinted Moisturizer SPF 15; Avon Sun Protection Natural Mineral Sunscreen for Body SPF 40; Avon Triple Finish Creme-TO-powder Foundation SPF 15; Avon True Color Flawless Cream To Powder Foundation Broad Spectrum SPF 15 Sunscreen; Avon True Color Flawless Cream to Powder Foundation; Avon Unlimited Moisture Lipcolor SPF 15; Awaken Skin Perfector BB Broad Spectrum SPF 15 Sunscreen Light Medium; Awaken Skin Perfector BB Broad Spectrum SPF 15 Sunscreen Medium Dark; B-AGELESS Tinted Mineral Broad Spectrum SPF30 Sunscreen; BANACOS Cica Airy-fit Dilla Suncream; BANILA CO Prime Primer Fitting BB Light Beige; BANILA CO Prime Primer Fitting BB Natural Beige; BAREMINERALS SPF 20 CORRECTING CONCEALER Dark 2; BAREMINERALS SPF 20 CORRECTING CONCEALER Deep 2; BB Broad Spectrum SPF 15 Light; BB Broad Spectrum SPF 15 Light to Medium; BB Broad Spectrum SPF 15 Medium; BB Care Ultra Light Sunscreen Broad Spectrum SPF 50 Plus; BB Cream; BB Cream Medium; BB Cream Skin perfector beauty balm SPF 18; BB SKIN PERFECTING BROAD SPECTRUM SPF 25 Titanium Dioxide - Sunscreen - Shade Dark 03; BB SKIN PERFECTING BROAD SPECTRUM SPF 25 Titanium Dioxide - Sunscreen - Shade Light 01; BB SKIN PERFECTING BROAD SPECTRUM SPF 25 Titanium Dioxide - Sunscreen - Shade Medium 02; BB Shade 10 Luminous SPF15; BB Shade 20 Aglow SPF15; BB Shade 30 Radiance SPF15; BB Tinted Treatment 12-Hour Primer Broad Spectrum SPF 30 Sunscreen deep; BB Tinted Treatment 12-Hour Primer Broad Spectrum SPF 30 Sunscreen fair; BB Tinted Treatment 12-Hour Primer Broad Spectrum SPF 30 Sunscreen light; BB Tinted Treatment 12-Hour Primer Broad Spectrum SPF 30 Sunscreen medium; BB Tinted Treatment 12-Hour Primer Broad Spectrum SPF 30 Sunscreen rich; BB Tinted Treatment 12-Hour Primer Broad Spectrum SPF 30 Sunscreen tan; BB Tinted Treatment 12-hour Primer Broad Spectrum SPF 30 Sunscreen Fair; BB Tinted Treatment 12-hour Primer Broad Spectrum SPF 30 Sunscreen Light; BB Tinted Treatment 12-hour Primer Broad Spectrum SPF 30 Sunscreen Medium; BB Tinted Treatment 12-hour Primer Broad Spectrum SPF 30 Sunscreen Medium-Tan; BB Tinted Treatment 12-hour Primer Broad Spectrum SPF 30 Sunscreen Tan; BB Tinted Treatment 12-hour Primer Broad Spectrum SPF 30 Sunscreen Tan Deep; BB fit Perfect 24 BB 01; BB fit Perfect 24 BB 02; BB fit Sheer BB; BB tinted treatment primer Broad Spectrum SPF 30 Sunscreen deep; BB tinted treatment primer Broad Spectrum SPF 30 Sunscreen deep-sand; BB tinted treatment primer Broad Spectrum SPF 30 Sunscreen espresso; BB tinted treatment primer Broad Spectrum SPF 30 Sunscreen fair; BB tinted treatment primer Broad Spectrum SPF 30 Sunscreen fair-light; BB tinted treatment primer Broad Spectrum SPF 30 Sunscreen light; BB tinted treatment primer Broad Spectrum SPF 30 Sunscreen light-medium; BB tinted treatment primer Broad Spectrum SPF 30 Sunscreen mahogany; BB tinted treatment primer Broad Spectrum SPF 30 Sunscreen mahogany honey; BB tinted treatment primer Broad Spectrum SPF 30 Sunscreen medium; BB tinted treatment primer Broad Spectrum SPF 30 Sunscreen medium-tan; BB tinted treatment primer Broad Spectrum SPF 30 Sunscreen rich; BB tinted treatment primer Broad Spectrum SPF 30 Sunscreen rich honey; BB tinted treatment primer Broad Spectrum SPF 30 Sunscreen tan; BB tinted treatment primer Broad Spectrum SPF 30 Sunscreen tan deep; BELLA SCHNEIDER BEAUTY Glow And Go Tinted Moisturizing Sunscreen Broad Spectrum SPF 30; BELLEZA IDEAL BLANCO CUSHION No.21; BELLEZA IDEAL Blanco Cover Cushion; BENEFIT Air Patrol Broad Spectrum SPF20; BENEFIT HELLO FLAWLESS OXYGEN WOW Broad Spectrum SPF 25 BRIGHTENING MAKEUP - BELIEVE IN ME; BENEFIT HELLO FLAWLESS OXYGEN WOW Broad Spectrum SPF 25 BRIGHTENING MAKEUP - CHEERS TO ME; BENEFIT HELLO FLAWLESS OXYGEN WOW Broad Spectrum SPF 25 BRIGHTENING MAKEUP - GOTTA KNOW ME; BENEFIT HELLO FLAWLESS OXYGEN WOW Broad Spectrum SPF 25 BRIGHTENING MAKEUP - IM PLUSH AND PRECIOUS; BENEFIT HELLO FLAWLESS OXYGEN WOW Broad Spectrum SPF 25 BRIGHTENING MAKEUP - IM PURE 4 SURE; BENEFIT HELLO FLAWLESS OXYGEN WOW Broad Spectrum SPF 25 BRIGHTENING MAKEUP - IM SO MONEY; BENEFIT HELLO FLAWLESS OXYGEN WOW Broad Spectrum SPF 25 BRIGHTENING MAKEUP - Im All The Rage; BENEFIT HELLO FLAWLESS OXYGEN WOW Broad Spectrum SPF 25 BRIGHTENING MAKEUP - Im Hopelessly Hot; BENEFIT HELLO FLAWLESS OXYGEN WOW Broad Spectrum SPF 25 BRIGHTENING MAKEUP - Im So Glamber; BENEFIT HELLO FLAWLESS OXYGEN WOW Broad Spectrum SPF 25 BRIGHTENING MAKEUP - WARM ME UP; BIOJUVE Microbiome-Safe Sheer Finish SPF 50 Sunscreen; BIOSOLIS Extreme Fluid SPF 50; BIOSOLIS Extreme Fluid UVA Sunscreen Broad Spectrum Face and Neck SPF50; BIOSOLIS Face Anti Aging SPF30; BIOSOLIS Face Sunscreen Broadspectrum SPF50; BIOSOLIS Face UVA Sunscreen Broad Spectrum SPF30; BIOSOLIS Melt in Sun SPF30; BIOSOLIS Sublimating Sun SPF20; BIOSOLIS Sun Milk SPF 50 Kids; BIOSOLIS Sun Milk UVA Sunscreen Face and Body Broad Spectrum SPF15; BIOSOLIS Sun Milk UVA Sunscreen Face and Body Broad Spectrum SPF30; BIOSOLIS Sun Milk UVA Sunscreen Face and Body Broad Spectrum SPF50 KIDS; BIOSOLIS Sun SPF30; BIOSOLIS Sun SPF50; BIOSOLIS Sunscreen Broadspectrum SPF50 KIDS; BIOSOLIS sunscreen broadspectrum SPF50; BLANC DIVA GLEAM COVERAGE CUSHION Natural Beige; BLANC DIVA GLEAM COVERAGE CUSHION Pink; BLANC DIVA GLEAM COVERAGE CUSHION White; BLANC DIVA GLEAM COVERAGE CUSHION Yellow; BOTANIC HEAL BOH DERMA WATER CERAMIDE AMPOULE CUSHION 01 NATURAL IVORY 15g; BOTANIC HEAL boH Derma Defense Wave Cushion 01 Natural Ivory; BOTANIC HEAL boH Derma Defense Wave Cushion 02 Natural Beige; BOTANIC HEAL boH Derma Water Ceramide Ampoule Cushion 01 Natural Ivory; BOTANIC HEAL boH Derma Water Ceramide Ampoule Cushion 02 Natural Beige; BOTANIC HEAL boH Dual Primer Sun No 1; BOTANIC HEAL boH IDEAL FOR MEN ALL DEFENSE MULTI CUSHION; BOTANIC HEAL boH Smart Tone Up Sun; BR Waterfull BB BLEMISH BALM BRIGHT; BR Waterfull BB BLEMISH BALM NATURAL; BRING GREEN Tea Tree CICA Tone Up Sun Cushion; BRING GREEN Tea Tree Tone Up Sun Cushion; BSKOS DOUBLE LASTING LI QUID FOUNDATION Buff 25; BSKOS DOUBLE LASTING LI QUID FOUNDATION Natural Beige 27; Babience KIDS Sunscreen pinkfong BABY SHARK SPF 50; Babo Botanicals Daily Sheer Mineral Sunscreen for Face SPF 40; Babo Botanicals SPF 30 Daily Sheer Tinted Sunscreen - Natural Glow; Baby Blanket BROAD SPECTRUM SPF 50; Baby Block for Children SPF 25; Baby Block for Children SPF 25 Lot 8.1%; Baby Block for Children SPF 25 Lot 9.72%; Baby Bum Mineral SPF 50; Baby Daily Face and Body; Baby Mineral Sunscreen Lotion; Baby Mineral Sunscreen Roll-ON SPF-30; Baby Nourishing Mineral; Baby Pure Gentle SunStick SPF 60 CVS; Baby Pure and Gentle SPF 60 Sunscreen; Baby SPF 60 Sunscreen; Baby Sun Protection Lotion; Baby Sunscreen SPF 50; Baby Tear Free Sans Larmes Sunscreen Écran Solaire Pour Bébés SPF Fps 50; Baby Tear Free/sans Larmes Sunscreen Lotion/lotion Écran Solaire Pour Bébés SPF Fps 60; Baby blanket BROAD SPECTRUM SPF 50; BabyGanics Sunscreen 30SPF; Babys First Kiss SPF 50 Broad Spectrum; Badger Aloe Vera Sunscreen Broad Spectrum SPF 27; Bain De Soleil 6-hour Waterp.sport Lot.SPF 8; Bain De Soleil 6-hour Waterp.sport Lot.spf15; Bain De Soleil 6-hour Waterproof Lot. SPF 15; Bain De Soleil 6-hour Waterproof Lotion Spf4; Bain De Soleil 6-hour Waterproof Lotion Spf8; Bain De Soleil All Day Lot. for Babies Spf30; Bain De Soleil All Day Lot. for Kids Spf30; Bain De Soleil All Day Lotion SPF 30; Bain De Soleil Fps 4; Bain De Soleil Longue Duree Pur Bebes Spf30; Bain De Soleil Lot Longue Duree Fps 15; Bain De Soleil Lot.longue Dur.pour Enf.fps30; Bain De Soleil Lotion Longue Duree Fps 30; Bain De Soleil Lotion Longue Duree Fps 8; Bain De Soleil Lotion Sport SPF 15; Bain De Soleil Lotion Sport SPF 8; Bain De Soleil Protection Creme SPF 25; Bain De Soleil Protection Kids Lotion SPF 25; Bain De Soleil Protection Lotion SPF 15; Bain De Soleil Sos SPF 15; Bain De Soleil Sos SPF 30; Balanced Satin Finish Foundation SPF 15; Bambini Soul; Bambo Nature Sunny Day; Banana Boat; Banana Boat Active Kids Sunblock Lot SPF 30; Banana Boat Active Kids Sunblock Lot SPF 50; Banana Boat Active Kids Sunblock Lot Spf30; Banana Boat Aquashield H20 Sport Sunblock Lotion SPF 30; Banana Boat Aquashield H2o Kids Sunblock SPF 30; Banana Boat Baby Block Sunblock Lotion SPF 50; Banana Boat Baby SPF 50; Banana Boat Baby Sunblock Lotion SPF 29; Banana Boat Baby Sunblock Lotion SPF 50; Banana Boat Cool Colorz Vanishing Sunblock Spray; Banana Boat Cool Colouring Vanishing Sunblock Spf30 Lotion; Banana Boat Cool Colourz Groovy Grape Foaming Sunblock SPF 30; Banana Boat Faces Plus SPF 23; Banana Boat Faces Plus SPF 31; Banana Boat KiDS mineral foam Sunscreen Broad Spectrum SPF 50 Plus Amazing Apple; Banana Boat KiDS mineral foam Sunscreen Broad Spectrum SPF 50 Plus Berry Blast; Banana Boat KiDS mineral foam Sunscreen Broad Spectrum SPF 50 Plus Citrus Squeeze; Banana Boat KiDS mineral foam Sunscreen Broad Spectrum SPF 50 Plus Tropical Twist; Banana Boat Kids Mineral 100% Mineral Based Sunscreen UVA/UVB Broad Spectrum SPF 50; Banana Boat Kids Mineral Protection SPF50; Banana Boat Kids Sunblock SPF 30; Banana Boat Kids Sunblock Spray Lotion SPF 48; Banana Boat Mineral Sensitive Face SPF50; Banana Boat Mineral Sensitive SPF 50; Banana Boat Natural Reflect Sunscreen BABY SPF 50; Banana Boat Natural Reflect Sunscreen KIDS SPF 50; Banana Boat Natural Reflect Sunscreen SPF 50 Plus; Banana Boat Oil Free SPF 30; Banana Boat Quik Blok Kids Spray SPF 25; Banana Boat Quik Blok Oil Free Spray SPF 15; Banana Boat Quik Blok Spray SPF 25; Banana Boat Sensitive Skin Sunblock Spf30; Banana Boat Sport Mineral 100% Mineral Based Sunscreen UVA/UVB Broad Spectrum SPF 50; Banana Boat Sport Mineral SPF 50; Banana Boat Sport Sunblock Lotion SPF 30; Banana Boat Sport Sunblock Lotion SPF 50; Banana Boat Sport Sunblock Lotion Spf30; Banana Boat Sport Sunblock SPF 30; Banana Boat Sunblock Lotion SPF 15; Banana Boat Ultra 30 Super Sunblock; Banana Boat Ultra Plus Sunblock SPF 50; Banana Boat Ultra Plus Sunblock Spray Lotion SPF 48; Banana Boat Ultra Sunblock Lot Spf30; Banana Boat Ultra Sunblock SPF 30; Banana Boat kids mineral Vanishing Blue Foam SPF 50 Berry Blast; Banana Boat kids mineral Vanishing Green Foam SPF 50 Amazing Apple; Banana Boat simply protect KiDS Mineral Based Sunscreen Broad Spectrum SPF 50; Banana Bt Paba Free Uva and Uvb Spf25 Sunbl.; Bare Expert Finish Makeup Broad Spectrum SPF 25 Merle Norman; Bare Perfecting Makeup Merle Norman; Bare Radiance Protective Lip Shine - Stk; Bare Republic Big Adventure Stick SPF 70; Bare Republic Mineral Matte Tinted Face SPF 30; Bare Republic Mineral Matte Untinted Face SPF 30; Bare Republic Mineral Shimmer SPF 30 Diamond Dust; Bare Republic Mineral Shimmer SPF 30 Golden Daze; Bare Republic SPF 50 Mineral Sunscreen Vanilla Coco; BareMinerals Bronzing Mineral Veil; BareMinerals Dark Matte Dark Matte; BareMinerals Faux Tan Faux Tan; BareMinerals Medium Deep matte Medium Deep Matte; BareMinerals Mineral Veil; BareMinerals Multi-Tasking SPF 20 Concealer Dark Bisque; BareMinerals Natural Sunscreen Medium; BareMinerals SPF 20 Correcting Concealer; BareMinerals Tinted Mineral Veil; Barox Extraordinary Mild Sunblock; Base De Pré-maquillage Correctrice/corrective Make-UP Base; Basic Teint - Eml; Bature Uv Protect Sunscreen; Baume Levres Anti-dessechement Transparent SPF 30; Bb Concealer; Bb Concealer SPF-15; Bb Cream Broad Spectrum Spf30; Bb Cream SPF 15 Broad Spectrum 5-IN-1 Miracle Anti-aging Skin Perfector; Bb Cream SPF 15 Broad Spectrum 5-IN-1 Miracle Skin Perfector; Bb Cream SPF 20 Broad Spectrum 5-IN-1 Miracle Skin Perfector; Bb SPF-15; Bb10 Instant Skin Perfector Broad Spectrum SPF 35; Bbcream; Be Beautiful Luminous CC Cream; Be Beautiful Makeup Base; Be Beautiful Natural BB Cream; Be Beautiful Pure Make Up Base Purple; Be The Skin Natural Base Sun; Beaute de Cell Perfect Sun-Shield SPF 50 PA; Beauticontrol Color Freeze Liquid Makeup; Beauty Balm; Beauty Balm/tinted Moisturizer Broad Spectrum Sunscreen SPF 30 Bb Crm Fair; Beauty Balm/tinted Moisturizer Broad Spectrum Sunscreen SPF 30 Bb Crm Med; Beauty Balm/tinted Moisturizer Broad Spectrum Sunscreen SPF 30 Bb Crm Med/deep; Bee Pollen-jojoba High Moisture Cream; Beevenom Bb Spf50plus Pa Plus Plus Plus; Beevenom Sun Spf50plus Pa Plus Plus Plus; Beklyn Absolute Purifying Hand Gel; Beklyn Absolute Purifying Hand Gel Refreshing Aloe 180ml; Beklyn Absolute Purifying Hand Gel Refreshing Aloe 60ml; Beklyn Absolute Purifying Hand Sanitizing Wipes; Beklyn Absolute Purifying-Spray; Belli Anti-Chloasma Facial Sunscreen Tinted Protection; Belli Pure Radiance Facial Sunscreen Tinted Protection SPF 25; Belo Intensive Brightening; Belo Sun Expert Tinted Sunscreen; Belucie Luxury Essential Twin Pact NO21 SPF25 PA PLUS PLUS; Belucie Luxury Essential Twin Pact NO23 SPF25 PA PLUS PLUS; Belucie Luxury Essential foundation BB ANTI WRINKLE SPF20 PA PLUS PLUS; Belucie Luxury Shinning Foundation BC; Belucie Luxury UV Sun; Benefit Hello Happy Air Foundation Shade 1; Benefit Hello Happy Air Foundation Shade 10; Benefit Hello Happy Air Foundation Shade 11; Benefit Hello Happy Air Foundation Shade 12; Benefit Hello Happy Air Foundation Shade 2; Benefit Hello Happy Air Foundation Shade 2.5; Benefit Hello Happy Air Foundation Shade 3; Benefit Hello Happy Air Foundation Shade 4; Benefit Hello Happy Air Foundation Shade 5; Benefit Hello Happy Air Foundation Shade 6; Benefit Hello Happy Air Foundation Shade 7; Benefit Hello Happy Air Foundation Shade 8; Benefit Hello Happy Air Foundation Shade 9; Benefit Hello Happy Flawless Brightening Foundation SPF15 Shade 1; Benefit Hello Happy Flawless Brightening Foundation SPF15 Shade 10; Benefit Hello Happy Flawless Brightening Foundation SPF15 Shade 11; Benefit Hello Happy Flawless Brightening Foundation SPF15 Shade 12; Benefit Hello Happy Flawless Brightening Foundation SPF15 Shade 2; Benefit Hello Happy Flawless Brightening Foundation SPF15 Shade 3; Benefit Hello Happy Flawless Brightening Foundation SPF15 Shade 4; Benefit Hello Happy Flawless Brightening Foundation SPF15 Shade 5; Benefit Hello Happy Flawless Brightening Foundation SPF15 Shade 6; Benefit Hello Happy Flawless Brightening Foundation SPF15 Shade 7; Benefit Hello Happy Flawless Brightening Foundation SPF15 Shade 8; Benefit Hello Happy Flawless Brightening Foundation SPF15 Shade 9; Benefit Hello Happy Soft Blur Foundation SPF 15 Shade 1; Benefit Hello Happy Soft Blur Foundation SPF 15 Shade 10; Benefit Hello Happy Soft Blur Foundation SPF 15 Shade 11; Benefit Hello Happy Soft Blur Foundation SPF 15 Shade 12; Benefit Hello Happy Soft Blur Foundation SPF 15 Shade 2; Benefit Hello Happy Soft Blur Foundation SPF 15 Shade 3; Benefit Hello Happy Soft Blur Foundation SPF 15 Shade 4; Benefit Hello Happy Soft Blur Foundation SPF 15 Shade 5; Benefit Hello Happy Soft Blur Foundation SPF 15 Shade 6; Benefit Hello Happy Soft Blur Foundation SPF 15 Shade 7; Benefit Hello Happy Soft Blur Foundation SPF 15 Shade 8; Benefit Hello Happy Soft Blur Foundation SPF 15 Shade 9; Berry Baby Lip Balm Peach Berry Spf12; Berry Baby Lip Balm Violet Berry Spf12; Best Blend Forever Makeup; Best Face Forward Foundation Broad Spectrum SPF 25; Betula Alba Juice Bb SPF 30 Pa Plus Plus for Men; Beyond BB Perfecting Foundation Broad Spectrum SPF 15 Sunscreen Deep; Beyond BB Perfecting Foundation Broad Spectrum SPF 15 Sunscreen Fair; Beyond BB Perfecting Foundation Broad Spectrum SPF 15 Sunscreen Light; Beyond BB Perfecting Foundation Broad Spectrum SPF 15 Sunscreen Medium; Beyond BB Perfecting Foundation Broad Spectrum SPF 15 Sunscreen Tan; Beyond Young Bling Bling Spf35; Bien Vita Multi UV Primer Plus; Bienfait Multi-vital Teinte; Big Easy; Biggreen Everyday Sun; Bio Beauty Bio Defense Tinted Foundation SPF 18; Bio Degradable 15 SPF Sunblock; Bio Degradable 50 SPF Sunblock; Bio-alpine Jeunesse Refining Day Cream SPF 15; Bio-alpine Jeunesse Refining Day Fluid SPF 15; Bio-alpine Lift Anti-ageing Day Cream SPF 15; Bio-alpine Lift Anti-ageing Day Fluid SPF 15; Bio-protection Jour SPF 20; Bioelements Sun Diffusing Protector SPF 15; Biofirm Lift Makeup; Biokids SPF 35; Biomi Action De Gala Mineral Sunscreen Spf30; Biophora Day Protection Spf30 Uva/uvb Sunscreen; Biopur Fluide Mat Hydratant SPF 15; Biosun Professional Sun Protection - Children SPF 30 - Crm; Biosun Professional Sun Protection - Faces SPF 25 - Crm; Biosun Professional Sun Protection - SPF 30 - Crm; Biosun Professional Sun Protection Oil Free Spray SPF 25; Biotherm - Lait Ecran Total SPF 25; Biotherm- Stick Ecran Total Levres SPF 20; Bisque Always Color Stay-On Makeup SPF 10; Bisque Always Color Stay-on Broad Spectrum SPF 15 Jafra; Bisque Foundation SPF 20; Black Stick; Blackmonster Day and Night Moisturizer; Blanc Diva Multi Protection Fitting Sunbase; Blanc Purete-contour Yeux Blanchissant Protecteur; Blanc Purete-emulsion Blanchissante Protectrice; Blemish Lab Bye Pore Bb Spf30 Pa Plus Plus; Bling Day Everyday Sunscreen Broad Spectrum SPF 50; Bliss Block Star - Invisible Daily Sunscreen SPF-30; Bliss Mad About Smooth Smoothing Mineral Primer Broad Spectrum SPF 15 Sunscreen; Blue Lizard Active SPF 50 Sunscreen; Blue Lizard Australian Sunscreen 50 SPF Active; Blue Lizard Australian Sunscreen 50 SPF Kids; Blue Lizard Australian Sunscreen 50 SPF Sport; Blue Lizard Baby; Blue Lizard Baby SPF 50 Sunscreen; Blue Lizard Kids SPF 50 Sunscreen; Blue Lizard Sensitive Face Sunscreen; Blue Lizard Sensitive SPF 50 Sunscreen; Blue Lizard Sensitive Sunscreen; Blue Lizard Sheer Face SPF 50 Sunscreen; Blue Lizard Sheer SPF 50 Sunscreen; Blue Lizard Sport SPF 50 Sunscreen; Blue Monarch SPF-30; Blue Stick; Bluevado Sunfix; Blurred Lines CC Creme Broad Spectrum SPF 20 Shade 01 Light; Blurred Lines CC Creme Broad Spectrum SPF 20 Shade 02 Medium; Blurred Lines CC Creme Broad Spectrum SPF 20 Shade 03 Medium/Dark; Bobbi Brown Bb Broad Spectrum SPF 35; Bobbi Brown Beauty Balm SPF 35; Bobbi Brown CC BROAD SPECTRUM SPF 25; Bobbi Brown Color Correct Cream SPF 35; Bobbi Brown Essentials SPF 15 Face Lotion; Bobbi Brown Illuminating Finish Powder Compact Foundation SPF 12; Bobbi Brown Intensive Serum Foundation Broad Spectrum SPF 30; Bobbi Brown Intensive Serum Foundation Broad Spectrum SPF 40; Bobbi Brown Intensive Skin Serum Foundation Broad Spectrum SPF 35; Bobbi Brown Intensive Skin Serum Foundation SPF 40 Lychee, Bamboo Grass & Cordyceps Extracts; Bobbi Brown Long-wear Even Finish Foundation SPF 15; Bobbi Brown Natural Finish Long Lasting Foundation SPF 15; Bobbi Brown Nude Finish Tinted Moisturizer SPF 15; Bobbi Brown Primer Plus Radiance SPF 35; Bobbi Brown Protective Face Lotion SPF 15; Bobbi Brown Protective Face SPF 15; Bobbi Brown SPF 15 Oil Free Tinted Moisturizer; Bobbi Brown Skin Foundation Broad Spectrum SPF 15; Bobbi Brown Skin Foundation Cushion Compact SPF 35 Protect & Recharge; Bobbi Brown Skin Foundation Mineral Makeup SPF 15; Bobbi Brown Skin Foundation SPF 15; Bobbi Brown Skin Weightless Long-wear Foundation Spf15 Full Cover Oil-free Shine Control; Bobbi Brown Tinted Moisturizer Broad Spectrum SPF 15; Bobbie Brown Corrective Spot Treatment Broad Spectrum SPF 25; Body Conditioner; Body Melt; Boom Sun SPF 30; Borba PMS Skin Rescue A.M. SPF 40 plus Treatment; Boscia All In One B.B. Eye Brightener Broad Spectrum SPF 20; Boscia B.B. LIGHT Broad Spectrum SPF 27 PA Self-Adjusting Shade; Boscia BB BRONZE Broad Spectrum SPF 27 PA Self-Adjusting Shade; Boscia BB Broad Spectrum SPF 27 PA Self Adjusting Shade; Boscia BB SPF 27 PA; Boscia Daily Defense Sunscreen Broad Spectrum SPF 50 PA; Boscia Skin Perfecting Bb Broad Spectrum SPF 30 LA Jolla; Boscia Skin Perfecting Bb Broad Spectrum SPF 30 Manhattan Beach; Boscia Skin Perfecting Bb Broad Spectrum SPF 30 Newport; Boscia Skin Perfecting Bb Broad Spectrum SPF 30 Venice; Botanic Heal Boh Derma Water Ceramide Ampoule Cushion 02 Natural Beige; Botanic Heal Boh Probioderm Repair Ampoule Cushion 01 Natural Ivory; Botanic Heal Boh Probioderm Repair Ampoule Cushion 02 Natural Beige; Botanic Twenty Daily Sunblock Spf50; Botanical Fresh Bb Set Spf30 Pa Plus Plus; Botanical Fresh Bb Spf30 Pa Plus Plus; Botanical Green Tea Pore Bb 01 Light Beige; Botanical Green Tea Pore Bb 02 Natural Beige; Botanical Moist Pact Spf30 Pa Plus Plus Plus 21; Botanical Moist Pact Spf30 Pa Plus Plus Plus 23; Botanical Pure Pact Spf25 Pa Plus Plus; Botanical Vanilla Foundation 21 Vanilla Nude; Botanical Vanilla Foundation 23 Vanilla Natural; Botanical Vanilla Makeup Base 01 Vanilla Green; Botanical Vanilla Makeup Base 02 Vanilla Pink; Botanical Vanilla Pact Spf30 Pa Plus Plus Plus 21 Vanilla Nude; Botanical Vanilla Pact Spf30 Pa Plus Plus Plus Vanilla Natural; Botanical Vanilla Spf25 Pa Plus 01; Botanical Vanilla Spf25 Pa Plus 02 Vanilla Pink; Boy de Chanel Le Teint Foundation Broad Spectrum SPF 25 Sunscreen No120 Deep Plus; Boy de Chanel Le Teint Foundation Broad Spectrum SPF 25 Sunscreen No20 Light; Boy de Chanel Le Teint Foundation Broad Spectrum SPF 25 Sunscreen No30 Medium Light; Boy de Chanel Le Teint Foundation Broad Spectrum SPF 25 Sunscreen No40 Medium; Boy de Chanel Le Teint Foundation Broad Spectrum SPF 25 Sunscreen No50 Medium Plus; Boy de Chanel Le Teint Foundation Broad Spectrum SPF 25 Sunscreen No60 Light Deep; Boy de Chanel Le Teint Foundation Broad Spectrum SPF 25 Sunscreen No70 Medium Deep; Boy de Chanel Le Teint Foundation Broad Spectrum SPF 25 Sunscreen No90 Deep; Breathable Camouflage Light ALMOND; Breathable Camouflage Light AMBER; Breathable Camouflage Light BEIGE; Breathable Camouflage Light CARAMEL; Breathable Camouflage Light COCOA; Breathable Camouflage Light CREME; Breathable Camouflage Light HONEY; Breathable Camouflage Light IVORY; Breathable Camouflage Light PEARL; Breathable Camouflage Light TAUPE; Breathable Camouflage Light Tawny; Breathable CamouflageLight SAND; Breathable Concealer Light; Breathable Concealer Medium; Breathable Concealer Tan; Breathable Tint 1; Breathable Tint 2; Breathable Tint 3; Breathable Tint 4; Bright Future Fluide Teinté Solaire; Bright Guard Sport SPF; Bright future skin tint SPF 25 11 ivoire pur pure; Bright future skin tint SPF 25 12 ecru Ecru; Bright future skin tint SPF 25 20 creme; Bright future skin tint SPF 25 25 beige Beige; Bright future skin tint SPF 25 31 amande Almond; Bright future skin tint SPF 25 33 noix Walnut; Bright future skin tint SPF 25 35 bronze; Bright future skin tint SPF 25 44 Praline; Bright future skin tint SPF 25 46 noix de pecan Pecan; Bright future skin tint SPF 25 7 ivoire clair light; Brightening Perfector SPF 20 Sunscreen; Brightening Powder Compact Foundation SPF 20; Brightening Primer SPF 20; Brightening Spot Treatment Corrector SPF 25; Brighter By Nature SPF 30; Brighter By Nature SPF 30 Correcting Makeup Broad Spectrum; Brighter By Nature SPF 30 Skin Tone Correcting Makeup; Brite Prep Fx; BritePrep FX; Broad Spectrum SPF 30 Mineral Sunscreen; Broad Spectrum SPF 30 Tinted Mineral Defense Sunscreen; Broad Spectrum SPF 30 Tinted Physical Defense Sunscreen; Broad Spectrum SPF 30 Up The Anti; Broad Spectrum SPF 30 Water Resistant (80 Minutes); Broad Spectrum SPF 30 Water Resistant Mineral Sunscreen; Broad Spectrum SPF 50 Babies Mineral Sunscreen; Broad Spectrum SPF 50 Faces Mineral Sunscreen; Broad Spectrum SPF 50 Mineral Sunscreen; Broad Spectrum Sunscreen Colourless SPF 40; Broad Spectrum Sunscreen Golden SPF 20; Broad Spectrum Sunscreen Natural SPF 20; Broad Spectrum Sunscreen SPF 25; Broad Spectrum Sunscreen SPF 30; Broad Spectrum Water Resistant SPF 30 Mineral Sunscreen; Broad Spectrum Water Resistant SPF 50 Mineral Sunscreen; Broad Spectrum Water Resistant SPF 50 Mineral Sunscreen Babies; Broad Spectrum Water Resistant SPF 50 Mineral Sunscreen Faces; Broccoli Sun Spf42 Pa Plus Plus Plus; Bronz Repair Creme De Soin Visage Pour Soleil Intense; Bronz Repair Creme De Soin Visage Pour Soleil Normal Ou Fort; Bronz Repair Extreme; Bronze Booster BB Cream SPF 20; Bronze Booster Beauty Balm BB Bronzer SPF 20; Bronzing Duo SPF 15 Mineral Compact Tint 01 Light; Bronzing Duo SPF 15 Mineral Compact Tint 02 Medium; Bronzing Duo SPF 15 Mineral Compact Tint 03 Dark; Bronzing Mineral Beauty Balm SPF 15; Bronzing Perfector SPF 20 Sunscreen; Bronzing Primer SPF 20; Brucke A.C.C. Calming Cool Suncream; Brush and Go All Skin types; Brush and Go Oily Problematic Skin; Brush on Block Mineral Sunscreen Broad Spectrum SPF 30; Brush on Block Nude Tint Protective Lip Oil Broad Spectrum SPF 32; Bskos Air Cushion Beige 23; Bskos Air Cushion Light Beige 21; Bskos Double Lasting Li Quid Foundation Beige 23; Bskos Double Lasting Li Quid Foundation Bronceado 26; Bskos Double Lasting Li Quid Foundation Canela 32; Bskos Double Lasting Li Quid Foundation Caramel 31; Bskos Double Lasting Li Quid Foundation Gitano 28; Bskos Double Lasting Li Quid Foundation Light Beige 21; Bskos Double Lasting Li Quid Foundation Natural 20; Bskos Double Lasting Li Quid Foundation Sun Beige 29; Bueno Intensive Fitting Cushion Foundation SPF 50 Pa; Bull Frog Water Armor Super 40; BullFrog Super Block; BullFrog Water Armor Sport Super; Burberry Fresh Glow B.B. Luminous Skin Perfecting Beauty Balm Sunscreen Broad Spectrum SPF 20 Dark 03; Burberry Fresh Glow B.B. Luminous Skin Perfecting Beauty Balm Sunscreen Broad Spectrum SPF 20 Fair 01; Burberry Fresh Glow B.B. Luminous Skin Perfecting Beauty Balm Sunscreen Broad Spectrum SPF 20 Medium 02; But First Water; Buttermilk Future Resist Foundation Broad Spectrum SPF 20 Delilah; Buttermilk Time Frame Future Resist Foundation Broad Spectrum SPF 20 Delilah Cosmetics; Buxom Show Some Skin Weightless Foundation Broad Spectrum SPF 30 Almond The Nude; Buxom Show Some Skin Weightless Foundation Broad Spectrum SPF 30 Caramel Kisses; Buxom Show Some Skin Weightless Foundation Broad Spectrum SPF 30 Dim The Light; Buxom Show Some Skin Weightless Foundation Broad Spectrum SPF 30 Fair Game; Buxom Show Some Skin Weightless Foundation Broad Spectrum SPF 30 In The Buff; Buxom Show Some Skin Weightless Foundation Broad Spectrum SPF 30 In The Dark; Buxom Show Some Skin Weightless Foundation Broad Spectrum SPF 30 Meet Me Latte; Buxom Show Some Skin Weightless Foundation Broad Spectrum SPF 30 Silky Negli-Beige; Buxom Show Some Skin Weightless Foundation Broad Spectrum SPF 30 Sweet As Honey; Buxom Show Some Skin Weightless Foundation Broad Spectrum SPF 30 Tan-Talize Me; Buxom Show Some Skin Weightless Foundation Broad Spectrum SPF 30 Tickle The Ivory; Buxom Show Some Skin Weightless Foundation Broad Spectrum SPF 30 Youre A Natural; By Flower Bb 01 Light Beige; By Flower Bb 02 Natural Beige; By Flower Lip Care Spf15 Mint; By Flower Lip Care Spf15 Red; By Nature Daily Face Sunscreen Broad Spectrum SPF 30; By Pharmicell Lab Prestige BB SPF30 PA PLUS PLUS; Bye Bye Foundation Full Coverage Moisturizer SPF 50 Deep; Bye Bye Foundation Full Coverage Moisturizer SPF 50 Fair; Bye Bye Foundation Full Coverage Moisturizer SPF 50 Fair Light; Bye Bye Foundation Full Coverage Moisturizer SPF 50 Light; Bye Bye Foundation Full Coverage Moisturizer SPF 50 Light Medium; Bye Bye Foundation Full Coverage Moisturizer SPF 50 Medium; Bye Bye Foundation Full Coverage Moisturizer SPF 50 Medium Tan; Bye Bye Foundation Full Coverage Moisturizer SPF 50 Neutral Medium; Bye Bye Foundation Full Coverage Moisturizer SPF 50 Neutral Tan; Bye Bye Foundation Full Coverage Moisturizer SPF 50 Rich; Bye Bye Foundation Full Coverage Moisturizer SPF 50 Rich Honey; Bye Bye Foundation Full Coverage Moisturizer SPF 50 Tan; C-NO Wrinkle; C-thru-U Beautifying Sheer Tint Voile Teinte Beaute SPF/fps15; C.T. Foundation Creme Finish SPF 15, Shade: 4; C.T. Foundation Creme Finish SPF 15, Shades: 1,2,3; C.T. Foundation Naturel SPF 8 / Beige Naturel; C.T. Foundation Naturel SPF 8 / Blush Naturel; C.T. Foundation Naturel SPF 8 / Café Naturel; C.T. Foundation Naturel SPF 8 / Creme Naturel; C.T. Foundation Naturel SPF 8 / Ivoire Naturel; C.T. Foundation Naturel SPF 8 / Pale Naturel; C.T. Foundation Naturel SPF 8 / Peche Naturel; C.T. Foundation Naturel SPF 8 / Soleil Naturel; C.T. Foundation Powder Finish SPF 10 - Cameo; C.T. Foundation Powder Finish SPF 10 - Ivory; C.T. Foundation Powder Finish SPF 10 - Natural Beige; C.T. Foundation Powder Finish SPF 10 - Rose Beige; C.T. Foundation Powder Finish SPF 10 - Sand; C.T. Foundation Powder Finish SPF 10 - Soleil Beige; C.T. Foundation Satin SPF 15, Shade: #4.2; C.T. Foundation Satin SPF 15, Shade: 1.0; C.T. Foundation Satin SPF 15, Shades: #3.0, #3.2, #3.4; C.T. Foundation Satin SPF 15, Shades: #3.5, #4.5; C.T. Foundation Satin SPF 15, Shades: #4.0, #5.5; CAPTURE DREAMSKIN FRESH and PERFECT CUSHION WITH SUNSCREEN BROAD SPECTRUM SPF 50 000; CAPTURE DREAMSKIN FRESH and PERFECT CUSHION WITH SUNSCREEN BROAD SPECTRUM SPF 50 010; CAPTURE DREAMSKIN FRESH and PERFECT CUSHION WITH SUNSCREEN BROAD SPECTRUM SPF 50 020; CAPTURE DREAMSKIN FRESH and PERFECT CUSHION WITH SUNSCREEN BROAD SPECTRUM SPF 50 030; CAPTURE TOTALE COMPACT RADIANCE RESTORING LINE SMOOTHING MAKEUP SPF 20 010 Ivory; CAPTURE TOTALE COMPACT RADIANCE RESTORING LINE SMOOTHING MAKEUP SPF 20 020 Light Beige; CAPTURE TOTALE COMPACT RADIANCE RESTORING LINE SMOOTHING MAKEUP SPF 20 021 Linen; CAPTURE TOTALE COMPACT RADIANCE RESTORING LINE SMOOTHING MAKEUP SPF 20 023 Peach; CARROT SUN SPF30 PA Plus Plus; CC CREME 02 Soin Perfecteur de peau Skin Perfecting; CC Cream Broad Spectrum SPF 30 Merle Norman; CC Cream Broad Spectrum Sunscreen SPF 35 Fair to Light; CC Cream Daily Correct Broad Spectrum SPF 40 Sunscreen Fair to Light Supergooop; CC Cream Deep220; CC Cream Deep230; CC Cream Deep240; CC Cream Deep250; CC Cream Fair30; CC Cream Light100; CC Cream Light80; CC Cream Light90; CC Cream Medium120; CC Cream Medium130; CC Cream Medium140; CC Cream Medium150; CC Cream SPF 30; CC Cream SPF 50; CC Cream Tan160; CC Cream Tan170; CC Cream Tan190; CC Cream Tan200; CC Cushion Compact SunScreen - Fair / light; CC Cushion Compact SunScreen - Medium / Deep; CC Cushion Compact SunScreen - light / medium; CC Daily Correct Broad Spectrum SPF 35 Sunscreen Light to Medium Supergoop; CC Daily Correct Broad Spectrum SPF 35 Sunscreen Medium to Dark Supergoop; CC Fair/Light; CC Light / MediumFair/Light; CC Luminessence SPF 35; CC Screen 100% Mineral CC Cream Broad Spectrum SPF 50 100C; CC Screen 100% Mineral CC Cream Broad Spectrum SPF 50 105N; CC Screen 100% Mineral CC Cream Broad Spectrum SPF 50 110C; CC Screen 100% Mineral CC Cream Broad Spectrum SPF 50 206W; CC Screen 100% Mineral CC Cream Broad Spectrum SPF 50 215N; CC Screen 100% Mineral CC Cream Broad Spectrum SPF 50 226W; CC Screen 100% Mineral CC Cream Broad Spectrum SPF 50 230C; CC Screen 100% Mineral CC Cream Broad Spectrum SPF 50 306W; CC Screen 100% Mineral CC Cream Broad Spectrum SPF 50 315N; CC Screen 100% Mineral CC Cream Broad Spectrum SPF 50 326W; CC Screen 100% Mineral CC Cream Broad Spectrum SPF 50 336W; CC Screen 100% Mineral CC Cream Broad Spectrum SPF 50 346W; CC Screen 100% Mineral CC Cream Broad Spectrum SPF 50 400C; CC Screen 100% Mineral CC Cream Broad Spectrum SPF 50 416W; CC Screen 100% Mineral CC Cream Broad Spectrum SPF 50 426W; CC Total Cover Cushion SPF 50 Apricot Beige; CC Total Cover Cushion SPF 50 Natural Beige; CCC Clean Corrective with Vitamin C Tinted Moisturizer Broad Spectrum SPF 30; CCC Cream Deep; CCC Cream Light; CCC Cream Medium; CCC Cream Medium Deep; CCC Cream Medium Light; CD - Dior Multi-perfection Tinted Moisturizer Bronze Radiance 3 - SPF 20; CD - Dior Multi-perfection Tinted Moisturizer Golden Radiance 2 - SPF 20; CD - Dior Multi-perfection Tinted Moisturizer Natural Radiance 1 - SPF 20; CD CAPTURE TOTALE Multi-Perfection UVB Base Sunscreen SPF 50; CD CAPTURE TOTALE Triple Correcting Serum Foundation Wrinkles-Dark Spots-Radiance with sunscreen Broad Spectrum SPF 25 010; CD CAPTURE TOTALE Triple Correcting Serum Foundation Wrinkles-Dark Spots-Radiance with sunscreen Broad Spectrum SPF 25 020; CD CAPTURE TOTALE Triple Correcting Serum Foundation Wrinkles-Dark Spots-Radiance with sunscreen Broad Spectrum SPF 25 021; CD CAPTURE TOTALE Triple Correcting Serum Foundation Wrinkles-Dark Spots-Radiance with sunscreen Broad Spectrum SPF 25 022; CD CAPTURE TOTALE Triple Correcting Serum Foundation Wrinkles-Dark Spots-Radiance with sunscreen Broad Spectrum SPF 25 023; CD CAPTURE TOTALE Triple Correcting Serum Foundation Wrinkles-Dark Spots-Radiance with sunscreen Broad Spectrum SPF 25 030; CD CAPTURE TOTALE Triple Correcting Serum Foundation Wrinkles-Dark Spots-Radiance with sunscreen Broad Spectrum SPF 25 031; CD CAPTURE TOTALE Triple Correcting Serum Foundation Wrinkles-Dark Spots-Radiance with sunscreen Broad Spectrum SPF 25 032; CD CAPTURE TOTALE Triple Correcting Serum Foundation Wrinkles-Dark Spots-Radiance with sunscreen Broad Spectrum SPF 25 040; CD CAPTURE TOTALE Triple Correcting Serum Foundation Wrinkles-Dark Spots-Radiance with sunscreen Broad Spectrum SPF 25 050; CD Capture Totale Multi-perfection Makeup Base Sunscreen Broad Spectrum SPF 25; CD DIOR PRESTIGE White Collection Satin Brightening Eye Cream Sunscreen SPF 15; CD DIORSKIN NUDE SKIN-GLOWING MAKEUP SUNSCREEN BROAD SPECTRUM SPF 15 010 Ivory; CD DIORSKIN NUDE SKIN-GLOWING MAKEUP SUNSCREEN BROAD SPECTRUM SPF 15 011 Cream; CD DIORSKIN NUDE SKIN-GLOWING MAKEUP SUNSCREEN BROAD SPECTRUM SPF 15 020 Light Beige; CD DIORSKIN NUDE SKIN-GLOWING MAKEUP SUNSCREEN BROAD SPECTRUM SPF 15 021 Linen; CD DIORSKIN NUDE SKIN-GLOWING MAKEUP SUNSCREEN BROAD SPECTRUM SPF 15 022 Cameo; CD DIORSKIN NUDE SKIN-GLOWING MAKEUP SUNSCREEN BROAD SPECTRUM SPF 15 023 Peach; CD DIORSKIN NUDE SKIN-GLOWING MAKEUP SUNSCREEN BROAD SPECTRUM SPF 15 030 Medium Beige; CD DIORSKIN NUDE SKIN-GLOWING MAKEUP SUNSCREEN BROAD SPECTRUM SPF 15 031 Sand; CD DIORSKIN NUDE SKIN-GLOWING MAKEUP SUNSCREEN BROAD SPECTRUM SPF 15 033 Apricot Beige; CD DIORSKIN NUDE SKIN-GLOWING MAKEUP SUNSCREEN BROAD SPECTRUM SPF 15 040 Honey Beige; CD DIORSKIN NUDE SKIN-GLOWING MAKEUP SUNSCREEN BROAD SPECTRUM SPF 15 041 Ochre; CD DIORSKIN NUDE SKIN-GLOWING MAKEUP SUNSCREEN BROAD SPECTRUM SPF 15 050 Dark Beige; CD DIORSKIN NUDE SKIN-GLOWING MAKEUP SUNSCREEN BROAD SPECTRUM SPF 15 060 Mocha; CD DIORSKIN NUDE SKIN-GLOWING MAKEUP SUNSCREEN BROAD SPECTRUM SPF 15 063 Amber; CD DIORSKIN NUDE SKIN-GLOWING MAKEUP SUNSCREEN BROAD SPECTRUM SPF 15 070 Dark Brown; CD DIORSKIN STAR Studio Makeup Spectacular Brightening with sunscreen Broad Spectrum SPF30 010; CD DIORSKIN STAR Studio Makeup Spectacular Brightening with sunscreen Broad Spectrum SPF30 020; CD DIORSKIN STAR Studio Makeup Spectacular Brightening with sunscreen Broad Spectrum SPF30 021; CD DIORSKIN STAR Studio Makeup Spectacular Brightening with sunscreen Broad Spectrum SPF30 022; CD DIORSKIN STAR Studio Makeup Spectacular Brightening with sunscreen Broad Spectrum SPF30 023; CD DIORSKIN STAR Studio Makeup Spectacular Brightening with sunscreen Broad Spectrum SPF30 030; CD DIORSKIN STAR Studio Makeup Spectacular Brightening with sunscreen Broad Spectrum SPF30 031; CD DIORSKIN STAR Studio Makeup Spectacular Brightening with sunscreen Broad Spectrum SPF30 032; CD DIORSKIN STAR Studio Makeup Spectacular Brightening with sunscreen Broad Spectrum SPF30 033; CD DIORSKIN STAR Studio Makeup Spectacular Brightening with sunscreen Broad Spectrum SPF30 040; CD DIORSKIN STAR Studio Makeup Spectacular Brightening with sunscreen Broad Spectrum SPF30 050; CD DIORSKIN STAR Studio Makeup Spectacular Brightening with sunscreen Broad Spectrum SPF30 060; CD DIORSKIN STAR Studio Makeup Spectacular Brightening with sunscreen Broad Spectrum SPF30 070; CD DIORSKIN STAR Studio Makeup Spectacular Brightening with sunscreen Broad Spectrum SPF30 080; CD DIORSNOW UV SHIELD Brightening Illuminating UV Protection With Sunscreen TRANSLUCENT BROAD SPECTRUM SPF 50; CD DIORSNOW White Reveal Fresh Transparency Liquid Foundation with Sunscreen Broad Spectrum SPF 30 010; CD DIORSNOW White Reveal Fresh Transparency Liquid Foundation with Sunscreen Broad Spectrum SPF 30 020; CD DIORSNOW White Reveal Fresh Transparency Liquid Foundation with Sunscreen Broad Spectrum SPF 30 021; CD Dior Prestige White Collection Satin Brightening UV Base Blemish Balm SPF 50; CD Dior Prestige White Collection Satin Brightening UV Base SPF 50; CD Dior Prestige White Collection Satin Brightening Uvb Base With Sunscreen SPF 50; CD DiorSkin Forever Compact Flawless Perfection Fusion Wear Makeup SPF 25 - 010; CD DiorSkin Forever Compact Flawless Perfection Fusion Wear Makeup SPF 25 - 011; CD DiorSkin Forever Compact Flawless Perfection Fusion Wear Makeup SPF 25 - 020; CD DiorSkin Forever Compact Flawless Perfection Fusion Wear Makeup SPF 25 - 021; CD DiorSkin Forever Compact Flawless Perfection Fusion Wear Makeup SPF 25 - 023; CD DiorSkin Forever Compact Flawless Perfection Fusion Wear Makeup SPF 25 - 030; CD DiorSkin Forever Compact Flawless Perfection Fusion Wear Makeup SPF 25 - 032; CD DiorSkin Forever Compact Flawless Perfection Fusion Wear Makeup SPF 25 - 040; CD DiorSkin Forever Compact Flawless Perfection Fusion Wear Makeup SPF 25 - 050; CD DiorSkin Forever Flawless Perfection Fusion Wear Makeup SPF 25 - 010; CD DiorSkin Forever Flawless Perfection Fusion Wear Makeup SPF 25 - 011; CD DiorSkin Forever Flawless Perfection Fusion Wear Makeup SPF 25 - 020; CD DiorSkin Forever Flawless Perfection Fusion Wear Makeup SPF 25 - 021; CD DiorSkin Forever Flawless Perfection Fusion Wear Makeup SPF 25 - 022; CD DiorSkin Forever Flawless Perfection Fusion Wear Makeup SPF 25 - 023; CD DiorSkin Forever Flawless Perfection Fusion Wear Makeup SPF 25 - 030; CD DiorSkin Forever Flawless Perfection Fusion Wear Makeup SPF 25 - 032; CD DiorSkin Forever Flawless Perfection Fusion Wear Makeup SPF 25 - 033; CD DiorSkin Forever Flawless Perfection Fusion Wear Makeup SPF 25 - 040; CD DiorSkin Forever Flawless Perfection Fusion Wear Makeup SPF 25 - 050; CD DiorSkin Radiant Base Skin-Refining Pro Lighting - 001; CD DiorSkin Radiant Base Skin-Refining Pro Lighting - 002; CD DiorSnow UV Protection BB Eye Sunscreen Creme 010; CD DiorSnow UV Protection BB Eye Sunscreen Creme 020; CD DiorSnow White Reveal UV Shield Foundation 010-Ivory; CD DiorSnow White Reveal UV Shield Foundation 012-Porcelain; CD DiorSnow White Reveal UV Shield Foundation 020-Light Beige; CD DiorSnow White Reveal UV Shield Foundation 021-Linen; CD DiorSnow White Reveal UV Shield Foundation 022-Cameo; CD DiorSnow White Reveal UV Shield Foundation 030-Medium Beige; CD Diorsnow Uv Shield Bb Creme Light Shade White Reveal Uv Protection SPF 50; CD HydraLife BB Creme Enhancing Sunscreen Moisturizer For Immediate Beauty Golden Peach Broad Spectrum SPF 30; CD HydraLife BB Creme Enhancing Sunscreen Moisturizer For Immediate Beauty Luminous Beige Broad Spectrum SPF 30; CD HydraLife BB Creme Enhancing Sunscreen Moisturizer For Immediate Beauty Sunny Amber Broad Spectrum SPF 30; CD HydraLife BB Eye Creme Enhancing Sunscreen Eye Illuminator Luminous Beige Broad Spectrum SPF 20; CD HydraLife BB Eye Creme Enhancing Sunscreen Eye Illuminator Luminous Peach Broad Spectrum SPF 20; CELLTRION LXTR WATER CUSHION No 21 PINK BEIGE; CELLTRION LXTR WATER CUSHION No 23 NATURAL BEIGE; CHANTECAILLE Just Skin Tinted Moisturizer Sunscreen Broad Spectrum SPF 15; CHANTECAILLE PROTECTION NATURELLE BRONZE Refill SPF 46; CHANTECAILLE PROTECTION NATURELLE LIGHT Refill SPF 46; CITY BLOCK SHEER Oil FREE DAILY FACE PROTECTOR BROAD SPECTRUM SPF 25; CLARINS - SKIN ILLUSION - BROAD SPECTRUM SPF 15 - TITANIUM DIOXIDE - SUNSCREEN - Natural Hydrating Foundation 100.5; CLARINS - SKIN ILLUSION - BROAD SPECTRUM SPF 15 - TITANIUM DIOXIDE - SUNSCREEN - Natural Hydrating Foundation 101; CLARINS - SKIN ILLUSION - BROAD SPECTRUM SPF 15 - TITANIUM DIOXIDE - SUNSCREEN - Natural Hydrating Foundation 102.5; CLARINS - SKIN ILLUSION - BROAD SPECTRUM SPF 15 - TITANIUM DIOXIDE - SUNSCREEN - Natural Hydrating Foundation 103; CLARINS - SKIN ILLUSION - BROAD SPECTRUM SPF 15 - TITANIUM DIOXIDE - SUNSCREEN - Natural Hydrating Foundation 105; CLARINS - SKIN ILLUSION - BROAD SPECTRUM SPF 15 - TITANIUM DIOXIDE - SUNSCREEN - Natural Hydrating Foundation 106; CLARINS - SKIN ILLUSION - BROAD SPECTRUM SPF 15 - TITANIUM DIOXIDE - SUNSCREEN - Natural Hydrating Foundation 107; CLARINS - SKIN ILLUSION - BROAD SPECTRUM SPF 15 - TITANIUM DIOXIDE - SUNSCREEN - Natural Hydrating Foundation 108; CLARINS - SKIN ILLUSION - BROAD SPECTRUM SPF 15 - TITANIUM DIOXIDE - SUNSCREEN - Natural Hydrating Foundation 108.3; CLARINS - SKIN ILLUSION - BROAD SPECTRUM SPF 15 - TITANIUM DIOXIDE - SUNSCREEN - Natural Hydrating Foundation 108.5; CLARINS - SKIN ILLUSION - BROAD SPECTRUM SPF 15 - TITANIUM DIOXIDE - SUNSCREEN - Natural Hydrating Foundation 109; CLARINS - SKIN ILLUSION - BROAD SPECTRUM SPF 15 - TITANIUM DIOXIDE - SUNSCREEN - Natural Hydrating Foundation 110; CLARINS - SKIN ILLUSION - BROAD SPECTRUM SPF 15 - TITANIUM DIOXIDE - SUNSCREEN - Natural Hydrating Foundation 111; CLARINS - SKIN ILLUSION - BROAD SPECTRUM SPF 15 - TITANIUM DIOXIDE - SUNSCREEN - Natural Hydrating Foundation 112; CLARINS - SKIN ILLUSION - BROAD SPECTRUM SPF 15 - TITANIUM DIOXIDE - SUNSCREEN - Natural Hydrating Foundation 112.3; CLARINS - SKIN ILLUSION - BROAD SPECTRUM SPF 15 - TITANIUM DIOXIDE - SUNSCREEN - Natural Hydrating Foundation 113; CLARINS - SKIN ILLUSION - BROAD SPECTRUM SPF 15 - TITANIUM DIOXIDE - SUNSCREEN - Natural Hydrating Foundation 114; CLARINS - SKIN ILLUSION - BROAD SPECTRUM SPF 15 - TITANIUM DIOXIDE - SUNSCREEN - Natural Hydrating Foundation 115; CLARINS BB Skin Perfecting Broad Spectrum SPF 25 Sunscreen 01 Light; CLARINS BB Skin Perfecting Broad Spectrum SPF 25 Sunscreen 02 Medium; CLARINS BB Skin Perfecting Broad Spectrum SPF 25 Sunscreen 03 Dark; CLARINS BB Skin Perfecting Cream SPF 25 Tint 00; CLARINS Broad Spectrum SPF 15 Everlasting Foundation Tint 103; CLARINS Broad Spectrum SPF 15 Everlasting Foundation Tint 104; CLARINS Broad Spectrum SPF 15 Everlasting Foundation Tint 105; CLARINS Broad Spectrum SPF 15 Everlasting Foundation Tint 107; CLARINS Broad Spectrum SPF 15 Everlasting Foundation Tint 108; CLARINS Broad Spectrum SPF 15 Everlasting Foundation Tint 109; CLARINS Broad Spectrum SPF 15 Everlasting Foundation Tint 110; CLARINS Broad Spectrum SPF 15 Everlasting Foundation Tint 111; CLARINS Broad Spectrum SPF 15 Everlasting Foundation Tint 112; CLARINS Broad Spectrum SPF 15 Everlasting Foundation Tint 113; CLARINS Broad Spectrum SPF 15 Everlasting Foundation Tint 114; CLARINS Broad Spectrum SPF 15 Everlasting Foundation Tint 116; CLARINS Broad Spectrum SPF 15 Everlasting Foundation Tint 117; CLARINS Broad Spectrum SPF 15 Everlasting Foundation Tint 118; CLARINS Broad Spectrum SPF 15 Sunscreen Extra-Firming Foundation Tint 104; CLARINS Broad Spectrum SPF 15 Sunscreen Extra-Firming Foundation Tint 107; CLARINS Broad Spectrum SPF 15 Sunscreen Extra-Firming Foundation Tint 108; CLARINS Broad Spectrum SPF 15 Sunscreen Extra-Firming Foundation Tint 109; CLARINS Broad Spectrum SPF 15 Sunscreen Extra-Firming Foundation Tint 110; CLARINS Broad Spectrum SPF 15 Sunscreen Extra-Firming Foundation Tint 111; CLARINS Broad Spectrum SPF 15 Sunscreen Extra-Firming Foundation Tint 112; CLARINS Broad Spectrum SPF 15 Sunscreen Extra-Firming Foundation Tint 113; CLARINS Broad Spectrum SPF 15 Sunscreen Extra-Firming Foundation Tint 114; CLARINS Broad Spectrum SPF 15 Titanium Dioxide-Sunscreen Extra-Firming Foundation Tint 103; CLARINS Broad Spectrum SPF 15 Titanium Dioxide-Sunscreen Extra-Firming Foundation Tint 105; CLARINS Broad Spectrum SPF 20 Super Restorative Tinted Tint 02; CLARINS Broad Spectrum SPF 20 Super Restorative Tinted Tint 03; CLARINS Broad Spectrum SPF 20 Super Restorative Tinted Tint 04; CLARINS Broad Spectrum SPF 20 Super Restorative Tinted Tint 05; CLARINS EVERLASTING CUSHION LONG WEARING and HYDRATING FOUNDATION BROAD SPECTRUM SPF 50 103 Retail; CLARINS EVERLASTING CUSHION LONG WEARING and HYDRATING FOUNDATION BROAD SPECTRUM SPF 50 103 Retail refill with sponge; CLARINS EVERLASTING CUSHION LONG WEARING and HYDRATING FOUNDATION BROAD SPECTRUM SPF 50 105 Retail; CLARINS EVERLASTING CUSHION LONG WEARING and HYDRATING FOUNDATION BROAD SPECTRUM SPF 50 105 Retail refill with sponge; CLARINS EVERLASTING CUSHION LONG WEARING and HYDRATING FOUNDATION BROAD SPECTRUM SPF 50 107 Retail; CLARINS EVERLASTING CUSHION LONG WEARING and HYDRATING FOUNDATION BROAD SPECTRUM SPF 50 107 Retail refill with sponge; CLARINS EVERLASTING CUSHION LONG WEARING and HYDRATING FOUNDATION BROAD SPECTRUM SPF 50 108 Retail; CLARINS EVERLASTING CUSHION LONG WEARING and HYDRATING FOUNDATION BROAD SPECTRUM SPF 50 108 Retail refill with sponge; CLARINS EVERLASTING CUSHION LONG WEARING and HYDRATING FOUNDATION BROAD SPECTRUM SPF 50 110 Retail; CLARINS EVERLASTING CUSHION LONG WEARING and HYDRATING FOUNDATION BROAD SPECTRUM SPF 50 110 Retail refill with sponge; CLARINS EVERLASTING CUSHION LONG WEARING and HYDRATING FOUNDATION BROAD SPECTRUM SPF 50 112 Retail; CLARINS EVERLASTING CUSHION LONG WEARING and HYDRATING FOUNDATION BROAD SPECTRUM SPF 50 112 Retail refill with sponge; CLARINS EVERLASTING YOUTH FLUID BROAD SPECTRUM SPF 15 TITANIUM DIOXIDE SUNSCREEN Illuminating and Firming Foundation 100; CLARINS EVERLASTING YOUTH FLUID BROAD SPECTRUM SPF 15 TITANIUM DIOXIDE SUNSCREEN Illuminating and Firming Foundation 100.5; CLARINS EVERLASTING YOUTH FLUID BROAD SPECTRUM SPF 15 TITANIUM DIOXIDE SUNSCREEN Illuminating and Firming Foundation 101; CLARINS EVERLASTING YOUTH FLUID BROAD SPECTRUM SPF 15 TITANIUM DIOXIDE SUNSCREEN Illuminating and Firming Foundation 102.5; CLARINS EVERLASTING YOUTH FLUID BROAD SPECTRUM SPF 15 TITANIUM DIOXIDE SUNSCREEN Illuminating and Firming Foundation 103; CLARINS EVERLASTING YOUTH FLUID BROAD SPECTRUM SPF 15 TITANIUM DIOXIDE SUNSCREEN Illuminating and Firming Foundation 105; CLARINS EVERLASTING YOUTH FLUID BROAD SPECTRUM SPF 15 TITANIUM DIOXIDE SUNSCREEN Illuminating and Firming Foundation 105.5; CLARINS EVERLASTING YOUTH FLUID BROAD SPECTRUM SPF 15 TITANIUM DIOXIDE SUNSCREEN Illuminating and Firming Foundation 106; CLARINS EVERLASTING YOUTH FLUID BROAD SPECTRUM SPF 15 TITANIUM DIOXIDE SUNSCREEN Illuminating and Firming Foundation 107; CLARINS EVERLASTING YOUTH FLUID BROAD SPECTRUM SPF 15 TITANIUM DIOXIDE SUNSCREEN Illuminating and Firming Foundation 108; CLARINS EVERLASTING YOUTH FLUID BROAD SPECTRUM SPF 15 TITANIUM DIOXIDE SUNSCREEN Illuminating and Firming Foundation 108.3; CLARINS EVERLASTING YOUTH FLUID BROAD SPECTRUM SPF 15 TITANIUM DIOXIDE SUNSCREEN Illuminating and Firming Foundation 108.5; CLARINS EVERLASTING YOUTH FLUID BROAD SPECTRUM SPF 15 TITANIUM DIOXIDE SUNSCREEN Illuminating and Firming Foundation 109; CLARINS EVERLASTING YOUTH FLUID BROAD SPECTRUM SPF 15 TITANIUM DIOXIDE SUNSCREEN Illuminating and Firming Foundation 110; CLARINS EVERLASTING YOUTH FLUID BROAD SPECTRUM SPF 15 TITANIUM DIOXIDE SUNSCREEN Illuminating and Firming Foundation 111; CLARINS EVERLASTING YOUTH FLUID BROAD SPECTRUM SPF 15 TITANIUM DIOXIDE SUNSCREEN Illuminating and Firming Foundation 112; CLARINS EVERLASTING YOUTH FLUID BROAD SPECTRUM SPF 15 TITANIUM DIOXIDE SUNSCREEN Illuminating and Firming Foundation 112.3; CLARINS EVERLASTING YOUTH FLUID BROAD SPECTRUM SPF 15 TITANIUM DIOXIDE SUNSCREEN Illuminating and Firming Foundation 113; CLARINS EVERLASTING YOUTH FLUID BROAD SPECTRUM SPF 15 TITANIUM DIOXIDE SUNSCREEN Illuminating and Firming Foundation 114; CLARINS EVERLASTING YOUTH FLUID BROAD SPECTRUM SPF 15 TITANIUM DIOXIDE SUNSCREEN Illuminating and Firming Foundation 115; CLARINS EVERLASTING YOUTH FLUID BROAD SPECTRUM SPF 15 TITANIUM DIOXIDE SUNSCREEN Illuminating and Firming Foundation 116.5; CLARINS EVERLASTING YOUTH FLUID BROAD SPECTRUM SPF 15 TITANIUM DIOXIDE SUNSCREEN Illuminating and Firming Foundation 117; CLARINS EVERLASTING YOUTH FLUID BROAD SPECTRUM SPF 15 TITANIUM DIOXIDE SUNSCREEN Illuminating and Firming Foundation 118; CLARINS EVERLASTING YOUTH FLUID BROAD SPECTRUM SPF 15 TITANIUM DIOXIDE SUNSCREEN Illuminating and Firming Foundation 118.5; CLARINS Ever Matte Broad Spectrum SPF 15 Tint 104; CLARINS Ever Matte Broad Spectrum SPF 15 Tint 107; CLARINS Ever Matte Broad Spectrum SPF 15 Tint 108; CLARINS Ever Matte Broad Spectrum SPF 15 Tint 109; CLARINS Ever Matte Broad Spectrum SPF 15 Tint 110; CLARINS Ever Matte Broad Spectrum SPF 15 Tint 111; CLARINS Ever Matte Broad Spectrum SPF 15 Tint 112; CLARINS Ever Matte Broad Spectrum SPF 15 Tint 113; CLARINS Ever Matte Broad Spectrum SPF 15 Tint 114; CLARINS Ever Matte SPF 15 - 103 Ivory; CLARINS Ever Matte SPF 15 - 105 Nude; CLARINS Extra-Comfort Broad Spectrum SPF 15 Sunscreen Tint 103; CLARINS Extra-Comfort Broad Spectrum SPF 15 Sunscreen Tint 105; CLARINS Extra-Comfort Broad Spectrum SPF 15 Sunscreen Tint 107; CLARINS Extra-Comfort Broad Spectrum SPF 15 Sunscreen Tint 108; CLARINS Extra-Comfort Broad Spectrum SPF 15 Sunscreen Tint 109; CLARINS Extra-Comfort Broad Spectrum SPF 15 Sunscreen Tint 110; CLARINS Extra-Comfort Broad Spectrum SPF 15 Sunscreen Tint 112; CLARINS Extra-Comfort Broad Spectrum SPF 15 Sunscreen Tint 113; CLARINS Extra-Comfort Broad Spectrum SPF 15 Sunscreen Tint 114; CLARINS HydraQuench Tinted CLARINS HydraQuench Tinted Moisturizer Broad Spectrum SPF 6 03 PEACH; CLARINS HydraQuench Tinted Moisturizer Broad Spectrum SPF 6 01 NATUREL; CLARINS HydraQuench Tinted Moisturizer Broad Spectrum SPF 6 02 BEIGE; CLARINS MEN UV Protection SPF 40; CLARINS Mosaique Summer Bronzing Compact SPF 10; CLARINS SKIN ILLUSION BROAD SPECTRUM SPF 15 TITANIUM DIOXIDE SUNSCREEN Natural Hydrating Foundation 116.5; CLARINS SKIN ILLUSION BROAD SPECTRUM SPF 15 TITANIUM DIOXIDE SUNSCREEN Natural Hydrating Foundation 117; CLARINS SKIN ILLUSION BROAD SPECTRUM SPF 15 TITANIUM DIOXIDE SUNSCREEN Natural Hydrating Foundation 118; CLARINS SKIN ILLUSION BROAD SPECTRUM SPF 15 TITANIUM DIOXIDE SUNSCREEN Natural Hydrating Foundation 118.5; CLARINS SKIN ILLUSION Mineral and Plant Extracts SPF 10 Titanium Dioxide- Sunscreen - Natural Radiance Foundation Tint 105; CLARINS Skin Illusion SPF 10 Natural Radiance Foundation Tint 103; CLARINS Skin Illusion SPF 10 Natural Radiance Foundation Tint 104; CLARINS Skin Illusion SPF 10 Natural Radiance Foundation Tint 107; CLARINS Skin Illusion SPF 10 Natural Radiance Foundation Tint 108; CLARINS Skin Illusion SPF 10 Natural Radiance Foundation Tint 109; CLARINS Skin Illusion SPF 10 Natural Radiance Foundation Tint 110; CLARINS Skin Illusion SPF 10 Natural Radiance Foundation Tint 111; CLARINS Skin Illusion SPF 10 Natural Radiance Foundation Tint 112; CLARINS Skin Illusion SPF 10 Natural Radiance Foundation Tint 112.5; CLARINS Skin Illusion SPF 10 Natural Radiance Foundation Tint 113; CLARINS Skin Illusion SPF 10 Natural Radiance Foundation Tint 114; CLARINS Skin Illusion SPF 10 Natural Radiance Foundation Tint 115; CLARINS Skin Illusion SPF 10 Natural Radiance Foundation Tint 116.5; CLARINS Skin Illusion SPF 10 Natural Radiance Foundation Tint 117; CLARINS Skin Illusion SPF 10 Natural Radiance Foundation Tint 118; CLARINS Sunscreen Soothing Progressive Tanning; CLARINS UV PLUS ANTI-POLLUTION BROAD SPECTRUM SPF 50 NON-TINTED Sunscreen Multi-Protection; CLARINS UV PLUS ANTI-POLLUTION SUNSCREEN MULTI-PROTECTION BROAD SPECTRUM SPF 50 Oil-Free -DEEP; CLARINS UV PLUS ANTI-POLLUTION SUNSCREEN MULTI-PROTECTION BROAD SPECTRUM SPF 50 Oil-Free -LIGHT; CLARINS UV PLUS HP Broad Spectrum SPF 40 Sunscreen Multi-Protection Tint DEEP; CLARINS UV PLUS HP Broad Spectrum SPF 40 Sunscreen Multi-Protection Tint LIGHT; CLARINS UV PLUS HP Broad Spectrum SPF 40 Sunscreen Multi-Protection Tint MEDIUM; CLE CCC Cool Deep; CLE CCC Cool Medium Deep; CLE CCC Deep; CLE CCC Golden Medium; CLE CCC Golden Medium Deep; CLE CCC Light; CLE CCC Medium; CLE CCC Medium Deep; CLE CCC Medium Light; CLE CCC Neutral Deep; CLE CCC Neutral Fair; CLE CCC Neutral Light; CLE CCC Neutral Medium; CLE CCC Neutral Medium Light; CLE CCC Olive Medium Deep; CLE CCC Warm Deep; CLE CCC Warm Light; CLE CCC Warm Medium; CLE CCC Warm Medium Deep; CLE CCC Warm Medium Light; CLE DE PEAU BEAUTE CORRECTING VEIL n; CLE DE PEAU BEAUTE PW FOUNDATION s B10; CLE DE PEAU BEAUTE PW FOUNDATION s B20; CLE DE PEAU BEAUTE PW FOUNDATION s B30; CLE DE PEAU BEAUTE PW FOUNDATION s BF20; CLE DE PEAU BEAUTE PW FOUNDATION s I10; CLE DE PEAU BEAUTE PW FOUNDATION s O10; CLE DE PEAU BEAUTE PW FOUNDATION s O20; CLE DE PEAU BEAUTE PW FOUNDATION s O30; CLE Essence Air Cushion Deep; CLE Essence Air Cushion Light; CLE Essence Air Cushion Medium; CLE Essence Air Cushion Medium Deep; CLE Essence Air Cushion Medium Light; CLEMATIS FLUFFY MATTE CUSHION 25 Soft Beige; CLEMATIS FLUFFY MATTE CUSHION 27 Beige; CLEMATIS Fluffy Matte Cushion 21 Light Beige; CLEMATIS Fluffy Matte Cushion 23 Natural Beige; CLEMATIS Melting Fluffy sti ck foundation 21 Light Beige; CLEMATIS Melting Fluffy sti ck foundation 23 Natural Beige; CLEMATIS Morning Dew CC; CLEMATIS Morning dew BB 21 Light Beige; CLEMATIS Morning dew BB 23 Natural Beige; CLEN GERM KILLER-Spray; COOLA Mineral Liplux Lip Balm SPF 30 Firecracker; COOLA Mineral Liplux Lip Balm SPF 30 Nude Beach; COOLA Mineral Liplux Lip Balm SPF 30 Skinny Dip; COOLA Mineral Liplux Lip Balm SPF 30 Summer Crush; COOLA Rosilliance Mineral Tinted Face Moisturizer SPF 30 Bronze Goddess; COOLA Rosilliance Mineral Tinted Face Moisturizer SPF 30 Fresh Rose; COOLA Rosilliance Mineral Tinted Face Moisturizer SPF 30 Golden Hour; COVER plus CORRECT/TINTED MOISTURIZER CC CRM DEEP ALMOND; COVER plus CORRECT/TINTED MOISTURIZER CC CRM FAIR; COVER plus CORRECT/TINTED MOISTURIZER CC CRM GOLDEN ALMOND; COVER plus CORRECT/TINTED MOISTURIZER CC CRM GOLDEN LIGHT; COVER plus CORRECT/TINTED MOISTURIZER CC CRM GOLDEN MEDIUM; COVER plus CORRECT/TINTED MOISTURIZER CC CRM LIGHT; COVER plus CORRECT/TINTED MOISTURIZER CC CRM MED; COVER plus CORRECT/TINTED MOISTURIZER CC CRM MED/DEEP; COVER plus CORRECT/TINTED MOISTURIZER CC CRM PORCELAIN; COVERQUEEN All in one sun roll; CRème Compacte Solaire Teintée Haute Protection SPF 15; CRème De Soin Solaire Mer Et Tropiques Visage; CRème De Soin Solaire Visage; CRème Solaire Régions Sensibles Fps 30; CRème Solaire Très Haute Protection Spécial Visage SPF 30; CRème Solaire Écran Spécial Visage SPF 30; CVS Health 60 Plus Sensitive Skin Sun; CVS Health SPF 50 Vanishing Zinc Sun; CVS Health SPF 50 Vanishing Zinc Sun Face; CVS Live Better Body Mineral Sunscreen Broad Spectrum SPF 50; CYZONE CY Cover Mat; Cactus Whitening Sun SPF 34 Pa Plus Plus for Men; Cafe Au Lait Always Color Stay-On Makeup SPF 10; Cafe Mocha Always Color Stay-On Makeup SPF 10; Cafe Mocha Always Stay-on Makeup Broad Spectrum SPF 15 Jafra; Cafe au lait Always Stay-on Makeup Broad Spectrum SPF 15 Jafra; Calendula Non-nano UV Protection Unscented SPF30PA; Calendula Non-nano Uv Protection Unscented Spf30; Califonia Aloe Ice Puff Sun Clear; California Aloe Daily Moisture Sun Block; California Aloe Daily Sun Block; California Aloe Fresh Sun Milk; California Aloe Mild Sun Block; California Aloe Moisturizing Tone Up Sun Block; California Aloe Power Lasting Sun Block; California Aloe Sun; California Aloe Waterproof Sun Block; California Naturel Lip Balm SPF 8; Calm It Down Kit; Calming Perfector SPF 20 Sunscreen; Calming Primer SPF 20; Calypso Magic Concealer Pink Beige; Calypso Magic Concealer Salmon Beige; Calypso Magic Concealer Yellow Beige; Camellia Air Cushion 21 SPF50 PA; Camellia Air Cushion 22 SPF50 PA; Camellia CC Cream 21 SPF45 PA; Camellia CC Cream 22 SPF45 PA; Camellia Cooling CC 21 SPF50 PA; Camellia Cooling CC 22 SPF50 PA; Camellia Multiaction UV Sun Serum; Camera Ready 5 In 1 Beauty Balm SPF 35; Camera Ready Bb Broad Spectrum SPF 35; Camera Ready Bb Eyes Bs SPF 15; Camera Ready Bb Water Broad Spectrum SPF 30; Camera Ready Cc Broad Spectrum SPF 30; Camo CC Cream SPF30 Deep 500 W; Camo CC Cream SPF30 Deep 510 C; Camo CC Cream SPF30 Deep 540 N; Camo CC Cream SPF30 Deep 560 C; Camo CC Cream SPF30 Fair 120 N; Camo CC Cream SPF30 Fair 140 W; Camo CC Cream SPF30 Fair 150 C; Camo CC Cream SPF30 Light 210 N; Camo CC Cream SPF30 Light 240 W; Camo CC Cream SPF30 Light 280 N; Camo CC Cream SPF30 Medium 310 C; Camo CC Cream SPF30 Medium 330 W; Camo CC Cream SPF30 Medium 355 W; Camo CC Cream SPF30 Medium 375 N; Camo CC Cream SPF30 Rich 620 W; Camo CC Cream SPF30 Rich 640 W; Camo CC Cream SPF30 Rich 660 N; Camo CC Cream SPF30 Tan 415 C; Camo CC Cream SPF30 Tan 425 N; Camo CC Cream SPF30 Tan 450 N; Camo CC SPF 30 Deep 530 W; Camo CC SPF 30 Fair 100 W; Camo CC SPF 30 Fair 125 C; Camo CC SPF 30 Light 205 N; Camo CC SPF 30 Light 250 W; Camo CC SPF 30 Medium 370 N; Camo CC SPF 30 Rich 610 N; Camo CC SPF 30 Rich 650 C; Camo CC SPF 30 Tan 400 W; Camo CC SPF 30 Tan 460 W; Camo Cc Cream; Camouflage Concealer Caramel; Camouflage Concealer Nude; Camouflage Concealer Soft Cocoa; Camouflage Concealer Sweet Almond; Camouflage Concealer Warm Mocha; Candy Doll Basic Bright Pure Base Mint Green; Candy Doll Bright Pure Base; Candy Doll Liquid Foundation; Candy Doll White Pure Powder Normal; Candy Doll White Pure Powder Shiny; Cape Cod Sunscreen Plus SPF 30; Capture Dreamskin Fresh and Perfect Cushion With Sunscreen Broad Spectrum SPF 50 000; Capture Dreamskin Fresh and Perfect Cushion With Sunscreen Broad Spectrum SPF 50 010; Capture Dreamskin Fresh and Perfect Cushion With Sunscreen Broad Spectrum SPF 50 012; Capture Dreamskin Fresh and Perfect Cushion With Sunscreen Broad Spectrum SPF 50 020; Capture Dreamskin Fresh and Perfect Cushion With Sunscreen Broad Spectrum SPF 50 025; Capture Dreamskin Fresh and Perfect Cushion With Sunscreen Broad Spectrum SPF 50 030; Capture Dreamskin Fresh and Perfect Cushion With Sunscreen Broad Spectrum SPF 50 040; Capture Totale Dreamskin Perfect Skin Cushion Youth Skincare Perfect Complexion Creator With Sunscreen Broad Spectrum SPF 50 010; Capture Totale Dreamskin Perfect Skin Cushion Youth Skincare Perfect Complexion Creator With Sunscreen Broad Spectrum SPF 50 012; Capture Totale Dreamskin Perfect Skin Cushion Youth Skincare Perfect Complexion Creator With Sunscreen Broad Spectrum SPF 50 020; Capture Totale Dreamskin Perfect Skin Cushion Youth Skincare Perfect Complexion Creator With Sunscreen Broad Spectrum SPF 50 030; Capture Totale Dreamskin Perfect Skin Cushion Youth Skincare Perfect Complexion Creator With Sunscreen Broad Spectrum SPF 50 21; Capture Totale Dreamskin Perfect Skin Cushion Youth Skincare Perfect Complexion Creator With Sunscreen Broad Spectrum SPF 50 25; Capture Totale Dreamskin Perfect Skin Cushion Youth Skincare Perfect Complexion Creator With Sunscreen Broad Spectrum SPF 50 40; Capture Totale Fond De Teint Concentré Régénérateur D'éclat; Capture Totale Fond De Teint Concentré Éclat Haute Défintion; Capture Totale Multi-perfection Creme SPF 20; Capture Totale Multi-perfection Makeup Base; Capture Totale Radiance Restoring Serum Foundation SPF 15 010; Capture Totale Radiance Restoring Serum Foundation SPF 15 012; Capture Totale Radiance Restoring Serum Foundation SPF 15 020; Capture Totale Radiance Restoring Serum Foundation SPF 15 021; Capture Totale Radiance Restoring Serum Foundation SPF 15 023; Capture Totale Radiance Restoring Serum Foundation SPF 15 030; Capture Totale Radiance Restoring Serum Foundation SPF 15 033; Capture Totale Radiance Restoring Serum Foundation SPF 15 050; Capture Totale Radiance Serum Foundation SPF 15 040; Capture Totale Triple Correcting Serum Foundation; Caramel Smart Finish Makeup Broad Spectrum SPF 18 Merle Norman; CareCella Hydration BB Cream; CareCella Velvet Cover BB Cream; Carecella Daily Sun Cream; Carecella Velvet Cover BB Cream; Carecella Velvet Cover BB Cream No 25; Careline Perfect Care BB; Cargo Tinted Moisturizer SPF 20; Caribbean Beach ADULT Sunscreen; Caribbean Beach ADVANCED Sunscreen; Caribbean Beach KIDS Sunscreen; Caribbean Beach SPORT Sunscreen; Caribbean Breeze SPF 8 Protective Lotion; Caribbean Breeze Spf15 Sunscreen Lotion; Caribbean Breeze Spf30 Sunscreen Lotion; Caribbean Breeze Spf6 Litescreen Spray; Cashmere Always Color Stay-On Makeup SPF 10; Cashmere Always Stay-on Makeup Broad Spectrum SPF 15 Jafra; Cathycat Chewy CREAM FOUNDATION SPF23 PA WHITENING ANTI WRINKLE 21; Cathycat Chewy CREAM FOUNDATION SPF23 PA WHITENING ANTI WRINKLE 23; Cathycat Essence Sun Bb; Catrin Diamond Mineral Foundation; Cc CRème Color Complexion Correction Broad Spectrum SPF 40; Cc CRème Soin Perfecteur De Peau Skin Perfecting Cream; Cc Complete Correction Sunscreen Broad Spectrum SPF 25, 32 Beige Rose; Cc Complete Correction Sunscreen Broad Spectrum SPF 30, 20 Beige; Cc Complete Correction Sunscreen Broad Spectrum SPF 50, 20 Beige; Cc Complete Correction Sunscreen Broad Spectrum SPF 50, 30 Beige; Cc Complete Correction Sunscreen Broad Spectrum SPF 50, 40 Beige; Cc Cream Broad Spectrum SPF 30; Cc Cream Broad Spectrum SPF 40; Cc Cream Correction Complete Complete Correction Fps 50 / SPF 50; Cc Cream Correction Complète Complete Correction SPF 50; Cc Creme Color Correction Creme; Cc Creme Soin Perfecteur De Peau Skin Perfecting; Cc Oil-free Cushion; Cc Sunscreen; Cc Super Active Complete Correction Sunscreen Broad Spectrum SPF 50 10 Beige; Cc Super Active Complete Correction Sunscreen Broad Spectrum SPF 50 20 Beige; Cc Super Active Complete Correction Sunscreen Broad Spectrum SPF 50 30 Beige; Cc Super Active Complete Correction Sunscreen Broad Spectrum SPF 50 40 Beige; Cc Super Active Complete Correction Sunscreen Broad Spectrum SPF 50 50 Beige; Cc Super Active Complete Correction Sunscreen Broad Spectrum SPF 50 60 Beige; Cc Super Active Complete Correction Sunscreen Broad Spectrum SPF 50 70 Beige; Cc Total Cover Cushion; Cc Veil Beauty Fluid Foundation Fair; Cc Veil Beauty Fluid Foundation Light; Cc Veil Beauty Fluid Foundation Medium; Cc Veil Beauty Fluid Foundation Rich; Cc Veil Beauty Fluid Foundation Tan; Celebeau Star Secret Cushion 01 Pink Star; Celebeau Star Secret Cushion 02 Violet Star; Celebration Foundation Deep; Celebration Foundation Fair; Celebration Foundation Light; Celebration Foundation Medium; Celebration Foundation Medium Tan; Celebration Foundation Rich; Celebration Foundation Tan; Celgen Mild Sun; Cell Boosting Bb 01 Light Beige; Cell Boosting Bb 02 Natural Beige; Cell Boosting Bb 03 Sand Beige; Cell Boosting Bb Spf30 01 Light Beige; Cell Boosting Bb Spf30 02 Natural Beige; Cell Boosting Bb Spf30 07 Sand Beige; Cell Fusion C Laser Sunscreen; Cellex-C Sun Care; Cellex-C Sun Care SPF 50+; Cellex-C Sun Shade; Cellex-C Suncare SPF 15; Cellex-C Suncare SPF 30; Cellex-C Suncare SPF 32; Cellex-C Sunshade SPF 50+; Cellpium shield sun bb; Cellromax 7 Signature CC Cream; Cellromax Sun Block; Celltrion Uv Perfection Always Sun; Cellular Aw Sun Block SPF 50; Cellular Brightening System Day Emulsion SPF 15; Cellular Defense Shield Eye Cream SPF 15; Cellular Swiss Protection Veil Broad Spectrum SPF 50; Cellular Swiss UV Protection Veil Sunscreen Broad Spectrum SPF 50 La Prairie; Celonia Signature Bio Cushion Pact Pink Ivory; Celonia Signature Bio Tone Up Sun Block; CeraVe Baby Sunscreen Broad Spectrum SPF 45; CeraVe Developed with Dermatologists Baby Sunscreen Broad Spectrum SPF 45; CeraVe Developed with Dermatologists Hydrating Mineral Sunscreen Broad Spectrum SPF 30 Face Sheer Tint Sunscreen; CeraVe Developed with Dermatologists Sunscreen Body Broad Spectrum SPF 30; CeraVe Developed with Dermatologists Sunscreen Body Broad Spectrum SPF 50; CeraVe Developed with Dermatologists Sunscreen Broad Spectrum SPF 30 Face; CeraVe Developed with Dermatologists Sunscreen Broad Spectrum SPF 50; CeraVe Developed with Dermatologists Sunscreen Broad Spectrum SPF 50 Face; CeraVe Sunscreen Broad Spectrum SPF 30 BODY; CeraVe Sunscreen Broad Spectrum SPF 30 FACE; CeraVe Sunscreen Broad Spectrum SPF 50; CeraVe Sunscreen Broad Spectrum SPF 50 Body; CeraVe Sunscreen Broad Spectrum SPF 50 Face; Ceramide Lift And Firm Makeup Broad Spectrum Sunscreen SPF 15 Cream; Ceramide Lift And Firm Makeup Broad Spectrum Sunscreen SPF 15 Toast; Ceramide Lift And Firm Makeup Broad Sprectrum Sunscreen SPF 15 Sandstone; Ceramide Lift and Firm Cream Makeup SPF 15; Ceramide Lift and Firm Makeup Broad Spectrum Sunscreen SPF 15 Beige; Ceramide Lift and Firm Makeup Broad Spectrum Sunscreen SPF 15 Bisque; Ceramide Lift and Firm Makeup Broad Spectrum Sunscreen SPF 15 Buff; Ceramide Lift and Firm Makeup Broad Spectrum Sunscreen SPF 15 Cameo; Ceramide Lift and Firm Makeup Broad Spectrum Sunscreen SPF 15 Cocoa; Ceramide Lift and Firm Makeup Broad Spectrum Sunscreen SPF 15 Cognac; Ceramide Lift and Firm Makeup Broad Spectrum Sunscreen SPF 15 Ecru; Ceramide Lift and Firm Makeup Broad Spectrum Sunscreen SPF 15 Gentle Beige; Ceramide Lift and Firm Makeup Broad Spectrum Sunscreen SPF 15 Java; Ceramide Lift and Firm Makeup Broad Spectrum Sunscreen SPF 15 Mocha; Ceramide Lift and Firm Makeup Broad Spectrum Sunscreen SPF 15 Perfect Beige; Ceramide Lift and Firm Makeup Broad Spectrum Sunscreen SPF 15 Spice; Ceramide Lift and Firm Makeup Broad Spectrum Sunscreen SPF 15 Toasty Beige; Ceramide Lift and Firm Makeup Broad Spectrum Sunscreen SPF 15 True Beige; Ceramide Lift and Firm Makeup Broad Spectrum Sunscreen SPF 15 Vanilla Shell; Ceramide Lift and Firm Makeup Broad Spectrum Sunscreen SPF 15 Warm Bisque; Ceramide Lift and Firm Makeup Broad Spectrum Sunscreen SPF 15 Warm Bronze; Ceramide Lift and Firm Makeup Broad Spectrum Sunscreen SPF 15 Warm Honey; Ceramide Lift and Firm Makeup Broad Spectrum Sunscreen SPF 15 Warm Sunbeige; Ceramide Makeup SPF 15; Cerave Developed With Dermatologists Hydrating Sunscreen SPF 30 Face Lightweight, Non-greasy Feel 3 Essential Ceramides Niacinamide Mineral Sunscreen; Cerave Developed with Dermatologists Hydrating Sunscreen SPF 30 Body Lightweight, non-greasy feel 3 essential ceramides Mineral Sunscreen; Cerave Developed with Dermatologists Hydrating Sunscreen SPF 50 Body Lightweight, non-greasy feel 3 essential ceramides Mineral Sunscreen; Cerave Developed with Dermatologists Hydrating Sunscreen SPF 50 Face Lightweight, non-greasy feel 3 essential ceramides niacinamide Mineral; Cetaphil Daily Facial Moisturizer (SPF 50); Cetaphil Daily Facial Moisturizer SPF 50; Cetaphil Daily Facial Moisturizer with suncreen SPF 50; Cetaphil Redness Relieving Daily Facial Moisturizer with sunscreen SPF 20; Cetaphil Sheer Mineral Sunscreen SPF 30; Cetaphil Sheer Mineral Sunscreen SPF 50; Cetaphil Sheer Mineral Sunscreen Stick SPF 50; Chanel Precision - Fluide Multi-protection; Chantecaille Just Skin Anti-smog Tinted Moisturizer SPF 15; Chantecaille Just Skin Tinted Moisturizer Sunscreen Broad Spectrum SPF 15; Chantecaille Protection Naturelle Bronze SPF 46; Chantecaille Protection Naturelle Light SPF 46; Charmzone ALBATROSS Powder Sun (SPF41 PA); Charmzone Natural Skinade BB Cream (SPF20 PA); Chestnut Future Resist Foundation Broad Spectrum Foundation Delilah; Children's Sunscreen SPF 15; China Doll Foundation Broad Spectrum SPF 15; Christian Dior Prestige Brightening Revitalizing UV Base SPF 50; Christina Moss Naturals Natural Sunscreen SPF 30; Chrono Repair Solaire; City Base Compact Foundat.SPF 15(rich Mocha); City Base Compact Foundation SPF 15; City Base Compact Foundation SPF 15 (pale); City Base Compact Foundation SPF 15-crm 9.7%; City Block Oil Free Daily Face Pro Crm 8.8%; City Block Oil-free Daily Face Protect.spf15; City Block Sheer SPF 25 Oil Free Daily Face Protector; City Cover Compact Concealer SPF 15; City Cover Compact Concealer SPF 15 - City Medium Dark; City Glow Daily Defense Bronzer; City Miracle Cc Cream SPF 50; City Skin Age Defense Broad Spectrum SPF 50; City Stick SPF 15; Ck One Airlight Pressed Powder SPF 15 Bisque 400; Ck One Airlight Pressed Powder SPF 15 Cappuccino 700; Ck One Airlight Pressed Powder SPF 15 Caramel 700; Ck One Airlight Pressed Powder SPF 15 Fair 200; Ck One Airlight Pressed Powder SPF 15 Honey 600; Ck One Airlight Pressed Powder SPF 15 Porcelain 100; Ck One Airlight Pressed Powder SPF 15 Sand 300; Ck One Airlight Pressed Powder SPF 15 Tan 500; Ck One All Day Perfection Face Makeup SPF 20 Sunscreen; Ck One Waterfresh Face Makeup SPF 15 200 Fair; Ck One Waterfresh Face Makeup SPF 15 300 Sand; Ck One Waterfresh Face Makeup SPF 15 350 Beige; Ck One Waterfresh Face Makeup SPF 15 400 Bisque; Ck One Waterfresh Face Makeup SPF 15 450 Golden; Ck One Waterfresh Face Makeup SPF 15 500 Tan; Ck One Waterfresh Face Makeup SPF 15 600 Honey; Ck One Waterfresh Face Makeup SPF 15 700 Caramel; Ck One Waterfresh Face Makeup SPF 15 800 Cappucino; Clamue Healthy Fresh BB Cream Light; Clamue Healthy Fresh BB Cream Light Medium; Clamue Healthy Fresh BB Cream Medium; Clamue Healthy Fresh BB Cream Medium Deep; Clapiel Defense Sunblock; Clapiel Mineral CC; Clarifying Line Broad Spectrum SPF 50 EXEL; Clarins Broad Spectrum SPF 30 Sunscreen for Sun-Sensitive Areas; Clarins Broad Spectrum SPF 50 Sunscreen Care Milk for Children; Clarins Everlasting Cushion Long-Wearing and Hydrating Foundation Broad Spectrum SPF 50 Tint 103; Clarins Everlasting Cushion Long-Wearing and Hydrating Foundation Broad Spectrum SPF 50 Tint 103 Refill with sponge; Clarins Everlasting Cushion Long-Wearing and Hydrating Foundation Broad Spectrum SPF 50 Tint 103 Tester refill with sponge; Clarins Everlasting Cushion Long-Wearing and Hydrating Foundation Broad Spectrum SPF 50 Tint 105; Clarins Everlasting Cushion Long-Wearing and Hydrating Foundation Broad Spectrum SPF 50 Tint 105 Refill with sponge; Clarins Everlasting Cushion Long-Wearing and Hydrating Foundation Broad Spectrum SPF 50 Tint 105 Tester refill with sponge; Clarins Everlasting Cushion Long-Wearing and Hydrating Foundation Broad Spectrum SPF 50 Tint 107; Clarins Everlasting Cushion Long-Wearing and Hydrating Foundation Broad Spectrum SPF 50 Tint 107 Refill with sponge; Clarins Everlasting Cushion Long-Wearing and Hydrating Foundation Broad Spectrum SPF 50 Tint 107 Tester refill with sponge; Clarins Everlasting Cushion Long-Wearing and Hydrating Foundation Broad Spectrum SPF 50 Tint 108; Clarins Everlasting Cushion Long-Wearing and Hydrating Foundation Broad Spectrum SPF 50 Tint 108 Refill with sponge; Clarins Everlasting Cushion Long-Wearing and Hydrating Foundation Broad Spectrum SPF 50 Tint 108 Tester refill with sponge; Clarins Everlasting Cushion Long-Wearing and Hydrating Foundation Broad Spectrum SPF 50 Tint 110; Clarins Everlasting Cushion Long-Wearing and Hydrating Foundation Broad Spectrum SPF 50 Tint 110 Refill with sponge; Clarins Everlasting Cushion Long-Wearing and Hydrating Foundation Broad Spectrum SPF 50 Tint 110 Tester refill with sponge; Clarins Everlasting Cushion Long-Wearing and Hydrating Foundation Broad Spectrum SPF 50 Tint 112; Clarins Everlasting Cushion Long-Wearing and Hydrating Foundation Broad Spectrum SPF 50 Tint 112 Refill with sponge; Clarins Everlasting Cushion Long-Wearing and Hydrating Foundation Broad Spectrum SPF 50 Tint 112 Tester refill with sponge; Clarins High Protection Sunscreen Care Milk for Children SPF 50; Clarins High Protection Sunscreen for Sun-sensitive Areas SPF 30; Clarins Mission Perfection Yeux Broadspectrum SPF 15 Sunscreen; Clarins Sunscreen For Eyes Wrinkle Control SPF 30 UVA/UVB; Clarins Sunscreen High Protection SPF 30; Clarins Sunscreen Wrinkle Control High Protection SPF 30; Clarins Sunscreen Wrinkle Control Moderate Protection SPF 15; Clarins Super Restorative Day; Clarins UV PLUS ANTI-POLLUTION B.S. SPF 50, Sunscreen Multi-Protection Tint Medium; Clarins UV Plus HP SPF 40 Day Screen High Protection; Clarisonic Mia 3 Facial Sonic Cleansing Brush with Dermalogica total eye care broad spectrum SPF 15 sunscreen; Cle De Peau Beaute 50+ Creme Teintee Protectrice Uv; Cle De Peau Beaute B10; Cle De Peau Beaute B20; Cle De Peau Beaute B30; Cle De Peau Beaute Bf20; Cle De Peau Beaute CR Compact Foundation B10; Cle De Peau Beaute CR Compact Foundation B20; Cle De Peau Beaute CR Compact Foundation B30; Cle De Peau Beaute CR Compact Foundation Bf20; Cle De Peau Beaute CR Compact Foundation I10; Cle De Peau Beaute CR Compact Foundation O10; Cle De Peau Beaute CR Compact Foundation O20; Cle De Peau Beaute CR Compact Foundation O30; Cle De Peau Beaute Concealer Almond; Cle De Peau Beaute Concealer Beige; Cle De Peau Beaute Concealer Honey; Cle De Peau Beaute Concealer Ivory; Cle De Peau Beaute Concealer Mocha; Cle De Peau Beaute Concealer Ocher; Cle De Peau Beaute Correcting Veil; Cle De Peau Beaute Cream Compact Foundation B10; Cle De Peau Beaute Cream Compact Foundation B20; Cle De Peau Beaute Cream Compact Foundation B30; Cle De Peau Beaute Cream Compact Foundation Bf20; Cle De Peau Beaute Cream Compact Foundation I10; Cle De Peau Beaute Cream Compact Foundation O10; Cle De Peau Beaute Cream Compact Foundation O20; Cle De Peau Beaute Cream Compact Foundation O30; Cle De Peau Beaute Foundation I B10; Cle De Peau Beaute Foundation I B20; Cle De Peau Beaute Foundation I B30; Cle De Peau Beaute Foundation I Bf20; Cle De Peau Beaute Foundation I I10; Cle De Peau Beaute Foundation I O10; Cle De Peau Beaute Foundation I O20; Cle De Peau Beaute Foundation I O30; Cle De Peau Beaute Foundation L B10; Cle De Peau Beaute Foundation L B20; Cle De Peau Beaute Foundation L B30; Cle De Peau Beaute Foundation L Bf20; Cle De Peau Beaute Foundation L I10; Cle De Peau Beaute Foundation L O10; Cle De Peau Beaute Foundation L O20; Cle De Peau Beaute Foundation L O30; Cle De Peau Beaute I10; Cle De Peau Beaute O10; Cle De Peau Beaute O20; Cle De Peau Beaute O30; Cle De Peau Beaute Radiant Corrector for Eyes Almond; Cle De Peau Beaute Radiant Corrector for Eyes Beige; Cle De Peau Beaute Radiant Corrector for Eyes Dark; Cle De Peau Beaute Radiant Corrector for Eyes Ivory; Cle De Peau Beaute Radiant Corrector for Eyes Mocha; Cle De Peau Beaute Radiant Corrector for Eyes Ocher; Cle De Peau Beaute Radiant Fluid Foundation B10; Cle De Peau Beaute Radiant Fluid Foundation B20; Cle De Peau Beaute Radiant Fluid Foundation B30; Cle De Peau Beaute Radiant Fluid Foundation Bf20; Cle De Peau Beaute Radiant Fluid Foundation I10; Cle De Peau Beaute Radiant Fluid Foundation O10; Cle De Peau Beaute Radiant Fluid Foundation O20; Cle De Peau Beaute Radiant Fluid Foundation O30; Cle De Peau Beaute Radiant Fluid Foundation O40; Cle De Peau Beaute Radiant Fluid Foundation O50; Cle De Peau Beaute Radiant Fluid Foundation O60; Cle De Peau Beaute Radiant Fluid Foundation O70; Cle De Peau Beaute Radiant Fluid Foundation O80; Cle De Peau Beaute Radiant Fluid Foundation Wb20; Cle De Peau Beaute Radiant Foundation B10; Cle De Peau Beaute Radiant Foundation B20; Cle De Peau Beaute Radiant Foundation B30; Cle De Peau Beaute Radiant Foundation Bf20; Cle De Peau Beaute Radiant Foundation I10; Cle De Peau Beaute Radiant Foundation O10; Cle De Peau Beaute Radiant Foundation O20; Cle De Peau Beaute Radiant Foundation O30; Cle De Peau Beaute Radiant Foundation O40; Cle De Peau Beaute Radiant Foundation O50; Cle De Peau Beaute Radiant Foundation O60; Cle De Peau Beaute Radiant Foundation Wb20; Cle De Peau Beaute Silky Foundation I B10; Cle De Peau Beaute Silky Foundation I B20; Cle De Peau Beaute Silky Foundation I B30; Cle De Peau Beaute Silky Foundation I Bf20; Cle De Peau Beaute Silky Foundation I I10; Cle De Peau Beaute Silky Foundation I O10; Cle De Peau Beaute Silky Foundation I O20; Cle De Peau Beaute Silky Foundation I O30; Cle De Peau Beaute Smoothing Base for Lines; Cle De Peau Beaute Smoothing Base for Pores; Cle De Peau Beaute The Foundation B10; Cle De Peau Beaute The Foundation B20; Cle De Peau Beaute The Foundation B30; Cle De Peau Beaute The Foundation Bf20; Cle De Peau Beaute The Foundation I10; Cle De Peau Beaute The Foundation O10; Cle De Peau Beaute The Foundation O20; Cle De Peau Beaute The Foundation O30; Cle De Peau Beaute The Foundation O40; Cle De Peau Beaute The Foundation O50; Cle De Peau Beaute The Foundation O60; Cle De Peau Beaute The Foundation Wb20; Cle De Peau Beaute Uv Protective Tinted Dark; Cle De Peau Beaute Uv Protective Tinted Ivory; Cle De Peau Beaute Uv Protective Tinted Ocher; Cle De Peau Beaute Uv Protective Very High Protection for Body; Clean Face Oil Control Sun Cream SPF 35 Pa++; Clean Face Oil Free Sun Cream SPF 35/pa++; Clean and Clear Finishes Mattifying Moisturizer SPF 15; Clear Daylight Radiance Moisturizer Broad Spectrum SPF 32; Clear Difference Bb Complexion Perfecting Bb Broad Spectrum SPF 35; Clear Foundation Sunscreen Broad Spectrum SPF 45; Clematis Base Cushion; Clinique Acne Solutions Bb Cream SPF 40 Combination Oily To Oily; Clinique Age Defense Bb Cream SPF 30; Clinique Almost Powder Makeup SPF 15; Clinique Broad Spectrum SPF 30 Mineral Sunscreen Fluid for Face; Clinique Broad Spectrum SPF 30 Mineral Sunscreen for Body; Clinique Broad Spectrum SPF 30 Oil Free Face With Solar Smart; Clinique City Base Oil-free Powder Foundation Spf15; Clinique City Block Sheer Oil-free Daily Face Protector 15 SPF; Clinique City Block Sheer Shimmer Oil-free Daily Face Protector SPF 15; Clinique City Block Sheer Tint Oil-free Daily Face Protector SPF 15; Clinique City Stick SPF 15; Clinique Continuous Coverage Concealer SPF 20; Clinique Cx Protective Base SPF 40; Clinique Even Better Clinical Serum Foundation Broad Spectrum SPF 25; Clinique Even Better Glow Light Reflecting Makeup SPF 15; Clinique Even Better Makeup SPF 15; Clinique Face Zone Sun Block 30 SPF; Clinique Fit Workout Makeup Broad Spectrum SPF 40; Clinique Fit Workout Makeup SPF 40; Clinique Moisture Sheer Tint SPF 15; Clinique Moisture Surge Cc Compact Hydrating Colour Corrector Broad Spectrum SPF 25; Clinique Moisture Surge Cc Cream Compact Hydrating Colour Corrector SPF 25; Clinique Moisture Surge Cc Cream Hydrating Colour Corrector SPF 30; Clinique Moisture Surge Tinted Moisturizer SPF 15; Clinique Redness Solutions Daily Protective Base SPF 15; Clinique Redness Solutions Makeup SPF 15 With Probiotic Technology; Clinique Repairwear Laser Focus All-smooth Makeup SPF 15; Clinique Repairwear Laser Focus Line Smoothing Cream SPF 15 Combination Oily To Oily; Clinique Repairwear Laser Focus Line Smoothing Cream SPF 15 Very Dry To Dry Combination; Clinique Repairwear Uplifting Firming Broad Spectrum SPF 15 Dry Combo Oily; Clinique Repairwear Uplifting Firming Cream SPF 15 Dry Combination To Combination Oily; Clinique Repairwear Uplifting Firming Cream SPF 15 Very Dry To Dry; Clinique SPF 30 Uva/uvb Mineral Powder Makeup for Face; Clinique SPF 30 With Solarsmart+ Oil-free Face Cream; Clinique SPF 50 Broad Spectrum Mineral Sunscreen Fluid for Face; Clinique Sensitive Skin Makeup SPF 15; Clinique Sun-care Lip/eye 30 SPF Sun Block; Clinique Super City Block Oil-free Daily Face Protector SPF 40; Clinique Super Defense City Block Daily Energy Plus Face Protector Broad Spectrum SPF 50; Clinique Superbalanced Silk Makeup Broad Spectrum SPF 15; Clinique Superbalanced Silk Makeup SPF 15; Clinique Youth Surge SPF 15 Age Decelerating Moisturizer Combination Oily; Clinique Youth Surge SPF 15 Age Decelerating Moisturizer Dry Combination; Clinique for Men Uv Defense Broad Spectrum Spf50; Cloak SPF 50; Cloud 9 100% Mineral Sun Balm Broad Spectrum Sunscreen SPF 40; Club Amucheer Airy Touch Power LB; Club Amucheer Airy Touch Power Natural Beige; Club Amucheer Airy Touch Power PB; Club Amucheer Quick Water In Foundation Light Beige; Club Amucheer Quick Water In Foundation Natural Beige; Clé De Peau Beauté 50+ Émulsion Très Haute Protection Uv Pour Le Corps; Clé De Peau Beauté Radiant Cream Foundation; CoTZ Face Prime and Protect SPF 40 (Non-Tinted); CoTZ Face Prime and Protect SPF 40 (Tinted); CoTZ Kids Pure Botanicals; CoTZ Lip Balm; CoTZ Mineral Suns Stick - Tinted SPF 45; CoTZ Pure Botanicals; CoTZ SPF 58 Sunscreen; CoTZ Silky Foam - Tinted; CoTZ Silky Foam Non-Tinted; CoTZ Sport Non-Tinted; Cocoa Always Color Stay-On Makeup SPF 10; Cocoa Always Color Stay-on Makeup Broad Spectrum SPF 15 Jafra; Codenature Viami Tone Up Shield Cream; Cold Plasma Plus Neck and Chest SPF25; Collagen Dream 50 Radiance All In One Tone Up; Collagen Hd Aqua Bb Spf27 Pa Plus Plus; Collagen Hd Cover Bb Spf27 Pa Plus Plus; Collagen Hd Foundation Spf30 Pa Plus Plus 21 Soft Beige; Collagen Hd Foundation Spf30 Pa Plus Plus 23 Medium Beige; Collagen Hd Make Up Base Spf30 Pa Plus Plus 01 Green; Collagen Hd Make Up Base Spf30 Pa Plus Plus 02 Violet; Collagen Hd Pearl Bb Spf27 Pa Plus Plus; Collagen Hd Priimer Bb Spf27 Pa Plus Plus; Color Correcting Primer Green; Color Correcting Primer Purple; Color Correction Creme Dark; Color Correction Creme Light; Color Correction Creme Medium; Color Me With KidsUV SPF30; Color-smart Day Moisturizer Hydratant Jour Correcteur De Teint Broad Spectrum SPF 30 Fps 30 A Large Spectre; Color-smart Day Moisturizer Oil-free Hydratant Jour Correcteur De Teint Sans Corps Gras Broad Spectrum SPF 30 Fps; Comisqueen Uv Proof Radiance Bloom; Compact Foundation SPF 50 Color 01; Compact Foundation SPF 50 Color 02; Compact Foundation SPF 50 Color 03; Compact Solaire Teinte SPF 6 - 4.2%; Compact Teinte Protection Intense Galenic SPF 40 (beige Natural); Compact Teinte Protection Intense Galenic SPF 40 (hale Dore); Complete Hypoallergenic Spf60 Lotion; Complexion Brightener SPF20; Complexion Corrector SPF20; Complexion Enhancer SPF15; Complexion Perfection BB; Complexion Perfector BB SPF20; Complexion Perfector BB SPF20 Medium; Complexion Protection; Complexion Protection Moisturizing Sunscreen; Concealer Broad Spectrum Sunscreen SPF 30; Concealer Stick; Confidence In A Compact Skin-Transforming Full Coverage Solid Super Serum SPF 50 Deep; Confidence In A Compact Skin-Transforming Full Coverage Solid Super Serum SPF 50 Fair; Confidence In A Compact Skin-Transforming Full Coverage Solid Super Serum SPF 50 Light; Confidence In A Compact Skin-Transforming Full Coverage Solid Super Serum SPF 50 Medium; Confidence In A Compact Skin-Transforming Full Coverage Solid Super Serum SPF 50 Medium-Tan; Confidence In A Compact Skin-Transforming Full Coverage Solid Super Serum SPF 50 Rich; Confidence In A Compact Skin-Transforming Full Coverage Solid Super Serum SPF 50 Tan; Conju Princess BB; Conju Princess UV Sun Block; Conscious Sunscreen, Protect-respect SPF-50; Conscious Sunscreen, Protect-respect, Face SPF-40; Continuous Coverage Makeup Broad Spectrum SPF 15; Continuous Coverage Makeup SPF 15; Continuous Coverage Spf11-natural Hon.gl.20%; Continuum Unifying Lotion I; Continuum Unifying Lotion II; Control Corrective Tinted Moisturizer SPF-30 Sunscreen; Coola 70 Percent Plus Organic Mineral Body Sunscreen Spf50; Coola Bare Republic Mineral Face-Lotion SPF 70; Coola Bare Republic Mineral Sport Spf30; Coola Bare Republic Mineral Sport Spf50; Coola Bare Republic Mineral Sport Spf50 Non-nano; Coppertone Skin Selects for Sens.skin Spf15; Coral Safe Broad Spectrum SPF 30; Coral Safe SPF-30 Broad Spectrum Sunscreen; CoralSafe Broad Spectrum SPF30; Correcting Cream Veil; Cotz Face (For Lighter Skin Tones) SPF 40 Sunscreen; Cotz Face (Natural Skin Tone) SPF 40 Sunscreen; Cotz Lip Balm Lip Balm/Sunscreen; Cotz Plus SPF 58 Sunscreen; Cotz Pure SPF 30 Sunscreen; Cover 10 Perfect BB Light; Cover 10 Perfect BB Natural; Cover 10 Perfect Foundation BE10; Cover 10 Perfect Foundation BE20; Cover 10 Perfect Foundation BP15; Cover Fx Cc; Cover Girl Advanced Radiance Age Defying Make-UP; Cover Girl Advanced Radiance Restorative Cream Foundation; Cover Girl Clean Control Makeup, 11.8% Titanium Dioxide; Cover Girl Clean Control Makeup, 8.5% Titanium Dioxide; Cover Girl Fresh Look Makeup; Cover Girl Simply Summer Powder Foundation; Cover Girl Triple Lipstick; Cover Girl Trublend Powder Foundation; Cover Perfection Concealer Foundation 01; Cover Perfection Concealer Foundation 02; Cover Perfection Concealer Foundation 1.5; Cover Perfection Li quid Concealer 01 Clear Beige; Cover Perfection Li quid Concealer 02 Rich Beige; Cover Perfection Smart Concealer Kit; Cover Perfection Tip Concealer 0.5 Ice Beige; Cover Perfection Tip Concealer 01 Clear Beige; Cover Perfection Tip Concealer 02 Rich Beige; Cover Perfection Tip Concealer 1.25 Light Beige; Cover Perfection Tip Concealer 1.5 Natural Beige; Cover Perfection Tip Concealer 1.75 Middle Beige; Cover Perfection Tip Concealer Brightener; Cover Perfection Tip Concealer Contour Beige; Cover Recover SPF 30 Beige; Cover Recover SPF 30 Cocoa; Cover Recover SPF 30 Cream; Cover Recover SPF 30 Ivory; Cover Recover SPF 30 Sand; Cover Recover SPF 30 Taupe; Cover Recover SPF 30 Tawny; Cover Recover SPF 30 Warm Beige; Cover Your Mouth SPF 8 Lip Protector; Cover-Expert Sunscreen Broad Spectrum SPF 15 No.1 Fair Beige; Cover-Expert Sunscreen Broad Spectrum SPF 15 No.11 Amber Brown; Cover-Expert Sunscreen Broad Spectrum SPF 15 No.12 Warm Copper; Cover-Expert Sunscreen Broad Spectrum SPF 15 No.2 Neutral Beige; Cover-Expert Sunscreen Broad Spectrum SPF 15 No.3 Cream Beige; Cover-Expert Sunscreen Broad Spectrum SPF 15 No.4 Rosy Beige; Cover-Expert Sunscreen Broad Spectrum SPF 15 No.5 Peach Beige; Cover-Expert Sunscreen Broad Spectrum SPF 15 No.7 Vanilla Beige; Cover-Expert Sunscreen Broad Spectrum SPF 15 No.9 Honey Beige; Covergirl Advanced Radiance Age Defying Makeup plus Sunscreen SPF 10 (All shades); Covergirl Aquasmooth Broadspectrum SPF 20 All shades; Covergirl Natureluxe Silk Foundation SPF10 - 305 Alabaster; Covergirl Natureluxe Silk Foundation SPF10 - 310 Flax; Covergirl Natureluxe Silk Foundation SPF10 - 315 Bamboo; Covergirl Natureluxe Silk Foundation SPF10 - 320 Aspen; Covergirl Natureluxe Silk Foundation SPF10 - 325 Sandstone; Covergirl Natureluxe Silk Foundation SPF10 - 330 Chamois; Covergirl Natureluxe Silk Foundation SPF10 - 335 Dune; Covergirl Natureluxe Silk Foundation SPF10 - 340 Maple; Covergirl Natureluxe Silk Foundation SPF10 - 345 Honeywood; Covergirl Natureluxe Silk Foundation SPF10 - 350 Oak; Covergirl Natureluxe Silk Foundation SPF10 - 355 Suede; Covergirl Natureluxe Silk Foundation SPF10 - 360 Nutmeg; Covergirl Natureluxe Silk Foundation SPF10 - 365 Chestnut; Covergirl Natureluxe Silk Foundation SPF10 - 370 Brazilnut; Covergirl Natureluxe Silk Foundation Spf10; Covergirl plus Olay Simply Ageless Foundation plus Titanium Dioxide Sunscreen Broad Spectrum SPF 28 (All shades); Covergirl plus Olay SimplyAgeless Foundation Broadspectrum SPF 22 (All shades); Coxir Ceramide Daily Uv Sun Block; Crayon Soin Pour Les Levres/lipcare Pencil; Cream; Cream Oil Sunscreen; Creamy Beige Expert Finish Makeup Broad Spectrum SPF 25 Merle Norman; Creamy Beige Perfecting Makeup Broad Spectrum SPF 25 Merle Norman; Creamy Beige Smart Finish Broad Spectrum SPF 18 Merle Norman; Creme Anti-rides Auto-bronzante SPF 15; Creme Antirougeurs Apaisante Fps 25; Creme Bronzante Neige Et Montagne; Creme D'activation; Creme De Bronzage A LA Carotte; Creme De Jour Au Retinol; Creme De Jour Multi-action SPF 7; Creme De Teint Compacte/compact Foundation Cream Texture Confort/rich Formula Fps/spf30; Creme De Teint Compacte/compact Foundation Cream Texture Poudree Non Grasse/oil Free Powdered Formula Fps/SPF 30; Creme De Traitement Des Intolerances Solaires; Creme Ecran Solaire; Creme Ecran Total Elusun SPF 25; Creme Ecran Total Intolerances Solaires SPF 40; Creme Ecran Total Intolerances Solaires SPF 45; Creme Ecran Total SPF 25; Creme Haute Exigence Jour SPF 20; Creme Hiver Peau Sensible; Creme Pour Peaux Intolerantes Au Soleil; Creme Protectrice Spf15; Creme Solaire A Tres Haut Facteur De Protection Au Beurre De Karite; Creme Solaire Anti-rides SPF 10; Creme Solaire Anti-rides Visage SPF 20; Creme Solaire Anti-rides Visage SPF 30; Creme Solaire Bronzage Securite SPF 15; Creme Solaire Bronzage Securite SPF 20; Creme Solaire Ecran Special Visage SPF 30; Creme Solaire Ecran Total SPF 30-klorane; Creme Solaire Haute Protection 20 SPF; Creme Solaire Haute Protection SPF 15; Creme Solaire Haute Protection SPF 20; Creme Solaire Haute Protection Special Enfants Et Peaux Reactives Au Soleil SPF 30; Creme Solaire Haute Protection Special Visage 15 SPF; Creme Solaire Haute Protection Special Visage SPF 15; Creme Solaire Tres Haute Protection Special Intolerances 30 SPF; Creme Solaire Tres Haute Protection Special Intolerances SPF 30; Creme Solaire Tres Haute Protection Special Peaux Sensibles 30 SPF; Creme Visage Fps 30; Creme Visage Fps 45; Cvs Childrens Babys Spf50; Cvs Health Live Better Body Mineral Sunscreen SPF 30; Cx Daily Eye Protector SPF 15; Cyberwhite EX Extra Intensive Bb Creme Multi Action Formula Spf35; Cyzone SUN BY ME Sunblock SPF 50; Cyzone Sun By Me; Cyzone Sun By Me Face Screen Fps 50 Amplio Espectro; D-one By Tamdoan Bb Light; D-one By Tamdoan Bb Medium; D-one By Tamdoan Sunscreen 50; DD Cream Dermatologically Defining BB Cream Broad Spectrum SPF 30; DEAR KLAIRS Illuminating Supple Blemish Cream; DEARSIR UV Ultra Protection Sun; DEOPROCE UV WATERFUL CUSHION NO 13 Light Beige; DEOPROCE UV WATERFUL CUSHION NO 21 Natural Beige; DEOPROCE UV WATERFUL CUSHION NO 23 Sand Beige; DERMAKA Broad Spectrum SPF-42 Sunscreen; DERMAdoctor DD Cream Dermatologically Defining BB Cream Broad Spectrum SPF 30; DHC BB Foundation Natural Ocher 01; DHC BB Foundation Natural Ocher 02; DHC Body Sunscreen Milk; DHC Brightening Sunscreen; DHC White Sunscreen; DIOR PRESTIGE LE NECTAR DE TEINT Exceptional Revitalizing Foundation Satin Radiance with Sunscreen Broad Spectrum SPF20 TINTS 010; DIOR PRESTIGE LE NECTAR DE TEINT Exceptional Revitalizing Foundation Satin Radiance with Sunscreen Broad Spectrum SPF20 TINTS 020; DIOR PRESTIGE LE NECTAR DE TEINT Exceptional Revitalizing Foundation Satin Radiance with Sunscreen Broad Spectrum SPF20 TINTS 021; DIOR PRESTIGE LE NECTAR DE TEINT Exceptional Revitalizing Foundation Satin Radiance with Sunscreen Broad Spectrum SPF20 TINTS 030; DIORSKIN FOREVER EVER WEAR Extreme Perfection Hold Makeup Base with Sunscreen SPF20 001; DIORSKIN FOREVER Perfect Makeup Everlasting Wear Pore-Refining Effect with Sunscreen Broad Spectrum SPF 35 010; DIORSKIN FOREVER Perfect Makeup Everlasting Wear Pore-Refining Effect with Sunscreen Broad Spectrum SPF 35 020; DIORSKIN FOREVER Perfect Makeup Everlasting Wear Pore-Refining Effect with Sunscreen Broad Spectrum SPF 35 021; DIORSKIN FOREVER Perfect Makeup Everlasting Wear Pore-Refining Effect with Sunscreen Broad Spectrum SPF 35 022; DIORSKIN FOREVER Perfect Makeup Everlasting Wear Pore-Refining Effect with Sunscreen Broad Spectrum SPF 35 023; DIORSKIN FOREVER Perfect Makeup Everlasting Wear Pore-Refining Effect with Sunscreen Broad Spectrum SPF 35 030; DIORSKIN FOREVER Perfect Makeup Everlasting Wear Pore-Refining Effect with Sunscreen Broad Spectrum SPF 35 031; DIORSKIN FOREVER Perfect Makeup Everlasting Wear Pore-Refining Effect with Sunscreen Broad Spectrum SPF 35 032; DIORSKIN FOREVER Perfect Makeup Everlasting Wear Pore-Refining Effect with Sunscreen Broad Spectrum SPF 35 033; DIORSKIN FOREVER Perfect Makeup Everlasting Wear Pore-Refining Effect with Sunscreen Broad Spectrum SPF 35 034; DIORSKIN FOREVER Perfect Makeup Everlasting Wear Pore-Refining Effect with Sunscreen Broad Spectrum SPF 35 035; DIORSKIN FOREVER Perfect Makeup Everlasting Wear Pore-Refining Effect with Sunscreen Broad Spectrum SPF 35 040; DIORSKIN FOREVER Perfect Makeup Everlasting Wear Pore-Refining Effect with Sunscreen Broad Spectrum SPF 35 050; DIORSKIN FOREVER Perfect Makeup Everlasting Wear Pore-Refining Effect with Sunscreen Broad Spectrum SPF 35 060; DIORSKIN FOREVER Perfect Makeup Everlasting Wear Pore-Refining Effect with Sunscreen Broad Spectrum SPF 35 070; DIORSKIN FOREVER Perfect Makeup Everlasting Wear Pore-Refining Effect with Sunscreen Broad Spectrum SPF 35 080; DIORSKIN FOREVER Perfect Makeup Everlasting Wear Pore-Refining Effect with Sunscreen Broad Spectrum SPF 35 tints 014; DIORSKIN FOREVER Perfect Makeup Everlasting Wear Pore-Refining Effect with Sunscreen Broad Spectrum SPF 35 tints 015; DIORSKIN FOREVER Perfect Makeup Everlasting Wear Pore-Refining Effect with Sunscreen Broad Spectrum SPF 35 tints 024; DIORSKIN FOREVER Perfect Makeup Everlasting Wear Pore-Refining Effect with Sunscreen Broad Spectrum SPF 35 tints 025; DIORSKIN FOREVER Perfect Makeup Everlasting Wear Pore-Refining Effect with Sunscreen Broad Spectrum SPF 35 tints 041; DIORSKIN FOREVER Perfect Makeup Everlasting Wear Pore-Refining Effect with Sunscreen Broad Spectrum SPF 35 tints 044; DIORSKIN FOREVER Perfect Makeup Everlasting Wear Pore-Refining Effect with Sunscreen Broad Spectrum SPF 35 tints 045; DIORSKIN FOREVER Perfect Makeup Everlasting Wear Pore-Refining Effect with Sunscreen Broad Spectrum SPF 35 tints 051; DIORSKIN NUDE BB CREME NUDE GLOW SKIN-PERFECTING BEAUTY BALM SUNSCREEN BROAD SPECTRUM SPF10 Tint 1; DIORSKIN NUDE BB CREME NUDE GLOW SKIN-PERFECTING BEAUTY BALM SUNSCREEN BROAD SPECTRUM SPF10 Tint 2; DIORSKIN NUDE BB CREME NUDE GLOW SKIN-PERFECTING BEAUTY BALM SUNSCREEN BROAD SPECTRUM SPF10 Tint 3; DIORSKIN NUDE BB CREME NUDE GLOW SKIN-PERFECTING BEAUTY BALM SUNSCREEN BROAD SPECTRUM SPF10 Tint 4; DIORSKIN NUDE TAN BB CREME HEALTHY GLOW SKIN-PERFECTING BEAUTY BALM SUNSCREEN BROAD SPECTRUM SPF15 Tint 1; DIORSKIN NUDE TAN BB CREME HEALTHY GLOW SKIN-PERFECTING BEAUTY BALM SUNSCREEN BROAD SPECTRUM SPF15 Tint 2; DIORSNOW BB Creme 010 White Reveal UV Protection Sunscreen Broad Spectrum SPF 50; DIORSNOW BB Creme 020 White Reveal UV Protection Sunscreen Broad Spectrum SPF 50; DIORSNOW Teint Fraicheur Eclaircissant White Reveal Fresh Transparency Liquid Foundation with Sunscreen Broad Spectrum SPF30 tints 010; DIORSNOW Teint Fraicheur Eclaircissant White Reveal Fresh Transparency Liquid Foundation with Sunscreen Broad Spectrum SPF30 tints 020; DIORSNOW Teint Fraicheur Eclaircissant White Reveal Fresh Transparency Liquid Foundation with Sunscreen Broad Spectrum SPF30 tints 021; DIORSNOW UV Shield White Reveal UV Protection BB Creme Pearly White SPF 50; DIORSNOW WHITE REVEAL PURE TRANSPARENCY MAKEUP SPF 30 010 Ivory; DIORSNOW WHITE REVEAL PURE TRANSPARENCY MAKEUP SPF 30 012 Porcelain; DIORSNOW WHITE REVEAL PURE TRANSPARENCY MAKEUP SPF 30 020 Light Beige; DIORSNOW WHITE REVEAL PURE TRANSPARENCY MAKEUP SPF 30 021 Linen; DIORSNOW WHITE REVEAL PURE TRANSPARENCY MAKEUP SPF 30 030 Medium Beige; DIORSNOW White Reveal UVB Protection Sunscreen Pearly White SPF 50; DIORSNOW White Reveal UVB Protection Sunscreen Translucent SPF 50; DNA Prime Natural SPF 45; DOCTOR WHITE Advanced Radiance UV Shield SPF 50; DONGINBI Red Ginseng Perfect Sun; DR. MERCOLA Sunscreen SPF-50; DR.G Moist Ample CC Cushion SPF50 Plus PA Plus Plus Plus Light Beige; DRH Intensive BB; DRH Intensive Sun Block; DTRT Boys Be Bold BB SPF 25; DTRT Get Ready BB SPF 50; Daily Care Sun; Daily Correct CC Cream Broad Spectrum SPF 35 Light; Daily Correct CC Cream Broad Spectrum SPF 35 Medium; Daily Correct CC Cream Broad Sunscreen SPF 35 Light/Medium; Daily Defense SPF 30 Oil Free Fluid; Daily Defense SPF 45; Daily Defense Sunblock; Daily Deflector Waterlight SPF 50; Daily Eclipse SPF 30 Tinted; Daily Eclipse SPF 30 Untinted; Daily Light Guard Defense Fluid Broad Spectrum SPF 30; Daily Protection Moisturizing Face Lotion (SPF 30); Daily Replenishing SPF 30; Daily UV Protector SPF 30 Sunscreen; Dal Cara Tone Up Sun Base; Dal Inner Cushion; Dal Inner Fit Bb; Dark Daylight Tinted Radiance Moisturizer Broad Spectrum SPF 32; Dark Foundation SPF 15; Dark Spot Sun Defense Broad Spectrum SPF 50; Darphin Cc Cream Instant Multi-benefit Care SPF 35; Darphin Cc Instant Multi-benefit Care Broad Spectrum SPF 35; Day Protection SPF 30; Day Radiance Cream Foundation; Day Radiance Liquid Foundation Lotion; Daydream Cushion Cloud Dream; Daydream Cushion Gentle Light; Daydream Cushion Magic Dream; Daydream Cushion Summer Hue; Daydream Cushion Sweet Secret; Daydream Cushion Warm Dusk; Daydream Mineral Makeup Primer SPF 30 Broad Spectrum; Daylight Tinted Radiance Moisturizer Broad Spectrum SPF 32 - Medium; Daylogic baby SPF 60; Daytime Anti-wrinkle Cream; Daytime Fluid; Daywear Bb Anti Oxidant Beauty Benefit Broad Spectrum SPF 35; Daywear Protective Moisture Creme SPF 15; Daywear Protective Moisture Lotion SPF 15; Daywear SPF 15 - Crm Top; Dd TZ Forte; De-Aging Moisturizing Day Creme With Sunscreen SPF 20; Dear Klairs Midday Blue Sunlotion; Dear Klairs Mochi BB Cushion Pact; Decorte AQ Uv Protection; Decree Daily Shield Broad Spectrum SPF 30 Sunscreen; Deep Bisque Foundation SPF 20; Deep Bisque Original; Deep Daylight Tinted Radiance Moisturizer Broad Spectrum SPF 32; Deep Tan Perfecting Makeup Broad Spectrum SPF 25 Merle Norman; Defense Creme Normal Dry SPF 15 Merle Norman; Defense Uv; Defense Zone Kids Broad Spectrum SPF 50 Sunscreen; Delicate Beige Expert Finish Makeup Broad Spectrum SPF 25 Merle Norman; Delicate Beige Perfecting Makeup SPF 25 Merle Norman; Deoproce Magic Bb 21 Natural Beige; Deoproce Magic Bb 23 Sand Beige; Deoproce Snail Galac Pearl Shining Bb 21 Natural Beige; Deoproce Snail Galac Pearl Shining Bb 23 Sand Beige; Deoproce Uv Defence Sun; Derm Dude Brightening Sunscreen SPF 50; Derm Institute Daily Defense Protection Sunscreen Broad Spectrum SPF50; DermShield; Derma Blemish Balm; Derma Blemish Balm blemish balm; Derma Blemish Stick SPF50; Derma Dr.lab Daily Mild Sun; Derma E Ultra Sheer Mineral Body Sunscreen Mist SPF 30; Derma Refiner Day Skin Perfecting Set; Derma Soleil Mineral Age-Free Facial Broad Spectrum SPF 50 Sunscreen; Derma Soleil Mineral Broad Spectrum SPF 30 Sunscreen; Derma Soleil Mineral Broad Spectrum SPF 50 Sunscreen; Derma Soleil Tinted Mineral Age-Free Facial BB Broad Spectrum SPF 30 Sunscreen; Derma Swiss SPF 50 Mineral; Derma White City Block Anti-pollution Spf40; DermaDoctor DD Eye SPF30; DermaQuest TM Skin Therapy, Breathable Coverage TM Mineral Foundation SPF-30, DermaMinerals TM; DermaShield; DermaSwiss Broad Spectrum SPF 50 Mineral; Dermablend Active Cover Creme Foundation SPF 15; Dermablend Cover; Dermablend Leg and Body Cover; Dermablend Professional Blurring Mousse Camo Foundation Broad Spectrum SPF 25 Sunscreen; Dermablend Professional Leg and Body Cover Full Coverage Body Foundation with SPF 15 Sunscreen; Dermablend Professional Smooth Camo Medium Coverage Foundation Broad Spectrum SPF 25 Sunscreen; Dermablend Quick Fix Concealer; Dermablend Smooth Indulgence Concealer; Dermablend Smooth Indulgence Foundation; DermacinRx Skin Moisturizing Ultra SPF 50 Sunscreen; Dermafirm Sunblock; Dermajetics Dual Action Foundation SPF 12; Dermaprot Helioprot Ab SPF 30; Dermaroller Anhydrous Sunscreen SPF 30; Dermaspf Sun Protect SPF 30; Dermaspf Sun Protect SPF 45; Dermatological Sun Protection; Dermectin Sunscreen Broad Spectrum SPF 30; Dermesse Sunscreen SPF30; Dermoessential Revival Balm; Desert Bambu Sunscreen SPF 30; Desert Beige Always Color Stay-On Makeup SPF 10; Desert Beige Always Stay-on Makeup SPF 15 Jafra; Desert Beige Perfecting Makeup SPF 25 Merle Norman; Desert Sun Protection Broad Spectrum SPF30; Despigmen Protective 25; Deter Outdoor Skin Protection Natural Mineral Sunscreen SPF 30; Detox & Protect Foundation SPF 15; Detox Healing BB; Detox and Protect Foundation SPF-15; Deux Derme - Age and Dark Spot Prevention; Diamond Luminous UV Defense Light Tinted Fluid Sunscreen Broad Spectrum SPF 40; Diamond White Brightening Shield Treatment Cream; Diamond White Matte Finish Sun Protection; Diamond White Oil-Free Brilliant Sun Protection; Diane Von Furstenberg Skin Tint / Fluide De Teint (honey, Myrrh,cinnamon); Diane Von Furstenberg Skin Tint /fluide De Teint (ivory, Nectar, Alabaster); Dior Bronze Collagen Activ SPF 15 001; Dior Bronze Collagen Activ SPF 15 002; Dior Bronze Collagen Activ SPF 15 003; Dior Bronze Collagen Activ SPF 15 004; Dior Bronze Matte Sunshine; Dior Bronze Voile Teinté; Dior Snow Light Veil 010 Ivory SPF 20; Dior Snow Light Veil 012 Porcelain SPF 20; Dior Snow Uvx2 Ultra-perfecteur De Teint SPF 35 - Beige 02; Dior Snow Uvx2 Ultra-perfecteur De Teint SPF 35 - Mauve 01; DiorSkin Nude 010 Ivory; DiorSkin Nude 012 Porcelain; DiorSkin Nude 020 Beige Praline; DiorSkin Nude 020 Light Beige; DiorSkin Nude 021 Linen; DiorSkin Nude 022 Cameo; DiorSkin Nude 023 Peach; DiorSkin Nude 030 Medium Beige; DiorSkin Nude 031 Sand; DiorSkin Nude 032 Rosy Beige; DiorSkin Nude 032 Sable Rose; DiorSkin Nude 033 The Passion; DiorSkin Nude 040 Golden Caramel; DiorSkin Nude 040 Honey Beige; DiorSkin Nude 050 Cafe Moka; DiorSkin Nude 050 Dark Beige; DiorSkin Nude 051 Dark Sand; DiorSkin Nude 052 Rosy Bronze; DiorSkin Nude 070 Dark Brown; DiorSkin forever Perfect Cushion Perfect Fresh Makeup Everlasting Luminous Matte Finish Pore-Refining Effect with Sunscreen Broad Spectrum SPF35 010; DiorSkin forever Perfect Cushion Perfect Fresh Makeup Everlasting Luminous Matte Finish Pore-Refining Effect with Sunscreen Broad Spectrum SPF35 011; DiorSkin forever Perfect Cushion Perfect Fresh Makeup Everlasting Luminous Matte Finish Pore-Refining Effect with Sunscreen Broad Spectrum SPF35 020; DiorSkin forever Perfect Cushion Perfect Fresh Makeup Everlasting Luminous Matte Finish Pore-Refining Effect with Sunscreen Broad Spectrum SPF35 021; DiorSkin forever Perfect Cushion Perfect Fresh Makeup Everlasting Luminous Matte Finish Pore-Refining Effect with Sunscreen Broad Spectrum SPF35 030; DiorSkin forever Perfect Cushion Perfect Fresh Makeup Everlasting Luminous Matte Finish Pore-Refining Effect with Sunscreen Broad Spectrum SPF35 040; DiorSnow Light Veil 020 Light Beige SPF 20; DiorSnow Light Veil 021 Linen SPF 20; DiorSnow White Reveal UV Shield Loose Powder Healthy Pink 002; DiorSnow White Reveal UV Shield Loose Powder Snowy White 001; DiorSnow White Reveal UV Shield Loose Powder Tender Peach 003; Diorprestige White Collection Satin Brightening Uv Base SPF 50; Diorskin Compact; Diorskin Eclat Doux; Diorskin Fluide; Diorskin Forever; Diorskin Forever & Ever Wear; Diorskin Forever Compact; Diorskin Forever Compact Teint Haute Perfection Tenue Fusionnelle; Diorskin Forever Perfect Makeupeverlasting Wear Pore-refining Effect; Diorskin Forever Teint Haute Perfection Tenue Fusionnelle; Diorskin Nude; Diorskin Nude Bb Creme Nude Glow Skin-perfecting Beauty Balm With Sunscreen Broad Spectrum Spf10 025; Diorskin Nude Compact Teint Poudre Éclat Effet Peau Nue Nude Glow Versatile Powder Makeup Fps 10 SPF; Diorskin Nude Teint Éclat Effet Peau Nue Nude Skin-glowing Makeup Fps 15 SPF; Diorskin Pure Light SPF 15; Diorskin Star; Diorsnow Uv Shield Bb Creme White Reveal Uv Protection SPF 50; Diorsnow White Reveal Perfecting Makeup Uv Base SPF 35 Beige Cristal; Diorsnow White Reveal Perfecting Makeup Uv Base SPF 35 Bleu Cristal; Diorsnow White Reveal Perfecting Makeup Uv Base SPF 35 Rose Cristal; Disinfectant B; Divine Illumination Divine Flawless Foundation SPF 50; Divine Lift Foundation SPF; Docs SKINCARE NATURAL SUNSCREEN SPF30; DoctorsLab Derma Cover Tattoo Foundation No.21; DoctorsLab Derma Cover Tattoo Foundation No.23; DoctorsLab Derma Skin Aura Pearl Base; Dolce and Gabbana Perfect Luminous Foundation Broadspectrum SPF 15 (All shades); Dolce and Gabbana The Foundation (all shades); Dolce and Gabbana The Lift Foundation Almond 150; Dolce and Gabbana The Lift Foundation Amber 148; Dolce and Gabbana The Lift Foundation Beige 78; Dolce and Gabbana The Lift Foundation Bisque 75; Dolce and Gabbana The Lift Foundation Bronze 144; Dolce and Gabbana The Lift Foundation Caramel 110; Dolce and Gabbana The Lift Foundation Classic 60; Dolce and Gabbana The Lift Foundation Creamy 80; Dolce and Gabbana The Lift Foundation Golden Honey 170; Dolce and Gabbana The Lift Foundation Natural Beige 120; Dolce and Gabbana The Lift Foundation Natural Glow 100; Dolce and Gabbana The Lift Foundation Rose Beige 140; Dolce and Gabbana The Lift Foundation Soft Sable 180; Dolce and Gabbana The Lift Foundation Soft Tan 160; Dolce and Gabbana The Lift Foundation Warm Rose 130; Donginbi Red Ginseng Radiance Cushion Bb 21; Donginbi Red Ginseng Radiance Cushion Bb 23; Dormer 211 SPF 30; Double Perfection Compact SPF 10; Double Perfection Creme Poudre - SPF 15; Double Perfection Lumiere Long-wear Flawless Sunscreen Makeup Broad Spectrum SPF 15, 10 Beige; Double Perfection Lumiere Long-wear Flawless Sunscreen Makeup Broad Spectrum SPF 15, 114 Ambre; Double Perfection Lumiere Long-wear Flawless Sunscreen Makeup Broad Spectrum SPF 15, 12 Beige Rose; Double Perfection Lumiere Long-wear Flawless Sunscreen Makeup Broad Spectrum SPF 15, 20 Beige; Double Perfection Lumiere Long-wear Flawless Sunscreen Makeup Broad Spectrum SPF 15, 22 Beige Rose; Double Perfection Lumiere Long-wear Flawless Sunscreen Makeup Broad Spectrum SPF 15, 30 Beige; Double Perfection Lumiere Long-wear Flawless Sunscreen Makeup Broad Spectrum SPF 15, 32 Beige Rose; Double Perfection Lumiere Long-wear Flawless Sunscreen Makeup Broad Spectrum SPF 15, 35 Beige Rose; Double Perfection Lumiere Long-wear Flawless Sunscreen Makeup Broad Spectrum SPF 15, 40 Beige; Double Perfection Lumiere Long-wear Flawless Sunscreen Makeup Broad Spectrum SPF 15, 42 Beige Rose; Double Perfection Lumiere Long-wear Flawless Sunscreen Makeup Broad Spectrum SPF 15, 52 Beige Rose; Double Perfection Lumiere Long-wear Flawless Sunscreen Makeup Broad Spectrum SPF 15, 60 Beige; Double Perfection Lumiere Long-wear Flawless Sunscreen Makeup Broad Spectrum SPF 15, 62 Beige Rose; Double Perfection Lumiere Long-wear Flawless Sunscreen Makeup Broad Spectrum SPF 15, 74 Ambre; Double Perfection Lumiere Long-wear Flawless Sunscreen Makeup Broad Spectrum SPF 15, 80 Beige; Double Use Compact SPF 15 gold deluxe edition Claire 1-2-3; Double Use Compact SPF 15 gold deluxe edition Claire 4; Double Use Compact SPF 15 gold deluxe edition Medium 5; Double Use Compact SPF 15 gold deluxe edition Medium 6; Double Use Compact SPF 15 gold deluxe edition Medium 7; Double Wear All Day Glow Bb Moisture Makeup Broad Spectrum SPF 30; Double Wear Cushion Bb All Day Wear Compact Broad Spectrum SPF 50; Double Wear Light Stay In Place Makeup SPF 10; Double Wear Maximum Cover Camouflage Makeup for Face and Body Broad Spectrum SPF 15; Double Wear Mineral Rich Loose Powder Makeup SPF 12; Double Wear Nude Water Fresh Makeup Broad Spectrum SPF 30; Double Wear Sheer Long-wear Makeup; Double Wear Stay In Place Concealer SPF 10; Double Wear Stay In Place High Cover Concealer Broad Spectrum SPF 35; Double Wear Stay In Place Makeup SPF 10; Double Wear Stay In Place SPF 10 Makeup; Dpc Pink Aura Cushion No.21; Dpc Pink Aura Cushion No.23; Dr Andrew Weils for Origins Mega-defense Advanced Daily Uv Defender Broad Spectrum SPF 45; Dr Deep SUN; Dr Frog Intensive Calming Sun Block; Dr Frog Pp Sun Block; Dr LeE UV ICE SHIELD; Dr MEDECEAN Rising Sun Cover; Dr Young Protect Prevent 2P Blemish Base; Dr Young Protect Prevent 2P Pearl Brightening Balm; Dr Young Protect Prevent Triple Action BB; Dr Young Protect Prevent UV Cut and Ultra Light Sun; Dr. G A Clear Oil Control Sun SPF50 Plus PA Plus Plus Plus; Dr. G A Clear Sensi Acne Sun SPF43 PA Plus Plus Plus; Dr. G Brightening Up Sun SPF 42 PA Plus Plus Plus; Dr. G Moist Ample CC Cushion SPF 50 Plus PA Plus Plus Plus Natural Beige; Dr. Jart BB Boys Be Bold; Dr. Jart BB Get Ready; Dr. Jart Bounce Beauty Balm 01 Light-medium; Dr. Jart Bounce Beauty Balm 02 Medium-Deep; Dr. Jart DIS-A-PORE Beauty Balm; Dr. Jart Hydrafull Beauty Balm; Dr. Jart Illuminating BB Brush; Dr. Jart Nourishing Beauty Balm; Dr. Jart Premium Beauty Balm; Dr. Jart RADIANCE Beauty Balm; Dr. Jart Rejuvenating Beauty Balm; Dr. Jart Shimmering Beauty Balm 01 Light - Medium; Dr. Jart Shimmering Beauty Balm 02 Medium - Deep; Dr. Jart Smart BB 01; Dr. Jart Smart BB 02; Dr. Jart Water Fuse Beauty Balm; Dr. Mercola Broad Spectrum; Dr. eslee Intensive Recovery Blemish Balm; Dr.Althea Double Serum Balm Foundation 23; Dr.G Age Defense BB SPF50 Plus PA Plus Plus; Dr.G Brightening Balm SPF30 PA Plus Plus; Dr.G Brightening Up Cushion SPF50 Plus PA Plus Plus Plus; Dr.G Brightening Up Sun; Dr.G Brightening Up Sun Stick; Dr.G DEEP MOIST UP SUN; Dr.G Daily Safe BB SPF30 PA Plus Plus; Dr.G Green Mild Up Sun; Dr.G Medi UV Ultra Sun SPF 50 Plus PA Plus Plus Plus; Dr.G Perfect Pore Cover BB SPF30 PA Plus Plus; Dr.G Radiance Dual Essence BB SPF50 Plus PA Plus Plus Plus; Dr.G Super Light Brightening Balm SPF30 PA PLUS PLUS; Dr.Jart Air Mesh; Dr.Jart BB Mate Contouring 01; Dr.Jart BB Mate Contouring 02; Dr.Jart BB Mate Contouring 03; Dr.Jart Black Label Detox BB Beaty Balm; Dr.Jart Black Label Detox Beauty Balm; Dr.Jart Bounce Beauty Balm Moist 01 Light; Dr.Jart Bounce Beauty Balm Moist 02 Medium Deep; Dr.Jart CC Essence Balm 01 Light - Medium; Dr.Jart CC Essence Balm 02 Medium - Deep; Dr.Jart Cicapair Tiger Grass Camo Drops; Dr.Jart Cicapair Tiger Grass Color Correcting Treatment; Dr.Jart Dis-A-Pore Beauty Balm 01; Dr.Jart Dis-A-Pore Beauty Balm 02; Dr.Jart Dis-A-Pore Beauty Balm 02 MEDIUM-DEEP; Dr.Jart Every Sun Day Illuminating Sunscreen SPF 36; Dr.Jart Every Sun Day Mineral Sun Screen; Dr.Jart Every Sun Day Sunscreen SPF 50; Dr.Jart For Men Active BB Block; Dr.Jart Premium Beauty Balm 01 Light medium; Dr.Jart Premium Beauty Balm 02; Dr.Jart Premium Beauty Balm 02 Medium deep; Dr.Jart Premium Beauty Balm 03 Deep; Dr.Jart Premium Beauty Balm Deep Tan-Deep; Dr.Jart Premium Beauty Balm Fair-Light; Dr.Jart Premium Beauty Balm Light Medium-Medium; Dr.Jart Premium Beauty Balm Medium-Tan; Dr.Jart Renewalist BB; Dr.Jart V7 Beauty Balm; Dr.Jucre Rebirth White BB; Dr.althea Aurora Cover Cushion 21; Dr.g Primer Bb Protector Spf38; Dr.jart Cicapair Tiger Grass Camo Drops; Dr.jart Every Sun Day Mineral Sun Screen; Druide Biolove Kids Mineral Sunscreen Spf30; Drymarine Age Control; Durascreen SPF 15-lot; Durascreen SPF 30; Dynamic Defense Mineral Shield Broad Spectrum SPF30 Sunscreen; Défense Plein Soleil; E NATURE Plantlicious UV CC cushion 21; E NATURE Plantlicious UV CC cushion 23; E NATURE Plantlicious UV sunblock; EAU THERMALE Avene Antirougeurs DAY Redness-relief Soothing BROAD SPECTRUM SPF 25; EAU THERMALE Avene High Protection Mineral BROAD SPECTRUM SPF 50; EAU THERMALE Avene Hydrance Optimale Hydrating BROAD SPECTRUM SPF 25; EAU THERMALE Avene Moderate Protection BROAD SPECTRUM SPF 20; ECO SOUL Essence Cushion Matt Longwear 21; ECO SOUL Essence Cushion Matt Longwear 23; EFFET PARFAIT natural finish moisturizing foundation SPF 25; ELF Beautifully Bare Foundation Serum Dark Deep With Goji Berry SPF 25; ELF Beautifully Bare Foundation Serum Deep With Goji Berry SPF 25; ELF Beauty Shield SPF 50 Skin Shielding Moisturizer; ELF Flawless Finish Foundation Oil Free SPF 15 Sunscreen Alabaster; ELF Flawless Finish Foundation Oil Free SPF 15 Sunscreen Light Ivory; ELF Flawless Finish Foundation SPF 15 Oil Free; ELF Mineral Concealers SPF 15; ELF Mineral Foundation SPF 15; ELF Mineral Lip Tint SPF 8; ELF Mineral Moisturizing Lip Tint SPF 8; ELF Oil free flawless Finish SPF 15 Sunscreen Foundation Almond; ELF Oil free flawless Finish SPF 15 Sunscreen Foundation Buff; ELF Oil free flawless Finish SPF 15 Sunscreen Foundation Caramel; ELF Oil free flawless Finish SPF 15 Sunscreen Foundation Coco; ELF Oil free flawless Finish SPF 15 Sunscreen Foundation Porcelain; ELF Oil free flawless Finish SPF 15 Sunscreen Foundation Sand; ELF Personal Blend Foundation SPF 15; ELF SPF 45 Sunscreen UVA/UVB Protection; ELF Tinted Moisturizer SPF 20; EMINORE - Daily Mineral Sunscreen Moisturizer Broad Spectrum SPF 30; ERBORIAN DOUBLE SAMPLE CC CREME CLAIR and DORE SPF 25; ESIKA 3-in-1 Pro Makeup Foundation SPF 20; ESIKA PERFECT SKIN COVERAGE CONCEALER SPF 17 (Beige 1) - BEIGE; ESIKA PERFECT SKIN COVERAGE CONCEALER SPF 17 (Beige 2) - BEIGE; ESIKA PERFECT SKIN COVERAGE CONCEALER SPF 17 (Beige 3) - BEIGE; ESIKA PERFECT SKIN COVERAGE CONCEALER SPF 17 (Beige 4) - BEIGE; ESIKA PERFECT SKIN COVERAGE CONCEALER SPF 17 (Beige 5) - BEIGE; ESIKA PERFECT SKIN COVERAGE CONCEALER SPF 17 (Beige 6) - BEIGE; ESIKA PERFECT SKIN COVERAGE CONCEALER SPF 17 (Rosa 1) - PINK; ESIKA PERFECT SKIN COVERAGE CONCEALER SPF 17 (Rosa 2) - PINK; ESIKA PERFECT SKIN COVERAGE CONCEALER SPF 17 (Rosa 3) - PINK; ESIKA PERFECT SKIN COVERAGE CONCEALER SPF 17 (Rosa 4) - PINK; ESIKA PERFECT SKIN COVERAGE CONCEALER SPF 17 (Rosa 5) - PINK; ESIKA PERFECT SKIN COVERAGE CONCEALER SPF 17 (Rosa 6) - PINK; ESIKA Perfect Sun Kids; ESIKA Silk Skin Face SPF 9; ESIKA Silk Skin SPF 9 (terracota) - BEIGE; ESIKA Silk Skin SPF 9 (translucido) - BEIGE; ESMIA AIR CUSHION Buff 25; ESMIA AIR CUSHION Caramel 31; ESMIA AIR CUSHION Natural Beige 27; ESMIA AIR CUSHION Sun Beige 29; ESMIA BB Beige 23; ESMIA BB Buff 25; ESMIA BB Caramel 31; ESMIA BB Light Beige 21; ESMIA BB Natural Beige 27; ETUDE HOUSE Precious Mineral BB Bright Fit Natural Beige W13; ETUDE HOUSE Precious Mineral BB Bright Fit SPF 30 Honey Beige W24; EVEN DEFENSE Mineral Sunscreen Broad Spectrum SPF 30; EVERLASTING FOUNDATION Broad Spectrum SPF15 Ivory 103; EVERLASTING FOUNDATION Broad Spectrum SPF15 Nude 105; EVERLASTING FOUNDATION Broad Spectrum SPF15 amber 112; EVERLASTING FOUNDATION Broad Spectrum SPF15 beige 107; EVERLASTING FOUNDATION Broad Spectrum SPF15 capuccino 114; EVERLASTING FOUNDATION Broad Spectrum SPF15 caramel 112.5; EVERLASTING FOUNDATION Broad Spectrum SPF15 chestnut 113; EVERLASTING FOUNDATION Broad Spectrum SPF15 coffee 116.5; EVERLASTING FOUNDATION Broad Spectrum SPF15 cognac 115; EVERLASTING FOUNDATION Broad Spectrum SPF15 hazelnut 117; EVERLASTING FOUNDATION Broad Spectrum SPF15 honey 110; EVERLASTING FOUNDATION Broad Spectrum SPF15 sand 108; EVERLASTING FOUNDATION Broad Spectrum SPF15 sienna 118; EVERLASTING FOUNDATION Broad Spectrum SPF15 wheat 109; EX CUSEME Brightening SunCream; EX-glow-sion SPF-20; EXODERMA Silky Sun Cream; Earth Baby Broad Spectrum SPF 30; Earth and Vine BB Broad Spectrum SPF 15 Sunscreen; Earths Best Mineral Sunscreen Broad Spectrum SPF30; Easydew Daily Baby Care Sun; Easydew Daily Baby Smoothing Sun; Easydew Daily Fresh Mild Sun; Easydew Daily Fresh Mild Sun SPF50 Plus; Easydew Daily Water Proof Sun; Easydew EX Fresh Mild SunScreen SPF50 PLUS PA PLUS PLUS PLUS; Easydew EX Mineral BB SPF45 PA PLUS PLUS; Eau Thermale Avene Complexion Correcting Shield Dark Mineral Sunscreen SPF 50 Plus; Eau Thermale Avene Complexion Correcting Shield Light Mineral Sunscreen SPF 50 Plus; Eau Thermale Avene Complexion Correcting Shield Medium Mineral Sunscreen SPF 50 Plus; Eau Thermale Avene Hydrating Sunscreen Balm SPF 50 Plus; Eau Thermale Avene Mineral Light Hydrating Sunscreen SPF 50; Eau Thermale Avene Mineral Light Mattifying Sunscreen SPF 50 Plus; Eau Thermale Avene Mineral Sunscreen Fluid SPF 50 Plus; Eau Thermale Avene Mineral Ultra-Light Hydrating Sunscreen SPF 50; Eau Thermale Avene Tinted Mineral Sunscreen Fluid SPF 50 Plus; Eaudeleman Cosmetic UV Liquid; Eclipse SPF 50 All Shades; Eclipse SPF 50 Perfectint Beige; Eco Barrier Non Chemical Sun; Eco Earth Power Blue Defense Sun Milk; Eco Earth Power Face and Body Waterproof Sun Block; Eco Earth Power Green Sun; Eco Earth Power Mild Kids Sun; Eco Earth Power Mild Sun Cushion; Eco Earth Power No Sebum Sun; Eco Earth Power Perfection Waterproof Sun Block; Eco Earth Power Pink Sun; Eco Earth Power Tone Up Sun; Eco Soul Bounce Crea m Foundation 01 Light Beige; Eco Soul Bounce Crea m Foundation 02 Natural Beige; Eco Soul Bounce Crea m Foundation Matte 01 Light Beige; Eco Soul Bounce Crea m Foundation Matte 02 Natural Beige; Eco Soul Essence Cushion All Cover 13; Eco Soul Essence Cushion All Cover 17; Eco Soul Essence Cushion All Cover 21; Eco Soul Essence Cushion All Cover 23; Eco Soul Essence Cushion Aqua Max 21; Eco Soul Essence Cushion Aqua Max 23; Eco Soul Essence Cushion Moisture Lasting 13; Eco Soul Essence Cushion Moisture Lasting 17; Eco Soul Essence Cushion Moisture Lasting 21; Eco Soul Essence Cushion Moisture Lasting 23; Eco Soul Luminous Original BB 01 Light Beige; Eco Soul Luminous Original BB 02 Natural Beige; Eco Soul Luminous Photoshop Pact 21 Light Beige; Eco Soul Luminous Photoshop Pact 23 Natural Beige; Eco Soul Perfect Cover Pact 21 Light Beige; Eco Soul Perfect Cover Pact 23 Natural Beige; Eco Soul Porcelain Skin BB Cre am 01 Light Beige; Eco Soul Porcelain Skin BB Cre am 02 Natural Beige; Eco Soul Power Proof Cooling BB Cushion 01 Aqua Beige; Eco Soul Power Proof Cooling BB Cushion 02 Neutral Beige; Eco Soul Real Cover BB 21 Light Beige; Eco Soul Real Cover BB 23 Natural Beige; Eco Soul Real Fit Foundation 21 Clear Beige; Eco Soul Real Fit Foundation 23 Rich Beige; Eco Soul Real Fit Makeup Base 01 Green; Eco Soul Real Fit Makeup Base 02 Lavender; Eco Soul Skin Wear BB 13; Eco Soul Skin Wear BB 21; Eco Soul Skin Wear BB 23; Eco Soul Skin Wear Foundation 01; Eco Soul Skin Wear Foundation 03; Eco Soul Skin Wear Foundation C 02; Eco Soul Skin Wear Foundation C 1.5; Eco Soul Skin Wear Foundation N 02; Eco Soul Skin Wear Foundation N 1.5; Eco Soul Spau BB 01 Light Beige; Eco Soul Spau BB 02 Natural Beige; Eco Soul Spau BB Cake 01 Light Beige; Eco Soul Spau BB Cake 02 Natural Beige; Eco Soul Spau BB Cushion 01 Light Beige; Eco Soul Spau BB Cushion 02 Natural Beige; Eco Soul Spau Serum Foundation 01 Light Beige; Eco Soul Spau Serum Foundation 02 Natural Beige; Eco Soul Tone Up CC 01 Vital Tone; Eco Soul Tone Up CC 02 Natural Tone; Eco Soul Tone Up CC 03 Clear Bright; Eco Soul True Moist Pact 21 Light Beige; Eco Soul True Moist Pact 23 Natural Beige; Eco Soul UV Sun Pact 21 Light Beige; Eco Soul UV Sun Pact 23 Natural Beige; Eco-designed Uv Lotion; EcoStick Sunscreen SPF 35; Ecran Solaire Citronelle Naturelle - Crm 9%; Ecran Solaire Fps 30 Lot; Ecran Solaire SPF 15 - Crm; Ecran Soleil; Ecran Soleil - Crm Top; Ecran Soleil SPF 30; Ecran Total Anti-intolerance SPF 30-crm; Ecran Total Solaire Fps 25; Edelweiss Pure Sun; Eezy Pro SPF 30; Eezy Pro SPF 50; Eezy Pro SPF30; Eezy Pro SPF50; Eezy Sun SPF 30; Eezy Sun SPF 50; Eezy pro; Eezysun SPF50 Babies and Kids; Eezysun Sunscreen SPF 50 with Aloe Vera, Marine Friendly; Egf Fgf Dna Uv Shield; Egf Uv Shield; Ehukai Beige Foundation Sunscreen Face Broad Spectrum SPF 38; Ehukai Beige Foundation Sunscreen Face Stick Broad Spectrum SPF 38; Elastology Age Blocker; Elastology Age Blocker Moisturizer and SPF 30 Sunscreen; Elastology Age Blocker SPF 25; Elemental Resestance Broad Spectrum SPF 50 Vertra; Elemental Resistance Broad Spectrum SPF 50 Vertra; Elevated Ultimate Sun Defense BroadSpectrum SPF 30 (UVA/UVB) Sunscreen; Elevated Ultimate Tinted Sun Defense Broad Spectrum SPF 30 (UVA/UVB) Sunscreen; Elf Tinted Moisturizer SPF-20; Elizabeth Arden Flawless Finish Dual Perfection Makeup; Elizabeth Arden Let There Be Light Radiant Skin Lotion; Elizabeth Arden Let There Be Light Radiant Skin Powder Compact; Elizabeth Arden Prevage Anti-aging Foundation Broad Spectrum Sunscreen SPF 30; Elizabeth Arden Prevage City Smart Broad Spectrum SPF 50 Hydrating Shield; Elizabeth Arden Pure Finish Mineral Tinted Moisture Cream SPF 15; Elizabeth Mott Face Primer Broad Spectrum SPF 30; Elta MD UV Pure SPF47; EltaMD UV Active; EltaMD UV Elements; EltaMD UV Elements SPF44; EltaMD UV Luminous; EltaMD UV Physical SPF41; EltaMD UV PhysicalSPF 41 SPF 41; EltaMD UV Pure SPF47; EltaMD UV Replenish Broad Spectrum SPF44; EltaMD UV Restore; EltaMD UV Restore Tinted; Em Michelle Phan The Everything Tinted Makeup Cc; Emmune Flobe Effect Cushion; Emulsion SPF 50+; Enesti Multiple Essence BB Cream; Enesti UV-Cut Sunblock; Enfanti Derma Series 100% Mineral Sun Shield; Enlighten Ee Even Effect Skin Tone Corrector SPF Broad Spectrum SPF 30; Environ Suncare Broad Spectrum SPF 30; Epionce Daily Shield Tinted SPF 50; Epl Daily Sun Block; Equalizer Smart Makeup SPF 10; Equate Sunscreen SPF 50 KIDS Broad Spectrum; Equate ZIinc Sunscreen ULTRA Broad Spectrum; Era Organics Mineral Based SPF 15; Erase It Kit; Erborian - Bb Creme Au Ginseng Caramel Spf20; Erborian - Bb Creme Au Ginseng Clair SPF 20; Erborian - Bb Creme Au Ginseng Dore SPF 20; Erborian - Bb Creme Nude Spf20; Erborian - Cc Creme High Definition SPF 25; Erborian - Cc Creme High Definition Spf25 Clair; Erborian BB Creme Au Ginseng; Erborian BB Creme Au Ginseng Dore; Erborian BB creme au Ginseng chocolate SPF 20; Erborian CC Dull Correct SPF25; Erborian Cc Creme High Definition SPF 25 Caramel; Erborian Cc Red Correct SPF 25; Eryfotona Actinica Mineral; Eryfotona Ageless Tinted Mineral; Esika 3-IN-1 Pro Make Up Foundation SPF 20 Base De Maquillaje Para Rostro 3-EN-1 Pro Fps 20 (beige 1) - Beige; Esika 3-IN-1 Pro Make Up Foundation SPF 20 Base De Maquillaje Para Rostro 3-EN-1 Pro Fps 20 (beige 2) - Beige; Esika 3-IN-1 Pro Make Up Foundation SPF 20 Base De Maquillaje Para Rostro 3-EN-1 Pro Fps 20 (beige 3) - Beige; Esika 3-IN-1 Pro Make Up Foundation SPF 20 Base De Maquillaje Para Rostro 3-EN-1 Pro Fps 20 (beige 4) - Beige; Esika 3-IN-1 Pro Make Up Foundation SPF 20 Base De Maquillaje Para Rostro 3-EN-1 Pro Fps 20 (beige 5) - Beige; Esika 3-IN-1 Pro Make Up Foundation SPF 20 Base De Maquillaje Para Rostro 3-EN-1 Pro Fps 20 (beige 6) - Beige; Esika 3-IN-1 Pro Make Up Foundation SPF 20 Base De Maquillaje Para Rostro 3-EN-1 Pro Fps 20 (rose 1) - Rose; Esika 3-IN-1 Pro Make Up Foundation SPF 20 Base De Maquillaje Para Rostro 3-EN-1 Pro Fps 20 (rose 2) - Rose; Esika 3-IN-1 Pro Make Up Foundation SPF 20 Base De Maquillaje Para Rostro 3-EN-1 Pro Fps 20 (rose 3) - Rose; Esika 3-IN-1 Pro Make Up Foundation SPF 20 Base De Maquillaje Para Rostro 3-EN-1 Pro Fps 20 (rose 4) - Rose; Esika 3-IN-1 Pro Make Up Foundation SPF 20 Base De Maquillaje Para Rostro 3-EN-1 Pro Fps 20 (rose 5) - Rose; Esika 3-IN-1 Pro Make Up Foundation SPF 20 Base De Maquillaje Para Rostro 3-EN-1 Pro Fps 20 (rose 6) - Rose; Esika Perfect Skin Coverage Concealer SPF 17; Esika Pro Compact High Definintion and Double Finish SPF 15 CLEAR 1 - BEIGE; Esika Pro Compact High Definintion and Double Finish SPF 15 CLEAR 2 - BEIGE; Esika Pro Compact High Definintion and Double Finish SPF 15 MEDIUM 1 - BEIGE; Esika Pro Compact High Definintion and Double Finish SPF 15 MEDIUM 2 - BEIGE; Esika Pro Compact High Definintion and Double Finish SPF 15 MEDIUM 3 - BEIGE; Esika Pro Compact High Definintion and Double Finish SPF 15 MEDIUM 4 - BEIGE; Esika Pro Compact High Definintion and Double Finish SPF 15 MEDIUM 5 - BEIGE; Esika Protector Against Solar Rays for Children, Face and Body SPF 50; Esika Silk Skin; Esika Silk Skin Terracota; Esika Silk Skin Translucido; Esmia Air Cushion Beige 23; Esmia Air Cushion Light Beige 21; Esmia Bb Sun Beige 29; Esopinio Fresh and Clear Foundation Spf20; Esopinio Sun Shield Plus SPF 35 Pa; Essence Air Cushion Light; Essence Air Cushion Medium; Essence Air Cushion Medium Deep; Essence Air Cushion Medium Light; Essential Defense Mineral Shield Broad Spectrum SPF 32 TINTED Sunscreen; Essential Defense Mineral Shield Broad Spectrum SPF 35 Sunscreen; Essential-C Day Moisture SPF 30; Estee Lauder Amber Bronze Cool Bronze Loose Powder SPF 8; Estee Lauder Clear Difference Bb Complexion Perfecting Bb CRème SPF 35; Estee Lauder Daywear B.b Multi-perfecting Beauty Benefit CRème SPF 35; Estee Lauder Daywear Plus Multi Protection Eye Cream SPF 15; Estee Lauder Double Wear All-day Glow Bb Moisture Makeup SPF 30; Estee Lauder Double Wear Nude Water Fresh Makeup SPF 30; Estee Lauder Double Wear Sheer Long-wear Makeup Broad Spectrum SPF 19; Estee Lauder Double Wear Soft Glow Matte Cushion Makeup Broad Spectrum SPF 36; Estee Lauder Double Wear Stay-IN-place Concealer SPF 10; Estee Lauder Double Wear Stay-IN-place High Cover Concealer SPF 35; Estee Lauder Enlighten Ee Even Effect Skintone Corrector SPF 30; Estee Lauder Enlighten Skin-enhancing Makeup SPF 10; Estee Lauder Lucidity Light-diffusing Concealer SPF 8; Estee Lauder Perfectionist Youth-infusing Makeup SPF 25; Estee Lauder Re-nutriv Ultra Radiance Makeup SPF 15; Estee Lauder Resilience Lift Extreme Liquid Makeup SPF 15; Estee Lauder Resilience Lift Extreme Ultra Firming Creme SPF 15 Dry Skin; Estee Lauder Resilience Lift Extreme Ultra Firming Lotion SPF 15; Estee Lauder Resilience Lift Face and Throat Lotion SPF 15; Estee Lauder Resilience Lift Firming/sculpting Face and Neck Lotion SPF 15; Estee Lauder Revelation Age-resisting Hand Creme SPF 15; Estee Lauder So Ingenious Multi-dimension Makeup SPF 8; Estee Lauder Sunblock for Body SPF 15; Estee Lauder Sunblock for Body SPF 25; Estro-Lift Day Therapy; Estro-Lift Day Therapy Moisturizer and SPF 30 Sunscreen; Estée Lauder Perfectionist Serum Compact Makeup SPF 15; Estée Lauder Sunblock for Face SPF 15; Eternal Spirit Beauty Broad Spectrum SPF 30; Ethereal Rose SPF 15; Etival Cc Cream; Eucerin; Eucerin Daily Protection Body; Eucerin Daily Protection Face; Eucerin Everyday Protection Face; Eucerin Redness Relief Daily Perfecting; Eve Lom Brilliant Cover Concealer Broad Spectrum SPF 15 Sunscreen; Eve Lom Radiance Lift Foundation SPF 15; Eve Lom Radiance Perfected Tinted Moisturiser Broad Spectrum SPF 15 Sunscreen; Eve Lom Radiance Perfected Tinted Moisturiser SPF 15; Eve Lom Radiant Glow Cream Foundation Broad Spectrum SPF 30 Sunscreen; Even Better Compact Makeup Broad Spectrum Spf15; Even Better Glow Light Reflecting Makeup Broad Spectrum SPF 15; Even Better Makeup Broad Spectrum SPF 15; Even Better Makeup SPF 15 Evens and Corrects; Even Tone Mineral Sunscreen Broad Spectrum SPF 36 Medium - Dark; Even Tone Mineral Sunscreen Broad Spectrum SPF 40 Light - Medium; Even Up Sunscreen SPF 50; EverGlam BB Natural Beige; Evereden SPF50 Premium Mineral Sunscreen; Everlasting Compact Foundation SPF 15 TINT 103; Everlasting Compact Foundation SPF 15 TINT 104; Everlasting Compact Foundation SPF 15 TINT 107; Everlasting Compact Foundation SPF 15 TINT 108; Everlasting Compact Foundation SPF 15 TINT 109; Everlasting Compact Foundation SPF 15 TINT 110; Everlasting Compact Foundation SPF 15 TINT 112; Everlasting Compact Foundation SPF 15 TINT 113; Everlasting Compact Foundation SPF 15 TINT 114; Everlasting Compact Foundation SPF 15 Tint 105; Everlasting Cushion Fps 50 / SPF 50; Everyday 50 SPF50; Everyday Natural Mineral Sunscreen Broad Spectrum SPF 30; Exel; Exel Clarifying Line SPF 50; Expert Finish Makeup Broad Spectrum SPF 25; Express Make Up 3 In 1 SPF 15; Extra Lasting Cream-TO-powder Foundation; Extra Light Tinted Radiance Moisturizer Broad Spectrum SPF 32; Extralasting Cream-to-Powder Foundation; Extralasting Liquid Foundation; Extreme Protect SPF 40 All Shades; Exuviance CoverBlend Concealing Treatment Makeup SPF 30 Bisque; Exuviance CoverBlend Concealing Treatment Makeup SPF 30 Caramel; Exuviance CoverBlend Concealing Treatment Makeup SPF 30 Classic Beige; Exuviance CoverBlend Concealing Treatment Makeup SPF 30 Desert Sand; Exuviance CoverBlend Concealing Treatment Makeup SPF 30 Golden Beige; Exuviance CoverBlend Concealing Treatment Makeup SPF 30 Honey Sand; Exuviance CoverBlend Concealing Treatment Makeup SPF 30 Mocha; Exuviance CoverBlend Concealing Treatment Makeup SPF 30 Neutral Sand; Exuviance CoverBlend Concealing Treatment Makeup SPF 30 Terracotta Sand; Exuviance CoverBlend Concealing Treatment Makeup SPF 30 Toasted Almond; Exuviance CoverBlend Concealing Treatment Makeup SPF 30 True Beige; Exuviance CoverBlend Concealing Treatment Makeup SPF 30 Warm Beige; Exuviance CoverBlend Skin Caring Foundation SPF 15 Bisque; Exuviance CoverBlend Skin Caring Foundation SPF 15 Blush Beige; Exuviance CoverBlend Skin Caring Foundation SPF 15 Desert Sand; Exuviance CoverBlend Skin Caring Foundation SPF 15 Honey Sand; Exuviance CoverBlend Skin Caring Foundation SPF 15 Ivory; Exuviance CoverBlend Skin Caring Foundation SPF 15 Neutral Beige; Exuviance CoverBlend Skin Caring Foundation SPF 15 Neutral Sand; Exuviance CoverBlend Skin Caring Foundation SPF 15 Terracotta Sand; Exuviance CoverBlend Skin Caring Foundation SPF 15 True Beige; Exuviance CoverBlend Skin Caring Foundation SPF 15 True Mahogany; Exuviance CoverBlend Skin Caring Foundation SPF 15 Warm Beige; Exuviance CoverBlend Skin Caring Foundation SPF 20 Bisque; Exuviance CoverBlend Skin Caring Foundation SPF 20 Blush Beige; Exuviance CoverBlend Skin Caring Foundation SPF 20 Classic Beige; Exuviance CoverBlend Skin Caring Foundation SPF 20 Desert Sand; Exuviance CoverBlend Skin Caring Foundation SPF 20 Golden Beige; Exuviance CoverBlend Skin Caring Foundation SPF 20 Honey Sand; Exuviance CoverBlend Skin Caring Foundation SPF 20 Neutral Beige; Exuviance CoverBlend Skin Caring Foundation SPF 20 Toasted Almond; Exuviance CoverBlend Skin Caring Foundation SPF 20 True Beige; Exuviance CoverBlend Skin Caring Foundation SPF 20 Warm Beige; Exuviance Essential Daily Defense SPF 30; Exuviance Multi Protective Day SPF 20; Exuviance Professional Sheer Daily Protector Sunscreen Broad Spectrum SPF 50; Exuviance Sheer Daily Protector SPF 50; Exuviance Skin Caring BB Fluid with Sunscreen Broad Spectrum SPF 50; Eye Creme Merle Norman; Eye Protection; FACE IT BB (Natural Beige) 32800379; FACE IT Radiance Two Way Cake NB21; FACE IT Radiance Two Way Cake NB23; FACE TONE Controller 01 SPF30; FACE TONE Controller SPF30; FACE it 32800378; FERMIERPAPA Pure Moringa Sunscreen; FLORIA WHITENING DAY SPF15 PA Plus; FOREVER 24h Wear High Perfection Skin Caring Foundation With Sunscreen BROAD SPECTRUM SPF 35 Lasting Comfort and Care 0,5N; FOREVER 24h Wear High Perfection Skin Caring Foundation With Sunscreen BROAD SPECTRUM SPF 35 Lasting Comfort and Care 0N; FOREVER 24h Wear High Perfection Skin Caring Foundation With Sunscreen BROAD SPECTRUM SPF 35 Lasting Comfort and Care 1,5N; FOREVER 24h Wear High Perfection Skin Caring Foundation With Sunscreen BROAD SPECTRUM SPF 35 Lasting Comfort and Care 1C; FOREVER 24h Wear High Perfection Skin Caring Foundation With Sunscreen BROAD SPECTRUM SPF 35 Lasting Comfort and Care 1CR; FOREVER 24h Wear High Perfection Skin Caring Foundation With Sunscreen BROAD SPECTRUM SPF 35 Lasting Comfort and Care 1N; FOREVER 24h Wear High Perfection Skin Caring Foundation With Sunscreen BROAD SPECTRUM SPF 35 Lasting Comfort and Care 1W; FOREVER 24h Wear High Perfection Skin Caring Foundation With Sunscreen BROAD SPECTRUM SPF 35 Lasting Comfort and Care 2,5N; FOREVER 24h Wear High Perfection Skin Caring Foundation With Sunscreen BROAD SPECTRUM SPF 35 Lasting Comfort and Care 2CR; FOREVER 24h Wear High Perfection Skin Caring Foundation With Sunscreen BROAD SPECTRUM SPF 35 Lasting Comfort and Care 2N; FOREVER 24h Wear High Perfection Skin Caring Foundation With Sunscreen BROAD SPECTRUM SPF 35 Lasting Comfort and Care 2W; FOREVER 24h Wear High Perfection Skin Caring Foundation With Sunscreen BROAD SPECTRUM SPF 35 Lasting Comfort and Care 2W0; FOREVER 24h Wear High Perfection Skin Caring Foundation With Sunscreen BROAD SPECTRUM SPF 35 Lasting Comfort and Care 2WP; FOREVER 24h Wear High Perfection Skin Caring Foundation With Sunscreen BROAD SPECTRUM SPF 35 Lasting Comfort and Care 3,5N; FOREVER 24h Wear High Perfection Skin Caring Foundation With Sunscreen BROAD SPECTRUM SPF 35 Lasting Comfort and Care 3C; FOREVER 24h Wear High Perfection Skin Caring Foundation With Sunscreen BROAD SPECTRUM SPF 35 Lasting Comfort and Care 3CR; FOREVER 24h Wear High Perfection Skin Caring Foundation With Sunscreen BROAD SPECTRUM SPF 35 Lasting Comfort and Care 3N; FOREVER 24h Wear High Perfection Skin Caring Foundation With Sunscreen BROAD SPECTRUM SPF 35 Lasting Comfort and Care 3W; FOREVER 24h Wear High Perfection Skin Caring Foundation With Sunscreen BROAD SPECTRUM SPF 35 Lasting Comfort and Care 3W0; FOREVER 24h Wear High Perfection Skin Caring Foundation With Sunscreen BROAD SPECTRUM SPF 35 Lasting Comfort and Care 3WP; FOREVER 24h Wear High Perfection Skin Caring Foundation With Sunscreen BROAD SPECTRUM SPF 35 Lasting Comfort and Care 4,5N; FOREVER 24h Wear High Perfection Skin Caring Foundation With Sunscreen BROAD SPECTRUM SPF 35 Lasting Comfort and Care 4,5W; FOREVER 24h Wear High Perfection Skin Caring Foundation With Sunscreen BROAD SPECTRUM SPF 35 Lasting Comfort and Care 4C; FOREVER 24h Wear High Perfection Skin Caring Foundation With Sunscreen BROAD SPECTRUM SPF 35 Lasting Comfort and Care 4N; FOREVER 24h Wear High Perfection Skin Caring Foundation With Sunscreen BROAD SPECTRUM SPF 35 Lasting Comfort and Care 4W; FOREVER 24h Wear High Perfection Skin Caring Foundation With Sunscreen BROAD SPECTRUM SPF 35 Lasting Comfort and Care 4W0; FOREVER 24h Wear High Perfection Skin Caring Foundation With Sunscreen BROAD SPECTRUM SPF 35 Lasting Comfort and Care 4WP; FOREVER 24h Wear High Perfection Skin Caring Foundation With Sunscreen BROAD SPECTRUM SPF 35 Lasting Comfort and Care 5N; FOREVER 24h Wear High Perfection Skin Caring Foundation With Sunscreen BROAD SPECTRUM SPF 35 Lasting Comfort and Care 5W; FOREVER 24h Wear High Perfection Skin Caring Foundation With Sunscreen BROAD SPECTRUM SPF 35 Lasting Comfort and Care 6,5N; FOREVER 24h Wear High Perfection Skin Caring Foundation With Sunscreen BROAD SPECTRUM SPF 35 Lasting Comfort and Care 6N; FOREVER 24h Wear High Perfection Skin Caring Foundation With Sunscreen BROAD SPECTRUM SPF 35 Lasting Comfort and Care 6W; FOREVER 24h Wear High Perfection Skin Caring Foundation With Sunscreen BROAD SPECTRUM SPF 35 Lasting Comfort and Care 7,5N; FOREVER 24h Wear High Perfection Skin Caring Foundation With Sunscreen BROAD SPECTRUM SPF 35 Lasting Comfort and Care 7N; FOREVER 24h Wear High Perfection Skin Caring Foundation With Sunscreen BROAD SPECTRUM SPF 35 Lasting Comfort and Care 8N; FOREVER 24h Wear High Perfection Skin Caring Foundation With Sunscreen BROAD SPECTRUM SPF 35 Lasting Comfort and Care 9N; FOREVER 24h Wear High Perfection Skin-Caring Foundation With Sunscreen BROAD SPECTRUM SPF 35 Lasting Comfort and Care 1,5W; FOREVER 24h Wear High Perfection Skin-Caring Foundation With Sunscreen BROAD SPECTRUM SPF 35 Lasting Comfort and Care 2,5W; FOREVER 24h Wear High Perfection Skin-Caring Foundation With Sunscreen BROAD SPECTRUM SPF 35 Lasting Comfort and Care 6,5W; FOREVER 24h Wear High Perfection Skin-Caring Foundation With Sunscreen BROAD SPECTRUM SPF 35 Lasting Comfort and Care 7W; FOREVER SKIN GLOW 24h Wear Radiant Perfection Skin Caring Foundation With Sunscreen BROAD SPECTRUM SPF 35 Lasting Hydration 0,5N; FOREVER SKIN GLOW 24h Wear Radiant Perfection Skin Caring Foundation With Sunscreen BROAD SPECTRUM SPF 35 Lasting Hydration 0N; FOREVER SKIN GLOW 24h Wear Radiant Perfection Skin Caring Foundation With Sunscreen BROAD SPECTRUM SPF 35 Lasting Hydration 1,5N; FOREVER SKIN GLOW 24h Wear Radiant Perfection Skin Caring Foundation With Sunscreen BROAD SPECTRUM SPF 35 Lasting Hydration 1CR; FOREVER SKIN GLOW 24h Wear Radiant Perfection Skin Caring Foundation With Sunscreen BROAD SPECTRUM SPF 35 Lasting Hydration 1N; FOREVER SKIN GLOW 24h Wear Radiant Perfection Skin Caring Foundation With Sunscreen BROAD SPECTRUM SPF 35 Lasting Hydration 1W; FOREVER SKIN GLOW 24h Wear Radiant Perfection Skin Caring Foundation With Sunscreen BROAD SPECTRUM SPF 35 Lasting Hydration 2,5N; FOREVER SKIN GLOW 24h Wear Radiant Perfection Skin Caring Foundation With Sunscreen BROAD SPECTRUM SPF 35 Lasting Hydration 2CR; FOREVER SKIN GLOW 24h Wear Radiant Perfection Skin Caring Foundation With Sunscreen BROAD SPECTRUM SPF 35 Lasting Hydration 2N; FOREVER SKIN GLOW 24h Wear Radiant Perfection Skin Caring Foundation With Sunscreen BROAD SPECTRUM SPF 35 Lasting Hydration 2W; FOREVER SKIN GLOW 24h Wear Radiant Perfection Skin Caring Foundation With Sunscreen BROAD SPECTRUM SPF 35 Lasting Hydration 2W0; FOREVER SKIN GLOW 24h Wear Radiant Perfection Skin Caring Foundation With Sunscreen BROAD SPECTRUM SPF 35 Lasting Hydration 2WP; FOREVER SKIN GLOW 24h Wear Radiant Perfection Skin Caring Foundation With Sunscreen BROAD SPECTRUM SPF 35 Lasting Hydration 3,5N; FOREVER SKIN GLOW 24h Wear Radiant Perfection Skin Caring Foundation With Sunscreen BROAD SPECTRUM SPF 35 Lasting Hydration 3C; FOREVER SKIN GLOW 24h Wear Radiant Perfection Skin Caring Foundation With Sunscreen BROAD SPECTRUM SPF 35 Lasting Hydration 3CR; FOREVER SKIN GLOW 24h Wear Radiant Perfection Skin Caring Foundation With Sunscreen BROAD SPECTRUM SPF 35 Lasting Hydration 3N; FOREVER SKIN GLOW 24h Wear Radiant Perfection Skin Caring Foundation With Sunscreen BROAD SPECTRUM SPF 35 Lasting Hydration 3W; FOREVER SKIN GLOW 24h Wear Radiant Perfection Skin Caring Foundation With Sunscreen BROAD SPECTRUM SPF 35 Lasting Hydration 3W0; FOREVER SKIN GLOW 24h Wear Radiant Perfection Skin Caring Foundation With Sunscreen BROAD SPECTRUM SPF 35 Lasting Hydration 3WP; FOREVER SKIN GLOW 24h Wear Radiant Perfection Skin Caring Foundation With Sunscreen BROAD SPECTRUM SPF 35 Lasting Hydration 4,5N; FOREVER SKIN GLOW 24h Wear Radiant Perfection Skin Caring Foundation With Sunscreen BROAD SPECTRUM SPF 35 Lasting Hydration 4,5W; FOREVER SKIN GLOW 24h Wear Radiant Perfection Skin Caring Foundation With Sunscreen BROAD SPECTRUM SPF 35 Lasting Hydration 4C; FOREVER SKIN GLOW 24h Wear Radiant Perfection Skin Caring Foundation With Sunscreen BROAD SPECTRUM SPF 35 Lasting Hydration 4N; FOREVER SKIN GLOW 24h Wear Radiant Perfection Skin Caring Foundation With Sunscreen BROAD SPECTRUM SPF 35 Lasting Hydration 4W; FOREVER SKIN GLOW 24h Wear Radiant Perfection Skin Caring Foundation With Sunscreen BROAD SPECTRUM SPF 35 Lasting Hydration 4W0; FOREVER SKIN GLOW 24h Wear Radiant Perfection Skin Caring Foundation With Sunscreen BROAD SPECTRUM SPF 35 Lasting Hydration 4WP; FOREVER SKIN GLOW 24h Wear Radiant Perfection Skin Caring Foundation With Sunscreen BROAD SPECTRUM SPF 35 Lasting Hydration 5N; FOREVER SKIN GLOW 24h Wear Radiant Perfection Skin Caring Foundation With Sunscreen BROAD SPECTRUM SPF 35 Lasting Hydration 6N; FOREVER SKIN GLOW 24h Wear Radiant Perfection Skin Caring Foundation With Sunscreen BROAD SPECTRUM SPF 35 Lasting Hydration 7N; FOREVER SKIN GLOW 24h Wear Radiant Perfection Skin Caring Foundation With Sunscreen BROAD SPECTRUM SPF 35 Lasting Hydration 8N; FOREVER SKIN GLOW 24h Wear Radiant Perfection Skin Caring Foundation With Sunscreen BROAD SPECTRUM SPF 35 Lasting Hydration 9N; FOREVER SKIN GLOW 24h Wear Radiant Perfection Skin-Caring Foundation With Sunscreen BROAD SPECTRUM SPF 35 Lasting Hydration 1,5W; FOREVER SKIN GLOW 24h Wear Radiant Perfection Skin-Caring Foundation With Sunscreen BROAD SPECTRUM SPF 35 Lasting Hydration 2,5W; FOREVER SKIN GLOW 24h Wear Radiant Perfection Skin-Caring Foundation With Sunscreen BROAD SPECTRUM SPF 35 Lasting Hydration 6,5W; FOREVER SKIN GLOW 24h Wear Radiant Perfection Skin-Caring Foundation With Sunscreen BROAD SPECTRUM SPF 35 Lasting Hydration 7W; FOREVER SKIN GLOW 24h wear radiant foundation Perfection and hydration Concentrated floral skincare with suncreen Broad spectrum SPF 15 0.5N; FOREVER SKIN GLOW 24h wear radiant foundation Perfection and hydration Concentrated floral skincare with suncreen Broad spectrum SPF 15 00; FOREVER SKIN GLOW 24h wear radiant foundation Perfection and hydration Concentrated floral skincare with suncreen Broad spectrum SPF 15 0CR; FOREVER SKIN GLOW 24h wear radiant foundation Perfection and hydration Concentrated floral skincare with suncreen Broad spectrum SPF 15 0N; FOREVER SKIN GLOW 24h wear radiant foundation Perfection and hydration Concentrated floral skincare with suncreen Broad spectrum SPF 15 0W; FOREVER SKIN GLOW 24h wear radiant foundation Perfection and hydration Concentrated floral skincare with suncreen Broad spectrum SPF 15 1.5N; FOREVER SKIN GLOW 24h wear radiant foundation Perfection and hydration Concentrated floral skincare with suncreen Broad spectrum SPF 15 1.5W; FOREVER SKIN GLOW 24h wear radiant foundation Perfection and hydration Concentrated floral skincare with suncreen Broad spectrum SPF 15 1CR; FOREVER SKIN GLOW 24h wear radiant foundation Perfection and hydration Concentrated floral skincare with suncreen Broad spectrum SPF 15 1N; FOREVER SKIN GLOW 24h wear radiant foundation Perfection and hydration Concentrated floral skincare with suncreen Broad spectrum SPF 15 1W; FOREVER SKIN GLOW 24h wear radiant foundation Perfection and hydration Concentrated floral skincare with suncreen Broad spectrum SPF 15 2.5N; FOREVER SKIN GLOW 24h wear radiant foundation Perfection and hydration Concentrated floral skincare with suncreen Broad spectrum SPF 15 2.5W; FOREVER SKIN GLOW 24h wear radiant foundation Perfection and hydration Concentrated floral skincare with suncreen Broad spectrum SPF 15 2CR; FOREVER SKIN GLOW 24h wear radiant foundation Perfection and hydration Concentrated floral skincare with suncreen Broad spectrum SPF 15 2N; FOREVER SKIN GLOW 24h wear radiant foundation Perfection and hydration Concentrated floral skincare with suncreen Broad spectrum SPF 15 2W; FOREVER SKIN GLOW 24h wear radiant foundation Perfection and hydration Concentrated floral skincare with suncreen Broad spectrum SPF 15 2WO; FOREVER SKIN GLOW 24h wear radiant foundation Perfection and hydration Concentrated floral skincare with suncreen Broad spectrum SPF 15 2WP; FOREVER SKIN GLOW 24h wear radiant foundation Perfection and hydration Concentrated floral skincare with suncreen Broad spectrum SPF 15 3.5N; FOREVER SKIN GLOW 24h wear radiant foundation Perfection and hydration Concentrated floral skincare with suncreen Broad spectrum SPF 15 3C; FOREVER SKIN GLOW 24h wear radiant foundation Perfection and hydration Concentrated floral skincare with suncreen Broad spectrum SPF 15 3CR; FOREVER SKIN GLOW 24h wear radiant foundation Perfection and hydration Concentrated floral skincare with suncreen Broad spectrum SPF 15 3N; FOREVER SKIN GLOW 24h wear radiant foundation Perfection and hydration Concentrated floral skincare with suncreen Broad spectrum SPF 15 3W; FOREVER SKIN GLOW 24h wear radiant foundation Perfection and hydration Concentrated floral skincare with suncreen Broad spectrum SPF 15 3WO; FOREVER SKIN GLOW 24h wear radiant foundation Perfection and hydration Concentrated floral skincare with suncreen Broad spectrum SPF 15 3WP; FOREVER SKIN GLOW 24h wear radiant foundation Perfection and hydration Concentrated floral skincare with suncreen Broad spectrum SPF 15 4.5N; FOREVER SKIN GLOW 24h wear radiant foundation Perfection and hydration Concentrated floral skincare with suncreen Broad spectrum SPF 15 4.5W; FOREVER SKIN GLOW 24h wear radiant foundation Perfection and hydration Concentrated floral skincare with suncreen Broad spectrum SPF 15 4C; FOREVER SKIN GLOW 24h wear radiant foundation Perfection and hydration Concentrated floral skincare with suncreen Broad spectrum SPF 15 4N; FOREVER SKIN GLOW 24h wear radiant foundation Perfection and hydration Concentrated floral skincare with suncreen Broad spectrum SPF 15 4W; FOREVER SKIN GLOW 24h wear radiant foundation Perfection and hydration Concentrated floral skincare with suncreen Broad spectrum SPF 15 4WO; FOREVER SKIN GLOW 24h wear radiant foundation Perfection and hydration Concentrated floral skincare with suncreen Broad spectrum SPF 15 4WP; FOREVER SKIN GLOW 24h wear radiant foundation Perfection and hydration Concentrated floral skincare with suncreen Broad spectrum SPF 15 5N; FOREVER SKIN GLOW 24h wear radiant foundation Perfection and hydration Concentrated floral skincare with suncreen Broad spectrum SPF 15 5W; FOREVER SKIN GLOW 24h wear radiant foundation Perfection and hydration Concentrated floral skincare with suncreen Broad spectrum SPF 15 6.5N; FOREVER SKIN GLOW 24h wear radiant foundation Perfection and hydration Concentrated floral skincare with suncreen Broad spectrum SPF 15 6.5W; FOREVER SKIN GLOW 24h wear radiant foundation Perfection and hydration Concentrated floral skincare with suncreen Broad spectrum SPF 15 6N; FOREVER SKIN GLOW 24h wear radiant foundation Perfection and hydration Concentrated floral skincare with suncreen Broad spectrum SPF 15 6W; FOREVER SKIN GLOW 24h wear radiant foundation Perfection and hydration Concentrated floral skincare with suncreen Broad spectrum SPF 15 7.5N; FOREVER SKIN GLOW 24h wear radiant foundation Perfection and hydration Concentrated floral skincare with suncreen Broad spectrum SPF 15 7N; FOREVER SKIN GLOW 24h wear radiant foundation Perfection and hydration Concentrated floral skincare with suncreen Broad spectrum SPF 15 7W; FOREVER SKIN GLOW 24h wear radiant foundation Perfection and hydration Concentrated floral skincare with suncreen Broad spectrum SPF 15 8N; FOREVER SKIN GLOW 24h wear radiant foundation Perfection and hydration Concentrated floral skincare with suncreen Broad spectrum SPF 15 9N; FOREVER SKIN VEIL Extreme Wear and Moisturizing Primer Correction, Protection, Illumination With Sunscreen Floral Extract-Enriched Broad Spectrum SPF20; FOREVER Transfer-proof - 24h foundation High perfection Concentrated floral skincare with sunscreen Broad spectrum SPF 15 0.5N; FOREVER Transfer-proof - 24h foundation High perfection Concentrated floral skincare with sunscreen Broad spectrum SPF 15 00; FOREVER Transfer-proof - 24h foundation High perfection Concentrated floral skincare with sunscreen Broad spectrum SPF 15 0CR; FOREVER Transfer-proof - 24h foundation High perfection Concentrated floral skincare with sunscreen Broad spectrum SPF 15 3WO; FOREVER Transfer-proof - 24h foundation High perfection Concentrated floral skincare with sunscreen Broad spectrum SPF 15 3WP; FOREVER Transfer-proof - 24h foundation High perfection Concentrated floral skincare with sunscreen Broad spectrum SPF 15 4.5N; FOREVER Transfer-proof - 24h foundation High perfection Concentrated floral skincare with sunscreen Broad spectrum SPF 15 4.5W; FOREVER Transfer-proof - 24h foundation High perfection Concentrated floral skincare with sunscreen Broad spectrum SPF 15 4C; FOREVER Transfer-proof - 24h foundation High perfection Concentrated floral skincare with sunscreen Broad spectrum SPF 15 4N; FOREVER Transfer-proof - 24h foundation High perfection Concentrated floral skincare with sunscreen Broad spectrum SPF 15 4W; FOREVER Transfer-proof - 24h foundation High perfection Concentrated floral skincare with sunscreen Broad spectrum SPF 15 4WO; FOREVER Transfer-proof - 24h foundation High perfection Concentrated floral skincare with sunscreen Broad spectrum SPF 15 4WP; FOREVER Transfer-proof - 24h foundation High perfection Concentrated floral skincare with sunscreen Broad spectrum SPF 15 5N; FOREVER Transfer-proof - 24h foundation High perfection Concentrated floral skincare with sunscreen Broad spectrum SPF 15 5W; FOREVER Transfer-proof - 24h foundation High perfection Concentrated floral skincare with sunscreen Broad spectrum SPF 15 6.5N; FOREVER Transfer-proof - 24h foundation High perfection Concentrated floral skincare with sunscreen Broad spectrum SPF 15 6.5W; FOREVER Transfer-proof - 24h foundation High perfection Concentrated floral skincare with sunscreen Broad spectrum SPF 15 6N; FOREVER Transfer-proof - 24h foundation High perfection Concentrated floral skincare with sunscreen Broad spectrum SPF 15 6W; FOREVER Transfer-proof - 24h foundation High perfection Concentrated floral skincare with sunscreen Broad spectrum SPF 15 7.5N; FOREVER Transfer-proof - 24h foundation High perfection Concentrated floral skincare with sunscreen Broad spectrum SPF 15 7N; FOREVER Transfer-proof - 24h foundation High perfection Concentrated floral skincare with sunscreen Broad spectrum SPF 15 7W; FOREVER Transfer-proof - 24h foundation High perfection Concentrated floral skincare with sunscreen Broad spectrum SPF 15 8N; FOREVER Transfer-proof - 24h foundation High perfection Concentrated floral skincare with sunscreen Broad spectrum SPF 15 9N; FOREVER Transfer-proof 24h foundation High perfection Concentrated floral skincare with sunscreen Broad spectrum SPF 15 0N; FOREVER Transfer-proof 24h foundation High perfection Concentrated floral skincare with sunscreen Broad spectrum SPF 15 0W; FOREVER Transfer-proof 24h foundation High perfection Concentrated floral skincare with sunscreen Broad spectrum SPF 15 1.5N; FOREVER Transfer-proof 24h foundation High perfection Concentrated floral skincare with sunscreen Broad spectrum SPF 15 1.5W; FOREVER Transfer-proof 24h foundation High perfection Concentrated floral skincare with sunscreen Broad spectrum SPF 15 1C; FOREVER Transfer-proof 24h foundation High perfection Concentrated floral skincare with sunscreen Broad spectrum SPF 15 1CR; FOREVER Transfer-proof 24h foundation High perfection Concentrated floral skincare with sunscreen Broad spectrum SPF 15 1N; FOREVER Transfer-proof 24h foundation High perfection Concentrated floral skincare with sunscreen Broad spectrum SPF 15 1W; FOREVER Transfer-proof 24h foundation High perfection Concentrated floral skincare with sunscreen Broad spectrum SPF 15 2.5N; FOREVER Transfer-proof 24h foundation High perfection Concentrated floral skincare with sunscreen Broad spectrum SPF 15 2.5W; FOREVER Transfer-proof 24h foundation High perfection Concentrated floral skincare with sunscreen Broad spectrum SPF 15 2CR; FOREVER Transfer-proof 24h foundation High perfection Concentrated floral skincare with sunscreen Broad spectrum SPF 15 2N; FOREVER Transfer-proof 24h foundation High perfection Concentrated floral skincare with sunscreen Broad spectrum SPF 15 2W; FOREVER Transfer-proof 24h foundation High perfection Concentrated floral skincare with sunscreen Broad spectrum SPF 15 2WO; FOREVER Transfer-proof 24h foundation High perfection Concentrated floral skincare with sunscreen Broad spectrum SPF 15 2WP; FOREVER Transfer-proof 24h foundation High perfection Concentrated floral skincare with sunscreen Broad spectrum SPF 15 3.5N; FOREVER Transfer-proof 24h foundation High perfection Concentrated floral skincare with sunscreen Broad spectrum SPF 15 3C; FOREVER Transfer-proof 24h foundation High perfection Concentrated floral skincare with sunscreen Broad spectrum SPF 15 3CR; FOREVER Transfer-proof 24h foundation High perfection Concentrated floral skincare with sunscreen Broad spectrum SPF 15 3N; FOREVER Transfer-proof 24h foundation High perfection Concentrated floral skincare with sunscreen Broad spectrum SPF 15 3W; FOTOSKINOX Color Face Cream Sunscreen Broad Spectrum SPF 50; FRE Tinted Defense Moisturizer SPF15; FRENCH SECRET SPF - 15 Day Broad-Spectrum; Face Factor; Face Finishing Moisturizer Tint; Face Guard 15; Face Guard 30 SPF; Face Guard Advanced; Face It 32800285; Face It 4d Perfection Roller Foundation 21; Face It 4d Perfection Roller Foundation 23; Face It 4d Perpect Two-way Cake Nb21; Face It 4d Perpect Two-way Cake Nb23; Face It Aqua Tinted Bb Cream SPF 20/pa++; Face It Aqua Tinted Bb SPF 20 Pa 01; Face It Aqua Tinted Bb SPF 20 Pa 02; Face It Aqua Uv Color Control 32800772; Face It Aqua Uv Color Control 32800773; Face It Aqua Uv Color Control 32800789; Face It Aqua Uv Color Control 32800790; Face It Aura Color Control 32800657; Face It Aura Color Control 32800658; Face It Aura Color Control 32800660; Face It Aura Color Control 32800675; Face It Aura Color Control 32800676; Face It Aura Color Control Cream SPF 30/pa++; Face It Aura Color Control Spf30 (refill), 01 Radiant Beige 32800659; Face It Bb SPF 50+/pa+++; Face It Collagen EX Skin Cover SPF 20/pa++; Face It Hd Perfect Bb 32800472; Face It Hd Perfect Bb 32800473; Face It Hd Perfect Bb Cream SPF 35/pa++; Face It Hd Perfect Bb Spf30 Pa 01; Face It Hd Perfect Bb Spf30 Pa 02; Face It Magic Cover Bb Cream SPF 20/pa++; Face It Oil Cut Dual Bb Emulsion Spf20; Face It Phytocollagen EX Two-way Cake SPF 30/pa+++; Face It Power Perfection 32800311; Face It Power Perfection 32800312; Face It Power Perfection 32800408; Face It Power Perfection 32800843; Face It Power Perfection Bb 00 32800842; Face It Power Perfection Bb Cream SPF 37/pa++; Face It Radiance Foundation Spf20 Nb21; Face It Radiance Foundation Spf20 Nb23; Face It Radiance Makeup Base SPF 20 Pa++; Face It Radiance Powder Pact SPF 50+/pa+++; Face It Radiance Powder Pact Spf25 Moisture Veil Nb17; Face It Radiance Powder Pact Spf25 Moisture Veil Nb21; Face It Radiance Powder Pact Spf25 Moisture Veil Nb23; Face It Radiance Two-way Cake SPF 25 Pa++; Face It Shimmering Bb Cream SPF 20/pa+; Face It Smart Capsule Color Control Cream SPF 40/pa++ Perfect Skin Tone; Face It Smart Color Control 32800661; Face It Smart Color Control 32800677; Face Mix Make up Base Green; Face Mix Skin Foundation; Face Multi-protection Sun Cream SPF 15; Face Multi-protection Sun Cream SPF 30; Face Multi-protection Sun Cream SPF 50; Face Protector Broad Spectrum SPF 40 Jafra; Face Protector SPF 40; Face SPF 50; Face Stick Premium Endurance Sunscreen 30; Face Stockholm BB Natural Beauty Balm SPF 30 Shade NR 1; Face Stockholm BB Natural Beauty Balm SPF 30 Shade NR 2; Face Visage Hypoallergenic Sunscreen Lotion; Face Zone Sun Block SPF 30; Face and Body Mineral SPF - Tinted; Face and Body Mineral SPF Non-Tinted; Face and Body SPF 30; Face and Body Sunscreen; FaceCoTZ (Sunscreen); Faceblock Spf30 Super Sensitive; Facet It Pure Color Control 32800851; Facial Day Lotion SPF 15; Facial Day Treatment SPF 15 With Kinetin; Facial SPF 20/fps 20; Facial Shield SPF 20; Facial With Placenta Protein SPF-15; Fair Foundation SPF 15; Fair Light Tinted Drops; Fair and Square Kids Sunscreen SPF 50; Fairly Light Foundation SPF 15; Fairly Medium Foundation SPF 15; Family Sunscreen SPF 36; Fikia Marine Eclipse Sun Block SPF 50 PA; Fikia Marine Natural Sun BB SPF 50 PA; Flash Radiant Primer; Flawless Brightening Sunscreen; Flawless Brightening Sunscreen Non-Tinted; Flawless Finish Dual Perfection Makeup SPF 8 Beige; Flawless Finish Dual Perfection Makeup SPF 8 Bisque; Flawless Finish Dual Perfection Makeup SPF 8 Buff; Flawless Finish Dual Perfection Makeup SPF 8 Camellia; Flawless Finish Dual Perfection Makeup SPF 8 Cameo; Flawless Finish Dual Perfection Makeup SPF 8 Cream; Flawless Finish Dual Perfection Makeup SPF 8 Fawn; Flawless Finish Dual Perfection Makeup SPF 8 Golden Beige; Flawless Finish Dual Perfection Makeup SPF 8 Honey; Flawless Finish Dual Perfection Makeup SPF 8 Ivory; Flawless Finish Dual Perfection Makeup SPF 8 Mocha; Flawless Finish Dual Perfection Makeup SPF 8 Shell; Flawless Finish Dual Perfection Makeup SPF 8 Sunbeige; Flawless Finish Dual Perfection Makeup SPF 8 Vanilla; Flawless Finish Everday Makeup Spf10; Flawless Finish Foundation SPF 15 Sunscreen; Flawless Finish Hydro Light Foundation Spf10; Flawless Finish Perfectly Nude; Flawless Finish Perfectly Nude Makeup Broad Spectrum Sunscreen SPF 15 Shade Alabaster; Flawless Finish Perfectly Nude Makeup Broad Spectrum Sunscreen SPF 15 Shade Amber; Flawless Finish Perfectly Nude Makeup Broad Spectrum Sunscreen SPF 15 Shade Beige; Flawless Finish Perfectly Nude Makeup Broad Spectrum Sunscreen SPF 15 Shade Bisque; Flawless Finish Perfectly Nude Makeup Broad Spectrum Sunscreen SPF 15 Shade Buff; Flawless Finish Perfectly Nude Makeup Broad Spectrum Sunscreen SPF 15 Shade Cameo; Flawless Finish Perfectly Nude Makeup Broad Spectrum Sunscreen SPF 15 Shade Caramel; Flawless Finish Perfectly Nude Makeup Broad Spectrum Sunscreen SPF 15 Shade Cashew; Flawless Finish Perfectly Nude Makeup Broad Spectrum Sunscreen SPF 15 Shade Cashmere; Flawless Finish Perfectly Nude Makeup Broad Spectrum Sunscreen SPF 15 Shade Chestnut; Flawless Finish Perfectly Nude Makeup Broad Spectrum Sunscreen SPF 15 Shade Cocoa; Flawless Finish Perfectly Nude Makeup Broad Spectrum Sunscreen SPF 15 Shade Cream Nude; Flawless Finish Perfectly Nude Makeup Broad Spectrum Sunscreen SPF 15 Shade Golden Nude; Flawless Finish Perfectly Nude Makeup Broad Spectrum Sunscreen SPF 15 Shade Honey Beige; Flawless Finish Perfectly Nude Makeup Broad Spectrum Sunscreen SPF 15 Shade Linen; Flawless Finish Perfectly Nude Makeup Broad Spectrum Sunscreen SPF 15 Shade Natural; Flawless Finish Perfectly Nude Makeup Broad Spectrum Sunscreen SPF 15 Shade Sienna; Flawless Finish Perfectly Nude Makeup Broad Spectrum Sunscreen SPF 15 Shade Soft Beige; Flawless Finish Perfectly Nude Makeup Broad Spectrum Sunscreen SPF 15 Shade Spice; Flawless Finish Perfectly Nude Makeup Broad Spectrum Sunscreen SPF 15 Shade Tawny; Flawless Finish Perfectly Nude Makeup Broad Spectrum Sunscreen SPF 15 Shade Toasted Almond; Flawless Finish Perfectly Nude Makeup Broad Spectrum Sunscreen SPF 15 Shade Toasty Beige; Flawless Finish Perfectly Nude Makeup Broad Spectrum Sunscreen SPF 15 Shade Vanilla Shell; Flawless Finish Perfectly Nude Makeup Broad Spectrum Sunscreen SPF 15 Shade Warm Cappuccino; Flawless Finish Perfectly Nude Makeup Broad Spectrum Sunscreen SPF 15 Shade Warm Mahogany; Flawless Finish Perfectly Nude Makeup Broad Spectrum Sunscreen SPF 15 Shade Warm Sunbeige; Flawless Finish Perfectly Satin 24hr; Flawless Finish Perfectly Satinb 24hr Makeup Shade; Flawless Finish Perfectly Satinb 24hr Makeup Shade Alabaster; Flawless Finish Perfectly Satinb 24hr Makeup Shade Beige; Flawless Finish Perfectly Satinb 24hr Makeup Shade Bisque; Flawless Finish Perfectly Satinb 24hr Makeup Shade Cameo; Flawless Finish Perfectly Satinb 24hr Makeup Shade Caramel; Flawless Finish Perfectly Satinb 24hr Makeup Shade Chestnut; Flawless Finish Perfectly Satinb 24hr Makeup Shade Cocoa; Flawless Finish Perfectly Satinb 24hr Makeup Shade Golden Sands; Flawless Finish Perfectly Satinb 24hr Makeup Shade Honey Beige; Flawless Finish Perfectly Satinb 24hr Makeup Shade Neutral Bisque; Flawless Finish Perfectly Satinb 24hr Makeup Shade Nude; Flawless Finish Perfectly Satinb 24hr Makeup Shade Sand; Flawless Finish Perfectly Satinb 24hr Makeup Shade Soft Shell; Flawless Finish Perfectly Satinb 24hr Makeup Shade Soft Tan; Flawless Finish Perfectly Satinb 24hr Makeup Shade Spice; Flawless Finish Perfectly Satinb 24hr Makeup Shade Sunbeige; Flawless Finish Perfectly Satinb 24hr Makeup Shade Toasty Beige; Flawless Glow Foundation SPF 30; Flawless Skin Makeup Broad Spectrum SPF 15; Flawless Skin Protecting Foundation SPF 25; Flawless Skin Total Protection Concealer SPF 25; Flawless by Sonya Aloe BB Creme Cocoa; Flawless by Sonya Aloe BB Creme Nude; Flawless by Sonya Aloe BB Creme Sandy; Flebeaute Collagenic Foundation Spf20 Pa Nb21; Flebeaute Collagenic Foundation Spf20 Pa Nb23; Flebeaute Collagenic Make Up Base Spf20 Pa 01green; Flebeaute Collagenic Skin Cover Spf20 Pa Nb21; Flebeaute Collagenic Skin Cover Spf20 Pa Nb23; Flebeaute Collagenic Two Way Cake Spf17 Pa Nb21; Flebeaute Collagenic Two Way Cake Spf17 Pa Nb23; Flebeaute Collagenic Two Way Cake Spf17 Pa Nb25; Flormar Delicious Lip Stylo Sunscreen Broad Spectrum SPF 15 DS04 Surrealist Orchid; Flormar Delicious Lip Stylo Sunscreen Broad Spectrum SPF 15 DS05 Portrait of a Plum; Flormar Delicious Lip Stylo Sunscreen Broad Spectrum SPF 15 DS06 Yeah it s Yellow; Flormar Delicious Lip Stylo Sunscreen Broad Spectrum SPF 15 DS07 Cubic Sun; Flormar Delicious Lip Stylo Sunscreen Broad Spectrum SPF 15 DS08 Futuristic Orange; Flormar Delicious Lip Stylo Sunscreen Broad Spectrum SPF 15 DS09 Delicious Abstract Melon; Flormar Delicious Lip Stylo Sunscreen Broad Spectrum SPF 15 DS10 Collage of Citrus; Flormar Delicious Lip Stylo Sunscreen Broad Spectrum SPF 15 DS12 Alter Ego; Flormar Delicious Lip Stylo Sunscreen Broad Spectrum SPF 15 DS14 Rise of Modern City; Flormar Delicious Lip Stylo Sunscreen Broad Spectrum SPF 15 DS15 The Day Before Jury; Flormar Delicious Lip Stylo Sunscreen Broad Spectrum SPF 15 DS16 Meet So Black; Fluid Body Sun Cream SPF 20; Fluid Foundation SPF 30 Color 01; Fluid Foundation SPF 30 Color 02; Fluid Foundation SPF 30 Color 03; Fluide De Jour; Fluide De Jour Fps 20 Pro-derm; Fluide Multi-confort Super Hydratant Spf15; Fluide Multi-regenerant Lift Jour - SPF 15; Fluidity Treatment Makeup SPF 6; Force C Premium SPF 15; Forever; Forever Light Creator Cc Cream SPF 35; Forever Skin Glow; Forme Cosmetics Delicious Lip Balm SPF 12; Fotoskinox face cream sunscreen; Foundation Balanced Satin Finish SPF 15; Foundation Balanced Satin Finish Spf15; Foundation Broad Spectrum SPF 35 Cooly Beige Vertra; Foundation Broad Spectrum SPF 35 Natural Beige Vertra; Foundation Caramel; Foundation Nude; Foundation Primer SPF 15; Foundation Soft Cocoa; Foundation Sunscreen Face Broad Spectrum SPF 38; Foundation Sunscreen Face Broad Spectrum SPF 38 Kona Gold; Foundation Sunscreen Face Broad Spectrum SPF 38 Kona Gold Vertra; Foundation Sunscreen Face Broad Spectrum SPF 38 Vertra Elemental Resistance; Foundation Sunscreen Face Stick Broad Spectrum SPF 35 Cooly Beige; Foundation Sunscreen Face Stick Broad Spectrum SPF 38 Kona Gold; Foundation Sweet Almond; Fps 60 CRème Uv Hydratante; Fresh Peony Brightening UV Shield Sunscreen SPF 50 Plus; Fresh Skin Effortless Beauty Balm Broad Spectrum SPF 35; Frida Kahlo Edition Tension Pact Intense Moisture SPF37 No21; Frida Kahlo Edition Tension Pact Intense Moisture SPF37 No23; Frida Kahlo Edition Tension Pact Intense Moisture SPF37 No27; Frida Kahlo Edition Tension Pact Intense Moisture SPF37 No29; Frida Kahlo Edition Tension Pact Perfect Cover SPF37 No 21; Frida Kahlo Edition Tension Pact Perfect Cover SPF37 No 23; Frida Kahlo Edition Tension Pact Perfect Cover SPF37 No 27; Frida Kahlo Edition Tension Pact Perfect Cover SPF37 No 29; Frida Kahlo Edition Tension Pact Perfect Cover SPF37 No 31; Frimousse Ecran Solaire Fps 15; Fruit Of The Earth Moisturizing Aloe Baby SPF 45 Sunblock; Fruit Of The Earth Moisturizing Aloe Kids SPF 30 Sunblock; Fruit Of The Earth Moisturizing Aloe SPF 30 Sunblock; Fruit Of The Earth Moisturizing Aloe SPF 45 Sunblock; Fruit of the Earth, Inc. Luv That Sun SPF 30 Natural Mineral Sunscreen; Full Coverage Foundation SPF 15; Full Stay 24hr Spf50; Full Stay 24hr V203 Natural Beige; Full Stay Cc 24hr; Full Stay V201 Apricot Beige (refill); FusionBeauty Colorceuticals PrimeResults Tinted Moisturizer SPF15 Caramel; FusionBeauty Colorceuticals PrimeResults Tinted Moisturizer SPF15 Golden Beige; FusionBeauty Colorceuticals PrimeResults Tinted Moisturizer SPF15 Ivory; FusionBeauty Colorceuticals PrimeResults Tinted Moisturizer SPF15 Sand; Future White SPF 40; G Sol; G.M. Collin Ecran Solaire Total SPF 30; G.M. Collin Protection Solaire Total SPF 15; G.M. Collin SPF 50 Broad Spectrum Mineral Sunscreen; G.M. Collin Vapo Protection SPF 14; G.Y. Eye Conditioner; G9 Moisture CC SPF30 PA PLUS PLUS; G9 SKIN White In Creamy Cushion SPF50 PA; GERM KILLER-Spray; GET MR. Butter Body SPF-30; GET MR. The Active Mineral Body SPF-30; GIN-III Alpha and Omega GIN Sun; GLYTONE Mineral Sunscreen SPF 40; GM Collin MINERAL BB; GM Collin Mineral Sun; GM Collin SPF 25 UVA - UVB Urban Protection Veil Sunscreen; GM Collin SPF 60 Mineral Sunscreen; GODDESS GARDEN ORGANICS Grapefruit Bergamot DAILY BROAD SPECTRUM SPF 15; GODDESS GARDEN ORGANICS Lavender Mint DAILY BROAD SPECTRUM SPF 15; GODDESS GARDEN ORGANICS Sunny Body NATURAL SUNSCREEN BROAD SPECTRUM SPF 30 WATER RESISTANT; GODDESS GARDEN ORGANICS Sunny Face NATURAL SUNSCREEN BROAD SPECTRUM SPF 30 WATER RESISTANT; GODDESS GARDEN ORGANICS Sunny Kids NATURAL SUNSCREEN BROAD SPECTRUM SPF 30 WATER RESISTANT; GODDESS GARDEN ORGANICS Tangerine Lavender DAILY BROAD SPECTRUM SPF 15; GOLD COLLAGEN Ampoule Cover Cake SPF 50; GOLD COLLAGEN Ampoule Cover Cake SPF50 N203; GOLD COLLAGEN Ampoule Foundation SPF30; GOLD COLLAGEN Ampoule Two-way Compact Foundation SPF30; GOLD COLLAGEN N203 Natural Beige SPF30; GOLDKIWI SUN SPF50 Plus PA Plus Plus; GREEN SCREEN Daily Environmental Protector Broad Spectrum SPF 30 Sunscreen; GUINOT HYDRA FINISH Face Cream SPF15; GUINOT Skin Defense SPF 15 Face; GUINOT Ultra UV Sunscreen High Protection Sun For The Face SPF 30; Galaxyborn Satin Cushion No 21; Galaxyborn Satin Cushion No 23; Gaondodam Pure Bb Sun Cushion; Gaondodam Pure Sun Cushion; Garnier Ombrelle Body Mineral 50 Plus Water Resistant 80 Minutes; Garnier Ombrelle Face Mineral 50; Garnier Ombrelle Kids Mineral 50 Plus Water Resistant 80 Minutes; Garnier Ombrelle Mineral Face 60 Tinted Sunscreen; Garnier Ombrelle SPF 30 Face Ultra Light; Garnier Ombrelle SPF 30 Kids Water Resistant; Garnier Ombrelle SPF 30 Sport Water Resistant; Garnier Ombrelle SPF 45 Face Ultra Light; Garnier Ombrelle SPF 45 Kids Hypoallergenic; Garnier Ombrelle SPF 45 Sport; Garnier Ombrelle SPF 50 Kids Water Resistant; Garnier Ombrelle SPF 60 Face Ultra Light; Garnier Ombrelle Sport 30 Water Sweat Resistant Sunscreen; Garnier Ombrelle Ultra Light Hydrating Face Sunscreen; Garnier Skin Renew Miracle Skin Perfector AntiAging BB Broad Spectrum SPF 15 Sunscreen; Garnier Skin Renew Miracle Skin Perfector BB; Garnier Skin Renew Miracle Skin Perfector Combination to Oily Skin BB Broad Spectrum SPF 20 Sunscreen; Gel Compact Teinte Ip6; Gel Creme Protecteur SPF 15; Gelee Fraiche Bronz.hydratante SPF 8; Gelee Fraiche Hydratante SPF 10; Gelee Fraiche Hydratante SPF 15; Gelee Fraicheur Bronzage Eclat SPF 8; Gelée Fraîche Bronzante Hydratante Fps 8; Gentle Cover Cream Concealer - Crm - 20.78%; Get A Tint Shimmer Tinted Moisturizer Lotion; Get A Tint Tinted Moisturizer Lotion; Get Even SPF 15 Tinted Moisturizer; Ginger Armor Mineral SPF 50; Ginseng Royal Silk Pow Der 01 Pure Beige; Giorgio Armani ArmaniPrima Color Control Glow Moisturizer Broad Spectrum SPF 35 Sunscreen; Giorgio Armani Designer Lift Smoothing Firming Foundation Broad Spectrum SPF 20 Sunscreen; Giorgio Armani Designer Lift Smoothing Firming Foundation Sunscreen Broad Spectrum SPF 20; Giorgio Armani Designer Shaping Foundation Broad Spectrum SPF 20 Sunscreen; Giorgio Armani Lasting Silk UV Foundation Broad Spectrum SPF 20 Sunscreen; Giorgio Armani Luminessence CC Color Control Bright Moisturizer Broad Spectrum SPF 35 Sunscreen; Giorgio Armani Luminessence Color Control Bright Moisturizer Broad Spectrum SPF 35 Sunscreen; Giorgio Armani lasting silk UV compact foundation; Give Me Shade Sunscreen Broad Spectrum SPF 30; Givenchy Blurring Foundation Balm Bare Skin Perfector - Broad Spectrum SPF 15 Nude Amber; Givenchy Blurring Foundation Balm Bare Skin Perfector - Broad Spectrum SPF 15 Nude Beige; Givenchy Blurring Foundation Balm Bare Skin Perfector - Broad Spectrum SPF 15 Nude Ginger; Givenchy Blurring Foundation Balm Bare Skin Perfector - Broad Spectrum SPF 15 Nude Gold; Givenchy Blurring Foundation Balm Bare Skin Perfector - Broad Spectrum SPF 15 Nude Honey; Givenchy Blurring Foundation Balm Bare Skin Perfector - Broad Spectrum SPF 15 Nude Porcelain; Givenchy Blurring Foundation Balm Bare Skin Perfector - Broad Spectrum SPF 15 Nude Sand; Givenchy Blurring Foundation Balm Bare Skin Perfector - Broad Spectrum SPF 15 Nude Shell; Givenchy Fluid Foundation Airy-light Mat Radiance SPF 20 Tint 1; Givenchy Fluid Foundation Airy-light Mat Radiance SPF 20 Tint 2; Givenchy Fluid Foundation Airy-light Mat Radiance SPF 20 Tint 3; Givenchy Fluid Foundation Airy-light Mat Radiance SPF 20 Tint 4; Givenchy Fluid Foundation Airy-light Mat Radiance SPF 20 Tint 5; Givenchy Fluid Foundation Airy-light Mat Radiance SPF 20 Tint 6; Givenchy Fluid Foundation Airy-light Mat Radiance SPF 20 Tint 7; Givenchy Fluid Foundation Airy-light Mat Radiance SPF 20 Tint 8; Givenchy Hydra Sparkling Tinted Luminescense Moisturizing SPF 15 Tint 1; Givenchy Hydra Sparkling Tinted Luminescense Moisturizing SPF 15 Tint 2; Givenchy Hydra Sparkling Tinted Luminescense Moisturizing SPF 15 Tint 3; Givenchy Multiprotective Luminescence Moisturizing Fluid SPF 30; Givenchy PHOTO PERFEXION - Fluid Foundation with sunscreen Broad Spectrum SPF 20 Shade 105 Perfect Ginger; Givenchy PHOTO PERFEXION - Fluid Foundation with sunscreen Broad Spectrum SPF 20 Shade 106 Perfect Pecan; Givenchy PHOTO PERFEXION Fluid Foundation with sunscreen Broad Spectrum SPF 20 Shade 130 Perfect Rose; Givenchy Photo Perfexion Fluid Foundation Broad Spectrum SPF 20 Perfect Almond; Givenchy Photo Perfexion Fluid Foundation Broad Spectrum SPF 20 Perfect Beige; Givenchy Photo Perfexion Fluid Foundation Broad Spectrum SPF 20 Perfect Cinnamon; Givenchy Photo Perfexion Fluid Foundation SPF 20 105 Perfect Ginger; Givenchy Photo Perfexion Fluid Foundation SPF 20 106 Perfect Pecan; Givenchy Photo Perfexion Fluid Foundation SPF 20 107 Perfect Caramel; Givenchy Photo Perfexion Fluid Foundation SPF 20 Perfect Amber Tint 8; Givenchy Photo Perfexion Fluid Foundation SPF 20 Perfect Cashew Tint 5.5; Givenchy Photo Perfexion Fluid Foundation SPF 20 Perfect Gold Tint 7; Givenchy Photo Perfexion Fluid Foundation SPF 20 Perfect Honey Tint 6; Givenchy Photo Perfexion Fluid Foundation SPF 20 Perfect Ivory Tint 1; Givenchy Photo Perfexion Fluid Foundation SPF 20 Perfect Linen Tint 0; Givenchy Photo Perfexion Fluid Foundation SPF 20 Perfect Petal Tint 2; Givenchy Photo Perfexion Fluid Foundation SPF 20 Perfect Praline Tint 5; Givenchy Photo Perfexion Fluid Foundation SPF 20 Perfect Sand Tint 3; Givenchy Photo Perfexion Fluid Foundation SPF 20 Perfect Spice Tint 9; Givenchy Photo Perfexion Fluid Foundation SPF 20 Perfect Suede Tint 6.5; Givenchy Photo Perfexion Fluid Foundation SPF 20 Perfect Vanilla Tint 4; Givenchy Radically No Surgetics Age-Defying and Perfecting Foundation SPF 15 Tint 1; Givenchy Radically No Surgetics Age-Defying and Perfecting Foundation SPF 15 Tint 2; Givenchy Radically No Surgetics Age-Defying and Perfecting Foundation SPF 15 Tint 3; Givenchy Radically No Surgetics Age-Defying and Perfecting Foundation SPF 15 Tint 4; Givenchy Radically No Surgetics Age-Defying and Perfecting Foundation SPF 15 Tint 5; Givenchy Radically No Surgetics Age-Defying and Perfecting Foundation SPF 15 Tint 6; Givenchy Radically No Surgetics Age-Defying and Perfecting Foundation SPF 15 Tint 7; Givenchy Radically No Surgetics Age-Defying and Perfecting Foundation SPF 15 Tint 8; Givenchy TEINT COUTURE Long Wearing Fluid Foundation with Sunscreen Broad Spectrum SPF 20 ELEGANT AMBER; Givenchy TEINT COUTURE Long Wearing Fluid Foundation with Sunscreen Broad Spectrum SPF 20 ELEGANT BEIGE; Givenchy TEINT COUTURE Long Wearing Fluid Foundation with Sunscreen Broad Spectrum SPF 20 ELEGANT BROWN; Givenchy TEINT COUTURE Long Wearing Fluid Foundation with Sunscreen Broad Spectrum SPF 20 ELEGANT GINGER; Givenchy TEINT COUTURE Long Wearing Fluid Foundation with Sunscreen Broad Spectrum SPF 20 ELEGANT GOLD; Givenchy TEINT COUTURE Long Wearing Fluid Foundation with Sunscreen Broad Spectrum SPF 20 ELEGANT HONEY; Givenchy TEINT COUTURE Long Wearing Fluid Foundation with Sunscreen Broad Spectrum SPF 20 ELEGANT PORCELAIN; Givenchy TEINT COUTURE Long Wearing Fluid Foundation with Sunscreen Broad Spectrum SPF 20 ELEGANT SAND; Givenchy TEINT COUTURE Long Wearing Fluid Foundation with Sunscreen Broad Spectrum SPF 20 ELEGANT SHELL; Givenchy TEINT COUTURE Long Wearing Fluid Foundation with Sunscreen Broad Spectrum SPF 20 ELEGANT SIENNA; Givenchy TEINT COUTURE Long Wearing Fluid Foundation with Sunscreen Broad Spectrum SPF 20 ELEGANT VANILLA; Glamour Camper SPF-50; Glint Aura Make Keep Chiffon Base Pink Beige; Glow Tinted Moisturizer SPF 15; Gly Derm Super Sunblock; Glymed Plus Age Management Skincare System Sun Protection Gel SPF 15; Gmc Medical Sun Protection Broad Spectrum SPF 60; Goddess Garden Organics Everyday Natural Sunscreen; Goddess Garden Organics Everyday Natural Sunscreen Broad Spectrum; Goddess Garden Organics Kids Natural Sunscreen; Goddess Garden Organics Kids Natural Sunscreen Broad Spectrum; Goddess Garden Organics Kids Natural Sunscreen Broad Spectrum SPF 30 Continuous; Goddess Garden Organics Kids Natural Sunscreen SPF 30; Goddess Garden Organics Kids Sport Natural Sunscreen Broad Spectrum SPF 30; Goddess Garden Organics Sport Natural Sunscreen Broad Spectrum SPF 30; Goddess Garden Organics Sport Natural Sunscreen Broad Spectrum SPF 30 Continuous; Gold Collagen Foundation Spf30; Gold Collagen SPF 30 Pa; Golden Beauty-compact Bronzer SPF 30; Golden Dark Foundation SPF 15; Golden Deep Foundation SPF 15; Golden Fair Foundation SPF 15; Golden Medium Foundation SPF 15; Golden Tan Always Color Stay-On Makeup SPF 10; Golden Tan Always Stay-on Makeup Broad Spectrum SPF 15 Jafra; Golden Tan Original; Goldie Locks Sheer Mineral Sunscreen Broad Spectrum SPF 30; Goldkiwi Sun SPF 36 Pa Plus Plus; Goldkiwi Sun SPF 50 Plus Pa Plus Plus Plus; Golfers Skin Broad Spectrum SPF 30 Plus Sunscreen; GolfersSkin Face Sunscreen; GolfersSkin Sunscreen Zinc; Golflinks Sunscreen SPF 15 Crm Top; Gongjinhyang Mi Luxury Base; Good Afternoon Berry Berry Tea Bb Spf35 Pa Plus Plus No.1; Good Afternoon Berry Berry Tea Bb Spf35 Pa Plus Plus No.2; Goong Secret Mild Sun Spf25 Pa Plus Plus; Goongsecret Baby Sun Spf35 Pa Plus Plus Plus; Goongsecret Daily Face Sun Spf25 Pa Plus Plus; Goongsecret Mild Sun SPF25 PA PLUS PLUS; Got The Goods Multi-benefit Foundation Lotion; Goth Block SPF-50; Gowoonsesang Brightening Balm SPF30; Gowoonsesang Expert Actifirm Tm Recovery Super Blemish Base Spf30 Pa Plus Plus; Gowoonsesang Hydra Intensive Blemish Balm SPF30; Gowoonsesang Medi UV Block Suncream SPF50; Gowoonsesang Multi Protection; Gowoonsesang Perfect Pore Cover Bb SPF 30 Pa Plus Plus; Gowoonsesang Sun SPF32; Gr Bb SPF 25; Green Defense Broad Spectrum SPF 30; Green Stick; Gucci Face Lustrous Glow Foundation Broadspectrum SPF 25 (all shades); Guerlain Lingerie Beige Naturel 03; Guerlain Super Aqua-Day; Guerlain TerraCotta D Ailleurs 01; Guerlain TerraCotta D Ailleurs 02; H-E-B Skin Corrective Innovative Skin Perfector BB Broad Spectrum SPF15 Sunscreen Light/Medium; H-E-B Skin Corrective Innovative Skin Perfector BB Broad Spectrum SPF15 Sunscreen Medium/Deep; H.E.B. Mineral Sunscreen Broad Spectrum SPF 50; HA Physical Tint SPF 44; HANSKIN AIR BOUNCE CUSHION BB No 21 Light Beige; HANSKIN AIR BOUNCE CUSHION BB No 23 Natural Beige; HAUTE PROTECTION High Protection Tinted Compact BROAD SPECTRUM SPF 50 BEIGE; HAUTE PROTECTION High Protection Tinted Compact BROAD SPECTRUM SPF 50 HONEY; HAUTE PROTECTION High Protection Tinted Compact Broad Spectrum SPF 50 Beige; HAUTE PROTECTION High Protection Tinted Compact Broad Spectrum SPF 50 Honey; HIGH POTENCY CLASSICS Face Finishing and Firming Tinted Moisturizer SPF 30; HYDRALIFE BB CREME Enhancing Moisturizer For Immediate Beauty SPF 30; Hale Cosmeceuticals Complexion Perfection Sunscreen SPF 20; Hale Cosmeceuticals Complexion Protection Sunscreen SPF 35; Halo Hd Foundation Broad Spectrum SPF 15 Oil Free; Hansai Beestox Sun Cream SPF 50; Hansai Beestox Trial Kit Set Beestox Sun Cream; Hanskin Bio Origin Royal Ampoule Bb EX; Hanskin Cell Cover Foundation No 21 Light Beige; Hanskin Cell Cover Foundation No 23 Natural Beige; Hanskin Premium Perfect Super Magic Bb; Hanskin Super Light Touch Bb; Hanskin nontouring gradation pact L21 fair Edge cover balm; Hanskin nontouring gradation pact L21 fair Serum cover balm; Hanskin nontouring gradation pact M22 nude Edge cover balm; Hanskin nontouring gradation pact M22 nude Serum cover balm; Happy Farm Botanicals Protective Day Cream SPF 30; Harken Derm High Performance Sunscreen; Haute Protection High Protection Tinted Compact Broad Spectrum SPF 50; Have A Nice Day Super Charged SPF 15; Hawaiian Tropic 15 Plus Sunblock; Hawaiian Tropic 30 Plus Lotion; Hawaiian Tropic 45 Plus Lotion; Hawaiian Tropic 45 Plus Sunblock Lotion; Hawaiian Tropic Baby Faces 35 Lot; Hawaiian Tropic Baby Faces 50 - Lot; Hawaiian Tropic Baby Faces 50 SPF; Hawaiian Tropic Baby Faces 50 Sunblock Lot; Hawaiian Tropic Baby Faces Sunblock SPF 35; Hawaiian Tropic Bioshield 30 SPF Sensitive; Hawaiian Tropic Just for Kids 30 - Lot; Hawaiian Tropic Lip Balm 45 SPF-cherry; Hawaiian Tropic Lip Balm 45 SPF-coconut; Hawaiian Tropic Lip Balm 45 SPF-mint; Hawaiian Tropic Mineral Face Skin Nourishing Tinted Milk Coconut Oil SPF30; Hawaiian Tropic Mineral Milk Sunscreen Broad Spectrum SPF 50; Hawaiian Tropic Mineral Skin Nourishing Milk Coconut Oil SPF 50; Hawaiian Tropic Mineral Skin Nourishing Milk Coconut Oil SPF30; Hawaiian Tropic Mineral Sunscreen Broad Spectrum SPF 30; Hawaiian Tropic Mineral Tinted Facial Milk Sunscreen Broad Spectrum SPF 30; Hawaiian Tropic Sport SPF 15; Hawaiian Tropic Sport SPF 30; Hawaiian Tropic Sunblock Sport 30 Lot; Hd Waterful Bb; Healthy Glow All-IN-one Tinted Moisturizer Broad Spectrum SPF 25; Healthy Makeup Cream-to-Powder Foundation; Healthy Makeup Liquid Foundation; Healthy Wear Powder Foundation SPF 50; Healthy Wear Pressed Bronzer SPF 50; Healthy Wear Tinted Moisturizer SPF 50; Hebe Luca Bb; Hello Flawless Oxygen Wow; Hermes Plein Air Natural Enhancing Complexion Balm SPF 30 Sunscreen 00 AMANDE; Hermes Plein Air Natural Enhancing Complexion Balm SPF 30 Sunscreen 10 COQUILLAGE; Hermes Plein Air Natural Enhancing Complexion Balm SPF 30 Sunscreen 20 SABLE; Hermes Plein Air Natural Enhancing Complexion Balm SPF 30 Sunscreen 30 FICELLE; Hermes Plein Air Natural Enhancing Complexion Balm SPF 30 Sunscreen 40 CHANVRE; Hermes Plein Air Natural Enhancing Complexion Balm SPF 30 Sunscreen 50 PALOMINO; Hermes Plein Air Natural Enhancing Complexion Balm SPF 30 Sunscreen 60 SIENNE; Hermes Plein Air Natural Enhancing Complexion Balm SPF 30 Sunscreen 70 SANTAL; Hermes Plein Air Natural Enhancing Complexion Balm SPF 30 Sunscreen 80 BARENIA; Hermes Plein Air Natural Enhancing Complexion Balm SPF 30 Sunscreen 90 ALEZAN; Hermes Plein Air-Baume de Teint Perfecteur Naturel-Enhancing Complexion Balm 85 TAMARIN; High Definition Foundation; High Protection Lotion SPF 50+; High Protection Spray SPF 50+; High Protection Sun SPF 30; Hissyfit Body Double Moisturizer; Hissyfit Handy Work; Hissyfit Saving Face Foundation; Hm-B (edible Vinegar); Honey Bisque Foundation SPF 20; Hook Ya SPF 50 Sport Sunscreen; Hope In A Jar A To Z Cream Broad Spectrum SPF 20 Sunscreen; Hourglass Illusion Tinted Moisturizer Beige SPF 15; Hourglass Illusion Tinted Moisturizer Ivory SPF 15; Hourglass Illusion Tinted Moisturizer Light Beige SPF 15; Hourglass Illusion Tinted Moisturizer Sand SPF 15; Hourglass Illusion Tinted Moisturizer Warm Beige SPF 15; Huxley Moist Cushion Own Attitude 1 White Desert; Huxley Moist Cushion Own Attitude 2 Sand; Huxley Moist Cushion Own Attitude 3 Sand Dune; Hyaluronic Hydra-Foundation SPF 30 100N Neutral Fair; Hyaluronic Hydra-Foundation SPF30 100C Cool Fair; Hyaluronic Hydra-Foundation SPF30 100W Warm Fair; Hyaluronic Hydra-Foundation SPF30 200C Cool Natural; Hyaluronic Hydra-Foundation SPF30 200N Neutral Natural; Hyaluronic Hydra-Foundation SPF30 200W Warm Natural; Hyaluronic Hydra-Foundation SPF30 300C Cool Medium Fair; Hyaluronic Hydra-Foundation SPF30 300N Neutral Medium Fair; Hyaluronic Hydra-Foundation SPF30 300W Warm Medium Fair; Hyaluronic Hydra-Foundation SPF30 400C Cool Medium; Hyaluronic Hydra-Foundation SPF30 400N Neutral Medium; Hyaluronic Hydra-Foundation SPF30 400W Warm Medium; Hyaluronic Hydra-Foundation SPF30 500C Cool Medium Dark; Hyaluronic Hydra-Foundation SPF30 500N Neutral Medium Dark; Hyaluronic Hydra-Foundation SPF30 500W Warm Medium Dark; Hydra Advance Solaire Ecran Total Fps 25; Hydra Bronze; Hydra Day SPF 20; Hydra Intensive Blemish Balm SPF30 PA; Hydra Life Base De Teint Serum; Hydra Life Bb Creme; Hydra Life Pro-youth Skin Tint 1; Hydra Life Pro-youth Skin Tint 2; Hydra Life Pro-youth Skin Tint 3; Hydra Life Soin Teinté Pro-jeunesse; Hydra Life Water BB SPF 30 Shade 010; Hydra Life Water BB SPF 30 Shade 020; Hydra Life Water BB SPF 30 Shade 030; Hydra Move Creme Teintee; HydraTint Pro Mineral Broad Spectrum Sunscreen SPF 36; Hydraction Visible Defense Creme Legere Hydra-protectrice SPF 20; Hydraction Visible Defense Creme Riche Hydra-protectrice SPF 20; Hydraction Visible Defense Creme Yeux Hydra-protectrice SPF 20; Hydralife Youth Essential Hydrating Essence-IN-base SPF 30; Hydrance Optimale SPF 25; Hydraphase Uv; Hydraphase Uv Eyes; Hydro Splash Bb Spf20 Pa; Hydro Urgency Fluide SPF 15; Hydro and Pore BB; HydroGold 9; HydroPeptide S.P.F. Sun Protection Friends; HydroPeptide Solar Defense Broad Spectrum SPF30; HydroPeptide Solar Defense Hand Guard; I Conceal Flawless Foundation Broad Spectrum SPF 30 Sunscreen Beige; I Conceal Flawless Foundation Broad Spectrum SPF 30 Sunscreen Deep Honey; I Conceal Flawless Foundation Broad Spectrum SPF 30 Sunscreen Mahogany; I Conceal Flawless Foundation Broad Spectrum SPF 30 Sunscreen Mocha; I Conceal Flawless Foundation Broad Spectrum SPF 30 Sunscreen Natural; I Conceal Flawless Foundation Broad Spectrum SPF 30 Sunscreen Porcelain; I Conceal Flawless Foundation Broad Spectrum SPF 30 Sunscreen Suede; I Conceal Flawless Foundation Broad Spectrum SPF 30 Sunscreen Toffee; INCELLDERM Cocktail Aqua Sun; IOPE AIR CUSHION Cover 13 Ivory; IOPE AIR CUSHION Cover 21 Vanilla; IOPE AIR CUSHION Cover 23 Beige; IOPE AIR CUSHION Cover 31 Warm Beige; IOPE AIR CUSHION Natural 13 Ivory; IOPE AIR CUSHION Natural 21 Vanilla; IOPE AIR CUSHION Natural 23 Beige; IOPE Air Cushion Blusher no 1; IOPE Air Cushion Blusher no 2; IOPE Air Cushion Intense Cover 13; IOPE Air Cushion Intense Cover 21; IOPE Air Cushion Intense Cover 23; IOPE Air Cushion Sunblock EX; IOPE B.B. SPF20/PA plus; IOPE CC no. 1; IOPE CC no. 2; IOPE Perfect Skin 1; IOPE Perfect Skin 2; IOPE Perfect Skin Twin Pact no 21; IOPE Perfect Skin Twin Pact no 23; IOPE S.S. CONDITIONING COLOR BASE No.40 SPF22 PA PLUS; IOPE S.S. CONDITIONING COLOR BASE No.60 SPF22 PA PLUS; IOPE SUPER VITAL EXTRA MOIST FOUNDATION No.21; IOPE SUPER VITAL EXTRA MOIST FOUNDATION No.23; IPKN ARTISTS TOUCH BB 02 Medium; IPKN MOIST AND FIRM BB 02 Light; IPKN Moist and Firm BB 01 Light; IPKN Moist and Firm BB 02 MEDIUM; IPKN Moist and Firm BB 02 Medium; IPKN Moist and Firm BB 03 Light Medium; IPKN Moist and Firm BB 04 Medium; IPKN Pore Apple Sun Block; IPKN Twinkle Velvet Founcushion 21; IPKN Twinkle Velvet Founcushion 23; IQQU Advance Sunscreen; IQQU Advanced Sunscreen SPF 50; IQueen CCC Dark; IQueen CCC Light; IQueen CCC Medium; ISA KNOX 365 BB SUNSCREEN Broad Spectrum SPF 40, PA; IST Sunscreen SPF 50; ITC Bye Bye Foundation Full Coverage Moisturizer Deep; ITC Bye Bye Foundation Full Coverage Moisturizer Fair; ITC Bye Bye Foundation Full Coverage Moisturizer Fair Light; ITC Bye Bye Foundation Full Coverage Moisturizer Light; ITC Bye Bye Foundation Full Coverage Moisturizer Light Medium; ITC Bye Bye Foundation Full Coverage Moisturizer Medium; ITC Bye Bye Foundation Full Coverage Moisturizer Medium Tan; ITC Bye Bye Foundation Full Coverage Moisturizer Neutral Medium; ITC Bye Bye Foundation Full Coverage Moisturizer Neutral Tan; ITC Bye Bye Foundation Full Coverage Moisturizer Oil-Free Matte Deep; ITC Bye Bye Foundation Full Coverage Moisturizer Oil-Free Matte Fair; ITC Bye Bye Foundation Full Coverage Moisturizer Oil-Free Matte Fair Light; ITC Bye Bye Foundation Full Coverage Moisturizer Oil-Free Matte Light; ITC Bye Bye Foundation Full Coverage Moisturizer Oil-Free Matte Light Medium; ITC Bye Bye Foundation Full Coverage Moisturizer Oil-Free Matte Medium; ITC Bye Bye Foundation Full Coverage Moisturizer Oil-Free Matte Medium Tan; ITC Bye Bye Foundation Full Coverage Moisturizer Oil-Free Matte Neutral Medium; ITC Bye Bye Foundation Full Coverage Moisturizer Oil-Free Matte Neutral Tan; ITC Bye Bye Foundation Full Coverage Moisturizer Oil-Free Matte Rich; ITC Bye Bye Foundation Full Coverage Moisturizer Oil-Free Matte Rich Honey; ITC Bye Bye Foundation Full Coverage Moisturizer Oil-Free Matte Tan; ITC Bye Bye Foundation Full Coverage Moisturizer Rich; ITC Bye Bye Foundation Full Coverage Moisturizer Rich Honey; ITC Bye Bye Foundation Full Coverage Moisturizer Tan; ITC CC Full Coverage Cream Fair; ITC CC Full Coverage Cream Fair Light; ITC CC Full Coverage Cream Light; ITC CC Full Coverage Cream Light Medium; ITC CC Full Coverage Cream Medium; ITC CC Full Coverage Cream Medium Tan; ITC CC Full Coverage Cream Neutral Medium; ITC CC Full Coverage Cream Neutral Tan; ITC CC Full Coverage Cream Rich; ITC CC Full Coverage Cream Rich Honey; ITC CC Full Coverage Cream Tan; ITC CC Illumination Full Coverage Cream Deep; ITC CC Illumination Full Coverage Cream Fair; ITC CC Illumination Full Coverage Cream Fair Light; ITC CC Illumination Full Coverage Cream Light; ITC CC Illumination Full Coverage Cream Light Medium; ITC CC Illumination Full Coverage Cream Medium; ITC CC Illumination Full Coverage Cream Medium Tan; ITC CC Illumination Full Coverage Cream Neutral Medium; ITC CC Illumination Full Coverage Cream Neutral Tan; ITC CC Illumination Full Coverage Cream Rich; ITC CC Illumination Full Coverage Cream Rich Honey; ITC CC Illumination Full Coverage Cream Tan; Ice Sun Bc Air Puff; Ics Perfect Finish Bb EX SPF 17 Pa; Ics Platinum Multi Finish Bb SPF 47 Pa; Ideal Balance SPF 10; Ideal Balance SPF 14; Ideal Flawless Beauty Balm; Ideal Flawless CC Color Corrector; Ideal Flawless Cc Color Corrector Cream; Ideal Flawless Invisible Coverage Cream To Powder Foundation; Ideal Flawless Invisible Coverage Liquid Foundation; Ideal Flawless Tinted Moisturizer; Ideal Flawless Tinted Moisturizer Lotion; Ideal Shade Cream-TO-powder Foundation Fond De Teint Creme-poudre SPF/fps 15; Ideal Shade Cream-to-Powder Foundation; Ideal Shade Custom Shade Foundation; Ideal Shade Custom Shade Foundation Lotion; Ideal Shade Mousse Foundation Stick Stick Fond De Teint Mousse SPF/fps 10; Ideal Shade Tinted Moisturizer; Ideal Shade Tinted Moisturizer Hydratant Teinté SPF/fps 15; Ideal Tone Up Glow Bb; Illumikate Cc SPF 50; Illuminating Finish Compact Foundation SPF 12; Illuminating Mineral Beauty Balm with SPF 9; Illusion Hyaluronic Skin Tint Oil Free Sunscreen Broad Spectrum Beige SPF 15; Illusion Hyaluronic Skin Tint Oil Free Sunscreen Broad Spectrum Golden Tan SPF 15; Illusion Hyaluronic Skin Tint Oil Free Sunscreen Broad Spectrum Honey SPF 15; Illusion Hyaluronic Skin Tint Oil Free Sunscreen Broad Spectrum Ivory SPF 15; Illusion Hyaluronic Skin Tint Oil Free Sunscreen Broad Spectrum Light Beige SPF 15; Illusion Hyaluronic Skin Tint Oil Free Sunscreen Broad Spectrum Nude SPF 15; Illusion Hyaluronic Skin Tint Oil Free Sunscreen Broad Spectrum Sand SPF 15; Illusion Hyaluronic Skin Tint Oil Free Sunscreen Broad Spectrum Shell SPF 15; Illusion Hyaluronic Skin Tint Oil Free Sunscreen Broad Spectrum Vanilla SPF 15; Illusion Hyaluronic Skin Tint Oil Free Sunscreen Broad Spectrum Warm Ivory SPF 15; Illusion Tinted Moisturizer Broad Spectrum Beige SPF 15; Illusion Tinted Moisturizer Broad Spectrum Golden SPF 15; Illusion Tinted Moisturizer Broad Spectrum Golden Tan SPF 15; Illusion Tinted Moisturizer Broad Spectrum Honey SPF 15; Illusion Tinted Moisturizer Broad Spectrum Ivory SPF 15; Illusion Tinted Moisturizer Broad Spectrum Light Beige SPF 15; Illusion Tinted Moisturizer Broad Spectrum Nude SPF 15; Illusion Tinted Moisturizer Broad Spectrum Sable SPF 15; Illusion Tinted Moisturizer Broad Spectrum Sand SPF 15; Illusion Tinted Moisturizer Broad Spectrum Shell SPF 15; Illusion Tinted Moisturizer Broad Spectrum Vanilla SPF 15; Illusion Tinted Moisturizer Broad Spectrum Warm Ivory SPF 15; Im Cover Bb Sunstick; Im Pure Cica Sunscreen; Im Pure Perfect Cica; Im Safe for Baby and Silver; Im Safe for Sensitive Skin; Im Tone Up Multi Base; Image Prevention Refiner Primer SPF50; Imanance Mat SPF 15; Imanance SPF 15 - Crm Top; Impact Fix Essence Make Up Base SPF 10 / UVB Protection; Impact Fix Essence Make Up Base SPF 10, No. 1; Impact Fix Prism Two Way Cake Broad Spectrum SPF 24; Impact Fix Prism Two Way Cake SPF 24, No. 23; Impact Fix Prism Two Way Cake SPF 24, No. 33; Impact Fix Pure Essence Foundation Broad Spectrum SPF 20; Impact Fix Pure Essence Foundation SPF 20, No. 23; Impact Fix Pure Essence Foundation SPF 20, No. 35; Incellderm 4d Lustre Cushion; Infinitek Paris Broad Spectrum SPF 50 Sunscreen; Infinitek SPF 50 Mineral; Innovative Skin Perfector BB Broad Spectrum SPF15 Sunscreen (Light/Medium); InstaNatural Vitamin C Moisturizer SPF30; InstaReady Full Coverage Concealer; InstaReady Full Coverage Concealer SPF 30; Instant Radiance Sun Defense Sunscreen Broad Spectrum SPF 40 (Light - Medium) with sheer color correction technology; Instant Radiance Sun Defense Sunscreen Broad Spectrum SPF 40 (Medium-Deep) with sheer color correction technology; Instant Sun Light Bronzing SPF 15 Tint 10 MORNING SUN; Instant Sun Light Bronzing SPF 15 Tint 20 GOLDEN SUN; Intellishade Matte SPF 45; Intellishade Original SPF 45; Intellishade TruPhysical SPF 45; Intense Care Galactomyces Whitening; Intensive Cover Blemish Balm; Intensive Line Filler Comble-ridules Intensif SPF/fps 15; Intensive Serum Foundation; Intensive Skin Serum Foundation Broad Spectrum SPF 40; Intral Sensitive Skin Environmental Lightweight Shield Broad Spectrum Spf50; Invincible Setting powder SPF 45; Invisible Shield Full Physical SPF 49 Broad Spectrum Sunscreen; Invisible Shield Full Physical Tinted SPF 52 Broad Spectrum Sunscreen; Ion de Cushion Cover Beige ICCB; Ion de Cushion Cover Light Beige ICCLB; Ion de Cushion Natural Beige ICNB; Ion de Cushion Natural Light Beige ICNLB; Iope Air Cushion; Iope Air Cushion Flawless 13c; Iope Air Cushion Flawless 21n; Iope Air Cushion Flawless 21w; Iope Air Cushion Flawless 23n; Iope Air Cushion Flawless 23w; Iope Air Cushion Matte Longwear C13; Iope Air Cushion Matte Longwear N21; Iope Air Cushion Matte Longwear N23; Iope Air Cushion Matte Longwear W21; Iope Air Cushion Matte Longwear W23; Iope Air Cushion Perfection C13; Iope Air Cushion Perfection N21; Iope Air Cushion Perfection N23; Iope Air Cushion Perfection W21; Iope Air Cushion Perfection W23; Iope Air Cushion Sheer 13c; Iope Air Cushion Sheer 21n; Iope Air Cushion Sheer 21w; Iope Air Cushion Sheer 23n; Iope Air Cushion Sheer 23w; Iope Air Cushion Xp; Iope Air Cushion Xp Cover Beige Broad Spectrum Spf50plus; Iope Air Cushion Xp Cover Light Vanilla; Iope Air Cushion Xp Cover Vanilla Broad Spectrum Spf50plus; Iope Air Cushion Xp Intense Cover Beige; Iope Air Cushion Xp Intense Cover Vanilla; Iope Air Cushion Xp Matte Beige; Iope Air Cushion Xp Matte Light Vanilla; Iope Air Cushion Xp Matte Vanilla; Iope Air Cushion Xp Natural 31; Iope B.b Bb; Iope Brightgen; Iope Mild Clinic Sun Protector; Iope Perfect Cover Cushion 13; Iope Perfect Cover Cushion 21; Iope Perfect Cover Cushion 23; Iope Perfect Skin Cover Cake 21 Light Beige; Iope Perfect Skin Cover Cake 23 Natural Beige; Iope Retigen Essence Dual Concealer; Iope Retigen Glow Cover Cake No.21; Iope Retigen Glow Cover Cake No.23; Iope Retigen Luminous Base; Iope Retigen Moisture Base Natural Green; Iope Retigen Moisture Base Natural Yellow; Iope Retigen Moisture Foundation No.17 Spf22 Pa Plus; Iope Retigen Moisture Foundation No.21 Spf22 Pa Plus; Iope Retigen Moisture Foundation No.23 Spf22 Pa Plus; Iope Retigen Moisture Twin Cake No.17; Iope Retigen Moisture Twin Cake No.21; Iope Retigen Moisture Twin Cake No.23; Iope Retigen Smoothing Pact No.1 Spf25 Pa Plus Plus; Iope Retigen Smoothing Pact No.2 Spf25 Pa Plus Plus; Iope Ss Conditioning Foundation No.13 Spf22 Pa Plus; Iope Ss Conditioning Foundation No.21 Spf22 Pa Plus; Iope Ss Conditioning Foundation No.23 Spf22 Pa Plus; Iope Ss Conditioning Foundation No.31 Spf22 Pa Plus; Iope Super Vital Extra Moist B.b; Iope Super Vital Extra Moist Base; Iope Super Vital Extra Moist Foundation No. 21 Spf12 Pa Plus; Iope Super Vital Extra Moist Foundation No. 23 Spf12 Pa Plus; Iope Super Vital Extra Moist Twin Pact No. 21 Spf25 Pa Plus Plus; Iope Super Vital Extra Moist Twin Pact No. 23 Spf25 Pa Plus Plus; Ipkn Artists Touch Bb 01 Light; Ipkn Artists Touch Bb 02 Medium; Ipkn Hydro and Pore Bb 01 Light; Ipkn Hydro and Pore Bb 02 Medium; Ipkn Moist and Firm Bb 01 Fair; Ipkn Moist and Firm Bb 05 Medium Tan; Isa Knox 365 Sun; Isa Knox Ageless Moist Serum Two Way Cake 21; Isa Knox Ageless Moist Serum Two Way Cake 21 (refill); Isa Knox Ageless Moist Serum Two Way Cake 23; Isa Knox Ageless Moist Serum Two Way Cake 23 (refill); Isa Knox Ageless Serum Makeup Base 10; Isa Knox Shine Dew Air Pact 21; Isa Knox Shine Dew Air Pact 23; Isa Knox Smart Bb Sun; Isa Knox Tervina Repair Foundation Bb; Isa Knox Timeless Essence Skin Cover 21; Isa Knox Timeless Essence Skin Cover 23; Isa Knox Timeless Essence Two Way Cake 21; Isa Knox Timeless Essence Two Way Cake 23; Isa SunGuard SPF 30; Isaknox Ageless Serum Blemish Balm; Isaknox Ageless Serum Compact 21; Isaknox Ageless Serum Compact 23; Isaknox Ageless Serum Moist Pearl Base; Isaknox Suncare 365 Advanced Sun; Isaknox Timeless Essence Makeup Base 70; Island Remedy All-day Revitalizing Moisturizer with SPF 30; It Radiant CC Color Base Lavender; It Radiant CC Color Base Mint; It Radiant CC Color Base Rose; It Radiant CC Cover Light Beige; It Radiant CC Cover Natural Beige; It Radiant Cc; It Radiant Cc Cushion Be10; It Radiant Cc Cushion Be20; It Radiant Cc Cushion Bp15; It Radiant Cc In Melting Foundation Be10; It Radiant Cc In Melting Foundation Be15; It Radiant Cc In Melting Foundation Be20; It Radiant Glow Bb Classic Beige; It Radiant Glow Bb True Beige; It Radiant Multiple Cc for Man; Ivory Always Color Stay-On Makeup SPF 10; Ivory Always color stay-on Makeup Broad Spectrum SPF 15 Jafra; Ivory Expert Finish Makeup Broad Spectrum SPF 25 Merle Norman; Ivory Perfecting Makeup Broad Spectrum SPF 25 Merle Norman; J and R Perfect Essence Beblesh Balm (40mL); JIKIMI GERM KILLER-Spray; JJF Foundation Sunscreen Face Broad Spectrum SPF 38; JM-TTA01 Hand Sanitizer; JNH Dr. Intensive Plus UV Protector; JUNGSAEMMOOL Essential Skin Nuder Cushion Fair Light; JUNGSAEMMOOL Essential Skin Nuder Cushion Light; JUNGSAEMMOOL Essential Skin Nuder Cushion Medium; JUNGSAEMMOOL Essential Skin Nuder Cushion Medium Deep; JUNGSAEMMOOL Essential Skin Nuder Longwear Cushion Fair Light; JUNGSAEMMOOL Essential Skin Nuder Longwear Cushion Light; JUNGSAEMMOOL Essential Skin Nuder Longwear Cushion Medium; JUNGSAEMMOOL Essential Skin Nuder Longwear Cushion Medium Deep; JUNGSAEMMOOL Essential Star cealer Foundation Fair Light; JUNGSAEMMOOL Essential Star cealer Foundation Light; JUNGSAEMMOOL Essential Star cealer Foundation Medium; JUNGSAEMMOOL Essential Star cealer Foundation Medium Deep; JUNGSAEMMOOL Masterclass Glow Base; JUNGSAEMMOOL Masterclass Radiant Cushion N0 Cream; JUNGSAEMMOOL Masterclass Radiant Cushion N1 Ivory; JUNGSAEMMOOL Masterclass Radiant Cushion N2 Vanila; JUNGSAEMMOOL Masterclass Radiant Cushion Y4 Sand; JUNGSAEMMOOL Masterclass Radiant Cushion Y5 Honey; JUNGSAEMMOOL Skin Nuder Cover Layer Cushion Fair Light; JUNGSAEMMOOL Skin Nuder Cover Layer Cushion Light; JUNGSAEMMOOL Skin Nuder Cover Layer Cushion Medium; JUNGSAEMMOOL Skin Nuder Cover Layer Cushion N-Light; JUNGSAEMMOOL Skin Setting Tone Balancing Base; JUNGSAEMMOOL Skin Setting Tone Correcting Base; Jafra Always Color Stay-on Makeup SPF 10; Jason Facial Natural Sunscreen Broad Spectrum SPF20; Jason Mineral Sunscreen SPF30 Broad Spectrum; Jason Pure Natural Sun Family Natural Sunscreen Broad Spectrum SPF45; Jason Pure Natural Sun Kids Natural Sunscren Broad Spectrum SPF45; Jason Pure Natural Sun Mineral Natural Sunscreen Broad Spectrum SPF30; Jason Pure Natural Sun Sport Natural Sunscreen Broad Spectrum SPF45; Jason Sun Facial Sunscreen Broad Spectrum SPF20; Jason Sun Family Sunscreen Broad Spectrum SPF45; Jason Sun Kids Sunscreen Broad Spectrum SPF45; Jason Sun Sport Sunscreen Broad Spectrum SPF45; Jayjun Wakepure Calming Sun; Jerrys Baby Non-nano Sun Cushion; Johnson's Baby Lotion SPF 15; Josie Maran - Get Even Sun Milk Broad Spectrum SPF 33 Mineral Sunscreen; Josie Maran Argan Daily Moisturizer SPF47; Josie Maran Argan Daily Moisturizer SPF47 Protect and Perfect; Josie Maran Argan Daily Moisturizer SPF47 Protect and Perfect Radiance; Journee Firm Broad Spectrum Sunscreen SPF 30; Jungle Screen SPF 30; Jungsaemmool Skin Setting Tone-UP Sun Base; Jurlique Purely Sun-Defying Moisturizer with SPF 15 Sunscreen; Jurlique Sun Sunscreen SPF 30; Just Enough SPF 15 Tinted Moisturizer Beige is Beautiful; Just Enough SPF 15 Tinted Moisturizer Brown is Beautiful; Just Enough SPF 15 Tinted Moisturizer Dark Brown is Beautiful; Just Enough SPF 15 Tinted Moisturizer Deep Brown is Beautiful; Just Enough SPF 15 Tinted Moisturizer Fair is Beautiful; Just Enough SPF 15 Tinted Moisturizer Golden Brown is Beautiful; Just Enough SPF 15 Tinted Moisturizer Ivory is Beautiful; Just Enough SPF 15 Tinted Moisturizer Light Beige is Beautiful; Just Enough SPF 15 Tinted Moisturizer Light Brown is Beautiful; Just Enough SPF 15 Tinted Moisturizer Tan is Beautiful; Just for Kids 30 SPF; KISS MY FACE MINERAL SUNSCREEN obsessively natural KIDS defense broad spectrum spf 30; KISS MY FACE MINERAL SUNSCREEN sun broad spectrum spf 30; KISS MY FACE organics KIDS MINERAL SUNSCREEN broad spectrum spf 30; KISS MY FACE organics face and body MINERAL SUNSCREEN broad spectrum spf 30; KLAVUU BLUEPEARLSATION High Coverage Marine Collagen Aqua Cushion 21; KLAVUU BLUEPEARLSATION High Coverage Marine Collagen Aqua Cushion 23; KLAVUU UV Protection Secret Tone Up Sunscreen; KLAVUU WHITE PEARLSATION Ideal Actress Backstage Cream SPF30; Kandesn 2000 Protective Eml SPF 25; Kandesn CC Cream Fair; Kandesn CC Cream Light Medium; Kashmere Anti-aging Sunscreen Moisturizer Broad Spectrum SPF 30; Kathari Sun Shield Drops Natural SPF 50; Keep The Peace Protect and Correct; Keep the Peace Broad Spectrum SPF 20 Sunscreen Protective Color Corrector; Kicho Cc; Kicho Correct Control; Kid's SPF 30; Kid's Sun Screen; Kid's Sunscreen SPF 46; KidCreme Mineral Broad Spectrum SPF 40 Sunscreen UVA-UVB Suncreen; KidStick Mineral Broad Spectrum SPF 40 Sunscreen UVA-UVB Sunscreen; Kids 50 SPF50; Kids Mineral Sunscreen Roll-ON SPF-30; Kids Natural Mineral Sunscreen Broad Spectrum SPF 30; Kids SPF 30+ Sunscreen; Kids SPF 50 Plus Sunscreen; Kids SPF 50 plus Sunscreen All Mineral Active Ingredients; Kids SPF50 Plus Mineral Sunscreen Continuous Totally Tropical; Kids SPF50Plus Mineral Sunscreen Rollerball Totally Tropical; Kids Spf30 Super Sensitive Plus C111 Sunscreen; Kids Sport Natural Mineral Sunscreen Broad Spectrum SPF 30; Kids Spray; Kids Sunscreen; Kids Tear Free Sans Larmes Sunscreen Lotion Écran Solaire Pour Enfants SPF Fps 50; Kids Tear Free/ Sans Larmes Sunscreen Lotion/lotion Écran Solaire Pour Enfants SPF Fps 60; Kids Uv Lotion; Kids' Sunscreen Broad Spectrum SPF 60 Lotion; Kids/enfants SPF/fps 50; Kidsport; Kiehls Activated Sun Protector Ultra Light Sunscreen SPF 50 for Body Sweat and Water Resistant; Kiehls Dermatologist Solutions Ultra Light Daily Uv Defense Sunscreen SPF 50 High Protection Anti-pollution Lightweight Formula for All Skin Types; Kiehls Since 1851 Activated Sun Protector For Face and Body Broad Spectrum SPF 50 Sunscreen; Kiehls Since 1851 Dermatologist Solutions Clearly Corrective Dark Circle Perfector Broad Spectrum SPF 30 Sunscreen; Kiehls Since 1851 Dermatologist Solutions Skin Tone Correcting and Beautifying BB Sunscreen; Kiehls Since 1851 Dermatologist Solutions SuperFluid UV Mineral Defense Broad Spectrum SPF 50 Plus Sunscreen; Kiehls Since 1851 Dermatologist Solutions Ultra Light Daily UV Defense Tone Up SPF 50 PA Plus Plus Plus Plus Antipollution; Kiehls Ultra Light Daily UV Defense Aqua Gel SPF 50 Anti-Pollution; Kiehls Ultra Light Daily UV Defense CC SPF 50 Anti Pollution; Kiehls Ultra Light Daily Uv Defense Tone Up SPF 50 Anti Pollution Instantly Brightens and Hydrates; KiinSun Sunscreen Broad Spectrum SPF50; Kiko Milano Unlimited Foundation; Kinesys SPF 30 Solid Sunscreen; Kinesys SPF 30 Sun Stick; Kiss My Face - Oat Protein Complex SPF 18; Kiss My Face Babys First Kiss Mineral SPF 30 Broad Spectrum; Kiss My Face Bare Naked 30 Mineral Sunscreen; Kiss My Face Cool Sport 30 Mineral Sunscreen; Kiss My Face Kids 30 Mineral Sunscreen; Kiss My Face Kids Defense Mineral SPF 30 Broad Spectrum; Kiss My Face Non Chemical Sunblock With Oat Protein Complex SPF 18; Kiss My Face Organics SPF-30 Mineral Sun; Kiss My Face Sunblock With Oat Protein Complex SPF 30; Klavuu City Defense Tone Change Sun Cushion; Kocostar Sun Block Capsule Mask; Koh Gen Do Aqua Foundation BE-1; Koh Gen Do Aqua Foundation OC-1; Koh Gen Do Aqua Foundation OC-2; Koh Gen Do Aqua Foundation OC-3; Koh Gen Do Aqua Foundation PK-0; Koh Gen Do Aqua Foundation PK-1; Koh Gen Do Aqua Foundation PK-2; Koh Gen Do Aqua Foundation PK-3; Koh Gen Do Aqua Foundation WT-00; Koh Gen Do Maifanshi Makeup Color Base Green; Koh Gen Do Maifanshi Makeup Color Base Lavender Pink; Koh Gen Do Maifanshi Makeup Color Base Pearl White; Koh Gen Do Maifanshi Makeup Color Base Yellow; Koh Gen Do Maifanshi Triple Lighting Foundation BE-1; Koh Gen Do Maifanshi Triple Lighting Foundation BR-1; Koh Gen Do Maifanshi Triple Lighting Foundation BR-2; Koh Gen Do Maifanshi Triple Lighting Foundation OC-1; Koh Gen Do Maifanshi Triple Lighting Foundation OC-2; Koh Gen Do Maifanshi UV Face Powder; Koh Gen DoTriple Lighting Foundation; Koh Gen DoUV Care Milk UV Care Milk; Kopher Calming Ocean Sun; Korres Wild Rose Mineral Foundation SPF 30 - Fair; Korres Wild Rose Mineral Foundation SPF 30 - Fairly Light; Korres Wild Rose Mineral Foundation SPF 30 - Medium Beige; Korres Wild Rose Mineral Foundation SPF 30 - Medium Tan; Korres Wild Rose Mineral Foundation WRMF1 Fair SPF 30; Korres Wild Rose Mineral Foundation WRMF2 Light SPF 30; Korres Wild Rose Mineral Foundation WRMF3 Medium Beige SPF 30; Korres Wild Rose Mineral Foundation WRMF4 Medium Tan SPF 30; L OCCITANE AU BRESIL - JENIPAPO Face Protection Veil SPF 30 Broad Spectrum; L OCCITANE SUBLIME BEAUTY BB LIGHT SPF 30 Broad Spectrum Sunscreen; L OCCITANE SUBLIME BEAUTY BB MEDIUM SPF 30 Broad Spectrum Sunscreen; L Occitane Immortelle Brightening Shield SPF 40 Sunscreen; LA Mer The Luminous Lifting Cushion Foundation Broad Spectrum SPF 20; LA Mer The Radiant Skintint Broad Spectrum SPF 30; LA Mer The Reparative Skin Tint Broad Spectrum SPF 30; LA Mer The Soft Fluid Long Wear Foundation SPF 20; LA Mer The Soft Moisture Foundation Broad Spectrum SPF 30; LA Mer The Treatment Creme Foundation SPF 15; LA Mer The Treatment Fluid Foundation SPF 15; LA Muse Return 2 Blessing Visual; LANEIGE BB CUSHION HYDRA RADIANCE Limited Edition with Crystals No.11 Porcelain; LANEIGE BB CUSHION HYDRA RADIANCE Limited Edition with Crystals No.21 Beige; LANEIGE BB CUSHION HYDRA RADIANCE Limited Edition with Crystals No.23 Sand; LANEIGE BB CUSHION HYDRA RADIANCE Limited Edition with Crystals No.33 Cinnamon; LANEIGE BB CUSHION HYDRA RADIANCE Limited Edition with Crystals No.35 Coffee; LANEIGE BB CUSHION HYDRA RADIANCE Limited Edition with Crystals No.37 Cacao; LANEIGE BB CUSHION HYDRA RADIANCE No.11 Porcelain; LANEIGE BB CUSHION HYDRA RADIANCE No.21 Beige; LANEIGE BB CUSHION HYDRA RADIANCE No.23 Sand; LANEIGE BB CUSHION HYDRA RADIANCE No.33 Cinnamon; LANEIGE BB CUSHION HYDRA RADIANCE No.35 Coffee; LANEIGE BB CUSHION HYDRA RADIANCE No.37 Cacao; LANEIGE BB CUSHION PORE BLUR No.11 Porcelain; LANEIGE BB CUSHION PORE BLUR No.21 Beige; LANEIGE BB CUSHION PORE BLUR No.23 Sand; LANEIGE BB CUSHION PORE BLUR No.33 Cinnamon; LANEIGE BB CUSHION PORE BLUR No.35 Coffee; LANEIGE BB CUSHION PORE BLUR No.37 Cacao; LANEIGE BB Cushion Light; LANEIGE BB Cushion Medium; LANEIGE BB Cushion no.21; LANEIGE BB Cushion no.23; LANEIGE CUSHION CONCEALER No.11 Rose Porcelain; LANEIGE CUSHION CONCEALER No.13 Cool Ivory; LANEIGE CUSHION CONCEALER No.21 Cool Beige; LANEIGE CUSHION CONCEALER No.23 Sand; LANEIGE Forever Definite Compact Foundation No.1; LANEIGE Forever Definite Compact Foundation No.2; LANEIGE Forever Definite Compact Foundation No.3; LANEIGE Forever Definite Compact Foundation No.4; LANEIGE MYSTIC VEIL FOUNDATION No. 21; LANEIGE MYSTIC VEIL FOUNDATION No. 23; LANEIGE SKIN VEIL BASE SPF 26 PA plus; LANEIGE SNOW crystal No. 21 SPF22 PAplus; LANEIGE SNOW crystal No. 23 SPF22 PAplus; LANEIGE SNOW crystal No. 31 SPF22 PAplus; LANEIGE SNOW crystal No. 33 SPF22 PAplus; LANEIGE Snow BB No.1 Brightening BB; LANEIGE Snow BB No.2 Natural BB; LANEIGE SunScreen Triple; LAPCOS Doublet Cover Cushion 01 Rosy Ivory; LAPCOS Doublet Cover Cushion 02 Neutral Beige; LAPCOS Lasting Waterproof Sun; LAPCOS Stay With Me Cushion 01 Rosy Ivory; LAPCOS Stay With Me Cushion 02 Neutral Beige; LASPA Ultra Sun Stick; LAURA GELLER BETTER THAN BARE TINTED MOISTURIZER BROAD SPECTRUM SUNSCREEN SPF 50 Plus Beige 200; LAURA GELLER BETTER THAN BARE TINTED MOISTURIZER BROAD SPECTRUM SUNSCREEN SPF 50 Plus Deep 430; LAURA GELLER BETTER THAN BARE TINTED MOISTURIZER BROAD SPECTRUM SUNSCREEN SPF 50 Plus Fair 130; LAURA GELLER BETTER THAN BARE TINTED MOISTURIZER BROAD SPECTRUM SUNSCREEN SPF 50 Plus Medium 230; LAURA GELLER BETTER THAN BARE TINTED MOISTURIZER BROAD SPECTRUM SUNSCREEN SPF 50 Plus Sand 400; LAURA GELLER BETTER THAN BARE TINTED MOISTURIZER BROAD SPECTRUM SUNSCREEN SPF 55- Beige 200; LAURA GELLER BETTER THAN BARE TINTED MOISTURIZER BROAD SPECTRUM SUNSCREEN SPF 55- Deep 430; LAURA GELLER BETTER THAN BARE TINTED MOISTURIZER BROAD SPECTRUM SUNSCREEN SPF 55- Fair 130; LAURA GELLER BETTER THAN BARE TINTED MOISTURIZER BROAD SPECTRUM SUNSCREEN SPF 55- Medium 230; LAURA GELLER BETTER THAN BARE TINTED MOISTURIZER BROAD SPECTRUM SUNSCREEN SPF 55- Sand 400; LBEL Couler Luxe Supreme XP Rosace, Excentrique, Harmonie; LBEL Couler Luxe Supreme XP Sublime, Orange, Sobriete; LBEL DEFENSE 365 Daily Protective Facial SPF 50; LBEL DEFENSE 365 oil-free daily protective facial SPF 50; LBEL DIVINE Double Use compact SPF 15 gold deluxe edition Obscure 8-9; LBEL DIVINE Polvos compactos doble uso FPS 15 edicion de lujo dorado/Double use compact SPF 15 gold deluxe edition Claire 1-2-3; LBEL DIVINE Polvos compactos doble uso FPS 15 edicion de lujo dorado/Double use compact SPF 15 gold deluxe edition Claire 4; LBEL DIVINE Polvos compactos doble uso FPS 15 edicion de lujo dorado/Double use compact SPF 15 gold deluxe edition Medium 5; LBEL DIVINE Polvos compactos doble uso FPS 15 edicion de lujo dorado/Double use compact SPF 15 gold deluxe edition Medium 6; LBEL DIVINE Polvos compactos doble uso FPS 15 edicion de lujo dorado/Double use compact SPF 15 gold deluxe edition Medium 7; LBEL DIVINE Polvos compactos doble uso FPS 15 edicion de lujo dorado/Double use compact SPF 15 gold deluxe edition Obscure 8-9; LBEL DIVINE Polvos compactos doble uso FPS 15 edicion de lujo plateado/Double use compact SPF 15 silver deluxe edition Claire 1-2-3; LBEL DIVINE Polvos compactos doble uso FPS 15 edicion de lujo plateado/Double use compact SPF 15 silver deluxe edition Claire 4; LBEL DIVINE Polvos compactos doble uso FPS 15 edicion de lujo plateado/Double use compact SPF 15 silver deluxe edition Medium 5; LBEL DIVINE Polvos compactos doble uso FPS 15 edicion de lujo plateado/Double use compact SPF 15 silver deluxe edition Medium 6; LBEL DIVINE Polvos compactos doble uso FPS 15 edicion de lujo plateado/Double use compact SPF 15 silver deluxe edition Medium 7; LBEL DIVINE Polvos compactos doble uso FPS 15 edicion de lujo plateado/Double use compact SPF 15 silver deluxe edition Obscure 8-9; LBEL Defense Total compact sunscreen SPF 50 for face - matte finish CLAIRE- BEIGE; LBEL Defense Total compact sunscreen SPF 50 for face - matte finish MEDIUM- BROWN; LBEL EFFET PARFAIT LONG LASTING COMPACT SPF 15 Claire 1/Beige; LBEL EFFET PARFAIT LONG LASTING COMPACT SPF 15 Claire 2/Beige; LBEL EFFET PARFAIT LONG LASTING COMPACT SPF 15 Claire 3/Beige; LBEL EFFET PARFAIT LONG LASTING COMPACT SPF 15 Claire 4/Beige; LBEL EFFET PARFAIT LONG LASTING COMPACT SPF 15 Medium 5/Beige; LBEL EFFET PARFAIT LONG LASTING COMPACT SPF 15 Medium 6/Beige; LBEL EFFET PARFAIT LONG LASTING COMPACT SPF 15 Medium 7/Beige; LBEL EFFET PARFAIT LONG LASTING COMPACT SPF 15 Obscure 8/Beige; LBEL EFFET PARFAIT LONG LASTING COMPACT SPF 15 Obscure 9/Beige; LBEL EFFET PARFAIT Lip moisturizer SPF 18 FM Hidratante para labios FPS 18 FM; LBEL EFFET PARFAIT Loose extra-fine portable SPF 15 FM PORCELAINE- BEIGE; LBEL EFFET PARFAIT Loose extra-fine portable SPF 15 FM SANTE- BEIGE; LBEL EFFET PARFAIT Loose extra-fine portable SPF 15 FM TRANSLUCIDE- BEIGE; LBEL EFFET PARFAIT MINERAL natural skin effect mousse foundation SPF 16 CLAIRE 1 - BEIGE; LBEL EFFET PARFAIT MINERAL natural skin effect mousse foundation SPF 16 CLAIRE 1- BEIGE; LBEL EFFET PARFAIT MINERAL natural skin effect mousse foundation SPF 16 CLAIRE 2 - BEIGE; LBEL EFFET PARFAIT MINERAL natural skin effect mousse foundation SPF 16 CLAIRE 2- BEIGE; LBEL EFFET PARFAIT MINERAL natural skin effect mousse foundation SPF 16 CLAIRE 3 - BEIGE; LBEL EFFET PARFAIT MINERAL natural skin effect mousse foundation SPF 16 CLAIRE 3- BEIGE; LBEL EFFET PARFAIT MINERAL natural skin effect mousse foundation SPF 16 CLAIRE 4 - BEIGE; LBEL EFFET PARFAIT MINERAL natural skin effect mousse foundation SPF 16 CLAIRE 4- BEIGE; LBEL EFFET PARFAIT MINERAL natural skin effect mousse foundation SPF 16 MEDIUM 5 - BEIGE; LBEL EFFET PARFAIT MINERAL natural skin effect mousse foundation SPF 16 MEDIUM 5- BEIGE; LBEL EFFET PARFAIT MINERAL natural skin effect mousse foundation SPF 16 MEDIUM 6 - BEIGE; LBEL EFFET PARFAIT MINERAL natural skin effect mousse foundation SPF 16 MEDIUM 6- BEIGE; LBEL EFFET PARFAIT MINERAL natural skin effect mousse foundation SPF 16 MEDIUM 7 - BEIGE; LBEL EFFET PARFAIT MINERAL natural skin effect mousse foundation SPF 16 MEDIUM 7- BEIGE; LBEL EFFET PARFAIT MINERAL natural skin effect mousse foundation SPF 16 OBSCURE 8 - BEIGE; LBEL EFFET PARFAIT MINERAL natural skin effect mousse foundation SPF 16 OBSCURE 8- BEIGE; LBEL EFFET PARFAIT Polvos Compactos de Larga Duracion para rostro FPS 15 /Long Lasting Compact SPF 15 (CLAIRE 1) - BEIGE; LBEL EFFET PARFAIT Polvos Compactos de Larga Duracion para rostro FPS 15 /Long Lasting Compact SPF 15 (CLAIRE 2) - BEIGE; LBEL EFFET PARFAIT Polvos Compactos de Larga Duracion para rostro FPS 15 /Long Lasting Compact SPF 15 (CLAIRE 3) - BEIGE; LBEL EFFET PARFAIT Polvos Compactos de Larga Duracion para rostro FPS 15 /Long Lasting Compact SPF 15 (CLAIRE 4) - BEIGE; LBEL EFFET PARFAIT Polvos Compactos de Larga Duracion para rostro FPS 15 /Long Lasting Compact SPF 15 (MEDIUM 5) - BROWN; LBEL EFFET PARFAIT Polvos Compactos de Larga Duracion para rostro FPS 15 /Long Lasting Compact SPF 15 (MEDIUM 6) - BROWN; LBEL EFFET PARFAIT Polvos Compactos de Larga Duracion para rostro FPS 15 /Long Lasting Compact SPF 15 (MEDIUM 7) - BROWN; LBEL EFFET PARFAIT Polvos Compactos de Larga Duracion para rostro FPS 15 /Long Lasting Compact SPF 15 (OBSCURE 8) - BROWN; LBEL EFFET PARFAIT Polvos Compactos de Larga Duracion para rostro FPS 15 /Long Lasting Compact SPF 15 (OBSCURE 9) - BROWN; LBEL EFFET PARFAIT Signs of age appearance minimizer foundation SPF 20; LBEL EFFET PARFAIT signs of age appearance minimizer foundation SPF 20 FM CLAIRE 1 - BEIGE; LBEL EFFET PARFAIT signs of age appearance minimizer foundation SPF 20 FM CLAIRE 2 - BEIGE; LBEL EFFET PARFAIT signs of age appearance minimizer foundation SPF 20 FM CLAIRE 3 - BEIGE; LBEL EFFET PARFAIT signs of age appearance minimizer foundation SPF 20 FM CLAIRE 4 - BEIGE; LBEL EFFET PARFAIT signs of age appearance minimizer foundation SPF 20 FM MEDIUM 5 - BEIGE; LBEL EFFET PARFAIT signs of age appearance minimizer foundation SPF 20 FM MEDIUM 6 - BEIGE; LBEL EFFET PARFAIT signs of age appearance minimizer foundation SPF 20 FM MEDIUM 7 - BEIGE; LBEL EFFET PARFAIT signs of age appearance minimizer foundation SPF 20 FM OBSCURE 8 - BROWN; LBEL EFFET PARFAIT signs of age appearance minimizer foundation SPF 20 FM OBSCURE 9 - BROWN; LBEL Effet Parfait Mineral Natural Skin Effect Mouse Foundation; LBEL Lip Moisturizer SPF 18; LBEL MOUSSE MATIFFIANT MATTE FINISH MOUSSE FOUNDATION SPF 15 Claire 1/Beige; LBEL MOUSSE MATIFFIANT MATTE FINISH MOUSSE FOUNDATION SPF 15 Claire 2/ Beige; LBEL MOUSSE MATIFFIANT MATTE FINISH MOUSSE FOUNDATION SPF 15 Claire 3/ Beige; LBEL MOUSSE MATIFFIANT MATTE FINISH MOUSSE FOUNDATION SPF 15 Claire 4/ Beige; LBEL MOUSSE MATIFFIANT MATTE FINISH MOUSSE FOUNDATION SPF 15 Clare 1/ Beige; LBEL MOUSSE MATIFFIANT MATTE FINISH MOUSSE FOUNDATION SPF 15 Clare 1/Beige; LBEL MOUSSE MATIFFIANT MATTE FINISH MOUSSE FOUNDATION SPF 15 Clare 2/ Beige; LBEL MOUSSE MATIFFIANT MATTE FINISH MOUSSE FOUNDATION SPF 15 Clare 3/ Beige; LBEL MOUSSE MATIFFIANT MATTE FINISH MOUSSE FOUNDATION SPF 15 Clare 4/ Beige; LBEL MOUSSE MATIFFIANT MATTE FINISH MOUSSE FOUNDATION SPF 15 Medium 5/ Beige; LBEL MOUSSE MATIFFIANT MATTE FINISH MOUSSE FOUNDATION SPF 15 Medium 6/ Beige; LBEL MOUSSE MATIFFIANT MATTE FINISH MOUSSE FOUNDATION SPF 15 Medium 7/ Beige; LBEL MOUSSE MATIFFIANT MATTE FINISH MOUSSE FOUNDATION SPF 15 Obscure 8/ Beige; LBEL MOUSSE MATIFFIANT MATTE FINISH MOUSSE FOUNDATION SPF 15 Obscure 9/ Beige; LBEL MOUSSE MATIFFIANT Matte Finish Mousse Foundation SPF 16 Base Textura Mousse Acabado Mate FPS 16 CLAIRE 1 - BEIGE; LBEL MOUSSE MATIFFIANT Matte Finish Mousse Foundation SPF 16 Base Textura Mousse Acabado Mate FPS 16 CLAIRE 1- BEIGE; LBEL MOUSSE MATIFFIANT Matte Finish Mousse Foundation SPF 16 Base Textura Mousse Acabado Mate FPS 16 CLAIRE 2 - BEIGE; LBEL MOUSSE MATIFFIANT Matte Finish Mousse Foundation SPF 16 Base Textura Mousse Acabado Mate FPS 16 CLAIRE 2- BEIGE; LBEL MOUSSE MATIFFIANT Matte Finish Mousse Foundation SPF 16 Base Textura Mousse Acabado Mate FPS 16 CLAIRE 3 - BEIGE; LBEL MOUSSE MATIFFIANT Matte Finish Mousse Foundation SPF 16 Base Textura Mousse Acabado Mate FPS 16 CLAIRE 3- BEIGE; LBEL MOUSSE MATIFFIANT Matte Finish Mousse Foundation SPF 16 Base Textura Mousse Acabado Mate FPS 16 CLAIRE 4 - BEIGE; LBEL MOUSSE MATIFFIANT Matte Finish Mousse Foundation SPF 16 Base Textura Mousse Acabado Mate FPS 16 CLAIRE 4- BEIGE; LBEL MOUSSE MATIFFIANT Matte Finish Mousse Foundation SPF 16 Base Textura Mousse Acabado Mate FPS 16 MEDIUM 5 - BEIGE; LBEL MOUSSE MATIFFIANT Matte Finish Mousse Foundation SPF 16 Base Textura Mousse Acabado Mate FPS 16 MEDIUM 5- BEIGE; LBEL MOUSSE MATIFFIANT Matte Finish Mousse Foundation SPF 16 Base Textura Mousse Acabado Mate FPS 16 MEDIUM 6 - BEIGE; LBEL MOUSSE MATIFFIANT Matte Finish Mousse Foundation SPF 16 Base Textura Mousse Acabado Mate FPS 16 MEDIUM 6- BEIGE; LBEL MOUSSE MATIFFIANT Matte Finish Mousse Foundation SPF 16 Base Textura Mousse Acabado Mate FPS 16 MEDIUM 7 - BEIGE; LBEL MOUSSE MATIFFIANT Matte Finish Mousse Foundation SPF 16 Base Textura Mousse Acabado Mate FPS 16 MEDIUM 7- BEIGE; LBEL MOUSSE MATIFFIANT Matte Finish Mousse Foundation SPF 16 Base Textura Mousse Acabado Mate FPS 16 OBSCURE 8 - BROWN; LBEL MOUSSE MATIFFIANT Matte Finish Mousse Foundation SPF 16 Base Textura Mousse Acabado Mate FPS 16 OBSCURE 8- BROWN; LBEL MOUSSE MATIFFIANT Matte Finish Mousse Foundation SPF 16 Base Textura Mousse Acabado Mate FPS 16 OBSCURE 9 - BROWN; LBEL MOUSSE MATIFFIANT Matte Finish Mousse Foundation SPF 16 Base Textura Mousse Acabado Mate FPS 16 OBSCURE 9- BROWN; LBEL SUPREMACIE NX JOUR Replenishing Daytime Face SPF 15 Normal To Oily Skin; LBEL SUPREMACIE NX JOUR Replenishing Treatment Daytime Face SPF 15 Normal To Oily Skin; LBel Couleur Luxe Supreme XP; LBel EFFET PARFAIT; LBel EFFET PARFAIT Loose Extra-Fine Portable; LBel Effet Parfit; LBel Protege Expert; LES BEIGES ALL-IN-ONE HEALTHY GLOW FLUID, BROAD SPECTRUM SPF 15 SUNSCREEN, No 10; LES BEIGES ALL-IN-ONE HEALTHY GLOW FLUID, BROAD SPECTRUM SPF 15 SUNSCREEN, No 20; LES BEIGES ALL-IN-ONE HEALTHY GLOW FLUID, BROAD SPECTRUM SPF 15 SUNSCREEN, No 30; LES BEIGES ALL-IN-ONE HEALTHY GLOW FLUID, BROAD SPECTRUM SPF 15 SUNSCREEN, No 40; LES BEIGES ALL-IN-ONE HEALTHY GLOW FLUID, BROAD SPECTRUM SPF 15 SUNSCREEN, No 50; LES BEIGES ALL-IN-ONE HEALTHY GLOW FLUID, BROAD SPECTRUM SPF 15 SUNSCREEN, No 60; LES BEIGES HEALTHY GLOW FOUNDATION BROAD SPECTRUM SPF 25 SUNSCREEN No 10; LES BEIGES HEALTHY GLOW FOUNDATION BROAD SPECTRUM SPF 25 SUNSCREEN No 20; LES BEIGES HEALTHY GLOW FOUNDATION BROAD SPECTRUM SPF 25 SUNSCREEN No 21; LES BEIGES HEALTHY GLOW FOUNDATION BROAD SPECTRUM SPF 25 SUNSCREEN No 30; LES BEIGES HEALTHY GLOW FOUNDATION BROAD SPECTRUM SPF 25 SUNSCREEN No 40; LES BEIGES HEALTHY GLOW FOUNDATION BROAD SPECTRUM SPF 25 SUNSCREEN No 50; LES BEIGES HEALTHY GLOW FOUNDATION BROAD SPECTRUM SPF 25 SUNSCREEN No 60; LES BEIGES HEALTHY GLOW FOUNDATION BROAD SPECTRUM SPF 25 SUNSCREEN No12 Rose; LES BEIGES HEALTHY GLOW FOUNDATION BROAD SPECTRUM SPF 25 SUNSCREEN No121 Caramel; LES BEIGES HEALTHY GLOW FOUNDATION BROAD SPECTRUM SPF 25 SUNSCREEN No22 Rose; LES BEIGES HEALTHY GLOW FOUNDATION BROAD SPECTRUM SPF 25 SUNSCREEN No32 Rose; LES BEIGES HEALTHY GLOW FOUNDATION BROAD SPECTRUM SPF 25 SUNSCREEN No42 Rose; LES BEIGES HEALTHY GLOW FOUNDATION BROAD SPECTRUM SPF 25 SUNSCREEN No70; LES BEIGES HEALTHY GLOW FOUNDATION BROAD SPECTRUM SPF 25 SUNSCREEN No91 Caramel; LES BEIGES HEALTHY GLOW MULTI-COLOUR, BROAD SPECTRUM SPF 15 SUNSCREEN, MARINIERE No 01; LES BEIGES HEALTHY GLOW MULTI-COLOUR, BROAD SPECTRUM SPF 15 SUNSCREEN, MARINIERE No 02; LES BEIGES HEALTHY GLOW SHEER COLOUR, BROAD SPECTRUM SPF 15 SUNSCREEN, No 10; LES BEIGES HEALTHY GLOW SHEER COLOUR, BROAD SPECTRUM SPF 15 SUNSCREEN, No 20; LES BEIGES HEALTHY GLOW SHEER COLOUR, BROAD SPECTRUM SPF 15 SUNSCREEN, No 30; LES BEIGES HEALTHY GLOW SHEER COLOUR, BROAD SPECTRUM SPF 15 SUNSCREEN, No 40; LES BEIGES HEALTHY GLOW SHEER COLOUR, BROAD SPECTRUM SPF 15 SUNSCREEN, No 50; LES BEIGES HEALTHY GLOW SHEER COLOUR, BROAD SPECTRUM SPF 15 SUNSCREEN, No 60; LES BEIGES HEALTHY GLOW SHEER COLOUR, BROAD SPECTRUM SPF 15 SUNSCREEN, No 70; LIVESTS Moist Liquid; LOVLUV Vivacity Bright BB Cream; LOVLUV Vivacity Bright Cushion 13g; LOVLUV Vivacity Bright Cushion 21g; LOreal Paris Infallible Up to 24 H Fresh Wear Foundation Broad Spectrum SPF 25 Sunscreen; LOreal Paris Ombrelle SPF 30 Complete Water Resistant; LOreal Paris Sublime Bronze Summer Express Wash Off Face Bronzer Broad Spectrum SPF 20 Sunscreen; LOreal Paris True Match Naturale gentle mineral makeup Broad Spectrum SPF 19; LOreal Paris True Match Super Blendable Foundation Broad Spectrum SPF 17 Sunscreen; LOreal Paris Visible Lift Instant Age Reversing Foundation SPF 17; LOreal Paris Visible Lift Repair Absolute Rapid Age Reversing Makeup Broad Spectrum SPF 16 Sunscreen; LOreal Paris Visible lift Serum Absolute Advanced Age Reversing Makeup Broad Spectrum SPF 17; LOreal Paris Youth Code Broad Spectrum SPF 15 BB; LOreal Paris true match super blendable makeup broad spectrum spf 17; La Creme P; La Defense Broad Spectrum SPF 30 Mineral Sunscreen; La Defense Urban Protect Mineral BB Cream Broad Spectrum SPF20, Cool Undertone; La Defense Urban Protect Mineral BB Cream Broad Spectrum SPF20, Warm Undertone; La Roche Posay Laboratoire Dermatologique Anthelios 50 Mineral Body Broad Spectrum SPF 50 Ultra Light Sunscreen; La Roche Posay Laboratoire Dermatologique Anthelios 50 Mineral Daily Tone Correcting Primer Broad Spectrum SPF 50 Sunscreen; La Roche Posay Laboratoire Dermatologique Anthelios 50 Mineral Ultra Light Sunscreen; La Roche Posay Laboratoire Dermatologique Anthelios 50 Mineral Ultra Light Sunscreen Face Broad Spectrum SPF 50; La Roche Posay Laboratoire Dermatologique Anthelios 50 Tinted Mineral Face Broad Spectrum SPF 50 Sunscreen; La Roche Posay Laboratoire Dermatologique Anthelios 50 Tinted Mineral Sunscreen; La Roche Posay Laboratoire Dermatologique Anthelios 50 Tinted Mineral Sunscreen Broad Spectrum SPF 50; La Roche Posay Laboratoire Dermatologique Anthelios HA Mineral Broad Spectrum SPF 30 Daily Moisturizing Sunscreen; La Roche Posay Laboratoire Dermatologique Effaclar BB Blur Broad Spectrum SPF 20 Sunscreen; La Roche Posay Laboratoire Dermatologique Rosaliac Daily Complete Tone Correcting Broad Spectrum SPF 30 Sunscreen CC; La Roche Posay New 50 Body and Face SPF 50 Mineral Anthelios Gentle 100 percent mineral UV filters Soft finish with Cell Ox Shield; La Roche-Posay Laboratoire Pharmacetique HydraPhase UV Eyes Hydrating SPF 29 Protective; La RochePosay Laboratoire Dermatologique Anthelios 50 Mineral Ultra Light Sunscreen; Lab Series Frequent Flyer Lotion SPF 15; Lab Series Skincare for Men Bb Tinted Moisturizer Broad Spectrum SPF 35; LabNo 4SP Safe Bright Tone BB Cushion; LabNo 4SP Safe Natural Tone BB Cushion; LabNo 4SP Safe Tone Up Sun; Labo De Dermafirm Sun Defense Fluid; Labode Dermafirm Sun Defense Make Up Base; Laboratoire Remede Translucent Uv Coat; Laboratoire Remede Translucent Uv Coat Tint 0; Laboratoire Remede Translucent Uv Coat Tint 1; Laboratoire Remede Translucent Uv Coat Tint 2; Laboratoire Remede Translucent Uv Coat Tint 3; Lace Future Resist Broad Spectrum SPF 20 Foundation Delilah; Lagom CF Cushion 10; Lagom CF Cushion 20; Lagom CF Cushion 30; Lait Auto-bronzant SPF 6 - Emulsion; Lait Bronz.prot.securite-bioth.fps12 Enfants; Lait Bronzant Haute Protection SPF 20; Lait Bronzant Hydro-nutritif SPF 8; Lait Bronzant Mer Et Tropiques; Lait De Soin Bronzant Mer Et Tropiques; Lait Ecran Extreme SPF 60; Lait Ecran SPF 35 Enfants; Lait Ecran Total Intolerances Solaires SPF 30; Lait Ecran Total SPF 25; Lait Ecran Total Special Enfants SPF 25; Lait Haute Protection; Lait Hydratant Apres Soleil No.45; Lait Protecteur Fps 60; Lait Protecteur Hydro-satinant Spf15; Lait Protecteur SPF 15; Lait Protecteur SPF 15 Peaux Cl/sens./enf.; Lait Protecteur SPF 8; Lait Solaire Bronzage Progressif SPF 10; Lait Solaire Bronzage Rapide SPF 6; Lait Solaire Ecran Total SPF 25; Lait Solaire Haute Protection SPF 15; Lait Solaire Protecteur Au Beurre De Karite; Lait Écran Total SPF 25; Lamuse Return 2 Blessing Visual Balm; Lancome Creme Ecran Total SPF 25; Lancome Lait Ecran Total Hydro-satin.spf25; Lancome Paris Absolue Bx Makeup Broad Spectrum SPF 18 Sunscreen Absolute Replenishing Radiant Makeup; Lancome Paris BB Bienfait Teinte Beauty Balm Broad Spectrum SPF 30 Sunscreen; Lancome Paris Bienfait MultiVital Eye SPF 28 Sunscreen 24 Hour Moisturization Antioxidant and Vitamin Enriched; Lancome Paris City Miracle Broad Spectrum SPF 50 Sunscreen CC; Lancome Paris Imanance Broad Spectrum SPF 15 Sunscreen; Lancome Paris La Base Pro Redness Corrector Broad Spectrum SPF 10 Sunscreen Neutralizing Makeup Base; Lancome Paris Renergie Lift Makeup Broad Spectrum SPF 20 Sunscreen; Lancome Paris Renergie Lift Makeup Broad Spectrum SPF 27 Sunscreen; Lancome Paris Teint Idole Ultra Cushion Broad Spectrum SPF 50 Sunscreen; Lancome Paris Teint Idole Ultra Makeup Broad Spectrum SPF 21; Lancome Paris Teint Idole Ultra Wear Breathable Coverage Foundation Broad Spectrum SPF 25 Sunscreen; Lancome Paris Teint Idole Ultra Wear Breathable Coverage Foundation Reno Broad Spectrum SPF 25 Sunscreen; Lancome UV Expert Mineral CC Cream with Titanium Dioxide SPF 50 Color Correcting; Lancome-creme Protectrice Pour Les Yeuxspf15; Lancome-stk Protecteur Levres SPF 15; Lancôme - Bienfait Total Uv Teinte SPF 15; Land Shark SPF 30; Land Shark SPF 30 Clear Zinc; Land Shark SPF 30 Sunkissed; Land Shark SPF 30 Tinted Zinc; Land Shark SPF 40; Laneige BB Cushion Dark; Laneige BB Cushion Medium Dark; Laneige Bb Cushion; Laneige Bb Cushion Fair; Laneige Bb Cushion Light Medium; Laneige Cushion Concealer; Laneige Cushion Concealer Fair; Laneige Cushion Concealer Light; Laneige Cushion Concealer Light Medium; Laneige Cushion Concealer Medium; Laneige Satin Finish Twin Pact No. 13; Laneige Satin Finish Twin Pact No. 21; Laneige Satin Finish Twin Pact No. 23; Laneige Satin Finish Twin Pact No. 25; Laneige Satin Finish Twin Pact No. 31; Laneige Skin Veil Base No. 20 SPF 26 Pa Plus; Laneige Skin Veil Base No. 40 SPF 26 Pa Plus; Laneige Skin Veil NO.21 SPF 26 PAplus; Laneige Skin Veil NO.23 SPF 26 PAplus; Laneige Skin Veil NO.31 SPF 26 PAplus; Laneige Skin Veil NO.33 SPF 26 PAplus; Laneige Sliding Pact EX snow crystal No.1; Laneige Snow Bb Cream; Laneige UV TOTAL BASE; Laneige Watery Cushion Concealer no. 1; Laneige Watery Cushion Concealer no. 2; Laneige Watery Cushion Concealer no. 3; Laneige sliding pact EX snow crystal No.2; Laneige sliding pact EX snow crystal No.3; Laneige sliding pact EX snow crystal No.4; Laneige sliding pact EX snow crystal No.5; Lani and Kai Mineral Sunscreen Spf30; Large Ecran Uv; Larkly SPF30 Mineral Powder Face Sunscreen; Laser Block 100 sunblock; Laser Max Sunstick SPF50; Laser Sun Block 100 SPF50; Laser Sunscreen 100; Laspa Broad Spectrum Mineral Sunscreen SPF 50 Ultra Sun; Lasting Foundation SPF 12 Merle Norman; Laundryou Clear Defense Cushion Glow 21 Uyuni Beige; Laundryou Clear Defense Cushion Glow 23 Cannelle Beige; Laundryou Moisture Sun Cushion Clear; Laura Mercier Flawless Skin Daily Face Shield SPF 40; Laura Mercier Flawless Skin Daily Face Shield SPF 40 Sunscreen; Lauren Conrad - The Liquid Foundation SPF 15; Lbel Defense 365 Daily Protective Facial SPF 50; Lbel Defense 365 Daily Protective SPF 50; Lbel Effet Parfait; Lbel Effet Parfait Dual-use Compact Youthful Looking Skin Spf7; Lbel Effet Parfait Mineral; Lbel Effet Parfait Mineral Natural Skin Effect Mousse Foundation SPF 16 (claire 1) - Beige; Lbel Effet Parfait Mineral Natural Skin Effect Mousse Foundation SPF 16 (claire 2) - Beige; Lbel Effet Parfait Mineral Natural Skin Effect Mousse Foundation SPF 16 (claire 3) - Beige; Lbel Effet Parfait Mineral Natural Skin Effect Mousse Foundation SPF 16 (claire 4) - Beige; Lbel Effet Parfait Mineral Natural Skin Effect Mousse Foundation SPF 16 (medium 5) - Brown; Lbel Effet Parfait Mineral Natural Skin Effect Mousse Foundation SPF 16 (medium 6) - Brown; Lbel Effet Parfait Mineral Natural Skin Effect Mousse Foundation SPF 16 (medium 7) - Brown; Lbel Effet Parfait Mineral Natural Skin Effect Mousse Foundation SPF 16 (obscure 8) - Brown; Lbel Effet Parfait Mineral Natural Skin Effect Mousse Foundation SPF 16 (obscure 9) - Brown; Lbel Effet Parfait Polvos Compactos De Larga Duracion Para Rostro Fps 15 Long Lasting Compact SPF 15 (claire 1) - Beige; Lbel Effet Parfait Polvos Compactos De Larga Duracion Para Rostro Fps 15 Long Lasting Compact SPF 15 (claire 2) - Beige; Lbel Effet Parfait Polvos Compactos De Larga Duracion Para Rostro Fps 15 Long Lasting Compact SPF 15 (claire 3) - Beige; Lbel Effet Parfait Polvos Compactos De Larga Duracion Para Rostro Fps 15 Long Lasting Compact SPF 15 (claire 4) - Beige; Lbel Effet Parfait Polvos Compactos De Larga Duracion Para Rostro Fps 15 Long Lasting Compact SPF 15 (medium 5) - Beige; Lbel Effet Parfait Polvos Compactos De Larga Duracion Para Rostro Fps 15 Long Lasting Compact SPF 15 (medium 6) - Beige; Lbel Effet Parfait Polvos Compactos De Larga Duracion Para Rostro Fps 15 Long Lasting Compact SPF 15 (medium 7) - Beige; Lbel Effet Parfait Polvos Compactos De Larga Duracion Para Rostro Fps 15 Long Lasting Compact SPF 15 (obscure 8) - Brown; Lbel Effet Parfait Polvos Compactos De Larga Duracion Para Rostro Fps 15 Long Lasting Compact SPF 15 (obscure 9) - Brown; Lbel Effet Parfait Signs Of Age Appearance Minimizer Foundation SPF 20 Fm Claire 2; Lbel Effet Parfait Signs Of Age Appearance Minimizer Foundation SPF 20 Fm Claire 3; Lbel Effet Parfait Signs Of Age Appearance Minimizer Foundation SPF 20 Fm Claire 4; Lbel Effet Parfait Signs Of Age Appearance Minimizer Foundation SPF 20 Fm Medium 5; Lbel Effet Parfait Signs Of Age Appearance Minimizer Foundation SPF 20 Fm Medium 6; Lbel Effet Parfait Signs Of Age Appearance Minimizer Foundation SPF 20 Fm Medium 7; Lbel Forever Stay Polvos Compactos De Larga Duracion Fps 15 Long Lasting Compact SPF 15 Arena 200; Lbel Forever Stay Polvos Compactos De Larga Duracion Fps 15 Long Lasting Compact SPF 15 Avellana 200; Lbel Forever Stay Polvos Compactos De Larga Duracion Fps 15 Long Lasting Compact SPF 15 Caramel 200; Lbel Forever Stay Polvos Compactos De Larga Duracion Fps 15 Long Lasting Compact SPF 15 Golden 300; Lbel Forever Stay Polvos Compactos De Larga Duracion Fps 15 Long Lasting Compact SPF 15 Perla 100; Lbel Forever Stay Polvos Compactos De Larga Duracion Fps 15 Long Lasting Compact SPF 15 Solei 200; Lbel Lip Moisturizer SPF 18; Lbel Mousse Matiffiant Matte Finish Mousse Foundation SPF 15 Claire 1; Lbel Mousse Matiffiant Matte Finish Mousse Foundation SPF 15 Claire 2; Lbel Mousse Matiffiant Matte Finish Mousse Foundation SPF 15 Claire 3; Lbel Mousse Matiffiant Matte Finish Mousse Foundation SPF 15 Claire 4; Lbel Mousse Matiffiant Matte Finish Mousse Foundation SPF 15 Medium 5; Lbel Mousse Matiffiant Matte Finish Mousse Foundation SPF 15 Medium 6; Lbel Mousse Matiffiant Matte Finish Mousse Foundation SPF 15 Medium 7; Lbel Mousse Matiffiant Matte Finish Mousse Foundation SPF 15 Obscure 8; Lbel Mousse Matiffiant Matte Finish Mousse Foundation SPF 15 Obscure 9; Lbel Natural Finish Moisturizing Foundation SPF 25 (claire 1) - Beige; Lbel Natural Finish Moisturizing Foundation SPF 25 (claire 2) - Beige; Lbel Natural Finish Moisturizing Foundation SPF 25 (claire 3) - Beige; Lbel Natural Finish Moisturizing Foundation SPF 25 (claire 4) - Beige; Lbel Natural Finish Moisturizing Foundation SPF 25 (dore 6) - Beige; Lbel Natural Finish Moisturizing Foundation SPF 25 (medium 5) - Brown; Lbel Natural Finish Moisturizing Foundation SPF 25 (medium 6) - Brown; Lbel Natural Finish Moisturizing Foundation SPF 25 (medium 6a) - Brown; Lbel Natural Finish Moisturizing Foundation SPF 25 (medium 6b) - Brown; Lbel Natural Finish Moisturizing Foundation SPF 25 (medium 7) - Brown; Lbel Natural Finish Moisturizing Foundation SPF 25 (obscure 10) - Brown; Lbel Natural Finish Moisturizing Foundation SPF 25 (obscure 8) - Brown; Lbel Natural Finish Moisturizing Foundation SPF 25 (obscure 8a) - Brown; Lbel Natural Finish Moisturizing Foundation SPF 25 (obscure 8b) - Brown; Lbel Natural Finish Moisturizing Foundation SPF 25 (obscure 8c) - Brown; Lbel Natural Finish Moisturizing Foundation SPF 25 (obscure 9) - Brown; Lbel Protege Expert; Lbel Uv Defense 365; Lbio Block Tinted 30spf; Lc Foundation SPF 15; Le Blanc Light Creator Brightening Makeup Base Broad Spectrum SPF 40 Sunscreen, 10 Rosee; Le Blanc Light Creator Brightening Makeup Base Broad Spectrum SPF 40 Sunscreen, 20 Mimosa; Le Blanc Light Revealing Brightening Makeup Base Broad Spectrum SPF 30 Sunscreen, 10 Rosee; Le Fond De Teint; Le Mieux Just Glow BB Cream SPF 50; Le Teint Ultra Tenue Ultrawear Flawless Compact Foundation Broad Spectrum SPF 15 Suncreeen 10 Beige; Le Teint Ultra Tenue Ultrawear Flawless Compact Foundation Broad Spectrum SPF 15 Suncreeen 12 Beige Rose; Le Teint Ultra Tenue Ultrawear Flawless Compact Foundation Broad Spectrum SPF 15 Suncreeen 20 Beige; Le Teint Ultra Tenue Ultrawear Flawless Compact Foundation Broad Spectrum SPF 15 Suncreeen 21 Beige; Le Teint Ultra Tenue Ultrawear Flawless Compact Foundation Broad Spectrum SPF 15 Suncreeen 22 Beige Rose; Le Teint Ultra Tenue Ultrawear Flawless Compact Foundation Broad Spectrum SPF 15 Suncreeen 30 Beige; Le Teint Ultra Tenue Ultrawear Flawless Compact Foundation Broad Spectrum SPF 15 Suncreeen 32 Beige Rose; Le Teint Ultra Tenue Ultrawear Flawless Compact Foundation Broad Spectrum SPF 15 Suncreeen 40 Beige; Le Teint Ultra Tenue Ultrawear Flawless Compact Foundation Broad Spectrum SPF 15 Suncreeen 42 Beige Rose; Le Teint Ultra Tenue Ultrawear Flawless Compact Foundation Broad Spectrum SPF 15 Suncreeen 50 Beige; Le Teint Ultra Tenue Ultrawear Flawless Compact Foundation Broad Spectrum SPF 15 Suncreeen 60 Beige; Le Teint Ultra Tenue Ultrawear Flawless Compact Foundation Broad Spectrum SPF 15 Suncreeen 70 Beige; Le Teint Ultra Tenue Ultrawear Flawless Compact Foundation Broad Spectrum SPF 15 Suncreeen 91 Caramel; Le Velvet Film Makeup Refill - Crm; Le Velvet Film Makeup Refill SPF 15; Le Velvet Powder Finish Makeup Refill - Crm; Lea Black Broad Spectrum SPF 30 Sunscreen; Leader Kids Sunscreen SPF 50; Lecithin-aloe Moisture Cream; Les Beiges Gel Touch Healthy Glow Tint Broad Spectrum SPF 15 Sunscreen No 10; Les Beiges Gel Touch Healthy Glow Tint Broad Spectrum SPF 15 Sunscreen No 12 Rose; Les Beiges Gel Touch Healthy Glow Tint Broad Spectrum SPF 15 Sunscreen No 20; Les Beiges Gel Touch Healthy Glow Tint Broad Spectrum SPF 15 Sunscreen No 21; Les Beiges Gel Touch Healthy Glow Tint Broad Spectrum SPF 15 Sunscreen No 22 Rose; Les Beiges Gel Touch Healthy Glow Tint Broad Spectrum SPF 15 Sunscreen No 30; Les Beiges Gel Touch Healthy Glow Tint Broad Spectrum SPF 15 Sunscreen No 40; Les Beiges Gel Touch Healthy Glow Tint Broad Spectrum SPF 15 Sunscreen No 50; Les Beiges Gel Touch Healthy Glow Tint Broad Spectrum SPF 15 Sunscreen No 60; Les Beiges Gel Touch Healthy Glow Tint Broad Spectrum SPF 15 Sunscreen No 91 Caramel; Les Beiges Healthy Glow Multi-colour, Broad Spectrum SPF 15 Sunscreen, No 01; Les Beiges Healthy Glow Multi-colour, Broad Spectrum SPF 15 Sunscreen, No 02; Les Beiges Sheer Healthy Glow Moisturizing Tint Broad Spectrum SPF 30 Sunscreen Deep; Les Beiges Sheer Healthy Glow Moisturizing Tint Broad Spectrum SPF 30 Sunscreen Light; Les Beiges Sheer Healthy Glow Moisturizing Tint Broad Spectrum SPF 30 Sunscreen Light Deep; Les Beiges Sheer Healthy Glow Moisturizing Tint Broad Spectrum SPF 30 Sunscreen Medium; Les Beiges Sheer Healthy Glow Moisturizing Tint Broad Spectrum SPF 30 Sunscreen Medium Light; Les Beiges Sheer Healthy Glow Moisturizing Tint Broad Spectrum SPF 30 Sunscreen Medium Plus; Lessentiel Natural Glow Foundation 16h Wear With Sunscreen Broad Spectrum SPF 20 00c Porcelaine Rose/porcelain Cool; Lessentiel Natural Glow Foundation 16h Wear With Sunscreen Broad Spectrum SPF 20 01c Tres Clair Rose/very Light Cool; Lessentiel Natural Glow Foundation 16h Wear With Sunscreen Broad Spectrum SPF 20 01n Tres Clair/very Light; Lessentiel Natural Glow Foundation 16h Wear With Sunscreen Broad Spectrum SPF 20 01n Tres Clair/very Light 02n Clair/light; Lessentiel Natural Glow Foundation 16h Wear With Sunscreen Broad Spectrum SPF 20 01w Tres Clair Dore/very Light Warm; Lessentiel Natural Glow Foundation 16h Wear With Sunscreen Broad Spectrum SPF 20 02c Clair Rose/light Cool; Lessentiel Natural Glow Foundation 16h Wear With Sunscreen Broad Spectrum SPF 20 02w Clair Dore/light Warm; Lessentiel Natural Glow Foundation 16h Wear With Sunscreen Broad Spectrum SPF 20 035c Beige Rose/beige Cool; Lessentiel Natural Glow Foundation 16h Wear With Sunscreen Broad Spectrum SPF 20 035n Beige/beige; Lessentiel Natural Glow Foundation 16h Wear With Sunscreen Broad Spectrum SPF 20 035w Beige Dore/beige Warm; Lessentiel Natural Glow Foundation 16h Wear With Sunscreen Broad Spectrum SPF 20 03c Naturel Rose/natural Cool; Lessentiel Natural Glow Foundation 16h Wear With Sunscreen Broad Spectrum SPF 20 03n Naturel/natural; Lessentiel Natural Glow Foundation 16h Wear With Sunscreen Broad Spectrum SPF 20 03w Naturel Dore/natural Warm; Lessentiel Natural Glow Foundation 16h Wear With Sunscreen Broad Spectrum SPF 20 045c Ambre Rose/amber Cool; Lessentiel Natural Glow Foundation 16h Wear With Sunscreen Broad Spectrum SPF 20 045n Ambre/amber; Lessentiel Natural Glow Foundation 16h Wear With Sunscreen Broad Spectrum SPF 20 045w Ambre Dore/amber Warm; Lessentiel Natural Glow Foundation 16h Wear With Sunscreen Broad Spectrum SPF 20 04c Moyen Rose/medium Cool; Lessentiel Natural Glow Foundation 16h Wear With Sunscreen Broad Spectrum SPF 20 04n Moyen/medium; Lessentiel Natural Glow Foundation 16h Wear With Sunscreen Broad Spectrum SPF 20 04w Moyen Dore/medium Warm; Lessentiel Natural Glow Foundation 16h Wear With Sunscreen Broad Spectrum SPF 20 055c Fonce Rose/deep Cool; Lessentiel Natural Glow Foundation 16h Wear With Sunscreen Broad Spectrum SPF 20 055n Fonce/deep; Lessentiel Natural Glow Foundation 16h Wear With Sunscreen Broad Spectrum SPF 20 055w Fonce Dore/deep Warm; Lessentiel Natural Glow Foundation 16h Wear With Sunscreen Broad Spectrum SPF 20 05c Miel Rose/honey Cool; Lessentiel Natural Glow Foundation 16h Wear With Sunscreen Broad Spectrum SPF 20 05n Miel/honey; Lessentiel Natural Glow Foundation 16h Wear With Sunscreen Broad Spectrum SPF 20 05w Miel Dore/honey Warm; Lessentiel Natural Glow Foundation 16h Wear With Sunscreen Broad Spectrum SPF 20 06c Tres Fonce Rose/very Deep Cool; Lessentiel Natural Glow Foundation 16h Wear With Sunscreen Broad Spectrum SPF 20 06n Tres Fonce/very Deep; Lessentiel Natural Glow Foundation 16h Wear With Sunscreen Broad Spectrum SPF 20 06w Tres Fonce Dore/very Deep Warm; Lessentiel Natural Glow Foundation 16h Wear With Sunscreen Broad Spectrum SPF 20 Porcelaine Dore/porcelain Warm; Let It Block SPF-30; LiProtect SPF 35; Liage - Mineral Rich Tinted Sunscreen Broad Spectrum SPF 30; Life Brand Baby Sunblock 30 SPF; Life Brand Kids Sunblock 30 SPF; Life Brand Nat. Source Sunblock 25 SPF-fps; Life Brand Sunthera 3 SPF/fps 15; Life Brand Sunthera 3 SPF/fps 30 Sun Protection Lotion Face; Life Brand Sunthera 3 SPF/fps 60 Sun Protection Lotion Face; Life Extension Shade Factor SPF30; Lift Lumiere; Lift Lumiere Firming and Smoothing Fluid Makeup SPF 15; Lift Lumiere Firming and Smoothing Sunscreen Fluid Makeup Broad Spectrum SPF 15, 14 Ivoire; Lift Lumiere Firming and Smoothing Sunscreen Fluid Makeup Broad Spectrum SPF 15, 20 Clair; Lift Lumiere Firming and Smoothing Sunscreen Fluid Makeup Broad Spectrum SPF 15, 30 Cendre; Lift Lumiere Firming and Smoothing Sunscreen Fluid Makeup Broad Spectrum SPF 15, 40 Beige; Lift Lumiere Firming and Smoothing Sunscreen Fluid Makeup Broad Spectrum SPF 15, 41 Soft Bisque; Lift Lumiere Firming and Smoothing Sunscreen Fluid Makeup Broad Spectrum SPF 15, 47 Natural Beige; Lift Lumiere Firming and Smoothing Sunscreen Fluid Makeup Broad Spectrum SPF 15, 50 Naturel; Lift Lumiere Firming and Smoothing Sunscreen Fluid Makeup Broad Spectrum SPF 15, 66 Tawny Beige; Light Daylight Tinted Radiance Moisturizer Broad Spectrum SPF 32; Light Foundation SPF 15; Light Illusion Luminous Makeup Nude-Skin Feel all day wear broad spectrum spf18 sunscreen Caramel M5; Light Illusion Luminous Makeup Nude-Skin Feel all day wear broad spectrum spf18 sunscreen Classic Tan M3; Light Illusion Luminous Makeup Nude-Skin Feel all day wear broad spectrum spf18 sunscreen Ivory L2; Light Illusion Luminous Makeup Nude-Skin Feel all day wear broad spectrum spf18 sunscreen Mocha D3; Light Illusion Luminous Makeup Nude-Skin Feel all day wear broad spectrum spf18 sunscreen Natural Beige M1; Light Illusion Luminous Makeup Nude-Skin Feel all day wear broad spectrum spf18 sunscreen Nude L3; Light Illusion Luminous Makeup Nude-Skin Feel all day wear broad spectrum spf18 sunscreen Nutmeg D2; Light Illusion Luminous Makeup Nude-Skin Feel all day wear broad spectrum spf18 sunscreen Porcelain L1; Light Illusion Luminous Makeup Nude-Skin Feel all day wear broad spectrum spf18 sunscreen Sable D1; Light Illusion Luminous Makeup Nude-Skin Feel all day wear broad spectrum spf18 sunscreen Soft Sand M2; Light Illusion Luminous Makeup Nude-Skin Feel all day wear broad spectrum spf18 sunscreen Tawny M4; Light Illusion Luminous Makeup Nude-Skin Feel all day wear broad spectrum spf18 sunscreen Warm Beige L4; Light Illusion Luminous Makeup Nude-Skin Feel all-day wear broad spectrum spf18 sunscreen 01; Light Medium Tinted Drops; Light Wonder Your Light, Dream Skin Foundation Sunscreen Broad Spectrum SPF 15; Lightening High Sun Protection Cream; Lightful C SPF 30 With Radiance Booster Broad Spectrum SPF 30; Likewise Facial Moisturizer - Sun Protectant SPF 50 Oily Skin; Lilikoi Light Defense Face Primer SPF 23; Lilikoi Mineral Defense Moisturizer SPF 33; Limited Line Edition 2018 MISSHA M Perfect Cover BB No 21; Limited Line Edition 2018 MISSHA M Perfect Cover BB No 23; Line Defiance Makeup SPF 8; Lingerie De Peau - Invisible Skin-fusion Foundation With Sunscreen Broad Spectrum SPF 20 24 Dore Moyen; Lingerie De Peau - Invisible Skin-fusion Foundation With Sunscreen Broad Spectrum SPF 20, 23 Dore Naturel; Lingerie De Peau Aqua Nude Water-infused Perfecting Fluid Intense Hydration Long-wear Foundation With Sunscreen Broad Spectrum SPF 20 00n Porcelain; Lingerie De Peau Aqua Nude Water-infused Perfecting Fluid Intense Hydration Long-wear Foundation With Sunscreen Broad Spectrum SPF 20 01n Very Light; Lingerie De Peau Aqua Nude Water-infused Perfecting Fluid Intense Hydration Long-wear Foundation With Sunscreen Broad Spectrum SPF 20 02c Light Cool; Lingerie De Peau Aqua Nude Water-infused Perfecting Fluid Intense Hydration Long-wear Foundation With Sunscreen Broad Spectrum SPF 20 02n Light; Lingerie De Peau Aqua Nude Water-infused Perfecting Fluid Intense Hydration Long-wear Foundation With Sunscreen Broad Spectrum SPF 20 03n Natural; Lingerie De Peau Aqua Nude Water-infused Perfecting Fluid Intense Hydration Long-wear Foundation With Sunscreen Broad Spectrum SPF 20 03w Natural Warm; Lingerie De Peau Aqua Nude Water-infused Perfecting Fluid Intense Hydration Long-wear Foundation With Sunscreen Broad Spectrum SPF 20 04n Medium; Lingerie De Peau Aqua Nude Water-infused Perfecting Fluid Intense Hydration Long-wear Foundation With Sunscreen Broad Spectrum SPF 20 05w Deep Warm; Lingerie De Peau Aqua Nude Water-infused Perfecting Fluid Intense Hydration Long-wear Foundation With Sunscreen Broad Spectrum SPF 20 06w Very Deep Warm; Lingerie De Peau BB Beauty Booster Invisible Skin-Fusion Multi-Perfecting Makeup With Sunscreen Broad Spectrum SPF 30 LIGHT; Lingerie De Peau BB Beauty Booster Invisible Skin-Fusion Multi-Perfecting Makeup With Sunscreen Broad Spectrum SPF 30 MEDIUM; Lingerie De Peau Bb Invisible Skin-fusion Multi-perfecting Makeup With Sunscreen Broad Spectrum SPF 30 Bb 2 Light; Lingerie De Peau Bb Invisible Skin-fusion Multi-perfecting Makeup With Sunscreen Broad Spectrum SPF 30 Bb 3 Natural; Lingerie De Peau Bb Invisible Skin-fusion Multi-perfecting Makeup With Sunscreen Broad Spectrum SPF 30 Bb 4 Medium; Lingerie De Peau Bb Invisible Skin-fusion Multi-perfecting Makeup With Sunscreen Broad Spectrum SPF 30 Light; Lingerie De Peau Bb Invisible Skin-fusion Multi-perfecting Makeup With Sunscreen Broad Spectrum SPF 30 Medium; Lingerie De Peau Invisible Skin-fusion Foundation With Sunscreen Broad Spectrum SPF 20 01 Beige Pale; Lingerie De Peau Invisible Skin-fusion Foundation With Sunscreen Broad Spectrum SPF 20 02 Beige Clair; Lingerie De Peau Invisible Skin-fusion Foundation With Sunscreen Broad Spectrum SPF 20 03 Beige Naturel; Lingerie De Peau Invisible Skin-fusion Foundation With Sunscreen Broad Spectrum SPF 20 04 Beige Moyen; Lingerie De Peau Invisible Skin-fusion Foundation With Sunscreen Broad Spectrum SPF 20 05 Beige Fonce; Lingerie De Peau Invisible Skin-fusion Foundation With Sunscreen Broad Spectrum SPF 20 12 Rose Clair; Lingerie De Peau Invisible Skin-fusion Foundation With Sunscreen Broad Spectrum SPF 20 13 Rose Naturel; Lingerie De Peau Invisible Skin-fusion Foundation With Sunscreen Broad Spectrum SPF 20 31 Ambre Pale; Lingerie De Peau Natural Perfection Foundation Skin-fusion Texture With Sunscreen Broad Spectrum SPF 20 00n Porcelaine Porcelain; Lingerie De Peau Natural Perfection Foundation Skin-fusion Texture With Sunscreen Broad Spectrum SPF 20 02c Clair Rose Light Cool; Lingerie De Peau Natural Perfection Foundation Skin-fusion Texture With Sunscreen Broad Spectrum SPF 20 02n Clair Light; Lingerie De Peau Natural Perfection Foundation Skin-fusion Texture With Sunscreen Broad Spectrum SPF 20 02w Clair Dore Light Warm; Lingerie De Peau Natural Perfection Foundation Skin-fusion Texture With Sunscreen Broad Spectrum SPF 20 03c Naturel Rose Natural Cool; Lingerie De Peau Natural Perfection Foundation Skin-fusion Texture With Sunscreen Broad Spectrum SPF 20 03n Naturel Natural; Lingerie De Peau Natural Perfection Foundation Skin-fusion Texture With Sunscreen Broad Spectrum SPF 20 03w Naturel Dore Natural Warm; Lingerie De Peau Natural Perfection Foundation Skin-fusion Texture With Sunscreen Broad Spectrum SPF 20 04c Moyen Rose Medium Cool; Lingerie De Peau Natural Perfection Foundation Skin-fusion Texture With Sunscreen Broad Spectrum SPF 20 04n Moyen Medium; Lingerie De Peau Natural Perfection Foundation Skin-fusion Texture With Sunscreen Broad Spectrum SPF 20 04w Moyen Dore Medium Warm; Lingerie De Peau Natural Perfection Foundation Skin-fusion Texture With Sunscreen Broad Spectrum SPF 20 05c Fonce Rose Deep Cool; Lingerie De Peau Natural Perfection Foundation Skin-fusion Texture With Sunscreen Broad Spectrum SPF 20 05n Fonce Deep; Lingerie De Peau Natural Perfection Foundation Skin-fusion Texture With Sunscreen Broad Spectrum SPF 20 06w Tres Fonce Dore Very Deep Warm; Lingerie de Peau Invisible Skin Fusions Foundation; Lingerie de Peau Invisible Skin Fusions Foundation 02; Lingerie de Peau Invisible Skin Fusions Foundation 04; Lingerie de Peau Invisible Skin Fusions Foundation 05; Lingerie de Peau Invisible Skin Fusions Foundation 12; Lingerie de Peau Invisible Skin Fusions Foundation 13; Lingerie de Peau Invisible Skin Fusions Foundation 23; Lingerie de Peau Invisible Skin Fusions Foundation 24; Lingerie de Peau Invisible Skin Fusions Foundation 25; Lingerie de Peau Invisible Skin Fusions Foundation 31; Lingerie de Peau Invisible Skin Fusions Foundation 32; Lip Care Balm; Lip Conditioner SPF 15; Lip Protection Stick; LipCoTZ Lip Balm/Sunscreen; Liquid Layer SPF 30; Liquid Sunshine Mineral Sunscreen Broad Spectrum SPF 30 For Face; Lise Watier Teint Lift Anti-rides SPF 30; Livests; Livests Moist Foundation 121; Livests Moist Foundation 122; Livests Moist Foundation 123; Loccitane; Loccitane - Immortelle Precious Bb Broad Spectrum SPF 30 01 Fair; Loccitane - Immortelle Precious Bb Broad Spectrum SPF 30 02 Light; Loccitane - Immortelle Precious Bb Broad Spectrum SPF 30 03 Medium; Loccitane - Pivoine Sublime With Peony Cc Broad Spectrum SPF 20 Sunscreen Light; Loccitane - Pivoine Sublime With Peony Cc Broad Spectrum SPF 20 Sunscreen Medium; Logically skin PROFESSIONAL SUN BLOCK SPF50 PA; Lohasys 2 Shield Sun Block Primer; Long Lasting Finish with Comfort Serum SPF 20 Classic Beige; Long Lasting Finish with Comfort Serum SPF 20 Classic Ivory; Long Lasting Finish with Comfort Serum SPF 20 Ivory; Long Lasting Finish with Comfort Serum SPF 20 Light Ivory; Long Lasting Finish with Comfort Serum SPF 20 Sand; Long Lasting Finish with Comfort Serum SPF 20 Soft Beige; Long Lasting Finish with Comfort Serum SPF 20 True Beige; Long Wear Get Over Bb; Long-wear Even Finish Foundation Broad Spectrum SPF 15; Loose Powder Sunscreen SPF 15; Lotion Vapo SPF 30; Lotion Écran Solaire 30; Lotion Écran Solaire Universel Fps 15 Avec Dioxyde De Titane; Lotion Écran Solaire Universel Fps 30 Avec Dioxyde De Titane; LovLuv Daily BB Cream; LovLuv Daily Sunflower Sunscreen; LovLuv M Suit Sun Block; LovLuv Vivacity Bright CC Cream; Love Sun Body SPF 50 Fragrance Free; Love Sun Body SPF 50 Lightly Scented; Love You Baby Sun Cushion; Lovea; Lovely ME EX BB PACT SPF20; Lovely Me EX 32900042; Lovely Me:ex Bb Cream SPF 20/pa++; Lovely Me:ex Bb Pact SPF 20; Lovluv Vivacity Bright BB Cream; Lovluv daily BB Cream; Luichel Shiny Cake No 21 Gold Gift Set; Luichel Shiny Cake No 23 Gold Gift Set; Luichel Shiny Cake No 33 Gold Gift Set; Lumene Cc Color Correcting Sunscreen Broad Spectrum SPF 20 Light; Lumene Cc Color Correcting Sunscreen Broad Spectrum SPF 20 Medium; Lumene Time Freeze Anti-Age CC Color Correcting SPF 20 Sunscreen Broad Spectrum LIGHT; Lumene Time Freeze Anti-Age CC Color Correcting SPF 20 Sunscreen Broad Spectrum MEDIUM; Lumene Time Freeze Targeted Dark Spot Corrector Sunscreen SPF 30; Luminess SPF 30 sunscreen setting powder; Luminess SPF30 Suncreen Setting Powder; Luminizing Moisture Tint Sunscreen Broad Spectrum SPF 20 Blush; Luminizing Moisture Tint Sunscreen Broad Spectrum SPF 20 Bronzed; Luminizing Moisture Tint Sunscreen Broad Spectrum SPF 20 Deep Bronze; Luminizing Moisture Tint Sunscreen Broad Spectrum SPF 20 Glow; Luminizing Moisture Tint Sunscreen Broad Spectrum SPF 20 Golden; Luminizing Moisture Tint Sunscreen Broad Spectrum SPF 20 Opal; Luminizing Moisture Tint Sunscreen Broad Spectrum SPF 20 Pearl; Luminous AuraCapsule CC; Luminous Bright Aura CC; Luminous Goddess Aura Bb; Luminous Goddess Aura Live Melting Foundation; Luminous Live Aura CC; Luminous Moisturizing Foundation SPF 15; Luminous Moisturizing Foundation SPF-15; Luminous Pure Aura CC; Luminous Shield SPF 50; Lunchboxwax Body spf 30; Lunchboxwax mineral broad spectrum sunscreen face cream SPF30; Lupium Moisture Tone Up Sun Serum; Lupium Moisture Water Sun Serum; Luxe Art Beaute SAS (69879-108-35) Cover-Expert Sunscreen Broad Spectrum SPF 15 No.8 Intense Beige, 35ml; Luxiva Face The Day Creme-TO-powder Makeup SPF 25; Luxiva Preventage Daily Defense Creme Spf15; Luxiva Preventage Firming Defense CRème SPF 15; Luxiva Preventage Firming Defense CRème for Dry Skin SPF 15; Luxiva Preventage Firming Eye Cream SPF-15; Luxiva Preventage Hand Treatment for Normal Skin SPF 15; Lycogel Cover and Recovery - Breathable Camouflage - SPF 30 with LYCO Complex; Lycogel Cover and Recovery - Breathable Concealer - SPF 30 with LYCO Complex; Lycoris Rubus brightening BB SPF40 PA Plus Plus; M Suit Cushion; M-A-C Day SPF 15 Light Moisture; M-Rose Seaweed Sun BB SPF 50 PA; M.A.C. Matchmaster SPF 15 Foundation; M.A.C. Prep + Prime Cc Colour Correct SPF 30; M.A.C. Prep+prime Bb Beauty Balm SPF 35; M.A.C. Pro Longwear SPF 20 Compact Foundation; M.A.C. Studio Waterweight SPF 30 Foundation; M.A.c Prep+prime Bb Beauty Balm Compact SPF 30; M.A.c Studio Fix Fluid SPF 15; M.A.c Studio Moisture Tint SPF 15; MAC LIGHTFUL Cplus CORAL GRASS TINTED WITH RADIANCE BOOSTER BROAD SPECTRUM SPF030; MATCH PERFECTION Foundation SPF 18 Shade 502 Noisette; MATCH PERFECTION Foundation SPF 20 - Shade 100 Ivory; MATCH PERFECTION Foundation SPF 20 - Shade 101 Classic Ivory; MATCH PERFECTION Foundation SPF 20 - Shade 102 Light Nude; MATCH PERFECTION Foundation SPF 20 - Shade 103 True Ivory; MATCH PERFECTION Foundation SPF 20 - Shade 200 Beige; MATCH PERFECTION Foundation SPF 20 - Shade 201 Classic Beige; MATCH PERFECTION Foundation SPF 20 - Shade 202 Nude; MATCH PERFECTION Foundation SPF 20 - Shade 203 True Beige; MATCH PERFECTION Foundation SPF 20 - Shade 300 Sand; MATCH PERFECTION Foundation SPF 20 - Shade 301 Warm Honey; MATCH PERFECTION Foundation SPF 20 - Shade 302 Golden Honey; MATCH PERFECTION Foundation SPF 20 - Shade 303 True Nude; MATCH PERFECTION Foundation SPF 20 - Shade 400 Natural Beige; MATCH PERFECTION Foundation SPF 20 - Shade 402 Bronze; MATISSIME VELVET - Radiant Mat Fluid Foundation with Sunscreen Broad Spectrum SPF 20 Mat Ivory 00; MATISSIME VELVET Radiant Mat Fluid Foundation with Sunscreen Broad Spectrum SPF 20 Cinnamon 09; MATISSIME VELVET Radiant Mat Fluid Foundation with Sunscreen Broad Spectrum SPF 20 Mat Amber 08; MATISSIME VELVET Radiant Mat Fluid Foundation with Sunscreen Broad Spectrum SPF 20 Mat Beige 04; MATISSIME VELVET Radiant Mat Fluid Foundation with Sunscreen Broad Spectrum SPF 20 Mat Ginger 07; MATISSIME VELVET Radiant Mat Fluid Foundation with Sunscreen Broad Spectrum SPF 20 Mat Gold 06; MATISSIME VELVET Radiant Mat Fluid Foundation with Sunscreen Broad Spectrum SPF 20 Mat Honey 05; MATISSIME VELVET Radiant Mat Fluid Foundation with Sunscreen Broad Spectrum SPF 20 Mat Mocha 10; MATISSIME VELVET Radiant Mat Fluid Foundation with Sunscreen Broad Spectrum SPF 20 Mat Porcelain 01; MATISSIME VELVET Radiant Mat Fluid Foundation with Sunscreen Broad Spectrum SPF 20 Mat Sand 03; MATISSIME VELVET Radiant Mat Fluid Foundation with Sunscreen Broad Spectrum SPF 20 Mat Shell 02; MATISSIME VELVET Radiant Mat Fluid Foundation with Sunscreen Broad Spectrum SPF 20 Mat Vanilla 3.5; MATTE MOISTURE TINT SUNSCREEN BROAD SPECTRUM SPF 15 Linen; MATTE MOISTURE TINT SUNSCREEN BROAD SPECTRUM SPF 15 Nude; MATTE MOISTURE TINT SUNSCREEN BROAD SPECTRUM SPF 15 Porcelain; MD Restoring daily Defense Moisturizer SPF 50; MDSOLARSCIENCES Natural Mineral Sunscreen Kid; MDSOLARSCIENCES SPF 30 Mineral Tinted; MDSOLARSCIENCES SPF 50 Mineral; MDSolarSCIENCES Natural Mineral Sunscreen; MDSolarSciences Natural Mineral Sunscreen; MDSolarSciences Natural Mineral Sunscreen Tinted; MDSolarSciences SPF30 Plus Mineral Screen; MDSolarSciences SPF40 Mineral Screen; MDSolarSciences SPF40 Ultra-Sport; MDSolarSciences SPF50 Plus Ultra Mineral Screen; MISA Cho Bo Yang BB SPF30 No21; MISA Cho Bo Yang BB SPF30 No23; MISA Geum Sul Vitalizing BB Cake 21; MISA Geum Sul Vitalizing BB Cake 23; MISA Geum Sul Vitalizing Day SPF15; MISSHA All Around Safe Block Mild Sun SPF30; MISSHA All Around Safe Block Sebum Zero Sun; MISSHA All Around Safe Block Sun Milk For Men SPF50 40ML; MISSHA All Around Safe Block Sun Milk For Men SPF50 70ML; MISSHA All Around Safe Block Toning Sun Tension SPF50; MISSHA M Magic Cushion Cover SPF50 NO31; MISSHA M Magic Cushion Moisture No23; MISSHA M Magic Cushion No 27; MISSHA M Magic Cushion No.21; MISSHA M Magic Cushion No.23; MISSHA M Magic Cushion SPF50 NO31; MISSHA M Perfect Cover BB Cream SPF42 (No. 25); MISSHA M Perfect Cover BB No 13; MISSHA M Perfect Cover BB No 21; MISSHA M Perfect Cover BB No 23; MISSHA M Perfect Cover BB No 27; MISSHA M Perfect Cover BB No 27 (20ml); MISSHA M Perfect Cover BB No 31; MISSHA M Perfect Cover BB SPF42 No21; MISSHA M Perfect Cover BB SPF42 No23; MISSHA M Perfect Cover BB SPF42 No29; MISSHA M SIGNATURE REAL COMPLETE BB Honey Beige; MISSHA M Signature Real Complete BB Cream SPF25 No.13 Bright Milky Beige; MISSHA M Signature Real Complete BB Cream SPF25 No.21 Light Pink Beige; MISSHA M Signature Real Complete BB Cream SPF25 No.23 Natural Yellow Beige; MISSHA Magic Cushion Cover Lasting SPF50 (No.21); MISSHA Magic Cushion Cover Lasting SPF50 (No.23); MISSHA Magic Cushion Moist Up SPF50 (No.21); MISSHA Magic Cushion Moist Up SPF50 (No.23); MISSHA Pore-fection BB Cream SPF30 No.1 Light Beige; MISSHA Pore-fection BB Cream SPF30 No.2 Natural Beige; MISSHA Signature Essence Cushion - Covering (No.21); MISSHA Signature Essence Cushion - Covering (No.23); MISSHA Signature Essence Cushion - Watering (No.23); MISSHA Signature Essence Cushion - Watering(No.21); MISSHA Signature Essence Cushion No 21; MISSHA Signature Essence Cushion No 23; MISSHA Signature Volume Brightening Concealer SPF30 No21; MISSHA Signature Volume Brightening Concealer SPF30 No23; MISSHA Skin Fit Stick Foundation SPF50 No.21; MISSHA Skin Fit Stick Foundation SPF50 No.23; MISSHA The Original Tension Pact Intense Moisture SPF37 No13; MISSHA The Original Tension Pact Intense Moisture SPF37 No21; MISSHA The Original Tension Pact Intense Moisture SPF37 No23; MISSHA The Original Tension Pact Perfect Cover SPF37 No 13; MISSHA The Original Tension Pact Perfect Cover SPF37 No 21; MISSHA The Original Tension Pact Perfect Cover SPF37 No 23; MISSHA The Original Tension Pact Tone Up Glow SPF30 No 13; MISSHA The Original Tension Pact Tone Up Glow SPF30 No 21; MISSHA The Original Tension Pact Tone Up Glow SPF30 No 23; MISSHA The Style Fitting Wear Foundation SPF30 No21; MISSHA The Style Fitting Wear Foundation SPF30 No23; MOOR SPA SPF30 Sunscreen; MOOR SPA SPF30 face cream; Mac Lightful C + Coral Grass Tinted Cream SPF 30 With Radiance Booster; Mac Lightful C Tinted Cream SPF 30 With Radiance Booster; Mac Lip Conditioner SPF 15; Mac Lip Conditioner Stick SPF 15; Mac Mineralize Moisture SPF 15 Broad Spectrum Foundation; Mac Pro Longwear SPF 20 Compact Foundation Broad Spectrum SPF 20; Mac Skin Essentials SPF 40 Foundation; Mac Studio Finish Concealer SPF 35; Mac Studio Sculpt SPF 15 Foundation; Mac Studio Stick Foundation SPF 15; Mac Studio Waterweight SPF 30 Broad Spectrum Foundation Sunscreen; Mac Tinted Lip Conditioner SPF 15; Mac Tinted Lip Conditioner Stick SPF 15; Magic Foundation Flawless Long-Lasting Coverage Sunscreen Broad Spectrum SPF 15; Magis Lene Brilliant Gold CC Cream XQ; Magis Lene Collagen Choc Extra Gold BB Cream; Magix Tinted Face Perfector Perfecteur Visage Teinte SPF/fps 15; MagixCashmere Advanced Cashmere Advanced Liquid Foundation; Makeup Sun Primer; Mamonde Brightening Cover Watery Cushion No. 11; Mamonde Brightening Cover Watery Cushion No. 21; Mamonde Brightening Cover Watery Cushion No. 23; Mamonde Brightening Cover Watery Cushion No. 33; Mamonde Brightening Cover Watery Cushion No. 35; Mamonde Brightening Cover Watery Cushion No. 37; Mamonde Brightening Pact 10hr N21; Mamonde Brightening Pact 10hr N23; Mamonde Pact Blooming 21; Mamonde Pact Blooming 23; Mamonde Total Mineral Moisture BB SPF20 PA plus; Mamonde Total Moisture BB 01; Mamonde Total Moisture BB 02; Mango Bebe Lip Care Spf15 Red Mango; Mans Best Friend; Maple Future Resist Foundation Broad Spectrum SPF 20 Foundation Delilah; Maple Time Frame Future Resist Foundation Broad Spectrum SPF 20 Delilah Cosmetics; Marcelle Moisture Cream Eye SPF 15 / CRème Hydratante Pour Les Yeux Fps 15; Marcelle Protective Block SPF 15 Spray -4.9%; Marcelle Protective Block SPF 25 Cream; Marcelle Protective Block SPF 25 Lotion; Marcelle/cc/cream/crème Complete Correction/correction Complète/SPF 35 Fps; Marie dArgan Day Cream SPF15; Mark Got The Goods Multi-benefit Foundation; Mark. Get A Tint Tinted Moisturizer; Mat Lumiere Long-lasting Soft Matte Makeup; Mat Lumiere Long-lasting Soft Matte Sunscreen Makeup Broad Spectrum SPF 15, 100 Soft Honey; Mat Lumiere Long-lasting Soft Matte Sunscreen Makeup Broad Spectrum SPF 15, 20 Clair; Mat Lumiere Long-lasting Soft Matte Sunscreen Makeup Broad Spectrum SPF 15, 30 Cendre; Mat Lumiere Long-lasting Soft Matte Sunscreen Makeup Broad Spectrum SPF 15, 40 Beige; Mat Lumiere Long-lasting Soft Matte Sunscreen Makeup Broad Spectrum SPF 15, 41 Soft Bisque; Mat Lumiere Long-lasting Soft Matte Sunscreen Makeup Broad Spectrum SPF 15, 50 Naturel; Match Perfection SPF 18 Classic Beige 250; Match Perfection SPF 18 Classic Ivory 101; Match Perfection SPF 18 Ivory 120; Match Perfection SPF 18 Light Nude 102; Match Perfection SPF 18 Nude 202; Match Perfection SPF 18 Sand 330; Match Perfection SPF 18 Soft Beige 240; Match Perfection SPF 18 True Ivory 130; Matchmaster Foundation SPF 15; Matchmaster SPF 15 Foundation Broad Spectrum; Matol Botanical Skin Care Lotion Soins De LA Peau A Base De Plantes; Matrix Skin Benefits Advanced Skin Creme SPF 8; Matrix Skin Benefits Advanced Skin Lotion SPF 8; Matte Face Unscented; Matte Moisture Tint Sunscreen Broad Spectrum SPF 15 Beige Rose; Matte Moisture Tint Sunscreen Broad Spectrum SPF 15 Chamomile; Matte Moisture Tint Sunscreen Broad Spectrum SPF 15 Hazel; Mattifying Extreme Wear Foundation SPF 15; Mattifying Extreme Wear Foundation SPF-15; Mattifying Perfector SPF 20 Sunscreen; Mattifying Primer SPF 20; Mature Skin Facial Day SPF 15; Maximum Cover Camouflage Makeup for Face and Body SPF 15; May Morning Cushion 23; May Morning Cushion 23 (refill); May New York Secret Muse Himiznohana Cover Pact No 21; May New York Secret Muse UV Vita Sun Cushion; May Newyork Super Sun; May Newyork Super Sun 10g; Maya Solar Natural Sunscreen 15 SPF; Maya Solar Natural Sunscreen 30 SPF; Maya Solar Natural Sunscreen 45 SPF; Maybelline New York Dream Fresh BB Beauty Balm Skin Perfector Broad Spectrum SPF 30 Sunscreen; Maybelline New York Superstay Better Skin Skin Transforming Foundation Broad Spectrum SPF 20 Sunscreen; Me Day S3 SPF 25; Me Day T3 SPF 25; MeO UV Clear Sunscreen; Medi Hydro DP BB Cream; Medi Hydro DP Cleanser; Medi Megaton 2080; Medi SM 24K Gold Hydrogel Peptide Mask Pack; Medi Uv Protection 120; MediSpa Sunspray; MediSpa Sunspray (sunblock); Medium Beige Foundation SPF 15; Medium Dark Foundation SPF 15; Medium Deep Foundation SPF 15; Medium Deep Warm Perfecting Makeup Broad Spectrum SPF 25 Merle Norman; Medium Expert Finish Makeup Broad Spectrum SPF 25 Merle Norman; Medium Foundation SPF 15; Medium Tan Foundation SPF 15; Megacushion Foundation SPF 15; Meijer Baby Tear Free SPF 50; Meijer Kids Tear Free SPF 50; Melafadin Day Protection; Melan Sunscreen SPF 50; Melvita NECTAR DE ROSES BB Sunscreen BROAD SPECTRUM SPF 15 NUDE ROSE; Melvita PROSUN High protection sunscreen Broad Spectrum SPF 30; Melvita PROSUN High protection sunscreen Broad Spectrum SPF 50; Melvita PROSUN SPF 15 Sun; Melvita PROSUN SPF 30 Sun; Melvita UV shield - Sunscreen SPF 15 Broad spectrum; Men's Titanium 4 - Crm 2%; Merle Norman Alabaster Beige Perfecting Makeup SPF 25; Merle Norman Ivory Smart Finish Makeup Broad Spectrum SPF 18; Merle Norman Preventage Hand Treatment SPF 15; Mesoestetic Sun Protection SPF 50; Meteorites Baby Glow Broad Spectrum SPF 25 2 Light; Meteorites Baby Glow Broad Spectrum SPF 25 3 Medium; Meteorites Baby Glow Broad Spectrum SPF 25 4 Golden; Methode D'adaptation Creme No 1; Methode D'adaptation Creme No 2; Miami Beach Body SPF-30 Sunscreen; Miami Beach Body White Gold SPF 50; Miami Beach White Gold SPF-30 Sunscreen; Microfit Cushion 101; Microfit Cushion 201; Microfit Cushion 301; Milky Mineral Sun Serum; Mimi Luzon - Face Defence Broad Spectrum SPF 30 Sunscreen Serum; Mimi Luzon - Face Defence Broad Spectrum SPF 30 Sunscreen Serum (Tinted); Mineral Baby Unscented SPF 50 Broad Spectrum; Mineral Based SPF 50 Sunscreen; Mineral Beauty Balm Broad Spectrum SPF 50 Sunscreen UVA-UVB Suncreen Light/Medium; Mineral Beauty Balm Broad Spectrum SPF 50 Sunscreen UVA-UVB Suncreen Medium/Dark; Mineral Broad Spectrum SPF 50 Sunscreen UVA-UVB Suncreen; Mineral Concealer; Mineral Concealer SPF 20; Mineral Concealer SPF-15; Mineral Corrector Palette SPF 20 Sunscreen; Mineral Creme Broad Spectrum SPF 30 Sunscreen UVA-UVB Suncreen; Mineral Creme Broad Spectrum SPF 48 Sunscreen UVA-UVB Suncreen; Mineral Face Matte Cucumber SPF 30 Broad Spectrum; Mineral Face Matte Tint Unscented SPF 30 Broad Spectrum; Mineral Face Rose Essence Tinted Moisturizer SPF 20 Broad Spectrum; Mineral Foundation; Mineral Foundation SPF 15; Mineral Foundation SPF 30-3W; Mineral Foundation SPF 30-5W; Mineral Foundation SPF-15; Mineral Lip Bonfire SPF 30 Broad Spectrum; Mineral Lip Firecracker SPF 30 Broad Spectrum; Mineral Lip Nude Beach SPF 30 Broad Spectrum; Mineral Lip Skinny Dip SPF 30 Broad Spectrum; Mineral Lip Summer Crush SPF 30 Broad Spectrum; Mineral Lip Tan Line SPF 30 Broad Spectrum; Mineral Mattescreen Broad Spectrum SPF 40; Mineral Mattescreen SPF 40; Mineral Mist SPF-50; Mineral Moisture Defense Broad Spectrum SPF 50 Sunscreen UVA-UVB Suncreen; Mineral SPF 30 Brush-On Sun Defense; Mineral SPF 30 Non-Tint Face; Mineral SPF 30 Sun; Mineral SPF 30 Whipped Sunscreen; Mineral SPF 40 Moisturizer; Mineral Sport Citrus Mimosa SPF 30 Broad Spectrum; Mineral Sunscreen Broad Spectrum SPF 40 Sunscreen UVA-UVB Sunscreen; Mineral Sunscreen Broad Spectrum SPF 45; Mineral Sunscreen Moisturizer Broad Spectrum SPF 20; Mineral Sunscreen SPF 50; Mineral Sunscreen SPF-50; Mineral Tinted Face Sunscreen SPF 30 - Light/ Medium; Mineral Tinted Face Sunscreen SPF 30 - Medium/ Dark; Mineral Tinted Moisture Broad Spectrum SPF 15 Oil Free; Mineral Tinted Moisturizer SPF 15; Mineral Tinted Sunscreen Broad Spectrum SPF 30 Sunscreen UVA-UVB Suncreen; Mineral UV Shield SPF30; Mineral Wear; Mineral Wear Airbrushing Pressed Powder; Mineral Wear All-in-1 ABC Cushion Foundation; Mineral Wear Face Powder; Mineral Wear Loose Powder; Mineral Wear Loose Powder SPF16; Mineral Wear Oh So Radiant Powder SPF 20; Mineral Wear Talc Free Airbrushing Pressed Powder SPF 30; Mineral Wear Talc Free Cushion Corrector Primer Duo SPF 20; Mineral Wear Talc Free Mineral Airbrushing Bronzer SPF 30; Mineral Wear Talc Free Mineral Face Powder SPF 16; Mineral Wear Talc Free Mineral Tinted Moisturizer SPF 15; Mineral Wear Talc-Free Airbrushing Loose Powder SPF 30; Mineral Wear Talc-Free Correcting Primer SPF 15; Mineral Wear Talc-Free Illuminating Powder Duo SPF 16; Mineral Wear Talc-Free Mineral Face Powder SPF 16; Mineral Wear Talc-Free Mineral Liquid Foundation SPF 15; Mineral Wear Talc-Free Mineral Loose Powder SPF 16; Mineral Wear Talc-free Mineral Airbrushing Blush SPF 30; Mineralize Moisture SPF 15 Foundation; Mineralize SPF 15 Foundation Loose; Mineralized Loose Powder SPF 15; Mineralizing Cr eamy Concealer 0.5 Snow; Mineralizing Cr eamy Concealer 01 Vanilla; Mineralizing Cr eamy Concealer 02 Ginger; Mineralizing Cr eamy Concealer 1.25 Cr eamlatte; Mineralizing Cr eamy Concealer 1.5 Cappuccino; Mineralizing Cr eamy Concealer 1.75 Macadamia; Mineralizing Serum Concealer 01 Clear Beige; Mineralizing Serum Concealer 02 Rich Beige; Mineralizing Serum Concealer 1.5 Natural Beige; Mini Berry Lip Balm Blueberry; Mini Berry Lip Balm Cherry; Minus-Sol Facial Sun Protection Sunscreen Broad Spectrum SPF 30 Plus Ivory; Minus-Sol Facial Sun Protection Sunscreen Broad Spectrum SPF 30 Plus White; Miracle Matt BB Cream; Miracle Worker Anti-aging Foundation SPF 30; Misa Cho Bo Yang Bb Spf30 Pa Plus Plus No.1 Natural Beige; Missha All Around Safe Block Soft Finish Sun Milk 40ml; Missha All Around Safe Block Soft Finish Sun Milk 70ml; Missha All Around Safe Block Soft Finish Sun Milk Broad Spectrum SPF 50 Plus; Missha All Around Safe Block Waterproof Sun Milk Spf50 40ml; Missha All Around Safe Block Waterproof Sun Milk Spf50 70ml; Missha Closing Cover Concealer Spf30 No21; Missha Closing Cover Concealer Spf30 No23; Missha Glam Silky Body Balm SPF 27; Missha M Magic Cushion Cover No21; Missha M Magic Cushion Cover SPF 50 No 23; Missha M Magic Cushion Moisture No21; Missha M Magic Cushion No 21; Missha M Magic Cushion No 23; Missha M Perfect Cover Bb Light; Missha M Perfect Cover Bb Medium; Missha M Perfect Cover Bb Tan; Missha M Prism Bright On Auto No.2 Spf35 Pa Plus Plus Plus; Missha M Radiance Two Way Pact Spf27 No21; Missha M Radiance Two Way Pact Spf27 No23; Missha M Shiny Bb; Missha M Shiny Bb Spf27; Missha M Signature Radiance Foundation; Missha M Signature Radiance Foundation Spf20; Missha M Signature Radiance Two Way Pact Spf27; Missha M Signature Real Complete Bb No27; Missha M Signature Real Complete Bb Spf25 Pa Plus Plus; Missha M Swirl Bb Sun Balm Spf50 Plus Pa Plus Plus Plus No.21; Missha M Vita Bb Spf20; Missha M Watery B.b SPF 27; Missha Signature Aura Tension Deep Moisture No 21; Missha Signature Aura Tension Deep Moisture No 23; Missha Signature Complexion Coordinating Bb Beige Broad Spectrum Spf43; Missha Signature Complexion Coordinating Bb Honey Beige; Missha Signature Complexion Coordinating Bb White Broad Spectrum Spf43; Missha Signature Dramatic Whitening Pact No.2 Spf50 Plus Pa Plus Plus Plus; Missha Signature Essence Cushion Intensive Cover Spf50 No 21; Missha Signature Essence Cushion Intensive Cover Spf50 No 23; Missha Signature Extreme Cover Concealer No.23 Spf30 Pa Plus Plus; Missha Signature Wrinkle Fill Up Bb No 21; Missha Signature Wrinkle Fill Up Bb No 23; Missha Signature Wrinkle Filler Bb Spf37 Pa Plus Plus No.23; Miunori Natural Baby Sunscreen; Mizon Snail Repair Blemish Balm Rose Beige; Mizon Snail Repair Intensive Bb 21; Mizon Snail Repair Intensive Bb 23; Mizon Snail Repair Intensive Bb 27; Mizon Snail Repair Intensive Bb 31; Mizon Uv Sun Protector; Moist Essential Pact 21 Light Beige; Moist Essential Pact 23 Natural Beige; Moist Moisture Bb; Moist Moisture Cc; Moist Pact No.21 Bright Beige; Moist Pact No.23 Natural Beige; Moisture Plus Tint SPF 15; Moisture Restore Day Protective Mattefying Broad Spectrum SPF15 Combination to Oily; Moisture Restore Day Protective Mattefying Lotion SPF 15 Combination To Oily Skin; Moisture Surge Cc Broad Spectrum SPF 30 Hydrating Colour Corrector; Moisture Surge Sheertint Hydrator Broad Spectrum SPF 25; Moisture Surge Sheertint Hydrator SPF 25; Moisture Surge Tinted Moisturizer SPF 15; Moisturising Daily Defense SPF 30 asap Skin Products; Moisturizer SPF 15; Moisturizing Natural Sunscreen 16spf; Moisturizing Sunblock; Moisturizing Sunscreen SPF 15; Moisturizing Uv Cream; Mongdies excellent sun cushion; Moonflash Cushion; Motives Liquid Powder Mineral Foundation SPF 15; Multi-function Smart Bb Spf30 Pa; Multivit Sun Protector; Murad - Environmental Shield - City Skin Age Defense Broad Spectrum SPF-50; Mustela 50 Sunscreen; Mustela Broad spectrum SPF 50 plus mineral sunscreen; Mustela High protection SPF 50; Mustela Mineral Sunscreen Broad Spectrum SPF 50; Mustela SPF 50; Mustela for sensitive areas SPF 50; My Day Screen Medium Dark Tinted Drops SPF 30; My Medic SPF 30 Reef Friendly Sunscreen; My Medic Sunscreen SPF 30; My Sunny Powde Ry Finish Sun Milk; MyChelle Dermaceuticals Sun Shield Coconut SPF 28 Broad Spectrum; MyChelle Dermaceuticals Sun Shield SPF 28 Coconut Protect; MyChelle Dermaceuticals Sun Shield SPF 28 Unscented Protect; MyChelle Dermaceuticals Sun Shield Unscented SPF 28 Broad Spectrum; Myeonghan Miindo Hwansaenggo Gold Essence Bb SPF 35 30100317; Myung Han Mi In Do Foundation Spf20 Pa Nb21; Myung Han Mi In Do Foundation Spf20 Pa Nb23; Myung Han Mi In Do Makeup Base Spf20 Pa 01 Green; Myung Han Mi In Do Recovery Bb Spf25 Pa; Myung Han Mi In Do Two Way Cake Spf35 Pa Nb21; Myung Han Mi In Do Two Way Cake Spf35 Pa Nb23; Myung Han Miindo Make Up Base; NARS ALL DAY LUMINOUS FOUNDATION Barcelona; NARS ALL DAY LUMINOUS FOUNDATION Cadiz; NARS ALL DAY LUMINOUS FOUNDATION Deauville; NARS ALL DAY LUMINOUS FOUNDATION Fiji; NARS ALL DAY LUMINOUS FOUNDATION Laponie; NARS ALL DAY LUMINOUS FOUNDATION Macao; NARS ALL DAY LUMINOUS FOUNDATION Mont Blanc; NARS ALL DAY LUMINOUS FOUNDATION Punjab; NARS ALL DAY LUMINOUS FOUNDATION Santa Fe; NARS ALL DAY LUMINOUS FOUNDATION Siberia; NARS ALL DAY LUMINOUS FOUNDATION Stromboli; NARS ALL DAY LUMINOUS FOUNDATION Sweden; NARS ALL DAY LUMINOUS FOUNDATION Syracuse; NARS ALL DAY LUMINOUS FOUNDATION Tahoe; NARS ALL DAY LUMINOUS FOUNDATION Vallauris; NARS FOUNDATION Barcelona; NARS FOUNDATION Benares; NARS FOUNDATION Cadiz; NARS FOUNDATION Deauville; NARS FOUNDATION Fiji; NARS FOUNDATION Mont Blanc; NARS FOUNDATION New Orleans; NARS FOUNDATION Punjab; NARS FOUNDATION Santa Fe; NARS FOUNDATION Siberia; NARS FOUNDATION Stromboli; NARS FOUNDATION Syracuse; NARS FOUNDATION Tahoe; NARS PURE RADIANT TINTED MOISTURIZER Alaska; NARS PURE RADIANT TINTED MOISTURIZER Annapurna; NARS PURE RADIANT TINTED MOISTURIZER Cuba; NARS PURE RADIANT TINTED MOISTURIZER Cuzco; NARS PURE RADIANT TINTED MOISTURIZER Finland; NARS PURE RADIANT TINTED MOISTURIZER Groenland; NARS PURE RADIANT TINTED MOISTURIZER Malaga; NARS PURE RADIANT TINTED MOISTURIZER Martinique; NARS PURE RADIANT TINTED MOISTURIZER Polynesia; NARS PURE RADIANT TINTED MOISTURIZER Seychelles; NARS PURE RADIANT TINTED MOISTURIZER St. Moritz; NARS PURE RADIANT TINTED MOISTURIZER Terre-Neuve; NARS PURE SHEER SPF LIP TREATMENT Angelique; NARS PURE SHEER SPF LIP TREATMENT Bianca; NARS Pure Radiant Tinted Moisturizer Alaska; NARS Pure Radiant Tinted Moisturizer Annapurna; NARS Pure Radiant Tinted Moisturizer Cuba; NARS Pure Radiant Tinted Moisturizer Finland; NARS Pure Radiant Tinted Moisturizer Malaga; NARS Pure Radiant Tinted Moisturizer Martinique; NARS Pure Radiant Tinted Moisturizer Polynesia; NARS Pure Radiant Tinted Moisturizer Seychelles; NARS Pure Radiant Tinted Moisturizer St. Moritz; NBCeutical; NELLY DEVUYST BIOSOLAR COLORLIFT 1 TINTED SUNSCREEN 30 mL SPF30; NELLY DEVUYST BIOSOLAR COLORLIFT 2 TINTED SUNSCREEN 30 mL SPF30; NEOGEN DERMALOGY Day-Light Protection Sun Screen SPF50; NEOGEN DERMALOGY Multi Play BC Stick SPF45 21 Light; NF Skin SPF 30 Broad Spectrum Moisturizer; NOTS Once Finishing; NP set BB Broad Spectrum SPF 20; NUANCE SALMA HAYAK Color and Correct CC Cream Broad Spectrum SPF 20 Sunscreen; Naples Company - Sunscreen Broad Spectrum SPF 30 Tinted Mineral Face; Napoleon Perdis Auto Pilot BBB Beauty Boosting Balm Broad Spectrum SPF 30 LIGHT-MEDIUM; Napoleon Perdis Auto Pilot BBB Beauty Boosting Balm Broad Spectrum SPF 30 MEDIUM-DARK; Napoleon Perdis Foundation Broad Spectrum SPF 15 Look 2b; Napoleon Perdis Foundation Broad Spectrum SPF 15 Look 3; Napoleon Perdis Foundation Broad Spectrum SPF 15 Look 3b; Napoleon Perdis Foundation Broad Spectrum SPF 15 Look 4; Napoleon Perdis Foundation Broad Spectrum SPF 15 Look 5b; Napoleon Perdis Sheer Genius Liquid Foundation Broad Spectrum SPF 20 Look 3; Nars Benares; Nars Cadiz; Nars Deauville; Nars Face Glow - Polynesia; Nars Face Glow - Seychelles; Nars Gel Fraicheur - Alaska; Nars Gel Fraicheur - Antilles; Nars Gel Fraicheur - Monte Carlo; Nars Gel Fraicheur - ST-moritz; Nars New Orleans; Nars Punjab; Nars Pure Radiant Tinted Moisturizer Alaska; Nars Pure Radiant Tinted Moisturizer Auckland; Nars Pure Radiant Tinted Moisturizer Cuzco; Nars Pure Radiant Tinted Moisturizer Finland; Nars Pure Radiant Tinted Moisturizer Gotland; Nars Pure Radiant Tinted Moisturizer Granada; Nars Pure Radiant Tinted Moisturizer Groenland; Nars Pure Radiant Tinted Moisturizer Guernsey; Nars Pure Radiant Tinted Moisturizer Havana; Nars Pure Radiant Tinted Moisturizer Marrakesh; Nars Pure Radiant Tinted Moisturizer Mykonos; Nars Pure Radiant Tinted Moisturizer Norwich; Nars Pure Radiant Tinted Moisturizer ST. Moritz; Nars Pure Radiant Tinted Moisturizer Santiago; Nars Pure Radiant Tinted Moisturizer Sydney; Nars Pure Radiant Tinted Moisturizer Terre-neuve; Nars Siberia; Nars Stromboli; Nars Syracuse; Nars Tahoe; Native Tan Sun Protection Lotion SPF 15; Natural Blend SPF 30 Sunscreen; Natural Defense Concealer SPF; Natural Defense Finishing Powder; Natural Defense Foundation SPF; Natural Defense Make-UP - Crm 12.0%; Natural Defense Multicolor Stick; Natural Finish Long Lasting Foundation SPF 15; Natural Finish Pressed Foundation SPF 20 Sunscreen; Natural SPF 28; Natural SPF 28 Soy Free; Natural SPF 30; Natural SPF 50; Natural SUN SPF 26 Unscented; Natural SUN SPF 30 Active Lifestyles; Natural SUN SPF 30 Green Tea; Natural SUN SPF 30 Unscented; Natural Smart Finish Makeup SPF 18 Merle Norman; Natural Sun AQ Body and Family Mild Sun Milk; Natural Sun AQ Power Long Lasting Sun Spf45 Pa; Natural Sun AQ Super Perfect Sun Spf50 Pa; Natural Sun AQ Super White Sun Spf50 Pa; Natural Sun AQ Total Anti-aging Essence Sun; Natural Sun Eco Light Sun Cream SPF 50+ Pa+++; Natural Sun Eco Oil Clear Sun Cream Spf50+ Pa+++; Natural Sun Eco Photogenic Sun Blur Spf50+ Pa+++; Natural Sun Eco Sun Cream SPF 50+ Pa+++; Natural Sun Eco Super Perfect SPF 50; Natural Sun SPF 25/fps 25 Ideal for Active Lifestyles; Natural Sun SPF 25/fps 25 Ideal for Children; Natural Sunscreen Tan; Natural Tan Always Color Stay-On Makeup SPF 10; Natural Tan Always color stay-on Makeup Broad Spectrum SPF 15 Jafra; Natural Tinted Sun Cover Cushion - Light Beige; Natural Tinted Sun Cover Cushion - Natural Beige; Natural Tinted Sun Spf30; Natural Tinted Sun-cream; Nature Origin Aqua Marble Foundation 01 Light Beige; Nature Origin Aqua Marble Foundation 02 Natural Beige; Nature Origin Cc Blur; Nature Origin Cc Brightening; Nature Origin Cc Tinted; Nature Origin Collagen Bb 01 Light Beige; Nature Origin Collagen Bb 02 Natural Beige; Nature Origin Collagen Bb Cre Am 10 Dark Beige; Nature Origin Collagen Bb Original; Nature Origin Cover Two Way Pact 01 Light Beige; Nature Origin Cover Two Way Pact 02 Natural Beige; Nature Origin Cushion Cc Natural No.21; Nature Origin Cushion Cc Natural No.23; Nature Republic California Moisturizing Aloe Daily Sun Cream SPF 50+; Natures Gate Kids Block SPF 30 Sunscreen; Natures Gate Kids SPF 20 Mineral; Natures Gate Mineral Kids Block SPF 20; Natures Gate Mineral Sportblock SPF 20 Sunscreen; Natures Gate Sport SPF 20 Mineral; Near Skin Dustless Defense Sunblock; Nelly Devuyst Mineral SPF 30 Sunscreen; Nelly Devuyst Organic Sunscreen Natural Protection Broad Spectrum Spf30; Nelly Devuyst Organic Transparent Mineral Sunscreen Spf30; Neo Classic Homme Bb Spf20 Pa; Neo Classic Homme Leports Sun Cream SPF 50+ Pa+++; NeoStrata Daytime Protection SPF 23; NeoStrata Sheer Physical Protection SPF 50; NeoStrata Sheer Physical Protection Sunscreen Broad Spectrum SPF 50; NeoStrata Ultra Daytime Smoothing SPF 20; Neogen Code 9 Uv Defense Longlasting Protector Spf50; Neogen Dermalogy Day Light Protection Sun Screen Spf50; Neostrata Aha Light Textured Smoothing Cream SPF 15; Neostrata Moisture Infusion Daytime Replenishing Cream; Neova DNA Damage Control - Silc Sheer Broad Spectrum SPF 40; Neova DNA Damage Control - Silc Sheer SPF 45; Neova Smartsunscreen - Silc Sheer 2.0; Neutrogena HEALTHY DEFENSE daily moisturizer with sunscreen Broad Spectrum SPF 50; Neutrogena Healthy Defense SPF30; Neutrogena Healthy Defense SPF50; Neutrogena Healthy Skin 3 in 1 Concealer for Eyes Sunscreen Broad Spectrum SPF20 - Buff; Neutrogena Healthy Skin 3 in 1 Concealer for Eyes Sunscreen Broad Spectrum SPF20 - Fair; Neutrogena Healthy Skin 3 in 1 Concealer for Eyes Sunscreen Broad Spectrum SPF20 - Light; Neutrogena Healthy Skin 3 in 1 Concealer for Eyes Sunscreen Broad Spectrum SPF20 - Medium; Neutrogena Healthy Skin Brightening Eye Perfector - Buff 09; Neutrogena Healthy Skin Brightening Eye Perfector - Fair 05; Neutrogena Healthy Skin Brightening Eye Perfector - Light 10; Neutrogena Healthy Skin Brightening Eye Perfector - Medium 15; Neutrogena Healthy Skin Brightening Eye Perfector SPF 20 - Buff 09; Neutrogena Healthy Skin Brightening Eye Perfector SPF 20 - Fair 05; Neutrogena Healthy Skin Brightening Eye Perfector SPF 20 - Light 10; Neutrogena Healthy Skin Brightening Eye Perfector SPF 20 - Medium 15; Neutrogena Healthy Skin Brightening Eye Perfector Sunscreen Broad Spectrum SPF25 - Buff 09; Neutrogena Healthy Skin Brightening Eye Perfector Sunscreen Broad Spectrum SPF25 - Fair 05; Neutrogena Healthy Skin Brightening Eye Perfector Sunscreen Broad Spectrum SPF25 - Light 10; Neutrogena Healthy Skin Brightening Eye Perfector Sunscreen Broad Spectrum SPF25 - Medium 15; Neutrogena Healthy Skin Enhancer Sunscreen Broad Spectrum SPF20 - Fair to Light 20; Neutrogena Healthy Skin Enhancer Sunscreen Broad Spectrum SPF20 - Ivory to Fair 10; Neutrogena Healthy Skin Enhancer Sunscreen Broad Spectrum SPF20 - Light to Neutral 30; Neutrogena Healthy Skin Enhancer Sunscreen Broad Spectrum SPF20 - Medium to Olive 60; Neutrogena Healthy Skin Enhancer Sunscreen Broad Spectrum SPF20 - Neutral to Tan 40; Neutrogena Healthy Skin Enhancer Sunscreen Broad Spectrum SPF20 - Tan to Medium 50; Neutrogena Healthy Skin Glow Sheers Illuminating Tinted Moisturizer - Fair to Light 20 Sunscreen Broad Spectrum SPF30; Neutrogena Healthy Skin Glow Sheers Illuminating Tinted Moisturizer - Ivory to Fair 10 Sunscreen Broad Spectrum SPF30; Neutrogena Healthy Skin Glow Sheers Illuminating Tinted Moisturizer - Light to Medium 30 Sunscreen Broad Spectrum SPF30; Neutrogena Healthy Skin Glow Sheers Illuminating Tinted Moisturizer - Medium to Tan 40 Sunscreen Broad Spectrum SPF30; Neutrogena Healthy Skin Liquid Makeup SPF 20 - Buff 30; Neutrogena Healthy Skin Liquid Makeup SPF 20 - Caramel 105; Neutrogena Healthy Skin Liquid Makeup SPF 20 - Chestnut 135; Neutrogena Healthy Skin Liquid Makeup SPF 20 - Classic Ivory 10; Neutrogena Healthy Skin Liquid Makeup SPF 20 - Cocoa 115; Neutrogena Healthy Skin Liquid Makeup SPF 20 - Fresh Beige 70; Neutrogena Healthy Skin Liquid Makeup SPF 20 - Honey 85; Neutrogena Healthy Skin Liquid Makeup SPF 20 - Medium Beige 80; Neutrogena Healthy Skin Liquid Makeup SPF 20 - Natural Beige 60; Neutrogena Healthy Skin Liquid Makeup SPF 20 - Natural Ivory 20; Neutrogena Healthy Skin Liquid Makeup SPF 20 - Natural Tan 100; Neutrogena Healthy Skin Liquid Makeup SPF 20 - Nude 40; Neutrogena Healthy Skin Liquid Makeup SPF 20 - Soft Beige 50; Neutrogena Healthy Skin Liquid Makeup SPF 20 - Warm Beige 90; Neutrogena Healthy Skin Makeup Sunscreen Broad Spectrum SPF20 - Buff 30; Neutrogena Healthy Skin Makeup Sunscreen Broad Spectrum SPF20 - Caramel 105; Neutrogena Healthy Skin Makeup Sunscreen Broad Spectrum SPF20 - Chestnut 135; Neutrogena Healthy Skin Makeup Sunscreen Broad Spectrum SPF20 - Classic Ivory 10; Neutrogena Healthy Skin Makeup Sunscreen Broad Spectrum SPF20 - Cocoa 115; Neutrogena Healthy Skin Makeup Sunscreen Broad Spectrum SPF20 - Fresh Beige 70; Neutrogena Healthy Skin Makeup Sunscreen Broad Spectrum SPF20 - Honey 85; Neutrogena Healthy Skin Makeup Sunscreen Broad Spectrum SPF20 - Honey Beige 110; Neutrogena Healthy Skin Makeup Sunscreen Broad Spectrum SPF20 - Medium Beige 80; Neutrogena Healthy Skin Makeup Sunscreen Broad Spectrum SPF20 - Natural Beige 60; Neutrogena Healthy Skin Makeup Sunscreen Broad Spectrum SPF20 - Natural Ivory 20; Neutrogena Healthy Skin Makeup Sunscreen Broad Spectrum SPF20 - Natural Tan 100; Neutrogena Healthy Skin Makeup Sunscreen Broad Spectrum SPF20 - Nude 40; Neutrogena Healthy Skin Makeup Sunscreen Broad Spectrum SPF20 - Soft Beige 50; Neutrogena Healthy Skin Makeup Sunscreen Broad Spectrum SPF20 - Tan 120; Neutrogena Healthy Skin Makeup Sunscreen Broad Spectrum SPF20 - Warm Beige 90; Neutrogena Healthy Skin Radiant Tinted Moisturizer Sunscreen Broad Spectrum SPF 30, Sheer Fair 20; Neutrogena Healthy Skin Radiant Tinted Moisturizer Sunscreen Broad Spectrum SPF 30, Sheer Ivory 10; Neutrogena Healthy Skin Radiant Tinted Moisturizer Sunscreen Broad Spectrum SPF 30, Sheer Tan 30; Neutrogena Intensified Day Moisture SPF 15; Neutrogena MINERAL UV TINT FACE DEEP SPF 30; Neutrogena MINERAL UV TINT FACE LIGHT SPF 30; Neutrogena MINERAL UV TINT FACE MEDIUM DEEP SPF 30; Neutrogena MINERAL UV TINT FACE MEDIUM SPF 30; Neutrogena Mineral Beach Defense Active Performance Sunscreen Broad Spectrum SPF 30; Neutrogena Mineral Sheers SPF20 - Buff 30; Neutrogena Mineral Sheers SPF20 - Classic Ivory 10; Neutrogena Mineral Sheers SPF20 - Honey Beige 70; Neutrogena Mineral Sheers SPF20 - Natural Beige 60; Neutrogena Mineral Sheers SPF20 - Natural Ivory 20; Neutrogena Mineral Sheers SPF20 - Nude 40; Neutrogena Mineral Sheers SPF20 - Soft Beige 50; Neutrogena Mineral Sheers SPF20 - Tan 80; Neutrogena Mineral Ultra Sheer Dry Touch SPF 30; Neutrogena MoistureShine SPF20 Angels Blush 100; Neutrogena MoistureShine SPF20 Anything Rose 200; Neutrogena MoistureShine SPF20 Berry Burst 400; Neutrogena MoistureShine SPF20 Caramel Kiss 230; Neutrogena MoistureShine SPF20 Cherry Twist 410; Neutrogena MoistureShine SPF20 Coral Dream 500; Neutrogena MoistureShine SPF20 Electric Currant 440; Neutrogena MoistureShine SPF20 Just Whisper 210; Neutrogena MoistureShine SPF20 Mauve On 300; Neutrogena MoistureShine SPF20 Nude Blush 240; Neutrogena MoistureShine SPF20 Peach-A-Boo 510; Neutrogena MoistureShine SPF20 Pinch of Cinn 260; Neutrogena MoistureShine SPF20 Playful Plum 310; Neutrogena MoistureShine SPF20 Plum Paradise 320; Neutrogena MoistureShine SPF20 Pomegranite 430; Neutrogena MoistureShine SPF20 Poppy Red 420; Neutrogena MoistureShine SPF20 Rum Raisin 250; Neutrogena MoistureShine SPF20 Sheer Luck 220; Neutrogena MoistureShine SPF20 Think Pink 110; Neutrogena MoistureShine SPF20 Tickled Pink 120; Neutrogena Nourishing Eye Quad SPF 15 - Blue Smoke 150; Neutrogena Nourishing Eye Quad SPF 15 - Butter Creme 110; Neutrogena Nourishing Eye Quad SPF 15 - Tea Biscuit 120; Neutrogena Nourishing Eye Quad SPF15 - Copper Glow 130; Neutrogena Nourishing Eye Quad SPF15 - Moonlit Violet 170; Neutrogena Nourishing Eye Quad SPF15 - Sea Shell 140; Neutrogena Nourishing Eye Quad SPF15 Vintage Wine 180; Neutrogena Nourishing Eye Quad SPR 15 - Garden Party 160; Neutrogena Nourishing Long Wear Makeup Tone Correcting Complex Sunscreen Broad Spectrum SPF20 Buff30; Neutrogena Nourishing Long Wear Makeup Tone Correcting Complex Sunscreen Broad Spectrum SPF20 Classic Ivory10; Neutrogena Nourishing Long Wear Makeup Tone Correcting Complex Sunscreen Broad Spectrum SPF20 Fresh Beige70; Neutrogena Nourishing Long Wear Makeup Tone Correcting Complex Sunscreen Broad Spectrum SPF20 Natural Beige60; Neutrogena Nourishing Long Wear Makeup Tone Correcting Complex Sunscreen Broad Spectrum SPF20 Natural Ivory20; Neutrogena Nourishing Long Wear Makeup Tone Correcting Complex Sunscreen Broad Spectrum SPF20 Nude40; Neutrogena Nourishing Long Wear Makeup Tone Correcting Complex Sunscreen Broad Spectrum SPF20 Soft Beige50; Neutrogena Nourishing Long Wear Makeup Tone Correcting Complex Sunscreen Broad Spectrum SPF20 Warm Beige80; Neutrogena PROTECT Plus TINT FAIR TO LIGHT 20; Neutrogena PROTECT Plus TINT IVORY TO FAIR 10; Neutrogena PROTECT Plus TINT LIGHT TO TAN 30; Neutrogena PROTECT Plus TINT TAN TO MEDIUM 40; Neutrogena Pure and Free; Neutrogena Pure and Free Baby Faces Ultra Gentle Sunblock SPF 50plus; Neutrogena Pure and Free Baby Faces Ultra Gentle Sunscreen Broad Spectrum SPF45 Plus; Neutrogena Pure and Free Baby Sunscreen Broad Spectrum SPF60 Plus; Neutrogena Pure and Free Sunscreen Broad Spectrum SPF50; Neutrogena Pure and free Baby Sunblock SPF 60plus Purescreen; Neutrogena SPF 30 Sensitive Skin; Neutrogena Sensitive Skin Face Mineral Sunscreen Broad Spectrum SPF 50; Neutrogena Sensitive Skin Mineral Sunscreen Broad Spectrum SPF 60 plus; Neutrogena Sensitive Skin Sunblock SPF60 Plus; Neutrogena Sensitive Skin Sunscreen Broad Spectrum SPF60 Plus; Neutrogena Shine Control Makeup Broad Spectrum SPF20 - Buff 30; Neutrogena Shine Control Makeup Broad Spectrum SPF20 - Classic Ivory 10; Neutrogena Shine Control Makeup Broad Spectrum SPF20 - Fresh Beige 70; Neutrogena Shine Control Makeup Broad Spectrum SPF20 - Natural Beige 60; Neutrogena Shine Control Makeup Broad Spectrum SPF20 - Natural Ivory 20; Neutrogena Shine Control Makeup Broad Spectrum SPF20 - Nude 40; Neutrogena Shine Control Makeup Broad Spectrum SPF20 - Soft Beige 50; Neutrogena Shine Control Makeup Broad Spectrum SPF20 - Warm Beige 90; Neutrogena Sunblocker SPF 17 - 7.25% Lot; Neutrogena naturals Brightening Daily Moisturizer Broad Spectrum SPF 25; Neutrogena nourishing LONG WEAR makeup sunscreen broad spectrum SPF 20 chestnut 135; Neutrogena nourishing LONG WEAR makeup sunscreen broad spectrum SPF 20 cocoa 115; Neutrogena nourishing LONG WEAR makeup sunscreen broad spectrum SPF 20 honey 85; Neutrogena sensitive skin face Liquid Sunscreen Broad Spectrum SPF50; Nevada Natural Products Cream Sunscreen SPF 90; Next Cell Medical Soothing Complex; Nia24 Sun Damage Defense Broad Spectrum 100 Percent Mineral Sunscreen SPF 30; Nicole Miller Daytime Delivery Moisturizing Creme; Nicole Miller Daytime Delivery Moisturizing Lotion; Nivea A Kiss of Protection Sun Protection Lip Care; Nivea For Men Protective; No Concealer Concealer; No Concealer Concealer No.2 Light to Medium; No Foundation Foundation Fair; No Foundation Foundation No.1 Fair to Light; No Foundation Foundation No.2 Light to Medium; No Foundation SPF 30; No Makeup Concealer Fair Broad Spectrum SPF 35; No Makeup Concealer Medium Broad Spectrum SPF 35; No Makeup Foundation Fair Broad Spectrum SPF 30; No Makeup Foundation Fair-Light Broad Spectrum SPF 30; No Makeup Foundation Light Broad Spectrum SPF 30; No Makeup Foundation Light-Medium Broad Spectrum SPF 30; No Makeup Foundation Tan Broad Spectrum SPF 30; No Sun Face SPF 50; No name provided; No7 Beautifully Matte Foundation Sunscreen Broad Spectrum SPF 15 Calico; No7 Beautifully Matte Foundation Sunscreen Broad Spectrum SPF 15 Chestnut; No7 Beautifully Matte Foundation Sunscreen Broad Spectrum SPF 15 Cool Beige; No7 Beautifully Matte Foundation Sunscreen Broad Spectrum SPF 15 Cool Ivory; No7 Beautifully Matte Foundation Sunscreen Broad Spectrum SPF 15 Cool Vanilla; No7 Beautifully Matte Foundation Sunscreen Broad Spectrum SPF 15 Deeply Beige; No7 Beautifully Matte Foundation Sunscreen Broad Spectrum SPF 15 Honey; No7 Beautifully Matte Foundation Sunscreen Broad Spectrum SPF 15 Latte; No7 Beautifully Matte Foundation Sunscreen Broad Spectrum SPF 15 Mocha; No7 Beautifully Matte Foundation Sunscreen Broad Spectrum SPF 15 Warm Beige; No7 Beautifully Matte Foundation Sunscreen Broad Spectrum SPF 15 Warm Ivory; No7 Beautifully Matte Foundation Sunscreen Broad Spectrum SPF 15 Wheat; No7 Intelligent Balance Foundation Sunscreen SPF12 Almond 35; No7 Intelligent Balance Foundation Sunscreen SPF12 Blonde 20; No7 Intelligent Balance Foundation Sunscreen SPF12 Mocha 55; No7 Intelligent Balance Foundation Sunscreen SPF12 New Ivory 10; No7 Intelligent Balance Foundation Sunscreen SPF12 Nude 15; No7 Intelligent Balance Foundation Sunscreen SPF12 Opal 01; No7 Intelligent Balance Foundation Sunscreen SPF12 Porcelain 05; No7 Intelligent Balance Foundation Sunscreen SPF12 Truffle 50; No7 Intelligent Balance Foundation Sunscreen SPF12 Vanilla 25; No7 Intelligent Balance Foundation Sunscreen SPF12 Walnut 45; No7 Lift and Luminate Triple Action Serum Foundation Sunscreen Broad Spectrum SPF 15 Calico; No7 Lift and Luminate Triple Action Serum Foundation Sunscreen Broad Spectrum SPF 15 Cool Honey; No7 Lift and Luminate Triple Action Serum Foundation Sunscreen Broad Spectrum SPF 15 Cool Ivory; No7 Lift and Luminate Triple Action Serum Foundation Sunscreen Broad Spectrum SPF 15 Cool Vanilla; No7 Lift and Luminate Triple Action Serum Foundation Sunscreen Broad Spectrum SPF 15 Deep Beige; No7 Lift and Luminate Triple Action Serum Foundation Sunscreen Broad Spectrum SPF 15 Deep Honey; No7 Lift and Luminate Triple Action Serum Foundation Sunscreen Broad Spectrum SPF 15 Hazelnut; No7 Lift and Luminate Triple Action Serum Foundation Sunscreen Broad Spectrum SPF 15 Honey; No7 Lift and Luminate Triple Action Serum Foundation Sunscreen Broad Spectrum SPF 15 Latte; No7 Lift and Luminate Triple Action Serum Foundation Sunscreen Broad Spectrum SPF 15 Sandalwood; No7 Lift and Luminate Triple Action Serum Foundation Sunscreen Broad Spectrum SPF 15 Sepia; No7 Lift and Luminate Triple Action Serum Foundation Sunscreen Broad Spectrum SPF 15 Shell; No7 Lift and Luminate Triple Action Serum Foundation Sunscreen Broad Spectrum SPF 15 Tawny; No7 Lift and Luminate Triple Action Serum Foundation Sunscreen Broad Spectrum SPF 15 Toffee; No7 Lift and Luminate Triple Action Serum Foundation Sunscreen Broad Spectrum SPF 15 Warm Beige; No7 Lift and Luminate Triple Action Serum Foundation Sunscreen Broad Spectrum SPF 15 Warm Ivory; No7 Lift and Luminate Triple Action Serum Foundation Sunscreen Broad Spectrum SPF 15 Warm Sand; No7 Lift and Luminate Triple Action Serum Foundation Sunscreen Broad Spectrum SPF 15 Wheat; No7 Lift and Luminate Triple Action Serum Foundation Sunscreen Broad Spectrum SPF 15 Willow; No7 Lifting and Firming Foundation SPF 15; No7 Lifting and Firming Foundation Sunscreen SPF 15 Almond 35; No7 Lifting and Firming Foundation Sunscreen SPF 15 Blonde 20; No7 Lifting and Firming Foundation Sunscreen SPF 15 Mocha 55; No7 Lifting and Firming Foundation Sunscreen SPF 15 New Ivory 10; No7 Lifting and Firming Foundation Sunscreen SPF 15 Nude 15; No7 Lifting and Firming Foundation Sunscreen SPF 15 Opal 01; No7 Lifting and Firming Foundation Sunscreen SPF 15 Porcelain 05; No7 Lifting and Firming Foundation Sunscreen SPF 15 Truffle 50; No7 Lifting and Firming Foundation Sunscreen SPF 15 Vanilla 25; No7 Lifting and Firming Foundation Sunscreen SPF 15 Walnut 45; No7 Perfect and Perfect Advanced All in One Foundation SPF 50 Calico; No7 Perfect and Perfect Advanced All in One Foundation SPF 50 Chestnut; No7 Perfect and Perfect Advanced All in One Foundation SPF 50 Cool Beige; No7 Perfect and Perfect Advanced All in One Foundation SPF 50 Cool Ivory; No7 Perfect and Perfect Advanced All in One Foundation SPF 50 Cool Vanilla; No7 Perfect and Perfect Advanced All in One Foundation SPF 50 Honey; No7 Perfect and Perfect Advanced All in One Foundation SPF 50 Porcelain; No7 Perfect and Perfect Advanced All in One Foundation SPF 50 Toffee; No7 Perfect and Perfect Advanced All in One Foundation SPF 50 Warm Beige; No7 Perfect and Perfect Advanced All in One Foundation SPF 50 Warm Ivory; No7 Perfect and Perfect Advanced All in One Foundation SPF 50 Wheat; No7 Perfect and Perfect Intense Advanced All in One Foundation SPF 50 Amber; No7 Perfect and Perfect Intense Advanced All in One Foundation SPF 50 Bamboo; No7 Perfect and Perfect Intense Advanced All in One Foundation SPF 50 Calico; No7 Perfect and Perfect Intense Advanced All in One Foundation SPF 50 Chestnut; No7 Perfect and Perfect Intense Advanced All in One Foundation SPF 50 Cool Beige; No7 Perfect and Perfect Intense Advanced All in One Foundation SPF 50 Cool Ivory; No7 Perfect and Perfect Intense Advanced All in One Foundation SPF 50 Cool Vanilla; No7 Perfect and Perfect Intense Advanced All in One Foundation SPF 50 Creme; No7 Perfect and Perfect Intense Advanced All in One Foundation SPF 50 Deeply Bronze; No7 Perfect and Perfect Intense Advanced All in One Foundation SPF 50 Deeply Honey; No7 Perfect and Perfect Intense Advanced All in One Foundation SPF 50 Dune; No7 Perfect and Perfect Intense Advanced All in One Foundation SPF 50 Hazelnut; No7 Perfect and Perfect Intense Advanced All in One Foundation SPF 50 Honey; No7 Perfect and Perfect Intense Advanced All in One Foundation SPF 50 Latte; No7 Perfect and Perfect Intense Advanced All in One Foundation SPF 50 Sand; No7 Perfect and Perfect Intense Advanced All in One Foundation SPF 50 Sepia; No7 Perfect and Perfect Intense Advanced All in One Foundation SPF 50 Toffee; No7 Perfect and Perfect Intense Advanced All in One Foundation SPF 50 Warm Beige; No7 Perfect and Perfect Intense Advanced All in One Foundation SPF 50 Warm Ivory; No7 Perfect and Perfect Intense Advanced All in One Foundation SPF 50 Wheat; No7 Perfect and Perfect Intense Advanced All in One Foundation SPF 50 Willow; No7 Radiant Glow Foundation; No7 Radiant Glow Foundation Sunscreen SPF 15 05; No7 Radiant Glow Foundation Sunscreen SPF 15 Almond 30; No7 Radiant Glow Foundation Sunscreen SPF 15 Blonde 20; No7 Radiant Glow Foundation Sunscreen SPF 15 Buff 15; No7 Radiant Glow Foundation Sunscreen SPF 15 Cocoa 55; No7 Radiant Glow Foundation Sunscreen SPF 15 Cream 05; No7 Radiant Glow Foundation Sunscreen SPF 15 Mocha 55; No7 Radiant Glow Foundation Sunscreen SPF 15 New Ivory 10; No7 Radiant Glow Foundation Sunscreen SPF 15 Nude 15; No7 Radiant Glow Foundation Sunscreen SPF 15 Opal 01; No7 Radiant Glow Foundation Sunscreen SPF 15 Porcelain 05; No7 Radiant Glow Foundation Sunscreen SPF 15 Suede 40; No7 Radiant Glow Foundation Sunscreen SPF 15 Truffle 50; No7 Radiant Glow Foundation Sunscreen SPF 15 Vanilla 25; No7 Radiant Glow Foundation Sunscreen SPF 15 Walnut 45; No7 Restore and Renew Multi Action Serum Foundation Sunscreen Broad Spectrum SPF 20 Amber; No7 Restore and Renew Multi Action Serum Foundation Sunscreen Broad Spectrum SPF 20 Bamboo; No7 Restore and Renew Multi Action Serum Foundation Sunscreen Broad Spectrum SPF 20 Calico; No7 Restore and Renew Multi Action Serum Foundation Sunscreen Broad Spectrum SPF 20 Cedar; No7 Restore and Renew Multi Action Serum Foundation Sunscreen Broad Spectrum SPF 20 Chestnut; No7 Restore and Renew Multi Action Serum Foundation Sunscreen Broad Spectrum SPF 20 Cool Beige; No7 Restore and Renew Multi Action Serum Foundation Sunscreen Broad Spectrum SPF 20 Cool Ivory; No7 Restore and Renew Multi Action Serum Foundation Sunscreen Broad Spectrum SPF 20 Cool Vanilla; No7 Restore and Renew Multi Action Serum Foundation Sunscreen Broad Spectrum SPF 20 Dune; No7 Restore and Renew Multi Action Serum Foundation Sunscreen Broad Spectrum SPF 20 Hazelnut; No7 Restore and Renew Multi Action Serum Foundation Sunscreen Broad Spectrum SPF 20 Honey; No7 Restore and Renew Multi Action Serum Foundation Sunscreen Broad Spectrum SPF 20 Latte; No7 Restore and Renew Multi Action Serum Foundation Sunscreen Broad Spectrum SPF 20 Porcelain; No7 Restore and Renew Multi Action Serum Foundation Sunscreen Broad Spectrum SPF 20 Tawny; No7 Restore and Renew Multi Action Serum Foundation Sunscreen Broad Spectrum SPF 20 Umber; No7 Restore and Renew Multi Action Serum Foundation Sunscreen Broad Spectrum SPF 20 Warm Beige; No7 Restore and Renew Multi Action Serum Foundation Sunscreen Broad Spectrum SPF 20 Warm Ivory; No7 Restore and Renew Multi Action Serum Foundation Sunscreen Broad Spectrum SPF 20 Wheat; No7 Soft and Sheer Tinted Moisturiser Dark; No7 Soft and Sheer Tinted Moisturiser Fair; No7 Soft and Sheer Tinted Moisturiser Medium; No7 Soft and Sheer Tinted Moisturizer SPF 15; No7 Stay Perfect Foundation; No7 Stay Perfect Foundation Compact; No7 Stay Perfect Foundation Compact Sunscreen SPF 15 Almond; No7 Stay Perfect Foundation Compact Sunscreen SPF 15 Blonde; No7 Stay Perfect Foundation Compact Sunscreen SPF 15 Buff; No7 Stay Perfect Foundation Compact Sunscreen SPF 15 Caramel; No7 Stay Perfect Foundation Compact Sunscreen SPF 15 New Ivory; No7 Stay Perfect Foundation Compact Sunscreen SPF 15 Nude; No7 Stay Perfect Foundation Compact Sunscreen SPF 15 Sandstorm; No7 Stay Perfect Foundation Sunscreen SPF 15 05; No7 Stay Perfect Foundation Sunscreen SPF 15 60; No7 Stay Perfect Foundation Sunscreen SPF 15 Almond 30; No7 Stay Perfect Foundation Sunscreen SPF 15 Blonde 20; No7 Stay Perfect Foundation Sunscreen SPF 15 Buff 15; No7 Stay Perfect Foundation Sunscreen SPF 15 Cocoa 55; No7 Stay Perfect Foundation Sunscreen SPF 15 Espresso 45; No7 Stay Perfect Foundation Sunscreen SPF 15 Mocha 60; No7 Stay Perfect Foundation Sunscreen SPF 15 New Ivory 10; No7 Stay Perfect Foundation Sunscreen SPF 15 Nude 15; No7 Stay Perfect Foundation Sunscreen SPF 15 Opal 01; No7 Stay Perfect Foundation Sunscreen SPF 15 Porcelain 05; No7 Stay Perfect Foundation Sunscreen SPF 15 Suede 40; No7 Stay Perfect Foundation Sunscreen SPF 15 Tan 35; No7 Stay Perfect Foundation Sunscreen SPF 15 Truffle 50; No7 Stay Perfect Foundation Sunscreen SPF 15 Vanilla 25; No7 Stay Perfect Foundation Sunscreen SPF 15 Walnut 45; NoTS Crystal CC Cushion No 21; NoTS Crystal CC Cushion No 23; NoTS UV PROTECTION SUN; Noevir 5 Treatment Liquid Foundation Lx; Noevir N5; Noevir Raysela; Normal Oily SPF 15 Merle Norman; Nu Colour Bioadaptive BB Plus Foundation - Almond; Nu Colour Bioadaptive BB Plus Foundation - Chestnut; Nu Colour Bioadaptive BB Plus Foundation - Espresso; Nu Colour Bioadaptive BB Plus Foundation - Ivory; Nu Colour Bioadaptive BB Plus Foundation - Java; Nu Colour Bioadaptive BB Plus Foundation - Light Golden; Nu Colour Bioadaptive BB Plus Foundation - Linen; Nu Colour Bioadaptive BB Plus Foundation - Natural Beige; Nu Colour Bioadaptive BB Plus Foundation - Ochre; Nu Colour Bioadaptive BB Plus Foundation - Shell Beige; Nu Colour Bioadaptive BB plus Foundation - Beige; Nu Colour Bioadaptive BB plus Foundation - Medium Beige; Nu Colour Bioadaptive BB plus Foundation - Medium Ochre; Nu Colour Bioadaptive BB plus Foundation - Mocha; Nu Colour Bioadaptive BB plus Foundation - Tan; Nu Colour Bioadaptive BB plus Foundation - cream; Nu Skin Moisture Restore Day Protective SPF 15 Normal to Dry Skin; Nu Skin Nu Colour MoisturShade Finish SPF 15 Amber Mist; Nu Skin Nu Colour MoisturShade Finish SPF 15 Caramel; Nu Skin Nu Colour MoisturShade Finish SPF 15 Delicate Ivory; Nu Skin Nu Colour MoisturShade Finish SPF 15 Golden Beige; Nu Skin Nu Colour MoisturShade Finish SPF 15 Honey Beige; Nu Skin Nu Colour MoisturShade Finish SPF 15 Natural Beige; Nu Skin Nu Colour MoisturShade Finish SPF 15 Saffron Whisper; Nu Skin Nu Colour MoisturShade Finish SPF 15 Sandalwood; Nu Skin Nu Colour MoisturShade Finish SPF 15 Shell Rose; Nu Skin Nu Colour MoisturShade Finish SPF 15 Sunset Beige; Nu Skin Sunright 35 Broad Spectrum SPF 35; Nu Skin ageLOC Me Day S2 Broad Spectrum SPF 20; Nu Skin ageLOC Me Day T2 Broad Spectrum SPF 20; NuCaraClinPAK; NuCaraRXPAK; Nuance Salma Hayek Renewed Radiance Brightening BB Cream Broad Spectrum SPF 30 Sunscreen; Nude and Improved Bare Face Makeup SPF 15; Nuria Defend Matte Finish Daily Moisturizer Mineral Sunscreen Broad Spectrum SPF 30; Nutmeg Future Resist Foundation Broad Spectrum SPF 20 Foundation Delilah; Nutrisource Mains SPF 15; Nutritionist Regenerating Moisturizer Spf15; Nutritious Vita Mineral Loose Powder Makeup SPF 15; Nutritious Vita-mineral Makeup SPF 10; Nwc 21 Natural Premium Bb Cream; Nwc21 Natural Sun Protector Spf35; Nwc21 Natural Sun Protector Spf50; Nwc21 Natural White Cream; O HUI Perfect Sun Black EX Broad Spectrum SPF 50; O HUI Sun Science Ideal Cover Sunscreen Broad Spectrum; O Hui Veil Fit Dual Foundation 10; O Hui Veil Fit Dual Foundation 20; O Hui Veil Fit Dual Foundation 30; O Hui White Extreme Blemish Balm; OCLIPSE Sunscreen plus Primer Broad-Spectrum SPF 30 UVA/UVB Protection; OH Age recovery Tri Shield pact 10; OHUI Powdery Metal Cushion Compact 01 Light Beige; OHUI Powdery Metal Cushion Compact 02 Natural Beige; OHUI SUN SCIENCE Perfect Sunblock Blue EX plus; OHUI SUN SCIENCE Perfect Sunblock black EX plus; OHUI Sun Science Powder Sun Block Natural Skin; OHUI Sun Science Sun Block EX plus Beige; OHUI Sun Science intensive sunblock cake EX; OHUI Ultimate Cover CC Cushion Compact 01 Light Beige; OHUI Ultimate Cover CC Cushion Compact 02 Natural Beige; OHUI White Extreme Illuminating Pact No.10; OI LIN DEEP MOISTURE SUNSCREEN SPF 25 Tinted; ONCODERM Rx Mineral Sunscreen SPF-30; ONE C BB CC Cream; OS SILKY SUN CUSHION Broad Spectrum SPF 50; OSEQUE HIGH END TOUCH WATERFIT COVER CUSHION Natural Beige; OSEQUE HIGH END TOUCH WATERFIT Cover Cushion (Pink Beige); OUTER REEF Reef Safe (WR) Broad Spectrum SPF 30; Obagi; Obagi Medical Physical Defense Broad Spectrum Mineral Sunscreen SPF 40 by SUZANOBAGIMD; Obagi Medical Physical Defense Broad Spectrum Mineral Sunscreen SPF 50 by SUZANOBAGIMD; Obagi Skintrinsiq Clarifiying Protocol; Obagi Skintrinsiq Firming Protocol; Obagi Sun Shield MINERAL Broad Spectrum SPF 50 Sunscreen; Obagi Sun Shield TINT Cool Sunscreen Broad Spectrum SPF 50; Obagi Sun Shield TINT Warm Sunscreen Broad Spectrum SPF 50; Ocean Friendly Sunscreen SPF30 Broad Spectrum; Ocean Safe Sunscreen; Oceano Sea Mineral; Oclipse Smart Tone Broad-spectrum Sunscreen SPF 50; Octinoxate,octisalate,avobenzone,octocrylene,ensulizole,titanium Dioxide; Octisalate,octocrylene,octinoxate,zinc Oxide,titanium Dioxide,ensulizole; Odacite Sun Guardian Oceanic Glacial Water Day Creme SPF30; Ohui Age Recovery Tri Shield Pact 10; Ohui Sun Science Perfect Sunblock Red EX; Ohui Sunscience Luminous Whitening Sunblock; Ohui The First Cell Revolution Age Control Sun Block; Oi Lin Deep Moisture Sunscreen SPF 25; Oi Lin Deep Moisture Sunscreen SPF 25 Tinted; Oi Lin Deep Moisture Sunscreen SPF 30; Oi Lin Natural Emulsion SPF 30; Oi Lin Natural Sunscreen SPF 30; Oi Lin Sunmilk Sunscreen SPF 25; Oi Lin Sunmilk Sunscreen SPF 30; Oi-lin Natural Emulsion SPF 30 - Lot 22%; Oil Free Matte Defense SPF 20; Oil Of Olay Colormoist Lipstick; Oil Of Olay Complete Radiance Compact Foundation; Oil Of Olay Complete Radiance Foundation; Oil Of Olay Total Effects Lipcolor; Oil-free Sunscreen; Oligo 25 Fluide SPF 15; Ology; Omar Sharif Everyday Sun Protection Broad Spectrum SPF 50; Omar Sharif Silk Brilliance Foundation Broad Spectrum SPF 20; Omar Sharif Silk Essence Foundation Broad Spectrum SPF 24; Omar Sharif Silk Sun BB Broad Spectrum SPF 45; Ombrelle - Cold Weather Defence SPF 25; Ombrelle - Lotion Enfants SPF 30; Ombrelle - Lotion Extreme SPF 30; Ombrelle Baume Pour Les Levres SPF 30; Ombrelle Cream SPF 60; Ombrelle Creme Ecran SPF 60; Ombrelle Creme Spf45 Kids; Ombrelle Kids SPF 60; Ombrelle L'oreal Suncare Research Kids (SPF 30); Ombrelle L'oreal Suncare Research Kids (SPF 45); Ombrelle Lotion Extreme SPF 30; Ombrelle Sport Lotion SPF 30; Ombrelle Sport Lotion SPF 45; Ombrelle Sport Spray Spf15; Ombrelle Stick SPF 60; Ombrelle-lotion SPF 45; Onalt Pure Mild Suncream; Once Finishing; One and Done; Oneday Brightener Premium; Ontree Life; Optical Illusion Foundation SPF 15; Optimum Bronzage Ensoleillement Fort; Orchid Secret Base 01 Secret Green; Orchid Secret Base 02 Secret Pearl Pink; Orchid Secret Foundation 21 Spf28 Pa Plus Plus; Orchid Secret Foundation 23 Spf28 Pa Plus Plus; Orchid Secret Pact Spf35 Pa Plus Plus Plus 21 Orchid Ivory; Orchid Secret Pact Spf35 Pa Plus Plus Plus 23 Orchid Beige; Orchid Secret Spf30 Pa Plus Plus; Orchidee Imperiale - Exceptional Complete Care - The Uv Beauty Protector With Sunscreen Broad Spectrum SPF 50 Universal Shade; Orchidee Imperiale Brightening Exceptional Complete Care The Brightening and Perfecting Uv Protector With Sunscreen Broad Spectrum SPF 50 Pollution; Orday Mild Suncream; Organic Wear 100% Natural Origin Tinted Moisturizer SPF 15; Organic Wear BB All in One Beauty Balm Cream; Organic Wear CC Cream SPF 20; Organic Wear Work It Marathonista Tinted Moisturizer; Origins Brighter By Nature SPF 30 Skin Tone Correcting Makeup; Origins Ginzing Energy-boosting Tinted Moisturizer Broad Spectrum SPF 40; Origins Ginzing SPF 40 Energy-boosting Tinted Moisturizer; Origins Plantscription SPF 15 Anti-aging Foundation; Othree 50 Whitening; Outdoor Adventure Set; Outdoor Explorer Set; Outer Reef Mineral Sunscreen SPF 30; Oznaturals Sunscreen; PAUL and JOE PROTECTIVE FLUID FOUNDATION S 100; PAUL and JOE PROTECTIVE FLUID FOUNDATION S 101; PAUL and JOE PROTECTIVE FLUID FOUNDATION S 102; PAUL and JOE PROTECTIVE FLUID FOUNDATION S 103; PAUL and JOE PROTECTIVE FLUID FOUNDATION S 104; PAUL and JOE PROTECTIVE FLUID FOUNDATION S 105; PAUL and JOE PROTECTIVE FLUID FOUNDATION S 201; PAUL and JOE PROTECTIVE FOUNDATION PRIMER UV 02; PAUL and JOE SILKY SMOOTH FOUNDATION UV 101; PAULAS CHOICE HYDRALIGHT SHINE-FREE DAILY MINERAL COMPLEX Broad Spectrum SPF 30; PEACH SAKE PORE BB SPF20 PA Plus Number1 Light Beige; PEACH SAKE PORE BB SPF20 PA Plus Number2 Natural Beige; PEACH SAKE SUN SPF32 PA Plus Plus; PEAK Sunscreen 100 Natural SPF 30; PERFECT 6 in one BB Light; PERFECT 6 in one BB Natural; PERFECTION LUMIERE Long-Wear Flawless Fluid Makeup SPF 10; PETER ISLAND NATURAL MINERAL SUNCREEN BROAD SPECTRUM SPF 60 Water Resistant; PHARMACA Natural Mineral Sunscreen SPF-30; PHARMACA Natural Mineral Sunscreen SPF-50; POZCOS PO CC Cream; PREP (plus) PRIME BEAUTY BALM SPF 35; PRISME PRIMER Color Correcting Primer SPF 20 PA Shade 02 ROSE; PRISME PRIMER Color Correcting Primer SPF 20 PA Shade 03 JAUNE; PRISME PRIMER Color Correcting Primer SPF 20 PA Shade 04 ABRICOT; PRISME PRIMER Color Correcting Primer SPF 20 PA Shade 05 VERT; PROJECT REEF Mineral Sunscreen SPF-50; PROVENCE CALENDULA DAILY SUN BLOCK SPF50 Plus; PRPL dual cover cushion No 21 cre am ivory Conceal Balm; PRPL dual cover cushion No 21 cre am ivory Cushion; PRPL dual cover cushion No 23 vanilla beige Conceal Balm; PRPL dual cover cushion No 23 vanilla beige Cushion; PURE SHEER Angelique; PURE SHEER Aurore; PURE SHEER Bianca; PURE SHEER Greta; PURE SHEER Lara; PURE SHEER Paloma; PURITO Comfy Water Sun Block; PanOxyl Oil Control Moisturizer; Panama Jack SPF 30; Papa Recipe Bombee Moist Sun Essence; Papa Recipe Honey Moist Sun Essence; Parismist Day Cream; Parure De Lumiere Light-diffusing Foundation With Sunscreen Moisture Infusion Broad Spectrum SPF 25 01 Beige Pale; Parure De Lumiere Light-diffusing Foundation With Sunscreen Moisture Infusion Broad Spectrum SPF 25 02 Beige Clair; Parure De Lumiere Light-diffusing Foundation With Sunscreen Moisture Infusion Broad Spectrum SPF 25 03 Beige Naturel; Parure De Lumiere Light-diffusing Foundation With Sunscreen Moisture Infusion Broad Spectrum SPF 25 04 Beige Moyen; Parure De Lumiere Light-diffusing Foundation With Sunscreen Moisture Infusion Broad Spectrum SPF 25 05 Beige Fonce; Parure De Lumiere Light-diffusing Foundation With Sunscreen Moisture Infusion Broad Spectrum SPF 25 12 Rose Clair; Parure De Lumiere Light-diffusing Foundation With Sunscreen Moisture Infusion Broad Spectrum SPF 25 13 Rose Naturel; Parure De Lumiere Light-diffusing Foundation With Sunscreen Moisture Infusion Broad Spectrum SPF 25 23 Dore Naturel; Parure De Lumiere Light-diffusing Foundation With Sunscreen Moisture Infusion Broad Spectrum SPF 25 31 Ambre Pale; Paul and Joe; Paul and Joe Compact Foundation 100; Paul and Joe Compact Foundation 101; Paul and Joe Compact Foundation 102; Paul and Joe Compact Foundation 103; Paul and Joe Compact Foundation 201; Paul and Joe Protective Foundation Primer Uv; Paul and Joe Silky Smooth Foundation Uv 100; Paul and Joe Silky Smooth Foundation Uv 102; Paul and Joe Silky Smooth Foundation Uv 103; Paul and Joe Silky Smooth Foundation Uv 201; Paul and Joe Silky Smooth Foundation Uv 301; Paul and Joe Silky Smooth Foundation Uv 302; Paulas Choice Calm Redness Relief SPF 30 Mineral (Normal to Oily); Paulas Choice Calm Redness Relief SPF 30 Mineral Moisturizer (Normal to Dry); Paulas Choice DEFENSE Essential Glow Moisturizer SPF 30; Paulas Choice Hydralight Shine Free Daily Mineral Complex; Paulas Choice Skin Recovery Daily Moisturizing SPF 30; Peaufinee Baby and Kids Sun; Pebble Future Resist Foundation Broad Spectrum SPF 20 Foundation Delilah; Pebble Time Frame Future Resist Foundation Broad Spectrum SPF 20 Delilah Cosmetics; Pedatosol Oattbe Syn Bio Beta Glucans Derma Blemish Balm; Pelagic Broad Spectrum SPF 50 Sunscreen; Pep-star Daily Uv Protector Broad Spectrum SPF 50; Perbelle CC SPF43 UVA UVB Broad Spectrum; Perfect Bb for Men; Perfect Body - Youth Boost Moisturizer Broad Spectrum SPF 30 Sunscreen; Perfect Sebum control real foundation 21 Nude beige; Perfect Sebum control real foundation 23 Natural beige; Perfect Shield Rejuve Sunscreen 100; Perfect Skin Pact Caramel; Perfect Skin Pact Sweet Almond; Perfect Sun Kids Sunscreen protector against solar rays for children, face and body SPF 50 FM; Perfecting Makeup Broad Spectrum SPF 25; Perfecting Mineral Beauty Balm with SPF 9; Perfection Lumiere Long-wear Flawless Fluid Sunscreen Makeup Broad Spectrum SPF 15, 10 Beige; Perfection Lumiere Long-wear Flawless Fluid Sunscreen Makeup Broad Spectrum SPF 15, 104 Ambre; Perfection Lumiere Long-wear Flawless Fluid Sunscreen Makeup Broad Spectrum SPF 15, 114 Ambre; Perfection Lumiere Long-wear Flawless Fluid Sunscreen Makeup Broad Spectrum SPF 15, 12 Beige Rose; Perfection Lumiere Long-wear Flawless Fluid Sunscreen Makeup Broad Spectrum SPF 15, 134 Ambre; Perfection Lumiere Long-wear Flawless Fluid Sunscreen Makeup Broad Spectrum SPF 15, 154 Ambre; Perfection Lumiere Long-wear Flawless Fluid Sunscreen Makeup Broad Spectrum SPF 15, 20 Beige; Perfection Lumiere Long-wear Flawless Fluid Sunscreen Makeup Broad Spectrum SPF 15, 22 Beige Rose; Perfection Lumiere Long-wear Flawless Fluid Sunscreen Makeup Broad Spectrum SPF 15, 24 Beige Ambre; Perfection Lumiere Long-wear Flawless Fluid Sunscreen Makeup Broad Spectrum SPF 15, 30 Beige; Perfection Lumiere Long-wear Flawless Fluid Sunscreen Makeup Broad Spectrum SPF 15, 32 Beige Rose; Perfection Lumiere Long-wear Flawless Fluid Sunscreen Makeup Broad Spectrum SPF 15, 34 Beige Ambre; Perfection Lumiere Long-wear Flawless Fluid Sunscreen Makeup Broad Spectrum SPF 15, 40 Beige; Perfection Lumiere Long-wear Flawless Fluid Sunscreen Makeup Broad Spectrum SPF 15, 42 Beige Rose; Perfection Lumiere Long-wear Flawless Fluid Sunscreen Makeup Broad Spectrum SPF 15, 44 Beige Ambre; Perfection Lumiere Long-wear Flawless Fluid Sunscreen Makeup Broad Spectrum SPF 15, 52 Beige Rose; Perfection Lumiere Long-wear Flawless Fluid Sunscreen Makeup Broad Spectrum SPF 15, 54 Beige Ambre; Perfection Lumiere Long-wear Flawless Fluid Sunscreen Makeup Broad Spectrum SPF 15, 60 Beige; Perfection Lumiere Long-wear Flawless Fluid Sunscreen Makeup Broad Spectrum SPF 15, 64 Beige Ambre; Perfection Lumiere Long-wear Flawless Fluid Sunscreen Makeup Broad Spectrum SPF 15, 70 Beige; Perfection Lumiere Long-wear Flawless Fluid Sunscreen Makeup Broad Spectrum SPF 15, 80 Beige; Perfection Lumiere Long-wear Flawless Fluid Sunscreen Makeup Broad Spectrum SPF 15, 94 Ambre; Perfection Lumiere Velvet Smooth-effect Makeup Broad Spectrum SPF 15 Sunscreen, 10 Beige; Perfection Lumiere Velvet Smooth-effect Makeup Broad Spectrum SPF 15 Sunscreen, 12 Beige Rose; Perfection Lumiere Velvet Smooth-effect Makeup Broad Spectrum SPF 15 Sunscreen, 20 Beige; Perfection Lumiere Velvet Smooth-effect Makeup Broad Spectrum SPF 15 Sunscreen, 22 Beige Rose; Perfection Lumiere Velvet Smooth-effect Makeup Broad Spectrum SPF 15 Sunscreen, 30 Beige; Perfection Lumiere Velvet Smooth-effect Makeup Broad Spectrum SPF 15 Sunscreen, 40 Beige; Perfection Lumiere Velvet Smooth-effect Makeup Broad Spectrum SPF 15 Sunscreen, 50 Beige; Perfection Lumiere Velvet Smooth-effect Makeup Broad Spectrum SPF 15 Sunscreen, 60 Beige; Perfection Lumiere Velvet Smooth-effect Makeup Broad Spectrum SPF 15 Sunscreen, 70 Beige; Perfectionist Pro Multi-defense Uv Fluid Broad Sprectrum SPF 45; Perfectionist Youth-Infusing Makeup Broad Spectrum SPF 25; Perfectly Posh THROWING SHADE SPF30 Broad Spectrum Facial Sunscreen; Perricone No foundation foundation; Perricone Tinted Moisturizer SPF 15; Personal Blend Foundation SPF 15; Personal Match Ideal Shade Makeup Maquillage Teinte Idéale SPF/fps 15; Personalized Day Moisturizer with SPF; Peter Island Natural Mineralspf 60 SPF 60; Peter Thomas Roth CC Light to Medium; Ph.Hubby 1g Sun Cream Intensive Protection; Ph.Hubby Beige BB Tone Up Sun; Ph.Hubby Pink BB Tone Up Sun; Pharmaskincare Solar-C Moisturizer SPF 15; Pharmaskincare Solar-C Moisturizer SPF 30; Phaze 13 Light N' Block Pigment Cream; Phaze 7 Protecting Hydrator SPF 15; Phaze 8 Body Hydrator SPF 15; Photo Plasma; Photo-age Sunscreen SPF 30; Photoblock; Photogenic Concealer SPF 15; Photoshot 3d Bb Balm Spf30 Pa Plus Plus Plus 21 Light Beige; Photoshot 3d Bb Balm Spf30 Pa Plus Plus Plus 23 Natural Beige; Physical Facial Block SPF 30; Phytogenic Infinite EX Powder Foundation SPF 20; Phytogenic Infinite Foundation Spf20 Nb21; Phytogenic Infinite Foundation Spf20 Nb23; Phytogenic Infinite Foundation Spf20 Nb25; Phytogenic Infinite Makeup Base Spf15 Green; Phytogenic Infinite Makeup Base Spf15 Purple; Phytogenic Infinite Powder Foundation Spf20 Nb21; Phytogenic Infinite Powder Foundation Spf20 Nb23; Phytogenic Infinite Powder Foundation Spf20 Nb25; Phytogenic Infinite Powder Foundation Spf20 Rb23; Phytogenic Infinte 37100457; Phytogenic Infinte EX 37100452; Phytogenic Infinte EX 37100453; Phytogenic Infinte EX Foundation 37100455; Pink Stick; Pixi Sun Mist SPF 30; Pl-1849; Placenta EX Essence Bb Spf50plus Pa Plus Plus Plus; Placenta EX Sun Balm Spf50plus Pa Plus Plus Plus; Plagentra Baby Suncity; Plagentra Soothing Revolution Bb; Planet Protecting Sunscreen 30; Plantscription SPF 15 Anti-aging Foundation; Play Mineral Broad Spectrum SPF 50; Play Mineral Sunscreen SPF-50; Plenitude-fluide Hydratant Prot Quot Spf12; Plessentiel Natural Glow Foundation 16h Wear With Sunscreen Broad Spectrum SPF 20 00n Porcelaine/porcelain; Plustem UV Perfect Block Essence; Pollen UV Perfect Daily Sunscreen; Pollution Shield SPF 46 Broad Spectrum Sunscreen; Porcelain Always Color Stay-On Makeup SPF 10; Porcelain Always color stay-on Makeup Broad Spectrum SPF 15 Jafra; Porcelain Expert Finish Makeup Broad Spectrum SPF 25 Merle Norman; Porcelain Smart Finish Makeup Broad Spectrum SPF 18 Merle Norman; Positive Light Tinted Moisturizer Broad Spectrum SPF 20 Sunscreen 10N; Positive Light Tinted Moisturizer Broad Spectrum SPF 20 Sunscreen 12C; Positive Light Tinted Moisturizer Broad Spectrum SPF 20 Sunscreen 14W; Positive Light Tinted Moisturizer Broad Spectrum SPF 20 Sunscreen 16C; Positive Light Tinted Moisturizer Broad Spectrum SPF 20 Sunscreen 20W; Positive Light Tinted Moisturizer Broad Spectrum SPF 20 Sunscreen 22W; Positive Light Tinted Moisturizer Broad Spectrum SPF 20 Sunscreen 24N; Positive Light Tinted Moisturizer Broad Spectrum SPF 20 Sunscreen 26W; Positive Light Tinted Moisturizer Broad Spectrum SPF 20 Sunscreen 28C; Positive Light Tinted Moisturizer Broad Spectrum SPF 20 Sunscreen 30N; Positive Light Tinted Moisturizer Broad Spectrum SPF 20 Sunscreen 32N; Positive Light Tinted Moisturizer Broad Spectrum SPF 20 Sunscreen 34W; Positive Light Tinted Moisturizer Broad Spectrum SPF 20 Sunscreen 36C; Positive Light Tinted Moisturizer Broad Spectrum SPF 20 Sunscreen 38N; Positive Light Tinted Moisturizer Broad Spectrum SPF 20 Sunscreen 40N; Positive Light Tinted Moisturizer Broad Spectrum SPF 20 Sunscreen 42N; Positive Light Tinted Moisturizer Broad Spectrum SPF 20 Sunscreen 44N; Positive Light Tinted Moisturizer Broad Spectrum SPF 20 Sunscreen 46C; Positive Light Tinted Moisturizer Broad Spectrum SPF 20 Sunscreen 48W; Positive Light Tinted Moisturizer Broad Spectrum SPF 20 Sunscreen 50N; Positive Light Tinted Moisturizer Broad Spectrum SPF 20 Sunscreen 52W; Positive Light Tinted Moisturizer Broad Spectrum SPF 20 Sunscreen 54N; Positive Light Tinted Moisturizer Broad Spectrum SPF 20 Sunscreen 56N; Positive Light Tinted Moisturizer Broad Spectrum SPF 20 Sunscreen 58N; Post Rays UV Protect Sun Block; Post rays Blemish Balm; Powder; Powerproof Sunscreen 100; Premium BB Cream UVA/UVB SPF36 0 Pale; Premium BB Cream UVA/UVB SPF36 1 Natural; Premium BB Cream UVA/UVB SPF36 2 Beige; Premium BB Cream UVA/UVB SPF36 3 Medium; Premium Gold Mineral BB; Prep (and) Prime Bb Beauty Balm SPF 35 Broad Spectrum Suncreen; Prep (and) Prime Cc Color Correct Spf30 Broad Spectrum; Prep Plus Prime Bb Beauty Balm Compact Broad Spectrum SPF 30; Prep and Prime Fortified Skin Enhancer Broad Spectrum SPF 35; Prep and Prime Fortified Skin Enhancer SPF 35; Presage Moisturizer SPF 15; Prescriptives All Skins Mineral Makeup 16 Hr. SPF 10; Prescriptives Anywear Multi-finish Compact Foundation SPF 12; Prescriptives Anywear Multipurpose Makeup Stick SPF 15; Prescriptives Flawless Skin Total Protection Makeup SPF 15; Prescriptives Flawless Skin Total Protection Pressed Powder Uva/uvb SPF 15; Prescriptives Site Unseen Brightening Concealer Broad Spectrum SPF 15; Prescriptives Site Unseen Brightening Concealer SPF 15; Prescriptives Super Line Corrector Lifting Day Cream SPF 15; Prescriptives Virtually Fresh Skin Refining Makeup Uva/uvb SPF 15; Preserve and Protect Broad Spectrum SPF 30 Sunscreen; President's Choice Sunblock Lotion SPF 30; President's Choice Sunblock Lotion for Babies SPF 45; President's Choice Sunblock Lotion for Children SPF 30; Pressed Powder Sunscreen SPF 15; Presun Sensitive 28 Cream; Presun Sunblock SPF 21 Cream - 12%; Pretty In Bloom SPF 20; Prevage Anti-aging Foundation; Prevage City Smart; Prevention Daily Tinted Moisturizer SPF 30; Prevention daily tinted mositurizer oil-free Tinted 30; Prime Primer Bb Nude; Prime Primer Bb Sheer; Prime Primer Hydrating Balm; Primer Plus Radiance Broad Spectrum SPF 35; Primer Results Tinted Moisturizer SPF15 Caramel; Primer Results Tinted Moisturizer SPF15 Golden Beige; Primer Results Tinted Moisturizer SPF15 Ivory; Primer Results Tinted Moisturizer SPF15 Sand; Principal Secret Reclaim Oil Control Hydrator SPF8; Principal Secret Reclaim Oil Control hydrator SPF-8; Prismatic Protectant SPF50; Pro Laser Body; Pro Triple Protection Factor Broad Spectrum SPF 50 Sunscreen; Pro-derm 50; Pro-derm Cream; Pro-derm Fps 60 SPF; Pro-longwear SPF 10 Foundation; Procyte Z-Silc Plus SPF 30; Proeven Bb Cream; Professional Solutions - Tinted Mineral Defense Broad Spectrum SPF 30 Sunscreen; Professional Solutions - Youth Boost Daily Moisturizer Broad Spectrum SPF 30 Sunscreen; Professional Solutions Suncreen SPF 30; Project Reef SPF-50; Project Sunscreen Baby Mineral Sunscreen Roll-ON SPF-50; Project Sunscreen Festival Mineral Sunscreen Roll-ON SPF-40; Project Sunscreen Kids Mineral Sunscreen Roll-ON SPF-50; Project Sunscreen Spfu Mineral Sunscreen Roll-ON SPF-50; Project Sunscreen for All Mineral Sunscreen Roll-ON SPF-40; Project Sunscreen for All Mineral Sunscreen Roll-ON SPF-50; Propolis 20 BB Cream; Propolis 27 Cover Cushion; Protect and Serve Tinted Sun Shield SPF 30; Protectif deep tint; Protectif fair tint; Protectif untinted; Protecting Natural Shine Tone Up Sun Cushion; Protecting Natural Shine Tone Up Sun Cushion Refill; Protecting Natural Shine Tone Up Sun Cushion Refull; Protection Cream; Protection U.V. Broad Spectrum SPF 25; Protective Base Sun for Dry Skin; Protective Base Sun for Oily Skin; Protective Day (UVA/UVB) SPF 25; Protector Gripper Broad Spectrum SPF 30; Protector R Plus; Protectyl Soleil CRème Solaire Hydratante Fps 30; Protectyl Soleil Moisturizing Sunscreen SPF 30; Protectyl soleil moisturizing sunscreen lotion high protection spf 30; Provence Air Skin Fit Bb Crea M 01 Light Beige; Provence Air Skin Fit Bb Crea M 02 Natural Beige; Provence Air Skin Fit Blur Pact; Provence Air Skin Fit Foundation Ginger Beige C02; Provence Air Skin Fit Foundation Pink Beige C01; Provence Air Skin Fit Foundation W01 Light Beige; Provence Air Skin Fit Foundation W02 Natural Beige; Provence Air Skin Fit Make Up Base 01 Pink; Provence Air Skin Fit Make Up Base 02 Green; Provence Air Skin Fit Oi L Control Bb Cushion 01 Light Beige; Provence Air Skin Fit Oi L Control Bb Cushion 02 Natural Beige; Provence Air Skin Fit One Day Lasting Foundation N13 Porcelain; Provence Air Skin Fit One Day Lasting Foundation N35 Natural Brown; Provence Air Skin Fit One Day Lasting Foundation N45 Tan Brown; Provence Air Skin Fit One Day Lasting Foundation P21 Rosy Vanilla; Provence Air Skin Fit One Day Lasting Foundation Y21 Pure Vanilla; Provence Air Skin Fit One Day Lasting Foundation Y23 Warm Beige; Provence Air Skin Fit One Day Lasting Foundation Y25 Golden Beige; Provence Air Skin Fit Pact 01 Light Beige; Provence Calendula Daily Sun Block; Provence Calendula Ice Puff Sun; Provence Calendula Mild Sun Block; Provence Calendula Mild Sun Block Spf35; Provence Calendula No Sebum Sun Block; Provence Calendula No Sebum Sun Block Spf45; Provence Calendula Perfect Sun Block; Provence Calendula Sun; Provence Calendula Waterproof Sun Block; Provence Foundation Spf31 Pa Plus Plus No 21; Provence Foundation Spf31 Pa Plus Plus No 23; Provence Intense Cover 3 In 1 Strobing Foundation 01 Light Beige A; Provence Intense Cover 3 In 1 Strobing Foundation 01 Light Beige B; Provence Intense Cover 3 In 1 Strobing Foundation 01 Light Beige C; Provence Intense Cover 3 In 1 Strobing Foundation 02 Natural Beige A; Provence Intense Cover 3 In 1 Strobing Foundation 02 Natural Beige B; Provence Intense Cover 3 In 1 Strobing Foundation 02 Natural Beige C; Provence Intensive Ampoule Bb 01 Light Beige; Provence Intensive Ampoule Bb 02 Natural Beige; Provence Intensive Ampoule Bb Cushion 01 Light Beige; Provence Intensive Ampoule Bb Cushion 02 Natural Beige; Provence Intensive Ampoule Foundation 01 Light Beige; Provence Intensive Ampoule Foundation 02 Natural Beige; Provence Intensive Ampoule Foundation P21 Rosy Vanilla; Provence Intensive Ampoule Foundation Y21 Pure Vanilla; Provence Intensive Ampoule Foundation Y23 Warm Beige; Provence Intensive Ampoule Make Up Base 01 Mint; Provence Intensive Ampoule Make Up Base 02 Lavender; Provence Makeup Base Spf30 Pa Plus Plus 01 Mint; Provence Makeup Base Spf30 Pa Plus Plus 02 Lavender; Provence Melting Foundation Bright Beige Spf32 Pa Plus Plus; Provence Melting Foundation Natural Beige Spf32 Pa Plus Plus; Provence Two Way Pact Spf50plus Pa Plus Plus Plus 01 Light Beige; Provence Two Way Pact Spf50plus Pa Plus Plus Plus 02 Natural Beige; Provence Water Drop Pact 21 Light Beige; Provence Water Drop Pact 23 Natural Beige; Public Goods; Pur Air Perfection CC Cushion Foundation Broad Spectrum SPF 50 Plus (DARK); Pur Air Perfection CC Cushion Foundation Broad Spectrum SPF 50 Plus (LIGHT); Pur Air Perfection CC Cushion Foundation Broad Spectrum SPF 50 Plus (MEDIUM); Pur Air Perfection CC Cushion Foundation Broad Spectrum SPF 50 Plus (TAN); Pure Bb 21 Light Beige; Pure Bb 23 Light Beige; Pure Bb Cre Am 21 Light Beige; Pure Bb Cre Am 23 Natural Beige; Pure Bright SPF 25; Pure Color 01 Bright Pink; Pure Color 02 Natural Beige; Pure Color Cre Am 01 Bright Pink; Pure Color Cre Am 02 Natural Beige; Pure Finish Mineral Powder Foundation SPF 20; Pure Finish Mineral Powder Foundation SPF 20 Pure Finish 1; Pure Finish Mineral Powder Foundation SPF 20 Pure Finish 10; Pure Finish Mineral Powder Foundation SPF 20 Pure Finish 11; Pure Finish Mineral Powder Foundation SPF 20 Pure Finish 2; Pure Finish Mineral Powder Foundation SPF 20 Pure Finish 3; Pure Finish Mineral Powder Foundation SPF 20 Pure Finish 4; Pure Finish Mineral Powder Foundation SPF 20 Pure Finish 5; Pure Finish Mineral Powder Foundation SPF 20 Pure Finish 6; Pure Finish Mineral Powder Foundation SPF 20 Pure Finish 7; Pure Finish Mineral Powder Foundation SPF 20 Pure Finish 8; Pure Finish Mineral Powder Foundation SPF 20 Pure Finish 9; Pure Finish Mineral Tinted Moisturizer SPF 15; Pure Finish Mineral Tinted Moisturizer SPF 15 Deep; Pure Finish Mineral Tinted Moisturizer SPF 15 Fair; Pure Finish Mineral Tinted Moisturizer SPF 15 Light; Pure Finish Mineral Tinted Moisturizer SPF 15 Medium; Pure Foundation 21 Pink Beige; Pure Foundation 23 Natural Beige; Pure Foundation 23 Natural Beige Spf40; Pure Foundation 25 Sand Beige; Pure Foundation 35 Tan Brown; Pure Haven Body SPF 30; Pure Haven Essentials; Pure Shine Cover Bb 01 Pink Beige; Pure Shine Cover Bb 02 Natural Beige; Pure Shine Vanilla Makeup Base 01 Vanila Green; Pure Shine Vanilla Makeup Base 01 Vanilla Green; Pure Shine Vanilla Makeup Base 02 Vanila Pink; Pure Shine Vanilla Makeup Base 02 Vanilla Pink; Pure Transformation Sheer Clear; Pure Transformation Sheer Dark; Pure Transformation Sheer Fair; Pure Transformation Sheer Light; Pure Transformation Sheer Medium; Pure Transformation Sheer Tan; PureLight SPF 30; Purely Physical SPF 47; Purlisse Ageless Glow Bb SPF 40; Purlisse BB Tinted Moist; Purlisse BB Tinted Moist Light; Purlisse BB Tinted Moist SPF30 Deep; Purlisse BB Tinted Moist SPF30 Fair; Purlisse BB Tinted Moist SPF30 Light; Purlisse BB Tinted Moist SPF30 Medium; Purlisse BB Tinted Moist SPF30 Medium Deep; Purlisse Perfect Glow Bb SPF 30; Purlisse Radiant Glow Illuminating Bb SPF 30; Purlisse Youth Glow Cc SPF 50; Purminerals 4 in 1 Makeup SPF 15 Blush Medium; Purminerals 4 in 1 Makeup SPF 15 Dark; Purminerals 4 in 1 Makeup SPF 15 Deep; Purminerals 4 in 1 Makeup SPF 15 Deeper; Purminerals 4 in 1 Makeup SPF 15 Deepest; Purminerals 4 in 1 Makeup SPF 15 Golden Medium; Purminerals 4 in 1 Makeup SPF 15 Light; Purminerals 4 in 1 Makeup SPF 15 Medium Dark; Purminerals 4 in 1 Makeup SPF 15 Porcelain; Purminerals 4 in 1 Makeup SPF 15 Tan; Purminerals 4-in-1 Mineral Tinted Moisturizer Broad Spectrum SPF 20; Purminerals 4-in-1 Mineral Tinted Moisturizer Broad Spectrum SPF 20 (DARK); Purminerals 4-in-1 Mineral Tinted Moisturizer Broad Spectrum SPF 20 (LIGHT); Purminerals 4-in-1 Mineral Tinted Moisturizer Broad Spectrum SPF 20 (MEDIUM); Purminerals 4-in-1 Mineral Tinted Moisturizer Broad Spectrum SPF 20 (TAN); Purple Stick; PurpleU GLOW BEAUTIFULLY BRIGHT; PurpleU GLOW TONE IT LIKE SNOW; Purpose Dual Treatment Moisture Lotion With SPF 15; Puttisu; Putto Ato Secret Uv Face SPF 6; Putto Secret Sun Screen; Putto Secret UV Face; QYO QYO Tangerine Bright Moist Jelly Sunblock SPF 40; Qt Sun Block; Quantum Bacteriostatic purification catalyst; Queens Rose Perfection Cover Cushion Pact; Queens Rose Rose Skin Perfection Bb; Quench and Protect Hydrating SPF 30; Quick Stick SPF-14; Quick and Clean Oil Free Sun Spf35 Pa; Quiet Rose Always Color Stay-On Makeup SPF 10; Quiet Rose Always color stay-on Makeup Broad Spectrum SPF 15 Jafra; Quince Whitening Sun SPF 34 Pa Plus Plus; Quintessence Q-Sunshade Leave In Hair Conditioner and Scalp Protectant SPF 30; Quo Cc Cream; Quo Luminous Finish Foundation; RAF Five - Kick Off Hydrating BROAD SPECTRUM SPF30 SUNSCREEN; RE9 Advanced Prepwork; RE9 Advanced Prepwork Soft Focus Veil Broad Spectrum SPF30 Sunscreen; RECHARGE Protect Blur; RECHARGE Regimen for Balancing, Boosting and Defending Healthy-Looking skin; RED GINSENG RADIANCE CUSHION BB No.21; RED GINSENG RADIANCE CUSHION BB No.23; REDNESS solutions DAILY PROTECTIVE BASE BROAD SPECTRUM SPF 15; REDNESS solutions MAKEUP BROAD SPECTRUM SPF 15 WITH PROBIOTIC TECHNOLOGY; REN Satin Perfection BB Sunscreen Broad Spectrum SPF 15 Light-Medium; REPAIRWEAR UPLIFTING FIRMING BROAD SPECTUM SPF 15 - NORMAL COMBO TO COMBINATION oily; REPASKIN FACIAL SUNSCREEN BROAD-SPECTRUM SPF 50 50ml; REVLON AGE DEFYING 3X Foundation; RITUALS Miracle Light Weight Foundation broad spectrum SPF 15 sunscreen Warm Almond; RITUALS Miracle Light Weight Foundation broad spectrum SPF 15 sunscreen. - Beige Pink; RITUALS Miracle Light Weight Foundation broad spectrum SPF 15 sunscreen. - Bronzing Beige; RITUALS Miracle Light Weight Foundation broad spectrum SPF 15 sunscreen. - Golden Beige; RITUALS Miracle Light Weight Foundation broad spectrum SPF 15 sunscreen. - Golden Honey; RITUALS Miracle Light Weight Foundation broad spectrum SPF 15 sunscreen. - Ivory; RITUALS Miracle Light Weight Foundation broad spectrum SPF 15 sunscreen. - Ivory Beige; RITUALS Miracle Light Weight Foundation broad spectrum SPF 15 sunscreen. - Mahogany; RITUALS Miracle Light Weight Foundation broad spectrum SPF 15 sunscreen. - Pink Beige; RITUALS Miracle Light Weight Foundation broad spectrum SPF 15 sunscreen. - Warm Beige; RITUALS broad spectrum SPF 15 sunscreen matt finish foundation SHADE 11; RITUALS broad spectrum SPF 15 sunscreen matt finish foundation SHADE 12; RITUALS broad spectrum SPF 15 sunscreen matt finish foundation SHADE 13; RITUALS broad spectrum SPF 15 sunscreen matt finish foundation SHADE 14; RITUALS precious mineral foundation broad spectrum SPF 15 sunscreen SHADE 11; RITUALS precious mineral foundation broad spectrum SPF 15 sunscreen SHADE 12; RITUALS precious mineral foundation broad spectrum SPF 15 sunscreen SHADE 13; RITUALS precious mineral foundation broad spectrum SPF 15 sunscreen SHADE 14; RITUALS precious mineral foundation broad spectrum SPF 15 sunscreen SHADE 15; RITUALS precious mineral foundation broad spectrum SPF 15 sunscreen SHADE 16; RODAN FIELDS SOOTHE 4 Mineral Sunscreen BROAD SPECTRUM SPF 30; RODAN and FIELDS ENHANCEMENTS BRONZE; RODAN and FIELDS ENHANCEMENTS LIGHT; RODAN and FIELDS ENHANCEMENTS MEDIUM; RODAN and FIELDS UNBLEMISH; Rachel K Mineral Cc Blemish Balm; Rachel K Mineral Cc Pressed; Radiance; Radiance Superbe Day Cream Neutral Bronze; Radiance Superbe Day Cream Neutral Caramel; Radiance Superbe Day Cream Neutral Light; Radiance Superbe Day Cream Neutral Medium; Radiance Superbe Day Cream Neutral Tan; Radiance Superbe Day Cream Nude; Radiance Superbe Day Cream Translucent; RadianceSHIELD Golden Tint; RadianceSHIELD Untinted; Radiant Defense; Radiant Defense Perfecting Broad Spectrum SPF 30; Radiant Defense Perfecting Liquid Broad Spectrum SPF 30 - Almond; Radiant Defense Perfecting Liquid Broad Spectrum SPF 30 - Beige; Radiant Defense Perfecting Liquid Broad Spectrum SPF 30 - Caramel; Radiant Defense Perfecting Liquid Broad Spectrum SPF 30 - Cream; Radiant Defense Perfecting Liquid Broad Spectrum SPF 30 - Espresso; Radiant Defense Perfecting Liquid Broad Spectrum SPF 30 - Golden; Radiant Defense Perfecting Liquid Broad Spectrum SPF 30 - Honey; Radiant Defense Perfecting Liquid Broad Spectrum SPF 30 - Sand; Radiant Defense Perfecting Liquid Broad Spectrum SPF 30 - Shell; Radiant Defense Perfecting Liquid Broad Spectrum SPF 30 - Truffle; Radical Skincare Skin Perfecting Screen SPF 30; Rain Or Shine; Rainforest of the Sea Water Foundation Broad Spectrum SPF 15 Sunscreen 12B fair beige; Rainforest of the Sea Water Foundation Broad Spectrum SPF 15 Sunscreen 12N fair neutral; Rainforest of the Sea Water Foundation Broad Spectrum SPF 15 Sunscreen 14S fair-light sand; Rainforest of the Sea Water Foundation Broad Spectrum SPF 15 Sunscreen 15N fair-light neutral; Rainforest of the Sea Water Foundation Broad Spectrum SPF 15 Sunscreen 22G light golden; Rainforest of the Sea Water Foundation Broad Spectrum SPF 15 Sunscreen 22H light honey; Rainforest of the Sea Water Foundation Broad Spectrum SPF 15 Sunscreen 22N light neutral; Rainforest of the Sea Water Foundation Broad Spectrum SPF 15 Sunscreen 22S light sand; Rainforest of the Sea Water Foundation Broad Spectrum SPF 15 Sunscreen 27B light-medium beige; Rainforest of the Sea Water Foundation Broad Spectrum SPF 15 Sunscreen 27H light-medium honey; Rainforest of the Sea Water Foundation Broad Spectrum SPF 15 Sunscreen 27S light-medium sand; Rainforest of the Sea Water Foundation Broad Spectrum SPF 15 Sunscreen 29G light-medium golden; Rainforest of the Sea Water Foundation Broad Spectrum SPF 15 Sunscreen 29N light-medium neutral; Rainforest of the Sea Water Foundation Broad Spectrum SPF 15 Sunscreen 32G medium golden; Rainforest of the Sea Water Foundation Broad Spectrum SPF 15 Sunscreen 32H medium honey; Rainforest of the Sea Water Foundation Broad Spectrum SPF 15 Sunscreen 32N medium neutral; Rainforest of the Sea Water Foundation Broad Spectrum SPF 15 Sunscreen 32S medium sand; Rainforest of the Sea Water Foundation Broad Spectrum SPF 15 Sunscreen 37S medium-tan sand; Rainforest of the Sea Water Foundation Broad Spectrum SPF 15 Sunscreen 39G medium-tan golden; Rainforest of the Sea Water Foundation Broad Spectrum SPF 15 Sunscreen 42N tan neutral; Rainforest of the Sea Water Foundation Broad Spectrum SPF 15 Sunscreen 42S tan sand; Rainforest of the Sea Water Foundation Broad Spectrum SPF 15 Sunscreen 46S tan-deep sand; Rainforest of the Sea Water Foundation Broad Spectrum SPF 15 Sunscreen 48G tan-deep golden; Rainforest of the Sea Water Foundation Broad Spectrum SPF 15 Sunscreen 51H deep honey; Rainforest of the Sea Water Foundation Broad Spectrum SPF 15 Sunscreen 51S deep sand; Rainforest of the Sea Water Foundation Broad Spectrum SPF 15 Sunscreen 53G deep golden; Rainforest of the Sea Water Foundation Broad Spectrum SPF 15 Sunscreen 57N rich neutral; Rainforest of the Sea Water Foundation Broad Spectrum SPF 15 Sunscreen 57S rich sand; Rainforest of the Sea Water Foundation Broad Spectrum SPF 15 Sunscreen 61H mahogany; Rainforest of the Sea Water Foundation Broad Spectrum SPF 15 Sunscreen 8S porcelain; Rainforest of the Sea Water Foundation Broad Spectrum SPF 15 Sunscreen deep; Rainforest of the Sea Water Foundation Broad Spectrum SPF 15 Sunscreen deep honey; Rainforest of the Sea Water Foundation Broad Spectrum SPF 15 Sunscreen deep sand; Rainforest of the Sea Water Foundation Broad Spectrum SPF 15 Sunscreen fair; Rainforest of the Sea Water Foundation Broad Spectrum SPF 15 Sunscreen fair beige; Rainforest of the Sea Water Foundation Broad Spectrum SPF 15 Sunscreen fair neutral; Rainforest of the Sea Water Foundation Broad Spectrum SPF 15 Sunscreen fair-light neutral; Rainforest of the Sea Water Foundation Broad Spectrum SPF 15 Sunscreen fair-light sand; Rainforest of the Sea Water Foundation Broad Spectrum SPF 15 Sunscreen light; Rainforest of the Sea Water Foundation Broad Spectrum SPF 15 Sunscreen light honey; Rainforest of the Sea Water Foundation Broad Spectrum SPF 15 Sunscreen light neutral; Rainforest of the Sea Water Foundation Broad Spectrum SPF 15 Sunscreen light sand; Rainforest of the Sea Water Foundation Broad Spectrum SPF 15 Sunscreen light-medium; Rainforest of the Sea Water Foundation Broad Spectrum SPF 15 Sunscreen light-medium beige; Rainforest of the Sea Water Foundation Broad Spectrum SPF 15 Sunscreen light-medium honey; Rainforest of the Sea Water Foundation Broad Spectrum SPF 15 Sunscreen light-medium neutral; Rainforest of the Sea Water Foundation Broad Spectrum SPF 15 Sunscreen light-medium sand; Rainforest of the Sea Water Foundation Broad Spectrum SPF 15 Sunscreen mahogany; Rainforest of the Sea Water Foundation Broad Spectrum SPF 15 Sunscreen medium; Rainforest of the Sea Water Foundation Broad Spectrum SPF 15 Sunscreen medium honey; Rainforest of the Sea Water Foundation Broad Spectrum SPF 15 Sunscreen medium neutral; Rainforest of the Sea Water Foundation Broad Spectrum SPF 15 Sunscreen medium sand; Rainforest of the Sea Water Foundation Broad Spectrum SPF 15 Sunscreen medium-tan sand; Rainforest of the Sea Water Foundation Broad Spectrum SPF 15 Sunscreen porcelain; Rainforest of the Sea Water Foundation Broad Spectrum SPF 15 Sunscreen rich sand; Rainforest of the Sea Water Foundation Broad Spectrum SPF 15 Sunscreen tan; Rainforest of the Sea Water Foundation Broad Spectrum SPF 15 Sunscreen tan sand; Rainforest of the Sea water foundation Broad Spectrum SPF 15 Sunscreen 12B fair beige; Rainforest of the Sea water foundation Broad Spectrum SPF 15 Sunscreen 12N fair neutral; Rainforest of the Sea water foundation Broad Spectrum SPF 15 Sunscreen 14S fair-light sand; Rainforest of the Sea water foundation Broad Spectrum SPF 15 Sunscreen 15N fair-light neutral; Rainforest of the Sea water foundation Broad Spectrum SPF 15 Sunscreen 22G light golden; Rainforest of the Sea water foundation Broad Spectrum SPF 15 Sunscreen 22H light honey; Rainforest of the Sea water foundation Broad Spectrum SPF 15 Sunscreen 22N light neutral; Rainforest of the Sea water foundation Broad Spectrum SPF 15 Sunscreen 22S light sand; Rainforest of the Sea water foundation Broad Spectrum SPF 15 Sunscreen 27B light-medium beige; Rainforest of the Sea water foundation Broad Spectrum SPF 15 Sunscreen 27H light-medium honey; Rainforest of the Sea water foundation Broad Spectrum SPF 15 Sunscreen 27S light-medium sand; Rainforest of the Sea water foundation Broad Spectrum SPF 15 Sunscreen 29G light-medium golden; Rainforest of the Sea water foundation Broad Spectrum SPF 15 Sunscreen 29N light-medium neutral; Rainforest of the Sea water foundation Broad Spectrum SPF 15 Sunscreen 32G medium golden; Rainforest of the Sea water foundation Broad Spectrum SPF 15 Sunscreen 32H medium honey; Rainforest of the Sea water foundation Broad Spectrum SPF 15 Sunscreen 32N medium neutral; Rainforest of the Sea water foundation Broad Spectrum SPF 15 Sunscreen 32S medium sand; Rainforest of the Sea water foundation Broad Spectrum SPF 15 Sunscreen 37S medium-tan sand; Rainforest of the Sea water foundation Broad Spectrum SPF 15 Sunscreen 39G medium-tan golden; Rainforest of the Sea water foundation Broad Spectrum SPF 15 Sunscreen 42N tan neutral; Rainforest of the Sea water foundation Broad Spectrum SPF 15 Sunscreen 42S tan sand; Rainforest of the Sea water foundation Broad Spectrum SPF 15 Sunscreen 46S tan-deep sand; Rainforest of the Sea water foundation Broad Spectrum SPF 15 Sunscreen 48G tan-deep golden; Rainforest of the Sea water foundation Broad Spectrum SPF 15 Sunscreen 51H deep honey; Rainforest of the Sea water foundation Broad Spectrum SPF 15 Sunscreen 51S deep sand; Rainforest of the Sea water foundation Broad Spectrum SPF 15 Sunscreen 53G deep golden; Rainforest of the Sea water foundation Broad Spectrum SPF 15 Sunscreen 57N rich neutral; Rainforest of the Sea water foundation Broad Spectrum SPF 15 Sunscreen 57S rich sand; Rainforest of the Sea water foundation Broad Spectrum SPF 15 Sunscreen 61H mahogany; Rainforest of the Sea water foundation Broad Spectrum SPF 15 Sunscreen 8S porcelain; Rayito de Sol SPF 35; Re-Flect; Re-nutriv Intensive Liftng Make Up Spf15; Re-nutriv Ultimate Lifting Makeup Spf15; Re-nutriv Ultra Radiance Makeup Broad Spectrum SPF 20; Re20 Advanced Wrinkle Control BB Cream Broad Spectrum SPF 50; Re20 Light Wrinkle BB Cream Broad Spectrum SPF 50; Re20 Light Wrinkle BB Cream SPF 50; Re20 Ultra Sun Defense Special Set Broad Spectrum SPF 44; Re20 Ultra Sun Defense Special Set SPF 44; ReNK Velvet in pact No.21; Ready Foundation Dark; Ready Foundation Deepest Deep; Ready Foundation Fair; Ready Foundation Fairly Light; Ready Foundation Fairly Medium; Ready Foundation Golden Dark; Ready Foundation Golden Deep; Ready Foundation Golden Fair; Ready Foundation Golden Medium; Ready Foundation Golden Tan; Ready Foundation Light; Ready Foundation Medium; Ready Foundation Medium Beige; Ready Foundation Medium Dark; Ready Foundation Medium Deep; Ready Foundation Medium Tan; Ready Foundation Tan; Ready Foundation Warm Dark; Ready Foundation Warm Deep; Ready Foundation Warm Tan; Real Deal Foundation DEEP; Real Deal Foundation FAIR; Real Deal Foundation LIGHT; Real Deal Foundation MEDIUM; Real Deal Foundation MEDIUM DEEP; Reclaim Radiance Concealer SPF15 Light to Medium; Red Ginseng Fermented Sun Spf50plus Pa Plus Plus Plus; Red Ginseng Pure Red Classic Light; Red Orange Jelly Bb Spf20 Pa Plus Plus No.1; Red Orange Jelly Bb Spf20 Pa Plus Plus No.2; Red Orange Sun Pact SPF 50 Plus Pa Plus Plus Plus; Red Orange Sun SPF 45 Pa Plus Plus Plus; Red Stick; Redness Relief Primer SPF20; Redness Solutions Makeup SPF 15 With Probiotic Technology; Rejuve Sunscreen 100; Rejuvenating BB; Rejuvenating Foundation SPF 15; Rejuvenating Foundation SPF-15; Rejuvity moisturizing day cream BROAD SPECTRUM SPF 15 SUNSCREEN; Reman Homme Sun Protection; Rendrevie Sun Screen SPF35 PA; Renergie Intense Lift SPF 15; Renergie Lift Makeup; Renergie Lift Makeup SPF 20; Renergie Lift Makeup Sunscreen Broad Spectrum SPF 20; Renergie Microlift SPF 15; Renewal Daily Moisturizer Sensitive Skin; Renewal Firming Day Broad Spectrum SPF 30; Renewed Hope In A Jar Full Cover Tint SPF 20; Renewed Hope In A Jar Skin Tint SPF 20; Renove ROYAL PERFECT BB SPF 30; Renove Royal Perfect Color Control Cushion SPF 37 / PA; Renutriv Ultimate Radiance Makeup SPF 15; Reorom Multi Defense Daily Sun Block; Rep Nutrinature Recovery Advanced Bb; Rep Nutrinature Recovery Advanced Bb Spf50; Repairwear Anti -aging Makeup SPF 15; Repairwear Laser Focus All Smooth Makeup Broad Spectrum SPF 15; Repairwear Laser Focus Line Smoothing Broad Spectrum SPF 15 -very Dry To Dry Combination; Repairwear Laserfocus All Smooth Makeup SPF 15; Repairwear Lift SPF 15 Firming Day Combo To Oily Skin; Repairwear Lift SPF 15 Firming Day Dry Combo Skin; Repairwear Uplifting Firming Broad Spectrum SPF 15 Dry; Repaskids Facial / Body Broad Spectrum SPF30; Repaskids Facial / Body Broad Spectrum SPF50; Repaskin Body Broad Spectrum SPF 50; Repaskin Body Broad-spectrum SPF 50; Repaskin Facial, Broad Spectrum SPF 50; Resilience Lift Extreme Creme Compact Makeup SPF 15; Resilience Lift Extreme Radiant Lifting Makeup SPF 15; Resilience Lift Face & Throat Lotion SPF 15; Resilience Lift Face and Throat Creme SPF 15; Resilience Lift Firming Sculpting Face and Neck Spf15 Normal Combo Skin; Resilience Lift Firming/sculpting Face and Neck Broad Spectrum SPF 15 Nml/combo; Resilience SPF 15 Elastin Refirming Creme; Resist Ultimate Hand Cream Broad Spectrum SPF 30; Revelation Age-resisting Hand Creme SPF 15; Reverse It Kit; Revitalizing Alpha Hydroxy Make-UP - Cream; Revitalizing Talc Free Loose Powder; Revitalizing Translucent Pressed Powder; Revlon Age Defying All Day Lifting Foundation SPF 20 (9 Shades); Revlon Age Defying Cc Cream; Revlon Age Defying DNA Advantage CC Cream; Revlon Age Defying Firming + Lifting Makeup; Revlon Age Defying Firming Lifting Makeup SPF 15; Revlon Age Defying Foundation; Revlon Age Defying Light Make Up SPF 30; Revlon Age Defying Make Up for Dry Skin; Revlon Age Defying Makeup & Concealer Compact SPF 20; Revlon Age Defying Makeup SPF 10; Revlon Age Defying with DNA Advantage SPF 20; Revlon Colorstay Active Light Makeup SPF 25; Revlon Colorstay Compact Makeup; Revlon Colorstay Concealer Spf6; Revlon Colorstay Life-proof Matte Foundation Stick; Revlon Colorstay Light Cover Foundation; Revlon Colorstay Liquid Makeup; Revlon Colorstay Liquid Makeup for Normal to Dry Skin; Revlon Colorstay Liquid Makeup for Oily to Combination Skin; Revlon Colorstay Lite Makeup; Revlon Colorstay Preo and Protect Primer; Revlon Colorstay Stay Natural Makeup SPF 12 (ethnic Shades-toast, Caramel, Cappucino); Revlon Colorstay Stay Natural Makeup SPF 15 ( Shades- Ivory, Buff, Nude, Sand Beige, Natural Beige, Medium Beige, Honey Beige, True Beige, Natural Tan); Revlon Moisturestay Makeup Stick; Revlon Nearly Naked Makeup; Revlon New Complexion Even Out Makeup; Revlon New Complexion Liquid Makeup; Revlon New Complexion One-Step Perfect Make-Up; Revlon New Complexion One-step Makeup; Revlon PhotoReady BB Cream Skin Perfector; Revlon Photoready Bb Cream; Revlon Photoready Concealer; Revlon Photoready Insta-fix Makeup; Revlon Photoready Powder; Revlon Shine Control Mattifying Powder SPF 10; Revlon Skinlights Diffusing Tint SPF 15; Revlon Skinlights Diffusing Tint SPF 15 (shade - Caramel); Revlon Skinlights Illusion Wand SPF 12 (luminous Touch, Light Touch, Medium Touch); Revlon Skinlights Instant Skin Brightener SPF 15; Revlon Youth FX; Rgo Daily Essence Sun; Rich Almond Perfecting Makeup Broad Spectrum SPF 25 Merle Norman; Riche CRème SPF Fps 20 Wrinkle Smoothing Day Lotion; Riche CRème SPF/fps 20 Fluide Bienfaisant Anti-rides Jour; Riche Creme Wrinkle Smoothing Day; Rimmel London Match Perfection Foundation; Rimmel London Match Perfection Foundation - Classic Beige (250); Rimmel London Match Perfection Foundation - Ivory (120); Rimmel London Match Perfection Foundation - Natural Beige (440); Rimmel London Match Perfection Foundation - Natural Caramel (520); Rimmel London Match Perfection Foundation - Natural Ivory (260); Rimmel London Match Perfection Foundation - Nude (340); Rimmel London Match Perfection Foundation - Sand (330); Rimmel London Match Perfection Foundation - Soft Beige (240); Rimmel London Match Perfection Foundation - Soft Honey (430); Rimmel London Match Perfection Foundation - Soft Ivory (220); Rimmel London Match Perfection Foundation - True Ivory (130); Rimmel London Match Perfection Foundation - True Nude (320); Rimmel London Match Perfection Foundation - Warm Caramel (530); Rimmel London Match Perfection Foundation - Warm Ivory (230); Rimmel London Match Perfection Foundation - Warm Sand (420); Rio-bronze SPF 30 Towelettes; Rite Aid RENEWAL baby sunscreen SPF 60; Riversol Lightweight Broad Spectrum Sunscreen Spf 30; RoC Multi Correxion 5 in 1 Perfecting Sunscreen Broad Spectrum SPF 25; Roc Minesol Protect Ultra High Protection Suncare Cream SPF 60; Roc Minesol SPF 30; Roc Minesol SPF 40; Roc Retin-OX Correxion 5-IN-1 Skin Perfector Bb Cream SPF 25; Roccos Old School Sunscreen SPF 30; Rocky Mountain Sunscreen; Rodan Fields UNBLEMISH Regimen for Acne, Blemishes and Breakouts; Roris Shiny Cc Spf37 Pa Plus Plus Plus; Rosa Graf Suntime Special; Rosa Mosqueta Sun Protection Butter SPF 12; Rosaclear Skin Balancing Sun Protection Broad Spectrum SPF 30 Suncreen; Rosaclear Skin Balancing Sun Protection SPF 30 Suncreen; Rosaliac Cc Creme; Rose Sil Vous Plait Spf30 Gentle Mineral Sunscreen; Rose Skin Care Anti-aging SPF 30; Rosillance Light/Medium SPF 30 Broad Spectrum; Rosilliance Golden Tint SPF 30 Broad Spectrum; Rosilliance Medium/Dark SPF 30 Broad Spectrum; Roven SuperBloom Glow Defense Cream; Rubelli Water Glow Sun; Rubelli Water Glow Sun for Golf; Ruby Cell 4u Sun; Ruby Cell 4u Total Bb; Ruby-Cell 4U Plus Sun; Ruby-Cell 4U TOTALSOLUTION PLUS BB; Rénergie Lift; Rénergie Lift Makeup; S4 Sunscreen Stick SPF30; SANTO REMEDIOS Piel Eterna Radiance Sunscreen Primer SPF-42; SDARA Skincare Mineral Sunscreen SPF-30; SEA set and protect mineral sunscreen Broad Spectrum SPF 30 translucent; SEA set and protect mineral sunscreen Broad Spectrum SPF 30 translucent deep; SENSAI TRIPLE TOUCH COMPACT TC01 Sample; SENSAI TRIPLE TOUCH COMPACT TC02 Sample; SEPHORA Bronze Perfect CC sunscreen broad spectrum SPF 20; SEPHORA Flawless Moisturizing SPF 15 Sunscreen; SEPHORA ROUGE BALM SUNSCREEN SPF20 B01-Delicate Pink; SEPHORA ROUGE BALM SUNSCREEN SPF20 B03-Enchanting Blush; SEPHORA ROUGE BALM SUNSCREEN SPF20 B04-Sweet Fuchsia; SEPHORA ROUGE BALM SUNSCREEN SPF20 B05-Gentle Coral; SEPHORA ROUGE BALM SUNSCREEN SPF20 B06-Soft Red; SEPHORA ROUGE BALM SUNSCREEN SPF20 B07-Bashful Beige; SEPHORA ROUGE BALM SUNSCREEN SPF20 B08-Subtle Peony; SEPHORA ROUGE BALM SUNSCREEN SPF20 B09-Mild Plum; SEPHORA Skin Perfect CC Sunscreen Broad Spectrum SPF 20 DARK; SEPHORA Skin Perfect CC Sunscreen Broad Spectrum SPF 20 DEEP; SEPHORA Skin Perfect CC Sunscreen Broad Spectrum SPF 20 FAIR; SEPHORA Skin Perfect CC Sunscreen Broad Spectrum SPF 20 LIGHT; SEPHORA Skin Perfect CC Sunscreen Broad Spectrum SPF 20 MEDIUM; SEPHORA Skin Perfect CC Sunscreen Broad Spectrum SPF 20 MEDIUM-TAN; SEPHORA Skin Perfect CC Sunscreen Broad Spectrum SPF 20 TAN; SETZ Sunscreen Mineral Powder SPF 30; SHEER DEFENSE Mineral Sunscreen Broad Spectrum SPF 30; SHISEIDO ADVANCED HYDRO-liquid COMPACT (REFILL) B20; SHISEIDO ADVANCED HYDRO-liquid COMPACT (REFILL) B40; SHISEIDO ADVANCED HYDRO-liquid COMPACT (REFILL) B60; SHISEIDO ADVANCED HYDRO-liquid COMPACT (REFILL) I00; SHISEIDO ADVANCED HYDRO-liquid COMPACT (REFILL) I20; SHISEIDO ADVANCED HYDRO-liquid COMPACT (REFILL) I40; SHISEIDO ADVANCED HYDRO-liquid COMPACT (REFILL) I60; SHISEIDO ADVANCED HYDRO-liquid COMPACT (REFILL) O00; SHISEIDO ADVANCED HYDRO-liquid COMPACT (REFILL) O20; SHISEIDO ADVANCED HYDRO-liquid COMPACT (REFILL) O40; SHISEIDO ADVANCED HYDRO-liquid COMPACT (REFILL) O60; SHISEIDO ADVANCED HYDRO-liquid COMPACT (REFILL) O80; SHISEIDO FUTURE Solution LX INFINITE TREATMENT PRIMER; SHISEIDO FUTURE solution LX TOTAL RADIANCE FOUNDATION B20; SHISEIDO FUTURE solution LX TOTAL RADIANCE FOUNDATION B40; SHISEIDO FUTURE solution LX TOTAL RADIANCE FOUNDATION B60; SHISEIDO FUTURE solution LX TOTAL RADIANCE FOUNDATION I00; SHISEIDO FUTURE solution LX TOTAL RADIANCE FOUNDATION I20; SHISEIDO FUTURE solution LX TOTAL RADIANCE FOUNDATION I40; SHISEIDO FUTURE solution LX TOTAL RADIANCE FOUNDATION I60; SHISEIDO FUTURE solution LX TOTAL RADIANCE FOUNDATION O00; SHISEIDO FUTURE solution LX TOTAL RADIANCE FOUNDATION O20; SHISEIDO FUTURE solution LX TOTAL RADIANCE FOUNDATION O40; SHISEIDO FUTURE solution LX TOTAL RADIANCE FOUNDATION O60; SHISEIDO PURENESS MATIFYING COMPACT oil-FREE (REFILL) 10; SHISEIDO PURENESS MATIFYING COMPACT oil-FREE (REFILL) 20; SHISEIDO PURENESS MATIFYING COMPACT oil-FREE (REFILL) 30; SHISEIDO PURENESS MATIFYING COMPACT oil-FREE (REFILL) 40; SHISEIDO PURENESS MATIFYING COMPACT oil-FREE (REFILL) 50; SHISEIDO PURENESS MATIFYING COMPACT oil-FREE (REFILL) 60; SHISEIDO SYNCHRO SKIN GLOW LUMINIZING FLUID FOUNDATION Golden 2; SHISEIDO SYNCHRO SKIN GLOW LUMINIZING FLUID FOUNDATION Golden 3; SHISEIDO SYNCHRO SKIN GLOW LUMINIZING FLUID FOUNDATION Golden 4; SHISEIDO SYNCHRO SKIN GLOW LUMINIZING FLUID FOUNDATION Golden 5; SHISEIDO SYNCHRO SKIN GLOW LUMINIZING FLUID FOUNDATION Neutral 1; SHISEIDO SYNCHRO SKIN GLOW LUMINIZING FLUID FOUNDATION Neutral 2; SHISEIDO SYNCHRO SKIN GLOW LUMINIZING FLUID FOUNDATION Neutral 3; SHISEIDO SYNCHRO SKIN GLOW LUMINIZING FLUID FOUNDATION Neutral 4; SHISEIDO SYNCHRO SKIN GLOW LUMINIZING FLUID FOUNDATION Neutral 5; SHISEIDO SYNCHRO SKIN GLOW LUMINIZING FLUID FOUNDATION Rose 2; SHISEIDO SYNCHRO SKIN GLOW LUMINIZING FLUID FOUNDATION Rose 3; SHISEIDO SYNCHRO SKIN GLOW LUMINIZING FLUID FOUNDATION Rose 4; SHISEIDO SYNCHRO SKIN GLOW LUMINIZING FLUID FOUNDATION Rose 5; SHISEIDO SYNCHRO SKIN LASTING FOUNDATION Golden 2; SHISEIDO SYNCHRO SKIN LASTING FOUNDATION Golden 3; SHISEIDO SYNCHRO SKIN LASTING FOUNDATION Golden 4; SHISEIDO SYNCHRO SKIN LASTING FOUNDATION Golden 5; SHISEIDO SYNCHRO SKIN LASTING FOUNDATION Neutral 1; SHISEIDO SYNCHRO SKIN LASTING FOUNDATION Neutral 2; SHISEIDO SYNCHRO SKIN LASTING FOUNDATION Neutral 3; SHISEIDO SYNCHRO SKIN LASTING FOUNDATION Neutral 4; SHISEIDO SYNCHRO SKIN LASTING FOUNDATION Rose 2; SHISEIDO SYNCHRO SKIN LASTING FOUNDATION Rose 3; SHISEIDO SYNCHRO SKIN LASTING FOUNDATION Rose 4; SHISEIDO SYNCHRO SKIN LASTING Liquid FOUNDATION Golden 5; SHISEIDO SYNCHRO SKIN LASTING Liquid FOUNDATION Neutral 5; SHISEIDO SYNCHRO SKIN LASTING Liquid FOUNDATION Rose 5; SHISEIDO SYNCHRO SKIN SELF-REFRESHING TINT 115 Fair Shirakaba; SHISEIDO SYNCHRO SKIN SELF-REFRESHING TINT 125 Fair Asterid; SHISEIDO SYNCHRO SKIN SELF-REFRESHING TINT 215 Light Buna; SHISEIDO SYNCHRO SKIN SELF-REFRESHING TINT 225 Light Magnolia; SHISEIDO SYNCHRO SKIN SELF-REFRESHING TINT 235 Light Hiba; SHISEIDO SYNCHRO SKIN SELF-REFRESHING TINT 315 Medium Matsu; SHISEIDO SYNCHRO SKIN SELF-REFRESHING TINT 325 Medium Keyaki; SHISEIDO SYNCHRO SKIN SELF-REFRESHING TINT 335 Medium Katsura; SHISEIDO SYNCHRO SKIN SELF-REFRESHING TINT 415 Tan Kwanzan; SHISEIDO SYNCHRO SKIN SELF-REFRESHING TINT 425 Tan Ume; SHISEIDO SYNCHRO SKIN SELF-REFRESHING TINT 515 Deep Tsubaki; SHISEIDO SYNCHRO SKIN SELF-REFRESHING TINT 525 Deep Kuromoji; SHISEIDO THE MAKEUP FOUNDATION Control Color; SHISEIDO THE MAKEUP PERFECT SMOOTHING COMPACT FOUNDATION (Refill) B20; SHISEIDO THE MAKEUP PERFECT SMOOTHING COMPACT FOUNDATION (Refill) B40; SHISEIDO THE MAKEUP PERFECT SMOOTHING COMPACT FOUNDATION (Refill) B60; SHISEIDO THE MAKEUP PERFECT SMOOTHING COMPACT FOUNDATION (Refill) I00; SHISEIDO THE MAKEUP PERFECT SMOOTHING COMPACT FOUNDATION (Refill) I20; SHISEIDO THE MAKEUP PERFECT SMOOTHING COMPACT FOUNDATION (Refill) I40; SHISEIDO THE MAKEUP PERFECT SMOOTHING COMPACT FOUNDATION (Refill) I60; SHISEIDO THE MAKEUP PERFECT SMOOTHING COMPACT FOUNDATION (Refill) O20; SHISEIDO THE MAKEUP PERFECT SMOOTHING COMPACT FOUNDATION (Refill) O40; SHISEIDO THE MAKEUP PERFECT SMOOTHING COMPACT FOUNDATION (Refill) O60; SHISEIDO THE MAKEUP PERFECT SMOOTHING COMPACT FOUNDATION (Refill) O80; SHISEIDO URBAN ENVIRONMENT oil-free MINERAL SUNSCREEN SPF 42; SHISEIDO WASO COLOR-SMART DAY MOISTURIZER oil-free; SIROT 24-Hour Hand Care Kit Transformative Glass Technology Age-Fighting Protection Day And Night; SIROT 24-Hour Hand Care Transformative Glass Technology Age-Fighting Protection Day and Night; SIROT Essential Day Transformative Glass Technology Anti-Aging Sunscreen Broad Spectrum SPF 20; SIROT The Complete Beauty Experience Transformative Glass Technology The First Steps to Younger Looking Skin; SImply Beige Always color stay-on Makeup Broad Spectrum SPF 15 Jafra; SKIN 79 Super Plus Beblesh Balm SPF25 PA (40g); SKIN 79 Super Plus Beblesh Balm Triple Functions SPF25 PA (40g); SKIN 79 The Prestige Beblesh Balm (40g); SKIN 79 The Prestige Beblesh Balm (5g); SKIN LONG-WEAR FLUID powder FOUNDATION BROAD SPECTRUM SPF 20; SKIN79 Super Plus Beblesh Balm Triple Functions SPF25 PA (5g); SKINFOOD ALOE SUN BB 02 Natural Skin; SLMD UV Bounce shade 001; SLMD UV Bounce, shade 002; SLMD UV Bounce, shade 003; SNP Animal Panda Luminous Cover Cushion; SNP Animal Tiger Long-lasting Cover Cushion; SOLNARA Everything Blood circulation Nattokinase(Control blood pressure and Improve blood circulation); SOOTHE Daily Mineral Sunscreen; SOOTHE Regimen for Sensitive Skin; SOOTHE Regimen for Sensitive Skin Travel Size; SOQU Watery Chamomile Sun Cream; SPF 15 Daily Moisturizer; SPF 15 Deep; SPF 15 Fair; SPF 15 Light; SPF 15 Medium; SPF 15 Sunscreen; SPF 15 Warm Tan; SPF 16 Age-defying Treatment Serum; SPF 18 Everyday/year-round Sunscreen; SPF 18 Super Sensitive Sunscreen; SPF 20 Classic Beige; SPF 20 Fawn; SPF 20 Loose Mineral Foundation; SPF 20 Natural; SPF 20 Porcelain; SPF 20 Tan; SPF 25; SPF 30; SPF 30 Broad Spectrum Suncreen Epione; SPF 30 Kids Cream Sunscreen; SPF 30 Lotion Très Douce; SPF 30 Oil Free Sunblock Cream; SPF 30 Performance Sunscreen Cream; SPF 30 Signature High Performance Sunscreen Clear Face; SPF 30 Sport Sunscreen Stick; SPF 30 Sunscreen; SPF 30 Sunscreen with Soybean; SPF 30 With Titanium Dioxide; SPF 30+ Sunscreen; SPF 40 Uva/uvb; SPF 45 Cream; SPF 50; SPF 50 Facial Sunscreen; SPF 50 Mineral Sunscreen Babyganics; SPF 50 Mineral Sunscreen bkids; SPF 50 Sheer Mineral Sensitive Sunscreen; SPF 50 Signature High Performance Sunscreen Tinted Face; SPF 50 Stay Put Sunscreen; SPF 50 plus; SPF 50 plus Sunscreen; SPF 50 plus Sunscreen All Mineral Active Ingredients; SPF 50+ Kids Lotion; SPF 55; SPF 60 Baby Sunscreen Continuous Spray Lotion; SPF 60 Baby Sunscreen Lotion; SPF 60 Baby Sunscreen Stick; SPF 60 Sunscreen Stick; SPF Fps 30 Sun Protection Lotion; SPF Fps 60 Sun Protection Lotion; SPF Multitaskers Mini Set; SPF Rx - Mineral Sunscreen SPF 30; SPF Rx - Mineral Sunscreen SPF 40; SPF Rx - Mineral Sunscreen SPF 50; SPF-40 facial moisturizer; SPF-45 Sunscreen; SPF50 Plus Mineral Sunscreen; SPF50 Sunscreen; SRB 3 Lighting White BB; SSLT2 Sun Screen; STEBLANC WATER CC PACT 21 Light Beige; STEBLANC WATER CC PACT 23 Natural Beige; SUN Solar Defense Oil-free Gel SPF 15; SUNSHINE SKIN TINT BROAD SPECTRUM SPF 30 Sunscreen; SUNZEE Broad Spectrum SPF 40 Sunscreen; SUPER BB All-in-1 Beauty Balm Powder SPF 30; SUPER ORIGIN COLLAGEN WATERPROOF BB 45g; SUPER SOLAIRE sun sensitive areas tinted SPF 30; Saemmul A Clean BB; Saemmul Aqua Glow Cushion 01 Light Beige; Saemmul Aqua Glow Cushion 02 Natural Beige; Saemmul Cover Foundation 01 Light Beige; Saemmul Cover Foundation 02 Natural Beige; Saemmul Moist BB 01 Light Beige; Saemmul Moist BB 02 Natural Beige; Saemmul O il Control Cushion 01 Light Beige; Saemmul O il Control Cushion 02 Natural Beige; Saemmul Perfect Pore BB 01 Light Beige; Saemmul Perfect Pore BB 02 Natural Beige; Saemmul Perfect Pore Cushion 01 Light Beige; Saemmul Perfect Pore Cushion 02 Natural Beige; Saemmul Perfume BB Pact 21 Pink Beige; Saemmul Perfume BB Pact 23 Cover Beige; Saemmul Pongdang Jell BB; Safe Harbor - Natural - Sensitive SPF50 Broad Spectrum; Safe Harbor - Natural Anti-Aging Sunscreen Broad Spectrum SPF30 Sunscreen Sensitive Skin; Safe Harbor - Natural Sunscreen - Baby and Kids SPF50 Broad Spectrum Sunscreen; Safe Harbor - Natural Sunscreen Face and Neck Cream Broad Spectrum SPF40 Sunscreen; Safe Harbor Natural Suncare Broad Spectrum; Safe Harbor Natural Suncare Natural Face and Neck Broad Spectrum; Safe Harbor Natural Suncare Natural Sheer Mineral; Safe Sea For Kids Sunscreen With Jellyfish Sting Protective SPF 30 Plus; Safe Sea SPF 40; Safe Sea SPF 50; Safe Sea SPF 50 KIDS; Safe Sea SPF 60; Safe Sea Sunscreen With Jellyfish Sting Protective SPF 30; Safe Sea Sunscreen With Jellyfish Sting Protective SPF 50; Samhealthyskin B.B. SUNSCREEN BROAD SPECTRUM SPF 40; Sand Expert Finish Makeup Broad Spectrum SPF 25 Merle Norman; Sandy Beige Always Color Stay-On Makeup SPF 10; Sandy Beige Always color stay-on Makeup Broad Spectrum SPF 15 Jafra; Sandy Beige Expert Finish Makeup Broad Spectrum SPF 25 Merle Norman; Sandy Beige Smart Finish Makeup SPF 18 Merle Norman; Satin Foundation SPF 15; Scout SPF-50; Screenses Color Sunscreen Broad Spectrum SPF50 Light; Sea Pure Hydrating Sea Pure Hydrating SPF20; Sea Starwort Soothing Sunscreen SPF 35; Seacret CC Cream Color Corrector; Seacret CC Cream Color Corrector Broad Spectrum SPF 15 - Dark; Seacret CC Cream Color Corrector Broad Spectrum SPF 15 - Medium; Seacret CC Cream Color Corrector Broad Spectrum SPF 15 Light; Seavenger ocean kiss sunscreen SPF 30; Seavenger ocean kiss sunscreen SPF 50; Sebamed Sun Cream SPF 28; Secret Key Natural Cc Cushion Spf50 Pa / 02 Natural Cc; Secret Key Natural Cc Cushion Spf50 Plus / 01 Light Cc; Secret Key Natural Cc Cushion Spf50 Plus / 02 Natural Cc; Secret Key Tattoo Cover Cushion Spf50 Plus (21 Light Beige); Secret Key Tattoo Cover Cushion Spf50 Plus (23 Natural Beige); Secret Key Thanakha Mild SunCream SPF47 PA PLUS PLUS PLUS; Securite Soleil Enfants; Sei Bella CC Brightening Creme Fair; Sei Bella CC Brightening Creme Light; Sei Bella CC Brightening Creme Medium; Sei Bella CC Brightening Creme Medium Tan; Sei Bella Flawless Liquid Foundation 100 N; Sei Bella Flawless Liquid Foundation 120 W; Sei Bella Flawless Liquid Foundation 180 C; Sei Bella Flawless Liquid Foundation 220 N; Sei Bella Flawless Liquid Foundation 240 N; Sei Bella Flawless Liquid Foundation 280 N; Sei Bella Flawless Liquid Foundation 325 C; Sei Bella Flawless Liquid Foundation 340 N; Sei Bella Flawless Liquid Foundation 380 N; Sei Bella Flawless Liquid Foundation 40 N; Sei Bella Flawless Liquid Foundation 400 N; Sei Bella Flawless Liquid Foundation 460 N; Sei Bella Flawless Liquid Foundation 480 C; Sei Bella Flawless Liquid Foundation 490 N; Sei Bella Flawless Liquid Foundation 540 W; Sei Bella Flawless Liquid Foundation 560 N; Sei Bella Flawless Liquid Foundation 60 C; Sei Bella Flawless Liquid Foundation 600 N; Sei Bella Flawless Liquid Foundation 620 C; Sei Bella Flawless Liquid Foundation 640 W; Sei Bella Flawless Liquid Foundation 80 N; Sei Bella Skin Refining Tinted Moisturizer Classic Beige; Sei Bella Skin Refining Tinted Moisturizer Fawn; Sei Bella Skin Refining Tinted Moisturizer Natural; Sei Bella Skin Refining Tinted Moisturizer Procelain; Sei Bella Skin Refining Tinted Moisturizer Tan; Sei Bella Tinted BB Moisturizing Creme Deep 550 N; Sei Bella Tinted BB Moisturizing Creme Light to Medium 160 N; Sei Bella Tinted BB Moisturizing Creme Light to Medium 200 N; Sei Bella Tinted BB Moisturizing Creme Medium 300 W; Sei Bella Tinted BB Moisturizing Creme Medium 320 C; Sei Bella Tinted BB Moisturizing Creme Medium 440 N; Sei Bella Tinted BB Moisturizing Creme Medium to Deep 450 W; Sei Bella Tinted BB Moisturizing Creme Medium to Deep 500 W; Sei Bella Tinted BB Moisturizing Creme Sheer to Light 140 N; Sei Bella Tinted BB Moisturizing Creme Sheer to Light 20 N; Self Defense Mineral Sunscreen Fluid SPF 34; Sensai Bg61; Sensai Bg62; Sensai Bg63; Sensai Cellular Performance Cf22; Sensai Cellular Performance Foundation Cf11; Sensai Cellular Performance Foundation Cf12; Sensai Cellular Performance Foundation Cf13; Sensai Cellular Performance Foundation Cf14; Sensai Cellular Performance Foundation Cf23; Sensai Cellular Performance Foundation Cf24; Sensai Cellular Performance Foundation Cf25; Sensai Cellular Performance Foundation Tf11; Sensai Cellular Performance Foundation Tf12; Sensai Cellular Performance Foundation Tf13; Sensai Cellular Performance Foundation Tf14; Sensai Cellular Performance Foundation Tf22; Sensai Cellular Performance Foundation Tf23; Sensai Cellular Performance Foundation Tf24; Sensai Cellular Performance Foundation Tf25; Sensai Cellular Performance Hydrachange Tinted 1 Nude Beige SPF 10; Sensai Cellular Performance Hydrachange Tinted 2 Nude Beige; Sensai Cellular Performance Hydrachange Tinted 3 Soft Almond; Sensai Concealer (brush Type) Cb01; Sensai Concealer (brush Type) Cb02; Sensai Concealer (brush Type) Cb03; Sensai Fluid Finish Ff102; Sensai Fluid Finish Ff103; Sensai Fluid Finish Ff202; Sensai Fluid Finish Ff203; Sensai Fluid Finish Ff204; Sensai Fluid Finish Ff204.5; Sensai Fluid Finish Ff205; Sensai Fluid Finish Ff206; Sensai Fluid Finish Lasting Velvet Fv102 SPF 15; Sensai Fluid Finish Lasting Velvet Fv103 SPF 15; Sensai Fluid Finish Lasting Velvet Fv202 SPF 15; Sensai Fluid Finish Lasting Velvet Fv203 SPF 15; Sensai Fluid Finish Lasting Velvet Fv204 SPF 15; Sensai Fluid Finish Lasting Velvet Fv204.5 SPF 15; Sensai Fluid Finish Lasting Velvet Fv205 SPF 15; Sensai Fluid Finish Lasting Velvet Fv206 SPF 15; Sensai Triple Touch Compact Tc01; Sensai Triple Touch Compact Tc02; Sensai Triple Touch Compact Tc03; Sensitif Eye US SPF 30 Broad Spectrum UVA UVB Sunscreen PA; Sente Daily Repair Complex SPF 30; Seoyoon Hanbang Ja An Cover BB Cream; Sephora Super Lisseur Rides Age Defy; Sephora Super Lisseur Rides SPF 15 Age Defy Moisture; Series 2000 Ultra Hydration Moisturizing Complex; Sesame Smart Finish Makeup SPF 18 Merle Norman; Sfl Sunscreen - Sol Defense SPF 30; Shaklee Youth Age Defense Mineral Moisturizer SPF 30; Shea Moisture SPF 35 Mineral Sunscreen; Sheer Coverage Foundation SPF 15; Sheer Defense SPF 15 Merle Norman; Sheer Defense Tinted Moisturizer Broad Spectrum SPF 15 L10; Sheer Defense Tinted Moisturizer Broad Spectrum SPF 15 L20; Sheer Defense Tinted Moisturizer Broad Spectrum SPF 15 M50; Sheer Defense Tinted Moisturizer Broad Spectrum SPF 15 M50 Merle Norman; Sheer Defense Tinted Moisturizer Broad Spectrum SPF 15 MD 70 Merle Norman; Sheer Defense Tinted Moisturizer Broad Spectrum SPF 15 Ml30; Sheer Defense Tinted Moisturizer Broad Spectrum SPF 15 Ml40; Sheer Defense Tinted Moisturizer SPF 15 L10 Merle Norman; Sheer Defense Tinted Moisturizer SPF 15 ML 30 Merle Norman; Sheer Defense Tinted Moisturizer SPF 15 ML 40 Merle Norman; Sheer Defense Tinted Moisturizer SPF15 L20 Merle Norman; Sheer Genius Liquid Foundation - Extra Dark Look; Sheer Genius Liquid Foundation - Extra Light Look; Sheer Genius Liquid Foundation - Light Look; Sheer Genius Liquid Foundation - Medium Dark Look; Sheer Genius Liquid Foundation - Medium Look; Sheer Genius Liquid Foundation Dark Look; Sheer Tint Make-UP With Botanical Moisturisation; Sheer Tint Moisturizer SPF 15 ASAP Skin Products; Sheet SPF 30 Mineral; Shell Future Resist Foundation Broad Spectrum SPF 20 Delilah; Shell Time Frame Future Resist Foundation Broad Spectrum SPF 20 Delilah Cosmetics; Shelter; Shelter Tinted; Shimmer Make Up-light Diffusing Make Up SPF 8; Shimmery Sun; Shine Control Mattifying Makeup SPF 15 (medium Beige, Natural Beige and Buff); Shine Control Mattifying Makeup SPF 15 (natural Tan and Toast); Shine Control Mattifying SPF 15 (caramel); Shisedo Elx Ess.eml Compact Sunsc.ref.oc20; Shiseido Advanced Hydro-liquid Compact (refill) B00; Shiseido Advanced Hydro-liquid Compact (refill) B100; Shiseido Advanced Hydro-liquid Compact (refill) B20; Shiseido Advanced Hydro-liquid Compact (refill) B40; Shiseido Advanced Hydro-liquid Compact (refill) B60; Shiseido Advanced Hydro-liquid Compact (refill) D10; Shiseido Advanced Hydro-liquid Compact (refill) D20; Shiseido Advanced Hydro-liquid Compact (refill) D30; Shiseido Advanced Hydro-liquid Compact (refill) I00; Shiseido Advanced Hydro-liquid Compact (refill) I100; Shiseido Advanced Hydro-liquid Compact (refill) I20; Shiseido Advanced Hydro-liquid Compact (refill) I40; Shiseido Advanced Hydro-liquid Compact (refill) I60; Shiseido Advanced Hydro-liquid Compact (refill) O00; Shiseido Advanced Hydro-liquid Compact (refill) O20; Shiseido Advanced Hydro-liquid Compact (refill) O40; Shiseido Advanced Hydro-liquid Compact (refill) O60; Shiseido Advanced Hydro-liquid Compact (refill) O80; Shiseido Advanced Hydro-liquid Compact (refill) Wb40; Shiseido Advanced Hydro-liquid Compact (refill) Wb60; Shiseido Elixir NaT.F. Comp S.s RF.pk 10; Shiseido Elixir Nat. Finish Comp.ssrf Am10; Shiseido Elixir Nat.fin. Compact Ss.rf. Oc30; Shiseido Elx Ess.eml Compact Sunsc.ref.am10; Shiseido Elx Ess.eml Compact Sunsc.ref.oc10; Shiseido Elx Ess.eml Compact Sunsc.ref.oc30; Shiseido Elx Ess.eml Compact Sunsc.ref.pk10; Shiseido Elx Nat.fin.compact Ss.rf.oc20; Shiseido Elx.pre-makeup Crm Sunscreen Green; Shiseido Makeup Refining Makeup Primer; Shiseido Natural Matte Foundat.(oil-free)i0; Shiseido Natural Matte Foundat.(oil-free)i2; Shiseido Natural Matte Foundat.(oil-free)p2; Shiseido Perfect Hydrating Bb Dark; Shiseido Perfect Hydrating Bb Light; Shiseido Perfect Hydrating Bb Medium; Shiseido Perfect Refining Foundation B00; Shiseido Perfect Refining Foundation B100; Shiseido Perfect Refining Foundation B20; Shiseido Perfect Refining Foundation B40; Shiseido Perfect Refining Foundation B60; Shiseido Perfect Refining Foundation D10; Shiseido Perfect Refining Foundation D20; Shiseido Perfect Refining Foundation D30; Shiseido Perfect Refining Foundation I00; Shiseido Perfect Refining Foundation I100; Shiseido Perfect Refining Foundation I20; Shiseido Perfect Refining Foundation I40; Shiseido Perfect Refining Foundation I60; Shiseido Perfect Refining Foundation O00; Shiseido Perfect Refining Foundation O20; Shiseido Perfect Refining Foundation O40; Shiseido Perfect Refining Foundation O60; Shiseido Perfect Refining Foundation O80; Shiseido Perfect Refining Foundation Wb40; Shiseido Perfect Refining Foundation Wb60; Shiseido Pre-makeup Cream; Shiseido Radiant Lifting Foundation B00; Shiseido Radiant Lifting Foundation B100; Shiseido Radiant Lifting Foundation B20; Shiseido Radiant Lifting Foundation B40; Shiseido Radiant Lifting Foundation B60; Shiseido Radiant Lifting Foundation Bf40; Shiseido Radiant Lifting Foundation D10; Shiseido Radiant Lifting Foundation D20; Shiseido Radiant Lifting Foundation D30; Shiseido Radiant Lifting Foundation I00; Shiseido Radiant Lifting Foundation I100; Shiseido Radiant Lifting Foundation I20; Shiseido Radiant Lifting Foundation I40; Shiseido Radiant Lifting Foundation I60; Shiseido Radiant Lifting Foundation O00; Shiseido Radiant Lifting Foundation O20; Shiseido Radiant Lifting Foundation O40; Shiseido Radiant Lifting Foundation O60; Shiseido Radiant Lifting Foundation O80; Shiseido Radiant Lifting Foundation Wb40; Shiseido Radiant Lifting Foundation Wb60; Shiseido Refining Makeup Primer; Shiseido Sheer Matifying Compact (refill) B00; Shiseido Sheer Matifying Compact (refill) B100; Shiseido Sheer Matifying Compact (refill) B20; Shiseido Sheer Matifying Compact (refill) B40; Shiseido Sheer Matifying Compact (refill) B60; Shiseido Sheer Matifying Compact (refill) D10; Shiseido Sheer Matifying Compact (refill) D20; Shiseido Sheer Matifying Compact (refill) D30; Shiseido Sheer Matifying Compact (refill) I00; Shiseido Sheer Matifying Compact (refill) I100; Shiseido Sheer Matifying Compact (refill) I20; Shiseido Sheer Matifying Compact (refill) I40; Shiseido Sheer Matifying Compact (refill) I60; Shiseido Sheer Matifying Compact (refill) O00; Shiseido Sheer Matifying Compact (refill) O20; Shiseido Sheer Matifying Compact (refill) O40; Shiseido Sheer Matifying Compact (refill) O60; Shiseido Sheer Matifying Compact (refill) O80; Shiseido Sheer Matifying Compact (refill) Wb40; Shiseido Sheer Matifying Compact (refill) Wb60; Shiseido Sheer and Perfect Compact (refill) B00; Shiseido Sheer and Perfect Compact (refill) B100; Shiseido Sheer and Perfect Compact (refill) B20; Shiseido Sheer and Perfect Compact (refill) B40; Shiseido Sheer and Perfect Compact (refill) B60; Shiseido Sheer and Perfect Compact (refill) D10; Shiseido Sheer and Perfect Compact (refill) D20; Shiseido Sheer and Perfect Compact (refill) D30; Shiseido Sheer and Perfect Compact (refill) I00; Shiseido Sheer and Perfect Compact (refill) I100; Shiseido Sheer and Perfect Compact (refill) I20; Shiseido Sheer and Perfect Compact (refill) I40; Shiseido Sheer and Perfect Compact (refill) I60; Shiseido Sheer and Perfect Compact (refill) O00; Shiseido Sheer and Perfect Compact (refill) O20; Shiseido Sheer and Perfect Compact (refill) O40; Shiseido Sheer and Perfect Compact (refill) O60; Shiseido Sheer and Perfect Compact (refill) O80; Shiseido Sheer and Perfect Foundation B00; Shiseido Sheer and Perfect Foundation B100; Shiseido Sheer and Perfect Foundation B20; Shiseido Sheer and Perfect Foundation B40; Shiseido Sheer and Perfect Foundation B60; Shiseido Sheer and Perfect Foundation D10; Shiseido Sheer and Perfect Foundation D20; Shiseido Sheer and Perfect Foundation D30; Shiseido Sheer and Perfect Foundation I00; Shiseido Sheer and Perfect Foundation I100; Shiseido Sheer and Perfect Foundation I20; Shiseido Sheer and Perfect Foundation I40; Shiseido Sheer and Perfect Foundation I60; Shiseido Sheer and Perfect Foundation O00; Shiseido Sheer and Perfect Foundation O20; Shiseido Sheer and Perfect Foundation O40; Shiseido Sheer and Perfect Foundation O60; Shiseido Sheer and Perfect Foundation O80; Shiseido Sports Bb Dark; Shiseido Sports Bb Light; Shiseido Sports Bb Medium; Shiseido Sports Hydrobb Compact Dark; Shiseido Sports Hydrobb Compact Light; Shiseido Sports Hydrobb Compact Medium; Shiseido Sports Hydrobb Compact Medium Dark; Shiseido Sports Hydrobb Compact Very Dark; Shiseido Sun Block Compact Sb 1 - Pwr; Shiseido Sun Block Compact Sb1; Shiseido Sun Block Face Cream; Shiseido Sun Block Stick; Shiseido Sun Protection; Shiseido Sun Protection Compact Foundation (refill) Sp10; Shiseido Sun Protection Compact Foundation (refill) Sp20; Shiseido Sun Protection Compact Foundation (refill) Sp30; Shiseido Sun Protection Compact Foundation (refill) Sp40; Shiseido Sun Protection Compact Foundation (refill) Sp50; Shiseido Sun Protection Compact Foundation (refill) Sp60; Shiseido Sun Protection Compact Foundation (refill) Sp70; Shiseido Sun Protection Compact Foundation SPF 35; Shiseido Sun Protection Foundation Beige; Shiseido Sun Protection Foundation Ochre; Shiseido Sun Protection Foundation Sp10; Shiseido Sun Protection Foundation Sp20; Shiseido Sun Protection Foundation Sp30; Shiseido Sun Protection Foundation Sp40; Shiseido Sun Protection Foundation Sp50; Shiseido Sun Protection Foundation Sp60; Shiseido Sun Protection Foundation Sp70; Shiseido Sun Protection Foundation Translucent; Shiseido Sun Protection Lip Treatment; Shiseido Sun Protection Lip Treatment SPF 36; Shiseido Sun Protection Liquid Foundation SPF 43; Shiseido Sun Protection Lotion SPF 19; Shiseido Sun Protection Stick Foundation (translucent) SPF 36; Shiseido Sun Protection Stick Foundation SPF 36; Shiseido Suncare Ultimate; Shiseido Synchro Skin Radiant Lifting Foundation 110; Shiseido Synchro Skin Radiant Lifting Foundation 120; Shiseido Synchro Skin Radiant Lifting Foundation 130; Shiseido Synchro Skin Radiant Lifting Foundation 140; Shiseido Synchro Skin Radiant Lifting Foundation 150; Shiseido Synchro Skin Radiant Lifting Foundation 160; Shiseido Synchro Skin Radiant Lifting Foundation 210; Shiseido Synchro Skin Radiant Lifting Foundation 220; Shiseido Synchro Skin Radiant Lifting Foundation 230; Shiseido Synchro Skin Radiant Lifting Foundation 240; Shiseido Synchro Skin Radiant Lifting Foundation 250; Shiseido Synchro Skin Radiant Lifting Foundation 260; Shiseido Synchro Skin Radiant Lifting Foundation 310; Shiseido Synchro Skin Radiant Lifting Foundation 320; Shiseido Synchro Skin Radiant Lifting Foundation 330; Shiseido Synchro Skin Radiant Lifting Foundation 340; Shiseido Synchro Skin Radiant Lifting Foundation 350; Shiseido Synchro Skin Radiant Lifting Foundation 360; Shiseido Synchro Skin Radiant Lifting Foundation 410; Shiseido Synchro Skin Radiant Lifting Foundation 420; Shiseido Synchro Skin Radiant Lifting Foundation 430; Shiseido Synchro Skin Radiant Lifting Foundation 440; Shiseido Synchro Skin Radiant Lifting Foundation 450; Shiseido Synchro Skin Radiant Lifting Foundation 460; Shiseido Synchro Skin Radiant Lifting Foundation 510; Shiseido Synchro Skin Radiant Lifting Foundation 520; Shiseido Synchro Skin Radiant Lifting Foundation 530; Shiseido Synchro Skin Radiant Lifting Foundation 540; Shiseido Synchro Skin Radiant Lifting Foundation 550; Shiseido Synchro Skin Radiant Lifting Foundation 560; Shiseido Synchro Skin Self-refreshing Foundation 110 Alabaster; Shiseido Synchro Skin Self-refreshing Foundation 120 Ivory; Shiseido Synchro Skin Self-refreshing Foundation 130 Opal; Shiseido Synchro Skin Self-refreshing Foundation 140 Porcelain; Shiseido Synchro Skin Self-refreshing Foundation 150 Lace; Shiseido Synchro Skin Self-refreshing Foundation 160 Shell; Shiseido Synchro Skin Self-refreshing Foundation 210 Birch; Shiseido Synchro Skin Self-refreshing Foundation 220 Linen; Shiseido Synchro Skin Self-refreshing Foundation 230 Alder; Shiseido Synchro Skin Self-refreshing Foundation 240 Quartz; Shiseido Synchro Skin Self-refreshing Foundation 250 Sand; Shiseido Synchro Skin Self-refreshing Foundation 260 Cashmere; Shiseido Synchro Skin Self-refreshing Foundation 310 Silk; Shiseido Synchro Skin Self-refreshing Foundation 320 Pine; Shiseido Synchro Skin Self-refreshing Foundation 330 Bamboo; Shiseido Synchro Skin Self-refreshing Foundation 340 Oak; Shiseido Synchro Skin Self-refreshing Foundation 350 Maple; Shiseido Synchro Skin Self-refreshing Foundation 360 Citrine; Shiseido Synchro Skin Self-refreshing Foundation 410 Sunstone; Shiseido Synchro Skin Self-refreshing Foundation 420 Bronze; Shiseido Synchro Skin Self-refreshing Foundation 430 Cedar; Shiseido Synchro Skin Self-refreshing Foundation 440 Amber; Shiseido Synchro Skin Self-refreshing Foundation 450 Copper; Shiseido Synchro Skin Self-refreshing Foundation 460 Topaz; Shiseido Synchro Skin Self-refreshing Foundation 510 Suede; Shiseido Synchro Skin Self-refreshing Foundation 520 Rosewood; Shiseido Synchro Skin Self-refreshing Foundation 530 Henna; Shiseido Synchro Skin Self-refreshing Foundation 540 Mahogany; Shiseido Synchro Skin Self-refreshing Foundation 550 Jasper; Shiseido Synchro Skin Self-refreshing Foundation 560 Obsidian; Shiseido Synchro Skin Tinted 1 Very Light; Shiseido Synchro Skin Tinted 2 Light; Shiseido Synchro Skin Tinted 3 Medium; Shiseido Synchro Skin Tinted 4 Medium Dark; Shiseido Synchro Skin Tinted 5 Dark; Shiseido Tanning Compact (bronze) SPF 4; Shiseido Tanning Compact (natural) SPF 4; Shiseido The Makeup Foundation B20; Shiseido The Makeup Foundation B40; Shiseido The Makeup Foundation B60; Shiseido The Makeup Foundation Control Color; Shiseido The Makeup Foundation I00; Shiseido The Makeup Foundation I20; Shiseido The Makeup Foundation I40; Shiseido The Makeup Foundation I60; Shiseido The Makeup Foundation O20; Shiseido The Makeup Foundation O40; Shiseido The Makeup Foundation O60; Shiseido The Makeup Lifting Foundation B20; Shiseido The Makeup Lifting Foundation B40; Shiseido The Makeup Lifting Foundation B60; Shiseido The Makeup Lifting Foundation I00; Shiseido The Makeup Lifting Foundation I20; Shiseido The Makeup Lifting Foundation I40; Shiseido The Makeup Lifting Foundation I60; Shiseido The Makeup Lifting Foundation O20; Shiseido The Makeup Lifting Foundation O40; Shiseido The Makeup Lifting Foundation O60; Shiseido The Makeup Lifting Foundation O80; Shiseido The Makeup Sheer Matifying Compact (refill) B00; Shiseido The Makeup Sheer Matifying Compact (refill) B100; Shiseido The Makeup Sheer Matifying Compact (refill) I00; Shiseido The Makeup Sheer Matifying Compact (refill) O00; Shiseido The Skincare Tinted Moisture Protection 1 Light; Shiseido The Skincare Tinted Moisture Protection 2 Medium; Shiseido The Skincare Tinted Moisture Protection 3 Medium Deep; Shiseido The Skincare Tinted Moisture Protection 4 Deep; Shiseido Translucent Sun Block Stick; Shiseido Ultimate Sun Protection; Shiseido Ultimate Sun Protection Plus; Shiseido Ultimate Sun Protection S; Shiseido Ultimate Sun Protector; Shiseido Ultra Light Sun Block Lotion SPF 30; Shiseido Urban Environment Tinted Uv Protector 1; Shiseido Urban Environment Tinted Uv Protector 2; Shiseido Urban Environment Tinted Uv Protector 3; Shiseido Uv Protective Compact (refill) Dark Beige; Shiseido Uv Protective Compact (refill) Dark Ivory; Shiseido Uv Protective Compact (refill) Fair Ivory; Shiseido Uv Protective Compact (refill) Light Beige; Shiseido Uv Protective Compact (refill) Light Ivory; Shiseido Uv Protective Compact (refill) Light Ochre; Shiseido Uv Protective Compact (refill) Medium Beige; Shiseido Uv Protective Compact (refill) Medium Ivory; Shiseido Uv Protective Compact (refill) Medium Ochre; Shiseido Uv Protective Foundation Beige; Shiseido Uv Protective Foundation Dark Beige; Shiseido Uv Protective Foundation Dark Ivory; Shiseido Uv Protective Foundation Fair Ivory; Shiseido Uv Protective Foundation Fair Ochre; Shiseido Uv Protective Foundation Light Beige; Shiseido Uv Protective Foundation Light Ivory; Shiseido Uv Protective Foundation Light Ochre; Shiseido Uv Protective Foundation Medium Beige; Shiseido Uv Protective Foundation Medium Ivory; Shiseido Uv Protective Foundation Ochre; Shiseido Vital-perfection Day Prot. Moist.; Shiseido Waso Color-smart Day Moisturizer; Shiseido Waso Color-smart Day Moisturizer Oil-free; Shiseido White Lucent; Shiseido White Lucent Brightening Spot-control Base Uv Green; Shiseido White Lucent Brightening Spot-control Base Uv Ivory; Shiseido White Lucent Brightening Spot-control Base Uv Pink; Shiseido White Lucent Brightening Spot-control Foundation (refill) Bf20; Shiseido White Lucent Brightening Spot-control Foundation (refill) I00; Shiseido White Lucent Brightening Spot-control Foundation (refill) O00; Shiseido White Lucent Brightening Spot-control Foundation (refill) O20; Shiseido White Lucent Brightening Spot-control Foundation (refill) O40; Shiseido White Lucent Brightening Spot-control Foundation (refill) O60; Shiseido White Lucent Onmakeup Spot Correcting Serum Medium; Shiseido White Lucent Onmakeup Spot Correcting Serum Natural; Shiseido White Lucent Onmakeup Spot Correcting Serum Natural Light; Shiseiso Elx.nat.fin. Compact Ss.rf. Oc10; Shunly Radiant Translucent SPF 40; Shunly Radiant Translucent Tinted SPF 40; Sienna Always Color Stay-on Makeup Broad Spectrum SPF 15 Jafra; Siero Co Aqua Cushion Foundation 13 Light Beige; Siero Co Aqua Cushion Foundation 21 Natural Beige; Siero Co Aqua Cushion Foundation 23 Rosy Beige; Siero Double Co Aqua Cc Cushion 13 Light Beige; Siero Double Co Aqua Cc Cushion 21 Natural Beige; Siero Double Co Aqua Cc Cushion 23 Rosy Beige; Siero Mo More Illuminator Rosy Pink; Siero Mo More Illuminator Sparkling Gold; Siero Tyrian Red Cushion 13 Light Beige; Siero Tyrian Red Cushion 21 Natural Beige; Siero Tyrian Red Cushion 23 Rosy Beige; Signature Care Kids SPF 50 Sunscreen; Signature SPF 50 Clear Face; Signature SPF 50 Tinted Face; Silky Eye Primer; Simple Truth Mineral Based SPF 30 Sunscreen; Simple Truth Mineral Based SPF 50 Sunscreen; Simply Beige Always Color Stay-On Makeup SPF 10; Simply Beige Expert Finish Makeup Broad Spectrum SPF 25 Merle Norman; Simply Beige Perfecting makeup SPF 25 Merle Norman; Simply Beige Smart Finish Makeup Broad Spectrum SPF 18 Merle Norman; Simply Me Beauty Foundation Cream Deep - SPF 15; Simply Me Beauty Foundation Cream Light - SPF 15; Simply Me Beauty Foundation Cream Medium - SPF 15; Simply b, MD Daily Clear; Siorisyou Are My Shining Sunscreen; Sirface Sun Protector SPF 30; Sirot Daytime Hand Perfection Transformative Glass Technology Moisturizing Sunscreen Broad Spectrum SPF 20; Sirot Hand and Body Trio Transformative Glass Technology Complete Age Resistance Day and Night; Sirot Hand and Body Trio Transformative glass Technology Complete Age Resistance Day and Night; Sirot complete Hand Care Collection Transformative Glass Technology Hydrate Restore Protect; Skin Balancing Face Primer SPF 20 Sunscreen; Skin Brightening Face Primer SPF 20 Sunscreen; Skin Brightening SPF 50 Pa; Skin Brightening Spf50; Skin Bronzing Face Primer SPF 20 Sunscreen; Skin Calming Face Primer SPF 20 Sunscreen; Skin Corrective BB Cream Broad Spectrum SPF15 Sunscreen; Skin Corrective Innovative Skin Perfector BB Broad Spectrum SPF15 Sunscreen Light Medium; Skin Crave All Natural SPF30; Skin Crave SPF30 Sun Stick; Skin Enhancing Compact Foundation SPF 18; Skin Foundation Cushion Compact Broad Spectrum SPF 35; Skin Foundation Mineral Makeup SPF 15; Skin Long-wear Fluid Powder Foundation SPF 20; Skin Long-wear Weightless Foundation Broad Spectrum SPF 15; Skin Mattifying Face Primer SPF 20 Sunscreen; Skin Nourishment Day Broad Spectrum SPF 15; Skin Renewal Complex SPF 20; Skin Research Institute Naturally Based Sunscreen SPF 30; Skin Tint FX; Skin Tone Correcting & Beautifying Bb Cream; Skin-Perfecting Mineral Beauty Balm Broad Spectrum SPF 20; Skin79 Snail Nutrition Bbcream; SkinCeuticals Physical Eye UV Defense Sunscreen; SkinCeuticals Physical Fusion UV Defense Broad Spectrum SPF 50 Sunscreen; SkinCeuticals Physical Matte UV Defense Broad Spectrum SPF 50 Sunscreen; SkinCeuticals Physical UV Defense Broad Spectrum SPF 30 Sunscreen; SkinCeuticals Sheer Physical UV Defense Broad Spectrum SPF 30 Sunscreen; SkinCeuticals Sheer Physical UV Defense Broad Spectrum SPF 50 Sunscreen; SkinMedica Daily Physical Defense SPF 30 Sunscreen; SkinPerfect Primer SPF 30; SkinTx Daily Defense SPF 45; Skinfood Aloe Sun Bb; Skinfood Aloe Sun Bb 01; Skinfood Aloe Sun Bb 02; Skinfood Aloe Watery Sun Waterproof; Skinfood Miracle Food 10 Solu Tion Sun Essence; Skinfood Peach Sake Pore Bb 01; Skinfood Peach Sake Pore Bb 02; Skinfood Royal Honey Good Sun; Skinfood Vita Water Drop Cc; Skinlycious Multi Protection Mineral Sunscreen Broad Spectrum SPF 30; Skintint Fx; Skin·best C.C. Cream SPF 25; Skylake Sunscreen; Slim Fit Moist SPF 50; Slim Fit SPF 50 Pa; Smart Sunblock Puff; Smash Box Studio Skin 15 Hour Wear Hydrating Foundation Spf10; Smashbox Camera Ready 5 In 1 Beauty Balm SPF 35; Smashbox Camera Ready Bb Cream Eyes SPF 15; Smashbox Camera Ready Bb Cream SPF 35; Smashbox Camera Ready Bb Water SPF 30; Smashbox Camera Ready Cc Cream SPF 30 Dark Spot Correcting; Smashbox Halo Healthy Glow All-IN-one Tinted Moisturizer Broad Spectrum SPF 25; Smashbox High Definition Healthy Fx Foundation SPF 15; Smashbox Liquid Halo Hd Foundation SPF 15 Oil-free; Smooth Minerals Liquid Foundation; Smoothing Mineral Primer SPF-15; Snail Bb 01; Snail Bb 02; Snail Essential EX Origin BB 21 Light Beige; Snail Essential EX Origin BB 23 Natural Beige; Snail Essential EX Wrinkle Soluti on Sun Crea m; Snail Essential EX Wrinkle Sun; Snail Repair Blemish Balm; Snail Solu Tion Bb 02; Snail Solu Tion Bb 07 Sand Beige; Snail Therapy 50 Bb Spf30 Pa Plus Plus No1; Snail Therapy 50 Bb Spf30 Pa Plus Plus No2; Snail Therapy Pact 21 Spf25 Pa Plus Plus; Snail Therapy Pact 23 Spf25 Pa Plus Plus; SnowSkin Face Sunscreen; SnowSkin Sunscreen; SnowSkin Sunscreen Zinc; Sodium Sulfacetamide Sulfur; Soft Beige Always Color Stay-On Makeup SPF 10; Soft Beige Always color stay-on Makeup Broad Spectrum SPF 15 Jafra; Soft Bisque Expert Finish Makeup Broad Spectrum SPF 25 Merle Norman; Soft Bisque Perfecting Makeup SPF 25 Merle Norman; Soft Bisque Smart Finish Broad Spectrum SPF 18 Merle Norman; Soft Derm Intensive Defense 8 SPF; Soft Ivory Always color stay-on Makeup Broad Spectrum SPF 15 Jafra; Soin Haute Protection / High Protection Care SPF 30; Soin Hydratant Anti-age Fps 20; Soin Solaire Complete SPF30; Soin Solaire SPF 8-crm; Soin Soleil - Crm Top; Soins Soleil CRème Visage Face Cream Haute/high Protection Uva/uvb SPF 30; Soins Soleil Lait Corps Body Lotion Moyenne/medium Protection Uva/uvb SPF 20; Solaire Peau Parfaite 100 Mineral Fluid Flawless Skin; Solaire Peau Parfaite 100% Mineral Fluid Flawless skin; Solar Defense Non Tinted; Solar Defense Tinted; Solar Powder SPF 20; Solar Protection Formula LipTect Lip Balm/Sunscreen; Solar Protection Formula SPF 58 Sunscreen; Solar Protection Formula SPF 60 Tinted Concealer - (Beige) Sunscreen; Solar Protection Formula SPF 60 Tinted Concealer - (Blush) Sunscreen; Solar Protection Formula SPF 60 Tinted Concealer - (Honey) Sunscreen; Solar Protection Formula SPF 65 Sunscreen; Solbar Shield SPF40; Solco platino plus uv sun; Soleil Broad Spectrum SPF 30 Sunscreen Body Creme; Soleil Bronzant SPF 12; Soleil De Peau; Soleil De Peau - Liq Top; Soleil Filtrant SPF 25; Soleil Glow Tone Up Foundation SPF 45 Hydrating Cushion Compact; Soleil Protexion Velvet Moisture SPF 60; Soleil Suisse Cellular Anti-wrinkle Sun Cream SPF 30; Soleil Toujours Perpetual Radiance Broad Spectrum SPF 20; Soleil Ultra Expert Sun Care SPF 40 Face and Body Lotion; Solthera SPF 30; Son and Park Air Chou Foundation 21; Son and Park Air Chou Foundation 23; Son and Park Skin Fit Foundation 21; Son and Park Skin Fit Foundation 23; Sonatural Pow Der4room Cover Fixing Cushion 21.5; Sonatural Pow Der4room Cover Fixing Cushion 23.5; Sonatural Pow Der4room Fixing It Full Cover Neutral Beige; Sonatural Pow Der4room Fixing It Full Cover Vanilla Beige; Soorhyehan Onbit Two Way Cake 21; Soorhyehan Onbit Two Way Cake 23; Soorhyehan Onbit Two Way Cake 25; Sooryehan Bichaek Jadan Sun; Sooryehan Dabityoon Jiyoon 01; Sooryehan Dabityoon Jiyoon 02; Sooryehan Dabityoon Jiyoon Cover Makeup 21; Sooryehan Dabityoon Jiyoon Cover Makeup 23; Sooryehan Dabityoon Jiyoon Two way cake 21; Sooryehan Dabityoon Jiyoon Two way cake 23; Sooryehan Hyo Fermented Blemish Balm; Sooryehan Hyo Fermented Sun Block; Sooryehan Jadan Sun Mild; Sooryehan Onbit Essence Foundation 23; Sooryehan Onbit Essence Foundation 25; Sooryehan Onbit Lifting Base; Sothy's Autobronzant Fps 4; Sothy's Creme Haute Protection Fps 15; Sothy's Creme Solaire Active SPF 4; Sothy's Ecran Total Fps 25; Sothy's Lait Bronzant Hydratant Fps 8; Sothy's Spray Soleil Actif Fps 4; Sothys Ecran Zones Exposees SPF 30; Sothys Emulsion Protectrice SPF 12; Source Vital apothecary sunshade SPF 30; Spa Pharma BB Cream SPF 50; Spa Pharma Moisturizer Cream SPF 50; Spa Skilha Helioprot Ab SPF 40; Sparkle Screen Broad Spectrum 30 Glittering Gold Kiwi-Pear Scented; Special Defense Sun Block 25 SPF Crm; Special Defense Sun Block SPF 25; Specific Rides Bronzante - Crm; Spectacular Make-UP SPF 10; Spela Vibe Cushion B21; Spela Vibe Cushion B23; Spf20 Uva/uvb; Spf30 Calendula Sunscreen; Spf30 Everyday/year-round Sunscreen; Spf30 Summer Blend Sunscreen; Spf30 Sunscreen; Spf30 Super Sensitive Sunscreen; Spf40 Uva/uvb; Spit and Polish Sun Smart Sunscreen; Sport 50 SPF50; Sport Lip Balm; Sport Lotion SPF 30; Sport Natural Mineral Sunscreen Broad Spectrum SPF 30; Sport Sunblock; Sports Bb; Sports Bb Qd; Sports Hydrobb Compact; Spray Ecran Solaire; Spray Soleil Intense SPF 4; Squalane plus Mineral SPF 45; Stay Ageless Daily Moisturizer Broad Spectrum SPF 30 Sunscreen; Stay Ageless Daily Moisturizer Mineral Sunscreen Broad Spectrum SPF 30; Stay Ageless Daily Moisturizer Mineral Sunscreen Broad Spectrum SPF30; Stay Ageless Daily Moisturizer Mineral Sunscreen Broad Spectrum SPF30 cream; Stay Ageless Tinted Mineral Sunscreen Broad Spectrum SPF 30; Stay Ageless Tinted Mineral Sunscreen Broad Spectrum SPF30; Stay Ageless Tinted Moisturizer Mineral Sunscreen Broad Spectrum SPF 30; Stay All Day 10-in-1 Bronzing Skin Veil Broad-Spectrum SPF 30 Sunscreen Water Resistant 80 minutes Bronzing; Stay All Day 10-in-1 Illuminating Skin Veil Broad-Spectrum SPF 30 Sunscreen Water-Resistant 80 minutes Kitten Illuminating; Stay All Day 10-in-1 Mattifying Skin Veil Broad-Spectrum SPF 30 Sunscreen Water-Resistant 80 minutes Mattifying; Stick Ecran Solaire Hydratant Spf19; Stick Ecran Total SPF 25; Stick Nutri-reparateur; Stick Solaire Peaux Sensibles SPF 18; Stick Solaire Pour Zones Sensibles SPF 30; Stick Solaire Tres Haute Protection SPF 30; Stick Solaire Tres Haute Protection Special Zones Sensibles 30 SPF; Stila Color Correcting Broad Spectrum SPF 20 (All Shades); Stila Pivotal Skin SPF 8; Stila SPF 30 Skin Visor Sunscreen; Stila Sheer Color SPF 15 Face Powder; Stila Sheer color tinted moisturizer BS SPF20 (All Shades); Stila illuminating tinted moisturizer broad spectrum SPF 20 (All Shades); Stop The Clock Broad Spectrum SPF 50; Stream2Sea Broad Spectrum 20; Stream2Sea Broad Spectrum 20 - Tinted; Stream2Sea Broad Spectrum 30; Stream2Sea Broad Spectrum 30 - Tinted; StriVectin Clinical Corrector ADVANCED ANTI-AGING FACE TINT LIGHT; StriVectin Clinical Corrector ADVANCED ANTI-AGING FACE TINT MEDIUM; Strivectin-CC Clinical Corrector Advanced Anti-aging Face Tint Broad-spectrum SPF 30; Studio Blend Cover Foundation SPF 15; Studio Blend Cover Foundation Spf15; Studio Finish Concealer Broad Spectrum SPF 35; Studio Finish Concealer SPF 15; Studio Finish Concealer SPF 35; Studio Fix Fluid Broad Spectrum SPF 15 With Enriched Anti-oxidant Complex; Studio Fix Fluid SPF 15; Studio Fix Fluid SPF 15 Broad Spectrum; Studio Foundation SPF 15; Studio Sculpt SPF 15 Broad Spectrum Foundation; Studio Sculpt SPF 15 Foundation; Studio Skin 15 Hour Wear Foundation Spf10; Stylo Sport SPF 15 Demi-coverage; Stylo Sport SPF 15 Full-coverage; Sublime Beauty Cream 01-clair/light; Sublime Beauty Cream 02-medium; Suisse DS Systeme Barrier Shield SPF 15; Sulwhasoo Age-veil Sun Cream SPF 30; Sulwhasoo Age-veil UV protection; Sulwhasoo Age-veil Uv Protection Cream; Sulwhasoo EVENFAIR SMOOTHING FOUNDATION SPF25 NO.2 MEDIUM BEIGE; Sulwhasoo EVENFAIR SMOOTHING FOUNDATION SPF25 NO.3 MEDIUM OCHER; Sulwhasoo Evenfair Compact No.21; Sulwhasoo Evenfair Compact No.24; Sulwhasoo Evenfair Compact No.26; Sulwhasoo Evenfair Perfecting Cushion No.21; Sulwhasoo Evenfair Perfecting Cushion No.23; Sulwhasoo Evenfair Perfecting Cushion No.25; Sulwhasoo Lumitouch Base; Sulwhasoo Lumitouch Base Makeup SPF15, PA plus; Sulwhasoo Lumitouch Base SPF 15 No. 60 Light Green; Sulwhasoo Lumitouch Base SPF 15 No.40 Light Violet; Sulwhasoo Lumitouch Compact No.21 Natural Beige; Sulwhasoo Lumitouch Compact No.23 True Beige; Sulwhasoo Lumitouch Foundation; Sulwhasoo Lumitouch Foundation No. 21; Sulwhasoo Lumitouch Foundation No. 23; Sulwhasoo Lumitouch Foundation No. 25; Sulwhasoo Lumitouch Foundation No.21 Natural Beige; Sulwhasoo Lumitouch Foundation SPF 25 No 23. True Beige; Sulwhasoo Lumitouch Foundation SPF 25 No 25. Dark Beige; Sulwhasoo Lumitouch Foundation SPF 25 No.21 Natural Beige; Sulwhasoo Lumitouch Foundation SPF15, PA plus; Sulwhasoo Lumitouch Foundation SPF26, PA plus plus; Sulwhasoo Lumitouch Multi-Base No.1; Sulwhasoo Lumitouch Multi-Base No.2; Sulwhasoo Lumitouch Twincake SPF25, PA plus plus; Sulwhasoo PERFECTING CUSHION NO.11 PALE PINK; Sulwhasoo PERFECTING CUSHION NO.13 LIGHT PINK; Sulwhasoo PERFECTING CUSHION NO.21 MEDIUM PINK; Sulwhasoo PERFECTING CUSHION NO.23 MEDIUM BEIGE; Sulwhasoo PERFECTING CUSHION NO.25 DEEP BEIGE; Sulwhasoo PERFECTING CUSHION NO.33 DARK BEIGE; Sulwhasoo PERPECTING CUSHION BRIGHTENING NO.11 PALE PINK; Sulwhasoo PERPECTING CUSHION BRIGHTENING NO.13 LIGHT PINK; Sulwhasoo PERPECTING CUSHION BRIGHTENING NO.17 LIGHT BEIGE; Sulwhasoo PERPECTING CUSHION BRIGHTENING NO.21 MEDIUM PINK; Sulwhasoo PERPECTING CUSHION BRIGHTENING NO.23 MEDIUM BEIGE; Sulwhasoo PERPECTING CUSHION BRIGHTENING NO.25 DEEP BEIGE; Sulwhasoo PERPECTING CUSHION BRIGHTENING NO.33 DARK BEIGE; Sulwhasoo Perfecting Cushion; Sulwhasoo Perfecting Cushion Brightening; Sulwhasoo Perfecting Cushion Intense; Sulwhasoo Perfecting Cushion Intense No.11; Sulwhasoo Perfecting Cushion Intense No.13; Sulwhasoo Perfecting Cushion Intense No.17; Sulwhasoo Perfecting Cushion Intense No.21; Sulwhasoo Perfecting Cushion Intense No.23; Sulwhasoo Perfecting Cushion Intense No.25; Sulwhasoo Perfecting Cushion Intense No.33; Sulwhasoo Perfecting Cushion No. 11; Sulwhasoo Perfecting Cushion No. 15; Sulwhasoo Perfecting Cushion No. 17; Sulwhasoo Perfecting Cushion No. 21; Sulwhasoo Perfecting Cushion No. 23; Sulwhasoo Perfecting Cushion No. 25; Sulwhasoo Perfecting Cushion No. 27; Sulwhasoo Perfecting Cushion No. 31; Sulwhasoo Perfecting Cushion No. 33; Sulwhasoo Perfecting Cushion No. 37; Sulwhasoo Perfecting Cushion No.21; Sulwhasoo Perfecting Cushion No.23; Sulwhasoo Perfecting Cushion No.25; Sulwhasoo SNOWISE BRIGHTENING SERUM BB; Sulwhasoo Snowise Brightening Bb Base No.1; Sulwhasoo Snowise Brightening Bb Base No.2; Sulwhasoo Snowise Foundation; SulwhasooSNOWISE BRIGHTENING SERUM BB; Summer Bisque Foundation SPF 20; Sun Armor SPF 50; Sun Bad Broad Spectrum SPF 50 Mineral; Sun Barrier UV Aqua Sun Broad Spectrum SPF 50; Sun Barrier UV Milk Broad Spectrum SPF 50; Sun Barrier UV Protector Broad Spectrum SPF 50; Sun Barrier UV Shaking Broad Spectrum SPF 50; Sun Beige Perfecting Makeup Broad Spectrum SPF 25 Merle Norman; Sun Block; Sun Block for Face SPF 25 Crm 8.10%; Sun Block for Lips and Eyes SPF 25 Crm 9.72%; Sun Bum Mineral SPF; Sun Bum Mineral SPF 30 Tinted Sunscreen Face; Sun Bum Mineral SPF30 Tinted Sunscreen Face; Sun Bum Mineral Sunscreen Broad Spectrum SPF 50; Sun Bum Mineral Sunscreen Roll On SPF 50; Sun Bum Mineral Sunscreen SPF 50; Sun Bum Tinted Sunscreen Face UVA/UVB Broad Spectrum SPF 30; Sun Defense Canyon Ranch; Sun Defense Cream; Sun Defense SPF 30; Sun Dmc SPF-30; Sun Essential; Sun Mineral Sunscreen 18 SPF for Sensitive Skin Alba Botanica; Sun Of A Beach SPF 30; Sun Pacer Protective Sun Block Crm Spf30; Sun Premium Face 50 SPF; Sun Project Shimmer Sun Essence; Sun Project Shimmer Sun Essence 15ml; Sun Project Water Sun Cream SPF50; Sun Protect Beblesh Pact SPF30 PA 2Plus; Sun Protect Lip Balm SPF 30; Sun Protection Cream SPF 30; Sun Protection Cream SPF 45; Sun Protection Creme SPF 30 PLUS Exel Clarifying Line; Sun Protection SPF 45; Sun Savvy Solar Shield; Sun Savvy Solar Shield SPF 20; Sun Screen; Sun Shade SPF 12; Sun Shade SPF 15; Sun Shade SPF 8; Sun Shades Sport - Lot; Sun Shield Crm; Sun Shield Mineral Broad Spectrum SPF 50 Sunscreen; Sun Shield SPF 50; Sun Spr SPF 50; Sun Stick SPF 24; Sun Stick SPF 45; Sun Therapy - Suntan SPF 30; Sun Trainer Creme De Soin Pour Soleil Intense; Sun Trainer Lait De Soin Pour Soleil Intense; Sun Trainer Lait De Soin Pour Soleil Normal Ou Fort; Sun defense CanyonRanch; Sun/soleil; SunScreen; SunScreen SPF30; Sunbar SPF 30; Sunblock; Sunblock Cream; Sunblock Filter for Body SPF 15 Lot 5.67%; Sunblock Lotion SPF 15; Sunblock Lotion SPF 30; Sunblock Lotion Spray SPF 15; Sunblock Premium Formula SPF 45; Sunblock for Body SPF 15; Sunblock for Face SPF 15 Crm 6.1%; Sunblock for Face SPF 15-crm 3.9%; Sunblock for Face SPF 25; Sunblock for Face SPF 25-crm 6.5%; Sunblock for Face SPF 30; Sunbrellas Family Sunblock SPF 45; Sunbrellas Goodbye Bugs Block SPF 26; Sunbrellas Kids Sunblock SPF 45; Sunbrellas Mineral Sunblock SPF 30; Sunbrellas Sport Sunblock SPF 45; Suncare By Vaseline Baby Lotion Spf25; Suncare By Vaseline Sport Lotion SPF 15; Suncare Essentials; Suncreen Daily Defense Lather; Suncreen Lotion SPF 30; Suncures Ultra Hydrating Sunscreen SPF 20; Sunfilter Lotion Spray SPF 10; Sunfitness Creme Fondante SPF 30; Sunfitness Gelee Fraicheur SPF 15; Sunfitness Lait Fondant SPF 15; Sunfitness Lait Fondant SPF 30; Sunforgettable Brush On Mineral Sunscreen SPF 50; Sunforgettable Brush-On Sunscreen SPF 30; Sunforgettable Brush-On Sunscreen SPF 50; Sunforgettable Eyescreen SPF 30 Sunscreen; Sunforgettable Face Primer SPF 30 Sunscreen; Sunforgettable Loose Mineral Sunscreen SPF 30; Sunforgettable Tint du Soleil Foundation SPF 30 Sunscreen; Sunforgettable Total Protection Brush-On Shield SPF 50; Sunglitter Princess; Sunglow Foundation SPF 15; Sunglow Foundation SPF-15; Sunkiss SPF15; Sunnyscreen SPF 50; Sunright 50 SPF 50; Sunscreen; Sunscreen 100; Sunscreen Beige Broad Spectrum Spf50+; Sunscreen Broad Spectrum SPF 30; Sunscreen Broad Spectrum Spf50+; Sunscreen Cream SPF 30; Sunscreen Day SPF 50 Supergoop; Sunscreen Face Cream SPF 4; Sunscreen Face SPF 28 Vertra Elemental Resistance; Sunscreen Face SPF 50 Equate beauty; Sunscreen Lotion SPF 15; Sunscreen Lotion SPF 25; Sunscreen Lotion SPF 30; Sunscreen Lotion SPF 39; Sunscreen Lotion SPF 8; Sunscreen Lotion Spf30; Sunscreen Lotion for Babies; Sunscreen SPF 12; Sunscreen SPF 15; Sunscreen SPF 24; Sunscreen SPF 25; Sunscreen SPF 30; Sunscreen SPF 50 CeraVe; Sunscreen SPF30; Sunscreen drops SPF30; Sunscreen stick; SunscreenSPF 30 SPF 30; Sunshine Skin Tint Broad Spectrum SPF 30 - Refill; Sunshine Skin Tint SPF 30 Broad Spectrum SPF 30 - Refill; Sunshine on the Go Natural SPF 30plus Sunscreen; Sunsmart Eye & Lip Sunscreen SPF 15; Sunspray; Sunstation All-Natural SPF 30 Sunscreen; Suntan Lotion; Suntique Im Pure Perfect Cica; Suntique Im Tone Up Multi Base; Sunzee Face and Neck Sunscreen; Super Aqua-serum Bb Hydra Beauty Balm With Sunscreen Broad Spectrum SPF 25 Light; Super Aqua-serum Bb Hydra Beauty Balm With Sunscreen Broad Spectrum SPF 25 Medium; Super BB 10-in-1 Beauty Balm Concealer SPF 30; Super BB All in One Beauty Balm Bronzer and Blush; Super BB All in One Beauty Balm Stick; Super BB All-In-1; Super BB All-in-One Compact Cream SPF 30; Super BB Beauty Balm Cream SPF 30; Super BB Beauty Balm Powder; Super BB Beauty Balm Powder SPF 30; Super BB InstaReady Beauty Balm BB Cream; Super BB InstaReady Contour Trio BB Stick; Super BB InstaReady Filter BB Bronzer; Super BB InstaReady Filter Trio BB Powder; Super Bb 10-IN-1 Beauty Balm Cream SPF 30; Super Bb Anti Wrinkle and Sun Protection Spf36; Super CC Color Correction Care CC Compact Cream; Super CC Color Correction Care Instant Blurring Eye Cream; Super CC Color Correction Care Primer Stick SPF 30; Super CC Color-Corection Care All Over Blur Stick; Super CC Color-Correction Care All Over Blur CC Cream; Super CC Plus Concealer SPF 30; Super CC Plus Cream SPF 30; Super CC Plus Powder SPF 30; Super CC Powder; Super City Block Bb Cushion Compact Broad Spectrum SPF 50; Super City Block SPF 25; Super City Block SPF 40 Oil Free Daily Face Protector; Super Light Touch Bb Pact Spf30 Pa Plus Plus; Super Light Touch Bb Spf30 Pa Plus Plus; Super Origin Cc Spf25 Pa Plus Plus Brightening; Super Origin Cc Spf30 Pa Plus Plus Color Change; Super Origin Cc Spf30 Pa Plus Plus Tinted; Super Origin Ceramide Bb; Super Origin Ceramide Bb Spf25 Pa Plus Plus; Super Origin Collagen Bb; Super Origin Collagen Bb Sand Beige; Super Origin Collagen Bb Spf25 Pa Plus Plus; Super Origin Collagen Waterproof Bb; Super Origin Collagen Waterproof Bb Spf46 Pa Plus Plus Plus; Super Origin Cotton Finish Foundation 21 Light Beige; Super Origin Cotton Finish Foundation 23 Natural Beige; Super Origin Cushion Complete Control 21 Moist and Bright Skin; Super Origin Cushion Complete Control 23 Moist and Natural Skin; Super Plus Beblesh Balm Triple Functions SPF25 PA 2Plus; Super Plus Beblesh Balm Triple Functions SPF50 Plus PA 3Plus (40g); Super Plus Perfect Bb Spf30 Pa Plus Plus Bright; Super Plus Perfect Bb Spf30 Pa Plus Plus Natural; Super Restorative Foundation True Lift SPF 15 Tint 03; Super Restorative Foundation True Lift SPF 15 Tint 06; Super Restorative Foundation True Lift SPF 15 Tint 07; Super Restorative Foundation True Lift SPF 15 Tint 08; Super Restorative Foundation True Lift SPF 15 Tint 09; Super Restorative Foundation True Lift SPF 15 Tint 2.5; Super Restorative Foundation True Lift SPF 15 Tint 6.5; Super Restorative Foundation True Lift SPF 15 Tint 7.5; Super Restorative Tinted SPF 20 Tint 1; Super Sensitive Shield SPF 30; Super Solaire Sun Sensitive Areas Colorless SPF 30 SPF 30; SuperPlus Beblesh Balm Gold SPF25 PA 2Plus; SuperPlus Beblesh Balm SPF25 PA 2Plus; SuperPlus Beblesh Balm Triple Functions SPF25 PA 2Plus; Superbalanced Makeup SPF 15 Mineral Rich Formula; Superdefense Age Defense Broad Spectrum SPF 20; Superdefense City Block Daily Energy + Face Protector SPF 50; Supernatural Airbrushed Canvas Broad Spectrum SPF 15 Sunscreen Beige; Supernatural Airbrushed Canvas Broad Spectrum SPF 15 Sunscreen Fair; Supernatural Airbrushed Canvas Broad Spectrum SPF 15 Sunscreen Honey; Supernatural Airbrushed Canvas Broad Spectrum SPF 15 Sunscreen Light Bronze; Supernatural Airbrushed Canvas Broad Spectrum SPF 15 Sunscreen Medium Beige; Supernatural Airbrushed Canvas Broad Spectrum SPF 15 Sunscreen Natural Ivory; Supernatural Airbrushed Canvas Broad Spectrum SPF 15 Sunscreen Rich Toffee; Supernatural Airbrushed Canvas Broad Spectrum SPF 15 Sunscreen Sand; Supernatural Poreless Flawless Tinted SPF 15; Supernatural Poreless Tint SPF 15; Supernatural Superbeautiful Makeup SPF 15; Supremacie NX Jour; Supreme Skinpia 10 Bb; Supreme Skinpia 10 Sun Block; Surfers Barrier SPF 50; Surfers Skin Sunscreen; SurfersSkin Face Sunscreen; SurfersSkin Sunscreen Zinc; Surprotecteur Ecran Total - Crm; Svens Everyday Mineral Sunscreen; Swisstec Global Protect SPF 30; Sys; T4 Natural Mineral Eye and Face SPF 30 Sunscreen Moisturizer; TANRI Sunscreen SPF15; TANRI Sunscreen SPF30; TARTEGUARD 30 sunscreen Broad Spectrum SPF 30; TEINT COUTURE CITY BALM - Radiant Perfecting Skin Tint 24h Wear Moisturizer Urban Shield SPECTRUM SPF 25 N200; TEINT COUTURE CITY BALM - Radiant Perfecting Skin Tint 24h Wear Moisturizer Urban Shield SPECTRUM SPF 25 N312; TEINT COUTURE CITY BALM Radiant Perfecting Skin Tint 24h Wear Moisturizer Urban Shield SPECTRUM SPF 25 C110; TEINT COUTURE CITY BALM Radiant Perfecting Skin Tint 24h Wear Moisturizer Urban Shield SPECTRUM SPF 25 C205; TEINT COUTURE CITY BALM Radiant Perfecting Skin Tint 24h Wear Moisturizer Urban Shield SPECTRUM SPF 25 C302; TEINT COUTURE CITY BALM Radiant Perfecting Skin Tint 24h Wear Moisturizer Urban Shield SPECTRUM SPF 25 C345; TEINT COUTURE CITY BALM Radiant Perfecting Skin Tint 24h Wear Moisturizer Urban Shield SPECTRUM SPF 25 N104; TEINT COUTURE CITY BALM Radiant Perfecting Skin Tint 24h Wear Moisturizer Urban Shield SPECTRUM SPF 25 N300; TEINT COUTURE CITY BALM Radiant Perfecting Skin Tint 24h Wear Moisturizer Urban Shield SPECTRUM SPF 25 N405; TEINT COUTURE CITY BALM Radiant Perfecting Skin Tint 24h Wear Moisturizer Urban Shield SPECTRUM SPF 25 N490; TEINT COUTURE CITY BALM Radiant Perfecting Skin Tint 24h Wear Moisturizer Urban Shield SPECTRUM SPF 25 W208; TEINT COUTURE CITY BALM Radiant Perfecting Skin Tint 24h Wear Moisturizer Urban Shield SPECTRUM SPF 25 W370; TEINT COUTURE CITY BALM Radiant Perfecting Skin Tint 24h Wear Moisturizer Urban Shield SPECTRUM SPF 25 W430; TEINT COUTURE CITY BALM Radiant Perfecting Skin Tint 24h Wear Moisturizer Urban Shield SPECTRUM SPF 25 W480; TEINT COUTURE EVERWEAR 24h Wear Satin Finish Full Coverage and Comfort Broad Spectrum SPF 20 N203; TEINT COUTURE EVERWEAR 24h Wear Satin Finish Full Coverage and Comfort Broad Spectrum SPF 20 N365; TEINT COUTURE EVERWEAR 24h Wear Satin Finish Full Coverage and Comfort Broad Spectrum SPF 20 N430; TEINT COUTURE EVERWEAR 24h Wear Satin Finish Full Coverage and Comfort Broad Spectrum SPF 20 N470; TEINT COUTURE EVERWEAR 24h Wear Satin Finish Full Coverage and Comfort Broad Spectrum SPF 20 N98; TEINT COUTURE EVERWEAR 24h Wear Satin Finish Full Coverage and Comfort Broad Spectrum SPF 20 P100; TEINT COUTURE EVERWEAR 24h Wear Satin Finish Full Coverage and Comfort Broad Spectrum SPF 20 P105; TEINT COUTURE EVERWEAR 24h Wear Satin Finish Full Coverage and Comfort Broad Spectrum SPF 20 P110; TEINT COUTURE EVERWEAR 24h Wear Satin Finish Full Coverage and Comfort Broad Spectrum SPF 20 P115; TEINT COUTURE EVERWEAR 24h Wear Satin Finish Full Coverage and Comfort Broad Spectrum SPF 20 P200; TEINT COUTURE EVERWEAR 24h Wear Satin Finish Full Coverage and Comfort Broad Spectrum SPF 20 P210; TEINT COUTURE EVERWEAR 24h Wear Satin Finish Full Coverage and Comfort Broad Spectrum SPF 20 P300; TEINT COUTURE EVERWEAR 24h Wear Satin Finish Full Coverage and Comfort Broad Spectrum SPF 20 P340; TEINT COUTURE EVERWEAR 24h Wear Satin Finish Full Coverage and Comfort Broad Spectrum SPF 20 P350; TEINT COUTURE EVERWEAR 24h Wear Satin Finish Full Coverage and Comfort Broad Spectrum SPF 20 P395; TEINT COUTURE EVERWEAR 24h Wear Satin Finish Full Coverage and Comfort Broad Spectrum SPF 20 P400; TEINT COUTURE EVERWEAR 24h Wear Satin Finish Full Coverage and Comfort Broad Spectrum SPF 20 P450; TEINT COUTURE EVERWEAR 24h Wear Satin Finish Full Coverage and Comfort Broad Spectrum SPF 20 P95; TEINT COUTURE EVERWEAR 24h Wear Satin Finish Full Coverage and Comfort Broad Spectrum SPF 20 Y100; TEINT COUTURE EVERWEAR 24h Wear Satin Finish Full Coverage and Comfort Broad Spectrum SPF 20 Y105; TEINT COUTURE EVERWEAR 24h Wear Satin Finish Full Coverage and Comfort Broad Spectrum SPF 20 Y110; TEINT COUTURE EVERWEAR 24h Wear Satin Finish Full Coverage and Comfort Broad Spectrum SPF 20 Y200; TEINT COUTURE EVERWEAR 24h Wear Satin Finish Full Coverage and Comfort Broad Spectrum SPF 20 Y205; TEINT COUTURE EVERWEAR 24h Wear Satin Finish Full Coverage and Comfort Broad Spectrum SPF 20 Y207; TEINT COUTURE EVERWEAR 24h Wear Satin Finish Full Coverage and Comfort Broad Spectrum SPF 20 Y210; TEINT COUTURE EVERWEAR 24h Wear Satin Finish Full Coverage and Comfort Broad Spectrum SPF 20 Y215; TEINT COUTURE EVERWEAR 24h Wear Satin Finish Full Coverage and Comfort Broad Spectrum SPF 20 Y300; TEINT COUTURE EVERWEAR 24h Wear Satin Finish Full Coverage and Comfort Broad Spectrum SPF 20 Y305; TEINT COUTURE EVERWEAR 24h Wear Satin Finish Full Coverage and Comfort Broad Spectrum SPF 20 Y310; TEINT COUTURE EVERWEAR 24h Wear Satin Finish Full Coverage and Comfort Broad Spectrum SPF 20 Y315; TEINT COUTURE EVERWEAR 24h Wear Satin Finish Full Coverage and Comfort Broad Spectrum SPF 20 Y325; TEINT COUTURE EVERWEAR 24h Wear Satin Finish Full Coverage and Comfort Broad Spectrum SPF 20 Y400; THANK YOU FARMER Safe Sun Fluid Age 0880; THEFACESHOP CC Cushion Natural Beige Oil-Free SPF 50; THEFACESHOP Color Control Cushion Apricot Beige Oil-Free SPF 50; THEFACESHOP Cushion CC Oil-Free SPF 50 Apricot Beige; THEFACESHOP Cushion CC Oil-Free SPF 50 Natural Beige; THEFACESHOP Cushion CC SPF 50 Apricot Beige Oil-Free; THEFACESHOP Cushion CC SPF 50 Natural Beige Oil-Free; THEFACESHOP Cushion CC Total Cover SPF 50 Apricot Beige; THEFACESHOP Cushion CC Total Cover SPF 50 Natural Beige; THEFACESHOP Natural Sun Long Lasting Sunscreen Broad Spectrum SPF 50; THEFACESHOP Natural Sun Oil-Free Sunscreen Broad Spectrum SPF 50; TIME SECRET Mineral Liquid Cushion Light Ochre; TIME SECRET Mineral Liquid Cushion Medium Ochre; TIME SECRET Mineral Liquid Cushion Natural Ochre; TIME SECRET Mineral Makeup Base Cover Glow; TIME SECRET Mineral Makeup Base Cover Matte; TIME SECRET Mineral Pressed Clear Veil; TIME SECRET Mineral Pressed Powder Light Ochre; TIME SECRET Mineral Pressed Powder Medium Ochre; TIME SECRET Mineral Pressed Powder Natural Ochre; TONYMOLY Aqua Aura Jelly Cushion01 SPF36 Pure Beige; TONYMOLY Aura Jelly Cushion02 SPF36 Skin Beige; TONYMOLY BCDation All Master; TONYMOLY Face Mix Skin Makeup Base 02 Mix Lavendar SPF20; TONYMOLY Fitting Foundation 23 SPF30 Natural Beige; TONYMOLY My Sunny All In One Sun SPF45; TONYMOLY My Sunny All SunSpray; TONYMOLY My Sunny Kids and Mom Sun Cream; TONYMOLY My Sunny Perfecting Sun Block; TONYMOLY My Sunny Tok Tok Sun Powder; TONYMOLY My Sunny Waterproof Sun Block; TONYMOLY Pandas Dream Brightening Eye Base; TONYMOLY Regencia Homme Multi BB Cream SPF43; TONYMOLY Timeless Carat Foun Cover 01 Skin Beige; TONYMOLY Timeless Carat Moisture Soft Powder Pact 21 Skin Beige; TONYMOLY Timeless Carat Moisture Soft Powder Pact 23 Natural Beige; TONYMOLY Timeless Ferment Snail BB Cream; TOTAL DEFENSE REPAIR BROAD SPECTRUM SPF 34 Sunscreen (Tinted); TRENDY JOHN SPF-32 Sheer Mineral Sunscreen; TS CC Cream Beige; TS CC Cream Natural Beige; TULA SKINCARE MINERAL MAGIC Mineral Sunscreen Fluid Broad Spectrum SPF 30; Tahitian Holiday Liquid Lip Balm Baume Liquide Pour Les Levres SPF/fps15; Take A Deep Breath Cushion Foundation SPF 20 Shade xx; Tan Expert Finish Makeup Broad Spectrum SPF 25 Merle Norman; Tan Foundation SPF 15; Target Up and Up Kids Mineral Sunscreen SPF 50; Target Up and Up Mineral Based SPF 30 Sunscreen; Target Up and Up Mineral Sunscreen Broad Spectrum SPF 50; Target Up and Up Mineral Sunscreen Broad Spectrum SPF 50 Reef-Conscious Formula; Target Up and Up Sunscreen SPF 50 KIDS Broad Spectrum; Tarte Amazonian Clay Bb Tinted Moisturizer Broad Spectrum SPF 20 Sunscreen; Tarteguard 20 Tinted Moisturizer light; Tarteguard 20 Tinted Moisturizer light-medium; Tarteguard 20 Tinted Moisturizer medium; Tarteguard Mineral Powder SPF 30; Tawny Beige Always Color Stay-on Makeup Broad Spectrum SPF 15 Jafra; Tcs Weightless Blend Everyday Primer; Teint Belle Mine Naturelle Healthy Glow Foundation SPF 25 / Pa++; Teint Compact Creme Universel - Spf15; Teint Compact Diorlift; Teint Compact Lisse; Teint Diorlight; Teint Fluide Universel; Teint Fluide Universel- SPF 15; Teint Lift Defense Spf6; Teint Luminescent Fluid Luminous Foundation SPF 15; Teint Luminescent Fluid Luminous Foundation SPF 15 Tint 10; Teint Lumière; Tender Moments SPF 45; Tenue De Perfection Timeproof Foundation With Sunscreen Ultimate Lasting Perfection Broad Spectrum SPF 20 01 Beige Pale; Tenue De Perfection Timeproof Foundation With Sunscreen Ultimate Lasting Perfection Broad Spectrum SPF 20 02 Beige Clair; Tenue De Perfection Timeproof Foundation With Sunscreen Ultimate Lasting Perfection Broad Spectrum SPF 20 03 Beige Naturel; Tenue De Perfection Timeproof Foundation With Sunscreen Ultimate Lasting Perfection Broad Spectrum SPF 20 04 Beige Moyen; Tenue De Perfection Timeproof Foundation With Sunscreen Ultimate Lasting Perfection Broad Spectrum SPF 20 12 Rose Clair; Tenue De Perfection Timeproof Foundation With Sunscreen Ultimate Lasting Perfection Broad Spectrum SPF 20 13 Rose Naturel; Terracotta 4 Seasons Blondes; Terracotta 4 Seasons Brunettes; Terracotta Joli Teint Beautifying Foundation With Sunscreen Sun-kissed, Healthy Glow Broad Spectrum SPF 20 Dark; Terracotta Joli Teint Beautifying Foundation With Sunscreen Sun-kissed, Healthy Glow Broad Spectrum SPF 20 Ebony; Terracotta Joli Teint Beautifying Foundation With Sunscreen Sun-kissed, Healthy Glow Broad Spectrum SPF 20 Light; Terracotta Joli Teint Beautifying Foundation With Sunscreen Sun-kissed, Healthy Glow Broad Spectrum SPF 20 Medium; Terracotta Joli Teint Beautifying Foundation With Sunscreen Sun-kissed, Healthy Glow Broad Spectrum SPF 20 Natural; Terrasport; The Body Shop Vitamin E Facial Day Lotion SPF15; The Cellin EOP B.B Cream; The Cellin SC BB Cream SPF 25 PA; The Cellin Sun Screen Spf35 Pa Plus Plus; The Classeum Co., Ltd.; The Cover Classic Foundation SPF 24, No. N3; The Cover Classic Foundation SPF 24, No. O4; The Cover Classic Powder Pact SPF 15, No. 1; The Cover Classic Powder Pact SPF 15, No. 2; The Cover Classic Pro Foundation SPF 24 No. 2; The Cover Classic Pro Foundation SPF 24 No. 3; The Cover Classic Pro Foundation SPF 24 No. 4; The Cover Classic Pro Foundation SPF 24 No. 5; The Cover Classic Soft Foundation SPF 24 No. O2; The Cover Classic Soft Foundation SPF 24 No. O3; The Cover Classic Soft Foundation SPF 24, No. N2; The Cover Classic Soft Foundation SPF 24, No. O2; The Cure Oil-Free; The Cure Sheer Cream; The First Fermented Essence Bb Balm Spf25; The First Sun Spf50 Plus Pa Plus Plus Plus; The Flower Uv Intense Pact Spf50 Pa Nb21; The Flower Uv Intense Pact Spf50 Pa Nb23; The Green Beaver Company SPF 40 Adult Sunscreen; The Green Beaver Company SPF 40 Kids Sunscreen; The Healthy Powder; The Healthy Powder SPF16; The History Of Whoo Gongjinhyang Mi Pact 1; The History Of Whoo Gongjinhyang Mi Pact 2; The History Of Whoo Gongjinhyang Seol Whitening Sun; The History of Whoo Gongjinhyang Haeyoon Sun Powder; The History of Whoo Jin Hae Yoon Sun; The Ordinary Suncare Mineral UV Filters with Antioxidants; The Ordinary Suncare Mineral UV Filters with Antioxidants SPF15; The Ordinary Suncare Mineral UV Filters with Antioxidants SPF30; The Ordinary Suncare Mineral Uv Filters With Antioxidants; The Organic Pharmacy Cellular Protection Sunscreen SPF 30; The Organic Pharmacy Cellular Protection Sunscreen SPF 50; The Oriental Gold BB SPF25 PA 2Plus; The Oriental Gyeol Goun Two Way Pact; The Prestige BB SPF25 PA 2Plus; The Radiant Concealer Broad Spectrum SPF 25; The Radiant Concealer SPF 15; The Radiant Skintint SPF 30; The Skin Extra Bb Spf20 Pa; The Skincare Day Protective Moisturizer SPF 15; The Sof Fluid Long Wear Foundation Broad Spectrum SPF 20; The Soft Moisture Powder Foundation SPF 30; The Sytle Fitting Wear Cashmere SPF15 No.1; The Sytle Fitting Wear Cashmere SPF15 No.2; The Treatment Powder Foundation SPF 15; The UV Protector Youth and Radiance With Sunscreen Blemish Balm Broad Spectrum SPF50; The Yeon Cmk Pore Blemish Bc 01 Pink Beige; The Yeon Cmk Pore Blemish Bc 02 Natural Beige; The Yeon Lotus Flower Bc Cushion Pact 01 Light Beige; The Yeon Lotus Flower Bc Cushion Pact 02 Natural Beige; The Yeon Style Y Long Wear Perfect Fit Bb 21 Light Beige; The Yeon Style Y Long Wear Perfect Fit Bb 23 Natural Beige; The Yeon Style Y Y Glam Luminous Cc; The Yeon Style Y Y Glam Water Bomb Cc; TheFaceShop Jelly Pact 34200187; TheFaceShop Jelly Pact 34200188; Therapeutic Aquaderm-15; TiZO Mineral Stick - Tinted SPF 45; TiZO Mineral Stick Non-Tinted SPF 45; TiZO Sheer Botanicals Non-Tinted; TiZO SheerFoam; TiZO SheerFoam - Tinted; TiZO Tinted Lip Protection SPF 45; TiZO2; TiZO3; Tieso Rapido Plus; Tieso Sol Uv Protector; Time Frame Future Resist Foundation Broad Spectrum SPF 20 Delilah Cosmetics; Time Machine BB; Time Revolution White Cure Blanc Tone Up Sun Protector; Timeless Placenta Hydrogel Mask; Tinted BB; Tinted Day (UVA/UVB) SPF 34; Tinted Mineral Defense Broad Spectrum SPF 30 Sunscreen; Tinted Mineral Sunscreen Broad Spectrum SPF 30; Tinted Mineral Sunscreen SPF-30; Tinted Moisturizer Broad Spectrum SPF 30; Tinted Moisturizer Broad-Spectrum SPF 45; Tinted Moisturizer Matte Broad Spectrum SPF 45; Tinted Moisturizer Oil Free SPF 15; Tinted Moisturizer SPF 15; Tinted Moisturizer SPF 20; Tinted Moisturizer SPF 30 SPF 30; Tinted Moisturizer SPF 45 Matte; Tinted Moisturizer SPF-15; Tinted Moisturizer SPF-20; Tinted Moisturizer SPF20 Dark; Tinted Moisturizer SPF20 Light; Tinted Moisturizer SPF20 Medium; Tinted Radiance Moisturizer Broad Spectrum SPF 32; Tinted Radiance Moisturizer Broad Spectrum SPF 32 Medium to Tan; Tinted Sunscreen Cream SPF 30 4-Deep Amber; Tinted Sunscreen SPF 30 1-Natural; Tinted Sunscreen SPF 30 2-Golden; Tioveil FIN-LQ-(WD); Titanium Dioxide; Titanium Plus Natures Sunblock 16spf; Toast Always Color Stay-On Makeup SPF 10; Toast Always color stay-on Makeup Broad Spectrum SPF 15 Jafra; Toffee Always Color Stay-On Makeup SPF 10; Toffee Always color stay-on Makeup Broad Spectrum SPF 15 Jafra; Tom Ford Flawless Glow Foundation Broad Spectrum SPF 30; Tom Ford Shade and Illuminate Foundation Broad Spectrum SPF 45 Soft Radiance Cushion Compact Refill; Tom Ford Soleil Glow Tinted Moisturizer Broad Spectrum SPF 15; Tom Ford Soleil Glow Tone Up Foundation Broad Spectrum SPF 45; Tom Ford Soleil Tinted Moisturizer Broad Spectrum SPF 30; Tom Ford Soleil Tinted Moisturizer SPF 30; Tom Ford Traceless Foundation Broad Spectrum SPF 15; Tom Ford Traceless Perfecting Foundation SPF 15; Tomato Sun SPF 36 Pa Plus Plus; Tomato Wrinkle Sun Spf36 Pa Plus Plus; Tone Up White Sun; Tonymoly Bcdation 01; Tonymoly Bcdation 02; Tonymoly Intense Care Snail Bb; Tonymoly Luminous Goddess Aura Bb 02; Tonymoly Timeless Carat Foun Cover 02 Natural Beige; Too Cool For School DINO PLATZ CINEMA CITY (CC CHEEK); Too Cool For School DINO PLATZ CINEMA CITY (CC CONCEALER); Too Cool For School DINO PLATZ CINEMA CITY (CC Highlighter); Too Cool For School DINOPLATZ LOOSE and SILLY No. 2 Illusion; Too Cool For School DINOPLATZ La Ola Noche No.23; Too Cool For School DINOPLATZ La Ola Viento No.21; Too Faced BB Creme Complete Coverage Make-Up SPF-20 CREAM GLOW; Too Faced BB Creme Complete Coverage Make-Up SPF-20 LINEN GLOW; Too Faced BB Creme Complete Coverage Make-Up SPF-20 NUDE GLOW; Too Faced BB Creme Complete Coverage Make-Up SPF-20 SNOW GLOW; Too Faced BB Creme Complete Coverage Make-Up SPF-20 VANILLA GLOW; Too Faced Tinted Beauty Balm SPF-20; Top Secret CC SPF 35; Topco Everyday Mineral Sunscreen Broad Spectrum SPF 50; Total Active Dual BB SPF50 PLUS PA PLUS PLUS PLUS; Total Age Defy SPF 15 Sunscreen; Total Defense + Repair Broad Spectrum SPF 34 Sunscreen Tinted; Total Eye 3-In-1 Renewal Therapy SPF 35; Total Eye 3-In-1 Renewal Therapy SPF 35 (Deep); Total Eye 3-In-1 Renewal Therapy SPF 35 (Fair); Total Eye 3-In-1 Renewal Therapy SPF 35 (Tan); Total Eye Care SPF 15; Traceless Perfecting Foundation Broad Spectrum SPF 15; Traceless Touch Foundation Broad Spectrum SPF 45 Refill Cushion Compact; Traitement Solaire Special Contour Des Yeux; Translucent Broad Spectrum Foundation SPF 50 Vertra; Tretinopak; Triple Defense Sunscreen Broad Spectrum SPF 40; Triple Protection Broad Spectrum Sunscreenspf 30 SPF 30; Triple Protection Sunscreen Broad Spectrum SPF 30; Troiareuke Acsen Uv Protector Essence; Troiareuke Cushion A Plus C21; Troiareuke Cushion A Plus C21 Refill; Troiareuke Cushion A Plus C23; Troiareuke Cushion A Plus C23 Refill; Tropic Sport Mineral Sunscreen SPF 30; Tropic Sport Mineral Sunscreen SPF 50; Tropical Sands SPF-30 Broad Spectrum Sunscreen; Tropical Sands SPF-30 Broad Spectrum Sunscreen (Coconut); Tropical Sands, SPF-50 Broad Spectrum Sunscreen; Tropicsurf Extreme Protection Spf30-ultra; True Beige Always Color Stay-On Makeup SPF 10; True Beige Always color stay-on Makeup Broad Spectrum SPF 15 Jafra; True Colors: Fond De Teint Transparent Fps 8; True Finish Powder Makeup SPF 15 Sunscreen; True Illusion Liquid-TO-powder SPF 10; True Natural Baby 30 and Family; True Natural NEUTRAL 50; True Radiance B.S. SPF 15 Titanium Dioxide Sunscreen Tint 103; True Radiance B.S. SPF 15 Titanium Dioxide Sunscreen Tint 105; True Radiance B.S. SPF 15 Titanium Dioxide Sunscreen Tint 107; True Radiance B.S. SPF 15 Titanium Dioxide Sunscreen Tint 108; True Radiance B.S. SPF 15 Titanium Dioxide Sunscreen Tint 109; True Radiance B.S. SPF 15 Titanium Dioxide Sunscreen Tint 110; True Radiance B.S. SPF 15 Titanium Dioxide Sunscreen Tint 112; True Radiance B.S. SPF 15 Titanium Dioxide Sunscreen Tint 112,5; True Radiance B.S. SPF 15 Titanium Dioxide Sunscreen Tint 113; True Radiance B.S. SPF 15 Titanium Dioxide Sunscreen Tint 114; Truffle EX Sun Spf50 Plus Pa Plus Plus Plus; ULTA beauty Broad Spectrum SPF 50 Mineral; ULTRASOL nature BABY Sunscreen; UNBLEMISH Control Broad Spectrum SPF 20; UNBLEMISH Regimen for Acne, Blemishes and Breakouts; UNBLEMISH Regimen for Acne, Blemishes and Breakouts Travel Size; UNBLEMISH Shine Free; UNID Physical Sun; UV Capture Sebum Control Sun Cream; UV Capture Sun BB; UV Capture Sun Pact; UV Capture Water Zero Sunspray; UV Defense Fluid; UV Mineral Shield SPF30; UV NATURAL 100 MINERAL SUNKILL RX 12g; UV NATURAL 100 MINERAL SUNKILL RX 2.5g; UV NATURAL 100 MINERAL SUNKILL RX 3g; UV PLUS HP ECRAN MULTI-PROTECTION BROAD SPECTRUM SPF 40 Titanium Dioxide - MULTI-PROTECTION (S2033B); UV SUNSET Body And Family Sun; UV SUNSET Waterproof Sun Block; Ucheer B; Ugly Duck Miracle Multi Shield Sun Gel; Ulta Beauty Broad Spectrum SPF 30 Tinted Mineral Sunscreen; Ulta Beauty Tinted Moisturizer SPF-30; Ulta Broad Spectrum SPF 30; Ultimate Protection SPF28; Ultimate Sheer; Ultimate Sheer Tinted Moisturizer 181 Nude/nue; Ultimate Sheer Tinted Moisturizer 182 Natural/naturel; Ultra Care SPF 18 Day Lotion; Ultra Hd Perfector Blurring Skin Tint With Sunscreen Broad Spectrum SPF 25 03; Ultra Hd Perfector Blurring Skin Tint With Sunscreen Broad Spectrum SPF 25 04; Ultra Hd Perfector Blurring Skin Tint With Sunscreen Broad Spectrum SPF 25 05; Ultra Hd Perfector Blurring Skin Tint With Sunscreen Broad Spectrum SPF 25 06; Ultra Hd Perfector Blurring Skin Tint With Sunscreen Broad Spectrum SPF 25 07; Ultra Hd Perfector Blurring Skin Tint With Sunscreen Broad Spectrum SPF 25 08; Ultra Hd Perfector Blurring Skin Tint With Sunscreen Broad Spectrum SPF 25 09; Ultra Hd Perfector Blurring Skin Tint With Sunscreen Broad Spectrum SPF 25 10; Ultra Hd Perfector Blurring Skin Tint With Sunscreen Broad Spectrum SPF 25 11; Ultra Hd Perfector Blurring Skin Tint With Sunscreen Broad Spectrum SPF 25 12; Ultra Le Teint Velvet Blurring Smooth-Effect Foundation Velvet Matte Finish Broad Spectrum SPF 15 Sunscreen B10; Ultra Le Teint Velvet Blurring Smooth-Effect Foundation Velvet Matte Finish Broad Spectrum SPF 15 Sunscreen B20; Ultra Le Teint Velvet Blurring Smooth-Effect Foundation Velvet Matte Finish Broad Spectrum SPF 15 Sunscreen B30; Ultra Le Teint Velvet Blurring Smooth-Effect Foundation Velvet Matte Finish Broad Spectrum SPF 15 Sunscreen B40; Ultra Le Teint Velvet Blurring Smooth-Effect Foundation Velvet Matte Finish Broad Spectrum SPF 15 Sunscreen B50; Ultra Le Teint Velvet Blurring Smooth-Effect Foundation Velvet Matte Finish Broad Spectrum SPF 15 Sunscreen B60; Ultra Le Teint Velvet Blurring Smooth-Effect Foundation Velvet Matte Finish Broad Spectrum SPF 15 Sunscreen B70; Ultra Le Teint Velvet Blurring Smooth-Effect Foundation Velvet Matte Finish Broad Spectrum SPF 15 Sunscreen BD121; Ultra Le Teint Velvet Blurring Smooth-Effect Foundation Velvet Matte Finish Broad Spectrum SPF 15 Sunscreen BD91; Ultra Le Teint Velvet Blurring Smooth-Effect Foundation Velvet Matte Finish Broad Spectrum SPF 15 Sunscreen BR12; Ultra Le Teint Velvet Blurring Smooth-Effect Foundation Velvet Matte Finish Broad Spectrum SPF 15 Sunscreen BR22; Ultra Le Teint Velvet Blurring Smooth-Effect Foundation Velvet Matte Finish Broad Spectrum SPF 15 Sunscreen BR32; Ultra Le Teint Velvet Blurring Smooth-Effect Foundation Velvet Matte Finish Broad Spectrum SPF 15 Sunscreen BR42; Ultra Moisturizing Day Care SPF 15; Ultra Protection Sunscreen Stick SPF 60; Ultra Sensitive Body Block SPF 15; Ultra Sensitive Face Block SPF 25; Ultra Sensitive Faceblock SPF 25; Ultra Shade Sunscreen SPF 30 Taheri MD; Ultra Sun Protection Cream; Ultra Sun Protection Lotion; Ultra Sun Protector Cream CRème Solaire Ultra Protection 50+; Ultra Umbrella; Ultra V IDEBENONE SKINFIT CUSHION; Ultra-fluid Body Milk Sun Protection SPF 15; Ultra-fluid Body Milk Sun Protection SPF 30; Ultra-fluid Protection SPF 20; Ultra-fluid Sun Protection SPF 30; UltraSensitive Tint SPF 30; Ultraprotection; Umbrella; Umbrella Sunscreen; Unblemish Regimen for Acne and Post Acne Marks; Unisex BB Tint- It s Clear - 6550; Unisex BB Tint- It s Clear - 6551; Unisex BB Tint- It s Clear - 6552; Unisex BB Tint- It s Clear - 6553; Unisex BB Tint- It s Clear - 6598; Unisex BB Tint- It s Clear - 6599; United Spirit of America Broad Spectrum SPF 50 Sunscreen; Unsun Broad Spectrum SPF 15 Sunscreen; Unsun Broad Spectrum SPF 30; Unsun Broad Spectrum SPF 30 Mineral; Urban Active Creme SPF 15; Urban Active Fluide SPF 15; Urban Environment Tinted Uv Protector; Urban Skin Rx DermShield All Day Sun Protection Mattifying Moisturizer SPF 30; Usana Sunblock Lotion SPF 15; Uv 50 Ecran Multi-protection SPF 50; Uv 50 Ecran Teinté Multi-protection SPF 50; Uv Essential Multi Protection; Uv Essentiel Complete Protection Antioxidant Anti-pollution Sunscreen Broad Spectrum SPF 50; Uv Essentiel Complete Sunscreen Uv Protection Anti-pollution Broad Spectrum SPF 20; Uv Essentiel Complete Sunscreen Uv Protection Anti-pollution Broad Spectrum SPF 30; Uv Essentiel Complete Sunscreen Uv Protection Anti-pollution Broad Spectrum SPF 50; Uv Essentiel Daily Defense Sunscreen Anti-pollution Broad Spectrum SPF 30; Uv Essentiel Daily Defense Sunscreen Anti-pollution Broad Spectrum SPF 50; Uv Essentiel Multi-protection Daily Sunscreen Uv Care Broad Spectrum SPF 50; Uv Essentiel SPF 50; Uv Essentiel Soin Quotidien Multi-protection Uv Daily Uv Care Multi-protection SPF 20; Uv Essentiel Soin Quotidien Multi-protection Uv Daily Uv Care Multi-protection SPF 30; Uv Essentiel Soin Quotidien Protection Uv Globale Complete Daily Uv Protection SPF 50/pa+++; Uv Lock Flower 3 Proof Sun Spf50plus Pa Plus Plus Plus; Uv Lock Flower Daily Powerful Sun Spf50plus Pa Plus Plus Plus; Uv Lock Flower Kids and Junior Sun Spf35 Pa Plus Plus; Uv Lock Flower Mild Sun Spf35 Pa Plus Plus; Uv Lock Flower Non Chemical Sun Spf50plus Pa Plus Plus Plus; Uv Lock Flower Pact Sun Spf50plus Pa Plus Plus Plus; Uv Lock Flower Sun Spf50plus Pa Plus Plus Plus; Uv Lock Flower Water Proof Sun Spf50plus Pa Plus Plus Plus; Uv Lock Ultra Milk Sun Big Size Spf50plus Pa Plus Plus Plus; Uv Lock Ultra Milk Sun Spf50plus Pa Plus Plus Plus; Uv Lock Ultra Pact Sun Spf50plus Pa Plus Plus Plus; Uv Plus Hp Day Screen High Protection; Uv Protect Face SPF 50; Uv Protect SPF 25; Uv Protection Sun Block Spf50 Pa; Uv Protective Compact Foundation (refill); Uv Protective Stick Foundation; Uv-titan M040; Uv-titan M160; Uv-titan M161; Uv-titan M170; Uv-titan M195; Uv-titan M212; Uv-titan M240; Uv-titan M262; Uv-titan M265; Uv-titan M765; Uv-total Creme Ecran Solaire Fps 30; V V Bouncing Cushion Be10; V V Bouncing Cushion Be20; V V Bouncing Cushion Bp15; VANICREAM Sunscreen BROAD SPECTRUM SPF 30; VANICREAM Sunscreen BROAD SPECTRUM SPF 50 PLUS; VERTRA Premium Suncare SPF 30; VERTRA Premium Suncare SPF 50; VERTRA Premium Suncare SPF 50 Unscented; VITAMIN C ESTER PHOTO-BRIGHTENING MOISTURIZER BROAD SPECTRUM SPF 30 15mL; VITAMIN C ESTER PHOTO-BRIGHTENING MOISTURIZER BROAD SPECTRUM SPF 30 59mL; Valentino Very Valentino Light Lasting Perfecting Foundation Broad Spectrum SPF 26 Sunscreen; Vanicream Lip Protectant/Sunscreen; Vanilla Perfecting Makeup Broad Spectrum SPF 25 Merle Norman; Vanilla Smart Finish Makeup Broad Spectrum SPF 18 Merle Norman; Vanishing Zinc Facial Sunscreen SPF 30 CVS; Vapo Ecran Solaire Fps 15; Vaseline Brand Int Care Baby Snblk Lot Spf15; Vasseur Skincare Day Matte SPF30; Veil Mineral Primer SPF 15; Verdon Outdoor Moisturizer SPF 30; Verite Sheer Sunscreen SPF 15 - Lot 6%; Vertra Ehukai Beige Face Stick SPF 38; Vertra Elemental Resistance Mick Fanning Signature SPF 28; Vertra Elemental Resistance Water Resistant Sunscreen; Vertra Mick Fanning Signature Foundation Sunscreen Face Stick SPF 35 Coolangatta Beige; Vertra Pearl White Face Stick SPF 50; Vertra Premium Suncare SPF 50; Vertra S Dorian Kona Gold Signature Face Stick SPF 38; Vertra SPF 35 Foundation Sunscreen Face Natural Beige; Vertra SPF 38 Foundation Sunscreen Face Kona Gold Shane Dorian Signature Tint; Vertra SPF 50 Foundation Sunscreen Face Translucent; Vichy Capital Soleil SPF 60 100% Mineral sunscreen Vichy 15 Mineral Rich Water Ultra Lightweight non-shiny No white residue Water Resistant; Vichy Creme Ecran Total Intol.soc. SPF 30; Vichy Laboratoires Capital Soleil 60 Mineral Sunscreen Broad Spectrum SPF 60 Water Resistant 80 Minutes Sheer Tint Ultra Lightweight; Vichy Laboratoires Dermafinish Corrective Foundation; Vichy Laboratoires Idealia Broad Spectrum SPF 25 Sunscreen BB; Vichy Laboratoires ProEven Mineral BB Broad Spectrum SPF 20 Sunscreen; Vichy Laboratories Capital Soleil UVA UVB 60 Titanium Dioxide 100% Mineral 15 Mineral Rich Water Ultra lightweight; Vichy Lait Ecran Total Intoler.sol. SPF 30; Vichy Lait Ecran Total Special Enf.SPF 25; Vichy Lait Hydratant Bronzage Progresif Spf8; Vichy Lait Protecteur SPF 15; Vichy-creme Ecran Total SPF 25; Vichy-creme Haute Protection SPF 15; Vichy-ecran Total Multi Reflec Crm Spf20; Vichy-lait Ecran Total SPF 25; Vichy-lait Solaire Special Enf Spf12; Vinefit Fluide SPF 15; Vinefit SPF 15; Virtual Matte Oil Control Makeup Broad Spectrum SPF 15; Visible Difference Multi Targeted Bb Cream Broad Spectrum Sunscreen SPF 30 Shade 1; Visible Difference Multi Targeted Bb Cream Broad Spectrum Sunscreen SPF 30 Shade 2; Visible Difference Multi Targeted Bb Cream Broad Spectrum Sunscreen SPF 30 Shade 3; Visible Difference Multi-targeted Bb Cream Broad Spectrum Sunscreen SPF 30; Visible Results SPF 15; Vita Water Drop Cc; Vital Protection SPF 15; Vitalizing Eye Cream With SPF 15; Vitalumiere Aqua Fresh and Hydrating Compact Makeup; Vitalumiere Aqua Fresh and Hydrating Compact Sunscreen Makeup Broad Spectrum SPF 15, 10 Beige; Vitalumiere Aqua Fresh and Hydrating Compact Sunscreen Makeup Broad Spectrum SPF 15, 20 Beige; Vitalumiere Aqua Fresh and Hydrating Compact Sunscreen Makeup Broad Spectrum SPF 15, 22 Beige Rose; Vitalumiere Aqua Fresh and Hydrating Compact Sunscreen Makeup Broad Spectrum SPF 15, 30 Beige; Vitalumiere Aqua Fresh and Hydrating Compact Sunscreen Makeup Broad Spectrum SPF 15, 32 Beige Rose; Vitalumiere Aqua Fresh and Hydrating Compact Sunscreen Makeup Broad Spectrum SPF 15, 40 Beige; Vitalumiere Aqua Fresh and Hydrating Compact Sunscreen Makeup Broad Spectrum SPF 15, 42 Beige Rose; Vitalumiere Aqua Fresh and Hydrating Compact Sunscreen Makeup Broad Spectrum SPF 15, 50 Beige; Vitalumiere Aqua Fresh and Hydrating Compact Sunscreen Makeup Broad Spectrum SPF 15, 52 Beige Rose; Vitalumiere Aqua Fresh and Hydrating Compact Sunscreen Makeup Broad Spectrum SPF 15, 60 Beige; Vitalumiere Aqua SPF 15; Vitalumiere Aqua Ultra-light Skin Perfecting Sunscreen Makeup Broad Spectrum SPF 15, 10 Beige; Vitalumiere Aqua Ultra-light Skin Perfecting Sunscreen Makeup Broad Spectrum SPF 15, 12 Beige Rose; Vitalumiere Aqua Ultra-light Skin Perfecting Sunscreen Makeup Broad Spectrum SPF 15, 121; Vitalumiere Aqua Ultra-light Skin Perfecting Sunscreen Makeup Broad Spectrum SPF 15, 132; Vitalumiere Aqua Ultra-light Skin Perfecting Sunscreen Makeup Broad Spectrum SPF 15, 152; Vitalumiere Aqua Ultra-light Skin Perfecting Sunscreen Makeup Broad Spectrum SPF 15, 20 Beige; Vitalumiere Aqua Ultra-light Skin Perfecting Sunscreen Makeup Broad Spectrum SPF 15, 21 Beige; Vitalumiere Aqua Ultra-light Skin Perfecting Sunscreen Makeup Broad Spectrum SPF 15, 22 Beige Rose; Vitalumiere Aqua Ultra-light Skin Perfecting Sunscreen Makeup Broad Spectrum SPF 15, 30 Beige; Vitalumiere Aqua Ultra-light Skin Perfecting Sunscreen Makeup Broad Spectrum SPF 15, 32 Beige Rose; Vitalumiere Aqua Ultra-light Skin Perfecting Sunscreen Makeup Broad Spectrum SPF 15, 40 Beige; Vitalumiere Aqua Ultra-light Skin Perfecting Sunscreen Makeup Broad Spectrum SPF 15, 42 Beige Rose; Vitalumiere Aqua Ultra-light Skin Perfecting Sunscreen Makeup Broad Spectrum SPF 15, 50 Beige; Vitalumiere Aqua Ultra-light Skin Perfecting Sunscreen Makeup Broad Spectrum SPF 15, 52 Beige Rose; Vitalumiere Aqua Ultra-light Skin Perfecting Sunscreen Makeup Broad Spectrum SPF 15, 60 Beige; Vitalumiere Aqua Ultra-light Skin Perfecting Sunscreen Makeup Broad Spectrum SPF 15, 70 Beige; Vitalumiere Aqua Ultra-light Skin Perfecting Sunscreen Makeup Broad Spectrum SPF 15, 91; Vitalumière Aqua; Vitaplus fore; Vitaplus ore; Vivid Tint Bar 02 Spf15 Pa Plus; VivierSkin Sun Protection SPF 45; Vmv Hypoallergenics Armada 30; Vmv Hypoallergenics Armada Baby 50; Vmv Hypoallergenics Armada Post Procedure 50 Plus; Voile Universel-SPF 15; W Honey Beam Cushion 21; W Honey Beam Cushion 23; W Lab BLOSSOM WHITE CUSHION 13 Blossom White; W Lab BLOSSOM WHITE CUSHION 21 Blossom Light; W Lab BLOSSOM WHITE CUSHION 23 Blossom Beige; WELLAGE Post Procedure Point Concealer; WILMA SCHUMANN Moisture Protektiv Day Cream SPF-20; WKND UNDERWATER SUN SCREEN 40mL; Walgreens Baby SPF50; Walgreens Kids Baby SPF 50; Wander PACK UP and GLOW; Warm Dark Original; Warm Deep Original; Warm Ginger Always Color Stay-On Makeup SPF 10; Warm Ginger Always color stay-on Makeup Broad Spectrum SPF 15 Jafra; Warm Honey Always Color Stay-on Makeup Broad Spectrum SPF 15 Jafra; Warm Honey Perfecting Makeup Broad Spectrum SPF 25 Merle Norman; Warm Tan Foundation SPF 15; Warrior Broad Spectrum SPF 30 Sunscreen Minerals Formula; Warrior Broad Spectrum SPF 50 Sunscreen Minerals Formula; Warrior SPF 50; Watermelon Facial Sunblock SPF 20 Stk; Watermelon Sun Block Unfragranced SPF 20; Watermelon Sunblock SPF 20 Unfragranced Eml; Waterproof SPF-15 Sunblock Lotion; Weather Everything Environmental Cream SPF 15; Wet n Wild Fergie BB Cream SPF 15; Whamisa Organic Carrot Baby Kids Suncream SPF 14 Pa; Whamisa Organic Flowers Suncream SPF 14 Pa; White 81 Tone Up Stick; White Hand Sanitizer; White Holic 100mL; White Holic 50mL; White Stick; Whitening Glycobest; Whoo Gong Jin Hyang Jin Hae Yoon Sun; Whoo Gongjinhyang Mi Make Up Pact 1; Whoo Gongjinhyang Mi Make Up Pact 2; Whoo Gongjinhyang Seol Whitening Jinaek Program Kit; Wiklar Uv Cover Shield; Wild Mint Clear SPF 45; Wknd Underwater Sun Screen 50ml; Wknd Underwater Sun Screen 80ml; Wknd Underwater Sun Tan; Wknd Underwater Sun White; Wl-aae-ZT-O-1258; Wl-aae-ZT-O-1337; Wl-aae-ZT-O-391; Wl-aae-ZT-O-400; Wl-aae-ZT-O-408; Wl-aae-ZT-O-413; Wl-aae-ZT-O-414; Wl-aae-ZT-O-416; Wl-aae-ZT-O-492; Wl-aai-ZT-P-522; Wl-aai-ZT-P-523; Wl-aai-ZT-P-524; Wonder Intensive BBCream 21 (Light); XXL Demi Make Up SPF 50; XXL Sun Block SPF 50; YIGANERJING SuifurSoap; YOU-V SPF-30 Broad Spectrum Sunscreen; YOUNG AND CLEAR Mineral Moisturizer Broad Spectrum SPF30 Sunscreen; YOUNG and CLEAR - Mineral Moisturizer Broad Spectrum SPF 30 Sunscreen; Yadah Airpowder Pact 19 Light Beige; Yadah Airpowder Pact 21 Natural Beige; Yadah Be My Cushion 21 Light Beige; Yadah Be My Cushion 23 Natural Beige; Yadah Oh My Sun Block; Yadah Silky Fit Concealer Bb Power Brightening; Yadah Twin Angel Bb; Yanbal Polvos Compactos Pressed Sunscreen SPF 12 Tono 1; Yanbal Polvos Compactos Pressed Sunscreen SPF 12 Tono 2-3; Yanbal Polvos Compactos Pressed Sunscreen SPF 12 Tono 4-5; Yanbal Polvos Compactos Pressed Sunscreen SPF 12 Tono 6-7; Yensa Bc Foundation SPF 40; Yes To Blueberries Daily Repairing Moisturizer SPF30; Yes To Carrots Daily Facial Moisturizer SPF 15; Yes To Carrots Fragrance-free Daily Facial Moisturizer Spf15; Yes To Cucumbers Daily Moisturizer SPF 30; Yes To Cucumbers Natural Sunscreen SPF 30; Yes To Cucumbers Natural Sunscreen SPF 30 Stick; Yes To Cucumbers Natural Sunscreen SPF 40 Kids; Yes To Grapefruit Cc Cream - Light; Yes To Grapefruit Cc Cream - Light/medium; Yes To Grapefruit Moisturizer with SPF15; Yes to Natural Man Broad Spectrum SPF 15 Face; Your Name Cosmetics Brightening CC Cream Broad Spectrum SPF 20; Your Name Cosmetics Mineral Sheet Tint Broad Spectrum SPF 20; Your Skin But Better Cc Airbrush Perfecting Deep; Your Skin But Better Cc Airbrush Perfecting Fair; Your Skin But Better Cc Airbrush Perfecting Illumination Deep; Your Skin But Better Cc Airbrush Perfecting Illumination Fair; Your Skin But Better Cc Airbrush Perfecting Illumination Light; Your Skin But Better Cc Airbrush Perfecting Illumination Medium; Your Skin But Better Cc Airbrush Perfecting Illumination Medium Tan; Your Skin But Better Cc Airbrush Perfecting Illumination Rich; Your Skin But Better Cc Airbrush Perfecting Illumination Tan; Your Skin But Better Cc Airbrush Perfecting Light; Your Skin But Better Cc Airbrush Perfecting Medium; Your Skin But Better Cc Airbrush Perfecting Medium Tan; Your Skin But Better Cc Airbrush Perfecting Rich; Your Skin But Better Cc Airbrush Perfecting Tan; Your Skin But Better Cc Bronzer Bronze Glow; Your Skin But Better Cc Color Correcting Full Coverage SPF 50 Deep; Your Skin But Better Cc Color Correcting Full Coverage SPF 50 Fair; Your Skin But Better Cc Color Correcting Full Coverage SPF 50 Light; Your Skin But Better Cc Color Correcting Full Coverage SPF 50 Medium; Your Skin But Better Cc Color Correcting Full Coverage SPF 50 Medium Tan; Your Skin But Better Cc Color Correcting Full Coverage SPF 50 Medium-tan; Your Skin But Better Cc Color Correcting Full Coverage SPF 50 Rich; Your Skin But Better Cc Color Correcting Full Coverage SPF 50 Tan; Your Skin But Better Cc Eye Fair; Your Skin But Better Cc Eye Light; Your Skin But Better Cc Eye Medium; Your Skin But Better Cc Eye Rich; Your Skin But Better Cc Eye Tan; Your Skin But Better Cc Illumination Deep; Your Skin But Better Cc Illumination Fair; Your Skin But Better Cc Illumination Light; Your Skin But Better Cc Illumination Medium; Your Skin But Better Cc Illumination Medium-tan; Your Skin But Better Cc Illumination Rich; Your Skin But Better Cc Illumination Tan; Your Skin But Better Fair; Your Skin But Better Light; Youth 1 Activating BB Cream SPF 30 Light; Youth 2 Activating BB Cream SPF 30 Light Medium; Youth 3 Activating BB Cream SPF 30 Medium; Youth 4 Activating BB Cream SPF 30 Dark; Youth Activating BB SPF30 Shade 3; Youth Code Bb Cream Illuminator; Youth Full Tinted Moisturizer SPF 15; Youth Protection SPF 30; Youth Surge SPF 15 Age Decelerating Moisturizer Anti Rides Hydratant; Youth Surge SPF 15 Age Decelerating Moisturizer Dry Combination Skin; Youthful Look; Youthful Wear Cosmeceutical Youth Boosting Spotless CC Cream; Youthful Wear Spotless Powder SPF 15; Youthtopia Skin Firming Foundation SPF 15; Yria Teint Frais Creme Teintee Vitaminee; Yria Teint Rayonnant Fond De Teint Diffuseur De Lumiere Fps 14 Teintes 240, 241, 340, 341, 440, 441; Yria Teint Rayonnant Fond De Teint Diffuseur De Lumiere Fps14 Teintes 140 Et 141; Yves Saint Laurent All Hours Foundation Broad Spectrum SPF 20 Sunscreen Luminous Matte Foundation; Yves Saint Laurent All Hours Foundation Broad Spectrum SPF 30 Sunscreen Luminous Matte Foundation; Yves Saint Laurent Forever Light Creator CC Primer Color Correcting Primer Broad Spectrum SPF 35 Sunscreen; Yves Saint Laurent Teint Resist Long Wear Endless Comfort Transfer Resistant Foundation SPF 10; Yves Saint Laurent Top Secrets CC Primer Color Correcting Primer Broad Spectrum SPF 35 Sunscreen; ZERMAT Sunscreen Broad Spectrum SPF 50 For Daily Use Non-Water Resistant; ZERMAT Sunscreen SPF 50 For Daily Use; ZO MEDICAL OCLIPSE-C Broad-Spectrum Sunscreen SPF 50; ZO MEDICAL ZO NON-HYDROQUINONE HYPERPIGMENTATION SYSTEM For Restoring Even Skin Tone; ZO MEDICAL ZO NON-HYDROQUINONE HYPERPIGMENTATION SYSTEM For Skin Brightening; ZO SKIN HEALTH Aggressive Anti-Aging Program; ZO SKIN HEALTH Daily Skincare Program; ZO SKIN HEALTH LEVEL I DAILY SKINCARE PROGRAM Essentials for Healthy Skin; ZO SKIN HEALTH LEVEL II ANTI-AGING PROGRAM with Growth Factor Serum Plus; ZO SKIN HEALTH LEVEL III AGGRESSIVE ANTI-AGING PROGRAM with Advanced Radical Night Repair; ZO SKIN HEALTH OSSENTIAL DAILY POWER DEFENSE ANTI-AGING FORMULA and OCLIPSE SUNSCREEN PLUS PRIMER BROAD SPECTRUM SPF 30 UVA/UVB PROTECTION; ZO SKIN HEALTH SunSmart Triple Protection Program Natural Melanin and Antioxidant Defenders with Sunscreen plus Primer SPF 30; ZO Skin Health Anti-Aging Program; ZO Skin Health Broad-Spectrum Sunscreen SPF 50; ZO Skin Health Sunscreen Plus Broad-Spectrum SPF 40 Medium; ZO Skin Health Sunscreen Plus Primer Broad-Spectrum SPF 30; ZO Skin Health Sunscreen plus Broad-Spectrum SPF 40 Deep; ZO Skin Health Sunscreen plus Broad-Spectrum SPF 40 Light; ZO Skin Health ZO Favorites (Mothers Day GWP); Zinc Oxide, Titanium Dioxide; Zinc Spf30 Ltn Cvs; Zo Medical Zo Multi-therapy Hydroquinone System; Zo Skin Health Oclipse Sunscreen Plus Primer Broad-spectrum SPF 30 Uva/uvb Protection; Zo Skin Health Renew; a.c. care Bees Sun Protection; a.c.care Bees Shield B.B Cream SPF 35; a.c.care Bees Shield B.B UV Moisturizer SPF 35; a.c.care Bees Sun Protection UV Moisturizer SPF 50; ac care Bees Shield BB Broad Spectrum SPF 35; ac care Bees Sun Protection Broad Spectrum SPF 50; anna lotan PRO CC Color Control SPF25 Broad Spectrum Protection for All Skin Types; anna lotan PRO PORCELAIN COVER SPF32 Tinted with Broad Spectrum Protection for All Skin Types; anna lotan PRO Protective LIGHTENING CARE UVA/UVB SPF 15 For Sun Damaged Skin; aqua fit cushion C11; aqua fit cushion C13; aqua fit cushion C21; aqua fit cushion C43; aqua fit cushion N21; aqua fit cushion N23; aqua fit cushion N27; aqua fit cushion N31; aqua fit cushion W21; aqua fit cushion W23; aqua fit cushion W33; aqua fit cushion W34; aqua fit cushion W35; aqua fit cushion W37; balance-n-brighten FAIR; balance-n-brighten Porcelain; balance-n-brighten Regular; balance-n-brighten TAN; bareMinerals 5-in-1 BB Advanced Performance Eyeshadow Broad Spectrum SPF 15 Barely Nude; bareMinerals 5-in-1 BB Advanced Performance Eyeshadow Broad Spectrum SPF 15 Blushing Pink; bareMinerals 5-in-1 BB Advanced Performance Eyeshadow Broad Spectrum SPF 15 Candlelit Peach; bareMinerals 5-in-1 BB Advanced Performance Eyeshadow Broad Spectrum SPF 15 Delicate Moss; bareMinerals 5-in-1 BB Advanced Performance Eyeshadow Broad Spectrum SPF 15 Divine Wine; bareMinerals 5-in-1 BB Advanced Performance Eyeshadow Broad Spectrum SPF 15 Elegant Taupe; bareMinerals 5-in-1 BB Advanced Performance Eyeshadow Broad Spectrum SPF 15 Radiant Sand; bareMinerals 5-in-1 BB Advanced Performance Eyeshadow Broad Spectrum SPF 15 Soft Linen; bareMinerals 5-in-1 BB Advanced Performance Eyeshadow Broad Spectrum SPF 15 Soft Shell; bareMinerals 5-in-1 BB Advanced Performance Eyeshadow Broad Spectrum SPF 15 Sweet Spice; bareMinerals 5-in-1 BB Advanced Performance Mineral Veil Finishing Broad Spectrum SPF 20; bareMinerals Advanced Protection SPF 20 Moisturizer Combination Skin; bareMinerals Advanced Protection SPF 20 Moisturizer Normal to Dry Skin; bareMinerals Advanced Protection SPF 20 Moisturizer Sheer Tint Combination Skin; bareMinerals Advanced Protection SPF 20 Moisturizer Sheer Tint Normal to Dry Skin; bareMinerals BAREPRO Performance Wear Liquid Foundation Broad Spectrum SPF 20 Almond 22; bareMinerals BAREPRO Performance Wear Liquid Foundation Broad Spectrum SPF 20 Aspen 04; bareMinerals BAREPRO Performance Wear Liquid Foundation Broad Spectrum SPF 20 Butterscotch 15.5; bareMinerals BAREPRO Performance Wear Liquid Foundation Broad Spectrum SPF 20 Camel 17; bareMinerals BAREPRO Performance Wear Liquid Foundation Broad Spectrum SPF 20 Cappuccino 27; bareMinerals BAREPRO Performance Wear Liquid Foundation Broad Spectrum SPF 20 Cardamom 23; bareMinerals BAREPRO Performance Wear Liquid Foundation Broad Spectrum SPF 20 Cashmere 06; bareMinerals BAREPRO Performance Wear Liquid Foundation Broad Spectrum SPF 20 Chai 26; bareMinerals BAREPRO Performance Wear Liquid Foundation Broad Spectrum SPF 20 Champagne 03; bareMinerals BAREPRO Performance Wear Liquid Foundation Broad Spectrum SPF 20 Cinnamon 25; bareMinerals BAREPRO Performance Wear Liquid Foundation Broad Spectrum SPF 20 Clove 28; bareMinerals BAREPRO Performance Wear Liquid Foundation Broad Spectrum SPF 20 Cocoa 30; bareMinerals BAREPRO Performance Wear Liquid Foundation Broad Spectrum SPF 20 Cool Beige 10; bareMinerals BAREPRO Performance Wear Liquid Foundation Broad Spectrum SPF 20 Dawn 02; bareMinerals BAREPRO Performance Wear Liquid Foundation Broad Spectrum SPF 20 Espresso 27; bareMinerals BAREPRO Performance Wear Liquid Foundation Broad Spectrum SPF 20 Fair 01; bareMinerals BAREPRO Performance Wear Liquid Foundation Broad Spectrum SPF 20 Fawn 17; bareMinerals BAREPRO Performance Wear Liquid Foundation Broad Spectrum SPF 20 Flax 9.5; bareMinerals BAREPRO Performance Wear Liquid Foundation Broad Spectrum SPF 20 Golden Ivory 08; bareMinerals BAREPRO Performance Wear Liquid Foundation Broad Spectrum SPF 20 Golden Nude 13; bareMinerals BAREPRO Performance Wear Liquid Foundation Broad Spectrum SPF 20 Hazelnut 25; bareMinerals BAREPRO Performance Wear Liquid Foundation Broad Spectrum SPF 20 Honeycomb 20; bareMinerals BAREPRO Performance Wear Liquid Foundation Broad Spectrum SPF 20 Ivory 02; bareMinerals BAREPRO Performance Wear Liquid Foundation Broad Spectrum SPF 20 Latte 24; bareMinerals BAREPRO Performance Wear Liquid Foundation Broad Spectrum SPF 20 Light Natural 09; bareMinerals BAREPRO Performance Wear Liquid Foundation Broad Spectrum SPF 20 Linen 10.5; bareMinerals BAREPRO Performance Wear Liquid Foundation Broad Spectrum SPF 20 Maple 24.5; bareMinerals BAREPRO Performance Wear Liquid Foundation Broad Spectrum SPF 20 Mocha 31; bareMinerals BAREPRO Performance Wear Liquid Foundation Broad Spectrum SPF 20 Natural 11; bareMinerals BAREPRO Performance Wear Liquid Foundation Broad Spectrum SPF 20 Nutmeg 24; bareMinerals BAREPRO Performance Wear Liquid Foundation Broad Spectrum SPF 20 Oak 20; bareMinerals BAREPRO Performance Wear Liquid Foundation Broad Spectrum SPF 20 Pecan 18; bareMinerals BAREPRO Performance Wear Liquid Foundation Broad Spectrum SPF 20 Porcelain 0.5; bareMinerals BAREPRO Performance Wear Liquid Foundation Broad Spectrum SPF 20 Sable 21; bareMinerals BAREPRO Performance Wear Liquid Foundation Broad Spectrum SPF 20 Sandalwood 15; bareMinerals BAREPRO Performance Wear Liquid Foundation Broad Spectrum SPF 20 Sandstone 16; bareMinerals BAREPRO Performance Wear Liquid Foundation Broad Spectrum SPF 20 Sateen 05; bareMinerals BAREPRO Performance Wear Liquid Foundation Broad Spectrum SPF 20 Shell 7.5; bareMinerals BAREPRO Performance Wear Liquid Foundation Broad Spectrum SPF 20 Silk 14; bareMinerals BAREPRO Performance Wear Liquid Foundation Broad Spectrum SPF 20 Teak 22; bareMinerals BAREPRO Performance Wear Liquid Foundation Broad Spectrum SPF 20 Toffee 19; bareMinerals BAREPRO Performance Wear Liquid Foundation Broad Spectrum SPF 20 Truffle 29; bareMinerals BAREPRO Performance Wear Liquid Foundation Broad Spectrum SPF 20 Walnut 23; bareMinerals BAREPRO Performance Wear Liquid Foundation Broad Spectrum SPF 20 Warm Light 07; bareMinerals BAREPRO Performance Wear Liquid Foundation Broad Spectrum SPF 20 Warm Natural 12; bareMinerals BarePRO Made-2-Fit Performance Wear Foundation Broad Spectrum SPF 15; bareMinerals Complexion Rescue Brightening Concealer SPF 25 Deep Chestnut; bareMinerals Complexion Rescue Brightening Concealer SPF 25 Deep Cinnamon; bareMinerals Complexion Rescue Brightening Concealer SPF 25 Deep Mahogany; bareMinerals Complexion Rescue Brightening Concealer SPF 25 Deep Sienna; bareMinerals Complexion Rescue Brightening Concealer SPF 25 Fair Birch; bareMinerals Complexion Rescue Brightening Concealer SPF 25 Fair Opal; bareMinerals Complexion Rescue Brightening Concealer SPF 25 Fair Vanilla; bareMinerals Complexion Rescue Brightening Concealer SPF 25 Light Bamboo; bareMinerals Complexion Rescue Brightening Concealer SPF 25 Light Cashew; bareMinerals Complexion Rescue Brightening Concealer SPF 25 Medium Deep Desert; bareMinerals Complexion Rescue Brightening Concealer SPF 25 Medium Deep Spice; bareMinerals Complexion Rescue Brightening Concealer SPF 25 Medium Deep Tan Amber; bareMinerals Complexion Rescue Brightening Concealer SPF 25 Medium Natural Pecan; bareMinerals Complexion Rescue Brightening Concealer SPF 25 Medium Suede; bareMinerals Complexion Rescue Brightening Concealer SPF 25 Medium Wheat; bareMinerals Complexion Rescue Broad Spectrum SPF 30 Buttercream 03; bareMinerals Complexion Rescue Broad Spectrum SPF 30 Chestnut 09; bareMinerals Complexion Rescue Broad Spectrum SPF 30 Ginger 06; bareMinerals Complexion Rescue Broad Spectrum SPF 30 Natural 05; bareMinerals Complexion Rescue Broad Spectrum SPF 30 Opal 01; bareMinerals Complexion Rescue Broad Spectrum SPF 30 Sienna 10; bareMinerals Complexion Rescue Broad Spectrum SPF 30 Spice 08; bareMinerals Complexion Rescue Broad Spectrum SPF 30 Suede 04; bareMinerals Complexion Rescue Broad Spectrum SPF 30 Tan 07; bareMinerals Complexion Rescue Broad Spectrum SPF 30 Vanilla 02; bareMinerals Complexion Rescue Defense Radiant Protective Veil Broad Spectrum SPF 30 Soft Radiance; bareMinerals Complexion Rescue Hydrating Foundation Broad Spectrum SPF 25 Bamboo 2.5NW; bareMinerals Complexion Rescue Hydrating Foundation Broad Spectrum SPF 25 Birch 1.5 NW; bareMinerals Complexion Rescue Hydrating Foundation Broad Spectrum SPF 25 Buttercream 2W; bareMinerals Complexion Rescue Hydrating Foundation Broad Spectrum SPF 25 Cashew 2.5CN; bareMinerals Complexion Rescue Hydrating Foundation Broad Spectrum SPF 25 Cedar 6C; bareMinerals Complexion Rescue Hydrating Foundation Broad Spectrum SPF 25 Chestnut 5N; bareMinerals Complexion Rescue Hydrating Foundation Broad Spectrum SPF 25 Cinnamon 5.5NW; bareMinerals Complexion Rescue Hydrating Foundation Broad Spectrum SPF 25 Desert 4NW; bareMinerals Complexion Rescue Hydrating Foundation Broad Spectrum SPF 25 Dune 3.5NW; bareMinerals Complexion Rescue Hydrating Foundation Broad Spectrum SPF 25 Ginger 3W; bareMinerals Complexion Rescue Hydrating Foundation Broad Spectrum SPF 25 Mahogany 6N; bareMinerals Complexion Rescue Hydrating Foundation Broad Spectrum SPF 25 Natural 3.5CN; bareMinerals Complexion Rescue Hydrating Foundation Broad Spectrum SPF 25 Opal 1C; bareMinerals Complexion Rescue Hydrating Foundation Broad Spectrum SPF 25 Sienna 5.5CN; bareMinerals Complexion Rescue Hydrating Foundation Broad Spectrum SPF 25 Spice 4W; bareMinerals Complexion Rescue Hydrating Foundation Broad Spectrum SPF 25 Suede 3.5C; bareMinerals Complexion Rescue Hydrating Foundation Broad Spectrum SPF 25 Tan 4CN; bareMinerals Complexion Rescue Hydrating Foundation Broad Spectrum SPF 25 Terra 4.5W; bareMinerals Complexion Rescue Hydrating Foundation Broad Spectrum SPF 25 Vanilla 1N; bareMinerals Complexion Rescue Hydrating Foundation Broad Spectrum SPF 25 Wheat 3N; bareMinerals Complexion Rescue Tinted Hydrating Broad Spectrum SPF 30 Bamboo 5.5; bareMinerals Complexion Rescue Tinted Hydrating Broad Spectrum SPF 30 Birch 1.5; bareMinerals Complexion Rescue Tinted Hydrating Broad Spectrum SPF 30 Cashew 3.5; bareMinerals Complexion Rescue Tinted Hydrating Broad Spectrum SPF 30 Cedar 11; bareMinerals Complexion Rescue Tinted Hydrating Broad Spectrum SPF 30 Cinnamon 10.5; bareMinerals Complexion Rescue Tinted Hydrating Broad Spectrum SPF 30 Desert 6.5; bareMinerals Complexion Rescue Tinted Hydrating Broad Spectrum SPF 30 Dune 7.5; bareMinerals Complexion Rescue Tinted Hydrating Broad Spectrum SPF 30 Mahogany 11.5; bareMinerals Complexion Rescue Tinted Hydrating Broad Spectrum SPF 30 Terra 8.5; bareMinerals Complexion Rescue Tinted Hydrating Broad Spectrum SPF 30 Wheat 4.5; bareMinerals Daily Defense Broad Spectrum SPF 30; bareMinerals Matte Foundation Broad Spectrum SPF 15 Deepest Deep; bareMinerals Matte Foundation Broad Spectrum SPF 15 Fair; bareMinerals Matte Foundation Broad Spectrum SPF 15 Fair Ivory; bareMinerals Matte Foundation Broad Spectrum SPF 15 Fairly Light; bareMinerals Matte Foundation Broad Spectrum SPF 15 Fairly Medium; bareMinerals Matte Foundation Broad Spectrum SPF 15 Golden Beige; bareMinerals Matte Foundation Broad Spectrum SPF 15 Golden Dark; bareMinerals Matte Foundation Broad Spectrum SPF 15 Golden Deep; bareMinerals Matte Foundation Broad Spectrum SPF 15 Golden Fair; bareMinerals Matte Foundation Broad Spectrum SPF 15 Golden Ivory; bareMinerals Matte Foundation Broad Spectrum SPF 15 Golden Medium; bareMinerals Matte Foundation Broad Spectrum SPF 15 Golden Nude; bareMinerals Matte Foundation Broad Spectrum SPF 15 Golden Tan; bareMinerals Matte Foundation Broad Spectrum SPF 15 Light; bareMinerals Matte Foundation Broad Spectrum SPF 15 Light Beige; bareMinerals Matte Foundation Broad Spectrum SPF 15 Medium; bareMinerals Matte Foundation Broad Spectrum SPF 15 Medium Beige; bareMinerals Matte Foundation Broad Spectrum SPF 15 Medium Dark; bareMinerals Matte Foundation Broad Spectrum SPF 15 Medium Tan; bareMinerals Matte Foundation Broad Spectrum SPF 15 Neutral Dark; bareMinerals Matte Foundation Broad Spectrum SPF 15 Neutral Deep; bareMinerals Matte Foundation Broad Spectrum SPF 15 Neutral Ivory; bareMinerals Matte Foundation Broad Spectrum SPF 15 Neutral Medium; bareMinerals Matte Foundation Broad Spectrum SPF 15 Neutral Tan; bareMinerals Matte Foundation Broad Spectrum SPF 15 Soft Medium; bareMinerals Matte Foundation Broad Spectrum SPF 15 Tan; bareMinerals Matte Foundation Broad Spectrum SPF 15 Tan Nude; bareMinerals Matte Foundation Broad Spectrum SPF 15 Warm Dark; bareMinerals Matte Foundation Broad Spectrum SPF 15 Warm Deep; bareMinerals Matte Foundation Broad Spectrum SPF 15 Warm Tan; bareMinerals Medium Beige Matte; bareMinerals Multi-Tasking SPF 20 Concealer Bisque; bareMinerals Multi-Tasking SPF 20 Concealer Deep Bisque; bareMinerals Multi-Tasking SPF 20 Concealer Honey Bisque; bareMinerals Multi-Tasking SPF 20 Concealer Summer Bisque; bareMinerals Natural Sunscreen Light; bareMinerals Original Foundation Broad Spectrum SPF 15 Fair Ivory; bareMinerals Original Foundation Broad Spectrum SPF 15 Fairly Light 03; bareMinerals Original Foundation Broad Spectrum SPF 15 Fairly Medium 05; bareMinerals Original Foundation Broad Spectrum SPF 15 Golden Beige; bareMinerals Original Foundation Broad Spectrum SPF 15 Golden Dark 25; bareMinerals Original Foundation Broad Spectrum SPF 15 Golden Deep 28; bareMinerals Original Foundation Broad Spectrum SPF 15 Golden Fair 04; bareMinerals Original Foundation Broad Spectrum SPF 15 Golden Ivory; bareMinerals Original Foundation Broad Spectrum SPF 15 Golden Medium 14; bareMinerals Original Foundation Broad Spectrum SPF 15 Golden Nude; bareMinerals Original Foundation Broad Spectrum SPF 15 Golden Tan 20; bareMinerals Original Foundation Broad Spectrum SPF 15 Light 08; bareMinerals Original Foundation Broad Spectrum SPF 15 Light Beige; bareMinerals Original Foundation Broad Spectrum SPF 15 Medium 10; bareMinerals Original Foundation Broad Spectrum SPF 15 Medium Beige 12; bareMinerals Original Foundation Broad Spectrum SPF 15 Medium Dark 23; bareMinerals Original Foundation Broad Spectrum SPF 15 Medium Tan 18; bareMinerals Original Foundation Broad Spectrum SPF 15 Neutral Ivory; bareMinerals Original Foundation Broad Spectrum SPF 15 Neutral Medium; bareMinerals Original Foundation Broad Spectrum SPF 15 Neutral Tan; bareMinerals Original Foundation Broad Spectrum SPF 15 Soft Medium; bareMinerals Original Foundation Broad Spectrum SPF 15 Tan 19; bareMinerals Original Foundation Broad Spectrum SPF 15 Tan Nude; bareMinerals Original Foundation Broad Spectrum SPF 15 Warm Dark 26; bareMinerals Original Foundation Broad Spectrum SPF 15 Warm Deep 27; bareMinerals Original Foundation Broad Spectrum SPF 15 Warm Tan 22; bareMinerals Prep Step Mineral Shield Broad Spectrum SPF 50 Daily Prep; bareMinerals Prime Time BB Primer Daily Defense Broad Spectrum SPF 30 Fair; bareMinerals Prime Time BB Primer Daily Defense Broad Spectrum SPF 30 Light; bareMinerals Prime Time BB Primer Daily Defense Broad Spectrum SPF 30 Medium; bareMinerals Prime Time BB Primer Daily Defense Broad Spectrum SPF 30 Tan; bareMinerals Prime Time BB Primer-Cream Broad Spectrum SPF 30 Light; bareMinerals Prime Time BB Primer-Cream Broad Spectrum SPF 30 Medium; bareMinerals READY Touch Up Veil Broad Spectrum SPF 15 Dark; bareMinerals READY Touch Up Veil Broad Spectrum SPF 15 Deep; bareMinerals READY Touch Up Veil Broad Spectrum SPF 15 Light; bareMinerals READY Touch Up Veil Broad Spectrum SPF 15 Medium; bareMinerals READY Touch Up Veil Broad Spectrum SPF 15 Tan; bareMinerals READY Touch Up Veil Broad Spectrum SPF 15 Translucent; bareMinerals Skinlongevity Vital Power Moisturizer Broad Spectrum SPF 30; bareMinerals Well-rested; bareMinerals bareSkin Pure Brightening Serum Foundation Broad Spectrum SPF 20 Bare Almond; bareMinerals bareSkin Pure Brightening Serum Foundation Broad Spectrum SPF 20 Bare Beige; bareMinerals bareSkin Pure Brightening Serum Foundation Broad Spectrum SPF 20 Bare Buff; bareMinerals bareSkin Pure Brightening Serum Foundation Broad Spectrum SPF 20 Bare Caramel; bareMinerals bareSkin Pure Brightening Serum Foundation Broad Spectrum SPF 20 Bare Cream; bareMinerals bareSkin Pure Brightening Serum Foundation Broad Spectrum SPF 20 Bare Espresso; bareMinerals bareSkin Pure Brightening Serum Foundation Broad Spectrum SPF 20 Bare Honey; bareMinerals bareSkin Pure Brightening Serum Foundation Broad Spectrum SPF 20 Bare Ivory; bareMinerals bareSkin Pure Brightening Serum Foundation Broad Spectrum SPF 20 Bare Latte; bareMinerals bareSkin Pure Brightening Serum Foundation Broad Spectrum SPF 20 Bare Linen; bareMinerals bareSkin Pure Brightening Serum Foundation Broad Spectrum SPF 20 Bare Maple; bareMinerals bareSkin Pure Brightening Serum Foundation Broad Spectrum SPF 20 Bare Mocha; bareMinerals bareSkin Pure Brightening Serum Foundation Broad Spectrum SPF 20 Bare Natural; bareMinerals bareSkin Pure Brightening Serum Foundation Broad Spectrum SPF 20 Bare Nude; bareMinerals bareSkin Pure Brightening Serum Foundation Broad Spectrum SPF 20 Bare Porcelain; bareMinerals bareSkin Pure Brightening Serum Foundation Broad Spectrum SPF 20 Bare Sand; bareMinerals bareSkin Pure Brightening Serum Foundation Broad Spectrum SPF 20 Bare Satin; bareMinerals bareSkin Pure Brightening Serum Foundation Broad Spectrum SPF 20 Bare Shell; bareMinerals bareSkin Pure Brightening Serum Foundation Broad Spectrum SPF 20 Bare Tan; bareMinerals bareSkin Pure Brightening Serum Foundation Broad Spectrum SPF 20 Bare Walnut; belif Moisturizing bomb cushion compact - light beige; belif Moisturizing bomb cushion compact - natural beige; benefit BIG EASY BROAD SPECTRUM SPF 35 SUNSCREEN multi-balancing complexion perfector - 01 FAIR; benefit BIG EASY BROAD SPECTRUM SPF 35 SUNSCREEN multi-balancing complexion perfector - 02 LIGHT; benefit BIG EASY BROAD SPECTRUM SPF 35 SUNSCREEN multi-balancing complexion perfector - 03 LIGHTMEDIUM; benefit BIG EASY BROAD SPECTRUM SPF 35 SUNSCREEN multi-balancing complexion perfector - 04 MEDIUM; benefit BIG EASY BROAD SPECTRUM SPF 35 SUNSCREEN multi-balancing complexion perfector - 05 BEIGE; benefit BIG EASY BROAD SPECTRUM SPF 35 SUNSCREEN multi-balancing complexion perfector - 06 DEEP BEIGE; bright guard SPF-30 SUNSCREEN; bronze-n-brighten FAIR; bronze-n-brighten REGULAR; celesty colors special edition with ALIX AVIEN FOUNDATION; chorus Supernatural PROTECT SPF 30 broad spectrum sunscreen; chorus Supernatural SHIELD SPF30 broad spectrum sunscreen; ck one 3-in-1 face makeup with SPF 8 sunscreen; ck one 3-in-1 face makeup with SPF 8 sunscreen 050 Ivory; ck one 3-in-1 face makeup with SPF 8 sunscreen 350 Warm Sand; ck one 3-in-1 face makeup with SPF 8 sunscreen 850 Toffee; ck one 3-in-1 face makeup with SPF 8 sunscreen 900 Walnut; ck one 3-in-1 face makeup with SPF 8 sunscreen 950 Espresso; ck one all day perfection face makeup spf 20 sunscreen 050 Ivory; ck one all day perfection face makeup spf 20 sunscreen 100 Porcelain; ck one all day perfection face makeup spf 20 sunscreen 300 Sand; ck one all day perfection face makeup spf 20 sunscreen 350 Warm Sand; ck one all day perfection face makeup spf 20 sunscreen 400 Bisque; ck one all day perfection face makeup spf 20 sunscreen 500 Tan; ck one all day perfection face makeup spf 20 sunscreen 600 Honey; ck one3-in-1face makeup with SPF8 sunscreen; ckone waterfresh face make up SPF 15 100 porcelain; cle de peau BEAUTE BRIGHTENING ENHANCER VEIL; cle de peau BEAUTE CONCEALER BUFF; cle de peau BEAUTE CONCEALER COCOA; cle de peau BEAUTE CONCEALER ESPRESSO; cle de peau BEAUTE CONCEALER HAZELNUT; cle de peau BEAUTE CONCEALER N 1; cle de peau BEAUTE CONCEALER N 10; cle de peau BEAUTE CONCEALER N 11; cle de peau BEAUTE CONCEALER N 12; cle de peau BEAUTE CONCEALER N 13; cle de peau BEAUTE CONCEALER N 2; cle de peau BEAUTE CONCEALER N 3; cle de peau BEAUTE CONCEALER N 4; cle de peau BEAUTE CONCEALER N 5; cle de peau BEAUTE CONCEALER N 7; cle de peau BEAUTE CONCEALER N 8; cle de peau BEAUTE CONCEALER N 9; cle de peau BEAUTE CONCEALER NUTMEG; cle de peau BEAUTE CONCEALER TOFFEE; cle de peau BEAUTE RADIANT FLUID FOUNDATION B10; cle de peau BEAUTE RADIANT FLUID FOUNDATION B100; cle de peau BEAUTE RADIANT FLUID FOUNDATION B20; cle de peau BEAUTE RADIANT FLUID FOUNDATION B30; cle de peau BEAUTE RADIANT FLUID FOUNDATION B40; cle de peau BEAUTE RADIANT FLUID FOUNDATION B50; cle de peau BEAUTE RADIANT FLUID FOUNDATION B60; cle de peau BEAUTE RADIANT FLUID FOUNDATION B70; cle de peau BEAUTE RADIANT FLUID FOUNDATION B80; cle de peau BEAUTE RADIANT FLUID FOUNDATION B90; cle de peau BEAUTE RADIANT FLUID FOUNDATION BF10; cle de peau BEAUTE RADIANT FLUID FOUNDATION BF50; cle de peau BEAUTE RADIANT FLUID FOUNDATION BF60; cle de peau BEAUTE RADIANT FLUID FOUNDATION I10; cle de peau BEAUTE RADIANT FLUID FOUNDATION O10; cle de peau BEAUTE RADIANT FLUID FOUNDATION O100; cle de peau BEAUTE RADIANT FLUID FOUNDATION O20; cle de peau BEAUTE RADIANT FLUID FOUNDATION O30; cle de peau BEAUTE RADIANT FLUID FOUNDATION O40; cle de peau BEAUTE RADIANT FLUID FOUNDATION O50; cle de peau BEAUTE RADIANT FLUID FOUNDATION O60; cle de peau BEAUTE RADIANT FLUID FOUNDATION O70; cle de peau BEAUTE RADIANT FLUID FOUNDATION O80; cle de peau BEAUTE RADIANT FLUID FOUNDATION O90; cle de peau BEAUTE RADIANT FOUNDATION N B10; cle de peau BEAUTE RADIANT FOUNDATION N B100; cle de peau BEAUTE RADIANT FOUNDATION N B20; cle de peau BEAUTE RADIANT FOUNDATION N B30; cle de peau BEAUTE RADIANT FOUNDATION N B40; cle de peau BEAUTE RADIANT FOUNDATION N B50; cle de peau BEAUTE RADIANT FOUNDATION N B60; cle de peau BEAUTE RADIANT FOUNDATION N B70; cle de peau BEAUTE RADIANT FOUNDATION N B80; cle de peau BEAUTE RADIANT FOUNDATION N B90; cle de peau BEAUTE RADIANT FOUNDATION N BF10; cle de peau BEAUTE RADIANT FOUNDATION N BF50; cle de peau BEAUTE RADIANT FOUNDATION N BF60; cle de peau BEAUTE RADIANT FOUNDATION N I10; cle de peau BEAUTE RADIANT FOUNDATION N O10; cle de peau BEAUTE RADIANT FOUNDATION N O100; cle de peau BEAUTE RADIANT FOUNDATION N O20; cle de peau BEAUTE RADIANT FOUNDATION N O30; cle de peau BEAUTE RADIANT FOUNDATION N O40; cle de peau BEAUTE RADIANT FOUNDATION N O50; cle de peau BEAUTE RADIANT FOUNDATION N O60; cle de peau BEAUTE RADIANT FOUNDATION N O70; cle de peau BEAUTE RADIANT FOUNDATION N O80; cle de peau BEAUTE RADIANT FOUNDATION N O90; cle de peau BEAUTE THE FOUNDATION N B10 LIGHT BEIGE; cle de peau BEAUTE THE FOUNDATION N B20 LIGHT MEDIUM BEIGE; cle de peau BEAUTE THE FOUNDATION N B30 MEDIUM BEIGE; cle de peau BEAUTE THE FOUNDATION N B40 LIGHT TAN BEIGE; cle de peau BEAUTE THE FOUNDATION N B50 TAN BEIGE; cle de peau BEAUTE THE FOUNDATION N BF10 LIGHT BUFF; cle de peau BEAUTE THE FOUNDATION N I10 VERY LIGHT IVORY; cle de peau BEAUTE THE FOUNDATION N O10 LIGHT OCHER; cle de peau BEAUTE THE FOUNDATION N O100 RICH DEEP OCHER; cle de peau BEAUTE THE FOUNDATION N O20 LIGHT MEDIUM OCHER; cle de peau BEAUTE THE FOUNDATION N O30 MEDIUM OCHER; cle de peau BEAUTE THE FOUNDATION N O40 LIGHT TAN OCHER; cle de peau BEAUTE THE FOUNDATION N O50 TAN OCHER; cle de peau BEAUTE THE FOUNDATION N O60 DEEP TAN OCHER; cle de peau BEAUTE THE FOUNDATION N O80 DEEP OCHER; cle de peau beaute radiant cream to powder foundation B10; cle de peau beaute radiant cream to powder foundation B20; cle de peau beaute radiant cream to powder foundation B30; cle de peau beaute radiant cream to powder foundation BF20; cle de peau beaute radiant cream to powder foundation I10; cle de peau beaute radiant cream to powder foundation O10; cle de peau beaute radiant cream to powder foundation O20; cle de peau beaute radiant cream to powder foundation O30; cle de peau beaute radiant cream to powder foundation O40; cle de peau beaute radiant cream to powder foundation O50; cle de peau beaute radiant cream to powder foundation O60; cle de peau beaute radiant cream to powder foundation WB20; daily UV protection cream sebum care; delilah Time Frame Future Resist Foundation Broad Spectrum SPF 20 Sunscreen Foundation Buttermilk 4202; delilah Time Frame Future Resist Foundation Broad Spectrum SPF 20 Sunscreen Foundation Chestnut 4207; delilah Time Frame Future Resist Foundation Broad Spectrum SPF 20 Sunscreen Foundation Lace 4201; delilah Time Frame Future Resist Foundation Broad Spectrum SPF 20 Sunscreen Foundation Maple 4205; delilah Time Frame Future Resist Foundation Broad Spectrum SPF 20 Sunscreen Foundation Nutmeg 4206; delilah Time Frame Future Resist Foundation Broad Spectrum SPF 20 Sunscreen Foundation Pebble 4204; delilah Time Frame Future Resist Foundation Broad Spectrum SPF 20 Sunscreen Foundation Shell 4203; do good Hydra Healing Color Corrector; do good Hydra Healing Tension Pact Light Beige; do good Hydra Healing Tension Pact Natural Beige; do naturals SPF 32; double duty beauty shape tape cloud coverage Broad Spectrum SPF 15 Sunscreen 12N fair neutral; double duty beauty shape tape cloud coverage Broad Spectrum SPF 15 Sunscreen 16B fair-light beige; double duty beauty shape tape cloud coverage Broad Spectrum SPF 15 Sunscreen 16N fair-light neutral; double duty beauty shape tape cloud coverage Broad Spectrum SPF 15 Sunscreen 20B light beige; double duty beauty shape tape cloud coverage Broad Spectrum SPF 15 Sunscreen 22N light neutral; double duty beauty shape tape cloud coverage Broad Spectrum SPF 15 Sunscreen 27S light-medium sand; double duty beauty shape tape cloud coverage Broad Spectrum SPF 15 Sunscreen 29N light-medium neutral; double duty beauty shape tape cloud coverage Broad Spectrum SPF 15 Sunscreen 32S medium sand; double duty beauty shape tape cloud coverage Broad Spectrum SPF 15 Sunscreen 35N medium neutral; double duty beauty shape tape cloud coverage Broad Spectrum SPF 15 Sunscreen 36S medium-tan sand; double duty beauty shape tape cloud coverage Broad Spectrum SPF 15 Sunscreen 37N medium-tan neutral; double duty beauty shape tape cloud coverage Broad Spectrum SPF 15 Sunscreen 42H tan honey; double duty beauty shape tape cloud coverage Broad Spectrum SPF 15 Sunscreen 44N tan neutral; double duty beauty shape tape cloud coverage Broad Spectrum SPF 15 Sunscreen 47H tan-deep honey; double duty beauty shape tape cloud coverage Broad Spectrum SPF 15 Sunscreen 47S tan-deep sand; double duty beauty shape tape cloud coverage Broad Spectrum SPF 15 Sunscreen 53H deep honey; double duty beauty shape tape cloud coverage Broad Spectrum SPF 15 Sunscreen 53N deep neutral; double duty beauty shape tape cloud coverage Broad Spectrum SPF 15 Sunscreen 57S rich sand; double duty beauty shape tape cloud coverage Broad Spectrum SPF 15 Sunscreen 58N rich neutral; double duty beauty shape tape cloud coverage Broad Spectrum SPF 15 Sunscreen 60N mahogany neutral; double duty beauty shape tape cloud coverage Broad Spectrum SPF 15 Sunscreen 61N espresso neutral; emilia SAFE HARBOR NATURAL SUNCARE; eyes lips face Mineral Concealer SPF 15; fine finish pressed powder C13; fine finish pressed powder C21; fine finish pressed powder C27; fine finish pressed powder C43; fine finish pressed powder N21; fine finish pressed powder N23; fine finish pressed powder N27; fine finish pressed powder N31; fine finish pressed powder N33; fine finish pressed powder W21; fine finish pressed powder W23; fine finish pressed powder W31; fine finish pressed powder W35; fine finish pressed powder W37; flawless by Sonya aloe BB creme COCOA SPF 10 Sunscreen; flawless by Sonya aloe BB creme NUDE SPF 20 Sunscreen; flormar Delicious Lipstick Stylo Sunscreen Broad Spectrum SPF 15 DS03 Doll Photomontage; foundcealer 2-in-1 foundation and concealer Broad Spectrum SPF 15 Sunscreen deep; foundcealer 2-in-1 foundation and concealer Broad Spectrum SPF 15 Sunscreen fair; foundcealer 2-in-1 foundation and concealer Broad Spectrum SPF 15 Sunscreen light; foundcealer 2-in-1 foundation and concealer Broad Spectrum SPF 15 Sunscreen light-medium; foundcealer 2-in-1 foundation and concealer Broad Spectrum SPF 15 Sunscreen medium; foundcealer 2-in-1 foundation and concealer Broad Spectrum SPF 15 Sunscreen tan; foundcealer multi-tasking foundation Broad Spectrum SPF 20 Sunscreen 13N fair neutral; foundcealer multi-tasking foundation Broad Spectrum SPF 20 Sunscreen 14S fair sand; foundcealer multi-tasking foundation Broad Spectrum SPF 20 Sunscreen 16B fair-light beige; foundcealer multi-tasking foundation Broad Spectrum SPF 20 Sunscreen 16N fair-light neutral; foundcealer multi-tasking foundation Broad Spectrum SPF 20 Sunscreen 16S fair-light sand; foundcealer multi-tasking foundation Broad Spectrum SPF 20 Sunscreen 22B light beige; foundcealer multi-tasking foundation Broad Spectrum SPF 20 Sunscreen 22N light neutral; foundcealer multi-tasking foundation Broad Spectrum SPF 20 Sunscreen 22S light sand; foundcealer multi-tasking foundation Broad Spectrum SPF 20 Sunscreen 24G light golden; foundcealer multi-tasking foundation Broad Spectrum SPF 20 Sunscreen 27N light-medium neutral; foundcealer multi-tasking foundation Broad Spectrum SPF 20 Sunscreen 27S light-medium sand; foundcealer multi-tasking foundation Broad Spectrum SPF 20 Sunscreen 29H light-medium honey; foundcealer multi-tasking foundation Broad Spectrum SPF 20 Sunscreen 34N medium neutral; foundcealer multi-tasking foundation Broad Spectrum SPF 20 Sunscreen 34S medium sand; foundcealer multi-tasking foundation Broad Spectrum SPF 20 Sunscreen 35G medium golden; foundcealer multi-tasking foundation Broad Spectrum SPF 20 Sunscreen 36H medium-tan honey; foundcealer multi-tasking foundation Broad Spectrum SPF 20 Sunscreen 36N medium-tan neutral; foundcealer multi-tasking foundation Broad Spectrum SPF 20 Sunscreen 38S medium-tan sand; foundcealer multi-tasking foundation Broad Spectrum SPF 20 Sunscreen 42N tan neutral; foundcealer multi-tasking foundation Broad Spectrum SPF 20 Sunscreen 44H tan honey; foundcealer multi-tasking foundation Broad Spectrum SPF 20 Sunscreen 44S tan sand; foundcealer multi-tasking foundation Broad Spectrum SPF 20 Sunscreen 48S tan-deep sand; foundcealer multi-tasking foundation Broad Spectrum SPF 20 Sunscreen 49H tan-deep honey; foundcealer multi-tasking foundation Broad Spectrum SPF 20 Sunscreen 50S deep sand; foundcealer multi-tasking foundation Broad Spectrum SPF 20 Sunscreen 52N deep neutral; foundcealer multi-tasking foundation Broad Spectrum SPF 20 Sunscreen 54H deep honey; foundcealer multi-tasking foundation Broad Spectrum SPF 20 Sunscreen 58S rich sand; foundcealer multi-tasking foundation Broad Spectrum SPF 20 Sunscreen 59N rich neutral; foundcealer multi-tasking foundation Broad Spectrum SPF 20 Sunscreen 60H mahogany; foundcealer multi-tasking foundation Broad Spectrum SPF 20 Sunscreen 8B porcelain beige; gesgep ONE DROP PERFECTION HEALTHY; gesgep ONE DROP PERFECTION LIGHT; gesgep ONE DROP PERFECTION TRUE; glo SKIN BEAUTY Luminous Liquid Foundation SPF 18; glo SKIN BEAUTY Luxe Liquid Foundation SPF 18; glo SKIN BEAUTY Solar Shade SPF 50; glo SKIN BEAUTY Tinted Primer SPF 30; goddess garden ORGANICS Everyday NATURAL SUNSCREEN SPF 30; goddess garden ORGANICS Kids NATURAL SUNSCREEN SPF 30; goddess garden ORGANICS Kids Sport NATURAL SUNSCREEN SPF 30; goddess garden ORGANICS Sport NATURAL SUNSCREEN SPF 30; in2itiv SPF30 Sunscreen; innisfree Aqua-fit Cushion W39 Deep tan; innisfree Aqua-fit Cushion W41 Cinnamon; innisfree Gentle Care for Sensitive Skin Sunscreen; innisfree Matte Full-cover Cushion W39 Deep tan; innisfree Matte Full-cover Cushion W41 Cinnamon; innisfree Matte Priming UV Shield Sunscreen; intense UV protection cream; it Radiant CC Sun Base; it cosmetics Bye Bye Foundation Full Coverage Moisturizer Broad Spectrum 50 Plus Sunscreen All Shades; it cosmetics Bye Bye Foundation Full Coverage Moisturizer Oil Free Matte Broad Spectrum 50 Plus Sunscreen; it cosmetics Your Skin But Better CC Plus Color Correcting Broad Spectrum SPF 50 Plus Sunscreen Full Coverage Deep FairLight Neutral Tan Rich Honey LightMedium and Neutral Medium; it cosmetics Your Skin But Better CC Plus Illumination Color Correcting Illuminating Broad Spectrum SPF 50 Plus Sunscreen Full Coverage FairLight NeutralTan RichHoney LightMedium and NeutralMedium; it cosmetics Your Skin But Better CC Plus Oil Free Matte Poreless Finish Full Coverage Broad Spectrum SPF 40 Sunscreen All Shades; koa protect our ocean life OXYBENZONE FREE Broad Spectrum SPF 30 UVA UVB Protection Sunscreen; magiX Illuminating Face Perfector; magix Cashmere Finish Liquid Foundation; mally Face Defender Foundation; mally Face Defender Foundation BB; mally Poreless Perfection Glowing Foundation Fair; mally Poreless Perfection Glowing Foundation Light; mally Poreless Perfection Glowing Foundation Medium; mally Poreless Perfection Glowing Foundation Rich; mally Poreless Perfection Glowing Foundation Tan; mark. Get a Tint Shimmer Tinted Moisturizer; matte full cover cushion C11; matte full cover cushion C13; matte full cover cushion C21; matte full cover cushion C43; matte full cover cushion N21; matte full cover cushion N23; matte full cover cushion N27; matte full cover cushion N31; matte full cover cushion W21; matte full cover cushion W23; matte full cover cushion W33; matte full cover cushion W34; matte full cover cushion W35; matte full cover cushion W37; mesoestetic DERMATOLOGICAL SUN PROTECTION BROAD SPECTRUM; myBody PROTECT AND SERVE SPF-30; napoleon PERDIS ADVANCED MINERAL MAKEUP BROAD SPECTRUM SPF 15 Look 1; napoleon PERDIS ADVANCED MINERAL MAKEUP BROAD SPECTRUM SPF 15 Look 2; napoleon PERDIS ADVANCED MINERAL MAKEUP BROAD SPECTRUM SPF 15 Look 3; napoleon PERDIS ADVANCED MINERAL MAKEUP BROAD SPECTRUM SPF 15 Look 4; napoleon PERDIS ADVANCED MINERAL MAKEUP BROAD SPECTRUM SPF 15 Look 5; napoleon PERDIS AUTO PILOT BBB BROAD SPECTRUM SPF 30 LIGHT-MEDIUM; napoleon PERDIS AUTO PILOT BBB BROAD SPECTRUM SPF 30 MEDIUM-DARK; napoleon PERDIS CHINA DOLL FOUNDATION BROAD SPECTRUM SPF 15 Look 1; napoleon PERDIS CHINA DOLL FOUNDATION BROAD SPECTRUM SPF 15 Look 2; napoleon PERDIS CHINA DOLL FOUNDATION BROAD SPECTRUM SPF 15 Look 2B; napoleon PERDIS CHINA DOLL FOUNDATION BROAD SPECTRUM SPF 15 Look 3; napoleon PERDIS CHINA DOLL FOUNDATION BROAD SPECTRUM SPF 15 Look 4; napoleon PERDIS FOUNDATION BROAD SPECTRUM SPF 15 Look 1; napoleon PERDIS FOUNDATION BROAD SPECTRUM SPF 15 Look 2; napoleon PERDIS SHEER GENIUS FOUNDATION BROAD SPECTRUM SPF 20 Look 2; napoleon PERDIS SHEER GENIUS LIQUID FOUNDATION BROAD SPECTRUM SPF 20 Look 1; napoleon PERDIS SHEER GENIUS LIQUID FOUNDATION BROAD SPECTRUM SPF 20 Look 4; napoleon PERDIS SHEER GENIUS LIQUID FOUNDATION BROAD SPECTRUM SPF 20 Look 5; napoleon PERDIS SHEER GENIUS LIQUID FOUNDATION BROAD SPECTRUM SPF 20 Look 6; ocean elements sheer daily moisture broad spectrum SPF 30; pur CC Medium; pur CC cream SPF 40 LIGHT; rootree Mobitherapy UV Sun Shield; sheer tint SPF 45; shu uemura UV under base mousse SPF 30 sunscreen; shu uemura UV underbase SPF 20 sunscreen; skinlycious Clear skin complete starter kit; stila bronzing tinted moisturizer oil-free SPF 20; sugar rush skin treat blurring skin tint Broad Spectrum SPF 20 Sunscreen deep; sugar rush skin treat blurring skin tint Broad Spectrum SPF 20 Sunscreen fair; sugar rush skin treat blurring skin tint Broad Spectrum SPF 20 Sunscreen light; sugar rush skin treat blurring skin tint Broad Spectrum SPF 20 Sunscreen light-medium; sugar rush skin treat blurring skin tint Broad Spectrum SPF 20 Sunscreen medium; sugar rush skin treat blurring skin tint Broad Spectrum SPF 20 Sunscreen rich; sugar rush skin treat blurring skin tint Broad Spectrum SPF 20 Sunscreen tan; sugar rush skin treat blurring skin tint Broad Spectrum SPF 20 Sunscreen tan-deep; sugar rush skin treat poreless tinted moisturizer Broad Spectrum SPF 20 Sunscreen deep; sugar rush skin treat poreless tinted moisturizer Broad Spectrum SPF 20 Sunscreen fair; sugar rush skin treat poreless tinted moisturizer Broad Spectrum SPF 20 Sunscreen light; sugar rush skin treat poreless tinted moisturizer Broad Spectrum SPF 20 Sunscreen light-medium; sugar rush skin treat poreless tinted moisturizer Broad Spectrum SPF 20 Sunscreen mahogany; sugar rush skin treat poreless tinted moisturizer Broad Spectrum SPF 20 Sunscreen medium; sugar rush skin treat poreless tinted moisturizer Broad Spectrum SPF 20 Sunscreen rich; sugar rush skin treat poreless tinted moisturizer Broad Spectrum SPF 20 Sunscreen tan; sugar rush skin treat poreless tinted moisturizer Broad Spectrum SPF 20 Sunscreen tan-deep; sunbetter Broad Spectrum SPF 56 Sunscreen Compact Sheer; sunbetter Broad Spectrum SPF 56 Sunscreen Stick Sheer; sunbetter Broad Spectrum SPF 68 Sunscreen Compact Tone Smart; sunbetter Broad Spectrum SPF 70 Sunscreen Sheer; sunbetter Broad Spectrum SPF 75 Sunscreen Tone Smart; take cover anti-aging foundation DEEP; take cover anti-aging foundation FAIR; take cover anti-aging foundation LIGHT; take cover anti-aging foundation MEDIUM; take cover anti-aging foundation MEDIUM DEEP; take cover anti-aging foundation MEDIUM RICH; tarteguard 30 sunscreen Broad Spectrum SPF 30; the SAEM Foundation 01 Light; the SAEM Foundation 02 Medium; the SAEM Foundation 03 Medium Deep; toty Ilumina CC Cream 1C; toty Ilumina CC Cream 1N; toty Ilumina CC Cream 1W; toty Ilumina CC Cream 2C; toty Ilumina CC Cream 2N; toty Ilumina CC Cream 2W; toty Ilumina CC Cream 3C; toty Ilumina CC Cream 3N; toty Ilumina CC Cream 3W; toty Ilumina CC Cream 4C; toty Ilumina CC Cream 4N; toty Ilumina CC Cream 4W; toty Ilumina CC Cream 5W; toty Ilumina CC Cream 5W1; toty Ilumina CC Cream 5W2; touch in SOL Advanced Real Moisture Li quid Foundation 21 Nude Beige; touch in SOL Advanced Real Moisture Li quid Foundation 23 Natural Beige; touch in SOL Dark Long Lasting Primer Base BRIGHT PURPLE; touch in SOL Dark Long Lasting Primer Base PURE PEACH; touch in SOL Dark Out Long Lasting Primer Base FRESH GREEN; touch in SOL Pang Pang Sun Cutting; true natural Caribbean Coconut 30; zermat MAXIMUM REPAIR INTENSIVE FIRMING FACIAL DAY SUNSCREEN SPF 30; zermat Wake Up CC Moisturizing Facial with Color Sunscreen Broad Spectrum SPF 30; Écran Jour Creme Protectrice SPF 15 - Avene; Écran Solaire Spécial Rides SPF 15; Écran Total Anti-intolérances Solaires Fps 30; Écran Total Solaire SPF 25

$$$$
