
  Mrv1909 05201914332D          

 32 34  0  0  1  0            999 V2000
   -2.8948    4.8803    0.0000 C   0  0  0  0  0  0  0  0  0  0  0  0
   -3.4468    4.2672    0.0000 O   0  0  0  0  0  0  0  0  0  0  0  0
   -3.1918    3.4826    0.0000 C   0  0  0  0  0  0  0  0  0  0  0  0
   -2.3849    3.3110    0.0000 O   0  0  0  0  0  0  0  0  0  0  0  0
   -3.7439    2.8695    0.0000 C   0  0  0  0  0  0  0  0  0  0  0  0
   -3.5724    2.0625    0.0000 C   0  0  0  0  0  0  0  0  0  0  0  0
   -2.8579    1.6500    0.0000 C   0  0  0  0  0  0  0  0  0  0  0  0
   -2.8579    0.8250    0.0000 N   0  0  0  0  0  0  0  0  0  0  0  0
   -3.5724    0.4125    0.0000 C   0  0  0  0  0  0  0  0  0  0  0  0
   -4.2868    0.8250    0.0000 C   0  0  0  0  0  0  0  0  0  0  0  0
   -4.2868    1.6500    0.0000 N   0  0  0  0  0  0  0  0  0  0  0  0
   -4.8999    2.2020    0.0000 C   0  0  0  0  0  0  0  0  0  0  0  0
   -4.5644    2.9557    0.0000 N   0  0  0  0  0  0  0  0  0  0  0  0
   -5.7069    2.0305    0.0000 C   0  0  0  0  0  0  0  0  0  0  0  0
   -6.5139    1.8590    0.0000 F   0  0  0  0  0  0  0  0  0  0  0  0
   -5.8784    2.8375    0.0000 F   0  0  0  0  0  0  0  0  0  0  0  0
   -5.5354    1.2235    0.0000 F   0  0  0  0  0  0  0  0  0  0  0  0
   -2.1434    0.4125    0.0000 C   0  0  0  0  0  0  0  0  0  0  0  0
   -2.1434   -0.4125    0.0000 O   0  0  0  0  0  0  0  0  0  0  0  0
   -1.4289    0.8250    0.0000 C   0  0  0  0  0  0  0  0  0  0  0  0
   -0.7145    0.4125    0.0000 C   0  0  2  0  0  0  0  0  0  0  0  0
   -0.7145   -0.4125    0.0000 N   0  0  0  0  0  0  0  0  0  0  0  0
    0.0000    0.8250    0.0000 C   0  0  0  0  0  0  0  0  0  0  0  0
    0.7145    0.4125    0.0000 C   0  0  0  0  0  0  0  0  0  0  0  0
    1.4289    0.8250    0.0000 C   0  0  0  0  0  0  0  0  0  0  0  0
    2.1434    0.4125    0.0000 C   0  0  0  0  0  0  0  0  0  0  0  0
    2.8579    0.8250    0.0000 F   0  0  0  0  0  0  0  0  0  0  0  0
    2.1434   -0.4125    0.0000 C   0  0  0  0  0  0  0  0  0  0  0  0
    2.8579   -0.8250    0.0000 F   0  0  0  0  0  0  0  0  0  0  0  0
    1.4289   -0.8250    0.0000 C   0  0  0  0  0  0  0  0  0  0  0  0
    0.7145   -0.4125    0.0000 C   0  0  0  0  0  0  0  0  0  0  0  0
    0.0000   -0.8250    0.0000 F   0  0  0  0  0  0  0  0  0  0  0  0
  1  2  1  0  0  0  0
  2  3  1  0  0  0  0
  3  4  2  0  0  0  0
  3  5  1  0  0  0  0
  5  6  2  0  0  0  0
  6  7  1  0  0  0  0
  7  8  1  0  0  0  0
  8  9  1  0  0  0  0
  9 10  1  0  0  0  0
 10 11  1  0  0  0  0
  6 11  1  0  0  0  0
 11 12  1  0  0  0  0
 12 13  2  0  0  0  0
  5 13  1  0  0  0  0
 12 14  1  0  0  0  0
 14 15  1  0  0  0  0
 14 16  1  0  0  0  0
 14 17  1  0  0  0  0
  8 18  1  0  0  0  0
 18 19  2  0  0  0  0
 18 20  1  0  0  0  0
 21 20  1  0  0  0  0
 21 22  1  1  0  0  0
 21 23  1  0  0  0  0
 23 24  1  0  0  0  0
 24 25  2  0  0  0  0
 25 26  1  0  0  0  0
 26 27  1  0  0  0  0
 26 28  2  0  0  0  0
 28 29  1  0  0  0  0
 28 30  1  0  0  0  0
 30 31  2  0  0  0  0
 24 31  1  0  0  0  0
 31 32  1  0  0  0  0
M  END
> <DATABASE_ID>
DB14898

> <DATABASE_NAME>
drugbank

> <SMILES>
COC(=O)C1=C2CN(CCN2C(=N1)C(F)(F)F)C(=O)C[C@H](N)CC1=CC(F)=C(F)C=C1F

> <INCHI_IDENTIFIER>
InChI=1S/C19H18F6N4O3/c1-32-17(31)16-14-8-28(2-3-29(14)18(27-16)19(23,24)25)15(30)6-10(26)4-9-5-12(21)13(22)7-11(9)20/h5,7,10H,2-4,6,8,26H2,1H3/t10-/m1/s1

> <INCHI_KEY>
WIIAMRXFUJLYEF-SNVBAGLBSA-N

> <FORMULA>
C19H18F6N4O3

> <MOLECULAR_WEIGHT>
464.368

> <EXACT_MASS>
464.128309434

> <JCHEM_ACCEPTOR_COUNT>
4

> <JCHEM_ATOM_COUNT>
50

> <JCHEM_AVERAGE_POLARIZABILITY>
40.13196250445858

> <JCHEM_BIOAVAILABILITY>
1

> <JCHEM_DONOR_COUNT>
1

> <JCHEM_FORMAL_CHARGE>
0

> <JCHEM_GHOSE_FILTER>
1

> <JCHEM_IUPAC>
methyl 7-[(3R)-3-amino-4-(2,4,5-trifluorophenyl)butanoyl]-3-(trifluoromethyl)-5H,6H,7H,8H-imidazo[1,5-a]pyrazine-1-carboxylate

> <ALOGPS_LOGP>
2.34

> <JCHEM_LOGP>
2.2538298973333335

> <ALOGPS_LOGS>
-4.53

> <JCHEM_MDDR_LIKE_RULE>
1

> <JCHEM_NUMBER_OF_RINGS>
3

> <JCHEM_PHYSIOLOGICAL_CHARGE>
1

> <JCHEM_PKA_STRONGEST_BASIC>
8.784932285559487

> <JCHEM_POLAR_SURFACE_AREA>
90.45

> <JCHEM_REFRACTIVITY>
99.48219999999999

> <JCHEM_ROTATABLE_BOND_COUNT>
7

> <JCHEM_RULE_OF_FIVE>
1

> <ALOGPS_SOLUBILITY>
1.38e-02 g/l

> <JCHEM_TRADITIONAL_IUPAC>
(2R)-14-fluoro-2-methyl-6,9,10,19-tetraazapentacyclo[14.2.1.0^{2,6}.0^{8,18}.0^{12,17}]nonadeca-1(18),8,12(17),13,15-pentaen-11-one

> <JCHEM_VEBER_RULE>
0

> <DRUGBANK_ID>
DB14898

> <DRUG_GROUPS>
investigational

> <GENERIC_NAME>
Retagliptin

$$$$
