
  Mrv1909 10301920362D          

 21 22  0  0  0  0            999 V2000
   -1.4289    2.6812    0.0000 C   0  0  0  0  0  0  0  0  0  0  0  0
   -0.7144    2.2687    0.0000 O   0  0  0  0  0  0  0  0  0  0  0  0
   -0.7144    1.4437    0.0000 C   0  0  0  0  0  0  0  0  0  0  0  0
    0.0000    1.0312    0.0000 C   0  0  0  0  0  0  0  0  0  0  0  0
    0.0000    0.2062    0.0000 C   0  0  0  0  0  0  0  0  0  0  0  0
    0.7144   -0.2062    0.0000 C   0  0  0  0  0  0  0  0  0  0  0  0
    1.4289    0.2062    0.0000 O   0  0  0  0  0  0  0  0  0  0  0  0
    0.7144   -1.0312    0.0000 N   0  0  0  0  0  0  0  0  0  0  0  0
    1.4289   -1.4437    0.0000 C   0  0  0  0  0  0  0  0  0  0  0  0
    2.1434   -1.0312    0.0000 C   0  0  0  0  0  0  0  0  0  0  0  0
    2.8578   -1.4437    0.0000 C   0  0  0  0  0  0  0  0  0  0  0  0
    2.8578   -2.2687    0.0000 C   0  0  0  0  0  0  0  0  0  0  0  0
    2.1434   -2.6812    0.0000 N   0  0  0  0  0  0  0  0  0  0  0  0
    1.4289   -2.2687    0.0000 C   0  0  0  0  0  0  0  0  0  0  0  0
   -0.7144   -0.2062    0.0000 C   0  0  0  0  0  0  0  0  0  0  0  0
   -1.4289    0.2062    0.0000 C   0  0  0  0  0  0  0  0  0  0  0  0
   -2.1434   -0.2062    0.0000 O   0  0  0  0  0  0  0  0  0  0  0  0
   -2.8578    0.2062    0.0000 C   0  0  0  0  0  0  0  0  0  0  0  0
   -1.4289    1.0312    0.0000 C   0  0  0  0  0  0  0  0  0  0  0  0
   -2.1434    1.4437    0.0000 O   0  0  0  0  0  0  0  0  0  0  0  0
   -2.8578    1.0312    0.0000 C   0  0  0  0  0  0  0  0  0  0  0  0
  1  2  1  0  0  0  0
  2  3  1  0  0  0  0
  3  4  2  0  0  0  0
  4  5  1  0  0  0  0
  5  6  1  0  0  0  0
  6  7  2  0  0  0  0
  6  8  1  0  0  0  0
  8  9  1  0  0  0  0
  9 10  1  0  0  0  0
 10 11  1  0  0  0  0
 11 12  1  0  0  0  0
 12 13  1  0  0  0  0
 13 14  1  0  0  0  0
  9 14  1  0  0  0  0
  5 15  2  0  0  0  0
 15 16  1  0  0  0  0
 16 17  1  0  0  0  0
 17 18  1  0  0  0  0
 16 19  2  0  0  0  0
  3 19  1  0  0  0  0
 19 20  1  0  0  0  0
 20 21  1  0  0  0  0
M  END
> <DATABASE_ID>
DB13419

> <DATABASE_NAME>
drugbank

> <SMILES>
COC1=CC(=CC(OC)=C1OC)C(=O)NC1CCCNC1

> <INCHI_IDENTIFIER>
InChI=1S/C15H22N2O4/c1-19-12-7-10(8-13(20-2)14(12)21-3)15(18)17-11-5-4-6-16-9-11/h7-8,11,16H,4-6,9H2,1-3H3,(H,17,18)

> <INCHI_KEY>
YSIITVVESCNIPR-UHFFFAOYSA-N

> <FORMULA>
C15H22N2O4

> <MOLECULAR_WEIGHT>
294.351

> <EXACT_MASS>
294.157957196

> <JCHEM_ACCEPTOR_COUNT>
5

> <JCHEM_ATOM_COUNT>
43

> <JCHEM_AVERAGE_POLARIZABILITY>
32.094603617296336

> <JCHEM_BIOAVAILABILITY>
1

> <JCHEM_DONOR_COUNT>
2

> <JCHEM_FORMAL_CHARGE>
0

> <JCHEM_GHOSE_FILTER>
1

> <JCHEM_IUPAC>
3,4,5-trimethoxy-N-(piperidin-3-yl)benzamide

> <ALOGPS_LOGP>
1.13

> <JCHEM_LOGP>
0.6757095006666674

> <ALOGPS_LOGS>
-2.92

> <JCHEM_MDDR_LIKE_RULE>
0

> <JCHEM_NUMBER_OF_RINGS>
2

> <JCHEM_PHYSIOLOGICAL_CHARGE>
1

> <JCHEM_PKA_STRONGEST_ACIDIC>
14.452074997224937

> <JCHEM_PKA_STRONGEST_BASIC>
9.524148555699911

> <JCHEM_POLAR_SURFACE_AREA>
68.82000000000001

> <JCHEM_REFRACTIVITY>
79.35830000000001

> <JCHEM_ROTATABLE_BOND_COUNT>
5

> <JCHEM_RULE_OF_FIVE>
1

> <ALOGPS_SOLUBILITY>
3.56e-01 g/l

> <JCHEM_TRADITIONAL_IUPAC>
elamipretide

> <JCHEM_VEBER_RULE>
0

> <DRUGBANK_ID>
DB13419

> <DRUG_GROUPS>
experimental

> <GENERIC_NAME>
Troxipide

> <SYNONYMS>
Troxipide

$$$$
