
  Mrv1572001261617252D          

 23 25  0  0  0  0            999 V2000
    6.8513   -4.9500    0.0000 C   0  0  0  0  0  0  0  0  0  0  0  0
    2.5645   -1.6500    0.0000 C   0  0  0  0  0  0  0  0  0  0  0  0
    5.4223   -1.6500    0.0000 C   0  0  0  0  0  0  0  0  0  0  0  0
    4.7079   -2.8875    0.0000 C   0  0  0  0  0  0  0  0  0  0  0  0
    4.7079   -1.2375    0.0000 C   0  0  0  0  0  0  0  0  0  0  0  0
    3.9934   -2.4750    0.0000 C   0  0  0  0  0  0  0  0  0  0  0  0
    1.7798   -0.2549    0.0000 C   0  0  0  0  0  0  0  0  0  0  0  0
    1.2949    0.4125    0.0000 C   0  0  0  0  0  0  0  0  0  0  0  0
    6.1368   -2.8875    0.0000 C   0  0  0  0  0  0  0  0  0  0  0  0
    3.9934    0.8250    0.0000 C   0  0  0  0  0  0  0  0  0  0  0  0
    5.4223   -2.4750    0.0000 C   0  0  0  0  0  0  0  0  0  0  0  0
    3.9934   -1.6500    0.0000 C   0  0  0  0  0  0  0  0  0  0  0  0
    2.5645    0.0000    0.0000 C   0  0  0  0  0  0  0  0  0  0  0  0
    2.5645    0.8250    0.0000 C   0  0  0  0  0  0  0  0  0  0  0  0
    3.2789   -0.4125    0.0000 C   0  0  0  0  0  0  0  0  0  0  0  0
    6.1368   -4.5375    0.0000 N   0  0  0  0  0  0  0  0  0  0  0  0
    1.7798    1.0799    0.0000 N   0  0  0  0  0  0  0  0  0  0  0  0
    3.2789    1.2375    0.0000 N   0  0  0  0  0  0  0  0  0  0  0  0
    3.9934    0.0000    0.0000 N   0  0  0  0  0  0  0  0  0  0  0  0
    3.2789   -1.2375    0.0000 N   0  0  0  0  0  0  0  0  0  0  0  0
    6.9618   -3.7125    0.0000 O   0  0  0  0  0  0  0  0  0  0  0  0
    5.3118   -3.7125    0.0000 O   0  0  0  0  0  0  0  0  0  0  0  0
    6.1368   -3.7125    0.0000 S   0  0  0  0  0  0  0  0  0  0  0  0
  5  3  1  0  0  0  0
  6  4  1  0  0  0  0
  8  7  2  0  0  0  0
 11  3  1  0  0  0  0
 11  4  1  0  0  0  0
 11  9  1  0  0  0  0
 12  5  1  0  0  0  0
 12  6  1  0  0  0  0
 13  7  1  0  0  0  0
 14 13  2  0  0  0  0
 15 13  1  0  0  0  0
 16  1  1  0  0  0  0
 17  8  1  0  0  0  0
 17 14  1  0  0  0  0
 18 10  2  0  0  0  0
 18 14  1  0  0  0  0
 19 10  1  0  0  0  0
 19 15  2  0  0  0  0
 20  2  1  0  0  0  0
 20 12  1  0  0  0  0
 20 15  1  0  0  0  0
 23  9  1  0  0  0  0
 23 16  1  0  0  0  0
 23 21  2  0  0  0  0
 23 22  2  0  0  0  0
M  END
> <DATABASE_ID>
DB11441

> <DATABASE_NAME>
drugbank

> <SMILES>
CNS(=O)(=O)CC1CCC(CC1)N(C)C1=NC=NC2=C1C=CN2

> <INCHI_IDENTIFIER>
InChI=1S/C15H23N5O2S/c1-16-23(21,22)9-11-3-5-12(6-4-11)20(2)15-13-7-8-17-14(13)18-10-19-15/h7-8,10-12,16H,3-6,9H2,1-2H3,(H,17,18,19)

> <INCHI_KEY>
HJWLJNBZVZDLAQ-UHFFFAOYSA-N

> <FORMULA>
C15H23N5O2S

> <MOLECULAR_WEIGHT>
337.44

> <EXACT_MASS>
337.157246175

> <JCHEM_ACCEPTOR_COUNT>
5

> <JCHEM_ATOM_COUNT>
46

> <JCHEM_AVERAGE_POLARIZABILITY>
35.47867229032737

> <JCHEM_BIOAVAILABILITY>
1

> <JCHEM_DONOR_COUNT>
2

> <JCHEM_FORMAL_CHARGE>
0

> <JCHEM_GHOSE_FILTER>
1

> <JCHEM_IUPAC>
N-methyl-1-{4-[methyl({7H-pyrrolo[2,3-d]pyrimidin-4-yl})amino]cyclohexyl}methanesulfonamide

> <ALOGPS_LOGP>
1.25

> <JCHEM_LOGP>
1.3052184700000007

> <ALOGPS_LOGS>
-3.26

> <JCHEM_MDDR_LIKE_RULE>
0

> <JCHEM_NUMBER_OF_RINGS>
3

> <JCHEM_PHYSIOLOGICAL_CHARGE>
1

> <JCHEM_PKA>
13.565066703371286

> <JCHEM_PKA_STRONGEST_ACIDIC>
11.252423777002463

> <JCHEM_PKA_STRONGEST_BASIC>
7.161385244271995

> <JCHEM_POLAR_SURFACE_AREA>
90.97999999999999

> <JCHEM_REFRACTIVITY>
90.74409999999997

> <JCHEM_ROTATABLE_BOND_COUNT>
4

> <JCHEM_RULE_OF_FIVE>
1

> <ALOGPS_SOLUBILITY>
1.85e-01 g/l

> <JCHEM_TRADITIONAL_IUPAC>
N-methyl-1-{4-[methyl(7H-pyrrolo[2,3-d]pyrimidin-4-yl)amino]cyclohexyl}methanesulfonamide

> <JCHEM_VEBER_RULE>
0

> <DRUGBANK_ID>
DB11441

> <DRUG_GROUPS>
investigational; vet_approved

> <GENERIC_NAME>
Oclacitinib

> <SYNONYMS>
Oclacitinib

> <SALTS>
Oclacitinib maleate

$$$$
