
  Mrv1652310201622382D          

 36 39  0  0  0  0            999 V2000
   -0.7145   -4.6993    0.0000 C   0  0  0  0  0  0  0  0  0  0  0  0
   -0.3020   -3.9849    0.0000 C   0  0  0  0  0  0  0  0  0  0  0  0
   -0.7145   -3.2704    0.0000 C   0  0  0  0  0  0  0  0  0  0  0  0
   -0.3020   -2.5559    0.0000 C   0  0  0  0  0  0  0  0  0  0  0  0
    0.5230   -2.5559    0.0000 C   0  0  0  0  0  0  0  0  0  0  0  0
    0.9355   -3.2704    0.0000 C   0  0  0  0  0  0  0  0  0  0  0  0
    0.5230   -3.9849    0.0000 C   0  0  0  0  0  0  0  0  0  0  0  0
    0.9355   -1.8414    0.0000 C   0  0  0  0  0  0  0  0  0  0  0  0
    1.7605   -1.8414    0.0000 O   0  0  0  0  0  0  0  0  0  0  0  0
    0.5230   -1.1270    0.0000 N   0  0  0  0  0  0  0  0  0  0  0  0
   -0.3020   -1.1270    0.0000 C   0  0  0  0  0  0  0  0  0  0  0  0
   -0.7145   -0.4125    0.0000 C   0  0  0  0  0  0  0  0  0  0  0  0
   -1.5395   -0.4125    0.0000 C   0  0  0  0  0  0  0  0  0  0  0  0
   -1.9520   -1.1270    0.0000 N   0  0  0  0  0  0  0  0  0  0  0  0
    0.9355   -0.4125    0.0000 C   0  0  0  0  0  0  0  0  0  0  0  0
    0.5230    0.3020    0.0000 C   0  0  0  0  0  0  0  0  0  0  0  0
   -0.3020    0.3020    0.0000 N   0  0  0  0  0  0  0  0  0  0  0  0
   -0.7145    1.0164    0.0000 C   0  0  0  0  0  0  0  0  0  0  0  0
   -0.3020    1.7309    0.0000 C   0  0  0  0  0  0  0  0  0  0  0  0
   -0.8540    2.3440    0.0000 C   0  0  0  0  0  0  0  0  0  0  0  0
   -1.6077    2.0084    0.0000 N   0  0  0  0  0  0  0  0  0  0  0  0
   -1.5214    1.1880    0.0000 S   0  0  0  0  0  0  0  0  0  0  0  0
   -0.6825    3.1510    0.0000 C   0  0  0  0  0  0  0  0  0  0  0  0
    0.5230    1.7309    0.0000 C   0  0  0  0  0  0  0  0  0  0  0  0
    0.9355    2.4454    0.0000 O   0  0  0  0  0  0  0  0  0  0  0  0
    0.9355    1.0164    0.0000 N   0  0  0  0  0  0  0  0  0  0  0  0
    1.7605    1.0164    0.0000 C   0  0  0  0  0  0  0  0  0  0  0  0
    2.1730    1.7309    0.0000 C   0  0  0  0  0  0  0  0  0  0  0  0
    1.7605    2.4454    0.0000 C   0  0  0  0  0  0  0  0  0  0  0  0
    2.1730    3.1599    0.0000 C   0  0  0  0  0  0  0  0  0  0  0  0
    2.9980    3.1599    0.0000 C   0  0  0  0  0  0  0  0  0  0  0  0
    3.4105    2.4454    0.0000 C   0  0  0  0  0  0  0  0  0  0  0  0
    2.9980    1.7309    0.0000 C   0  0  0  0  0  0  0  0  0  0  0  0
    1.7605   -0.4125    0.0000 C   0  0  0  0  0  0  0  0  0  0  0  0
    2.1730    0.3020    0.0000 C   0  0  0  0  0  0  0  0  0  0  0  0
    2.1730   -1.1270    0.0000 C   0  0  0  0  0  0  0  0  0  0  0  0
  1  2  1  0  0  0  0
  2  3  2  0  0  0  0
  3  4  1  0  0  0  0
  4  5  2  0  0  0  0
  5  6  1  0  0  0  0
  6  7  2  0  0  0  0
  2  7  1  0  0  0  0
  5  8  1  0  0  0  0
  8  9  2  0  0  0  0
  8 10  1  0  0  0  0
 10 11  1  0  0  0  0
 11 12  1  0  0  0  0
 12 13  1  0  0  0  0
 13 14  1  0  0  0  0
 10 15  1  0  0  0  0
 15 16  1  0  0  0  0
 16 17  2  0  0  0  0
 17 18  1  0  0  0  0
 18 19  2  0  0  0  0
 19 20  1  0  0  0  0
 20 21  2  0  0  0  0
 21 22  1  0  0  0  0
 18 22  1  0  0  0  0
 20 23  1  0  0  0  0
 19 24  1  0  0  0  0
 24 25  2  0  0  0  0
 24 26  1  0  0  0  0
 16 26  1  0  0  0  0
 26 27  1  0  0  0  0
 27 28  1  0  0  0  0
 28 29  2  0  0  0  0
 29 30  1  0  0  0  0
 30 31  2  0  0  0  0
 31 32  1  0  0  0  0
 32 33  2  0  0  0  0
 28 33  1  0  0  0  0
 15 34  1  0  0  0  0
 34 35  1  0  0  0  0
 34 36  1  0  0  0  0
M  END
> <DATABASE_ID>
DB11671

> <DATABASE_NAME>
drugbank

> <SMILES>
CC(C)C(N(CCCN)C(=O)C1=CC=C(C)C=C1)C1=NC2=C(C(C)=NS2)C(=O)N1CC1=CC=CC=C1

> <INCHI_IDENTIFIER>
InChI=1S/C28H33N5O2S/c1-18(2)24(32(16-8-15-29)27(34)22-13-11-19(3)12-14-22)25-30-26-23(20(4)31-36-26)28(35)33(25)17-21-9-6-5-7-10-21/h5-7,9-14,18,24H,8,15-17,29H2,1-4H3

> <INCHI_KEY>
SMFXSYMLJDHGIE-UHFFFAOYSA-N

> <FORMULA>
C28H33N5O2S

> <MOLECULAR_WEIGHT>
503.67

> <EXACT_MASS>
503.235496497

> <JCHEM_ACCEPTOR_COUNT>
5

> <JCHEM_ATOM_COUNT>
69

> <JCHEM_AVERAGE_POLARIZABILITY>
55.478536969772655

> <JCHEM_BIOAVAILABILITY>
1

> <JCHEM_DONOR_COUNT>
1

> <JCHEM_FORMAL_CHARGE>
0

> <JCHEM_GHOSE_FILTER>
0

> <JCHEM_IUPAC>
N-(3-aminopropyl)-N-(1-{5-benzyl-3-methyl-4-oxo-4H,5H-[1,2]thiazolo[5,4-d]pyrimidin-6-yl}-2-methylpropyl)-4-methylbenzamide

> <ALOGPS_LOGP>
3.86

> <JCHEM_LOGP>
4.193793334666669

> <ALOGPS_LOGS>
-5.24

> <JCHEM_MDDR_LIKE_RULE>
1

> <JCHEM_NUMBER_OF_RINGS>
4

> <JCHEM_PHYSIOLOGICAL_CHARGE>
1

> <JCHEM_PKA_STRONGEST_BASIC>
9.767207754022158

> <JCHEM_POLAR_SURFACE_AREA>
91.89

> <JCHEM_REFRACTIVITY>
146.30820000000003

> <JCHEM_ROTATABLE_BOND_COUNT>
9

> <JCHEM_RULE_OF_FIVE>
0

> <ALOGPS_SOLUBILITY>
2.92e-03 g/l

> <JCHEM_TRADITIONAL_IUPAC>
N-(3-aminopropyl)-N-(1-{5-benzyl-3-methyl-4-oxo-[1,2]thiazolo[5,4-d]pyrimidin-6-yl}-2-methylpropyl)-4-methylbenzamide

> <JCHEM_VEBER_RULE>
0

> <DRUGBANK_ID>
DB11671

> <DRUG_GROUPS>
investigational

> <GENERIC_NAME>
AZD-4877

$$$$
