
  Mrv1909 02242121432D          

  2  1  0  0  0  0            999 V2000
   -0.4125   -0.0033    0.0000 Tl  0  0  0  0  0  1  0  0  0  0  0  0
    0.4125    0.0033    0.0000 Cl  0  0  0  0  0  0  0  0  0  0  0  0
  2  1  1  0  0  0  0
M  ISO  1   1 201
M  END
> <DATABASE_ID>
DB16624

> <DATABASE_NAME>
drugbank

> <SMILES>
Cl[201Tl]

> <INCHI_IDENTIFIER>
InChI=1S/ClH.Tl/h1H;/q;+1/p-1/i;1-3

> <INCHI_KEY>
GBECUEIQVRDUKB-RYDPDVNUSA-M

> <FORMULA>
ClTl

> <MOLECULAR_WEIGHT>
236.42

> <EXACT_MASS>
235.9396565

> <JCHEM_ACCEPTOR_COUNT>
0

> <JCHEM_ATOM_COUNT>
2

> <JCHEM_AVERAGE_NEUTRAL_MICROSPECIES_CHARGE>
0.0

> <JCHEM_AVERAGE_POLARIZABILITY>
4.346510788320492

> <JCHEM_BIOAVAILABILITY>
1

> <JCHEM_DONOR_COUNT>
0

> <JCHEM_FORMAL_CHARGE>
0

> <JCHEM_GHOSE_FILTER>
0

> <JCHEM_IUPAC>
chloro(201Tl)thallane

> <JCHEM_LOGP>
0.5345

> <JCHEM_MDDR_LIKE_RULE>
0

> <JCHEM_NEUTRAL_CHARGE>
0

> <JCHEM_NUMBER_OF_RINGS>
0

> <JCHEM_PHYSIOLOGICAL_CHARGE>
0

> <JCHEM_POLAR_SURFACE_AREA>
0.0

> <JCHEM_REFRACTIVITY>
6.1363

> <JCHEM_ROTATABLE_BOND_COUNT>
0

> <JCHEM_RULE_OF_FIVE>
1

> <JCHEM_TRADITIONAL_IUPAC>
N-demethyldiltiazem

> <JCHEM_VEBER_RULE>
1

> <DRUGBANK_ID>
DB16624

> <DRUG_GROUPS>
approved

> <GENERIC_NAME>
Thallous chloride Tl-201

> <SYNONYMS>
Thallium (201Tl) chloride; Thallous chloride Tl 201

> <PRODUCTS>
THALLOUS CHLORIDE Tl 201; Thallous Chloride Tl 201

$$$$
