
  Mrv1652306231722452D          

 37 41  0  0  1  0            999 V2000
    7.3145   -1.0164    0.0000 C   0  0  0  0  0  0  0  0  0  0  0  0
    7.7270   -0.3020    0.0000 C   0  0  0  0  0  0  0  0  0  0  0  0
    8.5520   -0.3020    0.0000 O   0  0  0  0  0  0  0  0  0  0  0  0
    7.3145    0.4125    0.0000 O   0  0  0  0  0  0  0  0  0  0  0  0
    6.4895    0.4125    0.0000 C   0  0  1  0  0  0  0  0  0  0  0  0
    6.0770   -0.3020    0.0000 C   0  0  0  0  0  0  0  0  0  0  0  0
    5.2520   -0.3020    0.0000 C   0  0  0  0  0  0  0  0  0  0  0  0
    4.8395    0.4125    0.0000 C   0  0  1  0  0  0  0  0  0  0  0  0
    5.2520    1.1270    0.0000 C   0  0  2  0  0  0  0  0  0  0  0  0
    6.0770    1.1270    0.0000 C   0  0  0  0  0  0  0  0  0  0  0  0
    6.1058    1.9515    0.0000 C   0  0  0  0  0  0  0  0  0  0  0  0
    6.7766    1.5642    0.0000 C   0  0  0  0  0  0  0  0  0  0  0  0
    4.8395    1.8414    0.0000 C   0  0  0  0  0  0  0  0  0  0  0  0
    4.0145    1.8414    0.0000 C   0  0  0  0  0  0  0  0  0  0  0  0
    3.6020    1.1270    0.0000 C   0  0  2  0  0  0  0  0  0  0  0  0
    4.0145    0.4125    0.0000 C   0  0  2  0  0  0  0  0  0  0  0  0
    3.6020   -0.3020    0.0000 C   0  0  0  0  0  0  0  0  0  0  0  0
    4.0145   -1.0164    0.0000 O   0  0  0  0  0  0  0  0  0  0  0  0
    2.7770   -0.3020    0.0000 C   0  0  0  0  0  0  0  0  0  0  0  0
    2.3645    0.4125    0.0000 C   0  0  0  0  0  0  0  0  0  0  0  0
    2.7770    1.1270    0.0000 C   0  0  1  0  0  0  0  0  0  0  0  0
    2.3645    1.8414    0.0000 C   0  0  0  0  0  0  0  0  0  0  0  0
    1.5395    1.8414    0.0000 C   0  0  0  0  0  0  0  0  0  0  0  0
    1.1270    1.1270    0.0000 C   0  0  2  0  0  0  0  0  0  0  0  0
    1.5395    0.4125    0.0000 C   0  0  1  0  0  0  0  0  0  0  0  0
    1.1270   -0.3020    0.0000 C   0  0  0  0  0  0  0  0  0  0  0  0
    0.3020   -0.3020    0.0000 C   0  0  1  0  0  0  0  0  0  0  0  0
   -0.1105    0.4125    0.0000 C   0  0  0  0  0  0  0  0  0  0  0  0
    0.3020    1.1270    0.0000 C   0  0  0  0  0  0  0  0  0  0  0  0
    0.2732   -1.1265    0.0000 C   0  0  0  0  0  0  0  0  0  0  0  0
   -0.3977   -0.7392    0.0000 C   0  0  0  0  0  0  0  0  0  0  0  0
   -0.3689   -1.5637    0.0000 O   0  0  0  0  0  0  0  0  0  0  0  0
   -1.1261   -0.3518    0.0000 O   0  0  0  0  0  0  0  0  0  0  0  0
    0.7145    1.8414    0.0000 C   0  0  0  0  0  0  0  0  0  0  0  0
    3.1895    1.8414    0.0000 C   0  0  0  0  0  0  0  0  0  0  0  0
    3.6882    1.9475    0.0000 C   0  0  0  0  0  0  0  0  0  0  0  0
    4.4270   -0.3020    0.0000 C   0  0  0  0  0  0  0  0  0  0  0  0
  1  2  1  0  0  0  0
  2  3  2  0  0  0  0
  2  4  1  0  0  0  0
  5  4  1  1  0  0  0
  5  6  1  0  0  0  0
  6  7  1  0  0  0  0
  7  8  1  0  0  0  0
  8  9  1  0  0  0  0
  9 10  1  0  0  0  0
  5 10  1  0  0  0  0
 10 11  1  0  0  0  0
 10 12  1  0  0  0  0
  9 13  1  1  0  0  0
 13 14  1  0  0  0  0
 14 15  1  0  0  0  0
 15 16  1  0  0  0  0
  8 16  1  0  0  0  0
 16 17  1  1  0  0  0
 17 18  2  0  0  0  0
 17 19  1  0  0  0  0
 19 20  2  0  0  0  0
 20 21  1  0  0  0  0
 15 21  1  0  0  0  0
 21 22  1  0  0  0  0
 22 23  1  0  0  0  0
 23 24  1  0  0  0  0
 24 25  1  0  0  0  0
 25 20  1  6  0  0  0
 25 26  1  0  0  0  0
 26 27  1  0  0  0  0
 27 28  1  0  0  0  0
 28 29  1  0  0  0  0
 24 29  1  0  0  0  0
 27 30  1  6  0  0  0
 27 31  1  1  0  0  0
 31 32  2  0  0  0  0
 31 33  1  0  0  0  0
 24 34  1  1  0  0  0
 21 35  1  6  0  0  0
 15 36  1  1  0  0  0
  8 37  1  1  0  0  0
M  END
> <DATABASE_ID>
DB13640

> <DATABASE_NAME>
drugbank

> <SMILES>
CC(=O)O[C@H]1CC[C@@]2(C)[C@@H](CC[C@]3(C)[C@@H]2C(=O)C=C2[C@@H]4C[C@](C)(CC[C@]4(C)CC[C@@]32C)C(O)=O)C1(C)C

> <INCHI_IDENTIFIER>
InChI=1S/C32H48O5/c1-19(33)37-24-10-11-30(6)23(27(24,2)3)9-12-32(8)25(30)22(34)17-20-21-18-29(5,26(35)36)14-13-28(21,4)15-16-31(20,32)7/h17,21,23-25H,9-16,18H2,1-8H3,(H,35,36)/t21-,23-,24-,25+,28+,29-,30-,31+,32+/m0/s1

> <INCHI_KEY>
FTQDJVZNPJRVPG-XWEVEMRCSA-N

> <FORMULA>
C32H48O5

> <MOLECULAR_WEIGHT>
512.731

> <EXACT_MASS>
512.350174646

> <JCHEM_ACCEPTOR_COUNT>
4

> <JCHEM_ATOM_COUNT>
85

> <JCHEM_AVERAGE_POLARIZABILITY>
59.68387586910149

> <JCHEM_BIOAVAILABILITY>
0

> <JCHEM_DONOR_COUNT>
1

> <JCHEM_FORMAL_CHARGE>
0

> <JCHEM_GHOSE_FILTER>
0

> <JCHEM_IUPAC>
(2S,4aS,6aS,6bR,8aR,10S,12aS,12bR,14bR)-10-(acetyloxy)-2,4a,6a,6b,9,9,12a-heptamethyl-13-oxo-1,2,3,4,4a,5,6,6a,6b,7,8,8a,9,10,11,12,12a,12b,13,14b-icosahydropicene-2-carboxylic acid

> <ALOGPS_LOGP>
5.99

> <JCHEM_LOGP>
6.4724534466666634

> <ALOGPS_LOGS>
-5.97

> <JCHEM_MDDR_LIKE_RULE>
0

> <JCHEM_NUMBER_OF_RINGS>
5

> <JCHEM_PHYSIOLOGICAL_CHARGE>
-1

> <JCHEM_PKA_STRONGEST_ACIDIC>
4.444329599297022

> <JCHEM_PKA_STRONGEST_BASIC>
-5.097523233513453

> <JCHEM_POLAR_SURFACE_AREA>
80.67

> <JCHEM_REFRACTIVITY>
143.42

> <JCHEM_ROTATABLE_BOND_COUNT>
3

> <JCHEM_RULE_OF_FIVE>
0

> <ALOGPS_SOLUBILITY>
5.55e-04 g/l

> <JCHEM_TRADITIONAL_IUPAC>
acetoxolone

> <JCHEM_VEBER_RULE>
0

> <DRUGBANK_ID>
DB13640

> <DRUG_GROUPS>
experimental

> <GENERIC_NAME>
Acetoxolone

$$$$
