
  Mrv1909 11231916282D          

 29 30  0  0  0  0            999 V2000
   -0.7145   -0.4125    0.0000 O   0  0  0  0  0  0  0  0  0  0  0  0
   -1.4289    0.0000    0.0000 C   0  0  1  0  0  0  0  0  0  0  0  0
   -2.1434   -0.4125    0.0000 C   0  0  1  0  0  0  0  0  0  0  0  0
   -1.4289    0.8250    0.0000 O   0  0  0  0  0  0  0  0  0  0  0  0
   -2.8579    0.0000    0.0000 C   0  0  2  0  0  0  0  0  0  0  0  0
   -2.1434   -1.2374    0.0000 N   0  0  0  0  0  0  0  0  0  0  0  0
    0.0000    0.0000    0.0000 C   0  0  2  0  0  0  0  0  0  0  0  0
   -2.1434    1.2374    0.0000 C   0  0  1  0  0  0  0  0  0  0  0  0
   -2.8579    0.8250    0.0000 C   0  0  1  0  0  0  0  0  0  0  0  0
   -3.5723   -0.4125    0.0000 O   0  0  0  0  0  0  0  0  0  0  0  0
   -1.4289   -1.6500    0.0000 C   0  0  0  0  0  0  0  0  0  0  0  0
    0.0000    0.8250    0.0000 C   0  0  2  0  0  0  0  0  0  0  0  0
    0.7144   -0.4125    0.0000 C   0  0  1  0  0  0  0  0  0  0  0  0
   -2.1434    2.0625    0.0000 C   0  0  0  0  0  0  0  0  0  0  0  0
   -3.5723    1.2374    0.0000 O   0  0  0  0  0  0  0  0  0  0  0  0
   -0.7145   -1.2374    0.0000 C   0  0  0  0  0  0  0  0  0  0  0  0
   -1.4289   -2.4749    0.0000 O   0  0  0  0  0  0  0  0  0  0  0  0
    0.7144    1.2374    0.0000 O   0  0  0  0  0  0  0  0  0  0  0  0
   -0.7145    1.2374    0.0000 C   0  0  0  0  0  0  0  0  0  0  0  0
    1.4288    0.0000    0.0000 C   0  0  2  0  0  0  0  0  0  0  0  0
    0.7144   -1.2374    0.0000 O   0  0  0  0  0  0  0  0  0  0  0  0
   -2.8579    2.4750    0.0000 O   0  0  0  0  0  0  0  0  0  0  0  0
    1.4288    0.8250    0.0000 C   0  0  2  0  0  0  0  0  0  0  0  0
   -0.7145    2.0625    0.0000 O   0  0  0  0  0  0  0  0  0  0  0  0
    2.1433   -0.4125    0.0000 N   0  0  0  0  0  0  0  0  0  0  0  0
    2.1433    1.2374    0.0000 O   0  0  0  0  0  0  0  0  0  0  0  0
    2.8578    0.0000    0.0000 C   0  0  0  0  0  0  0  0  0  0  0  0
    2.8578    0.8250    0.0000 O   0  0  0  0  0  0  0  0  0  0  0  0
    3.5723   -0.4125    0.0000 C   0  0  0  0  0  0  0  0  0  0  0  0
  2  1  1  1  0  0  0
  7  1  1  6  0  0  0
  2  3  1  0  0  0  0
  2  4  1  0  0  0  0
  3  5  1  0  0  0  0
  3  6  1  6  0  0  0
  4  8  1  0  0  0  0
  5  9  1  0  0  0  0
  5 10  1  1  0  0  0
  6 11  1  0  0  0  0
  7 12  1  0  0  0  0
  7 13  1  0  0  0  0
  8 14  1  1  0  0  0
  9 15  1  6  0  0  0
 11 16  1  0  0  0  0
 11 17  2  0  0  0  0
 12 18  1  0  0  0  0
 12 19  1  1  0  0  0
 13 20  1  0  0  0  0
 13 21  1  1  0  0  0
 14 22  1  0  0  0  0
 18 23  1  0  0  0  0
 19 24  1  0  0  0  0
 20 25  1  6  0  0  0
 23 26  1  1  0  0  0
 25 27  1  0  0  0  0
 27 28  2  0  0  0  0
 27 29  1  0  0  0  0
  8  9  1  0  0  0  0
 20 23  1  0  0  0  0
M  END
> <DATABASE_ID>
DB03013

> <DATABASE_NAME>
drugbank

> <SMILES>
CC(=O)N[C@H]1[C@H](O)O[C@H](CO)[C@@H](O[C@@H]2O[C@H](CO)[C@@H](O)[C@H](O)[C@H]2NC(C)=O)[C@@H]1O

> <INCHI_IDENTIFIER>
InChI=1S/C16H28N2O11/c1-5(21)17-9-13(25)14(8(4-20)27-15(9)26)29-16-10(18-6(2)22)12(24)11(23)7(3-19)28-16/h7-16,19-20,23-26H,3-4H2,1-2H3,(H,17,21)(H,18,22)/t7-,8-,9-,10-,11-,12-,13-,14-,15-,16+/m1/s1

> <INCHI_KEY>
CDOJPCSDOXYJJF-KSKNGZLJSA-N

> <FORMULA>
C16H28N2O11

> <MOLECULAR_WEIGHT>
424.4003

> <EXACT_MASS>
424.169309748

> <JCHEM_ACCEPTOR_COUNT>
11

> <JCHEM_ATOM_COUNT>
57

> <JCHEM_AVERAGE_POLARIZABILITY>
40.85557068207311

> <JCHEM_BIOAVAILABILITY>
0

> <JCHEM_DONOR_COUNT>
8

> <JCHEM_FORMAL_CHARGE>
0

> <JCHEM_GHOSE_FILTER>
0

> <JCHEM_IUPAC>
N-[(2S,3R,4R,5S,6R)-2-{[(2R,3S,4R,5R,6R)-5-acetamido-4,6-dihydroxy-2-(hydroxymethyl)oxan-3-yl]oxy}-4,5-dihydroxy-6-(hydroxymethyl)oxan-3-yl]acetamide

> <ALOGPS_LOGP>
-2.60

> <JCHEM_LOGP>
-5.279445251

> <ALOGPS_LOGS>
-0.58

> <JCHEM_MDDR_LIKE_RULE>
0

> <JCHEM_NUMBER_OF_RINGS>
2

> <JCHEM_PHYSIOLOGICAL_CHARGE>
0

> <JCHEM_PKA>
12.217954007028705

> <JCHEM_PKA_STRONGEST_ACIDIC>
11.50483405170814

> <JCHEM_PKA_STRONGEST_BASIC>
-2.9810292519676453

> <JCHEM_POLAR_SURFACE_AREA>
207.26999999999998

> <JCHEM_REFRACTIVITY>
90.5393

> <JCHEM_ROTATABLE_BOND_COUNT>
6

> <JCHEM_RULE_OF_FIVE>
0

> <ALOGPS_SOLUBILITY>
1.11e+02 g/l

> <JCHEM_TRADITIONAL_IUPAC>
N-(3-{[4-(benzyloxy)-3,5-dimethoxyphenyl]formamido}-2-hydroxy-4-phenylbutyl)-3-(1,3-dioxoisoindol-2-yl)-N-{2-[(5S)-hexahydro-2H-1,3-benzodioxol-5-yl]ethyl}propanamide

> <JCHEM_VEBER_RULE>
0

> <DRUGBANK_ID>
DB03013

> <SECONDARY_ACCESSION_NUMBERS>
EXPT00851

> <DRUG_GROUPS>
experimental

> <GENERIC_NAME>
N-acetyl-beta-D-glucosaminyl-(1->4)-N-acetyl-beta-D-glucosamine

> <SYNONYMS>
Chitodextrin; β-D-GlcNAc-(1→4)-β-D-GlcNAc; β-D-GlcpNAc-(1→4)-β-D-GlcpNAc; βGlcNAc(1→4)βGlcNAc

$$$$
