
  Mrv1909 01292018132D          

  5  3  0  0  0  0            999 V2000
   -1.0395   -0.2062    0.0000 Ag  0  3  0  0  0  0  0  0  0  0  0  0
    0.3250    0.6187    0.0000 O   0  5  0  0  0  0  0  0  0  0  0  0
    1.0395   -0.6187    0.0000 O   0  0  0  0  0  0  0  0  0  0  0  0
    0.3250   -0.2062    0.0000 N   0  0  0  0  0  0  0  0  0  0  0  0
   -0.3894   -0.6187    0.0000 O   0  0  0  0  0  0  0  0  0  0  0  0
  4  2  1  0  0  0  0
  4  3  2  0  0  0  0
  4  5  2  0  0  0  0
M  CHG  2   1   1   2  -1
M  END
> <DATABASE_ID>
DB11080

> <DATABASE_NAME>
drugbank

> <SMILES>
[Ag+].[O-]N(=O)=O

> <INCHI_IDENTIFIER>
InChI=1S/Ag.NO3/c;2-1(3)4/q+1;-1

> <INCHI_KEY>
SQGYOTSLMSWVJD-UHFFFAOYSA-N

> <FORMULA>
AgNO3

> <MOLECULAR_WEIGHT>
169.8731

> <EXACT_MASS>
168.892910891

> <JCHEM_ACCEPTOR_COUNT>
3

> <JCHEM_ATOM_COUNT>
5

> <JCHEM_AVERAGE_NEUTRAL_MICROSPECIES_CHARGE>
-0.9999999960189283

> <JCHEM_AVERAGE_POLARIZABILITY>
3.239762129889276

> <JCHEM_BIOAVAILABILITY>
1

> <JCHEM_DONOR_COUNT>
0

> <JCHEM_FORMAL_CHARGE>
0

> <JCHEM_GHOSE_FILTER>
0

> <JCHEM_IUPAC>
silver(1+) nitrate

> <JCHEM_LOGP>
0.02841376366666668

> <JCHEM_MDDR_LIKE_RULE>
0

> <JCHEM_NEUTRAL_CHARGE>
-1

> <JCHEM_NUMBER_OF_RINGS>
0

> <JCHEM_PHYSIOLOGICAL_CHARGE>
-1

> <JCHEM_PKA_STRONGEST_ACIDIC>
-1.3999999999999992

> <JCHEM_PKA_STRONGEST_BASIC>
-9.97216

> <JCHEM_POLAR_SURFACE_AREA>
68.88

> <JCHEM_REFRACTIVITY>
9.8534

> <JCHEM_ROTATABLE_BOND_COUNT>
0

> <JCHEM_RULE_OF_FIVE>
1

> <JCHEM_TRADITIONAL_IUPAC>
fidaxomicin

> <JCHEM_VEBER_RULE>
0

> <DRUGBANK_ID>
DB11080

> <DRUG_GROUPS>
approved; investigational

> <GENERIC_NAME>
Silver nitrate

> <SYNONYMS>
Nitrate d'argent; Nitrato de plata; Silver mononitrate; Silver nitrate; silver(1+) nitrate

> <PRODUCTS>
Anti-bacterial Slime; Avoca Flexible Caustic Applicator; Grafco Applicator 15 Cm; Grafco Applicator 30 Cm; Grafco Applicator 45 Cm; Grafco Silver Nitrate (75% Silver Nitrate, 25% Potassium Nitrate); Repara Silver Nitrate Applicators; Silver Nitrate; Silver Nitrate Applicator; Silver Nitrate Applicators; Silver Nitrate Potassium Nitrate; Styptstix; Swabs; Vet one

> <INTERNATIONAL_BRANDS>
Avoca

$$$$
