
  Mrv1718006121800462D          

 24 26  0  0  0  0            999 V2000
    3.0709    1.0656    0.0000 O   0  0  0  0  0  0  0  0  0  0  0  0
   -0.9390    0.9742    0.0000 O   0  0  0  0  0  0  0  0  0  0  0  0
   -3.2031   -3.6923    0.0000 O   0  0  0  0  0  0  0  0  0  0  0  0
    2.5464    2.4390    0.0000 N   0  0  0  0  0  0  0  0  0  0  0  0
    0.4192    0.5303    0.0000 N   0  0  0  0  0  0  0  0  0  0  0  0
   -1.7079   -1.3783    0.0000 N   0  0  0  0  0  0  0  0  0  0  0  0
   -3.2031   -1.2172    0.0000 N   0  0  0  0  0  0  0  0  0  0  0  0
   -1.7079   -2.7062    0.0000 N   0  0  0  0  0  0  0  0  0  0  0  0
   -3.9176   -2.4548    0.0000 N   0  0  0  0  0  0  0  0  0  0  0  0
    2.8833    3.1922    0.0000 C   0  0  0  0  0  0  0  0  0  0  0  0
    3.7037    3.1045    0.0000 C   0  0  0  0  0  0  0  0  0  0  0  0
    1.7391    2.2689    0.0000 C   0  0  0  0  0  0  0  0  0  0  0  0
    3.8738    2.2972    0.0000 C   0  0  0  0  0  0  0  0  0  0  0  0
    3.1586    1.8859    0.0000 C   0  0  0  0  0  0  0  0  0  0  0  0
    1.4828    1.4847    0.0000 C   0  0  0  0  0  0  0  0  0  0  0  0
    0.6755    1.3146    0.0000 C   0  0  0  0  0  0  0  0  0  0  0  0
   -1.4516   -0.5941    0.0000 C   0  0  0  0  0  0  0  0  0  0  0  0
   -0.6443   -0.4239    0.0000 C   0  0  0  0  0  0  0  0  0  0  0  0
   -0.3880    0.3602    0.0000 C   0  0  0  0  0  0  0  0  0  0  0  0
   -2.4886   -1.6297    0.0000 C   0  0  0  0  0  0  0  0  0  0  0  0
   -2.4886   -2.4548    0.0000 C   0  0  0  0  0  0  0  0  0  0  0  0
   -1.2264   -2.0422    0.0000 C   0  0  0  0  0  0  0  0  0  0  0  0
   -3.2031   -2.8673    0.0000 C   0  0  0  0  0  0  0  0  0  0  0  0
   -3.9176   -1.6297    0.0000 C   0  0  0  0  0  0  0  0  0  0  0  0
  1 14  2  0  0  0  0
  2 19  2  0  0  0  0
  3 23  2  0  0  0  0
  4 10  1  0  0  0  0
  4 12  1  0  0  0  0
  4 14  1  0  0  0  0
  5 16  1  0  0  0  0
  5 19  1  0  0  0  0
  6 17  1  0  0  0  0
  6 20  1  0  0  0  0
  6 22  1  0  0  0  0
  7 20  1  0  0  0  0
  7 24  1  0  0  0  0
  8 21  1  0  0  0  0
  8 22  2  0  0  0  0
  9 23  1  0  0  0  0
  9 24  2  0  0  0  0
 10 11  1  0  0  0  0
 11 13  1  0  0  0  0
 12 15  1  0  0  0  0
 13 14  1  0  0  0  0
 15 16  1  0  0  0  0
 17 18  1  0  0  0  0
 18 19  1  0  0  0  0
 20 21  2  0  0  0  0
 21 23  1  0  0  0  0
M  END
> <DATABASE_ID>
DB06106

> <DATABASE_NAME>
drugbank

> <SMILES>
O=C(CCN1C=NC2=C1NC=NC2=O)NCCCN1CCCC1=O

> <INCHI_IDENTIFIER>
InChI=1S/C15H20N6O3/c22-11(16-5-2-7-20-6-1-3-12(20)23)4-8-21-10-19-13-14(21)17-9-18-15(13)24/h9-10H,1-8H2,(H,16,22)(H,17,18,24)

> <INCHI_KEY>
FBVDVFULNXWYRF-UHFFFAOYSA-N

> <FORMULA>
C15H20N6O3

> <MOLECULAR_WEIGHT>
332.364

> <EXACT_MASS>
332.159688528

> <JCHEM_ACCEPTOR_COUNT>
6

> <JCHEM_ATOM_COUNT>
44

> <JCHEM_AVERAGE_POLARIZABILITY>
34.24680836674569

> <JCHEM_BIOAVAILABILITY>
1

> <JCHEM_DONOR_COUNT>
2

> <JCHEM_FORMAL_CHARGE>
0

> <JCHEM_GHOSE_FILTER>
0

> <JCHEM_IUPAC>
3-(6-oxo-6,9-dihydro-3H-purin-9-yl)-N-[3-(2-oxopyrrolidin-1-yl)propyl]propanamide

> <ALOGPS_LOGP>
-0.54

> <JCHEM_LOGP>
-1.5130689693333332

> <ALOGPS_LOGS>
-2.07

> <JCHEM_MDDR_LIKE_RULE>
1

> <JCHEM_NUMBER_OF_RINGS>
3

> <JCHEM_PHYSIOLOGICAL_CHARGE>
0

> <JCHEM_PKA>
15.16394792453437

> <JCHEM_PKA_STRONGEST_ACIDIC>
10.964455649338323

> <JCHEM_PKA_STRONGEST_BASIC>
2.987090651144212

> <JCHEM_POLAR_SURFACE_AREA>
108.69

> <JCHEM_REFRACTIVITY>
86.7527

> <JCHEM_ROTATABLE_BOND_COUNT>
7

> <JCHEM_RULE_OF_FIVE>
1

> <ALOGPS_SOLUBILITY>
2.80e+00 g/l

> <JCHEM_TRADITIONAL_IUPAC>
3-(6-oxo-3H-purin-9-yl)-N-[3-(2-oxopyrrolidin-1-yl)propyl]propanamide

> <JCHEM_VEBER_RULE>
0

> <DRUGBANK_ID>
DB06106

> <DRUG_GROUPS>
investigational

> <GENERIC_NAME>
AIT-034

$$$$
