
  Mrv1909 02052123432D          

 51 57  0  0  0  0            999 V2000
    0.9805   -3.9580    0.0000 C   0  0  0  0  0  0  0  0  0  0  0  0
    1.4343   -2.0356    0.0000 N   0  0  0  0  0  0  0  0  0  0  0  0
    0.6096   -2.0154    0.0000 C   0  0  0  0  0  0  0  0  0  0  0  0
    0.3430   -2.7929    0.0000 N   0  0  0  0  0  0  0  0  0  0  0  0
    0.9908   -3.3039    0.0000 N   0  0  0  0  0  0  0  0  0  0  0  0
    1.6627   -2.8251    0.0000 C   0  0  0  0  0  0  0  0  0  0  0  0
    0.2586   -4.3581    0.0000 C   0  0  2  0  0  0  0  0  0  0  0  0
   -3.1300    2.0460    0.0000 C   0  0  0  0  0  0  0  0  0  0  0  0
   -3.1300    1.2210    0.0000 C   0  0  0  0  0  0  0  0  0  0  0  0
   -2.4286    0.8086    0.0000 C   0  0  0  0  0  0  0  0  0  0  0  0
   -1.6862    1.2210    0.0000 C   0  0  0  0  0  0  0  0  0  0  0  0
   -1.6862    2.0460    0.0000 C   0  0  0  0  0  0  0  0  0  0  0  0
   -2.4286    2.4585    0.0000 C   0  0  0  0  0  0  0  0  0  0  0  0
   -2.4286   -0.0164    0.0000 N   0  0  0  0  0  0  0  0  0  0  0  0
   -3.1300   -0.4289    0.0000 C   0  0  0  0  0  0  0  0  0  0  0  0
   -3.1300   -1.2537    0.0000 C   0  0  0  0  0  0  0  0  0  0  0  0
   -2.4287   -1.6663    0.0000 N   0  0  0  0  0  0  0  0  0  0  0  0
   -1.6863   -1.2537    0.0000 C   0  0  0  0  0  0  0  0  0  0  0  0
   -1.6862   -0.4289    0.0000 C   0  0  0  0  0  0  0  0  0  0  0  0
   -2.4287   -2.4913    0.0000 C   0  0  0  0  0  0  0  0  0  0  0  0
   -3.1300   -2.9037    0.0000 C   0  0  0  0  0  0  0  0  0  0  0  0
   -3.1300   -3.7286    0.0000 C   0  0  0  0  0  0  0  0  0  0  0  0
   -2.4287   -4.1412    0.0000 C   0  0  0  0  0  0  0  0  0  0  0  0
   -1.7274   -3.7286    0.0000 C   0  0  0  0  0  0  0  0  0  0  0  0
   -1.7274   -2.9037    0.0000 C   0  0  0  0  0  0  0  0  0  0  0  0
   -2.4244   -4.9689    0.0000 O   0  0  0  0  0  0  0  0  0  0  0  0
   -1.6745   -5.2847    0.0000 C   0  0  0  0  0  0  0  0  0  0  0  0
   -1.0131   -4.7916    0.0000 C   0  0  1  0  0  0  0  0  0  0  0  0
   -0.2218   -5.0250    0.0000 C   0  0  0  0  0  0  0  0  0  0  0  0
   -0.2343   -3.6968    0.0000 O   0  0  0  0  0  0  0  0  0  0  0  0
   -1.0107   -3.9667    0.0000 C   0  0  0  0  0  0  0  0  0  0  0  0
   -2.4387    3.2834    0.0000 N   0  0  0  0  0  0  0  0  0  0  0  0
   -1.7710    3.7814    0.0000 C   0  0  0  0  0  0  0  0  0  0  0  0
   -2.0382    4.5706    0.0000 N   0  0  0  0  0  0  0  0  0  0  0  0
   -2.8711    4.5603    0.0000 N   0  0  0  0  0  0  0  0  0  0  0  0
   -3.1189    3.7647    0.0000 C   0  0  0  0  0  0  0  0  0  0  0  0
   -1.6349    5.2897    0.0000 C   0  0  2  0  0  0  0  0  0  0  0  0
   -0.8101    5.2882    0.0000 C   0  0  1  0  0  0  0  0  0  0  0  0
   -0.3949    4.5658    0.0000 O   0  0  0  0  0  0  0  0  0  0  0  0
   -2.0420    5.9983    0.0000 C   0  0  0  0  0  0  0  0  0  0  0  0
   -2.8728    6.0002    0.0000 C   0  0  0  0  0  0  0  0  0  0  0  0
   -0.3919    6.0091    0.0000 C   0  0  0  0  0  0  0  0  0  0  0  0
   -0.9789    3.5348    0.0000 O   0  0  0  0  0  0  0  0  0  0  0  0
    0.9765   -4.7658    0.0000 C   0  0  0  0  0  0  0  0  0  0  0  0
    0.9823   -5.5912    0.0000 C   0  0  0  0  0  0  0  0  0  0  0  0
    1.7002   -5.9990    0.0000 C   0  0  0  0  0  0  0  0  0  0  0  0
    2.4121   -5.5811    0.0000 C   0  0  0  0  0  0  0  0  0  0  0  0
    2.4063   -4.7556    0.0000 C   0  0  0  0  0  0  0  0  0  0  0  0
    1.6884   -4.3479    0.0000 C   0  0  0  0  0  0  0  0  0  0  0  0
    3.1300   -5.9887    0.0000 F   0  0  0  0  0  0  0  0  0  0  0  0
    0.2703   -6.0091    0.0000 F   0  0  0  0  0  0  0  0  0  0  0  0
  2  3  1  0  0  0  0
  3  4  2  0  0  0  0
  4  5  1  0  0  0  0
  5  6  1  0  0  0  0
  2  6  2  0  0  0  0
  1  5  1  0  0  0  0
  7  1  1  0  0  0  0
  8  9  1  0  0  0  0
  9 10  2  0  0  0  0
 10 11  1  0  0  0  0
 11 12  2  0  0  0  0
 12 13  1  0  0  0  0
  8 13  2  0  0  0  0
 10 14  1  0  0  0  0
 14 15  1  0  0  0  0
 15 16  1  0  0  0  0
 16 17  1  0  0  0  0
 17 18  1  0  0  0  0
 18 19  1  0  0  0  0
 14 19  1  0  0  0  0
 17 20  1  0  0  0  0
 20 21  2  0  0  0  0
 21 22  1  0  0  0  0
 22 23  2  0  0  0  0
 23 24  1  0  0  0  0
 24 25  2  0  0  0  0
 20 25  1  0  0  0  0
 23 26  1  0  0  0  0
 26 27  1  0  0  0  0
 28 27  1  6  0  0  0
 28 29  1  0  0  0  0
 29  7  1  0  0  0  0
  7 30  1  0  0  0  0
 30 31  1  0  0  0  0
 28 31  1  0  0  0  0
 13 32  1  0  0  0  0
 32 33  1  0  0  0  0
 33 34  1  0  0  0  0
 34 35  1  0  0  0  0
 35 36  2  0  0  0  0
 32 36  1  0  0  0  0
 34 37  1  0  0  0  0
 37 38  1  0  0  0  0
 38 39  1  6  0  0  0
 37 40  1  1  0  0  0
 40 41  1  0  0  0  0
 38 42  1  0  0  0  0
 33 43  2  0  0  0  0
  7 44  1  1  0  0  0
 44 45  2  0  0  0  0
 45 46  1  0  0  0  0
 46 47  2  0  0  0  0
 47 48  1  0  0  0  0
 48 49  2  0  0  0  0
 44 49  1  0  0  0  0
 47 50  1  0  0  0  0
 45 51  1  0  0  0  0
M  END
> <DATABASE_ID>
DB01263

> <DATABASE_NAME>
drugbank

> <SMILES>
CC[C@@H]([C@H](C)O)N1N=CN(C1=O)C1=CC=C(C=C1)N1CCN(CC1)C1=CC=C(OC[C@@H]2CO[C@](CN3C=NC=N3)(C2)C2=C(F)C=C(F)C=C2)C=C1

> <INCHI_IDENTIFIER>
InChI=1S/C37H42F2N8O4/c1-3-35(26(2)48)47-36(49)46(25-42-47)31-7-5-29(6-8-31)43-14-16-44(17-15-43)30-9-11-32(12-10-30)50-20-27-19-37(51-21-27,22-45-24-40-23-41-45)33-13-4-28(38)18-34(33)39/h4-13,18,23-27,35,48H,3,14-17,19-22H2,1-2H3/t26-,27+,35-,37-/m0/s1

> <INCHI_KEY>
RAGOYPUPXAKGKH-XAKZXMRKSA-N

> <FORMULA>
C37H42F2N8O4

> <MOLECULAR_WEIGHT>
700.7774

> <EXACT_MASS>
700.329708282

> <JCHEM_ACCEPTOR_COUNT>
9

> <JCHEM_ATOM_COUNT>
93

> <JCHEM_AVERAGE_NEUTRAL_MICROSPECIES_CHARGE>
0.0008107841515061699

> <JCHEM_AVERAGE_POLARIZABILITY>
74.27261102769833

> <JCHEM_BIOAVAILABILITY>
0

> <JCHEM_DONOR_COUNT>
1

> <JCHEM_FORMAL_CHARGE>
0

> <JCHEM_GHOSE_FILTER>
0

> <JCHEM_IUPAC>
4-{4-[4-(4-{[(3R,5R)-5-(2,4-difluorophenyl)-5-[(1H-1,2,4-triazol-1-yl)methyl]oxolan-3-yl]methoxy}phenyl)piperazin-1-yl]phenyl}-1-[(2S,3S)-2-hydroxypentan-3-yl]-4,5-dihydro-1H-1,2,4-triazol-5-one

> <JCHEM_LOGP>
5.406185238

> <JCHEM_MDDR_LIKE_RULE>
1

> <JCHEM_NEUTRAL_CHARGE>
0

> <JCHEM_NUMBER_OF_RINGS>
7

> <JCHEM_PHYSIOLOGICAL_CHARGE>
0

> <JCHEM_PKA_STRONGEST_ACIDIC>
14.826501017537103

> <JCHEM_PKA_STRONGEST_BASIC>
3.9255232532955855

> <JCHEM_POLAR_SURFACE_AREA>
111.79000000000002

> <JCHEM_REFRACTIVITY>
200.70579999999995

> <JCHEM_ROTATABLE_BOND_COUNT>
12

> <JCHEM_RULE_OF_FIVE>
0

> <JCHEM_TRADITIONAL_IUPAC>
N-demethyldiltiazem

> <JCHEM_VEBER_RULE>
0

> <DRUGBANK_ID>
DB01263

> <DRUG_GROUPS>
approved; investigational; vet_approved

> <GENERIC_NAME>
Posaconazole

> <SYNONYMS>
Posaconazole

> <PRODUCTS>
Apo-posaconazole; Jamp Posaconazole; Noxafil; Posaconazole; Posaconazole Accord; Posaconazole Ahcl; Posaconazole Sp; Posanol; Sandoz Posaconazole

> <INTERNATIONAL_BRANDS>
Noxafil

$$$$
