
  Mrv1909 02112023162D          

 15 15  0  0  0  0            999 V2000
    0.7145   -0.4125    0.0000 N   0  0  0  0  0  0  0  0  0  0  0  0
    0.7145    0.4125    0.0000 C   0  0  2  0  0  0  0  0  0  0  0  0
    1.4289    0.8250    0.0000 C   0  0  0  0  0  0  0  0  0  0  0  0
    1.4289    1.6500    0.0000 O   0  0  0  0  0  0  0  0  0  0  0  0
    2.1434    0.4125    0.0000 O   0  0  0  0  0  0  0  0  0  0  0  0
    0.0000    0.8250    0.0000 C   0  0  0  0  0  0  0  0  0  0  0  0
   -0.7144    0.4125    0.0000 C   0  0  0  0  0  0  0  0  0  0  0  0
   -1.4289    0.8250    0.0000 C   0  0  0  0  0  0  0  0  0  0  0  0
   -2.1434    0.4125    0.0000 C   0  0  0  0  0  0  0  0  0  0  0  0
   -2.1434   -0.4125    0.0000 C   0  0  0  0  0  0  0  0  0  0  0  0
   -1.4289   -0.8249    0.0000 C   0  0  0  0  0  0  0  0  0  0  0  0
   -0.7144   -0.4125    0.0000 C   0  0  0  0  0  0  0  0  0  0  0  0
    1.4289   -0.8249    0.0000 C   0  0  0  0  0  0  0  0  0  0  0  0
    1.4289   -1.6500    0.0000 N   0  0  0  0  0  0  0  0  0  0  0  0
    2.1434   -0.4125    0.0000 O   0  0  0  0  0  0  0  0  0  0  0  0
  2  1  1  0  0  0  0
  3  2  1  0  0  0  0
  4  3  2  0  0  0  0
  3  5  1  0  0  0  0
  2  6  1  1  0  0  0
  6  7  1  0  0  0  0
  8  7  2  0  0  0  0
  9  8  1  0  0  0  0
 10  9  2  0  0  0  0
 11 10  1  0  0  0  0
 12 11  2  0  0  0  0
  7 12  1  0  0  0  0
  1 13  1  0  0  0  0
 13 14  1  0  0  0  0
 13 15  2  0  0  0  0
M  END
> <DATABASE_ID>
DB04058

> <DATABASE_NAME>
drugbank

> <SMILES>
NC(=O)N[C@@H](CC1=CC=CC=C1)C(O)=O

> <INCHI_IDENTIFIER>
InChI=1S/C10H12N2O3/c11-10(15)12-8(9(13)14)6-7-4-2-1-3-5-7/h1-5,8H,6H2,(H,13,14)(H3,11,12,15)/t8-/m0/s1

> <INCHI_KEY>
IPWQOZCSQLTKOI-QMMMGPOBSA-N

> <FORMULA>
C10H12N2O3

> <MOLECULAR_WEIGHT>
208.2139

> <EXACT_MASS>
208.08479226

> <JCHEM_ACCEPTOR_COUNT>
3

> <JCHEM_ATOM_COUNT>
27

> <JCHEM_AVERAGE_NEUTRAL_MICROSPECIES_CHARGE>
-0.9990985880441965

> <JCHEM_AVERAGE_POLARIZABILITY>
20.453984505247774

> <JCHEM_BIOAVAILABILITY>
1

> <JCHEM_DONOR_COUNT>
3

> <JCHEM_FORMAL_CHARGE>
0

> <JCHEM_GHOSE_FILTER>
1

> <JCHEM_IUPAC>
(2S)-2-(carbamoylamino)-3-phenylpropanoic acid

> <ALOGPS_LOGP>
0.65

> <JCHEM_LOGP>
0.5629161223333331

> <ALOGPS_LOGS>
-2.05

> <JCHEM_MDDR_LIKE_RULE>
0

> <JCHEM_NEUTRAL_CHARGE>
-1

> <JCHEM_NUMBER_OF_RINGS>
1

> <JCHEM_PHYSIOLOGICAL_CHARGE>
-1

> <JCHEM_PKA>
15.178640326211042

> <JCHEM_PKA_STRONGEST_ACIDIC>
3.955318172999714

> <JCHEM_PKA_STRONGEST_BASIC>
-2.5810808738769437

> <JCHEM_POLAR_SURFACE_AREA>
92.41999999999999

> <JCHEM_REFRACTIVITY>
53.23680000000001

> <JCHEM_ROTATABLE_BOND_COUNT>
4

> <JCHEM_RULE_OF_FIVE>
1

> <ALOGPS_SOLUBILITY>
1.84e+00 g/l

> <JCHEM_TRADITIONAL_IUPAC>
14,15-diazatetracyclo[7.6.1.0^{2,7}.0^{13,16}]hexadeca-1(15),2(7),3,5,9,11,13(16)-heptaen-8-one

> <JCHEM_VEBER_RULE>
0

> <DRUGBANK_ID>
DB04058

> <SECONDARY_ACCESSION_NUMBERS>
EXPT01885

> <DRUG_GROUPS>
experimental

> <GENERIC_NAME>
N-Carbamoylphenylalanine

> <SYNONYMS>
(-)-N-Carbamoylphenylalanine; N-(Aminocarbonyl)-L-phenylalanine

$$$$
