
  Mrv1652310211602012D          

105112  0  0  1  0            999 V2000
  -11.6784   -0.4024    0.0000 C   0  0  0  0  0  0  0  0  0  0  0  0
  -11.3039   -1.1375    0.0000 C   0  0  0  0  0  0  0  0  0  0  0  0
  -11.7533   -1.8294    0.0000 C   0  0  0  0  0  0  0  0  0  0  0  0
  -12.5771   -1.7861    0.0000 C   0  0  0  0  0  0  0  0  0  0  0  0
  -12.9516   -1.0510    0.0000 C   0  0  0  0  0  0  0  0  0  0  0  0
  -12.5022   -0.3591    0.0000 C   0  0  0  0  0  0  0  0  0  0  0  0
  -13.0265   -2.4780    0.0000 C   0  0  0  0  0  0  0  0  0  0  0  0
  -13.8504   -2.4347    0.0000 C   0  0  0  0  0  0  0  0  0  0  0  0
  -14.2998   -3.1266    0.0000 C   0  0  0  0  0  0  0  0  0  0  0  0
  -15.1236   -3.0834    0.0000 C   0  0  0  0  0  0  0  0  0  0  0  0
  -15.4981   -2.3483    0.0000 C   0  0  0  0  0  0  0  0  0  0  0  0
  -15.0487   -1.6564    0.0000 C   0  0  0  0  0  0  0  0  0  0  0  0
  -14.2249   -1.6996    0.0000 C   0  0  0  0  0  0  0  0  0  0  0  0
  -12.6520   -3.2131    0.0000 C   0  0  1  0  0  0  0  0  0  0  0  0
  -13.1014   -3.9050    0.0000 C   0  0  0  0  0  0  0  0  0  0  0  0
  -12.7269   -4.6401    0.0000 O   0  0  0  0  0  0  0  0  0  0  0  0
  -13.9253   -3.8617    0.0000 N   0  0  0  0  0  0  0  0  0  0  0  0
  -14.3747   -4.5536    0.0000 C   0  0  1  0  0  0  0  0  0  0  0  0
  -15.1985   -4.5103    0.0000 C   0  0  0  0  0  0  0  0  0  0  0  0
  -15.6479   -5.2022    0.0000 C   0  0  0  0  0  0  0  0  0  0  0  0
  -16.4718   -5.1590    0.0000 C   0  0  0  0  0  0  0  0  0  0  0  0
  -16.9211   -5.8508    0.0000 C   0  0  0  0  0  0  0  0  0  0  0  0
  -17.7450   -5.8076    0.0000 N   0  0  0  0  0  0  0  0  0  0  0  0
  -14.0002   -5.2887    0.0000 C   0  0  0  0  0  0  0  0  0  0  0  0
  -13.1763   -5.3319    0.0000 O   0  0  0  0  0  0  0  0  0  0  0  0
  -14.4496   -5.9806    0.0000 N   0  0  0  0  0  0  0  0  0  0  0  0
  -11.8282   -3.2563    0.0000 N   0  0  0  0  0  0  0  0  0  0  0  0
  -11.3788   -2.5645    0.0000 C   0  0  0  0  0  0  0  0  0  0  0  0
  -11.2497   -1.7496    0.0000 O   0  0  0  0  0  0  0  0  0  0  0  0
  -10.5549   -2.6077    0.0000 C   0  0  2  0  0  0  0  0  0  0  0  0
  -10.1804   -3.3428    0.0000 C   0  0  0  0  0  0  0  0  0  0  0  0
  -10.6298   -4.0347    0.0000 C   0  0  0  0  0  0  0  0  0  0  0  0
  -11.4537   -4.0778    0.0000 C   0  0  0  0  0  0  0  0  0  0  0  0
  -11.6673   -4.8747    0.0000 N   0  0  0  0  0  0  0  0  0  0  0  0
  -10.9754   -5.3241    0.0000 C   0  0  0  0  0  0  0  0  0  0  0  0
  -10.3342   -4.8049    0.0000 C   0  0  0  0  0  0  0  0  0  0  0  0
   -9.5640   -5.1006    0.0000 C   0  0  0  0  0  0  0  0  0  0  0  0
   -9.4350   -5.9155    0.0000 C   0  0  0  0  0  0  0  0  0  0  0  0
  -10.0762   -6.4346    0.0000 C   0  0  0  0  0  0  0  0  0  0  0  0
  -10.8464   -6.1389    0.0000 C   0  0  0  0  0  0  0  0  0  0  0  0
  -10.1055   -1.9158    0.0000 N   0  0  0  0  0  0  0  0  0  0  0  0
   -9.2817   -1.9591    0.0000 C   0  0  0  0  0  0  0  0  0  0  0  0
   -8.9072   -2.6942    0.0000 O   0  0  0  0  0  0  0  0  0  0  0  0
   -8.8323   -1.2672    0.0000 C   0  0  2  0  0  0  0  0  0  0  0  0
   -9.2068   -0.5321    0.0000 C   0  0  0  0  0  0  0  0  0  0  0  0
  -10.0306   -0.4889    0.0000 C   0  0  0  0  0  0  0  0  0  0  0  0
  -10.4051    0.2462    0.0000 C   0  0  0  0  0  0  0  0  0  0  0  0
  -11.2290    0.2895    0.0000 C   0  0  0  0  0  0  0  0  0  0  0  0
  -11.6035    1.0246    0.0000 N   0  0  0  0  0  0  0  0  0  0  0  0
   -8.0084   -1.3105    0.0000 N   0  0  0  0  0  0  0  0  0  0  0  0
   -7.5590   -0.6186    0.0000 C   0  0  0  0  0  0  0  0  0  0  0  0
   -7.9335    0.1165    0.0000 O   0  0  0  0  0  0  0  0  0  0  0  0
   -6.7352   -0.6618    0.0000 C   0  0  2  0  0  0  0  0  0  0  0  0
   -6.3607   -1.3969    0.0000 C   0  0  0  0  0  0  0  0  0  0  0  0
   -6.8101   -2.0888    0.0000 C   0  0  0  0  0  0  0  0  0  0  0  0
   -7.6339   -2.0456    0.0000 C   0  0  0  0  0  0  0  0  0  0  0  0
   -8.0833   -2.7374    0.0000 C   0  0  0  0  0  0  0  0  0  0  0  0
   -7.7088   -3.4725    0.0000 N   0  0  0  0  0  0  0  0  0  0  0  0
   -6.2858    0.0300    0.0000 N   0  0  0  0  0  0  0  0  0  0  0  0
   -5.4619   -0.0132    0.0000 C   0  0  0  0  0  0  0  0  0  0  0  0
   -5.0874   -0.7483    0.0000 O   0  0  0  0  0  0  0  0  0  0  0  0
   -5.0125    0.6787    0.0000 C   0  0  2  0  0  0  0  0  0  0  0  0
   -5.3870    1.4138    0.0000 C   0  0  0  0  0  0  0  0  0  0  0  0
   -6.2109    1.4570    0.0000 C   0  0  0  0  0  0  0  0  0  0  0  0
   -6.7301    0.8159    0.0000 C   0  0  0  0  0  0  0  0  0  0  0  0
   -7.5003    1.1116    0.0000 N   0  0  0  0  0  0  0  0  0  0  0  0
   -7.4571    1.9355    0.0000 C   0  0  0  0  0  0  0  0  0  0  0  0
   -6.6602    2.1490    0.0000 C   0  0  0  0  0  0  0  0  0  0  0  0
   -6.4466    2.9458    0.0000 C   0  0  0  0  0  0  0  0  0  0  0  0
   -7.0299    3.5292    0.0000 C   0  0  0  0  0  0  0  0  0  0  0  0
   -7.8268    3.3158    0.0000 C   0  0  0  0  0  0  0  0  0  0  0  0
   -8.0404    2.5189    0.0000 C   0  0  0  0  0  0  0  0  0  0  0  0
   -4.1887    0.6354    0.0000 N   0  0  0  0  0  0  0  0  0  0  0  0
   -3.7393    1.3273    0.0000 C   0  0  0  0  0  0  0  0  0  0  0  0
   -4.1138    2.0624    0.0000 O   0  0  0  0  0  0  0  0  0  0  0  0
   -2.9154    1.2840    0.0000 C   0  0  2  0  0  0  0  0  0  0  0  0
   -2.4660    1.9759    0.0000 C   0  0  0  0  0  0  0  0  0  0  0  0
   -1.6422    1.9327    0.0000 C   0  0  0  0  0  0  0  0  0  0  0  0
   -1.1929    1.2407    0.0000 C   0  0  0  0  0  0  0  0  0  0  0  0
   -0.3960    1.4542    0.0000 N   0  0  0  0  0  0  0  0  0  0  0  0
   -0.3528    2.2781    0.0000 C   0  0  0  0  0  0  0  0  0  0  0  0
   -1.1229    2.5738    0.0000 C   0  0  0  0  0  0  0  0  0  0  0  0
   -1.2519    3.3886    0.0000 C   0  0  0  0  0  0  0  0  0  0  0  0
   -0.6107    3.9078    0.0000 C   0  0  0  0  0  0  0  0  0  0  0  0
    0.1594    3.6121    0.0000 C   0  0  0  0  0  0  0  0  0  0  0  0
    0.2884    2.7972    0.0000 C   0  0  0  0  0  0  0  0  0  0  0  0
   -2.5409    0.5489    0.0000 N   0  0  0  0  0  0  0  0  0  0  0  0
   -2.9903   -0.1429    0.0000 C   0  0  0  0  0  0  0  0  0  0  0  0
   -3.8142   -0.0997    0.0000 O   0  0  0  0  0  0  0  0  0  0  0  0
   -2.6158   -0.8780    0.0000 C   0  0  2  0  0  0  0  0  0  0  0  0
   -1.7920   -0.9213    0.0000 C   0  0  0  0  0  0  0  0  0  0  0  0
   -1.3426   -0.2294    0.0000 C   0  0  0  0  0  0  0  0  0  0  0  0
   -0.5187   -0.2727    0.0000 C   0  0  0  0  0  0  0  0  0  0  0  0
   -0.0693    0.4192    0.0000 C   0  0  0  0  0  0  0  0  0  0  0  0
    0.7545    0.3760    0.0000 N   0  0  0  0  0  0  0  0  0  0  0  0
   -3.0652   -1.5699    0.0000 N   0  0  0  0  0  0  0  0  0  0  0  0
   -2.6907   -2.3050    0.0000 C   0  0  0  0  0  0  0  0  0  0  0  0
   -1.8669   -2.3483    0.0000 O   0  0  0  0  0  0  0  0  0  0  0  0
   -3.1401   -2.9969    0.0000 C   0  0  2  0  0  0  0  0  0  0  0  0
   -2.7656   -3.7320    0.0000 C   0  0  0  0  0  0  0  0  0  0  0  0
   -3.2150   -4.4239    0.0000 C   0  0  0  0  0  0  0  0  0  0  0  0
   -2.8405   -5.1590    0.0000 C   0  0  0  0  0  0  0  0  0  0  0  0
   -3.2899   -5.8508    0.0000 C   0  0  0  0  0  0  0  0  0  0  0  0
   -2.9154   -6.5860    0.0000 N   0  0  0  0  0  0  0  0  0  0  0  0
   -3.9640   -2.9536    0.0000 N   0  0  0  0  0  0  0  0  0  0  0  0
  1  2  2  0  0  0  0
  2  3  1  0  0  0  0
  3  4  2  0  0  0  0
  4  5  1  0  0  0  0
  5  6  2  0  0  0  0
  1  6  1  0  0  0  0
  4  7  1  0  0  0  0
  7  8  1  0  0  0  0
  8  9  2  0  0  0  0
  9 10  1  0  0  0  0
 10 11  2  0  0  0  0
 11 12  1  0  0  0  0
 12 13  2  0  0  0  0
  8 13  1  0  0  0  0
  7 14  1  0  0  0  0
 14 15  1  0  0  0  0
 15 16  2  0  0  0  0
 15 17  1  0  0  0  0
 18 17  1  6  0  0  0
 18 19  1  0  0  0  0
 19 20  1  0  0  0  0
 20 21  1  0  0  0  0
 21 22  1  0  0  0  0
 22 23  1  0  0  0  0
 18 24  1  0  0  0  0
 24 25  2  0  0  0  0
 24 26  1  0  0  0  0
 14 27  1  6  0  0  0
 27 28  1  0  0  0  0
 28 29  2  0  0  0  0
 28 30  1  0  0  0  0
 30 31  1  0  0  0  0
 31 32  1  0  0  0  0
 32 33  2  0  0  0  0
 33 34  1  0  0  0  0
 34 35  1  0  0  0  0
 35 36  1  0  0  0  0
 32 36  1  0  0  0  0
 36 37  2  0  0  0  0
 37 38  1  0  0  0  0
 38 39  2  0  0  0  0
 39 40  1  0  0  0  0
 35 40  2  0  0  0  0
 30 41  1  1  0  0  0
 41 42  1  0  0  0  0
 42 43  2  0  0  0  0
 42 44  1  0  0  0  0
 44 45  1  0  0  0  0
 45 46  1  0  0  0  0
 46 47  1  0  0  0  0
 47 48  1  0  0  0  0
 48 49  1  0  0  0  0
 44 50  1  6  0  0  0
 50 51  1  0  0  0  0
 51 52  2  0  0  0  0
 51 53  1  0  0  0  0
 53 54  1  0  0  0  0
 54 55  1  0  0  0  0
 55 56  1  0  0  0  0
 56 57  1  0  0  0  0
 57 58  1  0  0  0  0
 53 59  1  1  0  0  0
 59 60  1  0  0  0  0
 60 61  2  0  0  0  0
 60 62  1  0  0  0  0
 62 63  1  0  0  0  0
 63 64  1  0  0  0  0
 64 65  2  0  0  0  0
 65 66  1  0  0  0  0
 66 67  1  0  0  0  0
 67 68  1  0  0  0  0
 64 68  1  0  0  0  0
 68 69  2  0  0  0  0
 69 70  1  0  0  0  0
 70 71  2  0  0  0  0
 71 72  1  0  0  0  0
 67 72  2  0  0  0  0
 62 73  1  6  0  0  0
 73 74  1  0  0  0  0
 74 75  2  0  0  0  0
 74 76  1  0  0  0  0
 76 77  1  0  0  0  0
 77 78  1  0  0  0  0
 78 79  2  0  0  0  0
 79 80  1  0  0  0  0
 80 81  1  0  0  0  0
 81 82  1  0  0  0  0
 78 82  1  0  0  0  0
 82 83  2  0  0  0  0
 83 84  1  0  0  0  0
 84 85  2  0  0  0  0
 85 86  1  0  0  0  0
 81 86  2  0  0  0  0
 76 87  1  6  0  0  0
 87 88  1  0  0  0  0
 88 89  2  0  0  0  0
 88 90  1  0  0  0  0
 90 91  1  0  0  0  0
 91 92  1  0  0  0  0
 92 93  1  0  0  0  0
 93 94  1  0  0  0  0
 94 95  1  0  0  0  0
 90 96  1  6  0  0  0
 96 97  1  0  0  0  0
 97 98  2  0  0  0  0
 97 99  1  0  0  0  0
 99100  1  0  0  0  0
100101  1  0  0  0  0
101102  1  0  0  0  0
102103  1  0  0  0  0
103104  1  0  0  0  0
 99105  1  6  0  0  0
M  END
> <DATABASE_ID>
DB12748

> <DATABASE_NAME>
drugbank

> <SMILES>
NCCCC[C@H](N)C(=O)N[C@@H](CCCCN)C(=O)N[C@@H](CC1=CNC2=CC=CC=C12)C(=O)N[C@@H](CC1=CNC2=CC=CC=C12)C(=O)N[C@@H](CCCCN)C(=O)N[C@@H](CCCCN)C(=O)N[C@@H](CC1=CNC2=CC=CC=C12)C(=O)N[C@@H](C(C1=CC=CC=C1)C1=CC=CC=C1)C(=O)N[C@@H](CCCCN)C(N)=O

> <INCHI_IDENTIFIER>
InChI=1S/C78H106N18O9/c79-38-18-13-30-57(84)71(98)90-62(35-15-20-40-81)73(100)93-66(44-52-47-87-59-32-11-8-28-55(52)59)76(103)95-65(43-51-46-86-58-31-10-7-27-54(51)58)75(102)92-63(36-16-21-41-82)72(99)91-64(37-17-22-42-83)74(101)94-67(45-53-48-88-60-33-12-9-29-56(53)60)77(104)96-69(78(105)89-61(70(85)97)34-14-19-39-80)68(49-23-3-1-4-24-49)50-25-5-2-6-26-50/h1-12,23-29,31-33,46-48,57,61-69,86-88H,13-22,30,34-45,79-84H2,(H2,85,97)(H,89,105)(H,90,98)(H,91,99)(H,92,102)(H,93,100)(H,94,101)(H,95,103)(H,96,104)/t57-,61-,62-,63-,64-,65-,66-,67-,69-/m0/s1

> <INCHI_KEY>
GGAKLYWEFZCVIT-TVEKFXMRSA-N

> <FORMULA>
C78H106N18O9

> <MOLECULAR_WEIGHT>
1439.823

> <EXACT_MASS>
1438.839017065

> <JCHEM_ACCEPTOR_COUNT>
15

> <JCHEM_ATOM_COUNT>
211

> <JCHEM_AVERAGE_POLARIZABILITY>
159.23789381350346

> <JCHEM_BIOAVAILABILITY>
0

> <JCHEM_DONOR_COUNT>
18

> <JCHEM_FORMAL_CHARGE>
0

> <JCHEM_GHOSE_FILTER>
0

> <JCHEM_IUPAC>
(2S)-6-amino-2-[(2S)-2-[(2S)-2-[(2S)-6-amino-2-[(2S)-6-amino-2-[(2S)-2-[(2S)-2-[(2S)-6-amino-2-[(2S)-2,6-diaminohexanamido]hexanamido]-3-(1H-indol-3-yl)propanamido]-3-(1H-indol-3-yl)propanamido]hexanamido]hexanamido]-3-(1H-indol-3-yl)propanamido]-3,3-diphenylpropanamido]hexanamide

> <ALOGPS_LOGP>
2.43

> <JCHEM_LOGP>
2.0830589

> <ALOGPS_LOGS>
-5.70

> <JCHEM_MDDR_LIKE_RULE>
1

> <JCHEM_NUMBER_OF_RINGS>
8

> <JCHEM_PHYSIOLOGICAL_CHARGE>
6

> <JCHEM_PKA>
12.716110296453579

> <JCHEM_PKA_STRONGEST_ACIDIC>
12.161811386093268

> <JCHEM_PKA_STRONGEST_BASIC>
10.890170339258539

> <JCHEM_POLAR_SURFACE_AREA>
479.3799999999999

> <JCHEM_REFRACTIVITY>
403.5618000000001

> <JCHEM_ROTATABLE_BOND_COUNT>
46

> <JCHEM_RULE_OF_FIVE>
0

> <ALOGPS_SOLUBILITY>
2.89e-03 g/l

> <JCHEM_TRADITIONAL_IUPAC>
(2S)-6-amino-2-[(2S)-2-[(2S)-2-[(2S)-6-amino-2-[(2S)-6-amino-2-[(2S)-2-[(2S)-2-[(2S)-6-amino-2-[(2S)-2,6-diaminohexanamido]hexanamido]-3-(1H-indol-3-yl)propanamido]-3-(1H-indol-3-yl)propanamido]hexanamido]hexanamido]-3-(1H-indol-3-yl)propanamido]-3,3-diphenylpropanamido]hexanamide

> <JCHEM_VEBER_RULE>
0

> <DRUGBANK_ID>
DB12748

> <DRUG_GROUPS>
investigational

> <GENERIC_NAME>
LTX-315

$$$$
