
  Mrv1909 12152018022D          

 21 20  0  0  0  0            999 V2000
    2.9980    7.5059    0.0000 C   0  0  0  0  0  0  0  0  0  0  0  0
    2.2836    7.0934    0.0000 C   0  0  0  0  0  0  0  0  0  0  0  0
    2.2836    6.2684    0.0000 C   0  0  0  0  0  0  0  0  0  0  0  0
    1.5691    5.8559    0.0000 C   0  0  0  0  0  0  0  0  0  0  0  0
    1.5691    5.0309    0.0000 C   0  0  0  0  0  0  0  0  0  0  0  0
    0.8546    4.6184    0.0000 C   0  0  0  0  0  0  0  0  0  0  0  0
    0.8546    3.7934    0.0000 C   0  0  0  0  0  0  0  0  0  0  0  0
    1.5691    3.3809    0.0000 C   0  0  0  0  0  0  0  0  0  0  0  0
    1.5691    2.5559    0.0000 C   0  0  0  0  0  0  0  0  0  0  0  0
    2.2836    2.1434    0.0000 C   0  0  0  0  0  0  0  0  0  0  0  0
    2.9980    2.5559    0.0000 C   0  0  0  0  0  0  0  0  0  0  0  0
    3.7125    2.1434    0.0000 C   0  0  0  0  0  0  0  0  0  0  0  0
    4.4270    2.5559    0.0000 C   0  0  0  0  0  0  0  0  0  0  0  0
    5.1414    2.1434    0.0000 C   0  0  0  0  0  0  0  0  0  0  0  0
    5.8559    2.5559    0.0000 C   0  0  0  0  0  0  0  0  0  0  0  0
    6.5704    2.1434    0.0000 C   0  0  0  0  0  0  0  0  0  0  0  0
    7.2849    2.5559    0.0000 C   0  0  0  0  0  0  0  0  0  0  0  0
    7.2849    3.3809    0.0000 O   0  0  0  0  0  0  0  0  0  0  0  0
    7.9993    2.1434    0.0000 C   0  0  0  0  0  0  0  0  0  0  0  0
    8.7138    2.5559    0.0000 O   0  0  0  0  0  0  0  0  0  0  0  0
    7.9993    1.3184    0.0000 O   0  0  0  0  0  0  0  0  0  0  0  0
  1  2  1  0  0  0  0
  2  3  1  0  0  0  0
  3  4  1  0  0  0  0
  4  5  1  0  0  0  0
  5  6  1  0  0  0  0
  6  7  2  0  0  0  0
  7  8  1  0  0  0  0
  8  9  1  0  0  0  0
  9 10  2  0  0  0  0
 10 11  1  0  0  0  0
 11 12  1  0  0  0  0
 12 13  1  0  0  0  0
 13 14  1  0  0  0  0
 14 15  1  0  0  0  0
 15 16  1  0  0  0  0
 16 17  1  0  0  0  0
 17 18  1  0  0  0  0
 17 19  1  0  0  0  0
 19 20  1  0  0  0  0
 19 21  2  0  0  0  0
M  END
> <DATABASE_ID>
DB16027

> <DATABASE_NAME>
drugbank

> <SMILES>
CCCCC\C=C/C\C=C/CCCCCCC(O)C(O)=O

> <INCHI_IDENTIFIER>
InChI=1S/C18H32O3/c1-2-3-4-5-6-7-8-9-10-11-12-13-14-15-16-17(19)18(20)21/h6-7,9-10,17,19H,2-5,8,11-16H2,1H3,(H,20,21)/b7-6-,10-9-

> <INCHI_KEY>
AFDSETGKYZMEEA-HZJYTTRNSA-N

> <FORMULA>
C18H32O3

> <MOLECULAR_WEIGHT>
296.451

> <EXACT_MASS>
296.23514489

> <JCHEM_ACCEPTOR_COUNT>
3

> <JCHEM_ATOM_COUNT>
53

> <JCHEM_AVERAGE_NEUTRAL_MICROSPECIES_CHARGE>
-0.9980699974364935

> <JCHEM_AVERAGE_POLARIZABILITY>
36.417337963197234

> <JCHEM_BIOAVAILABILITY>
0

> <JCHEM_DONOR_COUNT>
2

> <JCHEM_FORMAL_CHARGE>
0

> <JCHEM_GHOSE_FILTER>
1

> <JCHEM_IUPAC>
(9Z,12Z)-2-hydroxyoctadeca-9,12-dienoic acid

> <ALOGPS_LOGP>
6.03

> <JCHEM_LOGP>
5.550810873666666

> <ALOGPS_LOGS>
-5.29

> <JCHEM_MDDR_LIKE_RULE>
0

> <JCHEM_NEUTRAL_CHARGE>
-1

> <JCHEM_NUMBER_OF_RINGS>
0

> <JCHEM_PHYSIOLOGICAL_CHARGE>
-1

> <JCHEM_PKA>
14.284148888682415

> <JCHEM_PKA_STRONGEST_ACIDIC>
4.286408599551704

> <JCHEM_PKA_STRONGEST_BASIC>
-3.7975287131545454

> <JCHEM_POLAR_SURFACE_AREA>
57.53

> <JCHEM_REFRACTIVITY>
90.01099999999998

> <JCHEM_ROTATABLE_BOND_COUNT>
14

> <JCHEM_RULE_OF_FIVE>
0

> <ALOGPS_SOLUBILITY>
1.53e-03 g/l

> <JCHEM_TRADITIONAL_IUPAC>
2-methoxy-4-[(1E)-3-[4-(nitrooxy)butoxy]-3-oxoprop-1-en-1-yl]phenyl (4R)-4-[(1R,3aS,3bR,4S,5aS,7R,9aS,9bS,11aR)-4,7-dihydroxy-9a,11a-dimethyl-tetradecahydro-1H-cyclopenta[a]phenanthren-1-yl]pentanoate

> <JCHEM_VEBER_RULE>
0

> <DRUGBANK_ID>
DB16027

> <DRUG_GROUPS>
investigational

> <GENERIC_NAME>
alpha-Hydroxylinoleic acid

$$$$
