
  Mrv1909 04202015292D          

 25 28  0  0  1  0            999 V2000
    3.2789    2.0625    0.0000 C   0  0  0  0  0  0  0  0  0  0  0  0
    3.2789    1.2375    0.0000 C   0  0  1  0  0  0  0  0  0  0  0  0
    3.9934    0.8250    0.0000 N   0  0  0  0  0  0  0  0  0  0  0  0
    3.9934    0.0000    0.0000 C   0  0  0  0  0  0  0  0  0  0  0  0
    3.2789   -0.4125    0.0000 C   0  0  0  0  0  0  0  0  0  0  0  0
    2.5645    0.0000    0.0000 N   0  0  0  0  0  0  0  0  0  0  0  0
    2.5645    0.8250    0.0000 C   0  0  0  0  0  0  0  0  0  0  0  0
    1.7798    1.0799    0.0000 N   0  0  0  0  0  0  0  0  0  0  0  0
    1.2949    0.4125    0.0000 N   0  0  0  0  0  0  0  0  0  0  0  0
    1.7798   -0.2549    0.0000 C   0  0  0  0  0  0  0  0  0  0  0  0
    1.5249   -1.0396    0.0000 C   0  0  0  0  0  0  0  0  0  0  0  0
    2.0098   -1.7070    0.0000 N   0  0  0  0  0  0  0  0  0  0  0  0
    1.5249   -2.3744    0.0000 C   0  0  0  0  0  0  0  0  0  0  0  0
    1.7798   -3.1591    0.0000 C   0  0  0  0  0  0  0  0  0  0  0  0
    0.7403   -2.1195    0.0000 N   0  0  0  0  0  0  0  0  0  0  0  0
    0.7403   -1.2945    0.0000 S   0  0  0  0  0  0  0  0  0  0  0  0
    4.7079    1.2375    0.0000 C   0  0  0  0  0  0  0  0  0  0  0  0
    4.7079    2.0625    0.0000 O   0  0  0  0  0  0  0  0  0  0  0  0
    5.4223    0.8250    0.0000 C   0  0  0  0  0  0  0  0  0  0  0  0
    6.1368    1.2375    0.0000 C   0  0  0  0  0  0  0  0  0  0  0  0
    6.8513    0.8250    0.0000 C   0  0  0  0  0  0  0  0  0  0  0  0
    6.8513   -0.0000    0.0000 C   0  0  0  0  0  0  0  0  0  0  0  0
    7.5658   -0.4125    0.0000 F   0  0  0  0  0  0  0  0  0  0  0  0
    6.1368   -0.4125    0.0000 C   0  0  0  0  0  0  0  0  0  0  0  0
    5.4223   -0.0000    0.0000 C   0  0  0  0  0  0  0  0  0  0  0  0
  2  1  1  1  0  0  0
  2  3  1  0  0  0  0
  3  4  1  0  0  0  0
  4  5  1  0  0  0  0
  5  6  1  0  0  0  0
  6  7  1  0  0  0  0
  2  7  1  0  0  0  0
  7  8  2  0  0  0  0
  8  9  1  0  0  0  0
  9 10  2  0  0  0  0
  6 10  1  0  0  0  0
 10 11  1  0  0  0  0
 11 12  2  0  0  0  0
 12 13  1  0  0  0  0
 13 14  1  0  0  0  0
 13 15  2  0  0  0  0
 15 16  1  0  0  0  0
 11 16  1  0  0  0  0
  3 17  1  0  0  0  0
 17 18  2  0  0  0  0
 17 19  1  0  0  0  0
 19 20  2  0  0  0  0
 20 21  1  0  0  0  0
 21 22  2  0  0  0  0
 22 23  1  0  0  0  0
 22 24  1  0  0  0  0
 24 25  2  0  0  0  0
 19 25  1  0  0  0  0
M  END
> <DATABASE_ID>
DB15669

> <DATABASE_NAME>
drugbank

> <SMILES>
C[C@H]1N(CCN2C1=NN=C2C1=NC(C)=NS1)C(=O)C1=CC=C(F)C=C1

> <INCHI_IDENTIFIER>
InChI=1S/C16H15FN6OS/c1-9-13-19-20-14(15-18-10(2)21-25-15)23(13)8-7-22(9)16(24)11-3-5-12(17)6-4-11/h3-6,9H,7-8H2,1-2H3/t9-/m1/s1

> <INCHI_KEY>
PPSNFPASKFYPMN-SECBINFHSA-N

> <FORMULA>
C16H15FN6OS

> <MOLECULAR_WEIGHT>
358.4

> <EXACT_MASS>
358.101208464

> <JCHEM_ACCEPTOR_COUNT>
5

> <JCHEM_ATOM_COUNT>
40

> <JCHEM_AVERAGE_NEUTRAL_MICROSPECIES_CHARGE>
8.059230706685518e-07

> <JCHEM_AVERAGE_POLARIZABILITY>
36.15462734165433

> <JCHEM_BIOAVAILABILITY>
1

> <JCHEM_DONOR_COUNT>
0

> <JCHEM_FORMAL_CHARGE>
0

> <JCHEM_GHOSE_FILTER>
1

> <JCHEM_IUPAC>
5-[(8R)-7-(4-fluorobenzoyl)-8-methyl-5H,6H,7H,8H-[1,2,4]triazolo[4,3-a]pyrazin-3-yl]-3-methyl-1,2,4-thiadiazole

> <ALOGPS_LOGP>
1.57

> <JCHEM_LOGP>
1.7752325729999998

> <ALOGPS_LOGS>
-3.07

> <JCHEM_MDDR_LIKE_RULE>
0

> <JCHEM_NEUTRAL_CHARGE>
0

> <JCHEM_NUMBER_OF_RINGS>
4

> <JCHEM_PHYSIOLOGICAL_CHARGE>
0

> <JCHEM_PKA_STRONGEST_BASIC>
0.8702922416324136

> <JCHEM_POLAR_SURFACE_AREA>
76.80000000000001

> <JCHEM_REFRACTIVITY>
114.3915

> <JCHEM_ROTATABLE_BOND_COUNT>
2

> <JCHEM_RULE_OF_FIVE>
1

> <ALOGPS_SOLUBILITY>
3.06e-01 g/l

> <JCHEM_TRADITIONAL_IUPAC>
(argentiooxy)silver

> <JCHEM_VEBER_RULE>
0

> <DRUGBANK_ID>
DB15669

> <DRUG_GROUPS>
investigational

> <GENERIC_NAME>
Fezolinetant

> <SYNONYMS>
Fezolinetant

$$$$
