
  Mrv1718008281818332D          

 21 23  0  0  0  0            999 V2000
    0.2021    0.0594    0.0000 C   0  0  0  0  0  0  0  0  0  0  0  0
   -0.6064    0.0594    0.0000 C   0  0  0  0  0  0  0  0  0  0  0  0
    1.4150    0.7571    0.0000 N   0  3  0  0  0  0  0  0  0  0  0  0
   -1.0028    0.7571    0.0000 C   0  0  0  0  0  0  0  0  0  0  0  0
   -1.0345   -0.6592    0.0000 C   0  0  0  0  0  0  0  0  0  0  0  0
    0.6064    0.7571    0.0000 C   0  0  0  0  0  0  0  0  0  0  0  0
   -0.6460    1.5023    0.0000 S   0  0  0  0  0  0  0  0  0  0  0  0
   -1.8907   -0.7332    0.0000 S   0  0  0  0  0  0  0  0  0  0  0  0
    0.6434   -0.6592    0.0000 C   0  0  0  0  0  0  0  0  0  0  0  0
   -0.7016   -1.4230    0.0000 C   0  0  0  0  0  0  0  0  0  0  0  0
   -1.8193    0.8442    0.0000 C   0  0  0  0  0  0  0  0  0  0  0  0
    1.8748    0.0673    0.0000 C   0  0  0  0  0  0  0  0  0  0  0  0
   -1.2644    2.0571    0.0000 C   0  0  0  0  0  0  0  0  0  0  0  0
   -2.0571   -1.5498    0.0000 C   0  0  0  0  0  0  0  0  0  0  0  0
   -1.3278   -1.9831    0.0000 C   0  0  0  0  0  0  0  0  0  0  0  0
   -1.9806    1.6476    0.0000 C   0  0  0  0  0  0  0  0  0  0  0  0
    1.4705   -0.6460    0.0000 C   0  0  0  0  0  0  0  0  0  0  0  0
    1.3278    1.5973    0.0000 C   0  0  0  0  0  0  0  0  0  0  0  0
    2.0571    1.2327    0.0000 C   0  0  0  0  0  0  0  0  0  0  0  0
    1.8881   -1.3490    0.0000 O   0  0  0  0  0  0  0  0  0  0  0  0
    1.4864   -2.0571    0.0000 C   0  0  0  0  0  0  0  0  0  0  0  0
  2  1  2  0  0  0  0
  3  6  1  0  0  0  0
  4  2  1  0  0  0  0
  5  2  1  0  0  0  0
  6  1  1  0  0  0  0
  7  4  1  0  0  0  0
  8  5  1  0  0  0  0
  9  1  1  0  0  0  0
 10  5  2  0  0  0  0
 11  4  2  0  0  0  0
 12 17  1  0  0  0  0
 13  7  1  0  0  0  0
 14  8  1  0  0  0  0
 15 10  1  0  0  0  0
 16 11  1  0  0  0  0
 17  9  1  0  0  0  0
 18  3  1  0  0  0  0
 19  3  1  0  0  0  0
 20 17  1  0  0  0  0
 21 20  1  0  0  0  0
  3 12  1  0  0  0  0
 15 14  2  0  0  0  0
 16 13  2  0  0  0  0
M  CHG  1   3   1
M  END
> <DATABASE_ID>
DB13850

> <DATABASE_NAME>
drugbank

> <SMILES>
COC1CC(C[N+](C)(C)C1)=C(C1=CC=CS1)C1=CC=CS1

> <INCHI_IDENTIFIER>
InChI=1S/C17H22NOS2/c1-18(2)11-13(10-14(12-18)19-3)17(15-6-4-8-20-15)16-7-5-9-21-16/h4-9,14H,10-12H2,1-3H3/q+1

> <INCHI_KEY>
PDYOTUCJOLELJU-UHFFFAOYSA-N

> <FORMULA>
C17H22NOS2

> <MOLECULAR_WEIGHT>
320.49

> <EXACT_MASS>
320.113733101

> <JCHEM_ACCEPTOR_COUNT>
1

> <JCHEM_ATOM_COUNT>
43

> <JCHEM_AVERAGE_POLARIZABILITY>
35.49543232773874

> <JCHEM_BIOAVAILABILITY>
1

> <JCHEM_DONOR_COUNT>
0

> <JCHEM_FORMAL_CHARGE>
1

> <JCHEM_GHOSE_FILTER>
0

> <JCHEM_IUPAC>
3-[bis(thiophen-2-yl)methylidene]-5-methoxy-1,1-dimethylpiperidin-1-ium

> <ALOGPS_LOGP>
0.20

> <JCHEM_LOGP>
-0.5961970861384116

> <ALOGPS_LOGS>
-4.63

> <JCHEM_MDDR_LIKE_RULE>
0

> <JCHEM_NUMBER_OF_RINGS>
3

> <JCHEM_PHYSIOLOGICAL_CHARGE>
1

> <JCHEM_PKA_STRONGEST_BASIC>
-4.169991898652891

> <JCHEM_POLAR_SURFACE_AREA>
9.23

> <JCHEM_REFRACTIVITY>
111.42949999999999

> <JCHEM_ROTATABLE_BOND_COUNT>
3

> <JCHEM_RULE_OF_FIVE>
1

> <ALOGPS_SOLUBILITY>
8.42e-03 g/l

> <JCHEM_TRADITIONAL_IUPAC>
3-[bis(thiophen-2-yl)methylidene]-5-methoxy-1,1-dimethylpiperidin-1-ium

> <JCHEM_VEBER_RULE>
1

> <DRUGBANK_ID>
DB13850

> <DRUG_GROUPS>
experimental

> <GENERIC_NAME>
Timepidium

> <SYNONYMS>
3-(di-2-thienylmethylene)-5-methoxy-1,1-dimethyl-piperidinium; Timepidium cation; Timepidium ion

> <SALTS>
Timepidium bromide

$$$$
