
  Mrv1652310211602002D          

 23 26  0  0  0  0            999 V2000
    2.0701    1.1104    0.0000 C   0  0  0  0  0  0  0  0  0  0  0  0
    1.3556    0.6979    0.0000 C   0  0  0  0  0  0  0  0  0  0  0  0
    0.6411    1.1104    0.0000 C   0  0  0  0  0  0  0  0  0  0  0  0
    0.6411    1.9354    0.0000 C   0  0  0  0  0  0  0  0  0  0  0  0
   -0.1435    2.1904    0.0000 C   0  0  0  0  0  0  0  0  0  0  0  0
   -0.6284    1.5229    0.0000 C   0  0  0  0  0  0  0  0  0  0  0  0
   -0.1435    0.8555    0.0000 N   0  0  0  0  0  0  0  0  0  0  0  0
    1.3556    2.3479    0.0000 C   0  0  0  0  0  0  0  0  0  0  0  0
    2.0701    1.9354    0.0000 C   0  0  0  0  0  0  0  0  0  0  0  0
    2.7845    2.3479    0.0000 N   0  0  0  0  0  0  0  0  0  0  0  0
    2.7845    3.1729    0.0000 C   0  0  0  0  0  0  0  0  0  0  0  0
    2.0701    3.5854    0.0000 C   0  0  0  0  0  0  0  0  0  0  0  0
    2.0701    4.4104    0.0000 N   0  0  0  0  0  0  0  0  0  0  0  0
    2.7845    4.8229    0.0000 C   0  0  0  0  0  0  0  0  0  0  0  0
    3.4990    4.4104    0.0000 C   0  0  0  0  0  0  0  0  0  0  0  0
    3.4990    3.5854    0.0000 N   0  0  0  0  0  0  0  0  0  0  0  0
    4.2135    4.8229    0.0000 C   0  0  0  0  0  0  0  0  0  0  0  0
    4.2135    5.6479    0.0000 C   0  0  0  0  0  0  0  0  0  0  0  0
    4.9279    6.0604    0.0000 C   0  0  0  0  0  0  0  0  0  0  0  0
    5.6424    5.6479    0.0000 N   0  0  0  0  0  0  0  0  0  0  0  0
    5.6424    4.8229    0.0000 C   0  0  0  0  0  0  0  0  0  0  0  0
    4.9279    4.4104    0.0000 C   0  0  0  0  0  0  0  0  0  0  0  0
    1.3556    3.1729    0.0000 N   0  0  0  0  0  0  0  0  0  0  0  0
  1  2  1  0  0  0  0
  2  3  2  0  0  0  0
  3  4  1  0  0  0  0
  4  5  1  0  0  0  0
  5  6  2  0  0  0  0
  6  7  1  0  0  0  0
  3  7  1  0  0  0  0
  4  8  2  0  0  0  0
  8  9  1  0  0  0  0
  1  9  2  0  0  0  0
  9 10  1  0  0  0  0
 10 11  1  0  0  0  0
 11 12  2  0  0  0  0
 12 13  1  0  0  0  0
 13 14  2  0  0  0  0
 14 15  1  0  0  0  0
 15 16  2  0  0  0  0
 11 16  1  0  0  0  0
 15 17  1  0  0  0  0
 17 18  2  0  0  0  0
 18 19  1  0  0  0  0
 19 20  2  0  0  0  0
 20 21  1  0  0  0  0
 21 22  2  0  0  0  0
 17 22  1  0  0  0  0
 12 23  1  0  0  0  0
M  END
> <DATABASE_ID>
DB12746

> <DATABASE_NAME>
drugbank

> <SMILES>
NC1=C(NC2=CC=C3NC=CC3=C2)N=C(C=N1)C1=CC=NC=C1

> <INCHI_IDENTIFIER>
InChI=1S/C17H14N6/c18-16-17(22-13-1-2-14-12(9-13)5-8-20-14)23-15(10-21-16)11-3-6-19-7-4-11/h1-10,20H,(H2,18,21)(H,22,23)

> <INCHI_KEY>
JLRIJKVMMZEKDF-UHFFFAOYSA-N

> <FORMULA>
C17H14N6

> <MOLECULAR_WEIGHT>
302.341

> <EXACT_MASS>
302.127994475

> <JCHEM_ACCEPTOR_COUNT>
5

> <JCHEM_ATOM_COUNT>
37

> <JCHEM_AVERAGE_POLARIZABILITY>
31.918172169014902

> <JCHEM_BIOAVAILABILITY>
1

> <JCHEM_DONOR_COUNT>
3

> <JCHEM_FORMAL_CHARGE>
0

> <JCHEM_GHOSE_FILTER>
1

> <JCHEM_IUPAC>
N2-(1H-indol-5-yl)-6-(pyridin-4-yl)pyrazine-2,3-diamine

> <ALOGPS_LOGP>
2.54

> <JCHEM_LOGP>
2.2519810970000003

> <ALOGPS_LOGS>
-3.86

> <JCHEM_MDDR_LIKE_RULE>
0

> <JCHEM_NUMBER_OF_RINGS>
4

> <JCHEM_PHYSIOLOGICAL_CHARGE>
0

> <JCHEM_PKA>
17.870301015349764

> <JCHEM_PKA_STRONGEST_ACIDIC>
14.25596845558082

> <JCHEM_PKA_STRONGEST_BASIC>
4.135484286782265

> <JCHEM_POLAR_SURFACE_AREA>
92.51

> <JCHEM_REFRACTIVITY>
89.2516

> <JCHEM_ROTATABLE_BOND_COUNT>
3

> <JCHEM_RULE_OF_FIVE>
1

> <ALOGPS_SOLUBILITY>
4.20e-02 g/l

> <JCHEM_TRADITIONAL_IUPAC>
N2-(1H-indol-5-yl)-6-(pyridin-4-yl)pyrazine-2,3-diamine

> <JCHEM_VEBER_RULE>
0

> <DRUGBANK_ID>
DB12746

> <DRUG_GROUPS>
investigational

> <GENERIC_NAME>
AKN-028

$$$$
