
  Mrv1718007121815592D          

  1  0  0  0  0  0            999 V2000
    0.0000    0.0000    0.0000 Au  0  3  0  0  0  0  0  0  0  0  0  0
M  CHG  1   1   1
M  END
> <DATABASE_ID>
DB14534

> <DATABASE_NAME>
drugbank

> <SMILES>
[Au+]

> <INCHI_IDENTIFIER>
InChI=1S/Au/q+1

> <INCHI_KEY>
ZBKIUFWVEIBQRT-UHFFFAOYSA-N

> <FORMULA>
Au

> <MOLECULAR_WEIGHT>
196.9666

> <EXACT_MASS>
196.966551609

> <JCHEM_ACCEPTOR_COUNT>
0

> <JCHEM_ATOM_COUNT>
1

> <JCHEM_AVERAGE_POLARIZABILITY>
1.7784

> <JCHEM_BIOAVAILABILITY>
1

> <JCHEM_DONOR_COUNT>
0

> <JCHEM_FORMAL_CHARGE>
1

> <JCHEM_GHOSE_FILTER>
0

> <JCHEM_IUPAC>
gold(1+) ion

> <JCHEM_LOGP>
0.029999999999999995

> <JCHEM_MDDR_LIKE_RULE>
0

> <JCHEM_NUMBER_OF_RINGS>
0

> <JCHEM_PHYSIOLOGICAL_CHARGE>
1

> <JCHEM_PKA>
3.55

> <JCHEM_PKA_STRONGEST_ACIDIC>
3.09

> <JCHEM_POLAR_SURFACE_AREA>
0.0

> <JCHEM_REFRACTIVITY>
0.0

> <JCHEM_ROTATABLE_BOND_COUNT>
0

> <JCHEM_RULE_OF_FIVE>
1

> <JCHEM_TRADITIONAL_IUPAC>
gold(1+) ion

> <JCHEM_VEBER_RULE>
1

> <DRUGBANK_ID>
DB14534

> <DRUG_GROUPS>
experimental

> <GENERIC_NAME>
Gold cation (1+)

> <SYNONYMS>
Au+; Au1+; Gold (Au1+); Gold ion(1+); Gold, ion (Au1+); Gold(1+); Gold(1+) ion

$$$$
