
  Mrv1572004221604392D          

 15 17  0  0  0  0            999 V2000
    0.7145    1.2375    0.0000 C   0  0  0  0  0  0  0  0  0  0  0  0
    0.7145    2.0625    0.0000 C   0  0  0  0  0  0  0  0  0  0  0  0
    1.4289    0.8250    0.0000 C   0  0  0  0  0  0  0  0  0  0  0  0
    1.4289    2.4750    0.0000 C   0  0  0  0  0  0  0  0  0  0  0  0
    5.5925    2.7525    0.0000 C   0  0  0  0  0  0  0  0  0  0  0  0
    5.1800    3.4670    0.0000 C   0  0  0  0  0  0  0  0  0  0  0  0
    3.5724    1.2375    0.0000 C   0  0  0  0  0  0  0  0  0  0  0  0
    2.1434    1.2375    0.0000 C   0  0  0  0  0  0  0  0  0  0  0  0
    2.1434    2.0625    0.0000 C   0  0  0  0  0  0  0  0  0  0  0  0
    3.5724    2.0625    0.0000 C   0  0  0  0  0  0  0  0  0  0  0  0
    4.2868    2.4750    0.0000 C   0  0  0  0  0  0  0  0  0  0  0  0
    5.0405    2.1394    0.0000 N   0  0  0  0  0  0  0  0  0  0  0  0
    4.3731    3.2955    0.0000 N   0  0  0  0  0  0  0  0  0  0  0  0
    2.8579    0.8250    0.0000 O   0  0  0  0  0  0  0  0  0  0  0  0
    2.8579    2.4750    0.0000 O   0  0  0  0  0  0  0  0  0  0  0  0
  2  1  2  0  0  0  0
  3  1  1  0  0  0  0
  4  2  1  0  0  0  0
  6  5  1  0  0  0  0
  8  3  2  0  0  0  0
  9  4  2  0  0  0  0
  9  8  1  0  0  0  0
 10  7  1  0  0  0  0
 11 10  1  0  0  0  0
 12  5  1  0  0  0  0
 12 11  2  0  0  0  0
 13  6  1  0  0  0  0
 13 11  1  0  0  0  0
 14  7  1  0  0  0  0
 14  8  1  0  0  0  0
 15  9  1  0  0  0  0
 15 10  1  0  0  0  0
M  END
> <DATABASE_ID>
DB12551

> <DATABASE_NAME>
drugbank

> <SMILES>
C1CN=C(N1)C1COC2=CC=CC=C2O1

> <INCHI_IDENTIFIER>
InChI=1S/C11H12N2O2/c1-2-4-9-8(3-1)14-7-10(15-9)11-12-5-6-13-11/h1-4,10H,5-7H2,(H,12,13)

> <INCHI_KEY>
HPMRFMKYPGXPEP-UHFFFAOYSA-N

> <FORMULA>
C11H12N2O2

> <MOLECULAR_WEIGHT>
204.229

> <EXACT_MASS>
204.089877634

> <JCHEM_ACCEPTOR_COUNT>
4

> <JCHEM_ATOM_COUNT>
27

> <JCHEM_AVERAGE_POLARIZABILITY>
21.07970239823503

> <JCHEM_BIOAVAILABILITY>
1

> <JCHEM_DONOR_COUNT>
1

> <JCHEM_FORMAL_CHARGE>
0

> <JCHEM_GHOSE_FILTER>
1

> <JCHEM_IUPAC>
2-(2,3-dihydro-1,4-benzodioxin-2-yl)-4,5-dihydro-1H-imidazole

> <ALOGPS_LOGP>
1.01

> <JCHEM_LOGP>
0.7689640250000002

> <ALOGPS_LOGS>
-2.17

> <JCHEM_MDDR_LIKE_RULE>
0

> <JCHEM_NUMBER_OF_RINGS>
3

> <JCHEM_PHYSIOLOGICAL_CHARGE>
1

> <JCHEM_PKA_STRONGEST_BASIC>
8.618624135463097

> <JCHEM_POLAR_SURFACE_AREA>
42.85000000000001

> <JCHEM_REFRACTIVITY>
54.54900000000001

> <JCHEM_ROTATABLE_BOND_COUNT>
1

> <JCHEM_RULE_OF_FIVE>
1

> <ALOGPS_SOLUBILITY>
1.37e+00 g/l

> <JCHEM_TRADITIONAL_IUPAC>
idazoxan

> <JCHEM_VEBER_RULE>
0

> <DRUGBANK_ID>
DB12551

> <DRUG_GROUPS>
investigational

> <GENERIC_NAME>
Idazoxan

> <SYNONYMS>
Idazoxan; idazoxano

$$$$
