
  Mrv1652310211601572D          

 25 28  0  0  0  0            999 V2000
   -0.7145   -2.8875    0.0000 C   0  0  0  0  0  0  0  0  0  0  0  0
   -0.0000   -2.4750    0.0000 C   0  0  0  0  0  0  0  0  0  0  0  0
   -0.0000   -1.6500    0.0000 N   0  0  0  0  0  0  0  0  0  0  0  0
    0.7145   -1.2375    0.0000 C   0  0  0  0  0  0  0  0  0  0  0  0
    0.7145   -0.4125    0.0000 C   0  0  0  0  0  0  0  0  0  0  0  0
    1.4289   -0.0000    0.0000 N   0  0  0  0  0  0  0  0  0  0  0  0
    2.1434   -0.4125    0.0000 C   0  0  0  0  0  0  0  0  0  0  0  0
    2.1434   -1.2375    0.0000 C   0  0  0  0  0  0  0  0  0  0  0  0
    1.4289   -1.6500    0.0000 N   0  0  0  0  0  0  0  0  0  0  0  0
    2.8579   -1.6500    0.0000 C   0  0  0  0  0  0  0  0  0  0  0  0
    3.5724   -1.2375    0.0000 C   0  0  0  0  0  0  0  0  0  0  0  0
    4.2868   -1.6500    0.0000 C   0  0  0  0  0  0  0  0  0  0  0  0
    4.2868   -2.4750    0.0000 C   0  0  0  0  0  0  0  0  0  0  0  0
    3.5724   -2.8875    0.0000 N   0  0  0  0  0  0  0  0  0  0  0  0
    2.8579   -2.4750    0.0000 C   0  0  0  0  0  0  0  0  0  0  0  0
    2.1434   -2.8875    0.0000 C   0  0  0  0  0  0  0  0  0  0  0  0
    5.0013   -2.8875    0.0000 C   0  0  0  0  0  0  0  0  0  0  0  0
    5.7550   -2.5519    0.0000 N   0  0  0  0  0  0  0  0  0  0  0  0
    6.3070   -3.1650    0.0000 C   0  0  0  0  0  0  0  0  0  0  0  0
    5.8945   -3.8795    0.0000 N   0  0  0  0  0  0  0  0  0  0  0  0
    5.0875   -3.7080    0.0000 N   0  0  0  0  0  0  0  0  0  0  0  0
    0.0000   -0.0000    0.0000 N   0  0  0  0  0  0  0  0  0  0  0  0
   -0.7145   -0.4125    0.0000 C   0  0  0  0  0  0  0  0  0  0  0  0
   -0.7145   -1.2375    0.0000 C   0  0  0  0  0  0  0  0  0  0  0  0
   -1.4289   -1.6500    0.0000 O   0  0  0  0  0  0  0  0  0  0  0  0
  1  2  1  0  0  0  0
  2  3  1  0  0  0  0
  3  4  1  0  0  0  0
  4  5  2  0  0  0  0
  5  6  1  0  0  0  0
  6  7  2  0  0  0  0
  7  8  1  0  0  0  0
  8  9  2  0  0  0  0
  4  9  1  0  0  0  0
  8 10  1  0  0  0  0
 10 11  2  0  0  0  0
 11 12  1  0  0  0  0
 12 13  2  0  0  0  0
 13 14  1  0  0  0  0
 14 15  2  0  0  0  0
 10 15  1  0  0  0  0
 15 16  1  0  0  0  0
 13 17  1  0  0  0  0
 17 18  1  0  0  0  0
 18 19  1  0  0  0  0
 19 20  2  0  0  0  0
 20 21  1  0  0  0  0
 17 21  2  0  0  0  0
  5 22  1  0  0  0  0
 22 23  1  0  0  0  0
 23 24  1  0  0  0  0
  3 24  1  0  0  0  0
 24 25  2  0  0  0  0
M  END
> <DATABASE_ID>
DB12740

> <DATABASE_NAME>
drugbank

> <SMILES>
CCN1C(=O)CNC2=C1N=C(C=N2)C1=CC=C(N=C1C)C1=NN=CN1

> <INCHI_IDENTIFIER>
InChI=1S/C16H16N8O/c1-3-24-13(25)7-18-15-16(24)22-12(6-17-15)10-4-5-11(21-9(10)2)14-19-8-20-23-14/h4-6,8H,3,7H2,1-2H3,(H,17,18)(H,19,20,23)

> <INCHI_KEY>
GMYLVKUGJMYTFB-UHFFFAOYSA-N

> <FORMULA>
C16H16N8O

> <MOLECULAR_WEIGHT>
336.359

> <EXACT_MASS>
336.144707167

> <JCHEM_ACCEPTOR_COUNT>
7

> <JCHEM_ATOM_COUNT>
41

> <JCHEM_AVERAGE_POLARIZABILITY>
34.91454290702255

> <JCHEM_BIOAVAILABILITY>
1

> <JCHEM_DONOR_COUNT>
2

> <JCHEM_FORMAL_CHARGE>
0

> <JCHEM_GHOSE_FILTER>
1

> <JCHEM_IUPAC>
1-ethyl-7-[2-methyl-6-(4H-1,2,4-triazol-3-yl)pyridin-3-yl]-1H,2H,3H,4H-[1,4]diazino[2,3-b]pyrazin-2-one

> <ALOGPS_LOGP>
1.14

> <JCHEM_LOGP>
-0.36202011600000017

> <ALOGPS_LOGS>
-4.17

> <JCHEM_MDDR_LIKE_RULE>
0

> <JCHEM_NUMBER_OF_RINGS>
4

> <JCHEM_PHYSIOLOGICAL_CHARGE>
0

> <JCHEM_PKA>
13.951051278990025

> <JCHEM_PKA_STRONGEST_ACIDIC>
8.905529260468981

> <JCHEM_PKA_STRONGEST_BASIC>
2.054586118808921

> <JCHEM_POLAR_SURFACE_AREA>
112.58000000000001

> <JCHEM_REFRACTIVITY>
103.83279999999998

> <JCHEM_ROTATABLE_BOND_COUNT>
3

> <JCHEM_RULE_OF_FIVE>
1

> <ALOGPS_SOLUBILITY>
2.29e-02 g/l

> <JCHEM_TRADITIONAL_IUPAC>
1-ethyl-7-[2-methyl-6-(4H-1,2,4-triazol-3-yl)pyridin-3-yl]-3H,4H-[1,4]diazino[2,3-b]pyrazin-2-one

> <JCHEM_VEBER_RULE>
0

> <DRUGBANK_ID>
DB12740

> <DRUG_GROUPS>
investigational

> <GENERIC_NAME>
CC-115

$$$$
