
  Mrv1909 11181918032D          

 33 35  0  0  0  0            999 V2000
    2.9371    0.4866    0.0000 C   0  0  0  0  0  0  0  0  0  0  0  0
    2.9371   -0.4521    0.0000 C   0  0  0  0  0  0  0  0  0  0  0  0
    2.2054    0.9042    0.0000 C   0  0  0  0  0  0  0  0  0  0  0  0
    3.6757    0.7489    0.0000 N   0  0  0  0  0  0  0  0  0  0  0  0
    2.1917   -0.8974    0.0000 N   0  0  0  0  0  0  0  0  0  0  0  0
    3.6895   -0.7109    0.0000 N   0  0  0  0  0  0  0  0  0  0  0  0
    1.4150    0.4487    0.0000 N   0  0  0  0  0  0  0  0  0  0  0  0
    2.2054    1.7498    0.0000 O   0  0  0  0  0  0  0  0  0  0  0  0
    4.2073    0.0483    0.0000 C   0  0  0  0  0  0  0  0  0  0  0  0
    1.4150   -0.4521    0.0000 C   0  0  0  0  0  0  0  0  0  0  0  0
    2.2054   -1.7360    0.0000 C   0  0  0  0  0  0  0  0  0  0  0  0
    0.6868    0.8524    0.0000 C   0  0  0  0  0  0  0  0  0  0  0  0
    5.0528    0.0517    0.0000 Cl  0  0  0  0  0  0  0  0  0  0  0  0
    0.6903   -0.8904    0.0000 O   0  0  0  0  0  0  0  0  0  0  0  0
   -2.9129   -0.8283    0.0000 C   0  0  0  0  0  0  0  0  0  0  0  0
   -2.1881   -1.2286    0.0000 C   0  0  0  0  0  0  0  0  0  0  0  0
   -3.6308   -1.2494    0.0000 C   0  0  0  0  0  0  0  0  0  0  0  0
   -2.9129    0.0102    0.0000 O   0  0  0  0  0  0  0  0  0  0  0  0
   -2.2123   -2.0501    0.0000 C   0  0  0  0  0  0  0  0  0  0  0  0
   -1.4668   -0.8283    0.0000 C   0  0  0  0  0  0  0  0  0  0  0  0
   -3.6308   -2.0915    0.0000 C   0  0  0  0  0  0  0  0  0  0  0  0
   -4.3314   -0.8490    0.0000 C   0  0  0  0  0  0  0  0  0  0  0  0
   -3.6308    0.4383    0.0000 C   0  0  0  0  0  0  0  0  0  0  0  0
   -1.4875   -2.4643    0.0000 C   0  0  0  0  0  0  0  0  0  0  0  0
   -0.7662   -1.2494    0.0000 C   0  0  0  0  0  0  0  0  0  0  0  0
   -4.3314   -2.4919    0.0000 C   0  0  0  0  0  0  0  0  0  0  0  0
   -5.0528   -1.2494    0.0000 C   0  0  0  0  0  0  0  0  0  0  0  0
   -3.6308    1.2528    0.0000 C   0  0  0  0  0  0  0  0  0  0  0  0
   -0.7662   -2.0639    0.0000 C   0  0  0  0  0  0  0  0  0  0  0  0
   -5.0528   -2.0915    0.0000 C   0  0  0  0  0  0  0  0  0  0  0  0
   -4.3314    1.6738    0.0000 N   0  0  0  0  0  0  0  0  0  0  0  0
   -4.3314    2.4919    0.0000 C   0  0  0  0  0  0  0  0  0  0  0  0
   -5.0528    1.2528    0.0000 C   0  0  0  0  0  0  0  0  0  0  0  0
  1  2  2  0  0  0  0
  1  3  1  0  0  0  0
  1  4  1  0  0  0  0
  2  5  1  0  0  0  0
  2  6  1  0  0  0  0
  3  7  1  0  0  0  0
  3  8  2  0  0  0  0
  4  9  2  0  0  0  0
  5 10  1  0  0  0  0
  5 11  1  0  0  0  0
  7 12  1  0  0  0  0
  9 13  1  0  0  0  0
 10 14  2  0  0  0  0
  6  9  1  0  0  0  0
  7 10  1  0  0  0  0
 15 16  1  0  0  0  0
 15 17  1  0  0  0  0
 15 18  1  0  0  0  0
 16 19  1  0  0  0  0
 16 20  2  0  0  0  0
 17 21  2  0  0  0  0
 17 22  1  0  0  0  0
 18 23  1  0  0  0  0
 19 24  2  0  0  0  0
 20 25  1  0  0  0  0
 21 26  1  0  0  0  0
 22 27  2  0  0  0  0
 23 28  1  0  0  0  0
 24 29  1  0  0  0  0
 26 30  2  0  0  0  0
 28 31  1  0  0  0  0
 31 32  1  0  0  0  0
 31 33  1  0  0  0  0
 25 29  2  0  0  0  0
 27 30  1  0  0  0  0
M  END
> <DATABASE_ID>
DB00985

> <DATABASE_NAME>
drugbank

> <SMILES>
CN1C2=C(N=C(Cl)N2)C(=O)N(C)C1=O.CN(C)CCOC(C1=CC=CC=C1)C1=CC=CC=C1

> <INCHI_IDENTIFIER>
InChI=1S/C17H21NO.C7H7ClN4O2/c1-18(2)13-14-19-17(15-9-5-3-6-10-15)16-11-7-4-8-12-16;1-11-4-3(9-6(8)10-4)5(13)12(2)7(11)14/h3-12,17H,13-14H2,1-2H3;1-2H3,(H,9,10)

> <INCHI_KEY>
NFLLKCVHYJRNRH-UHFFFAOYSA-N

> <FORMULA>
C24H28ClN5O3

> <MOLECULAR_WEIGHT>
469.97

> <EXACT_MASS>
469.1880675

> <JCHEM_ACCEPTOR_COUNT>
2

> <JCHEM_ATOM_COUNT>
61

> <JCHEM_AVERAGE_POLARIZABILITY>
30.01588098441933

> <JCHEM_BIOAVAILABILITY>
1

> <JCHEM_DONOR_COUNT>
0

> <JCHEM_FORMAL_CHARGE>
0

> <JCHEM_GHOSE_FILTER>
1

> <JCHEM_IUPAC>
8-chloro-1,3-dimethyl-2,3,6,9-tetrahydro-1H-purine-2,6-dione; [2-(diphenylmethoxy)ethyl]dimethylamine

> <ALOGPS_LOGP>
0.44

> <JCHEM_LOGP>
3.651907262

> <ALOGPS_LOGS>
-1.34

> <JCHEM_MDDR_LIKE_RULE>
1

> <JCHEM_NUMBER_OF_RINGS>
4

> <JCHEM_PHYSIOLOGICAL_CHARGE>
1

> <JCHEM_PKA_STRONGEST_BASIC>
8.867087128683956

> <JCHEM_POLAR_SURFACE_AREA>
12.47

> <JCHEM_REFRACTIVITY>
79.92699999999999

> <JCHEM_ROTATABLE_BOND_COUNT>
6

> <JCHEM_RULE_OF_FIVE>
1

> <ALOGPS_SOLUBILITY>
9.86e+00 g/l

> <JCHEM_TRADITIONAL_IUPAC>
demeclocycline hydrochloride

> <JCHEM_VEBER_RULE>
1

> <DRUGBANK_ID>
DB00985

> <SECONDARY_ACCESSION_NUMBERS>
APRD00924

> <DRUG_GROUPS>
approved

> <GENERIC_NAME>
Dimenhydrinate

> <SYNONYMS>
(O-benzhydryl(dimethylamino)ethanol) 8-chlorotheophyllinate; 8-chloro-1,3-dimethyl-3,7-dihydro-1H-purine-2,6-dione - 2-(diphenylmethoxy)-N,N-dimethylethanamine (1:1); Benzhydryl-β-dimethylaminoethylether 8-chlorotheophylline; Dimenhidrinato; Dimenhydrinate; Dimenhydrinatum; diphenhydramine 8-chlorotheophyllinate; diphenhydramine 8-chlorotheophylline; Diphenhydramine theoclate; N,N-dimethyl-2-diphenylmethoxyethylamine 8-chlorotheophyllinate; O-benzhydryldimethylaminoethanol 8-chlorotheophyllinate; β-dimethylaminoethyl benzhydryl ether 1,3-dimethyl-8-chloroxanthine

> <PRODUCTS>
Ag-dimenhydrinate; Airmit Ace; Anti-nauseant; Anti-nauseant Liquid Gels; Anti-nauseant Tablet; Apo Dimenhydrinate Tab 50mg; Children's Motion Sickness Liq; Children's Motion Sickness Liquid; Confab Dimenhydrinate 100 mg; Confab Dimenhydrinate 50 mg; Dimenhydrinate; Dimenhydrinate 50mg; Dimenhydrinate Capsules; Dimenhydrinate Inj 10mg; Dimenhydrinate Inj 10mg/ml; Dimenhydrinate Inj 50mg USP; Dimenhydrinate Injection 50mg/ml; Dimenhydrinate Injection USP; Dimenhydrinate Injection USP 250mg/5ml (50mg/ml); Dimenhydrinate Injection, USP; Dimenhydrinate Liquid for Children; Dimenhydrinate Tab 50mg; Dimenhydrinate Tab 50mg USP; Dimenhydrinate Tablet USP 50mg; Dimenhydrinate Tablets; Dinate; Dramamine; Dramamine Chewable Formula; Dramamine Motion Sickness Relief; Dramamine Orange; Dramamine Original Formula; Dramamine for Kids; Driminate; Gaviscon Nausea; Gravergol Capsules; Gravol; Gravol Capsules Long Acting 75mg; Gravol Chewables; Gravol Filmkote Tab 15mg; Gravol IV Ampoules; Gravol Im; Gravol Immediate Release & Long Acting Caplets; Gravol Junior Suppositories 50mg; Gravol Liquid Gels; Gravol Long Acting Caplet; Gravol Suppositories; Gravol Tab 25mg; Gravol Tablets; Jamp-dimenhydrinate; Kids Gravol Chewables; Kids Gravol Liquid; Kids Gravol Suppositories; Motion Sickness; Motion Sickness Children's Chewable Tablets; Motion Sickness Original Formula; Motion Sickness Original formula; Motion Sickness Relief; Motion Sickness Relief Liquid Gels; Motion Sickness Relief Original Formula; Motion Sickness Tab 50mg; Motion Sickness Tablets 50mg; Nauseatol; Nausex Tab 50mg; Orb-dimenhydrinate Tablets USP; Original Formula Motion Sickness Relief; PMS-dimenhydrinate Syr 3mg/ml; PMS-dimenhydrinate Tab 50mg; Pac-Kit Motion Sickness; PhysiciansCare Dimenhydrinate Motion Sickness Relief; Riva-dimenhydrinate Tablets; Sicknol; Teva-dimenate; Travamine Sup 50mg; Travamine Tab 50mg; Travel Ease; Travel Sickness; Travel Tabs; Travel Tabs 50 mg; Travelmate Tab 50mg; Travelmate-dimenhydrinate Tablets 50mg; Traveltabs 50mg; Wal-Dram

> <INTERNATIONAL_BRANDS>
Gravol; Vertirosan; Vomex A; Xamamina

$$$$
