
  Mrv1652310211603072D          

 23 25  0  0  1  0            999 V2000
   -0.9252   -6.0925    0.0000 C   0  0  0  0  0  0  0  0  0  0  0  0
   -0.7537   -5.2856    0.0000 C   0  0  2  0  0  0  0  0  0  0  0  0
   -1.3057   -4.6725    0.0000 C   0  0  0  0  0  0  0  0  0  0  0  0
   -0.8932   -3.9580    0.0000 C   0  0  0  0  0  0  0  0  0  0  0  0
   -0.0862   -4.1295    0.0000 C   0  0  0  0  0  0  0  0  0  0  0  0
    0.0000   -4.9500    0.0000 N   0  0  0  0  0  0  0  0  0  0  0  0
    0.7145   -5.3625    0.0000 C   0  0  0  0  0  0  0  0  0  0  0  0
    1.4289   -4.9500    0.0000 C   0  0  0  0  0  0  0  0  0  0  0  0
    2.1434   -5.3625    0.0000 C   0  0  0  0  0  0  0  0  0  0  0  0
    2.8579   -4.9500    0.0000 O   0  0  0  0  0  0  0  0  0  0  0  0
    3.5724   -5.3625    0.0000 C   0  0  0  0  0  0  0  0  0  0  0  0
    4.2868   -4.9500    0.0000 C   0  0  0  0  0  0  0  0  0  0  0  0
    5.0013   -5.3625    0.0000 C   0  0  0  0  0  0  0  0  0  0  0  0
    5.0013   -6.1875    0.0000 C   0  0  0  0  0  0  0  0  0  0  0  0
    4.2868   -6.6000    0.0000 C   0  0  0  0  0  0  0  0  0  0  0  0
    3.5724   -6.1875    0.0000 C   0  0  0  0  0  0  0  0  0  0  0  0
    5.7158   -6.6000    0.0000 C   0  0  0  0  0  0  0  0  0  0  0  0
    6.4302   -6.1875    0.0000 C   0  0  0  0  0  0  0  0  0  0  0  0
    7.1447   -6.6000    0.0000 C   0  0  0  0  0  0  0  0  0  0  0  0
    7.1447   -7.4250    0.0000 C   0  0  0  0  0  0  0  0  0  0  0  0
    7.8592   -7.8375    0.0000 O   0  0  0  0  0  0  0  0  0  0  0  0
    6.4302   -7.8375    0.0000 N   0  0  0  0  0  0  0  0  0  0  0  0
    5.7158   -7.4250    0.0000 N   0  0  0  0  0  0  0  0  0  0  0  0
  2  1  1  6  0  0  0
  2  3  1  0  0  0  0
  3  4  1  0  0  0  0
  4  5  1  0  0  0  0
  5  6  1  0  0  0  0
  2  6  1  0  0  0  0
  6  7  1  0  0  0  0
  7  8  1  0  0  0  0
  8  9  1  0  0  0  0
  9 10  1  0  0  0  0
 10 11  1  0  0  0  0
 11 12  2  0  0  0  0
 12 13  1  0  0  0  0
 13 14  2  0  0  0  0
 14 15  1  0  0  0  0
 15 16  2  0  0  0  0
 11 16  1  0  0  0  0
 14 17  1  0  0  0  0
 17 18  1  0  0  0  0
 18 19  2  0  0  0  0
 19 20  1  0  0  0  0
 20 21  2  0  0  0  0
 20 22  1  0  0  0  0
 22 23  1  0  0  0  0
 17 23  2  0  0  0  0
M  END
> <DATABASE_ID>
DB12900

> <DATABASE_NAME>
drugbank

> <SMILES>
C[C@@H]1CCCN1CCCOC1=CC=C(C=C1)C1=NNC(=O)C=C1

> <INCHI_IDENTIFIER>
InChI=1S/C18H23N3O2/c1-14-4-2-11-21(14)12-3-13-23-16-7-5-15(6-8-16)17-9-10-18(22)20-19-17/h5-10,14H,2-4,11-13H2,1H3,(H,20,22)/t14-/m1/s1

> <INCHI_KEY>
XUKROCVZGZNGSI-CQSZACIVSA-N

> <FORMULA>
C18H23N3O2

> <MOLECULAR_WEIGHT>
313.401

> <EXACT_MASS>
313.179026993

> <JCHEM_ACCEPTOR_COUNT>
4

> <JCHEM_ATOM_COUNT>
46

> <JCHEM_AVERAGE_POLARIZABILITY>
35.724208516865986

> <JCHEM_BIOAVAILABILITY>
1

> <JCHEM_DONOR_COUNT>
1

> <JCHEM_FORMAL_CHARGE>
0

> <JCHEM_GHOSE_FILTER>
1

> <JCHEM_IUPAC>
6-(4-{3-[(2R)-2-methylpyrrolidin-1-yl]propoxy}phenyl)-2,3-dihydropyridazin-3-one

> <ALOGPS_LOGP>
2.52

> <JCHEM_LOGP>
1.8056345637519557

> <ALOGPS_LOGS>
-3.67

> <JCHEM_MDDR_LIKE_RULE>
1

> <JCHEM_NUMBER_OF_RINGS>
3

> <JCHEM_PHYSIOLOGICAL_CHARGE>
1

> <JCHEM_PKA_STRONGEST_ACIDIC>
10.425931241086671

> <JCHEM_PKA_STRONGEST_BASIC>
9.57314353638458

> <JCHEM_POLAR_SURFACE_AREA>
53.93

> <JCHEM_REFRACTIVITY>
92.01089999999998

> <JCHEM_ROTATABLE_BOND_COUNT>
6

> <JCHEM_RULE_OF_FIVE>
1

> <ALOGPS_SOLUBILITY>
6.75e-02 g/l

> <JCHEM_TRADITIONAL_IUPAC>
6-(4-{3-[(2R)-2-methylpyrrolidin-1-yl]propoxy}phenyl)-2H-pyridazin-3-one

> <JCHEM_VEBER_RULE>
0

> <DRUGBANK_ID>
DB12900

> <DRUG_GROUPS>
investigational

> <GENERIC_NAME>
Irdabisant

> <SYNONYMS>
CEP-26401; Irdabisant

$$$$
