
  Mrv1909 05201915002D          

 36 39  0  0  1  0            999 V2000
   -4.2624    1.6923    0.0000 C   0  0  0  0  0  0  0  0  0  0  0  0
   -3.5479    1.2798    0.0000 C   0  0  0  0  0  0  0  0  0  0  0  0
   -3.5479    0.4548    0.0000 C   0  0  1  0  0  0  0  0  0  0  0  0
   -2.8334    0.0423    0.0000 O   0  0  0  0  0  0  0  0  0  0  0  0
   -2.8334   -0.7827    0.0000 C   0  0  0  0  0  0  0  0  0  0  0  0
   -2.1190   -1.1952    0.0000 C   0  0  0  0  0  0  0  0  0  0  0  0
   -2.1190   -2.0202    0.0000 C   0  0  0  0  0  0  0  0  0  0  0  0
   -1.4045   -2.4327    0.0000 C   0  0  0  0  0  0  0  0  0  0  0  0
   -0.6900   -2.0202    0.0000 N   0  0  0  0  0  0  0  0  0  0  0  0
    0.0244   -2.4327    0.0000 C   0  0  0  0  0  0  0  0  0  0  0  0
    0.7389   -2.0202    0.0000 C   0  0  0  0  0  0  0  0  0  0  0  0
    1.4534   -2.4327    0.0000 C   0  0  0  0  0  0  0  0  0  0  0  0
    2.1678   -2.0202    0.0000 O   0  0  0  0  0  0  0  0  0  0  0  0
    2.8823   -2.4327    0.0000 C   0  0  0  0  0  0  0  0  0  0  0  0
    3.5968   -2.0202    0.0000 C   0  0  0  0  0  0  0  0  0  0  0  0
    4.3113   -2.4327    0.0000 C   0  0  0  0  0  0  0  0  0  0  0  0
    4.3113   -3.2577    0.0000 C   0  0  0  0  0  0  0  0  0  0  0  0
    5.0257   -3.6702    0.0000 O   0  0  0  0  0  0  0  0  0  0  0  0
    5.7402   -3.2577    0.0000 C   0  0  0  0  0  0  0  0  0  0  0  0
    3.5968   -3.6702    0.0000 C   0  0  0  0  0  0  0  0  0  0  0  0
    2.8823   -3.2577    0.0000 C   0  0  0  0  0  0  0  0  0  0  0  0
   -0.6900   -1.1952    0.0000 C   0  0  0  0  0  0  0  0  0  0  0  0
   -0.0226   -0.7103    0.0000 N   0  0  0  0  0  0  0  0  0  0  0  0
   -0.2775    0.0744    0.0000 C   0  0  0  0  0  0  0  0  0  0  0  0
   -1.1025    0.0744    0.0000 C   0  0  0  0  0  0  0  0  0  0  0  0
   -1.3575   -0.7103    0.0000 O   0  0  0  0  0  0  0  0  0  0  0  0
   -1.5150    0.7888    0.0000 C   0  0  0  0  0  0  0  0  0  0  0  0
   -1.1025    1.5033    0.0000 C   0  0  0  0  0  0  0  0  0  0  0  0
   -0.2775    1.5033    0.0000 C   0  0  0  0  0  0  0  0  0  0  0  0
    0.1350    0.7888    0.0000 C   0  0  0  0  0  0  0  0  0  0  0  0
   -2.8334   -2.4327    0.0000 C   0  0  0  0  0  0  0  0  0  0  0  0
   -3.5479   -2.0202    0.0000 C   0  0  0  0  0  0  0  0  0  0  0  0
   -3.5479   -1.1952    0.0000 C   0  0  0  0  0  0  0  0  0  0  0  0
   -4.2624    0.0423    0.0000 C   0  0  0  0  0  0  0  0  0  0  0  0
   -4.2624   -0.7827    0.0000 O   0  0  0  0  0  0  0  0  0  0  0  0
   -4.9769    0.4548    0.0000 O   0  0  0  0  0  0  0  0  0  0  0  0
  1  2  1  0  0  0  0
  3  2  1  0  0  0  0
  3  4  1  1  0  0  0
  4  5  1  0  0  0  0
  5  6  2  0  0  0  0
  6  7  1  0  0  0  0
  7  8  1  0  0  0  0
  8  9  1  0  0  0  0
  9 10  1  0  0  0  0
 10 11  1  0  0  0  0
 11 12  1  0  0  0  0
 12 13  1  0  0  0  0
 13 14  1  0  0  0  0
 14 15  2  0  0  0  0
 15 16  1  0  0  0  0
 16 17  2  0  0  0  0
 17 18  1  0  0  0  0
 18 19  1  0  0  0  0
 17 20  1  0  0  0  0
 20 21  2  0  0  0  0
 14 21  1  0  0  0  0
  9 22  1  0  0  0  0
 22 23  2  0  0  0  0
 23 24  1  0  0  0  0
 24 25  2  0  0  0  0
 25 26  1  0  0  0  0
 22 26  1  0  0  0  0
 25 27  1  0  0  0  0
 27 28  2  0  0  0  0
 28 29  1  0  0  0  0
 29 30  2  0  0  0  0
 24 30  1  0  0  0  0
  7 31  2  0  0  0  0
 31 32  1  0  0  0  0
 32 33  2  0  0  0  0
  5 33  1  0  0  0  0
  3 34  1  0  0  0  0
 34 35  1  0  0  0  0
 34 36  2  0  0  0  0
M  END
> <DATABASE_ID>
DB15212

> <DATABASE_NAME>
drugbank

> <SMILES>
CC[C@@H](OC1=CC(CN(CCCOC2=CC=C(OC)C=C2)C2=NC3=C(O2)C=CC=C3)=CC=C1)C(O)=O

> <INCHI_IDENTIFIER>
InChI=1S/C28H30N2O6/c1-3-25(27(31)32)35-23-9-6-8-20(18-23)19-30(28-29-24-10-4-5-11-26(24)36-28)16-7-17-34-22-14-12-21(33-2)13-15-22/h4-6,8-15,18,25H,3,7,16-17,19H2,1-2H3,(H,31,32)/t25-/m1/s1

> <INCHI_KEY>
ZHKNLJLMDFQVHJ-RUZDIDTESA-N

> <FORMULA>
C28H30N2O6

> <MOLECULAR_WEIGHT>
490.556

> <EXACT_MASS>
490.210386694

> <JCHEM_ACCEPTOR_COUNT>
7

> <JCHEM_ATOM_COUNT>
66

> <JCHEM_AVERAGE_POLARIZABILITY>
53.85930507669053

> <JCHEM_BIOAVAILABILITY>
0

> <JCHEM_DONOR_COUNT>
1

> <JCHEM_FORMAL_CHARGE>
0

> <JCHEM_GHOSE_FILTER>
0

> <JCHEM_IUPAC>
(2R)-2-(3-{[(1,3-benzoxazol-2-yl)[3-(4-methoxyphenoxy)propyl]amino]methyl}phenoxy)butanoic acid

> <ALOGPS_LOGP>
5.22

> <JCHEM_LOGP>
5.794569148000003

> <ALOGPS_LOGS>
-4.37

> <JCHEM_MDDR_LIKE_RULE>
1

> <JCHEM_NUMBER_OF_RINGS>
4

> <JCHEM_PHYSIOLOGICAL_CHARGE>
-1

> <JCHEM_PKA_STRONGEST_ACIDIC>
3.941537000246488

> <JCHEM_PKA_STRONGEST_BASIC>
0.38707009962420624

> <JCHEM_POLAR_SURFACE_AREA>
94.26000000000002

> <JCHEM_REFRACTIVITY>
134.68410000000006

> <JCHEM_ROTATABLE_BOND_COUNT>
13

> <JCHEM_RULE_OF_FIVE>
0

> <ALOGPS_SOLUBILITY>
2.12e-02 g/l

> <JCHEM_TRADITIONAL_IUPAC>
(2R)-14-fluoro-2-methyl-6,9,10,19-tetraazapentacyclo[14.2.1.0^{2,6}.0^{8,18}.0^{12,17}]nonadeca-1(18),8,12(17),13,15-pentaen-11-one

> <JCHEM_VEBER_RULE>
0

> <DRUGBANK_ID>
DB15212

> <DRUG_GROUPS>
investigational

> <GENERIC_NAME>
Pemafibrate

> <SYNONYMS>
Pemafibrate

$$$$
