
  Mrv1909 05201914492D          

 19 20  0  0  0  0            999 V2000
    2.7512   -1.7116    0.0000 C   0  0  0  0  0  0  0  0  0  0  0  0
    2.7512   -2.5366    0.0000 C   0  0  0  0  0  0  0  0  0  0  0  0
    3.4186   -3.0215    0.0000 N   0  0  0  0  0  0  0  0  0  0  0  0
    3.1637   -3.8062    0.0000 C   0  0  0  0  0  0  0  0  0  0  0  0
    2.3387   -3.8062    0.0000 C   0  0  0  0  0  0  0  0  0  0  0  0
    2.0837   -3.0215    0.0000 N   0  0  0  0  0  0  0  0  0  0  0  0
    1.2991   -2.7666    0.0000 C   0  0  0  0  0  0  0  0  0  0  0  0
    1.1276   -1.9596    0.0000 C   0  0  0  0  0  0  0  0  0  0  0  0
    1.7407   -1.4076    0.0000 O   0  0  0  0  0  0  0  0  0  0  0  0
    0.3430   -1.7047    0.0000 C   0  0  0  0  0  0  0  0  0  0  0  0
    0.1714   -0.8977    0.0000 N   0  0  0  0  0  0  0  0  0  0  0  0
   -0.6132   -0.6428    0.0000 C   0  0  0  0  0  0  0  0  0  0  0  0
   -0.7847    0.1642    0.0000 C   0  0  0  0  0  0  0  0  0  0  0  0
   -0.1716    0.7162    0.0000 O   0  0  0  0  0  0  0  0  0  0  0  0
    0.6130    0.4613    0.0000 C   0  0  0  0  0  0  0  0  0  0  0  0
    0.7845   -0.3457    0.0000 C   0  0  0  0  0  0  0  0  0  0  0  0
    1.8538   -4.4736    0.0000 N   0  3  0  0  0  0  0  0  0  0  0  0
    2.1893   -5.2273    0.0000 O   0  5  0  0  0  0  0  0  0  0  0  0
    1.0333   -4.3874    0.0000 O   0  0  0  0  0  0  0  0  0  0  0  0
  1  2  1  0  0  0  0
  2  3  2  0  0  0  0
  3  4  1  0  0  0  0
  4  5  2  0  0  0  0
  5  6  1  0  0  0  0
  2  6  1  0  0  0  0
  6  7  1  0  0  0  0
  7  8  1  0  0  0  0
  8  9  1  0  0  0  0
  8 10  1  0  0  0  0
 10 11  1  0  0  0  0
 11 12  1  0  0  0  0
 12 13  1  0  0  0  0
 13 14  1  0  0  0  0
 14 15  1  0  0  0  0
 15 16  1  0  0  0  0
 11 16  1  0  0  0  0
  5 17  1  0  0  0  0
 17 18  1  0  0  0  0
 17 19  2  0  0  0  0
M  CHG  2  17   1  18  -1
M  END
> <DATABASE_ID>
DB15098

> <DATABASE_NAME>
drugbank

> <SMILES>
CC1=NC=C(N1CC(O)CN1CCOCC1)[N+]([O-])=O

> <INCHI_IDENTIFIER>
InChI=1S/C11H18N4O4/c1-9-12-6-11(15(17)18)14(9)8-10(16)7-13-2-4-19-5-3-13/h6,10,16H,2-5,7-8H2,1H3

> <INCHI_KEY>
GAZGHCHCYRSPIV-UHFFFAOYSA-N

> <FORMULA>
C11H18N4O4

> <MOLECULAR_WEIGHT>
270.289

> <EXACT_MASS>
270.132805076

> <JCHEM_ACCEPTOR_COUNT>
6

> <JCHEM_ATOM_COUNT>
37

> <JCHEM_AVERAGE_POLARIZABILITY>
26.607367839699126

> <JCHEM_BIOAVAILABILITY>
1

> <JCHEM_DONOR_COUNT>
1

> <JCHEM_FORMAL_CHARGE>
0

> <JCHEM_GHOSE_FILTER>
0

> <JCHEM_IUPAC>
1-(2-methyl-5-nitro-1H-imidazol-1-yl)-3-(morpholin-4-yl)propan-2-ol

> <ALOGPS_LOGP>
-0.31

> <JCHEM_LOGP>
-0.5993990840000001

> <ALOGPS_LOGS>
-1.34

> <JCHEM_MDDR_LIKE_RULE>
0

> <JCHEM_NUMBER_OF_RINGS>
2

> <JCHEM_PHYSIOLOGICAL_CHARGE>
0

> <JCHEM_PKA_STRONGEST_ACIDIC>
14.372041800030813

> <JCHEM_PKA_STRONGEST_BASIC>
6.4728144448305915

> <JCHEM_POLAR_SURFACE_AREA>
93.66

> <JCHEM_REFRACTIVITY>
66.98010000000001

> <JCHEM_ROTATABLE_BOND_COUNT>
5

> <JCHEM_RULE_OF_FIVE>
1

> <ALOGPS_SOLUBILITY>
1.25e+01 g/l

> <JCHEM_TRADITIONAL_IUPAC>
(2R)-14-fluoro-2-methyl-6,9,10,19-tetraazapentacyclo[14.2.1.0^{2,6}.0^{8,18}.0^{12,17}]nonadeca-1(18),8,12(17),13,15-pentaen-11-one

> <JCHEM_VEBER_RULE>
0

> <DRUGBANK_ID>
DB15098

> <DRUG_GROUPS>
investigational

> <GENERIC_NAME>
Morinidazole

$$$$
