
  Mrv1909 03072020202D          

251258  0  0  0  0            999 V2000
    7.7443   18.1325    0.0000 C   0  0  0  0  0  0  0  0  0  0  0  0
    7.0381   17.7064    0.0000 C   0  0  2  0  0  0  0  0  0  0  0  0
    5.7217   18.4329    0.0000 N   0  0  0  0  0  0  0  0  0  0  0  0
    5.0153   18.0067    0.0000 C   0  0  0  0  0  0  0  0  0  0  0  0
    4.2930   18.4056    0.0000 C   0  0  2  0  0  0  0  0  0  0  0  0
    4.2930   19.2302    0.0000 C   0  0  0  0  0  0  0  0  0  0  0  0
    4.9835   19.6566    0.0000 C   0  0  0  0  0  0  0  0  0  0  0  0
    4.9835   20.4814    0.0000 C   0  0  0  0  0  0  0  0  0  0  0  0
    5.6741   20.9075    0.0000 C   0  0  0  0  0  0  0  0  0  0  0  0
    6.3962   20.5089    0.0000 C   0  0  0  0  0  0  0  0  0  0  0  0
    6.3962   19.6841    0.0000 C   0  0  0  0  0  0  0  0  0  0  0  0
    5.7057   19.2579    0.0000 C   0  0  0  0  0  0  0  0  0  0  0  0
    7.1028   20.9350    0.0000 O   0  0  0  0  0  0  0  0  0  0  0  0
    3.5866   17.9794    0.0000 N   0  0  0  0  0  0  0  0  0  0  0  0
    2.8642   18.3779    0.0000 C   0  0  0  0  0  0  0  0  0  0  0  0
    2.1737   17.9517    0.0000 C   0  0  1  0  0  0  0  0  0  0  0  0
    1.4357   18.3506    0.0000 N   0  0  0  0  0  0  0  0  0  0  0  0
    0.7291   17.9242    0.0000 C   0  0  0  0  0  0  0  0  0  0  0  0
    0.0069   18.3230    0.0000 C   0  0  1  0  0  0  0  0  0  0  0  0
   -0.6993   17.8968    0.0000 N   0  0  0  0  0  0  0  0  0  0  0  0
   -1.4218   18.2955    0.0000 C   0  0  0  0  0  0  0  0  0  0  0  0
   -1.4218   19.1204    0.0000 O   0  0  0  0  0  0  0  0  0  0  0  0
   -2.1281   17.8693    0.0000 C   0  0  1  0  0  0  0  0  0  0  0  0
   -2.8504   18.2681    0.0000 N   0  0  0  0  0  0  0  0  0  0  0  0
   -3.5568   17.8418    0.0000 C   0  0  0  0  0  0  0  0  0  0  0  0
   -3.5568   18.6668    0.0000 O   0  0  0  0  0  0  0  0  0  0  0  0
   -4.2792   18.2405    0.0000 C   0  0  2  0  0  0  0  0  0  0  0  0
   -4.2792   19.0653    0.0000 C   0  0  0  0  0  0  0  0  0  0  0  0
   -3.5886   19.4917    0.0000 C   0  0  0  0  0  0  0  0  0  0  0  0
   -2.8663   19.0929    0.0000 C   0  0  0  0  0  0  0  0  0  0  0  0
   -2.1599   19.5191    0.0000 C   0  0  0  0  0  0  0  0  0  0  0  0
   -2.1599   20.3440    0.0000 C   0  0  0  0  0  0  0  0  0  0  0  0
   -2.8983   20.7426    0.0000 C   0  0  0  0  0  0  0  0  0  0  0  0
   -3.5886   20.3165    0.0000 C   0  0  0  0  0  0  0  0  0  0  0  0
   -4.9855   17.8144    0.0000 N   0  0  0  0  0  0  0  0  0  0  0  0
   -5.7079   18.2130    0.0000 C   0  0  0  0  0  0  0  0  0  0  0  0
   -5.7079   19.0378    0.0000 O   0  0  0  0  0  0  0  0  0  0  0  0
   -6.4142   17.7867    0.0000 C   0  0  2  0  0  0  0  0  0  0  0  0
   -6.4142   18.6117    0.0000 C   0  0  0  0  0  0  0  0  0  0  0  0
   -7.1525   19.0101    0.0000 C   0  0  0  0  0  0  0  0  0  0  0  0
   -7.1525   19.8350    0.0000 C   0  0  0  0  0  0  0  0  0  0  0  0
   -6.4779   20.2613    0.0000 N   0  0  0  0  0  0  0  0  0  0  0  0
   -6.4779   21.0861    0.0000 C   0  0  0  0  0  0  0  0  0  0  0  0
   -5.7714   21.5123    0.0000 N   0  0  0  0  0  0  0  0  0  0  0  0
   -7.2002   21.4848    0.0000 N   0  0  0  0  0  0  0  0  0  0  0  0
   -7.1365   18.1853    0.0000 N   0  0  0  0  0  0  0  0  0  0  0  0
   -7.8428   17.7592    0.0000 C   0  0  0  0  0  0  0  0  0  0  0  0
   -7.7972   18.5829    0.0000 O   0  0  0  0  0  0  0  0  0  0  0  0
   -8.4977   18.2611    0.0000 C   0  0  2  0  0  0  0  0  0  0  0  0
   -8.3296   19.0687    0.0000 C   0  0  0  0  0  0  0  0  0  0  0  0
   -8.9452   19.6181    0.0000 C   0  0  0  0  0  0  0  0  0  0  0  0
   -9.7286   19.3598    0.0000 C   0  0  0  0  0  0  0  0  0  0  0  0
  -10.3442   19.9090    0.0000 O   0  0  0  0  0  0  0  0  0  0  0  0
   -9.8967   18.5521    0.0000 O   0  0  0  0  0  0  0  0  0  0  0  0
   -9.2983   18.0619    0.0000 N   0  0  0  0  0  0  0  0  0  0  0  0
   -9.6419   17.3118    0.0000 C   0  0  0  0  0  0  0  0  0  0  0  0
   -9.2695   16.5755    0.0000 C   0  0  1  0  0  0  0  0  0  0  0  0
   -8.4618   16.4076    0.0000 N   0  0  0  0  0  0  0  0  0  0  0  0
   -7.8270   16.9343    0.0000 C   0  0  0  0  0  0  0  0  0  0  0  0
   -7.1047   16.5357    0.0000 C   0  0  2  0  0  0  0  0  0  0  0  0
   -6.3982   16.9618    0.0000 C   0  0  0  0  0  0  0  0  0  0  0  0
   -5.6759   16.5632    0.0000 C   0  0  0  0  0  0  0  0  0  0  0  0
   -4.9695   16.9895    0.0000 C   0  0  0  0  0  0  0  0  0  0  0  0
   -4.2472   16.5909    0.0000 C   0  0  0  0  0  0  0  0  0  0  0  0
   -3.5409   17.0170    0.0000 N   0  0  0  0  0  0  0  0  0  0  0  0
   -2.8186   16.6184    0.0000 C   0  0  0  0  0  0  0  0  0  0  0  0
   -2.1281   17.0445    0.0000 C   0  0  0  0  0  0  0  0  0  0  0  0
   -2.8186   15.7935    0.0000 O   0  0  0  0  0  0  0  0  0  0  0  0
   -7.1047   15.7109    0.0000 N   0  0  0  0  0  0  0  0  0  0  0  0
   -7.7952   15.2845    0.0000 C   0  0  0  0  0  0  0  0  0  0  0  0
   -8.5175   15.6832    0.0000 C   0  0  0  0  0  0  0  0  0  0  0  0
   -7.7952   14.4597    0.0000 O   0  0  0  0  0  0  0  0  0  0  0  0
   -7.7495   16.1130    0.0000 O   0  0  0  0  0  0  0  0  0  0  0  0
   -9.7714   15.9209    0.0000 C   0  0  0  0  0  0  0  0  0  0  0  0
  -10.5895   16.0279    0.0000 C   0  0  0  0  0  0  0  0  0  0  0  0
   -9.4554   15.1588    0.0000 C   0  0  0  0  0  0  0  0  0  0  0  0
  -10.4667   17.3118    0.0000 O   0  0  0  0  0  0  0  0  0  0  0  0
   -0.6993   17.0719    0.0000 C   0  0  0  0  0  0  0  0  0  0  0  0
    0.0069   19.1479    0.0000 C   0  0  0  0  0  0  0  0  0  0  0  0
    0.6973   19.5740    0.0000 C   0  0  0  0  0  0  0  0  0  0  0  0
    1.4197   19.1753    0.0000 O   0  0  0  0  0  0  0  0  0  0  0  0
    0.6973   20.3989    0.0000 O   0  0  0  0  0  0  0  0  0  0  0  0
    0.7291   17.0994    0.0000 O   0  0  0  0  0  0  0  0  0  0  0  0
    2.1737   17.1269    0.0000 C   0  0  0  0  0  0  0  0  0  0  0  0
    1.4673   16.7008    0.0000 C   0  0  0  0  0  0  0  0  0  0  0  0
    2.1737   16.3021    0.0000 C   0  0  0  0  0  0  0  0  0  0  0  0
    2.8960   16.7283    0.0000 C   0  0  0  0  0  0  0  0  0  0  0  0
    2.8642   19.2027    0.0000 O   0  0  0  0  0  0  0  0  0  0  0  0
    5.0153   17.1819    0.0000 O   0  0  0  0  0  0  0  0  0  0  0  0
    7.0381   16.2032    0.0000 C   0  0  0  0  0  0  0  0  0  0  0  0
    6.3605   15.7769    0.0000 N   0  0  0  0  0  0  0  0  0  0  0  0
    5.6382   16.1755    0.0000 C   0  0  2  0  0  0  0  0  0  0  0  0
    4.9318   15.7494    0.0000 C   0  0  0  0  0  0  0  0  0  0  0  0
    4.9318   14.9246    0.0000 N   0  0  0  0  0  0  0  0  0  0  0  0
    4.2413   14.4984    0.0000 C   0  0  2  0  0  0  0  0  0  0  0  0
    3.5190   14.8971    0.0000 C   0  0  0  0  0  0  0  0  0  0  0  0
    3.5190   15.7219    0.0000 O   0  0  0  0  0  0  0  0  0  0  0  0
    2.8125   14.4709    0.0000 N   0  0  0  0  0  0  0  0  0  0  0  0
    2.7421   13.6489    0.0000 C   0  0  2  0  0  0  0  0  0  0  0  0
    3.3658   13.1086    0.0000 C   0  0  0  0  0  0  0  0  0  0  0  0
    3.2097   12.2986    0.0000 N   0  0  0  0  0  0  0  0  0  0  0  0
    2.5694   11.7784    0.0000 C   0  0  2  0  0  0  0  0  0  0  0  0
    1.7989   12.0726    0.0000 C   0  0  0  0  0  0  0  0  0  0  0  0
    1.1586   11.5522    0.0000 N   0  0  0  0  0  0  0  0  0  0  0  0
    0.3880   11.8465    0.0000 C   0  0  1  0  0  0  0  0  0  0  0  0
   -0.2523   11.3262    0.0000 C   0  0  0  0  0  0  0  0  0  0  0  0
   -0.1218   10.5116    0.0000 C   0  0  0  0  0  0  0  0  0  0  0  0
   -0.7620    9.9913    0.0000 C   0  0  0  0  0  0  0  0  0  0  0  0
   -0.6315    9.1766    0.0000 C   0  0  0  0  0  0  0  0  0  0  0  0
   -1.2717    8.6563    0.0000 N   0  0  0  0  0  0  0  0  0  0  0  0
   -1.1412    7.8417    0.0000 C   0  0  0  0  0  0  0  0  0  0  0  0
   -1.7814    7.3214    0.0000 C   0  0  0  0  0  0  0  0  0  0  0  0
   -1.6509    6.5068    0.0000 C   0  0  0  0  0  0  0  0  0  0  0  0
   -2.2911    5.9863    0.0000 O   0  0  0  0  0  0  0  0  0  0  0  0
   -2.1605    5.1717    0.0000 C   0  0  0  0  0  0  0  0  0  0  0  0
   -2.8007    4.6514    0.0000 C   0  0  0  0  0  0  0  0  0  0  0  0
   -2.5748    3.5918    0.0000 O   0  0  0  0  0  0  0  0  0  0  0  0
   -2.6267    2.7849    0.0000 C   0  0  0  0  0  0  0  0  0  0  0  0
   -3.2646    2.2617    0.0000 C   0  0  0  0  0  0  0  0  0  0  0  0
   -3.1304    1.4477    0.0000 O   0  0  0  0  0  0  0  0  0  0  0  0
   -3.7682    0.9244    0.0000 C   0  0  0  0  0  0  0  0  0  0  0  0
   -3.6340    0.1105    0.0000 C   0  0  0  0  0  0  0  0  0  0  0  0
   -4.2721   -0.4127    0.0000 O   0  0  0  0  0  0  0  0  0  0  0  0
   -4.1379   -1.2267    0.0000 C   0  0  0  0  0  0  0  0  0  0  0  0
   -4.7757   -1.7497    0.0000 C   0  0  0  0  0  0  0  0  0  0  0  0
   -4.6416   -2.5639    0.0000 O   0  0  0  0  0  0  0  0  0  0  0  0
   -5.2796   -3.0870    0.0000 C   0  0  0  0  0  0  0  0  0  0  0  0
   -5.1453   -3.9011    0.0000 C   0  0  0  0  0  0  0  0  0  0  0  0
   -5.7833   -4.4242    0.0000 O   0  0  0  0  0  0  0  0  0  0  0  0
   -5.6491   -5.2384    0.0000 C   0  0  0  0  0  0  0  0  0  0  0  0
   -6.2869   -5.7615    0.0000 C   0  0  0  0  0  0  0  0  0  0  0  0
   -6.1528   -6.5756    0.0000 O   0  0  0  0  0  0  0  0  0  0  0  0
   -6.7908   -7.0987    0.0000 C   0  0  0  0  0  0  0  0  0  0  0  0
   -6.6566   -7.9128    0.0000 C   0  0  0  0  0  0  0  0  0  0  0  0
   -7.2944   -8.4359    0.0000 O   0  0  0  0  0  0  0  0  0  0  0  0
   -7.1604   -9.2500    0.0000 C   0  0  0  0  0  0  0  0  0  0  0  0
   -7.7983   -9.7732    0.0000 C   0  0  0  0  0  0  0  0  0  0  0  0
   -7.6640  -10.5871    0.0000 O   0  0  0  0  0  0  0  0  0  0  0  0
   -8.3020  -11.1103    0.0000 C   0  0  0  0  0  0  0  0  0  0  0  0
   -8.1679  -11.9244    0.0000 C   0  0  0  0  0  0  0  0  0  0  0  0
   -8.8057  -12.4476    0.0000 O   0  0  0  0  0  0  0  0  0  0  0  0
   -8.6716  -13.2616    0.0000 C   0  0  0  0  0  0  0  0  0  0  0  0
   -9.3095  -13.7849    0.0000 C   0  0  0  0  0  0  0  0  0  0  0  0
   -9.1754  -14.5988    0.0000 O   0  0  0  0  0  0  0  0  0  0  0  0
   -9.8133  -15.1221    0.0000 C   0  0  0  0  0  0  0  0  0  0  0  0
   -9.6791  -15.9360    0.0000 C   0  0  0  0  0  0  0  0  0  0  0  0
  -10.3171  -16.4593    0.0000 O   0  0  0  0  0  0  0  0  0  0  0  0
  -10.1827  -17.2733    0.0000 C   0  0  0  0  0  0  0  0  0  0  0  0
  -10.8208  -17.7964    0.0000 C   0  0  0  0  0  0  0  0  0  0  0  0
  -10.6866  -18.6104    0.0000 O   0  0  0  0  0  0  0  0  0  0  0  0
   -9.9145  -18.9013    0.0000 C   0  0  0  0  0  0  0  0  0  0  0  0
   -9.2766  -18.3781    0.0000 C   0  0  0  0  0  0  0  0  0  0  0  0
   -9.4108  -17.5642    0.0000 O   0  0  0  0  0  0  0  0  0  0  0  0
   -8.7730  -17.0408    0.0000 C   0  0  0  0  0  0  0  0  0  0  0  0
   -8.9071  -16.2269    0.0000 C   0  0  0  0  0  0  0  0  0  0  0  0
   -8.2691  -15.7037    0.0000 O   0  0  0  0  0  0  0  0  0  0  0  0
   -8.4032  -14.8897    0.0000 C   0  0  0  0  0  0  0  0  0  0  0  0
   -7.7654  -14.3664    0.0000 C   0  0  0  0  0  0  0  0  0  0  0  0
   -7.8996  -13.5524    0.0000 O   0  0  0  0  0  0  0  0  0  0  0  0
   -7.2617  -13.0291    0.0000 C   0  0  0  0  0  0  0  0  0  0  0  0
   -7.3957  -12.2152    0.0000 C   0  0  0  0  0  0  0  0  0  0  0  0
   -6.7579  -11.6919    0.0000 O   0  0  0  0  0  0  0  0  0  0  0  0
   -6.8920  -10.8780    0.0000 C   0  0  0  0  0  0  0  0  0  0  0  0
   -6.2542  -10.3548    0.0000 C   0  0  0  0  0  0  0  0  0  0  0  0
   -6.3883   -9.5409    0.0000 O   0  0  0  0  0  0  0  0  0  0  0  0
   -5.7503   -9.0177    0.0000 C   0  0  0  0  0  0  0  0  0  0  0  0
   -5.8845   -8.2036    0.0000 C   0  0  0  0  0  0  0  0  0  0  0  0
   -5.2467   -7.6804    0.0000 O   0  0  0  0  0  0  0  0  0  0  0  0
   -5.3808   -6.8664    0.0000 C   0  0  0  0  0  0  0  0  0  0  0  0
   -4.7430   -6.3431    0.0000 C   0  0  0  0  0  0  0  0  0  0  0  0
   -4.8771   -5.5292    0.0000 O   0  0  0  0  0  0  0  0  0  0  0  0
   -4.2392   -5.0060    0.0000 C   0  0  0  0  0  0  0  0  0  0  0  0
   -4.3732   -4.1920    0.0000 C   0  0  0  0  0  0  0  0  0  0  0  0
   -3.5593   -4.0578    0.0000 O   0  0  0  0  0  0  0  0  0  0  0  0
   -3.0361   -4.6956    0.0000 C   0  0  0  0  0  0  0  0  0  0  0  0
   -2.2221   -4.5615    0.0000 C   0  0  0  0  0  0  0  0  0  0  0  0
   -1.6990   -5.1994    0.0000 O   0  0  0  0  0  0  0  0  0  0  0  0
   -0.8848   -5.0654    0.0000 C   0  0  0  0  0  0  0  0  0  0  0  0
   -0.3618   -5.7032    0.0000 C   0  0  0  0  0  0  0  0  0  0  0  0
    0.4523   -5.5690    0.0000 O   0  0  0  0  0  0  0  0  0  0  0  0
    0.9754   -6.2069    0.0000 C   0  0  0  0  0  0  0  0  0  0  0  0
    1.7895   -6.0728    0.0000 C   0  0  0  0  0  0  0  0  0  0  0  0
    2.3127   -6.7107    0.0000 O   0  0  0  0  0  0  0  0  0  0  0  0
    1.6725   -7.2310    0.0000 C   0  0  0  0  0  0  0  0  0  0  0  0
    1.8030   -8.0457    0.0000 C   0  0  0  0  0  0  0  0  0  0  0  0
    1.1627   -8.5659    0.0000 N   0  0  0  0  0  0  0  0  0  0  0  0
    1.2933   -9.3806    0.0000 C   0  0  0  0  0  0  0  0  0  0  0  0
    2.0641   -9.6749    0.0000 O   0  0  0  0  0  0  0  0  0  0  0  0
    0.6531   -9.9009    0.0000 C   0  0  0  0  0  0  0  0  0  0  0  0
    0.7836  -10.7155    0.0000 C   0  0  0  0  0  0  0  0  0  0  0  0
    0.1433  -11.2358    0.0000 C   0  0  1  0  0  0  0  0  0  0  0  0
    0.2739  -12.0504    0.0000 C   0  0  0  0  0  0  0  0  0  0  0  0
    1.0447  -12.3447    0.0000 O   0  0  0  0  0  0  0  0  0  0  0  0
   -0.3662  -12.5707    0.0000 O   0  0  0  0  0  0  0  0  0  0  0  0
   -0.6272  -10.9417    0.0000 N   0  0  0  0  0  0  0  0  0  0  0  0
   -1.2674  -11.4618    0.0000 C   0  0  0  0  0  0  0  0  0  0  0  0
   -1.1370  -12.2766    0.0000 C   0  0  0  0  0  0  0  0  0  0  0  0
   -1.7772  -12.7969    0.0000 C   0  0  0  0  0  0  0  0  0  0  0  0
   -1.6466  -13.6114    0.0000 C   0  0  0  0  0  0  0  0  0  0  0  0
   -2.2868  -14.1316    0.0000 C   0  0  0  0  0  0  0  0  0  0  0  0
   -2.1564  -14.9464    0.0000 C   0  0  0  0  0  0  0  0  0  0  0  0
   -2.7965  -15.4668    0.0000 C   0  0  0  0  0  0  0  0  0  0  0  0
   -2.6660  -16.2814    0.0000 C   0  0  0  0  0  0  0  0  0  0  0  0
   -3.3064  -16.8017    0.0000 C   0  0  0  0  0  0  0  0  0  0  0  0
   -3.1758  -17.6163    0.0000 C   0  0  0  0  0  0  0  0  0  0  0  0
   -3.8161  -18.1366    0.0000 C   0  0  0  0  0  0  0  0  0  0  0  0
   -3.6854  -18.9512    0.0000 C   0  0  0  0  0  0  0  0  0  0  0  0
   -4.3258  -19.4716    0.0000 C   0  0  0  0  0  0  0  0  0  0  0  0
   -4.1952  -20.2862    0.0000 C   0  0  0  0  0  0  0  0  0  0  0  0
   -4.9160  -20.6875    0.0000 C   0  0  0  0  0  0  0  0  0  0  0  0
   -4.9160  -21.5123    0.0000 C   0  0  0  0  0  0  0  0  0  0  0  0
   -2.0382  -11.1676    0.0000 O   0  0  0  0  0  0  0  0  0  0  0  0
   -0.3705    7.5474    0.0000 O   0  0  0  0  0  0  0  0  0  0  0  0
    0.2573   12.6611    0.0000 C   0  0  0  0  0  0  0  0  0  0  0  0
    0.8975   13.1814    0.0000 O   0  0  0  0  0  0  0  0  0  0  0  0
   -0.5133   12.9555    0.0000 O   0  0  0  0  0  0  0  0  0  0  0  0
    1.6682   12.8871    0.0000 O   0  0  0  0  0  0  0  0  0  0  0  0
    2.7001   10.9638    0.0000 C   0  0  0  0  0  0  0  0  0  0  0  0
    2.0598   10.4432    0.0000 C   0  0  0  0  0  0  0  0  0  0  0  0
    2.1903    9.6288    0.0000 C   0  0  0  0  0  0  0  0  0  0  0  0
    2.9610    9.3345    0.0000 C   0  0  0  0  0  0  0  0  0  0  0  0
    3.6013    9.8548    0.0000 C   0  0  0  0  0  0  0  0  0  0  0  0
    3.4707   10.6694    0.0000 C   0  0  0  0  0  0  0  0  0  0  0  0
    4.1453   13.3788    0.0000 O   0  0  0  0  0  0  0  0  0  0  0  0
    1.9386   13.4619    0.0000 C   0  0  0  0  0  0  0  0  0  0  0  0
    1.5124   14.1682    0.0000 C   0  0  0  0  0  0  0  0  0  0  0  0
    2.0526   14.7919    0.0000 C   0  0  0  0  0  0  0  0  0  0  0  0
    4.2413   13.6734    0.0000 C   0  0  0  0  0  0  0  0  0  0  0  0
    4.9795   13.2749    0.0000 C   0  0  0  0  0  0  0  0  0  0  0  0
    4.9795   12.4499    0.0000 C   0  0  0  0  0  0  0  0  0  0  0  0
    5.7174   12.0514    0.0000 C   0  0  0  0  0  0  0  0  0  0  0  0
    6.4239   12.4776    0.0000 C   0  0  0  0  0  0  0  0  0  0  0  0
    6.4239   13.3024    0.0000 C   0  0  0  0  0  0  0  0  0  0  0  0
    5.6856   13.7011    0.0000 C   0  0  0  0  0  0  0  0  0  0  0  0
    7.1462   12.0787    0.0000 O   0  0  0  0  0  0  0  0  0  0  0  0
    4.2095   16.1480    0.0000 O   0  0  0  0  0  0  0  0  0  0  0  0
    5.6382   17.0005    0.0000 C   0  0  0  0  0  0  0  0  0  0  0  0
    4.9160   16.5742    0.0000 C   0  0  0  0  0  0  0  0  0  0  0  0
    4.1936   16.9728    0.0000 C   0  0  0  0  0  0  0  0  0  0  0  0
    3.4872   16.5467    0.0000 O   0  0  0  0  0  0  0  0  0  0  0  0
    4.1936   17.7979    0.0000 O   0  0  0  0  0  0  0  0  0  0  0  0
    7.7891   15.8044    0.0000 O   0  0  0  0  0  0  0  0  0  0  0  0
    8.4666   17.7339    0.0000 C   0  0  0  0  0  0  0  0  0  0  0  0
    9.2137   18.0838    0.0000 C   0  0  0  0  0  0  0  0  0  0  0  0
    9.7775   17.4814    0.0000 C   0  0  0  0  0  0  0  0  0  0  0  0
    9.3788   16.7593    0.0000 N   0  0  0  0  0  0  0  0  0  0  0  0
    8.5687   16.9151    0.0000 C   0  0  0  0  0  0  0  0  0  0  0  0
   10.5811   17.6685    0.0000 N   0  0  0  0  0  0  0  0  0  0  0  0
   10.8208   18.4579    0.0000 C   0  0  0  0  0  0  0  0  0  0  0  0
   10.2571   19.0602    0.0000 C   0  0  0  0  0  0  0  0  0  0  0  0
    9.4536   18.8732    0.0000 C   0  0  0  0  0  0  0  0  0  0  0  0
  2  1  1  1  0  0  0
  2  3  1  0  0  0  0
  3  4  1  0  0  0  0
  4  5  1  0  0  0  0
  5  6  1  1  0  0  0
  6  7  1  0  0  0  0
  7  8  2  0  0  0  0
  8  9  1  0  0  0  0
  9 10  2  0  0  0  0
 11 10  1  0  0  0  0
 12 11  2  0  0  0  0
  7 12  1  0  0  0  0
 10 13  1  0  0  0  0
  5 14  1  0  0  0  0
 14 15  1  0  0  0  0
 15 16  1  0  0  0  0
 16 17  1  0  0  0  0
 17 18  1  0  0  0  0
 18 19  1  0  0  0  0
 19 20  1  0  0  0  0
 20 21  1  0  0  0  0
 21 22  2  0  0  0  0
 23 21  1  6  0  0  0
 23 24  1  0  0  0  0
 24 25  1  0  0  0  0
 25 26  2  0  0  0  0
 25 27  1  0  0  0  0
 27 28  1  1  0  0  0
 28 29  1  0  0  0  0
 29 30  2  0  0  0  0
 30 31  1  0  0  0  0
 31 32  2  0  0  0  0
 33 32  1  0  0  0  0
 34 33  2  0  0  0  0
 29 34  1  0  0  0  0
 27 35  1  0  0  0  0
 35 36  1  0  0  0  0
 36 37  2  0  0  0  0
 36 38  1  0  0  0  0
 38 39  1  6  0  0  0
 39 40  1  0  0  0  0
 40 41  1  0  0  0  0
 41 42  1  0  0  0  0
 42 43  1  0  0  0  0
 43 44  2  0  0  0  0
 43 45  1  0  0  0  0
 38 46  1  0  0  0  0
 46 47  1  0  0  0  0
 47 48  2  0  0  0  0
 47 49  1  0  0  0  0
 49 50  1  1  0  0  0
 50 51  1  0  0  0  0
 51 52  1  0  0  0  0
 52 53  1  0  0  0  0
 52 54  2  0  0  0  0
 49 55  1  0  0  0  0
 55 56  1  0  0  0  0
 56 57  1  0  0  0  0
 58 57  1  0  0  0  0
 59 58  1  0  0  0  0
 60 59  1  0  0  0  0
 61 60  1  0  0  0  0
 62 61  1  0  0  0  0
 63 62  1  0  0  0  0
 64 63  1  0  0  0  0
 65 64  1  0  0  0  0
 66 65  1  0  0  0  0
 67 66  1  0  0  0  0
 23 67  1  0  0  0  0
 66 68  2  0  0  0  0
 60 69  1  6  0  0  0
 69 70  1  0  0  0  0
 70 71  1  0  0  0  0
 70 72  2  0  0  0  0
 59 73  2  0  0  0  0
 57 74  1  1  0  0  0
 74 75  1  0  0  0  0
 74 76  1  0  0  0  0
 56 77  2  0  0  0  0
 20 78  1  0  0  0  0
 19 79  1  1  0  0  0
 79 80  1  0  0  0  0
 80 81  1  0  0  0  0
 80 82  2  0  0  0  0
 18 83  2  0  0  0  0
 16 84  1  6  0  0  0
 84 85  1  0  0  0  0
 84 86  1  0  0  0  0
 84 87  1  0  0  0  0
 15 88  2  0  0  0  0
  4 89  2  0  0  0  0
  2 90  1  0  0  0  0
 90 91  1  0  0  0  0
 91 92  1  0  0  0  0
 92 93  1  0  0  0  0
 93 94  1  0  0  0  0
 94 95  1  0  0  0  0
 95 96  1  0  0  0  0
 96 97  2  0  0  0  0
 96 98  1  0  0  0  0
 98 99  1  0  0  0  0
 99100  1  6  0  0  0
100101  1  0  0  0  0
101102  1  0  0  0  0
102103  1  0  0  0  0
103104  1  0  0  0  0
104105  1  0  0  0  0
105106  1  1  0  0  0
106107  1  0  0  0  0
107108  1  0  0  0  0
108109  1  0  0  0  0
109110  1  0  0  0  0
110111  1  0  0  0  0
111112  1  0  0  0  0
112113  1  0  0  0  0
113114  1  0  0  0  0
114115  1  0  0  0  0
115116  1  0  0  0  0
116117  1  0  0  0  0
118117  1  0  0  0  0
119118  1  0  0  0  0
120119  1  0  0  0  0
121120  1  0  0  0  0
122121  1  0  0  0  0
123122  1  0  0  0  0
124123  1  0  0  0  0
125124  1  0  0  0  0
126125  1  0  0  0  0
127126  1  0  0  0  0
128127  1  0  0  0  0
129128  1  0  0  0  0
130129  1  0  0  0  0
131130  1  0  0  0  0
132131  1  0  0  0  0
133132  1  0  0  0  0
134133  1  0  0  0  0
135134  1  0  0  0  0
136135  1  0  0  0  0
137136  1  0  0  0  0
138137  1  0  0  0  0
139138  1  0  0  0  0
140139  1  0  0  0  0
141140  1  0  0  0  0
142141  1  0  0  0  0
143142  1  0  0  0  0
144143  1  0  0  0  0
145144  1  0  0  0  0
146145  1  0  0  0  0
147146  1  0  0  0  0
148147  1  0  0  0  0
149148  1  0  0  0  0
150149  1  0  0  0  0
151150  1  0  0  0  0
152151  1  0  0  0  0
153152  1  0  0  0  0
154153  1  0  0  0  0
155154  1  0  0  0  0
156155  1  0  0  0  0
157156  1  0  0  0  0
158157  1  0  0  0  0
159158  1  0  0  0  0
160159  1  0  0  0  0
161160  1  0  0  0  0
162161  1  0  0  0  0
163162  1  0  0  0  0
164163  1  0  0  0  0
165164  1  0  0  0  0
166165  1  0  0  0  0
167166  1  0  0  0  0
168167  1  0  0  0  0
169168  1  0  0  0  0
170169  1  0  0  0  0
171170  1  0  0  0  0
172171  1  0  0  0  0
173172  1  0  0  0  0
174173  1  0  0  0  0
175174  1  0  0  0  0
176175  1  0  0  0  0
177176  1  0  0  0  0
178177  1  0  0  0  0
179178  1  0  0  0  0
180179  1  0  0  0  0
181180  1  0  0  0  0
182181  1  0  0  0  0
183182  1  0  0  0  0
183184  1  0  0  0  0
184185  1  0  0  0  0
185186  1  0  0  0  0
186187  1  0  0  0  0
187188  2  0  0  0  0
187189  1  0  0  0  0
189190  1  0  0  0  0
190191  1  0  0  0  0
191192  1  0  0  0  0
192193  2  0  0  0  0
192194  1  0  0  0  0
191195  1  1  0  0  0
195196  1  0  0  0  0
196197  1  0  0  0  0
197198  1  0  0  0  0
198199  1  0  0  0  0
199200  1  0  0  0  0
200201  1  0  0  0  0
201202  1  0  0  0  0
202203  1  0  0  0  0
203204  1  0  0  0  0
204205  1  0  0  0  0
205206  1  0  0  0  0
206207  1  0  0  0  0
207208  1  0  0  0  0
208209  1  0  0  0  0
209210  1  0  0  0  0
210211  1  0  0  0  0
196212  2  0  0  0  0
111213  2  0  0  0  0
105214  1  0  0  0  0
214215  1  0  0  0  0
214216  2  0  0  0  0
103217  2  0  0  0  0
102218  1  1  0  0  0
218219  1  0  0  0  0
219220  1  0  0  0  0
220221  1  0  0  0  0
222221  1  0  0  0  0
223222  1  0  0  0  0
218223  1  0  0  0  0
100224  2  0  0  0  0
 99225  1  0  0  0  0
225226  1  0  0  0  0
227226  1  0  0  0  0
 98227  1  0  0  0  0
 95228  1  1  0  0  0
228229  1  0  0  0  0
229230  2  0  0  0  0
230231  1  0  0  0  0
231232  2  0  0  0  0
233232  1  0  0  0  0
234233  2  0  0  0  0
229234  1  0  0  0  0
232235  1  0  0  0  0
 93236  2  0  0  0  0
 92237  1  6  0  0  0
237238  1  0  0  0  0
238239  1  0  0  0  0
239240  1  0  0  0  0
239241  2  0  0  0  0
 90242  2  0  0  0  0
  1243  1  0  0  0  0
243244  1  0  0  0  0
244245  1  0  0  0  0
245246  1  0  0  0  0
247246  1  0  0  0  0
243247  2  0  0  0  0
245248  2  0  0  0  0
248249  1  0  0  0  0
250249  2  0  0  0  0
251250  1  0  0  0  0
244251  2  0  0  0  0
M  END
> <DATABASE_ID>
DB15636

> <DATABASE_NAME>
drugbank

> <SMILES>
CCCCCCCCCCCCCCCC(=O)N[C@@H](CCC(=O)NCCOCCOCCOCCOCCOCCOCCOCCOCCOCCOCCOCCOCCOCCOCCOCCOCCOCCOCCOCCOCCOCCOCCOCCOCCC(=O)NCCCC[C@H](NC(=O)[C@@H](NC(=O)[C@@H]1CCCN1C(=O)[C@H](CC1=CC=C(O)C=C1)NC(=O)[C@H](CCC(O)=O)NC(=O)[C@H](CC1=CNC2=NC=CC=C12)NC(=O)[C@H](CC1=CC=C(O)C=C1)NC(=O)[C@@H](NC(=O)[C@H](CC(O)=O)N(C)C(=O)[C@@H]1CC(=O)NCCCC[C@H](NC(C)=O)C(=O)N[C@@H](C(C)C)C(=O)N[C@@H](CCC(O)=O)C(=O)N[C@@H](CCCNC(N)=N)C(=O)N[C@@H](CC2=CC=CC=C2)C(=O)N1)C(C)(C)C)C1CCCCC1)C(O)=O)C(O)=O

> <INCHI_IDENTIFIER>
InChI=1S/C172H278N24O55/c1-9-10-11-12-13-14-15-16-17-18-19-20-27-44-146(202)182-136(170(226)227)53-56-144(200)177-64-67-229-69-71-231-73-75-233-77-79-235-81-83-237-85-87-239-89-91-241-93-95-243-97-99-245-101-103-247-105-107-249-109-111-251-113-112-250-110-108-248-106-104-246-102-100-244-98-96-242-94-92-240-90-88-238-86-84-236-82-80-234-78-76-232-74-72-230-70-68-228-66-59-145(201)175-60-31-29-41-135(169(224)225)186-165(220)152(126-37-25-22-26-38-126)193-162(217)142-43-34-65-196(142)168(223)140(116-125-47-51-129(199)52-48-125)190-157(212)133(54-57-148(204)205)184-161(216)139(117-127-120-180-154-130(127)39-32-62-178-154)188-159(214)138(115-124-45-49-128(198)50-46-124)189-166(221)153(172(5,6)7)194-163(218)143(119-150(208)209)195(8)167(222)141-118-147(203)176-61-30-28-40-131(181-122(4)197)158(213)192-151(121(2)3)164(219)185-134(55-58-149(206)207)156(211)183-132(42-33-63-179-171(173)174)155(210)187-137(160(215)191-141)114-123-35-23-21-24-36-123/h21,23-24,32,35-36,39,45-52,62,120-121,126,131-143,151-153,198-199H,9-20,22,25-31,33-34,37-38,40-44,53-61,63-119H2,1-8H3,(H,175,201)(H,176,203)(H,177,200)(H,178,180)(H,181,197)(H,182,202)(H,183,211)(H,184,216)(H,185,219)(H,186,220)(H,187,210)(H,188,214)(H,189,221)(H,190,212)(H,191,215)(H,192,213)(H,193,217)(H,194,218)(H,204,205)(H,206,207)(H,208,209)(H,224,225)(H,226,227)(H4,173,174,179)/t131-,132-,133-,134-,135-,136-,137-,138-,139-,140-,141-,142-,143-,151-,152-,153+/m0/s1

> <INCHI_KEY>
JDXCOXKBIGBZSK-PSNKNOTQSA-N

> <FORMULA>
C172H278N24O55

> <MOLECULAR_WEIGHT>
3562.229

> <EXACT_MASS>
3559.969439148

> <JCHEM_ACCEPTOR_COUNT>
59

> <JCHEM_ATOM_COUNT>
529

> <JCHEM_AVERAGE_NEUTRAL_MICROSPECIES_CHARGE>
-4.003295786512807

> <JCHEM_AVERAGE_POLARIZABILITY>
397.10120092919993

> <JCHEM_BIOAVAILABILITY>
0

> <JCHEM_DONOR_COUNT>
28

> <JCHEM_FORMAL_CHARGE>
0

> <JCHEM_GHOSE_FILTER>
0

> <JCHEM_IUPAC>
(2S)-2-[(2S)-2-{[(2S)-1-[(2S)-2-[(2S)-2-[(2S)-2-[(2S)-2-[(2S)-2-[(2S)-2-{1-[(2S,5S,8S,11S,14S,22S)-11-benzyl-8-(3-carbamimidamidopropyl)-5-(2-carboxyethyl)-22-acetamido-3,6,9,12,16,23-hexaoxo-2-(propan-2-yl)-1,4,7,10,13,17-hexaazacyclotricosan-14-yl]-N-methylformamido}-3-carboxypropanamido]-3,3-dimethylbutanamido]-3-(4-hydroxyphenyl)propanamido]-3-{1H-pyrrolo[2,3-b]pyridin-3-yl}propanamido]-4-carboxybutanamido]-3-(4-hydroxyphenyl)propanoyl]pyrrolidin-2-yl]formamido}-2-cyclohexylacetamido]-6-{1-[(4S)-4-carboxy-4-hexadecanamidobutanamido]-3,6,9,12,15,18,21,24,27,30,33,36,39,42,45,48,51,54,57,60,63,66,69,72-tetracosaoxapentaheptacontan-75-amido}hexanoic acid

> <ALOGPS_LOGP>
2.08

> <JCHEM_LOGP>
-0.7235282884474131

> <ALOGPS_LOGS>
-5.55

> <JCHEM_MDDR_LIKE_RULE>
1

> <JCHEM_NEUTRAL_CHARGE>
-4

> <JCHEM_NUMBER_OF_RINGS>
8

> <JCHEM_PHYSIOLOGICAL_CHARGE>
-4

> <JCHEM_PKA>
3.3993261509774553

> <JCHEM_PKA_STRONGEST_ACIDIC>
2.7317161155203458

> <JCHEM_PKA_STRONGEST_BASIC>
11.903222014258489

> <JCHEM_POLAR_SURFACE_AREA>
1074.3800000000006

> <JCHEM_REFRACTIVITY>
922.4165000000019

> <JCHEM_ROTATABLE_BOND_COUNT>
141

> <JCHEM_RULE_OF_FIVE>
0

> <ALOGPS_SOLUBILITY>
9.99e-03 g/l

> <JCHEM_TRADITIONAL_IUPAC>
(68Ga)gallium(3+) 2-[4-({[(1R)-1-{[(4R,7S,10S,13R,16S,19R)-10-(4-aminobutyl)-4-{[(2R,3R)-1,3-dihydroxybutan-2-yl]carbamoyl}-7-[(1R)-1-hydroxyethyl]-16-[(4-hydroxyphenyl)methyl]-13-(1H-indol-3-ylmethyl)-6,9,12,15,18-pentaoxo-1,2-dithia-5,8,11,14,17-pentaazacycloicosan-19-yl]carbamoyl}-2-phenylethyl]carbamoyl}methyl)-7,10-bis(carboxylatomethyl)-1,4,7,10-tetraazacyclododecan-1-yl]acetate

> <JCHEM_VEBER_RULE>
0

> <DRUGBANK_ID>
DB15636

> <DRUG_GROUPS>
investigational

> <GENERIC_NAME>
Zilucoplan

> <SYNONYMS>
Zilucoplan

$$$$
