
  Mrv1909 10112218522D          

 33 36  0  0  0  0            999 V2000
    2.3522    0.3352    0.0000 C   0  0  0  0  0  0  0  0  0  0  0  0
    2.0701    1.1104    0.0000 C   0  0  0  0  0  0  0  0  0  0  0  0
    2.8825    1.2537    0.0000 C   0  0  0  0  0  0  0  0  0  0  0  0
    1.3556    0.6979    0.0000 C   0  0  0  0  0  0  0  0  0  0  0  0
    0.6411    1.1104    0.0000 C   0  0  0  0  0  0  0  0  0  0  0  0
    0.6411    1.9354    0.0000 C   0  0  0  0  0  0  0  0  0  0  0  0
   -0.1435    2.1904    0.0000 C   0  0  0  0  0  0  0  0  0  0  0  0
   -0.6284    1.5229    0.0000 N   0  0  0  0  0  0  0  0  0  0  0  0
   -0.1435    0.8555    0.0000 N   0  0  0  0  0  0  0  0  0  0  0  0
   -0.3984    0.0709    0.0000 C   0  0  0  0  0  0  0  0  0  0  0  0
    0.1536   -0.5422    0.0000 C   0  0  0  0  0  0  0  0  0  0  0  0
   -0.1014   -1.3268    0.0000 C   0  0  0  0  0  0  0  0  0  0  0  0
   -0.9083   -1.4984    0.0000 C   0  0  0  0  0  0  0  0  0  0  0  0
   -1.1633   -2.2830    0.0000 C   0  0  0  0  0  0  0  0  0  0  0  0
   -1.9702   -2.4545    0.0000 N   0  0  0  0  0  0  0  0  0  0  0  0
   -0.6112   -2.8961    0.0000 O   0  0  0  0  0  0  0  0  0  0  0  0
   -1.4604   -0.8853    0.0000 C   0  0  0  0  0  0  0  0  0  0  0  0
   -2.2673   -1.0568    0.0000 N   0  0  0  0  0  0  0  0  0  0  0  0
   -2.8194   -0.4437    0.0000 C   0  0  1  0  0  0  0  0  0  0  0  0
   -3.6263   -0.6152    0.0000 C   0  0  0  0  0  0  0  0  0  0  0  0
   -4.1784   -0.0021    0.0000 C   0  0  0  0  0  0  0  0  0  0  0  0
   -3.9234    0.7825    0.0000 C   0  0  2  0  0  0  0  0  0  0  0  0
   -4.4755    1.3956    0.0000 O   0  0  0  0  0  0  0  0  0  0  0  0
   -3.1165    0.9540    0.0000 C   0  0  0  0  0  0  0  0  0  0  0  0
   -2.5644    0.3409    0.0000 C   0  0  0  0  0  0  0  0  0  0  0  0
   -1.2054   -0.1006    0.0000 C   0  0  0  0  0  0  0  0  0  0  0  0
   -0.3984    2.9750    0.0000 C   0  0  0  0  0  0  0  0  0  0  0  0
   -0.6534    3.7596    0.0000 F   0  0  0  0  0  0  0  0  0  0  0  0
   -1.1831    2.7201    0.0000 F   0  0  0  0  0  0  0  0  0  0  0  0
    0.3862    3.2299    0.0000 F   0  0  0  0  0  0  0  0  0  0  0  0
    1.3556    2.3479    0.0000 C   0  0  0  0  0  0  0  0  0  0  0  0
    1.3556    3.1729    0.0000 O   0  0  0  0  0  0  0  0  0  0  0  0
    2.0701    1.9354    0.0000 C   0  0  0  0  0  0  0  0  0  0  0  0
  1  2  1  0  0  0  0
  2  3  1  0  0  0  0
  2  4  1  0  0  0  0
  4  5  1  0  0  0  0
  5  6  2  0  0  0  0
  6  7  1  0  0  0  0
  7  8  2  0  0  0  0
  8  9  1  0  0  0  0
  5  9  1  0  0  0  0
  9 10  1  0  0  0  0
 10 11  2  0  0  0  0
 11 12  1  0  0  0  0
 12 13  2  0  0  0  0
 13 14  1  0  0  0  0
 14 15  1  0  0  0  0
 14 16  2  0  0  0  0
 13 17  1  0  0  0  0
 17 18  1  0  0  0  0
 19 18  1  1  0  0  0
 19 20  1  0  0  0  0
 20 21  1  0  0  0  0
 22 21  1  0  0  0  0
 22 23  1  6  0  0  0
 22 24  1  0  0  0  0
 24 25  1  0  0  0  0
 19 25  1  0  0  0  0
 17 26  2  0  0  0  0
 10 26  1  0  0  0  0
  7 27  1  0  0  0  0
 27 28  1  0  0  0  0
 27 29  1  0  0  0  0
 27 30  1  0  0  0  0
  6 31  1  0  0  0  0
 31 32  2  0  0  0  0
 31 33  1  0  0  0  0
  2 33  1  0  0  0  0
M  END
> <DATABASE_ID>
DB17055

> <DATABASE_NAME>
drugbank

> <SMILES>
CC1(C)CC2=C(C(=NN2C2=CC=C(C(N)=O)C(N[C@H]3CC[C@H](O)CC3)=C2)C(F)(F)F)C(=O)C1

> <INCHI_IDENTIFIER>
InChI=1S/C23H27F3N4O3/c1-22(2)10-17-19(18(32)11-22)20(23(24,25)26)29-30(17)13-5-8-15(21(27)33)16(9-13)28-12-3-6-14(31)7-4-12/h5,8-9,12,14,28,31H,3-4,6-7,10-11H2,1-2H3,(H2,27,33)/t12-,14-

> <INCHI_KEY>
ZFVRYNYOPQZKDG-MQMHXKEQSA-N

> <FORMULA>
C23H27F3N4O3

> <MOLECULAR_WEIGHT>
464.489

> <EXACT_MASS>
464.203525234

> <JCHEM_ACCEPTOR_COUNT>
5

> <JCHEM_ATOM_COUNT>
60

> <JCHEM_AVERAGE_NEUTRAL_MICROSPECIES_CHARGE>
7.581962832721254e-05

> <JCHEM_AVERAGE_POLARIZABILITY>
45.861167568795494

> <JCHEM_BIOAVAILABILITY>
1

> <JCHEM_DONOR_COUNT>
3

> <JCHEM_FORMAL_CHARGE>
0

> <JCHEM_GHOSE_FILTER>
1

> <JCHEM_IUPAC>
4-[6,6-dimethyl-4-oxo-3-(trifluoromethyl)-4,5,6,7-tetrahydro-1H-indazol-1-yl]-2-{[(1r,4r)-4-hydroxycyclohexyl]amino}benzamide

> <ALOGPS_LOGP>
3.32

> <JCHEM_LOGP>
3.3677722883333354

> <ALOGPS_LOGS>
-4.50

> <JCHEM_MDDR_LIKE_RULE>
0

> <JCHEM_NEUTRAL_CHARGE>
0

> <JCHEM_NUMBER_OF_RINGS>
4

> <JCHEM_PHYSIOLOGICAL_CHARGE>
0

> <JCHEM_PKA>
15.452605065899302

> <JCHEM_PKA_STRONGEST_ACIDIC>
14.85919264715555

> <JCHEM_PKA_STRONGEST_BASIC>
2.880237520887663

> <JCHEM_POLAR_SURFACE_AREA>
110.24000000000001

> <JCHEM_REFRACTIVITY>
119.3012

> <JCHEM_ROTATABLE_BOND_COUNT>
5

> <JCHEM_RULE_OF_FIVE>
1

> <ALOGPS_SOLUBILITY>
1.48e-02 g/l

> <JCHEM_TRADITIONAL_IUPAC>
6-cyclopropaneamido-N-[hydroxy(2H2)methyl]-4-{[2-methoxy-3-(1-methyl-1,2,4-triazol-3-yl)phenyl]amino}pyridazine-3-carboxamide

> <JCHEM_VEBER_RULE>
0

> <DRUGBANK_ID>
DB17055

> <DRUG_GROUPS>
investigational

> <GENERIC_NAME>
SNX-2112

> <SYNONYMS>
Benzamide, 2-((trans-4-hydroxycyclohexyl)amino)-4-(4,5,6,7-tetrahydro-6,6-dimethyl-4-oxo-3-(trifluoromethyl)-1h-indazol-1-yl)-

$$$$
