
  Mrv1652310211600092D          

 35 38  0  0  1  0            999 V2000
   -1.3738   -2.2495    0.0000 C   0  0  0  0  0  0  0  0  0  0  0  0
   -1.3738   -3.0745    0.0000 C   0  0  1  0  0  0  0  0  0  0  0  0
   -2.0883   -3.4870    0.0000 C   0  0  0  0  0  0  0  0  0  0  0  0
   -2.0883   -4.3120    0.0000 O   0  0  0  0  0  0  0  0  0  0  0  0
   -2.8027   -3.0745    0.0000 N   0  0  0  0  0  0  0  0  0  0  0  0
   -3.5172   -3.4870    0.0000 C   0  0  1  0  0  0  0  0  0  0  0  0
   -3.5172   -4.3120    0.0000 C   0  0  0  0  0  0  0  0  0  0  0  0
   -2.8027   -4.7245    0.0000 C   0  0  0  0  0  0  0  0  0  0  0  0
   -2.8027   -5.5495    0.0000 C   0  0  0  0  0  0  0  0  0  0  0  0
   -3.5172   -5.9620    0.0000 C   0  0  0  0  0  0  0  0  0  0  0  0
   -4.2317   -5.5495    0.0000 C   0  0  0  0  0  0  0  0  0  0  0  0
   -4.2317   -4.7245    0.0000 C   0  0  0  0  0  0  0  0  0  0  0  0
   -4.2317   -3.0745    0.0000 C   0  0  0  0  0  0  0  0  0  0  0  0
   -4.2317   -2.2495    0.0000 O   0  0  0  0  0  0  0  0  0  0  0  0
   -4.9462   -3.4870    0.0000 N   0  0  0  0  0  0  0  0  0  0  0  0
   -5.0324   -4.3075    0.0000 C   0  0  0  0  0  0  0  0  0  0  0  0
   -5.8394   -4.4790    0.0000 C   0  0  0  0  0  0  0  0  0  0  0  0
   -6.2519   -3.7645    0.0000 C   0  0  0  0  0  0  0  0  0  0  0  0
   -5.6998   -3.1514    0.0000 C   0  0  1  0  0  0  0  0  0  0  0  0
   -5.8714   -2.3445    0.0000 C   0  0  0  0  0  0  0  0  0  0  0  0
   -5.2583   -1.7924    0.0000 O   0  0  0  0  0  0  0  0  0  0  0  0
   -6.6560   -2.0895    0.0000 N   0  0  0  0  0  0  0  0  0  0  0  0
   -6.8275   -1.2826    0.0000 C   0  0  0  0  0  0  0  0  0  0  0  0
   -7.5812   -0.9470    0.0000 C   0  0  0  0  0  0  0  0  0  0  0  0
   -7.4949   -0.1265    0.0000 N   0  0  0  0  0  0  0  0  0  0  0  0
   -6.6880    0.0450    0.0000 N   0  0  0  0  0  0  0  0  0  0  0  0
   -6.2755   -0.6695    0.0000 S   0  0  0  0  0  0  0  0  0  0  0  0
   -8.2957   -1.3595    0.0000 C   0  0  0  0  0  0  0  0  0  0  0  0
   -8.2957   -2.1845    0.0000 C   0  0  0  0  0  0  0  0  0  0  0  0
   -9.0101   -2.5970    0.0000 C   0  0  0  0  0  0  0  0  0  0  0  0
   -9.7246   -2.1845    0.0000 C   0  0  0  0  0  0  0  0  0  0  0  0
   -9.7246   -1.3595    0.0000 C   0  0  0  0  0  0  0  0  0  0  0  0
   -9.0101   -0.9470    0.0000 C   0  0  0  0  0  0  0  0  0  0  0  0
   -0.6593   -3.4870    0.0000 N   0  0  0  0  0  0  0  0  0  0  0  0
    0.0551   -3.0745    0.0000 C   0  0  0  0  0  0  0  0  0  0  0  0
  2  1  1  6  0  0  0
  2  3  1  0  0  0  0
  3  4  2  0  0  0  0
  3  5  1  0  0  0  0
  6  5  1  1  0  0  0
  6  7  1  0  0  0  0
  7  8  1  0  0  0  0
  8  9  1  0  0  0  0
  9 10  1  0  0  0  0
 10 11  1  0  0  0  0
 11 12  1  0  0  0  0
  7 12  1  0  0  0  0
  6 13  1  0  0  0  0
 13 14  2  0  0  0  0
 13 15  1  0  0  0  0
 15 16  1  0  0  0  0
 16 17  1  0  0  0  0
 17 18  1  0  0  0  0
 18 19  1  0  0  0  0
 15 19  1  0  0  0  0
 19 20  1  1  0  0  0
 20 21  2  0  0  0  0
 20 22  1  0  0  0  0
 22 23  1  0  0  0  0
 23 24  2  0  0  0  0
 24 25  1  0  0  0  0
 25 26  2  0  0  0  0
 26 27  1  0  0  0  0
 23 27  1  0  0  0  0
 24 28  1  0  0  0  0
 28 29  2  0  0  0  0
 29 30  1  0  0  0  0
 30 31  2  0  0  0  0
 31 32  1  0  0  0  0
 32 33  2  0  0  0  0
 28 33  1  0  0  0  0
  2 34  1  0  0  0  0
 34 35  1  0  0  0  0
M  END
> <DATABASE_ID>
DB12380

> <DATABASE_NAME>
drugbank

> <SMILES>
CN[C@@H](C)C(=O)N[C@@H](C1CCCCC1)C(=O)N1CCC[C@H]1C(=O)NC1=C(N=NS1)C1=CC=CC=C1

> <INCHI_IDENTIFIER>
InChI=1S/C25H34N6O3S/c1-16(26-2)22(32)27-21(18-12-7-4-8-13-18)25(34)31-15-9-14-19(31)23(33)28-24-20(29-30-35-24)17-10-5-3-6-11-17/h3,5-6,10-11,16,18-19,21,26H,4,7-9,12-15H2,1-2H3,(H,27,32)(H,28,33)/t16-,19-,21-/m0/s1

> <INCHI_KEY>
WZRFLSDVFPIXOV-LRQRDZAKSA-N

> <FORMULA>
C25H34N6O3S

> <MOLECULAR_WEIGHT>
498.65

> <EXACT_MASS>
498.241310153

> <JCHEM_ACCEPTOR_COUNT>
6

> <JCHEM_ATOM_COUNT>
69

> <JCHEM_AVERAGE_POLARIZABILITY>
53.1447771618285

> <JCHEM_BIOAVAILABILITY>
1

> <JCHEM_DONOR_COUNT>
3

> <JCHEM_FORMAL_CHARGE>
0

> <JCHEM_GHOSE_FILTER>
0

> <JCHEM_IUPAC>
(2S)-1-[(2S)-2-cyclohexyl-2-[(2S)-2-(methylamino)propanamido]acetyl]-N-(4-phenyl-1,2,3-thiadiazol-5-yl)pyrrolidine-2-carboxamide

> <ALOGPS_LOGP>
1.74

> <JCHEM_LOGP>
2.764989584055584

> <ALOGPS_LOGS>
-4.78

> <JCHEM_MDDR_LIKE_RULE>
1

> <JCHEM_NUMBER_OF_RINGS>
4

> <JCHEM_PHYSIOLOGICAL_CHARGE>
1

> <JCHEM_PKA>
12.059450953674915

> <JCHEM_PKA_STRONGEST_ACIDIC>
9.509632685033026

> <JCHEM_PKA_STRONGEST_BASIC>
8.545101244318902

> <JCHEM_POLAR_SURFACE_AREA>
116.32000000000001

> <JCHEM_REFRACTIVITY>
135.0516

> <JCHEM_ROTATABLE_BOND_COUNT>
8

> <JCHEM_RULE_OF_FIVE>
1

> <ALOGPS_SOLUBILITY>
8.23e-03 g/l

> <JCHEM_TRADITIONAL_IUPAC>
(2S)-1-[(2S)-2-cyclohexyl-2-[(2S)-2-(methylamino)propanamido]acetyl]-N-(4-phenyl-1,2,3-thiadiazol-5-yl)pyrrolidine-2-carboxamide

> <JCHEM_VEBER_RULE>
0

> <DRUGBANK_ID>
DB12380

> <DRUG_GROUPS>
investigational

> <GENERIC_NAME>
GDC-0152

$$$$
