
  Mrv1652310201622572D          

 15 16  0  0  1  0            999 V2000
    1.4289   -4.1250    0.0000 C   0  0  0  0  0  0  0  0  0  0  0  0
    0.7145   -3.7125    0.0000 C   0  0  0  0  0  0  0  0  0  0  0  0
    0.7145   -2.8875    0.0000 C   0  0  0  0  0  0  0  0  0  0  0  0
    1.4289   -2.4750    0.0000 C   0  0  0  0  0  0  0  0  0  0  0  0
    2.1434   -2.8875    0.0000 C   0  0  0  0  0  0  0  0  0  0  0  0
    2.1434   -3.7125    0.0000 C   0  0  0  0  0  0  0  0  0  0  0  0
    1.4289   -1.6500    0.0000 C   0  0  2  0  0  0  0  0  0  0  0  0
    0.7145   -1.2375    0.0000 C   0  0  0  0  0  0  0  0  0  0  0  0
    0.7145   -0.4125    0.0000 C   0  0  0  0  0  0  0  0  0  0  0  0
    0.0000    0.0000    0.0000 C   0  0  0  0  0  0  0  0  0  0  0  0
    0.0000    0.8250    0.0000 C   0  0  0  0  0  0  0  0  0  0  0  0
    0.7145    1.2375    0.0000 C   0  0  0  0  0  0  0  0  0  0  0  0
    1.4289    0.8250    0.0000 C   0  0  0  0  0  0  0  0  0  0  0  0
    1.4289    0.0000    0.0000 N   0  0  0  0  0  0  0  0  0  0  0  0
    2.1434   -1.2375    0.0000 N   0  0  0  0  0  0  0  0  0  0  0  0
  1  2  2  0  0  0  0
  2  3  1  0  0  0  0
  3  4  2  0  0  0  0
  4  5  1  0  0  0  0
  5  6  2  0  0  0  0
  1  6  1  0  0  0  0
  4  7  1  0  0  0  0
  7  8  1  0  0  0  0
  8  9  1  0  0  0  0
  9 10  2  0  0  0  0
 10 11  1  0  0  0  0
 11 12  2  0  0  0  0
 12 13  1  0  0  0  0
 13 14  2  0  0  0  0
  9 14  1  0  0  0  0
  7 15  1  6  0  0  0
M  END
> <DATABASE_ID>
DB11889

> <DATABASE_NAME>
drugbank

> <SMILES>
N[C@@H](CC1=CC=CC=N1)C1=CC=CC=C1

> <INCHI_IDENTIFIER>
InChI=1S/C13H14N2/c14-13(11-6-2-1-3-7-11)10-12-8-4-5-9-15-12/h1-9,13H,10,14H2/t13-/m0/s1

> <INCHI_KEY>
FWUQWDCOOWEXRY-ZDUSSCGKSA-N

> <FORMULA>
C13H14N2

> <MOLECULAR_WEIGHT>
198.269

> <EXACT_MASS>
198.115698459

> <JCHEM_ACCEPTOR_COUNT>
2

> <JCHEM_ATOM_COUNT>
29

> <JCHEM_AVERAGE_POLARIZABILITY>
21.811394434143168

> <JCHEM_BIOAVAILABILITY>
1

> <JCHEM_DONOR_COUNT>
1

> <JCHEM_FORMAL_CHARGE>
0

> <JCHEM_GHOSE_FILTER>
1

> <JCHEM_IUPAC>
(1S)-1-phenyl-2-(pyridin-2-yl)ethan-1-amine

> <ALOGPS_LOGP>
1.88

> <JCHEM_LOGP>
1.9840666389999995

> <ALOGPS_LOGS>
-2.03

> <JCHEM_MDDR_LIKE_RULE>
0

> <JCHEM_NUMBER_OF_RINGS>
2

> <JCHEM_PHYSIOLOGICAL_CHARGE>
1

> <JCHEM_PKA_STRONGEST_BASIC>
9.30584223728521

> <JCHEM_POLAR_SURFACE_AREA>
38.91

> <JCHEM_REFRACTIVITY>
60.83450000000001

> <JCHEM_ROTATABLE_BOND_COUNT>
3

> <JCHEM_RULE_OF_FIVE>
1

> <ALOGPS_SOLUBILITY>
1.85e+00 g/l

> <JCHEM_TRADITIONAL_IUPAC>
(1S)-1-phenyl-2-(pyridin-2-yl)ethanamine

> <JCHEM_VEBER_RULE>
1

> <DRUGBANK_ID>
DB11889

> <DRUG_GROUPS>
investigational

> <GENERIC_NAME>
Lanicemine

> <SYNONYMS>
Lanicemine

$$$$
