
  Mrv1572001261616592D          

 28 32  0  0  1  0            999 V2000
   -2.1434   -0.4125    0.0000 C   0  0  0  0  0  0  0  0  0  0  0  0
    2.4454   -0.7145    0.0000 C   0  0  0  0  0  0  0  0  0  0  0  0
    3.2704   -0.7145    0.0000 C   0  0  0  0  0  0  0  0  0  0  0  0
   -0.9207    0.4125    0.0000 C   0  0  0  0  0  0  0  0  0  0  0  0
    1.4289    2.4750    0.0000 C   0  0  0  0  0  0  0  0  0  0  0  0
    1.4289    0.8250    0.0000 C   0  0  0  0  0  0  0  0  0  0  0  0
   -1.4289    0.8250    0.0000 C   0  0  0  0  0  0  0  0  0  0  0  0
    0.0000    0.0000    0.0000 C   0  0  0  0  0  0  0  0  0  0  0  0
    3.5724    1.2375    0.0000 C   0  0  0  0  0  0  0  0  0  0  0  0
    2.8579    0.0000    0.0000 C   0  0  0  0  0  0  0  0  0  0  0  0
   -0.7145   -0.4125    0.0000 C   0  0  1  0  0  0  0  0  0  0  0  0
   -0.7145    1.2375    0.0000 C   0  0  1  0  0  0  0  0  0  0  0  0
    2.1434    2.0625    0.0000 C   0  0  0  0  0  0  0  0  0  0  0  0
    3.5724    2.0625    0.0000 C   0  0  0  0  0  0  0  0  0  0  0  0
    0.7145    2.0625    0.0000 C   0  0  0  0  0  0  0  0  0  0  0  0
    2.1434    1.2375    0.0000 C   0  0  0  0  0  0  0  0  0  0  0  0
    0.7145    1.2375    0.0000 C   0  0  0  0  0  0  0  0  0  0  0  0
    2.8579    2.4750    0.0000 C   0  0  0  0  0  0  0  0  0  0  0  0
    4.2868    2.4750    0.0000 C   0  0  0  0  0  0  0  0  0  0  0  0
   -0.0000    2.4750    0.0000 F   0  0  0  0  0  0  0  0  0  0  0  0
   -1.4289   -0.0000    0.0000 N   0  0  0  0  0  0  0  0  0  0  0  0
    0.0000    0.8250    0.0000 N   0  0  0  0  0  0  0  0  0  0  0  0
    2.8579    0.8250    0.0000 N   0  0  0  0  0  0  0  0  0  0  0  0
    2.8579    3.3000    0.0000 O   0  0  0  0  0  0  0  0  0  0  0  0
    4.2868    3.3000    0.0000 O   0  0  0  0  0  0  0  0  0  0  0  0
    5.0013    2.0625    0.0000 O   0  0  0  0  0  0  0  0  0  0  0  0
   -0.7145   -1.2375    0.0000 H   0  0  0  0  0  0  0  0  0  0  0  0
   -0.7145    2.0625    0.0000 H   0  0  0  0  0  0  0  0  0  0  0  0
  3  2  1  0  0  0  0
 10  2  1  0  0  0  0
 10  3  1  0  0  0  0
 11  4  1  0  0  0  0
 11  8  1  0  0  0  0
 12  4  1  0  0  0  0
 12  7  1  0  0  0  0
 13  5  2  0  0  0  0
 14  9  2  0  0  0  0
 15  5  1  0  0  0  0
 16  6  2  0  0  0  0
 16 13  1  0  0  0  0
 17  6  1  0  0  0  0
 17 15  2  0  0  0  0
 18 13  1  0  0  0  0
 18 14  1  0  0  0  0
 19 14  1  0  0  0  0
 20 15  1  0  0  0  0
 21  1  1  0  0  0  0
 21  7  1  0  0  0  0
 21 11  1  0  0  0  0
 22  8  1  0  0  0  0
 22 12  1  0  0  0  0
 22 17  1  0  0  0  0
 23  9  1  0  0  0  0
 23 10  1  0  0  0  0
 23 16  1  0  0  0  0
 24 18  2  0  0  0  0
 25 19  2  0  0  0  0
 26 19  1  0  0  0  0
 11 27  1  6  0  0  0
 12 28  1  6  0  0  0
M  END
> <DATABASE_ID>
DB11393

> <DATABASE_NAME>
drugbank

> <SMILES>
[H][C@]12CN(C3=C(F)C=C4C(=O)C(=CN(C5CC5)C4=C3)C(O)=O)[C@]([H])(CN1C)C2

> <INCHI_IDENTIFIER>
InChI=1S/C19H20FN3O3/c1-21-7-12-4-11(21)8-22(12)17-6-16-13(5-15(17)20)18(24)14(19(25)26)9-23(16)10-2-3-10/h5-6,9-12H,2-4,7-8H2,1H3,(H,25,26)/t11-,12-/m0/s1

> <INCHI_KEY>
QMLVECGLEOSESV-RYUDHWBXSA-N

> <FORMULA>
C19H20FN3O3

> <MOLECULAR_WEIGHT>
357.385

> <EXACT_MASS>
357.148869679

> <JCHEM_ACCEPTOR_COUNT>
6

> <JCHEM_ATOM_COUNT>
46

> <JCHEM_AVERAGE_POLARIZABILITY>
36.60185005019139

> <JCHEM_BIOAVAILABILITY>
1

> <JCHEM_DONOR_COUNT>
1

> <JCHEM_FORMAL_CHARGE>
0

> <JCHEM_GHOSE_FILTER>
1

> <JCHEM_IUPAC>
1-cyclopropyl-6-fluoro-7-[(1S,4S)-5-methyl-2,5-diazabicyclo[2.2.1]heptan-2-yl]-4-oxo-1,4-dihydroquinoline-3-carboxylic acid

> <ALOGPS_LOGP>
0.33

> <JCHEM_LOGP>
0.7120464045629222

> <ALOGPS_LOGS>
-2.69

> <JCHEM_MDDR_LIKE_RULE>
0

> <JCHEM_NUMBER_OF_RINGS>
5

> <JCHEM_PHYSIOLOGICAL_CHARGE>
0

> <JCHEM_PKA_STRONGEST_ACIDIC>
5.6469007819165125

> <JCHEM_PKA_STRONGEST_BASIC>
6.730415665366812

> <JCHEM_POLAR_SURFACE_AREA>
64.09

> <JCHEM_REFRACTIVITY>
95.47089999999996

> <JCHEM_ROTATABLE_BOND_COUNT>
3

> <JCHEM_RULE_OF_FIVE>
1

> <ALOGPS_SOLUBILITY>
7.38e-01 g/l

> <JCHEM_TRADITIONAL_IUPAC>
danofloxacin

> <JCHEM_VEBER_RULE>
0

> <DRUGBANK_ID>
DB11393

> <DRUG_GROUPS>
experimental; vet_approved

> <GENERIC_NAME>
Danofloxacin

> <SYNONYMS>
Danofloxacin; Danofloxacine; Danofloxacino; Danofloxacinum

> <INTERNATIONAL_BRANDS>
Advocin

> <SALTS>
Danofloxacin mesylate

$$$$
