
  Mrv1909 11221903172D          

 45 48  0  0  0  0            999 V2000
   -5.3009   -0.4867    0.0000 O   0  0  0  0  0  0  0  0  0  0  0  0
   -5.3009    0.3382    0.0000 C   0  0  0  0  0  0  0  0  0  0  0  0
   -6.0154    0.7507    0.0000 C   0  0  1  0  0  0  0  0  0  0  0  0
   -6.0154    1.5757    0.0000 C   0  0  0  0  0  0  0  0  0  0  0  0
   -5.3009    1.9882    0.0000 C   0  0  0  0  0  0  0  0  0  0  0  0
   -4.5865    1.5757    0.0000 C   0  0  0  0  0  0  0  0  0  0  0  0
   -5.3009    2.8132    0.0000 C   0  0  0  0  0  0  0  0  0  0  0  0
   -4.5865    0.7507    0.0000 N   0  0  0  0  0  0  0  0  0  0  0  0
   -3.8720    0.3382    0.0000 C   0  0  0  0  0  0  0  0  0  0  0  0
   -3.1574    0.7507    0.0000 C   0  0  0  0  0  0  0  0  0  0  0  0
   -3.1574    1.5757    0.0000 O   0  0  0  0  0  0  0  0  0  0  0  0
   -2.4430    0.3382    0.0000 N   0  0  0  0  0  0  0  0  0  0  0  0
   -2.4430   -0.4867    0.0000 C   0  0  0  0  0  0  0  0  0  0  0  0
   -1.7286   -0.8992    0.0000 C   0  0  0  0  0  0  0  0  0  0  0  0
   -1.0141    0.3382    0.0000 C   0  0  0  0  0  0  0  0  0  0  0  0
   -1.7286    0.7507    0.0000 C   0  0  0  0  0  0  0  0  0  0  0  0
   -6.7299    0.3382    0.0000 N   0  0  0  0  0  0  0  0  0  0  0  0
   -7.4443    0.7507    0.0000 C   0  0  0  0  0  0  0  0  0  0  0  0
   -8.1588    0.3382    0.0000 N   0  0  0  0  0  0  0  0  0  0  0  0
   -7.4443    1.5757    0.0000 N   0  0  0  0  0  0  0  0  0  0  0  0
   -1.0141   -0.4867    0.0000 C   0  0  0  0  0  0  0  0  0  0  0  0
   -0.3467   -0.9716    0.0000 C   0  0  0  0  0  0  0  0  0  0  0  0
    0.4380   -0.7167    0.0000 C   0  0  0  0  0  0  0  0  0  0  0  0
    0.9229   -1.3841    0.0000 C   0  0  0  0  0  0  0  0  0  0  0  0
    0.4380   -2.0516    0.0000 N   0  0  0  0  0  0  0  0  0  0  0  0
   -0.3467   -1.7966    0.0000 N   0  0  0  0  0  0  0  0  0  0  0  0
   -1.0141   -2.2815    0.0000 C   0  0  0  0  0  0  0  0  0  0  0  0
    1.7479   -1.3841    0.0000 C   0  0  0  0  0  0  0  0  0  0  0  0
    2.1604   -0.6697    0.0000 C   0  0  0  0  0  0  0  0  0  0  0  0
    2.1604   -2.0986    0.0000 C   0  0  0  0  0  0  0  0  0  0  0  0
    1.7479   -2.8131    0.0000 Cl  0  0  0  0  0  0  0  0  0  0  0  0
    2.9854   -2.0986    0.0000 C   0  0  0  0  0  0  0  0  0  0  0  0
    3.3979   -2.8131    0.0000 Cl  0  0  0  0  0  0  0  0  0  0  0  0
    3.3979   -1.3841    0.0000 C   0  0  0  0  0  0  0  0  0  0  0  0
    2.9854   -0.6697    0.0000 C   0  0  0  0  0  0  0  0  0  0  0  0
    4.2229   -1.3841    0.0000 O   0  0  0  0  0  0  0  0  0  0  0  0
    4.6354   -0.6696    0.0000 C   0  0  0  0  0  0  0  0  0  0  0  0
    5.4604   -0.6696    0.0000 C   0  0  0  0  0  0  0  0  0  0  0  0
    5.9453   -1.3370    0.0000 C   0  0  0  0  0  0  0  0  0  0  0  0
    5.9453   -0.0022    0.0000 O   0  0  0  0  0  0  0  0  0  0  0  0
    6.7299   -1.0821    0.0000 C   0  0  0  0  0  0  0  0  0  0  0  0
    6.7299   -0.2571    0.0000 C   0  0  0  0  0  0  0  0  0  0  0  0
    7.4444    0.1553    0.0000 C   0  0  0  0  0  0  0  0  0  0  0  0
    7.4444    0.9803    0.0000 O   0  0  0  0  0  0  0  0  0  0  0  0
    8.1588   -0.2571    0.0000 O   0  0  0  0  0  0  0  0  0  0  0  0
  1  2  2  0  0  0  0
  2  3  1  0  0  0  0
  2  8  1  0  0  0  0
  3  4  1  0  0  0  0
  3 17  1  6  0  0  0
  4  5  1  0  0  0  0
  5  6  1  0  0  0  0
  5  7  1  0  0  0  0
  8  9  1  0  0  0  0
  9 10  1  0  0  0  0
 10 11  2  0  0  0  0
 10 12  1  0  0  0  0
 12 13  1  0  0  0  0
 12 16  1  0  0  0  0
 13 14  1  0  0  0  0
 14 21  1  0  0  0  0
 21 15  1  0  0  0  0
 15 16  1  0  0  0  0
 17 18  1  0  0  0  0
 18 19  1  0  0  0  0
 18 20  2  0  0  0  0
 22 21  1  0  0  0  0
 22 23  2  0  0  0  0
 22 26  1  0  0  0  0
 23 24  1  0  0  0  0
 24 25  2  0  0  0  0
 24 28  1  0  0  0  0
 25 26  1  0  0  0  0
 26 27  1  0  0  0  0
 28 29  2  0  0  0  0
 28 30  1  0  0  0  0
 29 35  1  0  0  0  0
 30 31  1  0  0  0  0
 30 32  2  0  0  0  0
 32 33  1  0  0  0  0
 32 34  1  0  0  0  0
 34 35  2  0  0  0  0
 34 36  1  0  0  0  0
 36 37  1  0  0  0  0
 37 38  1  0  0  0  0
 38 39  2  0  0  0  0
 38 40  1  0  0  0  0
 39 41  1  0  0  0  0
 40 42  1  0  0  0  0
 42 41  2  0  0  0  0
 42 43  1  0  0  0  0
 43 45  1  0  0  0  0
 43 44  2  0  0  0  0
M  END
> <DATABASE_ID>
DB02581

> <DATABASE_NAME>
drugbank

> <SMILES>
CC(C)C[C@@H](NC(N)=N)C(=O)NCC(=O)N1CCC(CC1)C1=CC(=NN1C)C1=CC=C(OCC2=CC=C(O2)C(O)=O)C(Cl)=C1Cl

> <INCHI_IDENTIFIER>
InChI=1S/C30H37Cl2N7O6/c1-16(2)12-21(36-30(33)34)28(41)35-14-25(40)39-10-8-17(9-11-39)22-13-20(37-38(22)3)19-5-7-23(27(32)26(19)31)44-15-18-4-6-24(45-18)29(42)43/h4-7,13,16-17,21H,8-12,14-15H2,1-3H3,(H,35,41)(H,42,43)(H4,33,34,36)/t21-/m1/s1

> <INCHI_KEY>
VNZHOIDQBPFEJU-OAQYLSRUSA-N

> <FORMULA>
C30H37Cl2N7O6

> <MOLECULAR_WEIGHT>
662.564

> <EXACT_MASS>
661.218237365

> <JCHEM_ACCEPTOR_COUNT>
9

> <JCHEM_ATOM_COUNT>
82

> <JCHEM_AVERAGE_POLARIZABILITY>
69.85555496648632

> <JCHEM_BIOAVAILABILITY>
0

> <JCHEM_DONOR_COUNT>
5

> <JCHEM_FORMAL_CHARGE>
0

> <JCHEM_GHOSE_FILTER>
0

> <JCHEM_IUPAC>
5-({4-[5-(1-{2-[(2R)-2-carbamimidamido-4-methylpentanamido]acetyl}piperidin-4-yl)-1-methyl-1H-pyrazol-3-yl]-2,3-dichlorophenoxy}methyl)furan-2-carboxylic acid

> <ALOGPS_LOGP>
3.38

> <JCHEM_LOGP>
1.2186541077251958

> <ALOGPS_LOGS>
-3.96

> <JCHEM_MDDR_LIKE_RULE>
1

> <JCHEM_NUMBER_OF_RINGS>
4

> <JCHEM_PHYSIOLOGICAL_CHARGE>
0

> <JCHEM_PKA>
12.91941833984253

> <JCHEM_PKA_STRONGEST_ACIDIC>
3.13429757441728

> <JCHEM_PKA_STRONGEST_BASIC>
11.362421538526863

> <JCHEM_POLAR_SURFACE_AREA>
188.79999999999998

> <JCHEM_REFRACTIVITY>
189.9223

> <JCHEM_ROTATABLE_BOND_COUNT>
12

> <JCHEM_RULE_OF_FIVE>
0

> <ALOGPS_SOLUBILITY>
7.18e-02 g/l

> <JCHEM_TRADITIONAL_IUPAC>
udp-6-sulfoquinovose

> <JCHEM_VEBER_RULE>
0

> <DRUGBANK_ID>
DB02581

> <SECONDARY_ACCESSION_NUMBERS>
EXPT01491

> <DRUG_GROUPS>
experimental

> <GENERIC_NAME>
N(2)-carbamimidoyl-N-{2-[4-(3-{4-[(5-carboxyfuran-2-yl)methoxy]-2,3-dichlorophenyl}-1-methyl-1H-pyrazol-5-yl)piperidin-1-yl]-2-oxoethyl}-D-leucinamide

$$$$
