
  Mrv1902 01311921522D          

139149  0  0  0  0            999 V2000
  -11.6343   -3.5310    0.0000 C   0  0  0  0  0  0  0  0  0  0  0  0
   -6.4781   -3.1251    0.0000 C   0  0  0  0  0  0  0  0  0  0  0  0
  -10.1006   -1.1195    0.0000 C   0  0  0  0  0  0  0  0  0  0  0  0
  -12.0476    3.5056    0.0000 C   0  0  0  0  0  0  0  0  0  0  0  0
   -3.4217   -3.2170    0.0000 C   0  0  0  0  0  0  0  0  0  0  0  0
  -13.4753    3.5668    0.0000 C   0  0  0  0  0  0  0  0  0  0  0  0
  -14.2421    2.3611    0.0000 C   0  0  0  0  0  0  0  0  0  0  0  0
   -1.1197   -2.3081    0.0000 C   0  0  0  0  0  0  0  0  0  0  0  0
   -1.5231   -0.1630    0.0000 C   0  0  0  0  0  0  0  0  0  0  0  0
   -3.5825    0.5601    0.0000 C   0  0  0  0  0  0  0  0  0  0  0  0
  -11.5989   -2.7067    0.0000 C   0  0  0  0  0  0  0  0  0  0  0  0
  -11.5282   -1.0582    0.0000 C   0  0  0  0  0  0  0  0  0  0  0  0
  -10.8321   -1.5010    0.0000 C   0  0  0  0  0  0  0  0  0  0  0  0
  -11.4929   -0.2340    0.0000 C   0  0  0  0  0  0  0  0  0  0  0  0
  -12.8498    1.4756    0.0000 C   0  0  0  0  0  0  0  0  0  0  0  0
  -12.1537    1.0329    0.0000 C   0  0  0  0  0  0  0  0  0  0  0  0
   -7.5970   -2.2364    0.0000 C   0  0  0  0  0  0  0  0  0  0  0  0
   -5.4445   -1.6606    0.0000 C   0  0  0  0  0  0  0  0  0  0  0  0
   -5.9347   -0.4190    0.0000 C   0  0  0  0  0  0  0  0  0  0  0  0
   -7.8428   -0.1354    0.0000 C   0  0  0  0  0  0  0  0  0  0  0  0
   -9.4045   -1.5622    0.0000 C   0  0  0  0  0  0  0  0  0  0  0  0
   -6.7810   -2.3577    0.0000 C   0  0  0  0  0  0  0  0  0  0  0  0
  -10.0653   -0.2952    0.0000 C   0  0  2  0  0  0  0  0  0  0  0  0
  -12.0830    2.6814    0.0000 C   0  0  2  0  0  0  0  0  0  0  0  0
   -3.3004   -2.4010    0.0000 C   0  0  1  0  0  0  0  0  0  0  0  0
  -10.8674   -2.3252    0.0000 C   0  0  1  0  0  0  0  0  0  0  0  0
   -5.2386   -0.8618    0.0000 C   0  0  2  0  0  0  0  0  0  0  0  0
   -6.2679   -1.7116    0.0000 C   0  0  1  0  0  0  0  0  0  0  0  0
   -7.9000   -1.4690    0.0000 C   0  0  2  0  0  0  0  0  0  0  0  0
   -6.5709   -0.9443    0.0000 C   0  0  2  0  0  0  0  0  0  0  0  0
   -7.3869   -0.8230    0.0000 C   0  0  2  0  0  0  0  0  0  0  0  0
   -8.6730   -1.1807    0.0000 C   0  0  1  0  0  0  0  0  0  0  0  0
   -8.6376   -0.3565    0.0000 C   0  0  0  0  0  0  0  0  0  0  0  0
  -12.8145    2.2998    0.0000 C   0  0  1  0  0  0  0  0  0  0  0  0
  -10.7614    0.1474    0.0000 C   0  0  1  0  0  0  0  0  0  0  0  0
   -9.4398   -2.3865    0.0000 C   0  0  0  0  0  0  0  0  0  0  0  0
  -11.4222    1.4144    0.0000 C   0  0  1  0  0  0  0  0  0  0  0  0
   -9.3338    0.0862    0.0000 C   0  0  0  0  0  0  0  0  0  0  0  0
   -2.5331   -2.0980    0.0000 C   0  0  1  0  0  0  0  0  0  0  0  0
   -2.4117   -1.2820    0.0000 C   0  0  2  0  0  0  0  0  0  0  0  0
   -3.0578   -0.7689    0.0000 C   0  0  2  0  0  0  0  0  0  0  0  0
   -3.8252   -1.0719    0.0000 C   0  0  1  0  0  0  0  0  0  0  0  0
  -13.5106    2.7426    0.0000 N   0  0  0  0  0  0  0  0  0  0  0  0
   -8.7437   -2.8292    0.0000 O   0  0  0  0  0  0  0  0  0  0  0  0
   -9.2984    0.9104    0.0000 O   0  0  0  0  0  0  0  0  0  0  0  0
   -1.8870   -2.6111    0.0000 O   0  0  0  0  0  0  0  0  0  0  0  0
   -1.6444   -0.9790    0.0000 O   0  0  0  0  0  0  0  0  0  0  0  0
   -2.9365    0.0470    0.0000 O   0  0  0  0  0  0  0  0  0  0  0  0
  -11.3868    2.2386    0.0000 O   0  0  0  0  0  0  0  0  0  0  0  0
   -3.9465   -1.8879    0.0000 O   0  0  0  0  0  0  0  0  0  0  0  0
  -10.1713   -2.7680    0.0000 O   0  0  0  0  0  0  0  0  0  0  0  0
   -4.4712   -0.5588    0.0000 O   0  0  0  0  0  0  0  0  0  0  0  0
  -10.7260    0.9716    0.0000 O   0  0  0  0  0  0  0  0  0  0  0  0
    3.7274   -3.5668    0.0000 C   0  0  0  0  0  0  0  0  0  0  0  0
    5.2610   -1.1553    0.0000 C   0  0  0  0  0  0  0  0  0  0  0  0
    3.3140    3.4698    0.0000 C   0  0  0  0  0  0  0  0  0  0  0  0
   11.9399   -3.2528    0.0000 C   0  0  0  0  0  0  0  0  0  0  0  0
    1.8864    3.5310    0.0000 C   0  0  0  0  0  0  0  0  0  0  0  0
    1.1195    2.3253    0.0000 C   0  0  0  0  0  0  0  0  0  0  0  0
   14.2421   -2.3439    0.0000 C   0  0  0  0  0  0  0  0  0  0  0  0
   13.8387   -0.1988    0.0000 C   0  0  0  0  0  0  0  0  0  0  0  0
   11.7791    0.5243    0.0000 C   0  0  0  0  0  0  0  0  0  0  0  0
    3.7627   -2.7425    0.0000 C   0  0  0  0  0  0  0  0  0  0  0  0
    3.8334   -1.0940    0.0000 C   0  0  0  0  0  0  0  0  0  0  0  0
    4.5295   -1.5368    0.0000 C   0  0  0  0  0  0  0  0  0  0  0  0
    3.8687   -0.2698    0.0000 C   0  0  0  0  0  0  0  0  0  0  0  0
    8.5806   -2.3935    0.0000 C   0  0  0  0  0  0  0  0  0  0  0  0
    7.7646   -2.2722    0.0000 C   0  0  0  0  0  0  0  0  0  0  0  0
    2.5118    1.4398    0.0000 C   0  0  0  0  0  0  0  0  0  0  0  0
    3.2080    0.9971    0.0000 C   0  0  0  0  0  0  0  0  0  0  0  0
    9.9172   -1.6964    0.0000 C   0  0  0  0  0  0  0  0  0  0  0  0
    9.4270   -0.4548    0.0000 C   0  0  0  0  0  0  0  0  0  0  0  0
    7.5188   -0.1712    0.0000 C   0  0  0  0  0  0  0  0  0  0  0  0
    5.9572   -1.5980    0.0000 C   0  0  0  0  0  0  0  0  0  0  0  0
    5.2964   -0.3310    0.0000 C   0  0  2  0  0  0  0  0  0  0  0  0
    3.2787    2.6456    0.0000 C   0  0  2  0  0  0  0  0  0  0  0  0
   12.0612   -2.4368    0.0000 C   0  0  1  0  0  0  0  0  0  0  0  0
    9.0937   -1.7474    0.0000 C   0  0  2  0  0  0  0  0  0  0  0  0
    4.4942   -2.3610    0.0000 C   0  0  1  0  0  0  0  0  0  0  0  0
   10.1231   -0.8976    0.0000 C   0  0  2  0  0  0  0  0  0  0  0  0
    7.4616   -1.5048    0.0000 C   0  0  2  0  0  0  0  0  0  0  0  0
    8.7908   -0.9801    0.0000 C   0  0  2  0  0  0  0  0  0  0  0  0
    7.9747   -0.8588    0.0000 C   0  0  2  0  0  0  0  0  0  0  0  0
    6.6887   -1.2165    0.0000 C   0  0  1  0  0  0  0  0  0  0  0  0
    6.7240   -0.3923    0.0000 C   0  0  0  0  0  0  0  0  0  0  0  0
    2.5472    2.2641    0.0000 C   0  0  1  0  0  0  0  0  0  0  0  0
    4.6002    0.1116    0.0000 C   0  0  1  0  0  0  0  0  0  0  0  0
    5.9218   -2.4222    0.0000 C   0  0  0  0  0  0  0  0  0  0  0  0
    3.9394    1.3786    0.0000 C   0  0  1  0  0  0  0  0  0  0  0  0
    6.0279    0.0504    0.0000 C   0  0  0  0  0  0  0  0  0  0  0  0
   12.8286   -2.1338    0.0000 C   0  0  1  0  0  0  0  0  0  0  0  0
   12.9499   -1.3178    0.0000 C   0  0  2  0  0  0  0  0  0  0  0  0
   12.3038   -0.8047    0.0000 C   0  0  2  0  0  0  0  0  0  0  0  0
   11.5365   -1.1077    0.0000 C   0  0  1  0  0  0  0  0  0  0  0  0
    1.8510    2.7068    0.0000 N   0  0  0  0  0  0  0  0  0  0  0  0
    6.6180   -2.8650    0.0000 O   0  0  0  0  0  0  0  0  0  0  0  0
    6.0632    0.8746    0.0000 O   0  0  0  0  0  0  0  0  0  0  0  0
   13.4746   -2.6469    0.0000 O   0  0  0  0  0  0  0  0  0  0  0  0
   13.7172   -1.0148    0.0000 O   0  0  0  0  0  0  0  0  0  0  0  0
   12.4253    0.0112    0.0000 O   0  0  0  0  0  0  0  0  0  0  0  0
    3.9748    2.2028    0.0000 O   0  0  0  0  0  0  0  0  0  0  0  0
   11.4152   -1.9237    0.0000 O   0  0  0  0  0  0  0  0  0  0  0  0
    5.1903   -2.8038    0.0000 O   0  0  0  0  0  0  0  0  0  0  0  0
   10.8904   -0.5946    0.0000 O   0  0  0  0  0  0  0  0  0  0  0  0
    4.6356    0.9358    0.0000 O   0  0  0  0  0  0  0  0  0  0  0  0
  -10.7967   -0.6767    0.0000 H   0  0  0  0  0  0  0  0  0  0  0  0
  -12.7791    3.1241    0.0000 H   0  0  0  0  0  0  0  0  0  0  0  0
   -2.5179   -2.6622    0.0000 H   0  0  0  0  0  0  0  0  0  0  0  0
  -11.5636   -1.8825    0.0000 H   0  0  0  0  0  0  0  0  0  0  0  0
   -4.6203   -1.4079    0.0000 H   0  0  0  0  0  0  0  0  0  0  0  0
   -5.8864   -2.4431    0.0000 H   0  0  0  0  0  0  0  0  0  0  0  0
   -8.2415   -2.2200    0.0000 H   0  0  0  0  0  0  0  0  0  0  0  0
   -7.0505   -0.2730    0.0000 H   0  0  0  0  0  0  0  0  0  0  0  0
   -7.2090   -0.0174    0.0000 H   0  0  0  0  0  0  0  0  0  0  0  0
   -8.9067   -1.9719    0.0000 H   0  0  0  0  0  0  0  0  0  0  0  0
  -13.5460    1.9183    0.0000 H   0  0  0  0  0  0  0  0  0  0  0  0
  -11.5670    0.3253    0.0000 H   0  0  0  0  0  0  0  0  0  0  0  0
  -11.7373    0.6519    0.0000 H   0  0  0  0  0  0  0  0  0  0  0  0
   -2.3680   -2.9063    0.0000 H   0  0  0  0  0  0  0  0  0  0  0  0
   -1.7657   -1.7951    0.0000 H   0  0  0  0  0  0  0  0  0  0  0  0
   -2.2904   -0.4660    0.0000 H   0  0  0  0  0  0  0  0  0  0  0  0
   -3.7038   -0.2558    0.0000 H   0  0  0  0  0  0  0  0  0  0  0  0
    4.5649   -0.7125    0.0000 H   0  0  0  0  0  0  0  0  0  0  0  0
    2.5825    3.0883    0.0000 H   0  0  0  0  0  0  0  0  0  0  0  0
   12.8438   -2.6980    0.0000 H   0  0  0  0  0  0  0  0  0  0  0  0
    9.4752   -2.4789    0.0000 H   0  0  0  0  0  0  0  0  0  0  0  0
    3.7981   -1.9183    0.0000 H   0  0  0  0  0  0  0  0  0  0  0  0
   10.7414   -1.4437    0.0000 H   0  0  0  0  0  0  0  0  0  0  0  0
    7.1201   -2.2558    0.0000 H   0  0  0  0  0  0  0  0  0  0  0  0
    8.3111   -0.3088    0.0000 H   0  0  0  0  0  0  0  0  0  0  0  0
    8.1527   -0.0532    0.0000 H   0  0  0  0  0  0  0  0  0  0  0  0
    6.4550   -2.0077    0.0000 H   0  0  0  0  0  0  0  0  0  0  0  0
    1.8157    1.8825    0.0000 H   0  0  0  0  0  0  0  0  0  0  0  0
    3.7947    0.2895    0.0000 H   0  0  0  0  0  0  0  0  0  0  0  0
    3.6243    0.6161    0.0000 H   0  0  0  0  0  0  0  0  0  0  0  0
   12.9938   -2.9421    0.0000 H   0  0  0  0  0  0  0  0  0  0  0  0
   13.5960   -1.8309    0.0000 H   0  0  0  0  0  0  0  0  0  0  0  0
   13.0713   -0.5018    0.0000 H   0  0  0  0  0  0  0  0  0  0  0  0
   11.6578   -0.2916    0.0000 H   0  0  0  0  0  0  0  0  0  0  0  0
 11  1  1  0  0  0  0
 13 12  1  0  0  0  0
 14 12  1  0  0  0  0
 16 15  1  0  0  0  0
 22  2  1  0  0  0  0
 22 17  2  0  0  0  0
 23  3  1  6  0  0  0
 24  4  1  1  0  0  0
 25  5  1  6  0  0  0
 26 11  1  1  0  0  0
 26 13  1  0  0  0  0
 27 18  1  0  0  0  0
 27 19  1  0  0  0  0
 28 18  1  0  0  0  0
 28 22  1  0  0  0  0
 29 17  1  0  0  0  0
 30 19  1  0  0  0  0
 30 28  1  0  0  0  0
 31 20  1  0  0  0  0
 31 29  1  0  0  0  0
 31 30  1  0  0  0  0
 32 21  1  0  0  0  0
 32 29  1  0  0  0  0
 33 20  2  0  0  0  0
 33 32  1  0  0  0  0
 34 15  1  0  0  0  0
 34 24  1  0  0  0  0
 35 14  1  0  0  0  0
 35 23  1  0  0  0  0
 36 21  1  0  0  0  0
 37 16  1  0  0  0  0
 38 23  1  0  0  0  0
 38 33  1  0  0  0  0
 39 25  1  0  0  0  0
 40 39  1  0  0  0  0
 41 40  1  0  0  0  0
 42 41  1  0  0  0  0
 43  6  1  0  0  0  0
 43  7  1  0  0  0  0
 34 43  1  6  0  0  0
 44 36  2  0  0  0  0
 45 38  2  0  0  0  0
 46  8  1  0  0  0  0
 39 46  1  1  0  0  0
 47  9  1  0  0  0  0
 40 47  1  6  0  0  0
 48 10  1  0  0  0  0
 41 48  1  6  0  0  0
 49 24  1  0  0  0  0
 49 37  1  0  0  0  0
 50 25  1  0  0  0  0
 50 42  1  0  0  0  0
 51 26  1  0  0  0  0
 51 36  1  0  0  0  0
 27 52  1  6  0  0  0
 42 52  1  1  0  0  0
 35 53  1  6  0  0  0
 37 53  1  1  0  0  0
 63 54  1  0  0  0  0
 65 64  1  0  0  0  0
 66 64  1  0  0  0  0
 68 67  2  0  0  0  0
 70 69  1  0  0  0  0
 75 55  1  6  0  0  0
 76 56  1  1  0  0  0
 77 57  1  6  0  0  0
 78 67  1  0  0  0  0
 78 71  1  0  0  0  0
 79 63  1  1  0  0  0
 79 65  1  0  0  0  0
 80 71  1  0  0  0  0
 80 72  1  0  0  0  0
 81 68  1  0  0  0  0
 82 72  1  0  0  0  0
 82 78  1  0  0  0  0
 83 73  1  0  0  0  0
 83 81  1  0  0  0  0
 83 82  1  0  0  0  0
 84 74  1  0  0  0  0
 84 81  1  0  0  0  0
 85 73  2  0  0  0  0
 85 84  1  0  0  0  0
 86 69  1  0  0  0  0
 86 76  1  0  0  0  0
 87 66  1  0  0  0  0
 87 75  1  0  0  0  0
 88 74  1  0  0  0  0
 89 70  1  0  0  0  0
 90 75  1  0  0  0  0
 90 85  1  0  0  0  0
 91 77  1  0  0  0  0
 92 91  1  0  0  0  0
 93 92  1  0  0  0  0
 94 93  1  0  0  0  0
 95 58  1  0  0  0  0
 95 59  1  0  0  0  0
 86 95  1  6  0  0  0
 96 88  2  0  0  0  0
 97 90  2  0  0  0  0
 98 60  1  0  0  0  0
 91 98  1  1  0  0  0
 99 61  1  0  0  0  0
 92 99  1  6  0  0  0
100 62  1  0  0  0  0
 93100  1  6  0  0  0
101 76  1  0  0  0  0
101 89  1  0  0  0  0
102 77  1  0  0  0  0
102 94  1  0  0  0  0
103 79  1  0  0  0  0
103 88  1  0  0  0  0
 80104  1  6  0  0  0
 94104  1  1  0  0  0
 87105  1  6  0  0  0
 89105  1  1  0  0  0
 23106  1  1  0  0  0
 24107  1  6  0  0  0
 25108  1  1  0  0  0
 26109  1  6  0  0  0
 27110  1  1  0  0  0
 28111  1  6  0  0  0
 29112  1  6  0  0  0
 30113  1  1  0  0  0
 31114  1  6  0  0  0
 32115  1  1  0  0  0
 34116  1  1  0  0  0
 35117  1  1  0  0  0
 37118  1  6  0  0  0
 39119  1  6  0  0  0
 40120  1  1  0  0  0
 41121  1  1  0  0  0
 42122  1  6  0  0  0
 75123  1  1  0  0  0
 76124  1  6  0  0  0
 77125  1  1  0  0  0
 78126  1  6  0  0  0
 79127  1  6  0  0  0
 80128  1  1  0  0  0
 81129  1  6  0  0  0
 82130  1  1  0  0  0
 83131  1  6  0  0  0
 84132  1  1  0  0  0
 86133  1  1  0  0  0
 87134  1  1  0  0  0
 89135  1  6  0  0  0
 91136  1  6  0  0  0
 92137  1  1  0  0  0
 93138  1  1  0  0  0
 94139  1  6  0  0  0
M  END
> <DATABASE_ID>
DB08823

> <DATABASE_NAME>
drugbank

> <SMILES>
[H][C@]1(C[C@@]2([H])C=C[C@@]3([H])[C@]4([H])CC(=O)O[C@@]([H])(CC)CCC[C@]([H])(O[C@@]5([H])CC[C@]([H])(N(C)C)[C@@]([H])(C)O5)[C@@]([H])(C)C(=O)C4=C[C@@]3([H])[C@]2([H])C1)O[C@]1([H])O[C@@]([H])(C)[C@]([H])(OC)[C@@]([H])(OC)[C@@]1([H])OC.[H][C@]1(C[C@@]2([H])C(C)=C[C@@]3([H])[C@]4([H])CC(=O)O[C@@]([H])(CC)CCC[C@]([H])(O[C@@]5([H])CC[C@]([H])(N(C)C)[C@@]([H])(C)O5)[C@@]([H])(C)C(=O)C4=C[C@@]3([H])[C@]2([H])C1)O[C@]1([H])O[C@@]([H])(C)[C@]([H])(OC)[C@@]([H])(OC)[C@@]1([H])OC

> <INCHI_IDENTIFIER>
InChI=1S/C42H67NO10.C41H65NO10/c1-11-26-13-12-14-35(53-37-16-15-34(43(6)7)24(4)49-37)23(3)38(45)33-20-31-29(32(33)21-36(44)51-26)17-22(2)28-18-27(19-30(28)31)52-42-41(48-10)40(47-9)39(46-8)25(5)50-42;1-10-26-12-11-13-34(52-36-17-16-33(42(5)6)23(3)48-36)22(2)37(44)32-20-30-28(31(32)21-35(43)50-26)15-14-25-18-27(19-29(25)30)51-41-40(47-9)39(46-8)38(45-7)24(4)49-41/h17,20,23-32,34-35,37,39-42H,11-16,18-19,21H2,1-10H3;14-15,20,22-31,33-34,36,38-41H,10-13,16-19,21H2,1-9H3/t23-,24-,25+,26+,27-,28+,29-,30-,31-,32+,34+,35+,37+,39+,40-,41-,42+;22-,23-,24+,25-,26+,27-,28-,29-,30-,31+,33+,34+,36+,38+,39-,40-,41+/m11/s1

> <INCHI_KEY>
JFLRKDZMHNBDQS-SGSTVUCESA-N

> <FORMULA>
C83H132N2O20

> <MOLECULAR_WEIGHT>
1477.963

> <EXACT_MASS>
1476.937344658

> <JCHEM_ACCEPTOR_COUNT>
10

> <JCHEM_ATOM_COUNT>
237

> <JCHEM_AVERAGE_POLARIZABILITY>
86.81766377205633

> <JCHEM_BIOAVAILABILITY>
0

> <JCHEM_DONOR_COUNT>
0

> <JCHEM_FORMAL_CHARGE>
0

> <JCHEM_GHOSE_FILTER>
0

> <JCHEM_IUPAC>
(2R,3aS,5aR,5bS,9S,13S,14R,16aS,16bR)-13-{[(2R,5S,6R)-5-(dimethylamino)-6-methyloxan-2-yl]oxy}-9-ethyl-14-methyl-2-{[(2R,3R,4R,5S,6S)-3,4,5-trimethoxy-6-methyloxan-2-yl]oxy}-1H,2H,3H,3aH,5aH,5bH,6H,7H,9H,10H,11H,12H,13H,14H,15H,16aH,16bH-as-indaceno[3,2-d]oxacyclododecane-7,15-dione; (2S,3aR,5aS,5bS,9S,13S,14R,16aS,16bS)-13-{[(2R,5S,6R)-5-(dimethylamino)-6-methyloxan-2-yl]oxy}-9-ethyl-4,14-dimethyl-2-{[(2R,3R,4R,5S,6S)-3,4,5-trimethoxy-6-methyloxan-2-yl]oxy}-1H,2H,3H,3aH,5aH,5bH,6H,7H,9H,10H,11H,12H,13H,14H,15H,16aH,16bH-as-indaceno[3,2-d]oxacyclododecane-7,15-dione

> <ALOGPS_LOGP>
4.25

> <JCHEM_LOGP>
5.843439882333334

> <ALOGPS_LOGS>
-5.49

> <JCHEM_MDDR_LIKE_RULE>
1

> <JCHEM_NUMBER_OF_RINGS>
12

> <JCHEM_PHYSIOLOGICAL_CHARGE>
1

> <JCHEM_PKA_STRONGEST_BASIC>
9.17398344959948

> <JCHEM_POLAR_SURFACE_AREA>
111.22000000000003

> <JCHEM_REFRACTIVITY>
201.86320000000003

> <JCHEM_ROTATABLE_BOND_COUNT>
18

> <JCHEM_RULE_OF_FIVE>
0

> <ALOGPS_SOLUBILITY>
2.40e-03 g/l

> <JCHEM_TRADITIONAL_IUPAC>
(1R,2S,6R,7S)-4-{[(1R,2R)-2-{[4-(1,2-benzothiazol-3-yl)piperazin-1-yl]methyl}cyclohexyl]methyl}-4-azatricyclo[5.2.1.0^{2,6}]decane-3,5-dione

> <JCHEM_VEBER_RULE>
0

> <DRUGBANK_ID>
DB08823

> <DRUG_GROUPS>
approved; investigational; vet_approved

> <GENERIC_NAME>
Spinosad

> <SYNONYMS>
Spinosad

> <PRODUCTS>
Natroba; Spinosad

> <INTERNATIONAL_BRANDS>
Success 

$$$$
