
  Mrv1652312151617372D          

  2  0  0  0  0  0            999 V2000
    0.4125    0.0000    0.0000 Cl  0  5  0  0  0  0  0  0  0  0  0  0
   -0.4125    0.0000    0.0000 N   0  3  0  0  0  0  0  0  0  0  0  0
M  CHG  2   1  -1   2   1
M  END
> <DATABASE_ID>
DB06767

> <DATABASE_NAME>
drugbank

> <SMILES>
[NH4+].[Cl-]

> <INCHI_IDENTIFIER>
InChI=1S/ClH.H3N/h1H;1H3

> <INCHI_KEY>
NLXLAEXVIDQMFP-UHFFFAOYSA-N

> <FORMULA>
ClH4N

> <MOLECULAR_WEIGHT>
53.49

> <EXACT_MASS>
53.0032268

> <JCHEM_ACCEPTOR_COUNT>
0

> <JCHEM_ATOM_COUNT>
6

> <JCHEM_AVERAGE_POLARIZABILITY>
2.3881688999999993

> <JCHEM_BIOAVAILABILITY>
1

> <JCHEM_DONOR_COUNT>
0

> <JCHEM_FORMAL_CHARGE>
0

> <JCHEM_GHOSE_FILTER>
0

> <JCHEM_IUPAC>
ammonium chloride

> <ALOGPS_LOGP>
-0.21

> <JCHEM_LOGP>
0.6123387216666667

> <ALOGPS_LOGS>
0.37

> <JCHEM_MDDR_LIKE_RULE>
0

> <JCHEM_NUMBER_OF_RINGS>
0

> <JCHEM_PHYSIOLOGICAL_CHARGE>
-1

> <JCHEM_PKA_STRONGEST_ACIDIC>
-7.000000000000001

> <JCHEM_POLAR_SURFACE_AREA>
0.0

> <JCHEM_REFRACTIVITY>
5.6156

> <JCHEM_ROTATABLE_BOND_COUNT>
0

> <JCHEM_RULE_OF_FIVE>
1

> <ALOGPS_SOLUBILITY>
1.24e+02 g/l

> <JCHEM_TRADITIONAL_IUPAC>
ammonium chloride

> <JCHEM_VEBER_RULE>
1

> <DRUGBANK_ID>
DB06767

> <DRUG_GROUPS>
approved; investigational; vet_approved

> <GENERIC_NAME>
Ammonium chloride

> <SYNONYMS>
Ammonium chloride; Ammoniumchlorid; Chlorammonic; Chlorid ammonia

> <PRODUCTS>
Acidax Inj 0.9% USP; Acididyn Tab; Ammonium Chloride; Babys Own Cough Syr; Balminil Codeine Night Time + Expectorant; Balminil Night-time; Bemosin Tab; Betasin Tab; Bronch Eze; Bronchodex Fort-DM Syr; Bronchozone Cough Syrup Certified; Calmylin; Calmylin #4 Syr; Cheracol Cough Syrup; Cough Syr W Codeine Diphenhyd HCl & Ammon Cl; Cough Syrup; Cough and Allergy Syrup With Codeine; DM Cough Syrup; DM Plus Cough Syrup; DM Syrup; Damylin Avec Codeine Sirop; Damylin With Codeine Syrup; Ecopp Long Acting Antibacterial Disinfectant; Ecopp Portable Virus Proection; Hycomine; Hycomine-S; Mathieu Cough Syrup; Pulmorex DM Syr; Pulmorex Expectorant Liq; Suppress Cough Syr W.cod.diphen.hcl Amm.chl.; Trialyn Syrup; Zypanax

$$$$
