
  Mrv1572004191603492D          

 21 23  0  0  0  0            999 V2000
    1.4289    0.0000    0.0000 C   0  0  0  0  0  0  0  0  0  0  0  0
    1.4289   -1.6500    0.0000 C   0  0  0  0  0  0  0  0  0  0  0  0
    2.8579   -1.6500    0.0000 C   0  0  0  0  0  0  0  0  0  0  0  0
    5.0013    1.2375    0.0000 C   0  0  0  0  0  0  0  0  0  0  0  0
    0.7145    1.2375    0.0000 C   0  0  0  0  0  0  0  0  0  0  0  0
    5.0013    2.0625    0.0000 C   0  0  0  0  0  0  0  0  0  0  0  0
    0.7145    2.0625    0.0000 C   0  0  0  0  0  0  0  0  0  0  0  0
    4.2868    0.8250    0.0000 C   0  0  0  0  0  0  0  0  0  0  0  0
    1.4289    0.8250    0.0000 C   0  0  0  0  0  0  0  0  0  0  0  0
    4.2868    2.4750    0.0000 C   0  0  0  0  0  0  0  0  0  0  0  0
    1.4289    2.4750    0.0000 C   0  0  0  0  0  0  0  0  0  0  0  0
    2.1434   -0.4125    0.0000 C   0  0  0  0  0  0  0  0  0  0  0  0
    3.5724    1.2375    0.0000 C   0  0  0  0  0  0  0  0  0  0  0  0
    2.1434    1.2375    0.0000 C   0  0  0  0  0  0  0  0  0  0  0  0
    3.5724    2.0625    0.0000 C   0  0  0  0  0  0  0  0  0  0  0  0
    2.1434    2.0625    0.0000 C   0  0  0  0  0  0  0  0  0  0  0  0
    2.8579    0.0000    0.0000 C   0  0  0  0  0  0  0  0  0  0  0  0
    2.1434   -1.2375    0.0000 N   0  0  0  0  0  0  0  0  0  0  0  0
    2.8579    0.8250    0.0000 N   0  0  0  0  0  0  0  0  0  0  0  0
    3.5724   -0.4125    0.0000 O   0  0  0  0  0  0  0  0  0  0  0  0
    2.8579    2.4750    0.0000 S   0  0  0  0  0  0  0  0  0  0  0  0
  6  4  2  0  0  0  0
  7  5  2  0  0  0  0
  8  4  1  0  0  0  0
  9  5  1  0  0  0  0
 10  6  1  0  0  0  0
 11  7  1  0  0  0  0
 12  1  1  0  0  0  0
 13  8  2  0  0  0  0
 14  9  2  0  0  0  0
 15 10  2  0  0  0  0
 15 13  1  0  0  0  0
 16 11  2  0  0  0  0
 16 14  1  0  0  0  0
 17 12  1  0  0  0  0
 18  2  1  0  0  0  0
 18  3  1  0  0  0  0
 18 12  1  0  0  0  0
 19 13  1  0  0  0  0
 19 14  1  0  0  0  0
 19 17  1  0  0  0  0
 20 17  2  0  0  0  0
 21 15  1  0  0  0  0
 21 16  1  0  0  0  0
M  END
> <DATABASE_ID>
DB13672

> <DATABASE_NAME>
drugbank

> <SMILES>
CC(N(C)C)C(=O)N1C2=CC=CC=C2SC2=CC=CC=C12

> <INCHI_IDENTIFIER>
InChI=1S/C17H18N2OS/c1-12(18(2)3)17(20)19-13-8-4-6-10-15(13)21-16-11-7-5-9-14(16)19/h4-12H,1-3H3

> <INCHI_KEY>
POZJNEBUHLZROM-UHFFFAOYSA-N

> <FORMULA>
C17H18N2OS

> <MOLECULAR_WEIGHT>
298.4

> <EXACT_MASS>
298.113984382

> <JCHEM_ACCEPTOR_COUNT>
2

> <JCHEM_ATOM_COUNT>
39

> <JCHEM_AVERAGE_POLARIZABILITY>
32.103319571894765

> <JCHEM_BIOAVAILABILITY>
1

> <JCHEM_DONOR_COUNT>
0

> <JCHEM_FORMAL_CHARGE>
0

> <JCHEM_GHOSE_FILTER>
1

> <JCHEM_IUPAC>
2-(dimethylamino)-1-(10H-phenothiazin-10-yl)propan-1-one

> <ALOGPS_LOGP>
3.21

> <JCHEM_LOGP>
3.4087470789999994

> <ALOGPS_LOGS>
-3.99

> <JCHEM_MDDR_LIKE_RULE>
0

> <JCHEM_NUMBER_OF_RINGS>
3

> <JCHEM_PHYSIOLOGICAL_CHARGE>
1

> <JCHEM_PKA_STRONGEST_ACIDIC>
17.211132032137108

> <JCHEM_PKA_STRONGEST_BASIC>
7.311398955522969

> <JCHEM_POLAR_SURFACE_AREA>
23.55

> <JCHEM_REFRACTIVITY>
88.36349999999999

> <JCHEM_ROTATABLE_BOND_COUNT>
2

> <JCHEM_RULE_OF_FIVE>
1

> <ALOGPS_SOLUBILITY>
3.03e-02 g/l

> <JCHEM_TRADITIONAL_IUPAC>
2-(dimethylamino)-1-(phenothiazin-10-yl)propan-1-one

> <JCHEM_VEBER_RULE>
1

> <DRUGBANK_ID>
DB13672

> <DRUG_GROUPS>
experimental

> <GENERIC_NAME>
Dimethylaminopropionylphenothiazine

$$$$
