
  Mrv1909 01022004262D          

 38 40  0  0  0  0            999 V2000
   -1.0895   -1.7970    0.0000 P   0  0  0  0  0  0  0  0  0  0  0  0
   -0.3750   -0.5595    0.0000 P   0  0  0  0  0  0  0  0  0  0  0  0
   -3.9474   -4.2720    0.0000 F   0  0  0  0  0  0  0  0  0  0  0  0
    1.1401    1.9108    0.0000 O   0  0  0  0  0  0  0  0  0  0  0  0
   -2.5184   -2.6220    0.0000 O   0  0  0  0  0  0  0  0  0  0  0  0
    1.9791   -0.0521    0.0000 O   0  0  0  0  0  0  0  0  0  0  0  0
    3.1800    1.2817    0.0000 O   0  0  0  0  0  0  0  0  0  0  0  0
   -1.0895   -2.6220    0.0000 O   0  0  0  0  0  0  0  0  0  0  0  0
    0.3394   -0.1470    0.0000 O   0  0  0  0  0  0  0  0  0  0  0  0
   -2.5184   -5.0970    0.0000 O   0  0  0  0  0  0  0  0  0  0  0  0
   -1.0895   -4.2720    0.0000 O   0  0  0  0  0  0  0  0  0  0  0  0
   -1.0895   -0.9720    0.0000 O   0  0  0  0  0  0  0  0  0  0  0  0
   -3.9474   -1.7970    0.0000 O   0  0  0  0  0  0  0  0  0  0  0  0
    3.5880    2.2548    0.0000 O   0  0  0  0  0  0  0  0  0  0  0  0
   -0.2645   -1.7970    0.0000 O   0  0  0  0  0  0  0  0  0  0  0  0
   -0.7875    0.1548    0.0000 O   0  0  0  0  0  0  0  0  0  0  0  0
   -1.9145   -1.7970    0.0000 O   0  0  0  0  0  0  0  0  0  0  0  0
    0.0374   -1.2740    0.0000 O   0  0  0  0  0  0  0  0  0  0  0  0
    3.2893    5.0970    0.0000 O   0  0  0  0  0  0  0  0  0  0  0  0
    2.2826    2.8361    0.0000 N   0  0  0  0  0  0  0  0  0  0  0  0
    3.4387    3.6759    0.0000 N   0  0  0  0  0  0  0  0  0  0  0  0
    1.8076    0.7548    0.0000 C   0  0  1  0  0  0  0  0  0  0  0  0
    2.3596    1.3679    0.0000 C   0  0  2  0  0  0  0  0  0  0  0  0
    1.0538    1.0904    0.0000 C   0  0  1  0  0  0  0  0  0  0  0  0
    1.9471    2.0823    0.0000 C   0  0  1  0  0  0  0  0  0  0  0  0
   -2.5184   -4.2720    0.0000 C   0  0  1  0  0  0  0  0  0  0  0  0
   -3.2328   -3.8595    0.0000 C   0  0  1  0  0  0  0  0  0  0  0  0
   -1.8039   -3.8595    0.0000 C   0  0  2  0  0  0  0  0  0  0  0  0
   -3.2328   -3.0345    0.0000 C   0  0  1  0  0  0  0  0  0  0  0  0
    0.3394    0.6779    0.0000 C   0  0  0  0  0  0  0  0  0  0  0  0
   -1.8039   -3.0345    0.0000 C   0  0  2  0  0  0  0  0  0  0  0  0
   -3.9474   -2.6220    0.0000 C   0  0  0  0  0  0  0  0  0  0  0  0
    3.1031    2.9223    0.0000 C   0  0  0  0  0  0  0  0  0  0  0  0
    1.7977    3.5035    0.0000 C   0  0  0  0  0  0  0  0  0  0  0  0
    2.1333    4.2571    0.0000 C   0  0  0  0  0  0  0  0  0  0  0  0
    2.9537    4.3434    0.0000 C   0  0  0  0  0  0  0  0  0  0  0  0
   -3.2328   -4.5195    0.0000 H   0  0  0  0  0  0  0  0  0  0  0  0
    3.9474    3.7294    0.0000 H   0  0  0  0  0  0  0  0  0  0  0  0
  1  8  1  0  0  0  0
  1 12  1  0  0  0  0
  1 15  1  0  0  0  0
  1 17  2  0  0  0  0
  2  9  1  0  0  0  0
  2 12  1  0  0  0  0
  2 16  1  0  0  0  0
  2 18  2  0  0  0  0
  3 27  1  0  0  0  0
  4 24  1  0  0  0  0
  4 25  1  0  0  0  0
  5 29  1  0  0  0  0
  5 31  1  0  0  0  0
 22  6  1  6  0  0  0
 23  7  1  6  0  0  0
 31  8  1  6  0  0  0
  9 30  1  0  0  0  0
 26 10  1  1  0  0  0
 28 11  1  6  0  0  0
 13 32  1  0  0  0  0
 14 33  2  0  0  0  0
 19 36  2  0  0  0  0
 25 20  1  1  0  0  0
 20 33  1  0  0  0  0
 20 34  1  0  0  0  0
 21 33  1  0  0  0  0
 21 36  1  0  0  0  0
 21 38  1  0  0  0  0
 22 23  1  0  0  0  0
 22 24  1  0  0  0  0
 23 25  1  0  0  0  0
 24 30  1  1  0  0  0
 26 27  1  0  0  0  0
 26 28  1  0  0  0  0
 27 29  1  0  0  0  0
 27 37  1  1  0  0  0
 28 31  1  0  0  0  0
 29 32  1  1  0  0  0
 34 35  2  0  0  0  0
 35 36  1  0  0  0  0
M  END
> <DATABASE_ID>
DB04097

> <DATABASE_NAME>
drugbank

> <SMILES>
[H]N1C(=O)C=CN([C@@H]2O[C@H](COP(O)(=O)OP(O)(=O)O[C@H]3O[C@H](CO)[C@@]([H])(F)[C@H](O)[C@H]3O)[C@@H](O)[C@H]2O)C1=O

> <INCHI_IDENTIFIER>
InChI=1S/C15H23FN2O16P2/c16-8-5(3-19)32-14(12(24)10(8)22)33-36(28,29)34-35(26,27)30-4-6-9(21)11(23)13(31-6)18-2-1-7(20)17-15(18)25/h1-2,5-6,8-14,19,21-24H,3-4H2,(H,26,27)(H,28,29)(H,17,20,25)/t5-,6-,8-,9-,10+,11-,12-,13-,14-/m1/s1

> <INCHI_KEY>
OAPPZHVTNHJVAL-JZMIEXBBSA-N

> <FORMULA>
C15H23FN2O16P2

> <MOLECULAR_WEIGHT>
568.2928

> <EXACT_MASS>
568.050683927

> <JCHEM_ACCEPTOR_COUNT>
13

> <JCHEM_ATOM_COUNT>
59

> <JCHEM_AVERAGE_NEUTRAL_MICROSPECIES_CHARGE>
-2.0019076045280713

> <JCHEM_AVERAGE_POLARIZABILITY>
44.87272941845306

> <JCHEM_BIOAVAILABILITY>
0

> <JCHEM_DONOR_COUNT>
8

> <JCHEM_FORMAL_CHARGE>
0

> <JCHEM_GHOSE_FILTER>
0

> <JCHEM_IUPAC>
{[(2R,3S,4R,5R)-5-(2,4-dioxo-1,2,3,4-tetrahydropyrimidin-1-yl)-3,4-dihydroxyoxolan-2-yl]methoxy}[({[(2R,3R,4R,5S,6R)-5-fluoro-3,4-dihydroxy-6-(hydroxymethyl)oxan-2-yl]oxy}(hydroxy)phosphoryl)oxy]phosphinic acid

> <ALOGPS_LOGP>
-0.97

> <JCHEM_LOGP>
-4.105516304666667

> <ALOGPS_LOGS>
-1.43

> <JCHEM_MDDR_LIKE_RULE>
1

> <JCHEM_NEUTRAL_CHARGE>
-2

> <JCHEM_NUMBER_OF_RINGS>
3

> <JCHEM_PHYSIOLOGICAL_CHARGE>
-2

> <JCHEM_PKA>
3.1763242349717475

> <JCHEM_PKA_STRONGEST_ACIDIC>
1.732598849480052

> <JCHEM_PKA_STRONGEST_BASIC>
-2.9865463647051342

> <JCHEM_POLAR_SURFACE_AREA>
271.30999999999995

> <JCHEM_REFRACTIVITY>
104.76369999999996

> <JCHEM_ROTATABLE_BOND_COUNT>
9

> <JCHEM_RULE_OF_FIVE>
0

> <ALOGPS_SOLUBILITY>
2.13e+01 g/l

> <JCHEM_TRADITIONAL_IUPAC>
3H,5H-pyrrolo[3,2-d]pyrimidin-4-one

> <JCHEM_VEBER_RULE>
0

> <DRUGBANK_ID>
DB04097

> <SECONDARY_ACCESSION_NUMBERS>
EXPT03174

> <DRUG_GROUPS>
experimental

> <GENERIC_NAME>
Uridine-5'-diphosphate-4-deoxy-4-fluoro-alpha-D-galactose

> <SYNONYMS>
UDP-4-fluoro-4-deoxy-alpha-D-glucose

$$$$
