
  Mrv1652306031609492D          

 28 30  0  0  0  0            999 V2000
   -5.0013    2.8875    0.0000 C   0  0  0  0  0  0  0  0  0  0  0  0
    1.4289    1.6500    0.0000 C   0  0  0  0  0  0  0  0  0  0  0  0
   -6.4302    5.3625    0.0000 C   0  0  0  0  0  0  0  0  0  0  0  0
   -0.0000   -0.8250    0.0000 C   0  0  0  0  0  0  0  0  0  0  0  0
   -6.4302    4.5375    0.0000 C   0  0  0  0  0  0  0  0  0  0  0  0
   -5.7158    5.7750    0.0000 C   0  0  0  0  0  0  0  0  0  0  0  0
    0.7145   -0.4125    0.0000 C   0  0  0  0  0  0  0  0  0  0  0  0
   -0.7145   -0.4125    0.0000 C   0  0  0  0  0  0  0  0  0  0  0  0
   -5.7158    4.1250    0.0000 C   0  0  0  0  0  0  0  0  0  0  0  0
   -5.0013    5.3625    0.0000 C   0  0  0  0  0  0  0  0  0  0  0  0
    0.7145    0.4125    0.0000 C   0  0  0  0  0  0  0  0  0  0  0  0
   -0.7145    0.4125    0.0000 C   0  0  0  0  0  0  0  0  0  0  0  0
   -1.4289    4.1250    0.0000 C   0  0  0  0  0  0  0  0  0  0  0  0
   -2.1434    2.8875    0.0000 C   0  0  0  0  0  0  0  0  0  0  0  0
   -2.1434    4.5375    0.0000 C   0  0  0  0  0  0  0  0  0  0  0  0
   -2.8579    3.3000    0.0000 C   0  0  0  0  0  0  0  0  0  0  0  0
   -0.7145    2.8875    0.0000 C   0  0  0  0  0  0  0  0  0  0  0  0
   -3.5724    4.5375    0.0000 C   0  0  0  0  0  0  0  0  0  0  0  0
   -5.0013    4.5375    0.0000 C   0  0  0  0  0  0  0  0  0  0  0  0
    0.0000    0.8250    0.0000 C   0  0  0  0  0  0  0  0  0  0  0  0
   -0.7145    2.0625    0.0000 C   0  0  0  0  0  0  0  0  0  0  0  0
   -4.2868    4.1250    0.0000 C   0  0  0  0  0  0  0  0  0  0  0  0
    0.0000    1.6500    0.0000 C   0  0  0  0  0  0  0  0  0  0  0  0
   -1.4289    3.3000    0.0000 N   0  0  0  0  0  0  0  0  0  0  0  0
   -2.8579    4.1250    0.0000 N   0  0  0  0  0  0  0  0  0  0  0  0
   -1.4289    1.6500    0.0000 O   0  0  0  0  0  0  0  0  0  0  0  0
   -4.2868    3.3000    0.0000 O   0  0  0  0  0  0  0  0  0  0  0  0
    0.7145    2.0625    0.0000 O   0  0  0  0  0  0  0  0  0  0  0  0
  5  3  2  0  0  0  0
  6  3  1  0  0  0  0
  7  4  2  0  0  0  0
  8  4  1  0  0  0  0
  9  5  1  0  0  0  0
 10  6  2  0  0  0  0
 11  7  1  0  0  0  0
 12  8  2  0  0  0  0
 15 13  1  0  0  0  0
 16 14  1  0  0  0  0
 19  9  2  0  0  0  0
 19 10  1  0  0  0  0
 20 11  2  0  0  0  0
 20 12  1  0  0  0  0
 21 17  1  0  0  0  0
 22 18  1  0  0  0  0
 22 19  1  0  0  0  0
 23 20  1  0  0  0  0
 23 21  1  0  0  0  0
 24 13  1  0  0  0  0
 24 14  1  0  0  0  0
 24 17  1  0  0  0  0
 25 15  1  0  0  0  0
 25 16  1  0  0  0  0
 25 18  1  0  0  0  0
 26 21  1  0  0  0  0
 27  1  1  0  0  0  0
 27 22  1  0  0  0  0
 28  2  1  0  0  0  0
 28 23  1  0  0  0  0
M  END
> <DATABASE_ID>
DB13564

> <DATABASE_NAME>
drugbank

> <SMILES>
COC(CN1CCN(CC(O)C(OC)C2=CC=CC=C2)CC1)C1=CC=CC=C1

> <INCHI_IDENTIFIER>
InChI=1S/C23H32N2O3/c1-27-22(19-9-5-3-6-10-19)18-25-15-13-24(14-16-25)17-21(26)23(28-2)20-11-7-4-8-12-20/h3-12,21-23,26H,13-18H2,1-2H3

> <INCHI_KEY>
VSTNNAYSCJQCQI-UHFFFAOYSA-N

> <FORMULA>
C23H32N2O3

> <MOLECULAR_WEIGHT>
384.52

> <EXACT_MASS>
384.241292898

> <JCHEM_ACCEPTOR_COUNT>
5

> <JCHEM_ATOM_COUNT>
60

> <JCHEM_AVERAGE_POLARIZABILITY>
43.707768305121625

> <JCHEM_BIOAVAILABILITY>
1

> <JCHEM_DONOR_COUNT>
1

> <JCHEM_FORMAL_CHARGE>
0

> <JCHEM_GHOSE_FILTER>
1

> <JCHEM_IUPAC>
1-methoxy-3-[4-(2-methoxy-2-phenylethyl)piperazin-1-yl]-1-phenylpropan-2-ol

> <ALOGPS_LOGP>
2.62

> <JCHEM_LOGP>
2.881483460666665

> <ALOGPS_LOGS>
-3.29

> <JCHEM_MDDR_LIKE_RULE>
1

> <JCHEM_NUMBER_OF_RINGS>
3

> <JCHEM_PHYSIOLOGICAL_CHARGE>
1

> <JCHEM_PKA_STRONGEST_ACIDIC>
13.724139728328048

> <JCHEM_PKA_STRONGEST_BASIC>
7.79019854661452

> <JCHEM_POLAR_SURFACE_AREA>
45.17

> <JCHEM_REFRACTIVITY>
112.65329999999999

> <JCHEM_ROTATABLE_BOND_COUNT>
9

> <JCHEM_RULE_OF_FIVE>
1

> <ALOGPS_SOLUBILITY>
1.98e-01 g/l

> <JCHEM_TRADITIONAL_IUPAC>
zipeprol

> <JCHEM_VEBER_RULE>
0

> <DRUGBANK_ID>
DB13564

> <DRUG_GROUPS>
experimental

> <GENERIC_NAME>
Zipeprol

> <SYNONYMS>
Zipeprol

$$$$
