
  Mrv1909 05201914502D          

 36 40  0  0  1  0            999 V2000
   -4.9320   -1.1552    0.0000 C   0  0  0  0  0  0  0  0  0  0  0  0
   -4.1375   -0.9327    0.0000 C   0  0  0  0  0  0  0  0  0  0  0  0
   -3.9330   -0.1335    0.0000 C   0  0  0  0  0  0  0  0  0  0  0  0
   -4.4593    0.5018    0.0000 N   0  0  0  0  0  0  0  0  0  0  0  0
   -4.0178    1.1987    0.0000 O   0  0  0  0  0  0  0  0  0  0  0  0
   -3.2185    0.9941    0.0000 C   0  0  0  0  0  0  0  0  0  0  0  0
   -2.5833    1.5205    0.0000 C   0  0  0  0  0  0  0  0  0  0  0  0
   -1.8098    1.2335    0.0000 C   0  0  0  0  0  0  0  0  0  0  0  0
   -3.1661    0.1708    0.0000 C   0  0  0  0  0  0  0  0  0  0  0  0
   -2.4692   -0.2707    0.0000 C   0  0  0  0  0  0  0  0  0  0  0  0
   -2.5032   -1.0951    0.0000 O   0  0  0  0  0  0  0  0  0  0  0  0
   -1.7384    0.1120    0.0000 O   0  0  0  0  0  0  0  0  0  0  0  0
   -1.0415   -0.3295    0.0000 C   0  0  1  0  0  0  0  0  0  0  0  0
   -1.0008   -1.1576    0.0000 C   0  0  0  0  0  0  0  0  0  0  0  0
   -1.6332   -1.6874    0.0000 C   0  0  0  0  0  0  0  0  0  0  0  0
   -0.1929   -1.3426    0.0000 C   0  0  0  0  0  0  0  0  0  0  0  0
    0.3261   -0.6574    0.0000 C   0  0  1  0  0  0  0  0  0  0  0  0
    0.7898   -1.4107    0.0000 C   0  0  2  0  0  0  0  0  0  0  0  0
    0.2915   -2.0682    0.0000 C   0  0  0  0  0  0  0  0  0  0  0  0
    1.6097   -1.6445    0.0000 C   0  0  0  0  0  0  0  0  0  0  0  0
    2.2721   -1.1201    0.0000 C   0  0  2  0  0  0  0  0  0  0  0  0
    2.2431   -0.2956    0.0000 C   0  0  2  0  0  0  0  0  0  0  0  0
    1.5837    0.2513    0.0000 C   0  0  2  0  0  0  0  0  0  0  0  0
    1.2746    1.0377    0.0000 C   0  0  0  0  0  0  0  0  0  0  0  0
    0.4853    1.3255    0.0000 C   0  0  0  0  0  0  0  0  0  0  0  0
    0.3879    2.1447    0.0000 C   0  0  0  0  0  0  0  0  0  0  0  0
   -0.3702    2.4700    0.0000 O   0  0  0  0  0  0  0  0  0  0  0  0
   -0.2167    0.8594    0.0000 C   0  0  1  0  0  0  0  0  0  0  0  0
   -0.9315    1.2713    0.0000 O   0  0  0  0  0  0  0  0  0  0  0  0
   -0.2695   -0.0102    0.0000 C   0  0  2  0  0  0  0  0  0  0  0  0
   -0.9411    0.4689    0.0000 O   0  0  0  0  0  0  0  0  0  0  0  0
    0.9424   -0.2150    0.0000 C   0  0  0  0  0  0  0  0  0  0  0  0
    1.4256   -0.8837    0.0000 O   0  0  0  0  0  0  0  0  0  0  0  0
    2.9716   -0.6827    0.0000 C   0  0  0  0  0  0  0  0  0  0  0  0
    3.6304   -0.1861    0.0000 C   0  0  0  0  0  0  0  0  0  0  0  0
    3.6636   -1.1319    0.0000 C   0  0  0  0  0  0  0  0  0  0  0  0
  1  2  1  0  0  0  0
  2  3  1  0  0  0  0
  3  4  2  0  0  0  0
  4  5  1  0  0  0  0
  5  6  1  0  0  0  0
  6  7  1  0  0  0  0
  7  8  1  0  0  0  0
  6  9  2  0  0  0  0
  3  9  1  0  0  0  0
  9 10  1  0  0  0  0
 10 11  2  0  0  0  0
 10 12  1  0  0  0  0
 13 12  1  6  0  0  0
 13 14  1  0  0  0  0
 14 15  1  0  0  0  0
 14 16  2  0  0  0  0
 17 16  1  0  0  0  0
 17 18  1  0  0  0  0
 18 19  1  1  0  0  0
 18 20  1  0  0  0  0
 21 20  1  6  0  0  0
 22 21  1  6  0  0  0
 22 23  1  0  0  0  0
 23 24  1  0  0  0  0
 24 25  2  0  0  0  0
 25 26  1  0  0  0  0
 26 27  1  0  0  0  0
 28 25  1  0  0  0  0
 28 29  1  6  0  0  0
 30 28  1  0  0  0  0
 30 13  1  0  0  0  0
 30 17  1  0  0  0  0
 30 31  1  6  0  0  0
 23 32  1  1  0  0  0
 17 32  1  1  0  0  0
 32 33  2  0  0  0  0
 22 34  1  0  0  0  0
 21 34  1  0  0  0  0
 34 35  1  0  0  0  0
 34 36  1  0  0  0  0
M  END
> <DATABASE_ID>
DB15109

> <DATABASE_NAME>
drugbank

> <SMILES>
CCC1=C(C(=O)O[C@H]2C(C)=C[C@@]34[C@H](C)C[C@@H]5[C@H]([C@H](C=C(CO)[C@@H](O)[C@]23O)C4=O)C5(C)C)C(CC)=NO1

> <INCHI_IDENTIFIER>
InChI=1S/C28H37NO7/c1-7-18-20(19(8-2)36-29-18)25(33)35-24-13(3)11-27-14(4)9-17-21(26(17,5)6)16(23(27)32)10-15(12-30)22(31)28(24,27)34/h10-11,14,16-17,21-22,24,30-31,34H,7-9,12H2,1-6H3/t14-,16+,17-,21+,22-,24+,27+,28+/m1/s1

> <INCHI_KEY>
GLIUZQUNUNICGS-XUBYYPQFSA-N

> <FORMULA>
C28H37NO7

> <MOLECULAR_WEIGHT>
499.604

> <EXACT_MASS>
499.257002535

> <JCHEM_ACCEPTOR_COUNT>
6

> <JCHEM_ATOM_COUNT>
73

> <JCHEM_AVERAGE_POLARIZABILITY>
53.90036974751118

> <JCHEM_BIOAVAILABILITY>
1

> <JCHEM_DONOR_COUNT>
3

> <JCHEM_FORMAL_CHARGE>
0

> <JCHEM_GHOSE_FILTER>
0

> <JCHEM_IUPAC>
(1S,4S,5S,6R,9S,10R,12R,14R)-5,6-dihydroxy-7-(hydroxymethyl)-3,11,11,14-tetramethyl-15-oxotetracyclo[7.5.1.0^{1,5}.0^{10,12}]pentadeca-2,7-dien-4-yl 3,5-diethyl-1,2-oxazole-4-carboxylate

> <ALOGPS_LOGP>
2.81

> <JCHEM_LOGP>
2.706503008666666

> <ALOGPS_LOGS>
-3.70

> <JCHEM_MDDR_LIKE_RULE>
1

> <JCHEM_NUMBER_OF_RINGS>
5

> <JCHEM_PHYSIOLOGICAL_CHARGE>
0

> <JCHEM_PKA>
14.015291778616229

> <JCHEM_PKA_STRONGEST_ACIDIC>
12.133633506841843

> <JCHEM_PKA_STRONGEST_BASIC>
0.4649909564078808

> <JCHEM_POLAR_SURFACE_AREA>
130.09

> <JCHEM_REFRACTIVITY>
134.183

> <JCHEM_ROTATABLE_BOND_COUNT>
6

> <JCHEM_RULE_OF_FIVE>
1

> <ALOGPS_SOLUBILITY>
1.00e-01 g/l

> <JCHEM_TRADITIONAL_IUPAC>
(2R)-14-fluoro-2-methyl-6,9,10,19-tetraazapentacyclo[14.2.1.0^{2,6}.0^{8,18}.0^{12,17}]nonadeca-1(18),8,12(17),13,15-pentaen-11-one

> <JCHEM_VEBER_RULE>
0

> <DRUGBANK_ID>
DB15109

> <DRUG_GROUPS>
investigational

> <GENERIC_NAME>
Ingenol disoxate

> <SYNONYMS>
Ingenol disoxate

$$$$
