
  Mrv1572004221604382D          

 17 17  0  0  0  0            999 V2000
   -1.4289   -4.1250    0.0000 C   0  0  0  0  0  0  0  0  0  0  0  0
    0.4125   -2.3645    0.0000 C   0  0  0  0  0  0  0  0  0  0  0  0
   -0.4125   -0.9355    0.0000 C   0  0  0  0  0  0  0  0  0  0  0  0
    1.4289   -0.0000    0.0000 C   0  0  0  0  0  0  0  0  0  0  0  0
    0.0000   -0.0000    0.0000 C   0  0  0  0  0  0  0  0  0  0  0  0
    1.4289    0.8250    0.0000 C   0  0  0  0  0  0  0  0  0  0  0  0
    0.0000    0.8250    0.0000 C   0  0  0  0  0  0  0  0  0  0  0  0
    0.7145   -1.2375    0.0000 C   0  0  0  0  0  0  0  0  0  0  0  0
   -1.4289   -3.3000    0.0000 C   0  0  0  0  0  0  0  0  0  0  0  0
    0.7145   -0.4125    0.0000 C   0  0  0  0  0  0  0  0  0  0  0  0
    0.7145    1.2375    0.0000 C   0  0  0  0  0  0  0  0  0  0  0  0
   -0.7145   -2.8875    0.0000 C   0  0  0  0  0  0  0  0  0  0  0  0
   -0.0000   -1.6500    0.0000 C   0  0  0  0  0  0  0  0  0  0  0  0
    0.7145    2.0625    0.0000 Cl  0  0  0  0  0  0  0  0  0  0  0  0
   -2.1434   -2.8875    0.0000 N   0  0  0  0  0  0  0  0  0  0  0  0
   -0.0000   -3.3000    0.0000 O   0  0  0  0  0  0  0  0  0  0  0  0
   -0.7145   -2.0625    0.0000 O   0  0  0  0  0  0  0  0  0  0  0  0
  6  4  1  0  0  0  0
  7  5  2  0  0  0  0
  9  1  1  0  0  0  0
 10  4  2  0  0  0  0
 10  5  1  0  0  0  0
 10  8  1  0  0  0  0
 11  6  2  0  0  0  0
 11  7  1  0  0  0  0
 12  9  1  0  0  0  0
 13  2  1  0  0  0  0
 13  3  1  0  0  0  0
 13  8  1  0  0  0  0
 14 11  1  0  0  0  0
 15  9  1  0  0  0  0
 16 12  2  0  0  0  0
 17 12  1  0  0  0  0
 17 13  1  0  0  0  0
M  END
> <DATABASE_ID>
DB13233

> <DATABASE_NAME>
drugbank

> <SMILES>
CC(N)C(=O)OC(C)(C)CC1=CC=C(Cl)C=C1

> <INCHI_IDENTIFIER>
InChI=1S/C13H18ClNO2/c1-9(15)12(16)17-13(2,3)8-10-4-6-11(14)7-5-10/h4-7,9H,8,15H2,1-3H3

> <INCHI_KEY>
FZSPJBYOKQPKCD-UHFFFAOYSA-N

> <FORMULA>
C13H18ClNO2

> <MOLECULAR_WEIGHT>
255.74

> <EXACT_MASS>
255.1026065

> <JCHEM_ACCEPTOR_COUNT>
2

> <JCHEM_ATOM_COUNT>
35

> <JCHEM_AVERAGE_POLARIZABILITY>
26.988806307759866

> <JCHEM_BIOAVAILABILITY>
1

> <JCHEM_DONOR_COUNT>
1

> <JCHEM_FORMAL_CHARGE>
0

> <JCHEM_GHOSE_FILTER>
1

> <JCHEM_IUPAC>
1-(4-chlorophenyl)-2-methylpropan-2-yl 2-aminopropanoate

> <ALOGPS_LOGP>
2.82

> <JCHEM_LOGP>
2.8815134330000003

> <ALOGPS_LOGS>
-3.83

> <JCHEM_MDDR_LIKE_RULE>
0

> <JCHEM_NUMBER_OF_RINGS>
1

> <JCHEM_PHYSIOLOGICAL_CHARGE>
1

> <JCHEM_PKA_STRONGEST_BASIC>
7.3387504704717115

> <JCHEM_POLAR_SURFACE_AREA>
52.32000000000001

> <JCHEM_REFRACTIVITY>
68.4958

> <JCHEM_ROTATABLE_BOND_COUNT>
5

> <JCHEM_RULE_OF_FIVE>
1

> <ALOGPS_SOLUBILITY>
3.77e-02 g/l

> <JCHEM_TRADITIONAL_IUPAC>
alaproclate

> <JCHEM_VEBER_RULE>
0

> <DRUGBANK_ID>
DB13233

> <DRUG_GROUPS>
experimental

> <GENERIC_NAME>
Alaproclate

> <SYNONYMS>
Alaproclate

> <SALTS>
Alaproclate hydrochloride

$$$$
