
  Mrv1572003291618452D          

  1  0  0  0  0  0            999 V2000
    0.0000    0.0000    0.0000 Ne  0  0  0  0  0  0  0  0  0  0  0  0
M  END
> <DATABASE_ID>
DB11589

> <DATABASE_NAME>
drugbank

> <SMILES>
[Ne]

> <INCHI_IDENTIFIER>
InChI=1S/Ne

> <INCHI_KEY>
GKAOGPIIYCISHV-UHFFFAOYSA-N

> <FORMULA>
Ne

> <MOLECULAR_WEIGHT>
20.1797

> <EXACT_MASS>
19.99244018

> <JCHEM_ACCEPTOR_COUNT>
0

> <JCHEM_ATOM_COUNT>
1

> <JCHEM_AVERAGE_POLARIZABILITY>
1.7784

> <JCHEM_BIOAVAILABILITY>
1

> <JCHEM_DONOR_COUNT>
0

> <JCHEM_FORMAL_CHARGE>
0

> <JCHEM_GHOSE_FILTER>
0

> <JCHEM_IUPAC>
neon

> <JCHEM_LOGP>
0.0

> <JCHEM_MDDR_LIKE_RULE>
0

> <JCHEM_NUMBER_OF_RINGS>
0

> <JCHEM_PHYSIOLOGICAL_CHARGE>
0

> <JCHEM_POLAR_SURFACE_AREA>
0.0

> <JCHEM_REFRACTIVITY>
0.0

> <JCHEM_ROTATABLE_BOND_COUNT>
0

> <JCHEM_RULE_OF_FIVE>
1

> <JCHEM_TRADITIONAL_IUPAC>
neon

> <JCHEM_VEBER_RULE>
1

> <DRUGBANK_ID>
DB11589

> <DRUG_GROUPS>
approved; investigational

> <GENERIC_NAME>
Neon

> <SYNONYMS>
Ne; Neon; neón; néon

> <PRODUCTS>
Co-NE-O2-N2 Mixture; Lung Diffusion Test Mix No Ne Co; Lung Diffusion Test Mixture

$$$$
