
  Mrv1718007121812182D          

  1  0  0  0  0  0            999 V2000
    0.0000    0.0000    0.0000 Mg  0  0  0  0  0  0  0  0  0  0  0  0
M  END
> <DATABASE_ID>
DB14513

> <DATABASE_NAME>
drugbank

> <SMILES>
[MgH2]

> <INCHI_IDENTIFIER>
InChI=1S/Mg.2H

> <INCHI_KEY>
RSHAOIXHUHAZPM-UHFFFAOYSA-N

> <FORMULA>
H2Mg

> <MOLECULAR_WEIGHT>
26.321

> <EXACT_MASS>
26.00069176

> <JCHEM_ACCEPTOR_COUNT>
0

> <JCHEM_ATOM_COUNT>
3

> <JCHEM_AVERAGE_POLARIZABILITY>
3.2661231093159966

> <JCHEM_BIOAVAILABILITY>
1

> <JCHEM_DONOR_COUNT>
0

> <JCHEM_FORMAL_CHARGE>
0

> <JCHEM_GHOSE_FILTER>
0

> <JCHEM_IUPAC>
magnesium dihydride

> <JCHEM_LOGP>
-1.4020000000000001

> <JCHEM_MDDR_LIKE_RULE>
0

> <JCHEM_NUMBER_OF_RINGS>
0

> <JCHEM_PHYSIOLOGICAL_CHARGE>
0

> <JCHEM_POLAR_SURFACE_AREA>
0.0

> <JCHEM_REFRACTIVITY>
1.6

> <JCHEM_ROTATABLE_BOND_COUNT>
0

> <JCHEM_RULE_OF_FIVE>
1

> <JCHEM_TRADITIONAL_IUPAC>
magnesium dihydride

> <JCHEM_VEBER_RULE>
1

> <DRUGBANK_ID>
DB14513

> <DRUG_GROUPS>
approved; experimental; investigational

> <GENERIC_NAME>
Magnesium

> <SYNONYMS>
Magnesio; MagnÃ©sium; Magnesium metallicum; Magnesium powder; Mg

> <PRODUCTS>
24 Multivitamins + Minerals; 50 Plus Multiple Vitamins & Minerals; Acetabolan III Vitamin and Mineral Supplement; Acetabolan-II Vitamin and Mineral Supplement; Acti Mag 250 Caplet; Acti-cal/mag 2:1 + Zinc and D Caplet; Actical Plus Calcium-magnesium-vitamin D3-silicon Chewable; Active Calcium Plus Magnesium, Vitamin D and Silicon; Actyform; Adult Formula 50+; Advanced B & T Formula; Alkadrenergy Tablets; Alphaligo; Avon Nutrivance Vitamin E Plus; B & J Formula Dietary Supplement; B.E.T. Complex; Body Rox; Bseltzer; C-Nate DHA; C. Vit-min Formula; C.H.V. Formula; Cal & Mag Hvp Chel Plus C Potass & Zinc Tab; Cal Mag Drink With Vitamin C; Cal Mag Plus - Tab; Cal-mag Citrate Zinc & Vitamin D Tablets; Cal-mag With Zinc & Vitamin D; Cal/mag 1:1 With Zinc and Vitamin D - Tablet; Cal/mag 2:1 With D; Cal/mag+d; Calcimag Tab; Calcium & Magnesium Citrate Plus D With Manganese, Potassium & Zinc; Calcium & Magnesium Plus Potassium & Zinc; Calcium & Magnesium Plus Potassium, Zinc, & Manganese; Calcium & Magnesium With Potassium & Zinc; Calcium & Magnesium With Potassium, Zinc, Manganese & Vitamin D; Calcium 400 With Magnesium - Pwr; Calcium Capsules With Magnesium and Vitamin D; Calcium Complex High Grade; Calcium Et Magnesium Plus Vitamine D/fe/zn; Calcium Et Magnesium Tab; Calcium Folic Acid Plus D Chewable; Calcium Magnesium 1000/500 - Tab; Calcium Magnesium Sulfur Silicon - Tab; Calcium With Mg Zn Mn Cu CR Si and Vit. C & D; Calcium and Magnesium 1:1 Plus Tablets; Calcium/magnesium Drink; Calcor; Calplus; Card-floe II Tab; Carti-aide Tab; Cavan-EC SOD DHA; Central-vite 18 Essential; Century Complete; Chela Calmag-100 Plus Zinc D3; Chela Calmag-300 Plus Zinc D3; Chelamins Plus Tab; Chelapro; Chelated Cal-mag(2:1)with Zn Vit.c and D; Chelated Cal/mag/zn With Vitamins; Chelated Calcium and Magnesium Tab; Chelated Magnesium 150mg - Tab; Chelated Magnesium Supplement - Tab 100mg; Chelated Magnesium Tab 125mg; Chelated Magnesium Tab 50mg; Chelazome Magnesium 100mg; Chewable Cal-mag Chocolate Flavour; Chewable Calcium & Magnesium 2:1 Tablet; Chewable Calcium Plus Magnesium and Minerals; Children's Chewable Multivitamins and Minerals; Children's Chewable Tab; Children's Chewable Vit and Min Tab; Classic Swiss One 10 Multivitamin and Mineral Tab; Complete Multivitamins and Minerals Tablets Timed Release; Complete One A Day Tab; Complete One-A-day - Tab; Daily Energy Brand Vitamin & Mineral Drink Mix; Diacomp - Cap; Doctor's Choice Brand for Men; Duet DHA Balanced; Envirocomplex; Enviroflex - Tab; Escavite; Essential Vitamins and Minerals; Extra Once A Day; Ez-flex; Fem - F.S. Formula; Fem - Pmt; Fem Time Tab; Folcaps Care One; Folet One; For-2; Formula B; Formula BP; Formula Cm; Formula Cn; Formula Cp Cap; Formula Est'ro Tab Support; Formula F L W; Formula Fe-vitamin and Mineral Tab; Formula Fm Vitamins & Minerals Tab; Formula Gly; Formula Hh; Formula Inf; Formula Js; Formula O-care Vitamin and Mineral Supplement; Formula O.C.; Formula Osg; Formula Statin Support; Fortifi-plus; Fusion Activator Formula Tab; Fusion PM Formula Tab; Glyco Lite Ect; Glyco Plus Ect; Glyco-aide Tab; Grand Master Formula Tab; H.W. Children's Chewable Multi Vit & Mineral; Hi Potency Multi Tab; Hvp Chelated Cal/mag With Zinc and Vitamins C and D; Hypo Vites Tab; Ifb; Innersource Tab; Isotonix Calcium Plus Formula; Isotonix Multitech Vitamin Mineral Supplemen; K.L. Vitamin-mineral; Kanga-V Multivitamins & Minerals; Kmg Plus; L Fac Tab; L.G.I.T.; L.I.P. Complex; Liquid Calcium Mg Phosphorus and Vit.d-3; Liquid Calcium and Magnesium With Vit.d; Liquid Opti-minplex +d; Longevit-E - Capsule; Luna Vitamin and Mineral Bar for Women; Mag/cal 1:1 Capsules W Vitamin D; Magnacal; Magnesium; Magnesium - 100mg Tab; Magnesium 50mg With Vitamin B6 Tab; Magnesium Cap; Magnesium Chelate 125mg; Magnesium Citramate Cap; Magnesium Complex 250mg; Magnesium Dietary Supplement; Magnesium Tab 100mg; Magnimin Tab 100mg; Magnorol Cap 20mg; Maintain Multiple Vitamin & Minerals; Master Key Multi Vitamin Multi Mineral Formula 2; MaxFe; Maximum Once A Day; Maxine Vitamin and Mineral Supplement; Maxum Multi-vite; Mega Multiple Minerals; Mega Plex III - Pck; Mega Plex IV - Pck; Mega-vim 75 With Beta-carotene - Tablets; Men's; Men's 50+; Men's Biomultiple Vitamin and Mineral Supplement; Meth-X Vitamin and Mineral Supplement; Milltrium Senior Vitamin and Mineral Supplement; Mineral Support; Mineralex; Mnps Formula Supplement; Moms Choice Rx; Multi #2; Multi Cal Mag Liquid; Multi Flow Tablets; Multi II IV Vi Tab; Multi Mega Minerals With Vitamin D; Multi Plex I - Tab; Multi Plex II - Tab; Multi Spectrum - Tablet; Multi Tabs; Multi Vitamin & Minerals; Multi Vitamin - Mineral; Multi Vitamins & Minerals; Multi-actin; Multi-mins Minerals; Multi-phyto Capsules; Multi-vitamins With Minerals; Multicaps; Multimineral Chelates; Multimineral Tablets; Multiminerals; Multipack II; Multiple Mineral Liquid; Multiple Minerals; Multitabs; Multivitamin & Minerals (iron Free); Multivitamin & Multimineral; Multivitamines Et Mineraux Reguliers / Regular Multivitamins and Minerals; Multivitamins and Minerals - Complete; Multivitamins and Minerals Tablets; Multivitamins and Minerals With Betacarotene Tablets; Multivitamins and Minerals for Men; Multivitamins and Minerals for Women; Multivitamins and Multiminerals Formula Regular Tablet; Multra Plex; Multra With Iron; N.U.T. Complex; NMC Magma Mineral Pack; Nata Komplete; Natural Liquid Mineral Supplement; Natural Source Spectrum With Beta Carotene; Nitro Vites - Tab; Nutra Boost; Nutra-clear; Nutri-chem Cal Mag; Nutri-chem Calcium Magnesium With D and Zinc; Nutrilite Double X; O-Cal FA multivitamin; O-Cal Prenatal Vitamin; Olympian Multi Vit Plus Minerals Tab; Omega-3 Rx Complete; One A Day Advance Adults; One A Day Advance Adults 50+; One A Day Multiple Vit W Minerals; One A Day Tab; One Daily Vitamin and Mineral Dietary Supplement; One Per Day Vitamin and Mineral Dietary Supplement; Only One - Tablet; Osteo Factors; Osteo Formula; Osteo Formula Tab; Osteo Regime; Osteo Tablets; Osteo-force; Osteo-life; Osteoligo; Osteoshield; P.R.O. Complex; Phytesium Liq 10.24mg/ml; Pnv-dha; Port A Mins Super Cal-mag 300/150 With Vitamin D3; Port A Mins Super Cal-mag 600/300; Port A Mins Super Magnesium 188; Port A Mins Super Magnesium 375; Powertech Vitamin and Mineral Supplement; Premel; Premium Prenatal; Prenara; Prenatal Formula Tab; Prenatal Vi-min; Pro Pcos Citrus; Protect Cardio AF; Protect Plus SO 60; Q.T. #4 Vitamin and Mineral Dietary Supplement; Q.T. Vitamin and Mineral Drink Mix; RE FAC-x; Reaphirm Plant Source DHA; Relnate DHA; Revit Multi-vitamins and Minerals; Revitalize Multi-vitamin and Mineral Complex; Right Choice P.M. Multi Formula - Caplet; Rocky Mountain Multiple Vit and Min Mega Tab; Select OB; Senior Multi One; Spectra 301 Vitamin and Mineral Supp; Spectrum 2 Cap; Spectrum Performa Multivitamins and Minerals Tablets; Strovite Forte Caplet; Super Cal Mag Plus; Super Kids Chewable Multivitamin Multimineral (chewable Tablets); Super Multi; Super Vita Vim Multivitamins and Minerals; Super Vita-vim With Beta-carotene - Tab; Supplements De Vitamines Et Mineraux; Swical D-M - Tab; Swical Extra-fort; Swical-energy 3e Age; Swical-multi; Swiss One; Swiss One Multi Vit & Chel Min Tab; Swiss One Multivitamin and Mineral Caplet; Swiss Total One; T-PA Cap; TL-Fluorivite; Timed Release Vita-vim Srt; Total Living Concepts Formula One - Tab; Tri-mins - Cap; Twin G.F. Powder; Twin G.F. Powder Vanilla Flavor; Twin Opti Pwr; Ultimate Tab; Usana Calmag Plus Tablets - Tab; Usana Multimineral Tablets; Usana Multimineral Tablets - Tab; Usana Optimizer Actical Plus Calcium-magnesium-vitamin D3-silicon Tablets; V & M Vitamin and Mineral Supplement; VIL-Rx; Vc II; Vege 1 Daily Tab; Vege Swiss One Multivitamin W Chel Mins Tab; Vimeral Tab; Vita Balance 2000; Vita Plex Tab; Vita Vim Multivitamins and Minerals Tab; Vita-vim - Tab; Vitafol Fe Plus; Vitafol OB Caplet; Vitafol One; Vitafol Plus; Vitafol-OB Plus DHA Prenatal Supplement Plus DHA; Vitalife - Capsule; Vitality Brand Calcium Plus Tab; Vitaplex; Vtb Vitamin and Mineral Supplement; Vyo Cylate - Pwr; Women's Biomultiple Vitamin and Mineral Supplement; Women's Change Formula; Z-force Vitamin and Mineral Supplement; Z-mass PM Vitamin and Mineral Supplement

$$$$
