
  Mrv1909 02062023042D          

 58 66  0  0  0  0            999 V2000
   -1.9829    0.2196    0.0000 C   0  0  2  0  0  0  0  0  0  0  0  0
   -2.6922    0.6489    0.0000 C   0  0  0  0  0  0  0  0  0  0  0  0
   -2.6922    1.4594    0.0000 C   0  0  0  0  0  0  0  0  0  0  0  0
   -4.0525    1.4594    0.0000 C   0  0  0  0  0  0  0  0  0  0  0  0
   -4.7426    1.8455    0.0000 C   0  0  0  0  0  0  0  0  0  0  0  0
   -5.4132    1.4594    0.0000 C   0  0  0  0  0  0  0  0  0  0  0  0
   -5.4132    0.6827    0.0000 C   0  0  0  0  0  0  0  0  0  0  0  0
   -4.7426    0.2919    0.0000 C   0  0  0  0  0  0  0  0  0  0  0  0
   -4.0525    0.6827    0.0000 C   0  0  0  0  0  0  0  0  0  0  0  0
   -3.3771    0.2919    0.0000 N   0  0  0  0  0  0  0  0  0  0  0  0
   -3.4592    1.8937    0.0000 C   0  0  0  0  0  0  0  0  0  0  0  0
   -3.4592    2.7621    0.0000 C   0  0  0  0  0  0  0  0  0  0  0  0
   -2.0504    2.7621    0.0000 N   0  0  0  0  0  0  0  0  0  0  0  0
   -2.0504    1.8985    0.0000 C   0  0  0  0  0  0  0  0  0  0  0  0
   -1.2640    1.5559    0.0000 C   0  0  2  0  0  0  0  0  0  0  0  0
   -1.2640    0.6683    0.0000 C   0  0  0  0  0  0  0  0  0  0  0  0
   -0.5693    1.9468    0.0000 C   0  0  0  0  0  0  0  0  0  0  0  0
   -0.5693    2.8200    0.0000 C   0  0  1  0  0  0  0  0  0  0  0  0
   -1.2882    3.2203    0.0000 C   0  0  0  0  0  0  0  0  0  0  0  0
   -0.1254    3.5099    0.0000 O   0  0  0  0  0  0  0  0  0  0  0  0
    0.2074    2.4968    0.0000 C   0  0  0  0  0  0  0  0  0  0  0  0
    0.8636    3.0081    0.0000 C   0  0  0  0  0  0  0  0  0  0  0  0
   -0.4349    1.0772    0.0000 H   0  0  0  0  0  0  0  0  0  0  0  0
   -0.0868   -0.8369    0.0000 C   0  0  0  0  0  0  0  0  0  0  0  0
    0.6078   -0.4849    0.0000 C   0  0  0  0  0  0  0  0  0  0  0  0
    1.3026   -0.8610    0.0000 C   0  0  0  0  0  0  0  0  0  0  0  0
    2.6390   -0.8610    0.0000 C   0  0  1  0  0  0  0  0  0  0  0  0
    2.6390   -1.6524    0.0000 C   0  0  2  0  0  0  0  0  0  0  0  0
    3.2952   -2.1590    0.0000 C   0  0  2  0  0  0  0  0  0  0  0  0
    3.8258   -2.6945    0.0000 C   0  0  0  0  0  0  0  0  0  0  0  0
    4.5448   -2.6945    0.0000 O   0  0  0  0  0  0  0  0  0  0  0  0
    3.7414   -3.5099    0.0000 N   0  0  0  0  0  0  0  0  0  0  0  0
    2.6559   -3.1745    0.0000 O   0  0  0  0  0  0  0  0  0  0  0  0
    4.0912   -1.7392    0.0000 C   0  0  1  0  0  0  0  0  0  0  0  0
    4.0912   -0.8369    0.0000 C   0  0  1  0  0  0  0  0  0  0  0  0
    3.3820   -0.4557    0.0000 C   0  0  2  0  0  0  0  0  0  0  0  0
    3.3820    0.3691    0.0000 N   0  0  0  0  0  0  0  0  0  0  0  0
    4.1153    0.7985    0.0000 C   0  0  0  0  0  0  0  0  0  0  0  0
    4.8198    0.3691    0.0000 C   0  0  0  0  0  0  0  0  0  0  0  0
    4.8198   -0.5234    0.0000 C   0  0  0  0  0  0  0  0  0  0  0  0
    1.9540    0.3691    0.0000 C   0  0  0  0  0  0  0  0  0  0  0  0
    1.9540   -0.3738    0.0000 C   0  0  0  0  0  0  0  0  0  0  0  0
    3.3820   -1.1940    0.0000 H   0  0  0  0  0  0  0  0  0  0  0  0
    4.9404   -1.1698    0.0000 C   0  0  0  0  0  0  0  0  0  0  0  0
    5.4132   -0.7790    0.0000 C   0  0  0  0  0  0  0  0  0  0  0  0
    4.9065   -2.2119    0.0000 O   0  0  0  0  0  0  0  0  0  0  0  0
    2.4943   -2.2675    0.0000 H   0  0  0  0  0  0  0  0  0  0  0  0
    2.0745   -1.9514    0.0000 N   0  0  0  0  0  0  0  0  0  0  0  0
    1.3026   -1.6379    0.0000 C   0  0  0  0  0  0  0  0  0  0  0  0
    0.6078   -2.0286    0.0000 C   0  0  0  0  0  0  0  0  0  0  0  0
   -0.0868   -1.6524    0.0000 C   0  0  0  0  0  0  0  0  0  0  0  0
   -0.7961   -2.0914    0.0000 O   0  0  0  0  0  0  0  0  0  0  0  0
   -1.5680   -1.7440    0.0000 C   0  0  0  0  0  0  0  0  0  0  0  0
    1.7127   -2.7016    0.0000 C   0  0  0  0  0  0  0  0  0  0  0  0
   -1.9829   -0.8031    0.0000 C   0  0  0  0  0  0  0  0  0  0  0  0
   -1.3219   -1.1311    0.0000 O   0  0  0  0  0  0  0  0  0  0  0  0
   -2.5183   -1.3386    0.0000 O   0  0  0  0  0  0  0  0  0  0  0  0
   -3.3433   -0.8851    0.0000 C   0  0  0  0  0  0  0  0  0  0  0  0
  2  1  1  0  0  0  0
  3  2  2  0  0  0  0
  4  3  1  0  0  0  0
  5  4  1  0  0  0  0
  6  5  2  0  0  0  0
  7  6  1  0  0  0  0
  7  8  2  0  0  0  0
  8  9  1  0  0  0  0
  9 10  1  0  0  0  0
 10  2  1  0  0  0  0
  9  4  2  0  0  0  0
 11  3  1  0  0  0  0
 12 11  1  0  0  0  0
 12 13  1  0  0  0  0
 13 14  1  0  0  0  0
 14 15  1  0  0  0  0
 15 16  1  0  0  0  0
 16  1  1  0  0  0  0
 17 15  1  0  0  0  0
 18 17  1  0  0  0  0
 19 18  1  0  0  0  0
 19 13  1  0  0  0  0
 18 20  1  1  0  0  0
 18 21  1  6  0  0  0
 22 21  1  0  0  0  0
 15 23  1  6  0  0  0
  1 24  1  6  0  0  0
 25 24  1  0  0  0  0
 26 25  2  0  0  0  0
 27 26  1  0  0  0  0
 28 27  1  0  0  0  0
 29 28  1  0  0  0  0
 29 30  1  6  0  0  0
 31 30  2  0  0  0  0
 32 30  1  0  0  0  0
 29 33  1  1  0  0  0
 34 29  1  0  0  0  0
 34 35  1  0  0  0  0
 35 36  1  0  0  0  0
 36 27  1  0  0  0  0
 37 36  1  0  0  0  0
 38 37  1  0  0  0  0
 39 38  1  0  0  0  0
 39 40  2  0  0  0  0
 40 35  1  0  0  0  0
 41 37  1  0  0  0  0
 41 42  1  0  0  0  0
 27 42  1  1  0  0  0
 36 43  1  6  0  0  0
 35 44  1  6  0  0  0
 45 44  1  0  0  0  0
 34 46  1  1  0  0  0
 28 47  1  1  0  0  0
 48 28  1  0  0  0  0
 48 49  1  0  0  0  0
 49 50  2  0  0  0  0
 50 51  1  0  0  0  0
 51 24  2  0  0  0  0
 52 51  1  0  0  0  0
 53 52  1  0  0  0  0
 26 49  1  0  0  0  0
 54 48  1  0  0  0  0
  1 55  1  1  0  0  0
 56 55  2  0  0  0  0
 57 55  1  0  0  0  0
 58 57  1  0  0  0  0
M  END
> <DATABASE_ID>
DB00309

> <DATABASE_NAME>
drugbank

> <SMILES>
[H][C@@]12N3CC[C@@]11C4=CC(=C(OC)C=C4N(C)[C@@]1([H])[C@](O)([C@H](O)[C@]2(CC)C=CC3)C(N)=O)[C@]1(C[C@@]2([H])CN(C[C@](O)(CC)C2)CCC2=C1NC1=C2C=CC=C1)C(=O)OC

> <INCHI_IDENTIFIER>
InChI=1S/C43H55N5O7/c1-6-39(52)21-25-22-42(38(51)55-5,33-27(13-17-47(23-25)24-39)26-11-8-9-12-30(26)45-33)29-19-28-31(20-32(29)54-4)46(3)35-41(28)15-18-48-16-10-14-40(7-2,34(41)48)36(49)43(35,53)37(44)50/h8-12,14,19-20,25,34-36,45,49,52-53H,6-7,13,15-18,21-24H2,1-5H3,(H2,44,50)/t25-,34-,35+,36+,39-,40+,41+,42-,43-/m0/s1

> <INCHI_KEY>
HHJUWIANJFBDHT-ZVTSDNJWSA-N

> <FORMULA>
C43H55N5O7

> <MOLECULAR_WEIGHT>
753.941

> <EXACT_MASS>
753.410149131

> <JCHEM_ACCEPTOR_COUNT>
9

> <JCHEM_ATOM_COUNT>
110

> <JCHEM_AVERAGE_NEUTRAL_MICROSPECIES_CHARGE>
1.8862713069951613

> <JCHEM_AVERAGE_POLARIZABILITY>
81.3904444316345

> <JCHEM_BIOAVAILABILITY>
1

> <JCHEM_DONOR_COUNT>
5

> <JCHEM_FORMAL_CHARGE>
0

> <JCHEM_GHOSE_FILTER>
0

> <JCHEM_IUPAC>
methyl (13S,15R,17S)-13-[(1R,9R,10S,11R,12R,19R)-10-carbamoyl-12-ethyl-10,11-dihydroxy-5-methoxy-8-methyl-8,16-diazapentacyclo[10.6.1.0^{1,9}.0^{2,7}.0^{16,19}]nonadeca-2,4,6,13-tetraen-4-yl]-17-ethyl-17-hydroxy-1,11-diazatetracyclo[13.3.1.0^{4,12}.0^{5,10}]nonadeca-4(12),5(10),6,8-tetraene-13-carboxylate

> <ALOGPS_LOGP>
3.53

> <JCHEM_LOGP>
2.789183207999999

> <ALOGPS_LOGS>
-4.03

> <JCHEM_MDDR_LIKE_RULE>
1

> <JCHEM_NEUTRAL_CHARGE>
2

> <JCHEM_NUMBER_OF_RINGS>
9

> <JCHEM_PHYSIOLOGICAL_CHARGE>
2

> <JCHEM_PKA>
13.861704060660195

> <JCHEM_PKA_STRONGEST_ACIDIC>
11.342997458827782

> <JCHEM_PKA_STRONGEST_BASIC>
8.676353628093905

> <JCHEM_POLAR_SURFACE_AREA>
164.82

> <JCHEM_REFRACTIVITY>
210.32219999999992

> <JCHEM_ROTATABLE_BOND_COUNT>
7

> <JCHEM_RULE_OF_FIVE>
0

> <ALOGPS_SOLUBILITY>
7.00e-02 g/l

> <JCHEM_TRADITIONAL_IUPAC>
cefazolin sodium

> <JCHEM_VEBER_RULE>
0

> <DRUGBANK_ID>
DB00309

> <SECONDARY_ACCESSION_NUMBERS>
APRD00392

> <DRUG_GROUPS>
approved; investigational

> <GENERIC_NAME>
Vindesine

> <SYNONYMS>
3-(aminocarbonyl)-O4-deacetyl-3-de(methoxycarbonyl)vincaleukoblastine; 3-carbamoyl-4-deacetyl-3-de(methoxycarbonyl)vincaleukoblastine; Desacetylvinblastine amide; Vindesina; Vindesine; Vindesinum

> <PRODUCTS>
Eldisine Inj 5mg/2ml

> <INTERNATIONAL_BRANDS>
Eldesine; Eldisine

> <SALTS>
Vindesine sulfate

$$$$
