
  Mrv1718011031815512D          

122132  0  0  0  0            999 V2000
    0.7146   -0.4123    0.0000 C   0  0  1  0  0  0  0  0  0  0  0  0
    0.7146    0.4123    0.0000 C   0  0  0  0  0  0  0  0  0  0  0  0
    0.0000    0.8245    0.0000 O   0  0  0  0  0  0  0  0  0  0  0  0
   -0.7146    0.4123    0.0000 C   0  0  1  0  0  0  0  0  0  0  0  0
   -0.7146   -0.4123    0.0000 C   0  0  2  0  0  0  0  0  0  0  0  0
    0.0000   -0.8245    0.0000 C   0  0  2  0  0  0  0  0  0  0  0  0
   -1.4293   -0.8245    0.0000 O   0  0  0  0  0  0  0  0  0  0  0  0
   -2.1440   -0.4123    0.0000 C   0  0  0  0  0  0  0  0  0  0  0  0
   -2.8586   -0.8245    0.0000 C   0  0  0  0  0  0  0  0  0  0  0  0
   -3.5733   -0.4123    0.0000 C   0  0  0  0  0  0  0  0  0  0  0  0
   -4.2880   -0.8245    0.0000 C   0  0  0  0  0  0  0  0  0  0  0  0
   -4.2880   -1.6491    0.0000 C   0  0  0  0  0  0  0  0  0  0  0  0
   -3.5733   -2.0616    0.0000 C   0  0  0  0  0  0  0  0  0  0  0  0
   -2.8586   -1.6491    0.0000 C   0  0  0  0  0  0  0  0  0  0  0  0
   -5.0025   -0.4123    0.0000 O   0  0  0  0  0  0  0  0  0  0  0  0
   -5.7173   -0.8245    0.0000 C   0  0  0  0  0  0  0  0  0  0  0  0
   -6.4319   -0.4123    0.0000 C   0  0  0  0  0  0  0  0  0  0  0  0
   -5.7173   -1.6491    0.0000 O   0  0  0  0  0  0  0  0  0  0  0  0
   -6.4319    0.4123    0.0000 C   0  0  0  0  0  0  0  0  0  0  0  0
   -7.1466    0.8245    0.0000 C   0  0  0  0  0  0  0  0  0  0  0  0
   -7.8612    0.4123    0.0000 C   0  0  0  0  0  0  0  0  0  0  0  0
   -7.8612   -0.4123    0.0000 C   0  0  0  0  0  0  0  0  0  0  0  0
   -7.1466   -0.8245    0.0000 C   0  0  0  0  0  0  0  0  0  0  0  0
   -7.1466    1.6492    0.0000 O   0  0  0  0  0  0  0  0  0  0  0  0
   -8.5759    0.8245    0.0000 O   0  0  0  0  0  0  0  0  0  0  0  0
   -8.5759   -0.8245    0.0000 O   0  0  0  0  0  0  0  0  0  0  0  0
   -5.0025   -2.0616    0.0000 O   0  0  0  0  0  0  0  0  0  0  0  0
   -3.5733   -2.8862    0.0000 O   0  0  0  0  0  0  0  0  0  0  0  0
   -2.1440    0.4123    0.0000 O   0  0  0  0  0  0  0  0  0  0  0  0
    0.0000   -1.6491    0.0000 O   0  0  0  0  0  0  0  0  0  0  0  0
   -0.7146   -2.0616    0.0000 C   0  0  0  0  0  0  0  0  0  0  0  0
   -0.7146   -2.8862    0.0000 C   0  0  0  0  0  0  0  0  0  0  0  0
   -1.4293   -3.2984    0.0000 C   0  0  0  0  0  0  0  0  0  0  0  0
   -1.4293   -4.1230    0.0000 C   0  0  0  0  0  0  0  0  0  0  0  0
   -0.7146   -4.5354    0.0000 C   0  0  0  0  0  0  0  0  0  0  0  0
    0.0000   -4.1230    0.0000 C   0  0  0  0  0  0  0  0  0  0  0  0
    0.0000   -3.2984    0.0000 C   0  0  0  0  0  0  0  0  0  0  0  0
   -2.1440   -4.5354    0.0000 O   0  0  0  0  0  0  0  0  0  0  0  0
   -2.1440   -5.3600    0.0000 C   0  0  0  0  0  0  0  0  0  0  0  0
   -2.8586   -5.7723    0.0000 C   0  0  0  0  0  0  0  0  0  0  0  0
   -3.5733   -5.3600    0.0000 C   0  0  0  0  0  0  0  0  0  0  0  0
   -4.2880   -5.7723    0.0000 C   0  0  0  0  0  0  0  0  0  0  0  0
   -4.2880   -6.5968    0.0000 C   0  0  0  0  0  0  0  0  0  0  0  0
   -3.5733   -7.0092    0.0000 C   0  0  0  0  0  0  0  0  0  0  0  0
   -2.8586   -6.5968    0.0000 C   0  0  0  0  0  0  0  0  0  0  0  0
   -5.0025   -7.0092    0.0000 O   0  0  0  0  0  0  0  0  0  0  0  0
   -3.5733   -7.8338    0.0000 O   0  0  0  0  0  0  0  0  0  0  0  0
   -5.0025   -5.3600    0.0000 O   0  0  0  0  0  0  0  0  0  0  0  0
   -1.4293   -5.7723    0.0000 O   0  0  0  0  0  0  0  0  0  0  0  0
   -0.7146   -5.3600    0.0000 O   0  0  0  0  0  0  0  0  0  0  0  0
    0.7146   -4.5354    0.0000 O   0  0  0  0  0  0  0  0  0  0  0  0
   -1.4293   -1.6491    0.0000 O   0  0  0  0  0  0  0  0  0  0  0  0
    1.4293   -0.8245    0.0000 O   0  0  0  0  0  0  0  0  0  0  0  0
    1.4293   -1.6491    0.0000 C   0  0  0  0  0  0  0  0  0  0  0  0
    2.1439   -2.0616    0.0000 C   0  0  0  0  0  0  0  0  0  0  0  0
    2.1439   -2.8862    0.0000 C   0  0  0  0  0  0  0  0  0  0  0  0
    2.8586   -3.2984    0.0000 C   0  0  0  0  0  0  0  0  0  0  0  0
    3.5733   -2.8862    0.0000 C   0  0  0  0  0  0  0  0  0  0  0  0
    3.5733   -2.0616    0.0000 C   0  0  0  0  0  0  0  0  0  0  0  0
    2.8586   -1.6491    0.0000 C   0  0  0  0  0  0  0  0  0  0  0  0
    0.7146   -2.0616    0.0000 O   0  0  0  0  0  0  0  0  0  0  0  0
    4.2879   -1.6491    0.0000 O   0  0  0  0  0  0  0  0  0  0  0  0
    4.2879   -3.2984    0.0000 O   0  0  0  0  0  0  0  0  0  0  0  0
    2.8586   -4.1230    0.0000 O   0  0  0  0  0  0  0  0  0  0  0  0
    3.5733   -4.5354    0.0000 C   0  0  0  0  0  0  0  0  0  0  0  0
    3.5733   -5.3600    0.0000 C   0  0  0  0  0  0  0  0  0  0  0  0
    2.8586   -5.7723    0.0000 C   0  0  0  0  0  0  0  0  0  0  0  0
    2.8586   -6.5968    0.0000 C   0  0  0  0  0  0  0  0  0  0  0  0
    3.5733   -7.0092    0.0000 C   0  0  0  0  0  0  0  0  0  0  0  0
    4.2879   -6.5968    0.0000 C   0  0  0  0  0  0  0  0  0  0  0  0
    4.2879   -5.7723    0.0000 C   0  0  0  0  0  0  0  0  0  0  0  0
    4.2879   -4.1230    0.0000 O   0  0  0  0  0  0  0  0  0  0  0  0
    3.5733   -7.8338    0.0000 O   0  0  0  0  0  0  0  0  0  0  0  0
    2.1439   -7.0092    0.0000 O   0  0  0  0  0  0  0  0  0  0  0  0
    5.0025   -7.0092    0.0000 O   0  0  0  0  0  0  0  0  0  0  0  0
    1.4293    0.8245    0.0000 O   0  0  0  0  0  0  0  0  0  0  0  0
    2.1439    0.4123    0.0000 C   0  0  0  0  0  0  0  0  0  0  0  0
    2.8586    0.8245    0.0000 C   0  0  0  0  0  0  0  0  0  0  0  0
    3.5733    0.4123    0.0000 C   0  0  0  0  0  0  0  0  0  0  0  0
    4.2879    0.8245    0.0000 C   0  0  0  0  0  0  0  0  0  0  0  0
    4.2879    1.6492    0.0000 C   0  0  0  0  0  0  0  0  0  0  0  0
    3.5733    2.0616    0.0000 C   0  0  0  0  0  0  0  0  0  0  0  0
    2.8586    1.6492    0.0000 C   0  0  0  0  0  0  0  0  0  0  0  0
    5.0025    0.4123    0.0000 O   0  0  0  0  0  0  0  0  0  0  0  0
    5.7173    0.8245    0.0000 C   0  0  0  0  0  0  0  0  0  0  0  0
    6.4318    0.4123    0.0000 C   0  0  0  0  0  0  0  0  0  0  0  0
    6.4318   -0.4123    0.0000 C   0  0  0  0  0  0  0  0  0  0  0  0
    7.1466   -0.8245    0.0000 C   0  0  0  0  0  0  0  0  0  0  0  0
    7.8612   -0.4123    0.0000 C   0  0  0  0  0  0  0  0  0  0  0  0
    7.8612    0.4123    0.0000 C   0  0  0  0  0  0  0  0  0  0  0  0
    7.1466    0.8245    0.0000 C   0  0  0  0  0  0  0  0  0  0  0  0
    5.0025    2.0616    0.0000 O   0  0  0  0  0  0  0  0  0  0  0  0
    3.5733    2.8862    0.0000 O   0  0  0  0  0  0  0  0  0  0  0  0
    2.1439   -0.4123    0.0000 O   0  0  0  0  0  0  0  0  0  0  0  0
    5.7173    1.6492    0.0000 O   0  0  0  0  0  0  0  0  0  0  0  0
    8.5759   -0.8245    0.0000 O   0  0  0  0  0  0  0  0  0  0  0  0
    7.1466   -1.6491    0.0000 O   0  0  0  0  0  0  0  0  0  0  0  0
    8.5759    0.8245    0.0000 O   0  0  0  0  0  0  0  0  0  0  0  0
   -1.4293    0.8245    0.0000 C   0  0  0  0  0  0  0  0  0  0  0  0
   -1.4293    1.6492    0.0000 O   0  0  0  0  0  0  0  0  0  0  0  0
   -0.7146    2.0616    0.0000 C   0  0  0  0  0  0  0  0  0  0  0  0
   -0.7146    2.8862    0.0000 C   0  0  0  0  0  0  0  0  0  0  0  0
    0.0000    1.6492    0.0000 O   0  0  0  0  0  0  0  0  0  0  0  0
    0.0000    3.2985    0.0000 C   0  0  0  0  0  0  0  0  0  0  0  0
    0.0000    4.1230    0.0000 C   0  0  0  0  0  0  0  0  0  0  0  0
   -0.7146    4.5354    0.0000 C   0  0  0  0  0  0  0  0  0  0  0  0
   -1.4293    4.1230    0.0000 C   0  0  0  0  0  0  0  0  0  0  0  0
   -1.4293    3.2985    0.0000 C   0  0  0  0  0  0  0  0  0  0  0  0
    0.7146    4.5354    0.0000 O   0  0  0  0  0  0  0  0  0  0  0  0
    0.7146    5.3600    0.0000 C   0  0  0  0  0  0  0  0  0  0  0  0
    1.4293    5.7723    0.0000 C   0  0  0  0  0  0  0  0  0  0  0  0
    2.1439    5.3600    0.0000 C   0  0  0  0  0  0  0  0  0  0  0  0
    2.8586    5.7723    0.0000 C   0  0  0  0  0  0  0  0  0  0  0  0
    2.8586    6.5968    0.0000 C   0  0  0  0  0  0  0  0  0  0  0  0
    2.1439    7.0092    0.0000 C   0  0  0  0  0  0  0  0  0  0  0  0
    1.4293    6.5968    0.0000 C   0  0  0  0  0  0  0  0  0  0  0  0
    3.5733    7.0092    0.0000 O   0  0  0  0  0  0  0  0  0  0  0  0
    2.1439    7.8338    0.0000 O   0  0  0  0  0  0  0  0  0  0  0  0
    3.5733    5.3600    0.0000 O   0  0  0  0  0  0  0  0  0  0  0  0
    0.0000    5.7723    0.0000 O   0  0  0  0  0  0  0  0  0  0  0  0
   -0.7146    5.3600    0.0000 O   0  0  0  0  0  0  0  0  0  0  0  0
   -2.1440    4.5354    0.0000 O   0  0  0  0  0  0  0  0  0  0  0  0
  1  2  1  0  0  0  0
  2  3  1  0  0  0  0
  3  4  1  0  0  0  0
  4  5  1  0  0  0  0
  5  6  1  0  0  0  0
  1  6  1  0  0  0  0
  5  7  1  6  0  0  0
  7  8  1  0  0  0  0
  8  9  1  0  0  0  0
  9 10  2  0  0  0  0
 10 11  1  0  0  0  0
 11 12  2  0  0  0  0
 12 13  1  0  0  0  0
 13 14  2  0  0  0  0
  9 14  1  0  0  0  0
 11 15  1  0  0  0  0
 15 16  1  0  0  0  0
 16 17  1  0  0  0  0
 16 18  2  0  0  0  0
 17 19  2  0  0  0  0
 19 20  1  0  0  0  0
 20 21  2  0  0  0  0
 21 22  1  0  0  0  0
 22 23  2  0  0  0  0
 17 23  1  0  0  0  0
 20 24  1  0  0  0  0
 21 25  1  0  0  0  0
 22 26  1  0  0  0  0
 12 27  1  0  0  0  0
 13 28  1  0  0  0  0
  8 29  2  0  0  0  0
  6 30  1  1  0  0  0
 30 31  1  0  0  0  0
 31 32  1  0  0  0  0
 32 33  2  0  0  0  0
 33 34  1  0  0  0  0
 34 35  2  0  0  0  0
 35 36  1  0  0  0  0
 36 37  2  0  0  0  0
 32 37  1  0  0  0  0
 34 38  1  0  0  0  0
 38 39  1  0  0  0  0
 39 40  1  0  0  0  0
 40 41  2  0  0  0  0
 41 42  1  0  0  0  0
 42 43  2  0  0  0  0
 43 44  1  0  0  0  0
 44 45  2  0  0  0  0
 40 45  1  0  0  0  0
 43 46  1  0  0  0  0
 44 47  1  0  0  0  0
 42 48  1  0  0  0  0
 39 49  2  0  0  0  0
 35 50  1  0  0  0  0
 36 51  1  0  0  0  0
 31 52  2  0  0  0  0
  1 53  1  6  0  0  0
 53 54  1  0  0  0  0
 54 55  1  0  0  0  0
 55 56  2  0  0  0  0
 56 57  1  0  0  0  0
 57 58  2  0  0  0  0
 58 59  1  0  0  0  0
 59 60  2  0  0  0  0
 55 60  1  0  0  0  0
 54 61  2  0  0  0  0
 59 62  1  0  0  0  0
 58 63  1  0  0  0  0
 57 64  1  0  0  0  0
 64 65  1  0  0  0  0
 65 66  1  0  0  0  0
 66 67  2  0  0  0  0
 67 68  1  0  0  0  0
 68 69  2  0  0  0  0
 69 70  1  0  0  0  0
 70 71  2  0  0  0  0
 66 71  1  0  0  0  0
 65 72  2  0  0  0  0
 69 73  1  0  0  0  0
 68 74  1  0  0  0  0
 70 75  1  0  0  0  0
  2 76  1  0  0  0  0
 76 77  1  0  0  0  0
 77 78  1  0  0  0  0
 78 79  2  0  0  0  0
 79 80  1  0  0  0  0
 80 81  2  0  0  0  0
 81 82  1  0  0  0  0
 82 83  2  0  0  0  0
 78 83  1  0  0  0  0
 80 84  1  0  0  0  0
 84 85  1  0  0  0  0
 85 86  1  0  0  0  0
 86 87  2  0  0  0  0
 87 88  1  0  0  0  0
 88 89  2  0  0  0  0
 89 90  1  0  0  0  0
 90 91  2  0  0  0  0
 86 91  1  0  0  0  0
 81 92  1  0  0  0  0
 82 93  1  0  0  0  0
 77 94  2  0  0  0  0
 85 95  2  0  0  0  0
 89 96  1  0  0  0  0
 88 97  1  0  0  0  0
 90 98  1  0  0  0  0
  4 99  1  1  0  0  0
 99100  1  0  0  0  0
100101  1  0  0  0  0
101102  1  0  0  0  0
101103  2  0  0  0  0
102104  2  0  0  0  0
104105  1  0  0  0  0
105106  2  0  0  0  0
106107  1  0  0  0  0
107108  2  0  0  0  0
102108  1  0  0  0  0
105109  1  0  0  0  0
109110  1  0  0  0  0
110111  1  0  0  0  0
111112  2  0  0  0  0
112113  1  0  0  0  0
113114  2  0  0  0  0
114115  1  0  0  0  0
115116  2  0  0  0  0
111116  1  0  0  0  0
114117  1  0  0  0  0
115118  1  0  0  0  0
113119  1  0  0  0  0
110120  2  0  0  0  0
106121  1  0  0  0  0
107122  1  0  0  0  0
M  END
> <DATABASE_ID>
DB09372

> <DATABASE_NAME>
drugbank

> <SMILES>
OC1=CC(=CC(O)=C1O)C(=O)OC1=C(O)C(O)=CC(=C1)C(=O)OC[C@H]1OC(OC(=O)C2=CC(OC(=O)C3=CC(O)=C(O)C(O)=C3)=C(O)C(O)=C2)[C@H](OC(=O)C2=CC(OC(=O)C3=CC(O)=C(O)C(O)=C3)=C(O)C(O)=C2)[C@@H](OC(=O)C2=CC(OC(=O)C3=CC(O)=C(O)C(O)=C3)=C(O)C(O)=C2)[C@@H]1OC(=O)C1=CC(OC(=O)C2=CC(O)=C(O)C(O)=C2)=C(O)C(O)=C1

> <INCHI_IDENTIFIER>
InChI=1S/C76H52O46/c77-32-1-22(2-33(78)53(32)92)67(103)113-47-16-27(11-42(87)58(47)97)66(102)112-21-52-63(119-72(108)28-12-43(88)59(98)48(17-28)114-68(104)23-3-34(79)54(93)35(80)4-23)64(120-73(109)29-13-44(89)60(99)49(18-29)115-69(105)24-5-36(81)55(94)37(82)6-24)65(121-74(110)30-14-45(90)61(100)50(19-30)116-70(106)25-7-38(83)56(95)39(84)8-25)76(118-52)122-75(111)31-15-46(91)62(101)51(20-31)117-71(107)26-9-40(85)57(96)41(86)10-26/h1-20,52,63-65,76-101H,21H2/t52-,63-,64+,65-,76?/m1/s1

> <INCHI_KEY>
LRBQNJMCXXYXIU-YIILYMKVSA-N

> <FORMULA>
C76H52O46

> <MOLECULAR_WEIGHT>
1701.206

> <EXACT_MASS>
1700.172974194

> <JCHEM_ACCEPTOR_COUNT>
36

> <JCHEM_ATOM_COUNT>
174

> <JCHEM_AVERAGE_POLARIZABILITY>
152.8752810252569

> <JCHEM_BIOAVAILABILITY>
0

> <JCHEM_DONOR_COUNT>
25

> <JCHEM_FORMAL_CHARGE>
0

> <JCHEM_GHOSE_FILTER>
0

> <JCHEM_IUPAC>
(2R,3R,4S,5R)-4,5,6-tris[3,4-dihydroxy-5-(3,4,5-trihydroxybenzoyloxy)benzoyloxy]-2-{[3,4-dihydroxy-5-(3,4,5-trihydroxybenzoyloxy)benzoyloxy]methyl}oxan-3-yl 3,4-dihydroxy-5-(3,4,5-trihydroxybenzoyloxy)benzoate

> <ALOGPS_LOGP>
4.73

> <JCHEM_LOGP>
13.512004047

> <ALOGPS_LOGS>
-3.62

> <JCHEM_MDDR_LIKE_RULE>
1

> <JCHEM_NUMBER_OF_RINGS>
11

> <JCHEM_PHYSIOLOGICAL_CHARGE>
0

> <JCHEM_PKA>
8.059665938059188

> <JCHEM_PKA_STRONGEST_ACIDIC>
7.605963885458599

> <JCHEM_PKA_STRONGEST_BASIC>
-4.773003704204116

> <JCHEM_POLAR_SURFACE_AREA>
777.9800000000006

> <JCHEM_REFRACTIVITY>
393.57039999999984

> <JCHEM_ROTATABLE_BOND_COUNT>
31

> <JCHEM_RULE_OF_FIVE>
0

> <ALOGPS_SOLUBILITY>
4.07e-01 g/l

> <JCHEM_TRADITIONAL_IUPAC>
(2R,3R,4S,5R)-4,5,6-tris[3,4-dihydroxy-5-(3,4,5-trihydroxybenzoyloxy)benzoyloxy]-2-{[3,4-dihydroxy-5-(3,4,5-trihydroxybenzoyloxy)benzoyloxy]methyl}oxan-3-yl 3,4-dihydroxy-5-(3,4,5-trihydroxybenzoyloxy)benzoate

> <JCHEM_VEBER_RULE>
0

> <DRUGBANK_ID>
DB09372

> <DRUG_GROUPS>
approved

> <GENERIC_NAME>
Tannic acid

> <SYNONYMS>
ácido tánico; Gallotannic acid; Gallotannin; Tannic acid

> <PRODUCTS>
4Jointz; Blood Stop Liq; Extrait De Fraises; Germa Tan; Nitrotan; Opium Camphre Tanin Tab; Outgro Liquid; Tanac Liquid; Zilactin Medicated Gel 7%

$$$$
