
  Mrv1652306231722482D          

 24 24  0  0  0  0            999 V2000
    5.7158   -9.0750    0.0000 C   0  0  0  0  0  0  0  0  0  0  0  0
    6.4302   -9.4875    0.0000 C   0  0  0  0  0  0  0  0  0  0  0  0
    7.1447   -9.0750    0.0000 C   0  0  0  0  0  0  0  0  0  0  0  0
    7.8592   -9.4875    0.0000 C   0  0  0  0  0  0  0  0  0  0  0  0
    8.5737   -9.0750    0.0000 C   0  0  0  0  0  0  0  0  0  0  0  0
    9.2881   -9.4875    0.0000 C   0  0  0  0  0  0  0  0  0  0  0  0
   10.0026   -9.0750    0.0000 C   0  0  0  0  0  0  0  0  0  0  0  0
   10.7171   -9.4875    0.0000 C   0  0  0  0  0  0  0  0  0  0  0  0
   11.4315   -9.0750    0.0000 C   0  0  0  0  0  0  0  0  0  0  0  0
   12.1460   -9.4875    0.0000 C   0  0  0  0  0  0  0  0  0  0  0  0
   12.8605   -9.0750    0.0000 C   0  0  0  0  0  0  0  0  0  0  0  0
   13.5749   -9.4875    0.0000 C   0  0  0  0  0  0  0  0  0  0  0  0
   14.2894   -9.0750    0.0000 C   0  0  0  0  0  0  0  0  0  0  0  0
   15.0039   -9.4875    0.0000 C   0  0  0  0  0  0  0  0  0  0  0  0
   15.7184   -9.0750    0.0000 N   0  3  0  0  0  0  0  0  0  0  0  0
   16.1309   -9.7895    0.0000 C   0  0  0  0  0  0  0  0  0  0  0  0
   15.3059   -8.3605    0.0000 C   0  0  0  0  0  0  0  0  0  0  0  0
   16.4328   -8.6625    0.0000 C   0  0  0  0  0  0  0  0  0  0  0  0
   17.1473   -9.0750    0.0000 C   0  0  0  0  0  0  0  0  0  0  0  0
   17.8618   -8.6625    0.0000 C   0  0  0  0  0  0  0  0  0  0  0  0
   18.5762   -9.0750    0.0000 C   0  0  0  0  0  0  0  0  0  0  0  0
   18.5762   -9.9000    0.0000 C   0  0  0  0  0  0  0  0  0  0  0  0
   17.8618  -10.3125    0.0000 C   0  0  0  0  0  0  0  0  0  0  0  0
   17.1473   -9.9000    0.0000 C   0  0  0  0  0  0  0  0  0  0  0  0
  1  2  1  0  0  0  0
  2  3  1  0  0  0  0
  3  4  1  0  0  0  0
  4  5  1  0  0  0  0
  5  6  1  0  0  0  0
  6  7  1  0  0  0  0
  7  8  1  0  0  0  0
  8  9  1  0  0  0  0
  9 10  1  0  0  0  0
 10 11  1  0  0  0  0
 11 12  1  0  0  0  0
 12 13  1  0  0  0  0
 13 14  1  0  0  0  0
 14 15  1  0  0  0  0
 15 16  1  0  0  0  0
 15 17  1  0  0  0  0
 15 18  1  0  0  0  0
 18 19  1  0  0  0  0
 19 20  2  0  0  0  0
 20 21  1  0  0  0  0
 21 22  2  0  0  0  0
 22 23  1  0  0  0  0
 23 24  2  0  0  0  0
 19 24  1  0  0  0  0
M  CHG  1  15   1
M  END
> <DATABASE_ID>
DB13774

> <DATABASE_NAME>
drugbank

> <SMILES>
CCCCCCCCCCCCCC[N+](C)(C)CC1=CC=CC=C1

> <INCHI_IDENTIFIER>
InChI=1S/C23H42N/c1-4-5-6-7-8-9-10-11-12-13-14-18-21-24(2,3)22-23-19-16-15-17-20-23/h15-17,19-20H,4-14,18,21-22H2,1-3H3/q+1

> <INCHI_KEY>
WNBGYVXHFTYOBY-UHFFFAOYSA-N

> <FORMULA>
C23H42N

> <MOLECULAR_WEIGHT>
332.595

> <EXACT_MASS>
332.331176777

> <JCHEM_ACCEPTOR_COUNT>
0

> <JCHEM_ATOM_COUNT>
66

> <JCHEM_AVERAGE_POLARIZABILITY>
45.32111359342842

> <JCHEM_BIOAVAILABILITY>
1

> <JCHEM_DONOR_COUNT>
0

> <JCHEM_FORMAL_CHARGE>
1

> <JCHEM_GHOSE_FILTER>
1

> <JCHEM_IUPAC>
benzyldimethyltetradecylazanium

> <ALOGPS_LOGP>
3.84

> <JCHEM_LOGP>
3.52189163119492

> <ALOGPS_LOGS>
-8.01

> <JCHEM_MDDR_LIKE_RULE>
0

> <JCHEM_NUMBER_OF_RINGS>
1

> <JCHEM_PHYSIOLOGICAL_CHARGE>
1

> <JCHEM_PKA_STRONGEST_ACIDIC>
18.10976193549863

> <JCHEM_POLAR_SURFACE_AREA>
0.0

> <JCHEM_REFRACTIVITY>
120.39789999999999

> <JCHEM_ROTATABLE_BOND_COUNT>
15

> <JCHEM_RULE_OF_FIVE>
1

> <ALOGPS_SOLUBILITY>
3.57e-06 g/l

> <JCHEM_TRADITIONAL_IUPAC>
benzyldimethyltetradecylazanium

> <JCHEM_VEBER_RULE>
0

> <DRUGBANK_ID>
DB13774

> <DRUG_GROUPS>
experimental

> <GENERIC_NAME>
Myristalkonium

> <SYNONYMS>
Miristalkonium; Myristalkonium cation; Myristalkonium ion; Myristyl-benzalkonium; Tetradecylbenzyldimethylammonium; Zephiramine cation; Zephiramine ion

> <PRODUCTS>
Youjie Weishi Air Disinfectant

> <SALTS>
Myristalkonium chloride

$$$$
