
  Mrv1909 05201915252D          

 42 47  0  0  0  0            999 V2000
   -0.5837   -1.4124    0.0000 C   0  0  0  0  0  0  0  0  0  0  0  0
   -0.1712   -0.6979    0.0000 C   0  0  0  0  0  0  0  0  0  0  0  0
    0.6538   -0.6979    0.0000 C   0  0  0  0  0  0  0  0  0  0  0  0
    1.1387   -0.0305    0.0000 C   0  0  0  0  0  0  0  0  0  0  0  0
    0.8838    0.7541    0.0000 N   0  0  0  0  0  0  0  0  0  0  0  0
    1.4358    1.3672    0.0000 C   0  0  0  0  0  0  0  0  0  0  0  0
    0.0768    0.9256    0.0000 C   0  0  0  0  0  0  0  0  0  0  0  0
   -0.5363    0.3736    0.0000 N   0  0  0  0  0  0  0  0  0  0  0  0
   -1.2508    0.7861    0.0000 C   0  0  0  0  0  0  0  0  0  0  0  0
   -1.0792    1.5931    0.0000 C   0  0  0  0  0  0  0  0  0  0  0  0
   -0.2587    1.6793    0.0000 S   0  0  0  0  0  0  0  0  0  0  0  0
   -1.6313    2.2062    0.0000 C   0  0  0  0  0  0  0  0  0  0  0  0
   -2.1833    2.8193    0.0000 N   0  0  0  0  0  0  0  0  0  0  0  0
   -2.0044    0.4506    0.0000 C   0  0  0  0  0  0  0  0  0  0  0  0
   -2.0907   -0.3699    0.0000 C   0  0  0  0  0  0  0  0  0  0  0  0
   -2.8443   -0.7055    0.0000 C   0  0  0  0  0  0  0  0  0  0  0  0
   -3.5118   -0.2206    0.0000 C   0  0  0  0  0  0  0  0  0  0  0  0
   -4.2655   -0.5561    0.0000 F   0  0  0  0  0  0  0  0  0  0  0  0
   -3.4255    0.5999    0.0000 C   0  0  0  0  0  0  0  0  0  0  0  0
   -2.6719    0.9355    0.0000 C   0  0  0  0  0  0  0  0  0  0  0  0
    1.9233   -0.2854    0.0000 N   0  0  0  0  0  0  0  0  0  0  0  0
    2.6378    0.1271    0.0000 C   0  0  0  0  0  0  0  0  0  0  0  0
    3.3523   -0.2854    0.0000 C   0  0  0  0  0  0  0  0  0  0  0  0
    3.3523   -1.1104    0.0000 C   0  0  0  0  0  0  0  0  0  0  0  0
    2.6378   -1.5229    0.0000 C   0  0  0  0  0  0  0  0  0  0  0  0
    2.6378   -2.3479    0.0000 C   0  0  0  0  0  0  0  0  0  0  0  0
    1.9233   -1.1104    0.0000 C   0  0  0  0  0  0  0  0  0  0  0  0
    1.1387   -1.3654    0.0000 N   0  0  0  0  0  0  0  0  0  0  0  0
    4.0668    0.1271    0.0000 N   0  0  0  0  0  0  0  0  0  0  0  0
    4.0668    0.9521    0.0000 C   0  0  0  0  0  0  0  0  0  0  0  0
    4.7812    1.3646    0.0000 C   0  0  0  0  0  0  0  0  0  0  0  0
    5.4957    0.9521    0.0000 N   0  0  0  0  0  0  0  0  0  0  0  0
    6.2102    1.3646    0.0000 C   0  0  0  0  0  0  0  0  0  0  0  0
    6.2102    2.1896    0.0000 C   0  0  0  0  0  0  0  0  0  0  0  0
    5.4957    2.6021    0.0000 O   0  0  0  0  0  0  0  0  0  0  0  0
    6.9246    2.6021    0.0000 N   0  0  0  0  0  0  0  0  0  0  0  0
    7.1382    3.3989    0.0000 C   0  0  0  0  0  0  0  0  0  0  0  0
    7.9351    3.1854    0.0000 C   0  0  0  0  0  0  0  0  0  0  0  0
    8.6495    3.5979    0.0000 O   0  0  0  0  0  0  0  0  0  0  0  0
    7.7215    2.3885    0.0000 C   0  0  0  0  0  0  0  0  0  0  0  0
    5.4957    0.1271    0.0000 C   0  0  0  0  0  0  0  0  0  0  0  0
    4.7812   -0.2854    0.0000 C   0  0  0  0  0  0  0  0  0  0  0  0
  1  2  1  0  0  0  0
  2  3  1  0  0  0  0
  3  4  2  0  0  0  0
  4  5  1  0  0  0  0
  5  6  1  0  0  0  0
  5  7  1  0  0  0  0
  7  8  2  0  0  0  0
  8  9  1  0  0  0  0
  9 10  2  0  0  0  0
 10 11  1  0  0  0  0
  7 11  1  0  0  0  0
 10 12  1  0  0  0  0
 12 13  3  0  0  0  0
  9 14  1  0  0  0  0
 14 15  2  0  0  0  0
 15 16  1  0  0  0  0
 16 17  2  0  0  0  0
 17 18  1  0  0  0  0
 17 19  1  0  0  0  0
 19 20  2  0  0  0  0
 14 20  1  0  0  0  0
  4 21  1  0  0  0  0
 21 22  1  0  0  0  0
 22 23  2  0  0  0  0
 23 24  1  0  0  0  0
 24 25  2  0  0  0  0
 25 26  1  0  0  0  0
 25 27  1  0  0  0  0
 21 27  1  0  0  0  0
 27 28  2  0  0  0  0
  3 28  1  0  0  0  0
 23 29  1  0  0  0  0
 29 30  1  0  0  0  0
 30 31  1  0  0  0  0
 31 32  1  0  0  0  0
 32 33  1  0  0  0  0
 33 34  1  0  0  0  0
 34 35  2  0  0  0  0
 34 36  1  0  0  0  0
 36 37  1  0  0  0  0
 37 38  1  0  0  0  0
 38 39  1  0  0  0  0
 38 40  1  0  0  0  0
 36 40  1  0  0  0  0
 32 41  1  0  0  0  0
 41 42  1  0  0  0  0
 29 42  1  0  0  0  0
M  END
> <DATABASE_ID>
DB15403

> <DATABASE_NAME>
drugbank

> <SMILES>
CCC1=C(N(C)C2=NC(=C(S2)C#N)C2=CC=C(F)C=C2)N2C=C(C=C(C)C2=N1)N1CCN(CC(=O)N2CC(O)C2)CC1

> <INCHI_IDENTIFIER>
InChI=1S/C30H33FN8O2S/c1-4-24-29(35(3)30-34-27(25(14-32)42-30)20-5-7-21(31)8-6-20)39-15-22(13-19(2)28(39)33-24)37-11-9-36(10-12-37)18-26(41)38-16-23(40)17-38/h5-8,13,15,23,40H,4,9-12,16-18H2,1-3H3

> <INCHI_KEY>
REQQVBGILUTQNN-UHFFFAOYSA-N

> <FORMULA>
C30H33FN8O2S

> <MOLECULAR_WEIGHT>
588.71

> <EXACT_MASS>
588.243121672

> <JCHEM_ACCEPTOR_COUNT>
8

> <JCHEM_ATOM_COUNT>
75

> <JCHEM_AVERAGE_POLARIZABILITY>
63.814955176328525

> <JCHEM_BIOAVAILABILITY>
1

> <JCHEM_DONOR_COUNT>
1

> <JCHEM_FORMAL_CHARGE>
0

> <JCHEM_GHOSE_FILTER>
0

> <JCHEM_IUPAC>
2-[(2-ethyl-6-{4-[2-(3-hydroxyazetidin-1-yl)-2-oxoethyl]piperazin-1-yl}-8-methylimidazo[1,2-a]pyridin-3-yl)(methyl)amino]-4-(4-fluorophenyl)-1,3-thiazole-5-carbonitrile

> <ALOGPS_LOGP>
4.10

> <JCHEM_LOGP>
3.6368220753333356

> <ALOGPS_LOGS>
-4.26

> <JCHEM_MDDR_LIKE_RULE>
1

> <JCHEM_NUMBER_OF_RINGS>
6

> <JCHEM_PHYSIOLOGICAL_CHARGE>
1

> <JCHEM_PKA_STRONGEST_ACIDIC>
14.75571313622623

> <JCHEM_PKA_STRONGEST_BASIC>
7.85244014835111

> <JCHEM_POLAR_SURFACE_AREA>
104.24000000000001

> <JCHEM_REFRACTIVITY>
160.1726

> <JCHEM_ROTATABLE_BOND_COUNT>
7

> <JCHEM_RULE_OF_FIVE>
0

> <ALOGPS_SOLUBILITY>
3.24e-02 g/l

> <JCHEM_TRADITIONAL_IUPAC>
(2R)-14-fluoro-2-methyl-6,9,10,19-tetraazapentacyclo[14.2.1.0^{2,6}.0^{8,18}.0^{12,17}]nonadeca-1(18),8,12(17),13,15-pentaen-11-one

> <JCHEM_VEBER_RULE>
0

> <DRUGBANK_ID>
DB15403

> <DRUG_GROUPS>
investigational

> <GENERIC_NAME>
Ziritaxestat

> <SYNONYMS>
Ziritaxestat

$$$$
