
  Mrv1909 11152216252D          

 40 44  0  0  1  0            999 V2000
    7.8592   -0.4125    0.0000 C   0  0  0  0  0  0  0  0  0  0  0  0
    7.1447   -0.8250    0.0000 C   0  0  1  0  0  0  0  0  0  0  0  0
    7.1447   -1.6500    0.0000 C   0  0  0  0  0  0  0  0  0  0  0  0
    6.4302   -2.0625    0.0000 C   0  0  1  0  0  0  0  0  0  0  0  0
    6.4302   -2.8875    0.0000 C   0  0  0  0  0  0  0  0  0  0  0  0
    5.7158   -1.6500    0.0000 C   0  0  0  0  0  0  0  0  0  0  0  0
    5.7158   -0.8250    0.0000 N   0  0  0  0  0  0  0  0  0  0  0  0
    6.4302   -0.4125    0.0000 C   0  0  0  0  0  0  0  0  0  0  0  0
    5.0013   -0.4125    0.0000 S   0  0  0  0  0  0  0  0  0  0  0  0
    5.4138    0.3020    0.0000 O   0  0  0  0  0  0  0  0  0  0  0  0
    4.5888   -1.1270    0.0000 O   0  0  0  0  0  0  0  0  0  0  0  0
    4.2868   -0.0000    0.0000 C   0  0  0  0  0  0  0  0  0  0  0  0
    4.2868    0.8250    0.0000 C   0  0  0  0  0  0  0  0  0  0  0  0
    3.5724    1.2375    0.0000 C   0  0  0  0  0  0  0  0  0  0  0  0
    2.8579    0.8250    0.0000 C   0  0  0  0  0  0  0  0  0  0  0  0
    2.8579    0.0000    0.0000 C   0  0  0  0  0  0  0  0  0  0  0  0
    3.5724   -0.4125    0.0000 C   0  0  0  0  0  0  0  0  0  0  0  0
    2.1434   -0.4125    0.0000 C   0  0  0  0  0  0  0  0  0  0  0  0
    2.1434   -1.2375    0.0000 N   0  0  0  0  0  0  0  0  0  0  0  0
    1.4289   -1.6500    0.0000 O   0  0  0  0  0  0  0  0  0  0  0  0
    1.4289   -0.0000    0.0000 C   0  0  0  0  0  0  0  0  0  0  0  0
    0.7145   -0.4125    0.0000 C   0  0  0  0  0  0  0  0  0  0  0  0
   -0.0000    0.0000    0.0000 C   0  0  0  0  0  0  0  0  0  0  0  0
    0.0000    0.8250    0.0000 C   0  0  0  0  0  0  0  0  0  0  0  0
    0.7145    1.2375    0.0000 C   0  0  0  0  0  0  0  0  0  0  0  0
    1.4289    0.8250    0.0000 C   0  0  0  0  0  0  0  0  0  0  0  0
    2.1434    1.2375    0.0000 C   0  0  0  0  0  0  0  0  0  0  0  0
    2.1434    2.0625    0.0000 N   0  0  0  0  0  0  0  0  0  0  0  0
    2.8579    2.4750    0.0000 O   0  0  0  0  0  0  0  0  0  0  0  0
   -0.7145   -0.4125    0.0000 S   0  0  0  0  0  0  0  0  0  0  0  0
   -1.1270    0.3020    0.0000 O   0  0  0  0  0  0  0  0  0  0  0  0
   -0.3020   -1.1270    0.0000 O   0  0  0  0  0  0  0  0  0  0  0  0
   -1.4289   -0.8250    0.0000 N   0  0  0  0  0  0  0  0  0  0  0  0
   -1.4289   -1.6500    0.0000 C   0  0  0  0  0  0  0  0  0  0  0  0
   -2.1434   -2.0625    0.0000 C   0  0  1  0  0  0  0  0  0  0  0  0
   -2.1434   -2.8875    0.0000 C   0  0  0  0  0  0  0  0  0  0  0  0
   -2.8579   -1.6500    0.0000 C   0  0  0  0  0  0  0  0  0  0  0  0
   -2.8579   -0.8250    0.0000 C   0  0  1  0  0  0  0  0  0  0  0  0
   -3.5724   -0.4125    0.0000 C   0  0  0  0  0  0  0  0  0  0  0  0
   -2.1434   -0.4125    0.0000 C   0  0  0  0  0  0  0  0  0  0  0  0
  2  1  1  1  0  0  0
  2  3  1  0  0  0  0
  4  3  1  0  0  0  0
  4  5  1  1  0  0  0
  4  6  1  0  0  0  0
  6  7  1  0  0  0  0
  7  8  1  0  0  0  0
  2  8  1  0  0  0  0
  7  9  1  0  0  0  0
  9 10  2  0  0  0  0
  9 11  2  0  0  0  0
  9 12  1  0  0  0  0
 12 13  2  0  0  0  0
 13 14  1  0  0  0  0
 14 15  2  0  0  0  0
 15 16  1  0  0  0  0
 16 17  2  0  0  0  0
 12 17  1  0  0  0  0
 16 18  1  0  0  0  0
 18 19  2  0  0  0  0
 19 20  1  0  0  0  0
 18 21  1  0  0  0  0
 21 22  2  0  0  0  0
 22 23  1  0  0  0  0
 23 24  2  0  0  0  0
 24 25  1  0  0  0  0
 25 26  2  0  0  0  0
 21 26  1  0  0  0  0
 26 27  1  0  0  0  0
 15 27  1  0  0  0  0
 27 28  2  0  0  0  0
 28 29  1  0  0  0  0
 23 30  1  0  0  0  0
 30 31  2  0  0  0  0
 30 32  2  0  0  0  0
 30 33  1  0  0  0  0
 33 34  1  0  0  0  0
 35 34  1  0  0  0  0
 35 36  1  1  0  0  0
 35 37  1  0  0  0  0
 38 37  1  0  0  0  0
 38 39  1  1  0  0  0
 38 40  1  0  0  0  0
 33 40  1  0  0  0  0
M  END
> <DATABASE_ID>
DB17109

> <DATABASE_NAME>
drugbank

> <SMILES>
C[C@H]1C[C@@H](C)CN(C1)S(=O)(=O)C1=CC=C2C(=C1)C(=NO)C1=CC(=CC=C1C2=NO)S(=O)(=O)N1C[C@@H](C)C[C@@H](C)C1

> <INCHI_IDENTIFIER>
InChI=1S/C28H36N4O6S2/c1-17-9-18(2)14-31(13-17)39(35,36)21-5-7-23-25(11-21)28(30-34)26-12-22(6-8-24(26)27(23)29-33)40(37,38)32-15-19(3)10-20(4)16-32/h5-8,11-12,17-20,33-34H,9-10,13-16H2,1-4H3/b29-27-,30-28+/t17-,18+,19-,20+

> <INCHI_KEY>
GAPRVZKWPDRAJA-TVRZPQSBSA-N

> <FORMULA>
C28H36N4O6S2

> <MOLECULAR_WEIGHT>
588.74

> <EXACT_MASS>
588.207627243

> <JCHEM_ACCEPTOR_COUNT>
8

> <JCHEM_ATOM_COUNT>
76

> <JCHEM_AVERAGE_NEUTRAL_MICROSPECIES_CHARGE>
0.0003032531302753114

> <JCHEM_AVERAGE_POLARIZABILITY>
63.28578448072501

> <JCHEM_BIOAVAILABILITY>
1

> <JCHEM_DONOR_COUNT>
2

> <JCHEM_FORMAL_CHARGE>
0

> <JCHEM_GHOSE_FILTER>
0

> <JCHEM_IUPAC>
N-[2,7-bis({[(3R,5S)-3,5-dimethylpiperidin-1-yl]sulfonyl})-10-(hydroxyimino)-9,10-dihydroanthracen-9-ylidene]hydroxylamine

> <ALOGPS_LOGP>
2.97

> <JCHEM_LOGP>
4.2050550173333345

> <ALOGPS_LOGS>
-4.47

> <JCHEM_MDDR_LIKE_RULE>
0

> <JCHEM_NEUTRAL_CHARGE>
-2

> <JCHEM_NUMBER_OF_RINGS>
5

> <JCHEM_PHYSIOLOGICAL_CHARGE>
-2

> <JCHEM_PKA>
5.39790631109134

> <JCHEM_PKA_STRONGEST_ACIDIC>
3.3116090837084347

> <JCHEM_PKA_STRONGEST_BASIC>
-3.0976194474514784

> <JCHEM_POLAR_SURFACE_AREA>
139.94

> <JCHEM_REFRACTIVITY>
154.8674

> <JCHEM_ROTATABLE_BOND_COUNT>
2

> <JCHEM_RULE_OF_FIVE>
0

> <ALOGPS_SOLUBILITY>
2.01e-02 g/l

> <JCHEM_TRADITIONAL_IUPAC>
N-{2,7-bis[(3R,5S)-3,5-dimethylpiperidin-1-ylsulfonyl]-10-(hydroxyimino)anthracen-9-ylidene}hydroxylamine

> <JCHEM_VEBER_RULE>
0

> <DRUGBANK_ID>
DB17109

> <DRUG_GROUPS>
investigational

> <GENERIC_NAME>
Tegavivint

> <SYNONYMS>
9,10-anthracenedione, 2,7-bis(((3r,5s)-3,5-dimethyl-1-piperidinyl)sulfonyl)-, 9,10-dioxime, rel-; Tegavivint

$$$$
