
  Mrv1572004221603122D          

 18 19  0  0  0  0            999 V2000
    7.8592   -1.2375    0.0000 C   0  0  0  0  0  0  0  0  0  0  0  0
    3.5724   -0.4125    0.0000 C   0  0  0  0  0  0  0  0  0  0  0  0
    2.8579    0.0000    0.0000 C   0  0  0  0  0  0  0  0  0  0  0  0
    4.2868    0.0000    0.0000 C   0  0  0  0  0  0  0  0  0  0  0  0
    2.8579    0.8250    0.0000 C   0  0  0  0  0  0  0  0  0  0  0  0
    7.1447    0.8250    0.0000 C   0  0  0  0  0  0  0  0  0  0  0  0
    6.4302    1.2375    0.0000 C   0  0  0  0  0  0  0  0  0  0  0  0
    6.4302   -0.4125    0.0000 C   0  0  0  0  0  0  0  0  0  0  0  0
    7.1447   -0.0000    0.0000 C   0  0  0  0  0  0  0  0  0  0  0  0
    4.2868    0.8250    0.0000 C   0  0  0  0  0  0  0  0  0  0  0  0
    5.7158    0.8250    0.0000 C   0  0  0  0  0  0  0  0  0  0  0  0
    3.5724    1.2375    0.0000 C   0  0  0  0  0  0  0  0  0  0  0  0
    5.7158    0.0000    0.0000 C   0  0  0  0  0  0  0  0  0  0  0  0
    5.0013    1.2375    0.0000 C   0  0  0  0  0  0  0  0  0  0  0  0
    3.5724    2.0625    0.0000 O   0  0  0  0  0  0  0  0  0  0  0  0
    5.0013   -0.4125    0.0000 O   0  0  0  0  0  0  0  0  0  0  0  0
    5.0013    2.0625    0.0000 O   0  0  0  0  0  0  0  0  0  0  0  0
    7.8592   -0.4125    0.0000 O   0  0  0  0  0  0  0  0  0  0  0  0
  3  2  2  0  0  0  0
  4  2  1  0  0  0  0
  5  3  1  0  0  0  0
  7  6  2  0  0  0  0
  9  6  1  0  0  0  0
  9  8  2  0  0  0  0
 10  4  2  0  0  0  0
 11  7  1  0  0  0  0
 12  5  2  0  0  0  0
 12 10  1  0  0  0  0
 13  8  1  0  0  0  0
 13 11  2  0  0  0  0
 14 10  1  0  0  0  0
 14 11  1  0  0  0  0
 15 12  1  0  0  0  0
 16 13  1  0  0  0  0
 17 14  2  0  0  0  0
 18  1  1  0  0  0  0
 18  9  1  0  0  0  0
M  END
> <DATABASE_ID>
DB11221

> <DATABASE_NAME>
drugbank

> <SMILES>
COC1=CC(O)=C(C=C1)C(=O)C1=CC=CC=C1O

> <INCHI_IDENTIFIER>
InChI=1S/C14H12O4/c1-18-9-6-7-11(13(16)8-9)14(17)10-4-2-3-5-12(10)15/h2-8,15-16H,1H3

> <INCHI_KEY>
MEZZCSHVIGVWFI-UHFFFAOYSA-N

> <FORMULA>
C14H12O4

> <MOLECULAR_WEIGHT>
244.246

> <EXACT_MASS>
244.073558866

> <JCHEM_ACCEPTOR_COUNT>
4

> <JCHEM_ATOM_COUNT>
30

> <JCHEM_AVERAGE_POLARIZABILITY>
24.806725498165267

> <JCHEM_BIOAVAILABILITY>
1

> <JCHEM_DONOR_COUNT>
2

> <JCHEM_FORMAL_CHARGE>
0

> <JCHEM_GHOSE_FILTER>
1

> <JCHEM_IUPAC>
2-(2-hydroxybenzoyl)-5-methoxyphenol

> <ALOGPS_LOGP>
3.15

> <JCHEM_LOGP>
3.967796944333333

> <ALOGPS_LOGS>
-3.22

> <JCHEM_MDDR_LIKE_RULE>
0

> <JCHEM_NUMBER_OF_RINGS>
2

> <JCHEM_PHYSIOLOGICAL_CHARGE>
-1

> <JCHEM_PKA>
7.431421088552028

> <JCHEM_PKA_STRONGEST_ACIDIC>
6.780698074091342

> <JCHEM_PKA_STRONGEST_BASIC>
-4.84933392935937

> <JCHEM_POLAR_SURFACE_AREA>
66.76

> <JCHEM_REFRACTIVITY>
67.05850000000001

> <JCHEM_ROTATABLE_BOND_COUNT>
3

> <JCHEM_RULE_OF_FIVE>
1

> <ALOGPS_SOLUBILITY>
1.48e-01 g/l

> <JCHEM_TRADITIONAL_IUPAC>
dioxybenzone

> <JCHEM_VEBER_RULE>
0

> <DRUGBANK_ID>
DB11221

> <DRUG_GROUPS>
approved

> <GENERIC_NAME>
Dioxybenzone

> <SYNONYMS>
2,2'-Dihydroxy-4-methoxybenzophenone; Dioxybenzone

> <PRODUCTS>
Hydroquinone with sunscreens; Nuquin Hp; Perrigo Hydroquinone with sunscreens; Viquin Forte With Moisturizing Aha - Crm

$$$$
