
  Mrv1909 03042017042D          

 22 23  0  0  0  0            999 V2000
    2.1435   -2.0625    0.0000 N   0  0  0  0  0  0  0  0  0  0  0  0
    2.8579   -1.6500    0.0000 C   0  0  0  0  0  0  0  0  0  0  0  0
    1.4290   -0.8249    0.0000 C   0  0  0  0  0  0  0  0  0  0  0  0
    2.1435   -0.4124    0.0000 C   0  0  0  0  0  0  0  0  0  0  0  0
    1.4290   -1.6500    0.0000 C   0  0  0  0  0  0  0  0  0  0  0  0
    0.7144   -2.0625    0.0000 C   0  0  0  0  0  0  0  0  0  0  0  0
    0.7144   -0.4124    0.0000 C   0  0  0  0  0  0  0  0  0  0  0  0
    0.0000   -1.6500    0.0000 C   0  0  0  0  0  0  0  0  0  0  0  0
    2.8579   -0.8249    0.0000 C   0  0  0  0  0  0  0  0  0  0  0  0
    0.0000   -0.8249    0.0000 C   0  0  0  0  0  0  0  0  0  0  0  0
   -0.7144   -2.0625    0.0000 Cl  0  0  0  0  0  0  0  0  0  0  0  0
    2.1435    0.4125    0.0000 N   0  0  0  0  0  0  0  0  0  0  0  0
   -1.4289    0.8250    0.0000 N   0  0  0  0  0  0  0  0  0  0  0  0
    1.4290    0.8250    0.0000 C   0  0  0  0  0  0  0  0  0  0  0  0
    0.0000    0.8250    0.0000 C   0  0  0  0  0  0  0  0  0  0  0  0
   -0.7144    0.4125    0.0000 C   0  0  0  0  0  0  0  0  0  0  0  0
   -1.4289    1.6501    0.0000 C   0  0  0  0  0  0  0  0  0  0  0  0
   -2.1434    0.4125    0.0000 C   0  0  0  0  0  0  0  0  0  0  0  0
    0.7145    0.4125    0.0000 C   0  0  0  0  0  0  0  0  0  0  0  0
    1.4290    1.6501    0.0000 C   0  0  0  0  0  0  0  0  0  0  0  0
   -2.1434    2.0625    0.0000 C   0  0  0  0  0  0  0  0  0  0  0  0
   -2.8579    0.8250    0.0000 C   0  0  0  0  0  0  0  0  0  0  0  0
  1  2  2  0  0  0  0
  3  4  1  0  0  0  0
 12  4  1  0  0  0  0
  5  1  1  0  0  0  0
  3  5  1  0  0  0  0
  6  5  2  0  0  0  0
  3  7  2  0  0  0  0
  8  6  1  0  0  0  0
 11  8  1  0  0  0  0
  9  4  2  0  0  0  0
  2  9  1  0  0  0  0
 10  8  2  0  0  0  0
  7 10  1  0  0  0  0
 14 12  1  0  0  0  0
 16 13  1  0  0  0  0
 17 13  1  0  0  0  0
 18 13  1  0  0  0  0
 19 14  1  0  0  0  0
 20 14  1  0  0  0  0
 19 15  1  0  0  0  0
 16 15  1  0  0  0  0
 21 17  1  0  0  0  0
 22 18  1  0  0  0  0
M  END
> <DATABASE_ID>
DB00608

> <DATABASE_NAME>
drugbank

> <SMILES>
CCN(CC)CCCC(C)NC1=CC=NC2=CC(Cl)=CC=C12

> <INCHI_IDENTIFIER>
InChI=1S/C18H26ClN3/c1-4-22(5-2)12-6-7-14(3)21-17-10-11-20-18-13-15(19)8-9-16(17)18/h8-11,13-14H,4-7,12H2,1-3H3,(H,20,21)

> <INCHI_KEY>
WHTVZRBIWZFKQO-UHFFFAOYSA-N

> <FORMULA>
C18H26ClN3

> <MOLECULAR_WEIGHT>
319.872

> <EXACT_MASS>
319.181525554

> <JCHEM_ACCEPTOR_COUNT>
3

> <JCHEM_ATOM_COUNT>
48

> <JCHEM_AVERAGE_NEUTRAL_MICROSPECIES_CHARGE>
1.6580820943559722

> <JCHEM_AVERAGE_POLARIZABILITY>
37.287903416928586

> <JCHEM_BIOAVAILABILITY>
1

> <JCHEM_DONOR_COUNT>
1

> <JCHEM_FORMAL_CHARGE>
0

> <JCHEM_GHOSE_FILTER>
1

> <JCHEM_IUPAC>
7-chloro-N-[5-(diethylamino)pentan-2-yl]quinolin-4-amine

> <ALOGPS_LOGP>
5.28

> <JCHEM_LOGP>
3.933881141333334

> <ALOGPS_LOGS>
-4.26

> <JCHEM_MDDR_LIKE_RULE>
0

> <JCHEM_NEUTRAL_CHARGE>
2

> <JCHEM_NUMBER_OF_RINGS>
2

> <JCHEM_PHYSIOLOGICAL_CHARGE>
2

> <JCHEM_PKA_STRONGEST_BASIC>
10.324447273782475

> <JCHEM_POLAR_SURFACE_AREA>
28.16

> <JCHEM_REFRACTIVITY>
96.42300000000002

> <JCHEM_ROTATABLE_BOND_COUNT>
8

> <JCHEM_RULE_OF_FIVE>
1

> <ALOGPS_SOLUBILITY>
1.75e-02 g/l

> <JCHEM_TRADITIONAL_IUPAC>
6-bromo-4-[(dimethylamino)methyl]-3-(ethoxycarbonyl)-2-[(phenylsulfanyl)methyl]-1H-indol-5-yl sulfate

> <JCHEM_VEBER_RULE>
1

> <DRUGBANK_ID>
DB00608

> <SECONDARY_ACCESSION_NUMBERS>
APRD00468

> <DRUG_GROUPS>
approved; investigational; vet_approved

> <GENERIC_NAME>
Chloroquine

> <SYNONYMS>
Chloraquine; Chlorochin; Chloroquina; Chloroquine; Chloroquinium; Chloroquinum; Cloroquina; N4-(7-chloro-4-quinolinyl)-N1,N1-diethyl-1,4-pentanediamine

> <PRODUCTS>
Aralen; Chloroquine; Chloroquine Phosphate; Chloroquine phosphate; Teva-chloroquine

> <INTERNATIONAL_BRANDS>
Artrichin; Bemaphate; Capquin; Malarex; Nivaquine B; Resoquine; Reumachlor; Sanoquin

> <SALTS>
Chloroquine hydrochloride; Chloroquine phosphate; Chloroquine sulfate

$$$$
