
  Mrv1652306031606102D          

 25 26  0  0  0  0            999 V2000
    1.4289   -2.4750    0.0000 C   0  0  0  0  0  0  0  0  0  0  0  0
    2.5559   -2.7770    0.0000 C   0  0  0  0  0  0  0  0  0  0  0  0
    1.7309   -1.3480    0.0000 C   0  0  0  0  0  0  0  0  0  0  0  0
    3.5724   -0.4125    0.0000 C   0  0  0  0  0  0  0  0  0  0  0  0
    4.2868   -1.6500    0.0000 C   0  0  0  0  0  0  0  0  0  0  0  0
    5.0013   -0.4125    0.0000 C   0  0  0  0  0  0  0  0  0  0  0  0
   10.0026   -0.8250    0.0000 C   0  0  0  0  0  0  0  0  0  0  0  0
    9.2881   -2.0625    0.0000 C   0  0  0  0  0  0  0  0  0  0  0  0
    2.8579   -0.8250    0.0000 C   0  0  0  0  0  0  0  0  0  0  0  0
    3.5724   -2.0625    0.0000 C   0  0  0  0  0  0  0  0  0  0  0  0
    5.7158   -0.8250    0.0000 C   0  0  0  0  0  0  0  0  0  0  0  0
    9.2881   -0.4125    0.0000 C   0  0  0  0  0  0  0  0  0  0  0  0
    8.5737   -1.6500    0.0000 C   0  0  0  0  0  0  0  0  0  0  0  0
    7.1447   -0.8250    0.0000 C   0  0  0  0  0  0  0  0  0  0  0  0
    4.2868   -0.8250    0.0000 C   0  0  0  0  0  0  0  0  0  0  0  0
   10.0026   -1.6500    0.0000 C   0  0  0  0  0  0  0  0  0  0  0  0
    2.8579   -1.6500    0.0000 C   0  0  0  0  0  0  0  0  0  0  0  0
    6.4302   -0.4125    0.0000 C   0  0  0  0  0  0  0  0  0  0  0  0
    8.5737   -0.8250    0.0000 C   0  0  0  0  0  0  0  0  0  0  0  0
   10.7171   -2.0625    0.0000 C   0  0  0  0  0  0  0  0  0  0  0  0
    2.1434   -2.0625    0.0000 C   0  0  0  0  0  0  0  0  0  0  0  0
    6.4302    0.4125    0.0000 O   0  0  0  0  0  0  0  0  0  0  0  0
   11.4315   -1.6500    0.0000 O   0  0  0  0  0  0  0  0  0  0  0  0
   10.7171   -2.8875    0.0000 O   0  0  0  0  0  0  0  0  0  0  0  0
    7.8592   -0.4125    0.0000 O   0  0  0  0  0  0  0  0  0  0  0  0
  9  4  1  0  0  0  0
 10  5  2  0  0  0  0
 11  6  1  0  0  0  0
 12  7  1  0  0  0  0
 13  8  2  0  0  0  0
 15  4  2  0  0  0  0
 15  5  1  0  0  0  0
 15  6  1  0  0  0  0
 16  7  2  0  0  0  0
 16  8  1  0  0  0  0
 17  9  2  0  0  0  0
 17 10  1  0  0  0  0
 18 11  1  0  0  0  0
 18 14  1  0  0  0  0
 19 12  2  0  0  0  0
 19 13  1  0  0  0  0
 20 16  1  0  0  0  0
 21  1  1  0  0  0  0
 21  2  1  0  0  0  0
 21  3  1  0  0  0  0
 21 17  1  0  0  0  0
 22 18  1  0  0  0  0
 23 20  1  0  0  0  0
 24 20  2  0  0  0  0
 25 14  1  0  0  0  0
 25 19  1  0  0  0  0
M  END
> <DATABASE_ID>
DB12448

> <DATABASE_NAME>
drugbank

> <SMILES>
CC(C)(C)C1=CC=C(CCC(O)COC2=CC=C(C=C2)C(O)=O)C=C1

> <INCHI_IDENTIFIER>
InChI=1S/C21H26O4/c1-21(2,3)17-9-4-15(5-10-17)6-11-18(22)14-25-19-12-7-16(8-13-19)20(23)24/h4-5,7-10,12-13,18,22H,6,11,14H2,1-3H3,(H,23,24)

> <INCHI_KEY>
LNXBEIZREVRNTF-UHFFFAOYSA-N

> <FORMULA>
C21H26O4

> <MOLECULAR_WEIGHT>
342.435

> <EXACT_MASS>
342.183109317

> <JCHEM_ACCEPTOR_COUNT>
4

> <JCHEM_ATOM_COUNT>
51

> <JCHEM_AVERAGE_POLARIZABILITY>
39.33376972430059

> <JCHEM_BIOAVAILABILITY>
1

> <JCHEM_DONOR_COUNT>
2

> <JCHEM_FORMAL_CHARGE>
0

> <JCHEM_GHOSE_FILTER>
1

> <JCHEM_IUPAC>
4-[4-(4-tert-butylphenyl)-2-hydroxybutoxy]benzoic acid

> <ALOGPS_LOGP>
4.69

> <JCHEM_LOGP>
4.8455817743333345

> <ALOGPS_LOGS>
-4.77

> <JCHEM_MDDR_LIKE_RULE>
0

> <JCHEM_NUMBER_OF_RINGS>
2

> <JCHEM_PHYSIOLOGICAL_CHARGE>
-1

> <JCHEM_PKA>
14.437690734000693

> <JCHEM_PKA_STRONGEST_ACIDIC>
4.35885390598517

> <JCHEM_PKA_STRONGEST_BASIC>
-3.0447540777477045

> <JCHEM_POLAR_SURFACE_AREA>
66.76

> <JCHEM_REFRACTIVITY>
98.37439999999997

> <JCHEM_ROTATABLE_BOND_COUNT>
8

> <JCHEM_RULE_OF_FIVE>
1

> <ALOGPS_SOLUBILITY>
5.86e-03 g/l

> <JCHEM_TRADITIONAL_IUPAC>
lifibrol

> <JCHEM_VEBER_RULE>
0

> <DRUGBANK_ID>
DB12448

> <DRUG_GROUPS>
investigational

> <GENERIC_NAME>
Lifibrol

> <SYNONYMS>
Lifibrol

$$$$
