
  Mrv1652306231722412D          

 15 15  0  0  0  0            999 V2000
    1.4289    0.0000    0.0000 C   0  0  0  0  0  0  0  0  0  0  0  0
    0.7145   -0.4125    0.0000 C   0  0  0  0  0  0  0  0  0  0  0  0
   -0.0000    0.0000    0.0000 C   0  0  0  0  0  0  0  0  0  0  0  0
    0.0000    0.8250    0.0000 C   0  0  0  0  0  0  0  0  0  0  0  0
    0.7145    1.2375    0.0000 C   0  0  0  0  0  0  0  0  0  0  0  0
    1.4289    0.8250    0.0000 C   0  0  0  0  0  0  0  0  0  0  0  0
    0.7145    2.0625    0.0000 Cl  0  0  0  0  0  0  0  0  0  0  0  0
   -0.7145    1.2375    0.0000 C   0  0  0  0  0  0  0  0  0  0  0  0
   -0.7145    2.0625    0.0000 N   0  0  0  0  0  0  0  0  0  0  0  0
   -1.4289    2.4750    0.0000 N   0  0  0  0  0  0  0  0  0  0  0  0
   -2.1434    2.0625    0.0000 C   0  0  0  0  0  0  0  0  0  0  0  0
   -2.1434    1.2375    0.0000 N   0  0  0  0  0  0  0  0  0  0  0  0
   -2.8579    2.4750    0.0000 N   0  0  0  0  0  0  0  0  0  0  0  0
   -3.5724    2.0625    0.0000 O   0  0  0  0  0  0  0  0  0  0  0  0
   -0.7145   -0.4125    0.0000 Cl  0  0  0  0  0  0  0  0  0  0  0  0
  1  2  2  0  0  0  0
  2  3  1  0  0  0  0
  3  4  2  0  0  0  0
  4  5  1  0  0  0  0
  5  6  2  0  0  0  0
  1  6  1  0  0  0  0
  5  7  1  0  0  0  0
  4  8  1  0  0  0  0
  8  9  2  0  0  0  0
  9 10  1  0  0  0  0
 10 11  1  0  0  0  0
 11 12  2  0  0  0  0
 11 13  1  0  0  0  0
 13 14  1  0  0  0  0
  3 15  1  0  0  0  0
M  END
> <DATABASE_ID>
DB13410

> <DATABASE_NAME>
drugbank

> <SMILES>
ONC(=N)N\N=C\C1=C(Cl)C=CC=C1Cl

> <INCHI_IDENTIFIER>
InChI=1S/C8H8Cl2N4O/c9-6-2-1-3-7(10)5(6)4-12-13-8(11)14-15/h1-4,15H,(H3,11,13,14)/b12-4+

> <INCHI_KEY>
QKIQJNNDIWGVEH-UUILKARUSA-N

> <FORMULA>
C8H8Cl2N4O

> <MOLECULAR_WEIGHT>
247.08

> <EXACT_MASS>
246.0075163

> <JCHEM_ACCEPTOR_COUNT>
5

> <JCHEM_ATOM_COUNT>
23

> <JCHEM_AVERAGE_POLARIZABILITY>
22.35877958902029

> <JCHEM_BIOAVAILABILITY>
1

> <JCHEM_DONOR_COUNT>
4

> <JCHEM_FORMAL_CHARGE>
0

> <JCHEM_GHOSE_FILTER>
1

> <JCHEM_IUPAC>
N'-[(E)-[(2,6-dichlorophenyl)methylidene]amino]-N-hydroxyguanidine

> <ALOGPS_LOGP>
2.29

> <JCHEM_LOGP>
2.2369839103333335

> <ALOGPS_LOGS>
-3.41

> <JCHEM_MDDR_LIKE_RULE>
0

> <JCHEM_NUMBER_OF_RINGS>
1

> <JCHEM_PHYSIOLOGICAL_CHARGE>
0

> <JCHEM_PKA_STRONGEST_ACIDIC>
14.792689555498448

> <JCHEM_PKA_STRONGEST_BASIC>
6.254576115093447

> <JCHEM_POLAR_SURFACE_AREA>
80.5

> <JCHEM_REFRACTIVITY>
91.3177

> <JCHEM_ROTATABLE_BOND_COUNT>
2

> <JCHEM_RULE_OF_FIVE>
1

> <ALOGPS_SOLUBILITY>
9.51e-02 g/l

> <JCHEM_TRADITIONAL_IUPAC>
guanoxabenz

> <JCHEM_VEBER_RULE>
0

> <DRUGBANK_ID>
DB13410

> <DRUG_GROUPS>
experimental

> <GENERIC_NAME>
Guanoxabenz

> <SYNONYMS>
Guanoxabenz

$$$$
