
  Mrv1718002101817022D          

  3  0  0  0  0  0            999 V2000
   -0.4125    0.0000    0.0000 Sr  0  2  0  0  0  0  0  0  0  0  0  0
    0.4125   -0.8250    0.0000 Cl  0  5  0  0  0  0  0  0  0  0  0  0
    0.4125    0.8250    0.0000 Cl  0  5  0  0  0  0  0  0  0  0  0  0
M  CHG  3   1   2   2  -1   3  -1
M  END
> <DATABASE_ID>
DB13987

> <DATABASE_NAME>
drugbank

> <SMILES>
[Cl-].[Cl-].[Sr++]

> <INCHI_IDENTIFIER>
InChI=1S/2ClH.Sr/h2*1H;/q;;+2/p-2

> <INCHI_KEY>
AHBGXTDRMVNFER-UHFFFAOYSA-L

> <FORMULA>
Cl2Sr

> <MOLECULAR_WEIGHT>
158.52

> <EXACT_MASS>
157.843318

> <JCHEM_ACCEPTOR_COUNT>
0

> <JCHEM_ATOM_COUNT>
3

> <JCHEM_AVERAGE_POLARIZABILITY>
1.7784

> <JCHEM_BIOAVAILABILITY>
1

> <JCHEM_DONOR_COUNT>
0

> <JCHEM_FORMAL_CHARGE>
0

> <JCHEM_GHOSE_FILTER>
0

> <JCHEM_IUPAC>
strontium(2+) dichloride

> <ALOGPS_LOGP>
0.84

> <JCHEM_LOGP>
-0.3

> <ALOGPS_LOGS>
-0.49

> <JCHEM_MDDR_LIKE_RULE>
0

> <JCHEM_NUMBER_OF_RINGS>
0

> <JCHEM_PHYSIOLOGICAL_CHARGE>
2

> <JCHEM_PKA>
3.55

> <JCHEM_PKA_STRONGEST_ACIDIC>
3.09

> <JCHEM_POLAR_SURFACE_AREA>
0.0

> <JCHEM_REFRACTIVITY>
0.0

> <JCHEM_ROTATABLE_BOND_COUNT>
0

> <JCHEM_RULE_OF_FIVE>
1

> <ALOGPS_SOLUBILITY>
5.18e+01 g/l

> <JCHEM_TRADITIONAL_IUPAC>
SrCl2

> <JCHEM_VEBER_RULE>
1

> <DRUGBANK_ID>
DB13987

> <DRUG_GROUPS>
approved

> <GENERIC_NAME>
Strontium chloride

> <SYNONYMS>
strontium dichloride

> <PRODUCTS>
Lorvic Desensitizer

> <SALTS>
Strontium chloride hexahydrate

$$$$
