
  Mrv1652310211601422D          

 33 36  0  0  1  0            999 V2000
    2.1434    2.0625    0.0000 C   0  0  0  0  0  0  0  0  0  0  0  0
    2.1434    1.2375    0.0000 C   0  0  0  0  0  0  0  0  0  0  0  0
    1.4289    0.8250    0.0000 C   0  0  0  0  0  0  0  0  0  0  0  0
    1.4289   -0.0000    0.0000 C   0  0  0  0  0  0  0  0  0  0  0  0
    0.7145   -0.4125    0.0000 C   0  0  0  0  0  0  0  0  0  0  0  0
    0.0000   -0.0000    0.0000 C   0  0  0  0  0  0  0  0  0  0  0  0
    0.0000    0.8250    0.0000 C   0  0  0  0  0  0  0  0  0  0  0  0
    0.7145    1.2375    0.0000 C   0  0  0  0  0  0  0  0  0  0  0  0
    0.7145    2.0625    0.0000 O   0  0  0  0  0  0  0  0  0  0  0  0
    0.0000    2.4750    0.0000 C   0  0  0  0  0  0  0  0  0  0  0  0
   -0.0000    3.3000    0.0000 C   0  0  2  0  0  0  0  0  0  0  0  0
   -0.7145    3.7125    0.0000 C   0  0  0  0  0  0  0  0  0  0  0  0
   -0.7145    4.5375    0.0000 O   0  0  0  0  0  0  0  0  0  0  0  0
    0.7145    3.7125    0.0000 O   0  0  0  0  0  0  0  0  0  0  0  0
   -0.7145    1.2375    0.0000 C   0  0  0  0  0  0  0  0  0  0  0  0
    0.7145   -1.2375    0.0000 C   0  0  0  0  0  0  0  0  0  0  0  0
    1.3819   -1.7224    0.0000 N   0  0  0  0  0  0  0  0  0  0  0  0
    1.1270   -2.5070    0.0000 C   0  0  0  0  0  0  0  0  0  0  0  0
    0.3020   -2.5070    0.0000 O   0  0  0  0  0  0  0  0  0  0  0  0
    0.0470   -1.7224    0.0000 N   0  0  0  0  0  0  0  0  0  0  0  0
    1.6119   -3.1745    0.0000 C   0  0  0  0  0  0  0  0  0  0  0  0
    2.4324   -3.0882    0.0000 C   0  0  0  0  0  0  0  0  0  0  0  0
    2.9173   -3.7557    0.0000 C   0  0  0  0  0  0  0  0  0  0  0  0
    2.5817   -4.5094    0.0000 N   0  0  0  0  0  0  0  0  0  0  0  0
    1.7613   -4.5956    0.0000 C   0  0  0  0  0  0  0  0  0  0  0  0
    1.2763   -3.9282    0.0000 C   0  0  0  0  0  0  0  0  0  0  0  0
    1.4257   -5.3493    0.0000 O   0  0  0  0  0  0  0  0  0  0  0  0
    0.6052   -5.4355    0.0000 C   0  0  0  0  0  0  0  0  0  0  0  0
    3.7378   -3.6695    0.0000 C   0  0  0  0  0  0  0  0  0  0  0  0
    4.1503   -2.9550    0.0000 C   0  0  0  0  0  0  0  0  0  0  0  0
    4.9572   -3.1265    0.0000 C   0  0  0  0  0  0  0  0  0  0  0  0
    5.0435   -3.9470    0.0000 C   0  0  0  0  0  0  0  0  0  0  0  0
    4.2898   -4.2825    0.0000 C   0  0  0  0  0  0  0  0  0  0  0  0
  1  2  1  0  0  0  0
  2  3  1  0  0  0  0
  3  4  2  0  0  0  0
  4  5  1  0  0  0  0
  5  6  2  0  0  0  0
  6  7  1  0  0  0  0
  7  8  2  0  0  0  0
  3  8  1  0  0  0  0
  8  9  1  0  0  0  0
  9 10  1  0  0  0  0
 10 11  1  0  0  0  0
 11 12  1  0  0  0  0
 12 13  1  0  0  0  0
 11 14  1  6  0  0  0
  7 15  1  0  0  0  0
  5 16  1  0  0  0  0
 16 17  1  0  0  0  0
 17 18  2  0  0  0  0
 18 19  1  0  0  0  0
 19 20  1  0  0  0  0
 16 20  2  0  0  0  0
 18 21  1  0  0  0  0
 21 22  2  0  0  0  0
 22 23  1  0  0  0  0
 23 24  2  0  0  0  0
 24 25  1  0  0  0  0
 25 26  2  0  0  0  0
 21 26  1  0  0  0  0
 25 27  1  0  0  0  0
 27 28  1  0  0  0  0
 23 29  1  0  0  0  0
 29 30  1  0  0  0  0
 30 31  1  0  0  0  0
 31 32  1  0  0  0  0
 32 33  1  0  0  0  0
 29 33  1  0  0  0  0
M  END
> <DATABASE_ID>
DB12705

> <DATABASE_NAME>
drugbank

> <SMILES>
CCC1=CC(=CC(C)=C1OC[C@@H](O)CO)C1=NOC(=N1)C1=CC(=NC(OC)=C1)C1CCCC1

> <INCHI_IDENTIFIER>
InChI=1S/C25H31N3O5/c1-4-16-10-18(9-15(2)23(16)32-14-20(30)13-29)24-27-25(33-28-24)19-11-21(17-7-5-6-8-17)26-22(12-19)31-3/h9-12,17,20,29-30H,4-8,13-14H2,1-3H3/t20-/m0/s1

> <INCHI_KEY>
KJKKMMMRWISKRF-FQEVSTJZSA-N

> <FORMULA>
C25H31N3O5

> <MOLECULAR_WEIGHT>
453.539

> <EXACT_MASS>
453.22637111

> <JCHEM_ACCEPTOR_COUNT>
7

> <JCHEM_ATOM_COUNT>
64

> <JCHEM_AVERAGE_POLARIZABILITY>
51.938696083145636

> <JCHEM_BIOAVAILABILITY>
1

> <JCHEM_DONOR_COUNT>
2

> <JCHEM_FORMAL_CHARGE>
0

> <JCHEM_GHOSE_FILTER>
0

> <JCHEM_IUPAC>
(2S)-3-{4-[5-(2-cyclopentyl-6-methoxypyridin-4-yl)-1,2,4-oxadiazol-3-yl]-2-ethyl-6-methylphenoxy}propane-1,2-diol

> <ALOGPS_LOGP>
3.98

> <JCHEM_LOGP>
5.053835320000001

> <ALOGPS_LOGS>
-3.79

> <JCHEM_MDDR_LIKE_RULE>
1

> <JCHEM_NUMBER_OF_RINGS>
4

> <JCHEM_PHYSIOLOGICAL_CHARGE>
0

> <JCHEM_PKA>
15.562421608017395

> <JCHEM_PKA_STRONGEST_ACIDIC>
13.624273748019338

> <JCHEM_PKA_STRONGEST_BASIC>
0.6173723503748811

> <JCHEM_POLAR_SURFACE_AREA>
110.73

> <JCHEM_REFRACTIVITY>
146.40070000000003

> <JCHEM_ROTATABLE_BOND_COUNT>
9

> <JCHEM_RULE_OF_FIVE>
0

> <ALOGPS_SOLUBILITY>
7.44e-02 g/l

> <JCHEM_TRADITIONAL_IUPAC>
(2S)-3-{4-[5-(2-cyclopentyl-6-methoxypyridin-4-yl)-1,2,4-oxadiazol-3-yl]-2-ethyl-6-methylphenoxy}propane-1,2-diol

> <JCHEM_VEBER_RULE>
0

> <DRUGBANK_ID>
DB12705

> <DRUG_GROUPS>
investigational

> <GENERIC_NAME>
Cenerimod

> <SYNONYMS>
Cenerimod

$$$$
