
  Mrv1909 02252022372D          

  8  7  0  0  0  0            999 V2000
   -0.7145    0.2062    0.0000 C   0  0  0  0  0  0  0  0  0  0  0  0
    0.0000   -0.2062    0.0000 C   0  0  0  0  0  0  0  0  0  0  0  0
    0.7145    0.2062    0.0000 C   0  0  0  0  0  0  0  0  0  0  0  0
   -1.4289   -0.2062    0.0000 O   0  0  0  0  0  0  0  0  0  0  0  0
   -0.7145    1.0312    0.0000 O   0  0  0  0  0  0  0  0  0  0  0  0
    1.4289   -0.2062    0.0000 O   0  0  0  0  0  0  0  0  0  0  0  0
    0.7145    1.0312    0.0000 O   0  0  0  0  0  0  0  0  0  0  0  0
    0.0000   -1.0312    0.0000 O   0  0  0  0  0  0  0  0  0  0  0  0
  2  1  1  0  0  0  0
  5  1  2  0  0  0  0
  4  1  1  0  0  0  0
  3  2  1  0  0  0  0
  8  2  2  0  0  0  0
  7  3  2  0  0  0  0
  6  3  1  0  0  0  0
M  END
> <DATABASE_ID>
DB03589

> <DATABASE_NAME>
drugbank

> <SMILES>
OC(=O)C(=O)C(O)=O

> <INCHI_IDENTIFIER>
InChI=1S/C3H2O5/c4-1(2(5)6)3(7)8/h(H,5,6)(H,7,8)

> <INCHI_KEY>
XEEVLJKYYUVTRC-UHFFFAOYSA-N

> <FORMULA>
C3H2O5

> <MOLECULAR_WEIGHT>
118.045

> <EXACT_MASS>
117.990223174

> <JCHEM_ACCEPTOR_COUNT>
5

> <JCHEM_ATOM_COUNT>
10

> <JCHEM_AVERAGE_NEUTRAL_MICROSPECIES_CHARGE>
-0.030521527799593377

> <JCHEM_AVERAGE_POLARIZABILITY>
8.049007816495578

> <JCHEM_BIOAVAILABILITY>
1

> <JCHEM_DONOR_COUNT>
2

> <JCHEM_FORMAL_CHARGE>
0

> <JCHEM_GHOSE_FILTER>
0

> <JCHEM_IUPAC>
2-oxopropanedioic acid

> <ALOGPS_LOGP>
-0.43

> <JCHEM_LOGP>
0.025468098333333355

> <ALOGPS_LOGS>
-0.91

> <JCHEM_MDDR_LIKE_RULE>
0

> <JCHEM_NEUTRAL_CHARGE>
-2

> <JCHEM_NUMBER_OF_RINGS>
0

> <JCHEM_PHYSIOLOGICAL_CHARGE>
-2

> <JCHEM_PKA>
2.72307514560714

> <JCHEM_PKA_STRONGEST_ACIDIC>
1.5608712626362864

> <JCHEM_POLAR_SURFACE_AREA>
91.66999999999999

> <JCHEM_REFRACTIVITY>
19.7846

> <JCHEM_ROTATABLE_BOND_COUNT>
2

> <JCHEM_RULE_OF_FIVE>
1

> <ALOGPS_SOLUBILITY>
1.45e+01 g/l

> <JCHEM_TRADITIONAL_IUPAC>
mesoxalic acid

> <JCHEM_VEBER_RULE>
0

> <DRUGBANK_ID>
DB03589

> <SECONDARY_ACCESSION_NUMBERS>
EXPT02110

> <DRUG_GROUPS>
experimental

> <GENERIC_NAME>
Mesoxalic acid

> <SYNONYMS>
alpha-Ketomalonic acid; Ketomalonic acid; Oxomalonic acid

$$$$
