
  Mrv1572003301615042D          

128136  0  0  0  0            999 V2000
   -0.2474    1.2194    0.0000 C   0  0  0  0  0  0  0  0  0  0  0  0
    1.7953    0.0943    0.0000 C   0  0  0  0  0  0  0  0  0  0  0  0
   -6.1229    4.9764    0.0000 C   0  0  0  0  0  0  0  0  0  0  0  0
    1.5738    2.7467    0.0000 C   0  0  0  0  0  0  0  0  0  0  0  0
   -1.5776   -2.7257    0.0000 C   0  0  0  0  0  0  0  0  0  0  0  0
    6.1229   -4.9764    0.0000 C   0  0  0  0  0  0  0  0  0  0  0  0
   -1.9303   -0.0645    0.0000 C   0  0  0  0  0  0  0  0  0  0  0  0
    0.2749   -1.0876    0.0000 C   0  0  0  0  0  0  0  0  0  0  0  0
   -0.9957    1.4348    0.0000 C   0  0  0  0  0  0  0  0  0  0  0  0
    1.5694    0.8398    0.0000 C   0  0  0  0  0  0  0  0  0  0  0  0
   -5.8170    4.1928    0.0000 C   0  0  0  0  0  0  0  0  0  0  0  0
    2.0991    2.1100    0.0000 C   0  0  0  0  0  0  0  0  0  0  0  0
   -2.1027   -2.0946    0.0000 C   0  0  0  0  0  0  0  0  0  0  0  0
    5.8170   -4.1928    0.0000 C   0  0  0  0  0  0  0  0  0  0  0  0
   -1.5704   -0.7728    0.0000 C   0  0  0  0  0  0  0  0  0  0  0  0
    0.9015   -1.4883    0.0000 C   0  0  0  0  0  0  0  0  0  0  0  0
   -0.9910    2.9536    0.0000 C   0  0  0  0  0  0  0  0  0  0  0  0
    1.4706    2.2508    0.0000 C   0  0  0  0  0  0  0  0  0  0  0  0
   -4.5543    3.3385    0.0000 C   0  0  0  0  0  0  0  0  0  0  0  0
    3.0420    0.9240    0.0000 C   0  0  0  0  0  0  0  0  0  0  0  0
   -3.0017   -0.9003    0.0000 C   0  0  0  0  0  0  0  0  0  0  0  0
    4.5543   -3.3383    0.0000 C   0  0  0  0  0  0  0  0  0  0  0  0
   -1.4792   -2.2269    0.0000 C   0  0  0  0  0  0  0  0  0  0  0  0
    0.9926   -3.0116    0.0000 C   0  0  0  0  0  0  0  0  0  0  0  0
   -0.3253    3.4135    0.0000 C   0  0  2  0  0  0  0  0  0  0  0  0
    2.1836    2.6438    0.0000 C   0  0  2  0  0  0  0  0  0  0  0  0
   -3.7521    3.0616    0.0000 C   0  0  2  0  0  0  0  0  0  0  0  0
    3.4135    0.3253    0.0000 C   0  0  2  0  0  0  0  0  0  0  0  0
   -3.4135   -0.3253    0.0000 C   0  0  2  0  0  0  0  0  0  0  0  0
    3.7521   -3.0616    0.0000 C   0  0  2  0  0  0  0  0  0  0  0  0
   -2.1836   -2.6438    0.0000 C   0  0  2  0  0  0  0  0  0  0  0  0
    0.3253   -3.4135    0.0000 C   0  0  2  0  0  0  0  0  0  0  0  0
   -0.4270    0.2895    0.0000 C   0  0  0  0  0  0  0  0  0  0  0  0
    2.4807   -0.2910    0.0000 C   0  0  0  0  0  0  0  0  0  0  0  0
   -6.9548    5.0974    0.0000 C   0  0  0  0  0  0  0  0  0  0  0  0
    0.8647    2.2926    0.0000 C   0  0  0  0  0  0  0  0  0  0  0  0
   -0.8761   -2.2739    0.0000 C   0  0  0  0  0  0  0  0  0  0  0  0
    6.9547   -5.0974    0.0000 C   0  0  0  0  0  0  0  0  0  0  0  0
   -2.5586    0.5264    0.0000 C   0  0  0  0  0  0  0  0  0  0  0  0
    0.4963   -0.2590    0.0000 C   0  0  0  0  0  0  0  0  0  0  0  0
   -0.4882    4.8181    0.0000 C   0  0  2  0  0  0  0  0  0  0  0  0
   -2.6438    2.1836    0.0000 C   0  0  2  0  0  0  0  0  0  0  0  0
    3.0616    3.7521    0.0000 C   0  0  2  0  0  0  0  0  0  0  0  0
   -4.8181   -0.4882    0.0000 C   0  0  2  0  0  0  0  0  0  0  0  0
    4.8181    0.4882    0.0000 C   0  0  2  0  0  0  0  0  0  0  0  0
   -3.0616   -3.7521    0.0000 C   0  0  2  0  0  0  0  0  0  0  0  0
    2.6438   -2.1836    0.0000 C   0  0  2  0  0  0  0  0  0  0  0  0
    0.4882   -4.8181    0.0000 C   0  0  2  0  0  0  0  0  0  0  0  0
    0.3284    4.9125    0.0000 C   0  0  2  0  0  0  0  0  0  0  0  0
   -2.1380    2.8210    0.0000 C   0  0  2  0  0  0  0  0  0  0  0  0
    3.7060    3.2413    0.0000 C   0  0  2  0  0  0  0  0  0  0  0  0
   -4.9125    0.3284    0.0000 C   0  0  2  0  0  0  0  0  0  0  0  0
    4.9125   -0.3284    0.0000 C   0  0  2  0  0  0  0  0  0  0  0  0
   -3.7059   -3.2413    0.0000 C   0  0  2  0  0  0  0  0  0  0  0  0
    2.1380   -2.8210    0.0000 C   0  0  2  0  0  0  0  0  0  0  0  0
   -0.3284   -4.9125    0.0000 C   0  0  2  0  0  0  0  0  0  0  0  0
   -0.8307    4.0656    0.0000 C   0  0  2  0  0  0  0  0  0  0  0  0
    2.2874    3.4622    0.0000 C   0  0  2  0  0  0  0  0  0  0  0  0
   -3.4622    2.2874    0.0000 C   0  0  2  0  0  0  0  0  0  0  0  0
    4.0656    0.8307    0.0000 C   0  0  2  0  0  0  0  0  0  0  0  0
   -4.0656   -0.8307    0.0000 C   0  0  2  0  0  0  0  0  0  0  0  0
    3.4622   -2.2874    0.0000 C   0  0  2  0  0  0  0  0  0  0  0  0
   -2.2874   -3.4622    0.0000 C   0  0  2  0  0  0  0  0  0  0  0  0
    0.8307   -4.0656    0.0000 C   0  0  2  0  0  0  0  0  0  0  0  0
    0.8329    4.2524    0.0000 C   0  0  2  0  0  0  0  0  0  0  0  0
   -2.4179    3.5959    0.0000 C   0  0  2  0  0  0  0  0  0  0  0  0
    3.5959    2.4179    0.0000 C   0  0  2  0  0  0  0  0  0  0  0  0
   -4.2524    0.8329    0.0000 C   0  0  2  0  0  0  0  0  0  0  0  0
    4.2524   -0.8329    0.0000 C   0  0  2  0  0  0  0  0  0  0  0  0
   -3.5959   -2.4179    0.0000 C   0  0  2  0  0  0  0  0  0  0  0  0
    2.4179   -3.5959    0.0000 C   0  0  2  0  0  0  0  0  0  0  0  0
   -0.8329   -4.2524    0.0000 C   0  0  2  0  0  0  0  0  0  0  0  0
   -0.0637   -0.3993    0.0000 O   0  0  0  0  0  0  0  0  0  0  0  0
   -1.1631   -0.0129    0.0000 O   0  0  0  0  0  0  0  0  0  0  0  0
    3.1924   -0.1249    0.0000 O   0  0  0  0  0  0  0  0  0  0  0  0
    2.5131   -1.0219    0.0000 O   0  0  0  0  0  0  0  0  0  0  0  0
   -7.5234    4.4867    0.0000 O   0  0  0  0  0  0  0  0  0  0  0  0
   -7.2399    5.8767    0.0000 O   0  0  0  0  0  0  0  0  0  0  0  0
    0.6556    1.4650    0.0000 O   0  0  0  0  0  0  0  0  0  0  0  0
    0.2975    2.8321    0.0000 O   0  0  0  0  0  0  0  0  0  0  0  0
   -0.7046   -1.4527    0.0000 O   0  0  0  0  0  0  0  0  0  0  0  0
   -0.3271   -2.8282    0.0000 O   0  0  0  0  0  0  0  0  0  0  0  0
    7.5234   -4.4867    0.0000 O   0  0  0  0  0  0  0  0  0  0  0  0
    7.2399   -5.8767    0.0000 O   0  0  0  0  0  0  0  0  0  0  0  0
   -3.1874    0.1226    0.0000 O   0  0  0  0  0  0  0  0  0  0  0  0
   -2.6482    1.3550    0.0000 O   0  0  0  0  0  0  0  0  0  0  0  0
    0.1665    0.4024    0.0000 O   0  0  0  0  0  0  0  0  0  0  0  0
    1.2118   -0.0106    0.0000 O   0  0  0  0  0  0  0  0  0  0  0  0
   -0.8631    5.5771    0.0000 O   0  0  0  0  0  0  0  0  0  0  0  0
   -2.1604    1.8110    0.0000 O   0  0  0  0  0  0  0  0  0  0  0  0
    3.3439    4.5504    0.0000 O   0  0  0  0  0  0  0  0  0  0  0  0
   -5.5741   -0.8729    0.0000 O   0  0  0  0  0  0  0  0  0  0  0  0
    5.5740    0.8734    0.0000 O   0  0  0  0  0  0  0  0  0  0  0  0
   -3.3437   -4.5504    0.0000 O   0  0  0  0  0  0  0  0  0  0  0  0
    2.8182   -1.4790    0.0000 O   0  0  0  0  0  0  0  0  0  0  0  0
    0.8628   -5.5774    0.0000 O   0  0  0  0  0  0  0  0  0  0  0  0
    0.6401    5.6965    0.0000 O   0  0  0  0  0  0  0  0  0  0  0  0
   -1.8137    3.4355    0.0000 O   0  0  0  0  0  0  0  0  0  0  0  0
    4.4806    3.5787    0.0000 O   0  0  0  0  0  0  0  0  0  0  0  0
   -5.7110    0.6108    0.0000 O   0  0  0  0  0  0  0  0  0  0  0  0
    5.7111   -0.6108    0.0000 O   0  0  0  0  0  0  0  0  0  0  0  0
   -4.4817   -3.5736    0.0000 O   0  0  0  0  0  0  0  0  0  0  0  0
    1.8415   -3.4475    0.0000 O   0  0  0  0  0  0  0  0  0  0  0  0
   -0.6402   -5.6965    0.0000 O   0  0  0  0  0  0  0  0  0  0  0  0
    0.4829    3.5066    0.0000 O   0  0  0  0  0  0  0  0  0  0  0  0
   -3.2413    3.7059    0.0000 O   0  0  0  0  0  0  0  0  0  0  0  0
    2.8210    2.1380    0.0000 O   0  0  0  0  0  0  0  0  0  0  0  0
   -3.5066    0.4829    0.0000 O   0  0  0  0  0  0  0  0  0  0  0  0
    3.5066   -0.4829    0.0000 O   0  0  0  0  0  0  0  0  0  0  0  0
   -2.8210   -2.1380    0.0000 O   0  0  0  0  0  0  0  0  0  0  0  0
    3.2413   -3.7060    0.0000 O   0  0  0  0  0  0  0  0  0  0  0  0
   -0.4829   -3.5066    0.0000 O   0  0  0  0  0  0  0  0  0  0  0  0
   -1.6679    3.9744    0.0000 O   0  0  0  0  0  0  0  0  0  0  0  0
    1.6309    3.9897    0.0000 O   0  0  0  0  0  0  0  0  0  0  0  0
   -3.9897    1.6309    0.0000 O   0  0  0  0  0  0  0  0  0  0  0  0
    3.9744    1.6679    0.0000 O   0  0  0  0  0  0  0  0  0  0  0  0
   -3.9744   -1.6679    0.0000 O   0  0  0  0  0  0  0  0  0  0  0  0
    3.9897   -1.6309    0.0000 O   0  0  0  0  0  0  0  0  0  0  0  0
   -1.6309   -3.9897    0.0000 O   0  0  0  0  0  0  0  0  0  0  0  0
    1.6679   -3.9744    0.0000 O   0  0  0  0  0  0  0  0  0  0  0  0
   -1.0724    2.1913    0.0000 S   0  0  0  0  0  0  0  0  0  0  0  0
    1.1809    1.5586    0.0000 S   0  0  0  0  0  0  0  0  0  0  0  0
   -4.9908    4.0551    0.0000 S   0  0  0  0  0  0  0  0  0  0  0  0
    2.6570    1.5721    0.0000 S   0  0  0  0  0  0  0  0  0  0  0  0
   -2.6622   -1.5671    0.0000 S   0  0  0  0  0  0  0  0  0  0  0  0
    4.9908   -4.0550    0.0000 S   0  0  0  0  0  0  0  0  0  0  0  0
   -1.2255   -1.5206    0.0000 S   0  0  0  0  0  0  0  0  0  0  0  0
    0.9414   -2.2545    0.0000 S   0  0  0  0  0  0  0  0  0  0  0  0
  9  1  1  0  0  0  0
 10  2  1  0  0  0  0
 11  3  1  0  0  0  0
 12  4  1  0  0  0  0
 13  5  1  0  0  0  0
 14  6  1  0  0  0  0
 15  7  1  0  0  0  0
 16  8  1  0  0  0  0
 25 17  1  6  0  0  0
 26 18  1  6  0  0  0
 27 19  1  1  0  0  0
 28 20  1  6  0  0  0
 29 21  1  6  0  0  0
 30 22  1  1  0  0  0
 31 23  1  6  0  0  0
 32 24  1  6  0  0  0
 33  1  1  0  0  0  0
 34  2  1  0  0  0  0
 35  3  1  0  0  0  0
 36  4  1  0  0  0  0
 37  5  1  0  0  0  0
 38  6  1  0  0  0  0
 39  7  1  0  0  0  0
 40  8  1  0  0  0  0
 49 41  1  0  0  0  0
 50 42  1  0  0  0  0
 51 43  1  0  0  0  0
 52 44  1  0  0  0  0
 53 45  1  0  0  0  0
 54 46  1  0  0  0  0
 55 47  1  0  0  0  0
 56 48  1  0  0  0  0
 57 25  1  0  0  0  0
 57 41  1  0  0  0  0
 58 26  1  0  0  0  0
 58 43  1  0  0  0  0
 59 27  1  0  0  0  0
 59 42  1  0  0  0  0
 60 28  1  0  0  0  0
 60 45  1  0  0  0  0
 61 29  1  0  0  0  0
 61 44  1  0  0  0  0
 62 30  1  0  0  0  0
 62 47  1  0  0  0  0
 63 31  1  0  0  0  0
 63 46  1  0  0  0  0
 64 32  1  0  0  0  0
 64 48  1  0  0  0  0
 65 49  1  0  0  0  0
 66 50  1  0  0  0  0
 67 51  1  0  0  0  0
 68 52  1  0  0  0  0
 69 53  1  0  0  0  0
 70 54  1  0  0  0  0
 71 55  1  0  0  0  0
 72 56  1  0  0  0  0
 73 33  2  0  0  0  0
 74 33  1  0  0  0  0
 75 34  2  0  0  0  0
 76 34  1  0  0  0  0
 77 35  2  0  0  0  0
 78 35  1  0  0  0  0
 79 36  2  0  0  0  0
 80 36  1  0  0  0  0
 81 37  2  0  0  0  0
 82 37  1  0  0  0  0
 83 38  2  0  0  0  0
 84 38  1  0  0  0  0
 85 39  2  0  0  0  0
 86 39  1  0  0  0  0
 87 40  2  0  0  0  0
 88 40  1  0  0  0  0
 41 89  1  6  0  0  0
 42 90  1  1  0  0  0
 43 91  1  6  0  0  0
 44 92  1  6  0  0  0
 45 93  1  6  0  0  0
 46 94  1  6  0  0  0
 47 95  1  1  0  0  0
 48 96  1  6  0  0  0
 49 97  1  1  0  0  0
 50 98  1  6  0  0  0
 51 99  1  1  0  0  0
 52100  1  1  0  0  0
 53101  1  1  0  0  0
 54102  1  1  0  0  0
 55103  1  6  0  0  0
 56104  1  1  0  0  0
105 25  1  0  0  0  0
105 65  1  0  0  0  0
106 27  1  0  0  0  0
106 66  1  0  0  0  0
107 26  1  0  0  0  0
107 67  1  0  0  0  0
108 29  1  0  0  0  0
108 68  1  0  0  0  0
109 28  1  0  0  0  0
109 69  1  0  0  0  0
110 31  1  0  0  0  0
110 70  1  0  0  0  0
111 30  1  0  0  0  0
111 71  1  0  0  0  0
112 32  1  0  0  0  0
112 72  1  0  0  0  0
 57113  1  1  0  0  0
 66113  1  6  0  0  0
 58114  1  1  0  0  0
 65114  1  1  0  0  0
 59115  1  6  0  0  0
 68115  1  1  0  0  0
 60116  1  1  0  0  0
 67116  1  1  0  0  0
 61117  1  1  0  0  0
 70117  1  1  0  0  0
 62118  1  6  0  0  0
 69118  1  1  0  0  0
 63119  1  1  0  0  0
 72119  1  1  0  0  0
 64120  1  1  0  0  0
 71120  1  6  0  0  0
121  9  1  0  0  0  0
121 17  1  0  0  0  0
122 10  1  0  0  0  0
122 18  1  0  0  0  0
123 11  1  0  0  0  0
123 19  1  0  0  0  0
124 12  1  0  0  0  0
124 20  1  0  0  0  0
125 13  1  0  0  0  0
125 21  1  0  0  0  0
126 14  1  0  0  0  0
126 22  1  0  0  0  0
127 15  1  0  0  0  0
127 23  1  0  0  0  0
128 16  1  0  0  0  0
128 24  1  0  0  0  0
M  END
> <DATABASE_ID>
DB06206

> <DATABASE_NAME>
drugbank

> <SMILES>
O[C@@H]1[C@@H](O)[C@@H]2O[C@H]3O[C@H](CSCCC(O)=O)[C@@H](O[C@H]4O[C@H](CSCCC(O)=O)[C@@H](O[C@H]5O[C@H](CSCCC(O)=O)[C@@H](O[C@H]6O[C@H](CSCCC(O)=O)[C@@H](O[C@H]7O[C@H](CSCCC(O)=O)[C@@H](O[C@H]8O[C@H](CSCCC(O)=O)[C@@H](O[C@H]9O[C@H](CSCCC(O)=O)[C@@H](O[C@H]1O[C@@H]2CSCCC(O)=O)[C@H](O)[C@H]9O)[C@H](O)[C@H]8O)[C@H](O)[C@H]7O)[C@H](O)[C@H]6O)[C@H](O)[C@H]5O)[C@H](O)[C@H]4O)[C@H](O)[C@H]3O

> <INCHI_IDENTIFIER>
InChI=1S/C72H112O48S8/c73-33(74)1-9-121-17-25-57-41(89)49(97)65(105-25)114-58-26(18-122-10-2-34(75)76)107-67(51(99)43(58)91)116-60-28(20-124-12-4-36(79)80)109-69(53(101)45(60)93)118-62-30(22-126-14-6-38(83)84)111-71(55(103)47(62)95)120-64-32(24-128-16-8-40(87)88)112-72(56(104)48(64)96)119-63-31(23-127-15-7-39(85)86)110-70(54(102)46(63)94)117-61-29(21-125-13-5-37(81)82)108-68(52(100)44(61)92)115-59-27(19-123-11-3-35(77)78)106-66(113-57)50(98)42(59)90/h25-32,41-72,89-104H,1-24H2,(H,73,74)(H,75,76)(H,77,78)(H,79,80)(H,81,82)(H,83,84)(H,85,86)(H,87,88)/t25-,26-,27-,28-,29-,30-,31-,32-,41-,42-,43-,44-,45-,46-,47-,48-,49-,50-,51-,52-,53-,54-,55-,56-,57-,58-,59-,60-,61-,62-,63-,64-,65-,66-,67-,68-,69-,70-,71-,72-/m1/s1

> <INCHI_KEY>
WHRODDIHRRDWEW-VTHZAVIASA-N

> <FORMULA>
C72H112O48S8

> <MOLECULAR_WEIGHT>
2002.12

> <EXACT_MASS>
2000.408874758

> <JCHEM_ACCEPTOR_COUNT>
48

> <JCHEM_ATOM_COUNT>
240

> <JCHEM_AVERAGE_POLARIZABILITY>
189.6184287803806

> <JCHEM_BIOAVAILABILITY>
0

> <JCHEM_DONOR_COUNT>
24

> <JCHEM_FORMAL_CHARGE>
0

> <JCHEM_GHOSE_FILTER>
0

> <JCHEM_IUPAC>
3-({[(1S,3S,5S,6S,8S,10S,11S,13S,15S,16S,18S,20S,21S,23S,25S,26S,28S,30S,31S,33S,35S,36S,38S,40S,41R,42R,43R,44R,45R,46R,47R,48R,49R,50R,51R,52R,53R,54R,55R,56R)-10,15,20,25,30,35,40-heptakis({[(2-carboxyethyl)sulfanyl]methyl})-41,42,43,44,45,46,47,48,49,50,51,52,53,54,55,56-hexadecahydroxy-2,4,7,9,12,14,17,19,22,24,27,29,32,34,37,39-hexadecaoxanonacyclo[36.2.2.2³,⁶.2⁸,¹¹.2¹³,¹⁶.2¹⁸,²¹.2²³,²⁶.2²⁸,³¹.2³³,³⁶]hexapentacontan-5-yl]methyl}sulfanyl)propanoic acid

> <ALOGPS_LOGP>
-0.69

> <JCHEM_LOGP>
-5.417171354666672

> <ALOGPS_LOGS>
-1.88

> <JCHEM_MDDR_LIKE_RULE>
1

> <JCHEM_NUMBER_OF_RINGS>
9

> <JCHEM_PHYSIOLOGICAL_CHARGE>
-8

> <JCHEM_PKA>
3.175715502325704

> <JCHEM_PKA_STRONGEST_ACIDIC>
2.8166935596840363

> <JCHEM_POLAR_SURFACE_AREA>
769.7600000000006

> <JCHEM_REFRACTIVITY>
432.6407999999998

> <JCHEM_ROTATABLE_BOND_COUNT>
40

> <JCHEM_RULE_OF_FIVE>
0

> <ALOGPS_SOLUBILITY>
2.66e+01 g/l

> <JCHEM_TRADITIONAL_IUPAC>
3-({[(1S,3S,5S,6S,8S,10S,11S,13S,15S,16S,18S,20S,21S,23S,25S,26S,28S,30S,31S,33S,35S,36S,38S,40S,41R,42R,43R,44R,45R,46R,47R,48R,49R,50R,51R,52R,53R,54R,55R,56R)-10,15,20,25,30,35,40-heptakis({[(2-carboxyethyl)sulfanyl]methyl})-41,42,43,44,45,46,47,48,49,50,51,52,53,54,55,56-hexadecahydroxy-2,4,7,9,12,14,17,19,22,24,27,29,32,34,37,39-hexadecaoxanonacyclo[36.2.2.2³,⁶.2⁸,¹¹.2¹³,¹⁶.2¹⁸,²¹.2²³,²⁶.2²⁸,³¹.2³³,³⁶]hexapentacontan-5-yl]methyl}sulfanyl)propanoic acid

> <JCHEM_VEBER_RULE>
0

> <DRUGBANK_ID>
DB06206

> <DRUG_GROUPS>
approved

> <GENERIC_NAME>
Sugammadex

> <SYNONYMS>
Sugammadex

> <PRODUCTS>
Bridion; Sugammadex; Sugammadex Fresenius Kabi; Sugammadex Mylan

> <SALTS>
Sugammadex sodium

$$$$
