
  Mrv1909 12152018132D          

154158  0  0  1  0            999 V2000
    1.3061   -8.4533    0.0000 H   0  0  0  0  0  0  0  0  0  0  0  0
    1.9646   -7.9562    0.0000 C   0  0  1  0  0  0  0  0  0  0  0  0
    1.2048   -7.6345    0.0000 N   0  0  0  0  0  0  0  0  0  0  0  0
    0.5464   -8.1316    0.0000 C   0  0  0  0  0  0  0  0  0  0  0  0
    0.6477   -8.9504    0.0000 O   0  0  0  0  0  0  0  0  0  0  0  0
   -0.2133   -7.8099    0.0000 C   0  0  2  0  0  0  0  0  0  0  0  0
   -0.3146   -6.9912    0.0000 C   0  0  0  0  0  0  0  0  0  0  0  0
    0.3438   -6.4941    0.0000 C   0  0  0  0  0  0  0  0  0  0  0  0
    0.2425   -5.6753    0.0000 C   0  0  0  0  0  0  0  0  0  0  0  0
    0.9010   -5.1782    0.0000 N   0  0  0  0  0  0  0  0  0  0  0  0
    0.7997   -4.3595    0.0000 C   0  0  0  0  0  0  0  0  0  0  0  0
    0.0399   -4.0378    0.0000 N   0  0  0  0  0  0  0  0  0  0  0  0
    1.4581   -3.8624    0.0000 N   0  0  0  0  0  0  0  0  0  0  0  0
   -0.8717   -8.3071    0.0000 N   0  0  0  0  0  0  0  0  0  0  0  0
   -1.6314   -7.9854    0.0000 C   0  0  0  0  0  0  0  0  0  0  0  0
   -1.7327   -7.1666    0.0000 O   0  0  0  0  0  0  0  0  0  0  0  0
   -2.2898   -8.4825    0.0000 C   0  0  2  0  0  0  0  0  0  0  0  0
   -2.1885   -9.3013    0.0000 C   0  0  0  0  0  0  0  0  0  0  0  0
   -2.8470   -9.7984    0.0000 C   0  0  0  0  0  0  0  0  0  0  0  0
   -2.7457  -10.6171    0.0000 C   0  0  0  0  0  0  0  0  0  0  0  0
   -3.4041  -11.1142    0.0000 N   0  0  0  0  0  0  0  0  0  0  0  0
   -3.3028  -11.9330    0.0000 C   0  0  0  0  0  0  0  0  0  0  0  0
   -2.5431  -12.2546    0.0000 N   0  0  0  0  0  0  0  0  0  0  0  0
   -3.9612  -12.4301    0.0000 N   0  0  0  0  0  0  0  0  0  0  0  0
   -3.0495   -8.1608    0.0000 N   0  0  0  0  0  0  0  0  0  0  0  0
   -3.7080   -8.6579    0.0000 C   0  0  0  0  0  0  0  0  0  0  0  0
   -3.6067   -9.4767    0.0000 O   0  0  0  0  0  0  0  0  0  0  0  0
   -4.4677   -8.3363    0.0000 C   0  0  2  0  0  0  0  0  0  0  0  0
   -4.5690   -7.5175    0.0000 C   0  0  0  0  0  0  0  0  0  0  0  0
   -3.9106   -7.0204    0.0000 C   0  0  0  0  0  0  0  0  0  0  0  0
   -4.0119   -6.2017    0.0000 C   0  0  0  0  0  0  0  0  0  0  0  0
   -3.1508   -7.3421    0.0000 C   0  0  0  0  0  0  0  0  0  0  0  0
   -5.1261   -8.8334    0.0000 N   0  0  0  0  0  0  0  0  0  0  0  0
   -5.8858   -8.5117    0.0000 C   0  0  0  0  0  0  0  0  0  0  0  0
   -5.9871   -7.6930    0.0000 O   0  0  0  0  0  0  0  0  0  0  0  0
   -6.5442   -9.0088    0.0000 C   0  0  2  0  0  0  0  0  0  0  0  0
   -6.4429   -9.8276    0.0000 C   0  0  0  0  0  0  0  0  0  0  0  0
   -5.6832  -10.1493    0.0000 C   0  0  0  0  0  0  0  0  0  0  0  0
   -5.0248   -9.6522    0.0000 C   0  0  0  0  0  0  0  0  0  0  0  0
   -4.2651   -9.9738    0.0000 C   0  0  0  0  0  0  0  0  0  0  0  0
   -4.1638  -10.7926    0.0000 C   0  0  0  0  0  0  0  0  0  0  0  0
   -4.8222  -11.2897    0.0000 C   0  0  0  0  0  0  0  0  0  0  0  0
   -5.5819  -10.9680    0.0000 C   0  0  0  0  0  0  0  0  0  0  0  0
   -7.3039   -8.6872    0.0000 N   0  0  0  0  0  0  0  0  0  0  0  0
   -7.9624   -9.1843    0.0000 C   0  0  0  0  0  0  0  0  0  0  0  0
   -7.8611  -10.0030    0.0000 O   0  0  0  0  0  0  0  0  0  0  0  0
   -8.7221   -8.8626    0.0000 C   0  0  0  0  0  0  0  0  0  0  0  0
   -9.3805   -9.3597    0.0000 N   0  0  0  0  0  0  0  0  0  0  0  0
  -10.1402   -9.0381    0.0000 C   0  0  0  0  0  0  0  0  0  0  0  0
  -10.2415   -8.2193    0.0000 O   0  0  0  0  0  0  0  0  0  0  0  0
  -10.7986   -9.5352    0.0000 C   0  0  0  0  0  0  0  0  0  0  0  0
  -11.5583   -9.2135    0.0000 N   0  0  0  0  0  0  0  0  0  0  0  0
  -12.2167   -9.7106    0.0000 C   0  0  0  0  0  0  0  0  0  0  0  0
  -12.1155  -10.5294    0.0000 O   0  0  0  0  0  0  0  0  0  0  0  0
  -12.9765   -9.3890    0.0000 C   0  0  1  0  0  0  0  0  0  0  0  0
  -13.0778   -8.5702    0.0000 N   0  0  0  0  0  0  0  0  0  0  0  0
  -13.6349   -9.8861    0.0000 C   0  0  0  0  0  0  0  0  0  0  0  0
  -14.3946   -9.5644    0.0000 C   0  0  0  0  0  0  0  0  0  0  0  0
  -15.0530  -10.0615    0.0000 C   0  0  0  0  0  0  0  0  0  0  0  0
  -15.8127   -9.7399    0.0000 C   0  0  0  0  0  0  0  0  0  0  0  0
  -15.9140   -8.9211    0.0000 C   0  0  0  0  0  0  0  0  0  0  0  0
  -16.6737   -8.5995    0.0000 O   0  0  0  0  0  0  0  0  0  0  0  0
  -15.2556   -8.4240    0.0000 C   0  0  0  0  0  0  0  0  0  0  0  0
  -14.4959   -8.7457    0.0000 C   0  0  0  0  0  0  0  0  0  0  0  0
    2.0658   -8.7749    0.0000 C   0  0  1  0  0  0  0  0  0  0  0  0
    1.4074   -9.2720    0.0000 C   0  0  0  0  0  0  0  0  0  0  0  0
    2.8256   -9.0966    0.0000 C   0  0  0  0  0  0  0  0  0  0  0  0
    2.9269   -9.9153    0.0000 C   0  0  0  0  0  0  0  0  0  0  0  0
    2.6230   -7.4591    0.0000 C   0  0  0  0  0  0  0  0  0  0  0  0
    2.5217   -6.6403    0.0000 O   0  0  0  0  0  0  0  0  0  0  0  0
    3.3827   -7.7807    0.0000 N   0  0  0  0  0  0  0  0  0  0  0  0
    4.0411   -7.2836    0.0000 C   0  0  1  0  0  0  0  0  0  0  0  0
    4.8008   -7.6053    0.0000 C   0  0  0  0  0  0  0  0  0  0  0  0
    4.9021   -8.4240    0.0000 C   0  0  0  0  0  0  0  0  0  0  0  0
    5.6618   -8.7457    0.0000 C   0  0  0  0  0  0  0  0  0  0  0  0
    5.7631   -9.5644    0.0000 N   0  0  0  0  0  0  0  0  0  0  0  0
    6.5228   -9.8861    0.0000 C   0  0  0  0  0  0  0  0  0  0  0  0
    7.1812   -9.3890    0.0000 N   0  0  0  0  0  0  0  0  0  0  0  0
    6.6241  -10.7048    0.0000 N   0  0  0  0  0  0  0  0  0  0  0  0
    3.9398   -6.4648    0.0000 C   0  0  0  0  0  0  0  0  0  0  0  0
    3.1801   -6.1432    0.0000 O   0  0  0  0  0  0  0  0  0  0  0  0
    4.5982   -5.9677    0.0000 N   0  0  0  0  0  0  0  0  0  0  0  0
    5.3874   -6.2082    0.0000 C   0  0  0  0  0  0  0  0  0  0  0  0
    5.8600   -5.5320    0.0000 C   0  0  0  0  0  0  0  0  0  0  0  0
    5.3629   -4.8736    0.0000 C   0  0  0  0  0  0  0  0  0  0  0  0
    4.5831   -5.1429    0.0000 C   0  0  1  0  0  0  0  0  0  0  0  0
    3.9068   -4.6703    0.0000 C   0  0  0  0  0  0  0  0  0  0  0  0
    3.1594   -5.0196    0.0000 O   0  0  0  0  0  0  0  0  0  0  0  0
    3.9780   -3.8484    0.0000 N   0  0  0  0  0  0  0  0  0  0  0  0
    3.3017   -3.3758    0.0000 C   0  0  1  0  0  0  0  0  0  0  0  0
    2.5544   -3.7251    0.0000 C   0  0  0  0  0  0  0  0  0  0  0  0
    2.4832   -4.5471    0.0000 C   0  0  0  0  0  0  0  0  0  0  0  0
    1.7358   -4.8964    0.0000 C   0  0  0  0  0  0  0  0  0  0  0  0
    1.6647   -5.7183    0.0000 C   0  0  0  0  0  0  0  0  0  0  0  0
    0.9173   -6.0677    0.0000 N   0  0  0  0  0  0  0  0  0  0  0  0
    3.3729   -2.5539    0.0000 C   0  0  0  0  0  0  0  0  0  0  0  0
    4.1203   -2.2045    0.0000 O   0  0  0  0  0  0  0  0  0  0  0  0
    2.6967   -2.0813    0.0000 N   0  0  0  0  0  0  0  0  0  0  0  0
    2.7678   -1.2594    0.0000 C   0  0  1  0  0  0  0  0  0  0  0  0
    3.5152   -0.9100    0.0000 C   0  0  0  0  0  0  0  0  0  0  0  0
    4.1914   -1.3826    0.0000 C   0  0  0  0  0  0  0  0  0  0  0  0
    4.9388   -1.0332    0.0000 C   0  0  0  0  0  0  0  0  0  0  0  0
    4.6170   -2.0894    0.0000 C   0  0  0  0  0  0  0  0  0  0  0  0
    2.0916   -0.7868    0.0000 C   0  0  0  0  0  0  0  0  0  0  0  0
    1.3442   -1.1361    0.0000 O   0  0  0  0  0  0  0  0  0  0  0  0
    2.1627    0.0351    0.0000 N   0  0  0  0  0  0  0  0  0  0  0  0
    1.4865    0.5077    0.0000 C   0  0  1  0  0  0  0  0  0  0  0  0
    0.7391    0.1584    0.0000 C   0  0  0  0  0  0  0  0  0  0  0  0
    0.6680   -0.6636    0.0000 C   0  0  0  0  0  0  0  0  0  0  0  0
   -0.0794   -1.0129    0.0000 C   0  0  0  0  0  0  0  0  0  0  0  0
   -0.1506   -1.8348    0.0000 C   0  0  0  0  0  0  0  0  0  0  0  0
   -0.8980   -2.1842    0.0000 N   0  0  0  0  0  0  0  0  0  0  0  0
    1.5576    1.3296    0.0000 C   0  0  0  0  0  0  0  0  0  0  0  0
    2.3050    1.6790    0.0000 O   0  0  0  0  0  0  0  0  0  0  0  0
    0.8814    1.8022    0.0000 N   0  0  0  0  0  0  0  0  0  0  0  0
    0.9525    2.6242    0.0000 C   0  0  1  0  0  0  0  0  0  0  0  0
    0.2763    3.0967    0.0000 C   0  0  0  0  0  0  0  0  0  0  0  0
   -0.4711    2.7474    0.0000 C   0  0  0  0  0  0  0  0  0  0  0  0
   -0.6277    1.9374    0.0000 C   0  0  0  0  0  0  0  0  0  0  0  0
   -1.4465    1.8361    0.0000 N   0  0  0  0  0  0  0  0  0  0  0  0
   -1.7959    2.5835    0.0000 C   0  0  0  0  0  0  0  0  0  0  0  0
   -2.5850    2.8240    0.0000 C   0  0  0  0  0  0  0  0  0  0  0  0
   -2.7714    3.6276    0.0000 C   0  0  0  0  0  0  0  0  0  0  0  0
   -2.1685    4.1909    0.0000 C   0  0  0  0  0  0  0  0  0  0  0  0
   -1.3793    3.9504    0.0000 C   0  0  0  0  0  0  0  0  0  0  0  0
   -1.1930    3.1467    0.0000 C   0  0  0  0  0  0  0  0  0  0  0  0
    1.6999    2.9735    0.0000 C   0  0  0  0  0  0  0  0  0  0  0  0
    1.7711    3.7954    0.0000 O   0  0  0  0  0  0  0  0  0  0  0  0
    2.3762    2.5009    0.0000 N   0  0  0  0  0  0  0  0  0  0  0  0
    3.1235    2.8503    0.0000 C   0  0  1  0  0  0  0  0  0  0  0  0
    3.1947    3.6722    0.0000 C   0  0  0  0  0  0  0  0  0  0  0  0
    3.9421    4.0215    0.0000 C   0  0  0  0  0  0  0  0  0  0  0  0
    4.0132    4.8435    0.0000 O   0  0  0  0  0  0  0  0  0  0  0  0
    4.6183    3.5490    0.0000 O   0  0  0  0  0  0  0  0  0  0  0  0
    3.7998    2.3777    0.0000 C   0  0  0  0  0  0  0  0  0  0  0  0
    3.7286    1.5558    0.0000 O   0  0  0  0  0  0  0  0  0  0  0  0
    4.5472    2.7270    0.0000 N   0  0  0  0  0  0  0  0  0  0  0  0
    5.2234    2.2545    0.0000 C   0  0  1  0  0  0  0  0  0  0  0  0
    5.1522    1.4325    0.0000 C   0  0  0  0  0  0  0  0  0  0  0  0
    5.8285    0.9600    0.0000 C   0  0  0  0  0  0  0  0  0  0  0  0
    6.5759    1.3093    0.0000 N   0  0  0  0  0  0  0  0  0  0  0  0
    5.7573    0.1380    0.0000 O   0  0  0  0  0  0  0  0  0  0  0  0
    5.9708    2.6038    0.0000 C   0  0  0  0  0  0  0  0  0  0  0  0
    6.0419    3.4257    0.0000 O   0  0  0  0  0  0  0  0  0  0  0  0
    6.6470    2.1312    0.0000 N   0  0  0  0  0  0  0  0  0  0  0  0
    7.3944    2.4806    0.0000 C   0  0  1  0  0  0  0  0  0  0  0  0
    8.0706    2.0080    0.0000 C   0  0  0  0  0  0  0  0  0  0  0  0
    8.8180    2.3573    0.0000 C   0  0  0  0  0  0  0  0  0  0  0  0
    9.4943    1.8848    0.0000 C   0  0  0  0  0  0  0  0  0  0  0  0
   10.2416    2.2341    0.0000 N   0  0  0  0  0  0  0  0  0  0  0  0
    9.4231    1.0628    0.0000 O   0  0  0  0  0  0  0  0  0  0  0  0
    7.4655    3.3025    0.0000 C   0  0  0  0  0  0  0  0  0  0  0  0
    8.2129    3.6518    0.0000 O   0  0  0  0  0  0  0  0  0  0  0  0
    6.7893    3.7751    0.0000 O   0  0  0  0  0  0  0  0  0  0  0  0
  2  1  1  1  0  0  0
  2  3  1  0  0  0  0
  3  4  1  0  0  0  0
  4  5  2  0  0  0  0
  6  4  1  0  0  0  0
  6  7  1  0  0  0  0
  7  8  1  0  0  0  0
  8  9  1  0  0  0  0
  9 10  1  0  0  0  0
 10 11  1  0  0  0  0
 11 12  1  0  0  0  0
 11 13  2  0  0  0  0
  6 14  1  1  0  0  0
 14 15  1  0  0  0  0
 15 16  2  0  0  0  0
 17 15  1  0  0  0  0
 17 18  1  0  0  0  0
 18 19  1  0  0  0  0
 19 20  1  0  0  0  0
 20 21  1  0  0  0  0
 21 22  1  0  0  0  0
 22 23  1  0  0  0  0
 22 24  2  0  0  0  0
 17 25  1  6  0  0  0
 25 26  1  0  0  0  0
 26 27  2  0  0  0  0
 28 26  1  0  0  0  0
 28 29  1  0  0  0  0
 29 30  1  0  0  0  0
 30 31  1  0  0  0  0
 30 32  1  0  0  0  0
 28 33  1  1  0  0  0
 33 34  1  0  0  0  0
 34 35  2  0  0  0  0
 36 34  1  0  0  0  0
 36 37  1  0  0  0  0
 37 38  1  0  0  0  0
 38 39  2  0  0  0  0
 39 40  1  0  0  0  0
 40 41  2  0  0  0  0
 41 42  1  0  0  0  0
 42 43  2  0  0  0  0
 38 43  1  0  0  0  0
 36 44  1  6  0  0  0
 44 45  1  0  0  0  0
 45 46  2  0  0  0  0
 45 47  1  0  0  0  0
 47 48  1  0  0  0  0
 48 49  1  0  0  0  0
 49 50  2  0  0  0  0
 49 51  1  0  0  0  0
 51 52  1  0  0  0  0
 52 53  1  0  0  0  0
 53 54  2  0  0  0  0
 55 53  1  0  0  0  0
 55 56  1  6  0  0  0
 55 57  1  0  0  0  0
 57 58  1  0  0  0  0
 58 59  2  0  0  0  0
 59 60  1  0  0  0  0
 60 61  2  0  0  0  0
 61 62  1  0  0  0  0
 61 63  1  0  0  0  0
 63 64  2  0  0  0  0
 58 64  1  0  0  0  0
  2 65  1  0  0  0  0
 65 66  1  6  0  0  0
 65 67  1  0  0  0  0
 67 68  1  0  0  0  0
  2 69  1  0  0  0  0
 69 70  2  0  0  0  0
 69 71  1  0  0  0  0
 72 71  1  6  0  0  0
 72 73  1  0  0  0  0
 73 74  1  0  0  0  0
 74 75  1  0  0  0  0
 75 76  1  0  0  0  0
 76 77  1  0  0  0  0
 77 78  1  0  0  0  0
 77 79  2  0  0  0  0
 72 80  1  0  0  0  0
 80 81  2  0  0  0  0
 80 82  1  0  0  0  0
 82 83  1  0  0  0  0
 83 84  1  0  0  0  0
 84 85  1  0  0  0  0
 86 85  1  0  0  0  0
 86 82  1  0  0  0  0
 86 87  1  6  0  0  0
 87 88  2  0  0  0  0
 87 89  1  0  0  0  0
 90 89  1  1  0  0  0
 90 91  1  0  0  0  0
 91 92  1  0  0  0  0
 92 93  1  0  0  0  0
 93 94  1  0  0  0  0
 94 95  1  0  0  0  0
 90 96  1  0  0  0  0
 96 97  2  0  0  0  0
 96 98  1  0  0  0  0
 99 98  1  6  0  0  0
 99100  1  0  0  0  0
100101  1  0  0  0  0
101102  1  0  0  0  0
101103  1  0  0  0  0
 99104  1  0  0  0  0
104105  2  0  0  0  0
104106  1  0  0  0  0
107106  1  1  0  0  0
107108  1  0  0  0  0
108109  1  0  0  0  0
109110  1  0  0  0  0
110111  1  0  0  0  0
111112  1  0  0  0  0
107113  1  0  0  0  0
113114  2  0  0  0  0
113115  1  0  0  0  0
116115  1  1  0  0  0
116117  1  0  0  0  0
117118  1  0  0  0  0
118119  2  0  0  0  0
119120  1  0  0  0  0
120121  1  0  0  0  0
121122  2  0  0  0  0
122123  1  0  0  0  0
123124  2  0  0  0  0
124125  1  0  0  0  0
125126  2  0  0  0  0
118126  1  0  0  0  0
121126  1  0  0  0  0
116127  1  0  0  0  0
127128  2  0  0  0  0
127129  1  0  0  0  0
130129  1  1  0  0  0
130131  1  0  0  0  0
131132  1  0  0  0  0
132133  1  0  0  0  0
132134  2  0  0  0  0
130135  1  0  0  0  0
135136  2  0  0  0  0
135137  1  0  0  0  0
138137  1  6  0  0  0
138139  1  0  0  0  0
139140  1  0  0  0  0
140141  1  0  0  0  0
140142  2  0  0  0  0
138143  1  0  0  0  0
143144  2  0  0  0  0
143145  1  0  0  0  0
146145  1  6  0  0  0
146147  1  0  0  0  0
147148  1  0  0  0  0
148149  1  0  0  0  0
149150  1  0  0  0  0
149151  2  0  0  0  0
146152  1  0  0  0  0
152153  1  0  0  0  0
152154  2  0  0  0  0
M  END
> <DATABASE_ID>
DB16146

> <DATABASE_NAME>
drugbank

> <SMILES>
[H][C@](NC(=O)[C@H](CCCNC(N)=N)NC(=O)[C@H](CCCNC(N)=N)NC(=O)[C@H](CC(C)C)NC(=O)[C@H](CC1=CC=CC=C1)NC(=O)CNC(=O)CNC(=O)[C@@H](N)CC1=CC=C(O)C=C1)([C@@H](C)CC)C(=O)N[C@@H](CCCNC(N)=N)C(=O)N1CCC[C@H]1C(=O)N[C@@H](CCCCN)C(=O)N[C@@H](CC(C)C)C(=O)N[C@@H](CCCCN)C(=O)N[C@@H](CC1=CNC2=CC=CC=C12)C(=O)N[C@@H](CC(O)=O)C(=O)N[C@@H](CC(N)=O)C(=O)N[C@@H](CCC(N)=O)C(O)=O

> <INCHI_IDENTIFIER>
InChI=1S/C99H155N31O23/c1-7-55(6)81(129-86(142)66(28-18-40-112-98(107)108)118-83(139)65(27-17-39-111-97(105)106)120-88(144)70(44-54(4)5)125-89(145)71(46-56-21-9-8-10-22-56)117-79(135)52-115-78(134)51-116-82(138)61(102)45-57-31-33-59(131)34-32-57)94(150)122-67(29-19-41-113-99(109)110)95(151)130-42-20-30-75(130)93(149)121-64(26-14-16-38-101)85(141)124-69(43-53(2)3)87(143)119-63(25-13-15-37-100)84(140)126-72(47-58-50-114-62-24-12-11-23-60(58)62)90(146)128-74(49-80(136)137)92(148)127-73(48-77(104)133)91(147)123-68(96(152)153)35-36-76(103)132/h8-12,21-24,31-34,50,53-55,61,63-75,81,114,131H,7,13-20,25-30,35-49,51-52,100-102H2,1-6H3,(H2,103,132)(H2,104,133)(H,115,134)(H,116,138)(H,117,135)(H,118,139)(H,119,143)(H,120,144)(H,121,149)(H,122,150)(H,123,147)(H,124,141)(H,125,145)(H,126,140)(H,127,148)(H,128,146)(H,129,142)(H,136,137)(H,152,153)(H4,105,106,111)(H4,107,108,112)(H4,109,110,113)/t55-,61-,63-,64-,65-,66-,67-,68-,69-,70-,71-,72-,73-,74-,75-,81-/m0/s1

> <INCHI_KEY>
JMNJYGMAUMANNW-FIXZTSJVSA-N

> <FORMULA>
C99H155N31O23

> <MOLECULAR_WEIGHT>
2147.523

> <EXACT_MASS>
2146.191210375

> <JCHEM_ACCEPTOR_COUNT>
35

> <JCHEM_ATOM_COUNT>
308

> <JCHEM_AVERAGE_NEUTRAL_MICROSPECIES_CHARGE>
3.83721425657327

> <JCHEM_AVERAGE_POLARIZABILITY>
223.2459030162304

> <JCHEM_BIOAVAILABILITY>
0

> <JCHEM_DONOR_COUNT>
33

> <JCHEM_FORMAL_CHARGE>
0

> <JCHEM_GHOSE_FILTER>
0

> <JCHEM_IUPAC>
(2S)-2-[(2S)-2-[(2S)-2-[(2S)-2-[(2S)-6-amino-2-[(2S)-2-[(2S)-6-amino-2-{[(2S)-1-[(2S)-2-[(2S,3S)-2-[(2S)-2-[(2S)-2-[(2S)-2-[(2S)-2-(2-{2-[(2S)-2-amino-3-(4-hydroxyphenyl)propanamido]acetamido}acetamido)-3-phenylpropanamido]-4-methylpentanamido]-5-carbamimidamidopentanamido]-5-carbamimidamidopentanamido]-3-methylpentanamido]-5-carbamimidamidopentanoyl]pyrrolidin-2-yl]formamido}hexanamido]-4-methylpentanamido]hexanamido]-3-(1H-indol-3-yl)propanamido]-3-carboxypropanamido]-3-carbamoylpropanamido]-4-carbamoylbutanoic acid

> <ALOGPS_LOGP>
-1.49

> <JCHEM_LOGP>
-11.453855366445632

> <ALOGPS_LOGS>
-5.04

> <JCHEM_MDDR_LIKE_RULE>
1

> <JCHEM_NEUTRAL_CHARGE>
4

> <JCHEM_NUMBER_OF_RINGS>
5

> <JCHEM_PHYSIOLOGICAL_CHARGE>
4

> <JCHEM_PKA>
3.735298819546314

> <JCHEM_PKA_STRONGEST_ACIDIC>
3.0678173357878276

> <JCHEM_PKA_STRONGEST_BASIC>
12.36996457229481

> <JCHEM_POLAR_SURFACE_AREA>
917.3700000000001

> <JCHEM_REFRACTIVITY>
585.2326000000002

> <JCHEM_ROTATABLE_BOND_COUNT>
71

> <JCHEM_RULE_OF_FIVE>
0

> <ALOGPS_SOLUBILITY>
1.97e-02 g/l

> <JCHEM_TRADITIONAL_IUPAC>
5-({4-[2-(3-methoxyphenyl)-2-oxoethoxy]phenyl}methyl)-1,3-thiazolidine-2,4-dione

> <JCHEM_VEBER_RULE>
0

> <DRUGBANK_ID>
DB16146

> <DRUG_GROUPS>
investigational

> <GENERIC_NAME>
Dynorphin

> <SYNONYMS>
Dynorphin; Dynorphin a; Dynorphin a (1-17); Dynorphin a (bos taurus); Dynorphin a (human); Dynorphin a (pig); Dynorphin a (porcine); Dynorphin a (rat); Dynorphin a (swine); Dynorphin a 1-17; Dynorphins; Porcine dynorphin a (1-17)

$$$$
