
  Mrv1909 02282219542D          

 27 29  0  0  0  0            999 V2000
    2.8578    1.0312    0.0000 C   0  0  0  0  0  0  0  0  0  0  0  0
    0.0000   -2.2687    0.0000 C   0  0  0  0  0  0  0  0  0  0  0  0
   -1.4289    2.6812    0.0000 C   0  0  0  0  0  0  0  0  0  0  0  0
    2.1434    1.4437    0.0000 C   0  0  0  0  0  0  0  0  0  0  0  0
    0.0000   -1.4437    0.0000 C   0  0  0  0  0  0  0  0  0  0  0  0
    2.8578    0.2062    0.0000 C   0  0  0  0  0  0  0  0  0  0  0  0
   -0.7144   -2.6812    0.0000 C   0  0  0  0  0  0  0  0  0  0  0  0
   -2.1434    2.2687    0.0000 C   0  0  0  0  0  0  0  0  0  0  0  0
   -0.7144    2.2687    0.0000 C   0  0  0  0  0  0  0  0  0  0  0  0
    1.4289    0.2062    0.0000 C   0  0  0  0  0  0  0  0  0  0  0  0
   -1.4289   -1.4437    0.0000 C   0  0  0  0  0  0  0  0  0  0  0  0
    1.4289    1.0312    0.0000 C   0  0  0  0  0  0  0  0  0  0  0  0
   -0.7144   -1.0312    0.0000 C   0  0  0  0  0  0  0  0  0  0  0  0
    2.1434   -0.2062    0.0000 C   0  0  0  0  0  0  0  0  0  0  0  0
   -1.4289   -2.2687    0.0000 C   0  0  0  0  0  0  0  0  0  0  0  0
   -2.1434    1.4437    0.0000 C   0  0  0  0  0  0  0  0  0  0  0  0
   -0.7144    1.4437    0.0000 C   0  0  0  0  0  0  0  0  0  0  0  0
   -1.4289    1.0312    0.0000 C   0  0  0  0  0  0  0  0  0  0  0  0
    0.7144    1.4437    0.0000 C   0  0  0  0  0  0  0  0  0  0  0  0
   -0.7144   -0.2062    0.0000 C   0  0  0  0  0  0  0  0  0  0  0  0
   -2.8578    1.0312    0.0000 F   0  0  0  0  0  0  0  0  0  0  0  0
    2.1434   -1.0312    0.0000 O   0  0  0  0  0  0  0  0  0  0  0  0
   -2.1434   -2.6812    0.0000 O   0  0  0  0  0  0  0  0  0  0  0  0
    0.7144    2.2687    0.0000 O   0  0  0  0  0  0  0  0  0  0  0  0
    0.0000    0.2062    0.0000 O   0  0  0  0  0  0  0  0  0  0  0  0
    0.0000    1.0312    0.0000 O   0  0  0  0  0  0  0  0  0  0  0  0
   -1.4289    0.2062    0.0000 O   0  0  0  0  0  0  0  0  0  0  0  0
  4  1  2  0  0  0  0
  5  2  2  0  0  0  0
  6  1  1  0  0  0  0
  7  2  1  0  0  0  0
  8  3  2  0  0  0  0
  9  3  1  0  0  0  0
 12  4  1  0  0  0  0
 12 10  2  0  0  0  0
 13  5  1  0  0  0  0
 13 11  2  0  0  0  0
 14  6  2  0  0  0  0
 14 10  1  0  0  0  0
 15  7  2  0  0  0  0
 15 11  1  0  0  0  0
 16  8  1  0  0  0  0
 17  9  2  0  0  0  0
 18 16  2  0  0  0  0
 18 17  1  0  0  0  0
 19 12  1  0  0  0  0
 20 13  1  0  0  0  0
 21 16  1  0  0  0  0
 22 14  1  0  0  0  0
 23 15  1  0  0  0  0
 24 19  2  0  0  0  0
 25 20  2  0  0  0  0
 26 17  1  0  0  0  0
 26 19  1  0  0  0  0
 27 18  1  0  0  0  0
 27 20  1  0  0  0  0
M  END
> <DATABASE_ID>
DB16764

> <DATABASE_NAME>
drugbank

> <SMILES>
OC1=CC=CC(=C1)C(=O)OC1=CC=CC(F)=C1OC(=O)C1=CC(O)=CC=C1

> <INCHI_IDENTIFIER>
InChI=1S/C20H13FO6/c21-16-8-3-9-17(26-19(24)12-4-1-6-14(22)10-12)18(16)27-20(25)13-5-2-7-15(23)11-13/h1-11,22-23H

> <INCHI_KEY>
FRSWCCBXIHFKKY-UHFFFAOYSA-N

> <FORMULA>
C20H13FO6

> <MOLECULAR_WEIGHT>
368.316

> <EXACT_MASS>
368.069616302

> <JCHEM_ACCEPTOR_COUNT>
4

> <JCHEM_ATOM_COUNT>
40

> <JCHEM_AVERAGE_NEUTRAL_MICROSPECIES_CHARGE>
-0.02237201059873836

> <JCHEM_AVERAGE_POLARIZABILITY>
34.650754343178725

> <JCHEM_BIOAVAILABILITY>
1

> <JCHEM_DONOR_COUNT>
2

> <JCHEM_FORMAL_CHARGE>
0

> <JCHEM_GHOSE_FILTER>
1

> <JCHEM_IUPAC>
2-fluoro-6-(3-hydroxybenzoyloxy)phenyl 3-hydroxybenzoate

> <ALOGPS_LOGP>
4.14

> <JCHEM_LOGP>
4.831687934333334

> <ALOGPS_LOGS>
-4.67

> <JCHEM_MDDR_LIKE_RULE>
1

> <JCHEM_NEUTRAL_CHARGE>
0

> <JCHEM_NUMBER_OF_RINGS>
3

> <JCHEM_PHYSIOLOGICAL_CHARGE>
0

> <JCHEM_PKA>
9.422900978978216

> <JCHEM_PKA_STRONGEST_ACIDIC>
8.820840698220536

> <JCHEM_PKA_STRONGEST_BASIC>
-5.5078014375484

> <JCHEM_POLAR_SURFACE_AREA>
93.06

> <JCHEM_REFRACTIVITY>
93.84199999999998

> <JCHEM_ROTATABLE_BOND_COUNT>
6

> <JCHEM_RULE_OF_FIVE>
1

> <ALOGPS_SOLUBILITY>
7.89e-03 g/l

> <JCHEM_TRADITIONAL_IUPAC>
tpmpa

> <JCHEM_VEBER_RULE>
0

> <DRUGBANK_ID>
DB16764

> <DRUG_GROUPS>
experimental

> <GENERIC_NAME>
WZB-117

> <SYNONYMS>
WZB 117; WZB117

$$$$
