
  Mrv1652307071701022D          

 44 51  0  0  0  0            999 V2000
    6.6469   -4.7756    0.0000 C   0  0  0  0  0  0  0  0  0  0  0  0
    5.6694   -4.7659    0.0000 N   0  0  0  0  0  0  0  0  0  0  0  0
    7.0503   -4.0649    0.0000 C   0  0  0  0  0  0  0  0  0  0  0  0
    6.7693   -3.2601    0.0000 O   0  0  0  0  0  0  0  0  0  0  0  0
    7.8692   -4.0459    0.0000 N   0  0  0  0  0  0  0  0  0  0  0  0
    7.5613   -4.7659    0.0000 C   0  0  0  0  0  0  0  0  0  0  0  0
    7.1554   -5.4861    0.0000 C   0  0  0  0  0  0  0  0  0  0  0  0
    0.8243   -3.3477    0.0000 C   0  0  0  0  0  0  0  0  0  0  0  0
    0.4256   -4.0599    0.0000 C   0  0  0  0  0  0  0  0  0  0  0  0
    1.6619   -3.3432    0.0000 C   0  0  0  0  0  0  0  0  0  0  0  0
    2.0689   -2.6270    0.0000 C   0  0  0  0  0  0  0  0  0  0  0  0
    2.8808   -2.5715    0.0000 C   0  0  1  0  0  0  0  0  0  0  0  0
    3.4827   -2.0294    0.0000 N   0  0  0  0  0  0  0  0  0  0  0  0
    4.1543   -3.3485    0.0000 C   0  0  0  0  0  0  0  0  0  0  0  0
    3.3027   -3.3358    0.0000 C   0  0  2  0  0  0  0  0  0  0  0  0
    3.6706   -3.8606    0.0000 C   0  0  0  0  0  0  0  0  0  0  0  0
    4.0627   -2.6045    0.0000 C   0  0  0  0  0  0  0  0  0  0  0  0
    2.9176   -4.0689    0.0000 C   0  0  2  0  0  0  0  0  0  0  0  0
    3.2722   -4.7908    0.0000 C   0  0  2  0  0  0  0  0  0  0  0  0
    4.1572   -4.7768    0.0000 C   0  0  0  0  0  0  0  0  0  0  0  0
    4.5611   -4.0575    0.0000 C   0  0  0  0  0  0  0  0  0  0  0  0
    5.3602   -4.0601    0.0000 C   0  0  0  0  0  0  0  0  0  0  0  0
    5.7872   -3.3256    0.0000 O   0  0  0  0  0  0  0  0  0  0  0  0
    4.6677   -5.4861    0.0000 O   0  0  0  0  0  0  0  0  0  0  0  0
    3.4827   -5.5646    0.0000 H   0  0  0  0  0  0  0  0  0  0  0  0
    2.0742   -4.0634    0.0000 C   0  0  0  0  0  0  0  0  0  0  0  0
    2.4616   -5.1457    0.0000 O   0  0  0  0  0  0  0  0  0  0  0  0
    1.6645   -4.7758    0.0000 C   0  0  0  0  0  0  0  0  0  0  0  0
    0.8343   -4.7819    0.0000 C   0  0  0  0  0  0  0  0  0  0  0  0
    0.2749   -5.4861    0.0000 O   0  0  0  0  0  0  0  0  0  0  0  0
    7.4500   -2.7758    0.0000 N   0  0  0  0  0  0  0  0  0  0  0  0
    8.1346   -3.2783    0.0000 C   0  0  0  0  0  0  0  0  0  0  0  0
    8.9358   -3.0040    0.0000 C   0  0  0  0  0  0  0  0  0  0  0  0
   10.4940   -2.5289    0.0000 C   0  0  0  0  0  0  0  0  0  0  0  0
    9.8739   -2.0081    0.0000 C   0  0  0  0  0  0  0  0  0  0  0  0
    9.5449   -3.5672    0.0000 C   0  0  0  0  0  0  0  0  0  0  0  0
   10.3251   -3.3033    0.0000 C   0  0  0  0  0  0  0  0  0  0  0  0
    3.4832   -1.2157    0.0000 C   0  0  0  0  0  0  0  0  0  0  0  0
    2.7495   -0.7946    0.0000 C   0  0  0  0  0  0  0  0  0  0  0  0
    1.9723   -0.7967    0.0000 C   0  0  0  0  0  0  0  0  0  0  0  0
    2.3620   -0.0994    0.0000 C   0  0  0  0  0  0  0  0  0  0  0  0
    9.0678   -2.2862    0.0000 C   0  0  0  0  0  0  0  0  0  0  0  0
    2.5794   -1.8461    0.0000 H   0  0  0  0  0  0  0  0  0  0  0  0
    2.4777   -3.3358    0.0000 O   0  0  0  0  0  0  0  0  0  0  0  0
  1  2  1  0  0  0  0
  1  3  1  0  0  0  0
  1  6  1  0  0  0  0
  2 22  1  0  0  0  0
  3  5  2  0  0  0  0
  4  3  1  0  0  0  0
  4 31  1  0  0  0  0
  7  1  1  0  0  0  0
  8  9  1  0  0  0  0
  8 10  2  0  0  0  0
  9 29  2  0  0  0  0
 10 11  1  0  0  0  0
 10 26  1  0  0  0  0
 11 12  1  0  0  0  0
 12 13  1  0  0  0  0
 12 43  1  6  0  0  0
 13 38  1  0  0  0  0
 14 15  1  0  0  0  0
 15 12  1  0  0  0  0
 16 17  1  0  0  0  0
 18 16  1  1  0  0  0
 18 19  1  0  0  0  0
 18 15  1  0  0  0  0
 19 20  1  0  0  0  0
 19 25  1  1  0  0  0
 19 27  1  0  0  0  0
 20 21  2  0  0  0  0
 21 14  1  0  0  0  0
 21 22  1  0  0  0  0
 22 23  2  0  0  0  0
 24 20  1  0  0  0  0
 26 18  1  0  0  0  0
 27 28  1  0  0  0  0
 28 26  2  0  0  0  0
 29 28  1  0  0  0  0
 29 30  1  0  0  0  0
 31 32  2  0  0  0  0
 32 33  1  0  0  0  0
 32  5  1  0  0  0  0
 33 36  2  0  0  0  0
 33 42  1  0  0  0  0
 34 35  1  0  0  0  0
 36 37  1  0  0  0  0
 37 34  2  0  0  0  0
 38 39  1  0  0  0  0
 40 41  1  0  0  0  0
 40 39  1  0  0  0  0
 41 39  1  0  0  0  0
 42 35  2  0  0  0  0
 13 17  1  0  0  0  0
 15 44  1  1  0  0  0
M  END
> <DATABASE_ID>
DB11691

> <DATABASE_NAME>
drugbank

> <SMILES>
[H][C@@]12OC3=C4C(C[C@@]5([H])N(CC6CC6)CC[C@@]14[C@@]5(O)CC(C(=O)NC(C)(C)C1=NC(=NO1)C1=CC=CC=C1)=C2O)=CC=C3O

> <INCHI_IDENTIFIER>
InChI=1S/C32H34N4O6/c1-30(2,29-33-27(35-42-29)18-6-4-3-5-7-18)34-28(39)20-15-32(40)22-14-19-10-11-21(37)25-23(19)31(32,26(41-25)24(20)38)12-13-36(22)16-17-8-9-17/h3-7,10-11,17,22,26,37-38,40H,8-9,12-16H2,1-2H3,(H,34,39)/t22-,26+,31+,32-/m1/s1

> <INCHI_KEY>
AXQACEQYCPKDMV-RZAWKFBISA-N

> <FORMULA>
C32H34N4O6

> <MOLECULAR_WEIGHT>
570.646

> <EXACT_MASS>
570.247834831

> <JCHEM_ACCEPTOR_COUNT>
8

> <JCHEM_ATOM_COUNT>
76

> <JCHEM_AVERAGE_POLARIZABILITY>
61.3439354628904

> <JCHEM_BIOAVAILABILITY>
1

> <JCHEM_DONOR_COUNT>
4

> <JCHEM_FORMAL_CHARGE>
0

> <JCHEM_GHOSE_FILTER>
0

> <JCHEM_IUPAC>
(1S,5R,13R,17S)-4-(cyclopropylmethyl)-10,14,17-trihydroxy-N-[2-(3-phenyl-1,2,4-oxadiazol-5-yl)propan-2-yl]-12-oxa-4-azapentacyclo[9.6.1.0^{1,13}.0^{5,17}.0^{7,18}]octadeca-7,9,11(18),14-tetraene-15-carboxamide

> <ALOGPS_LOGP>
3.14

> <JCHEM_LOGP>
2.4256560882356637

> <ALOGPS_LOGS>
-3.40

> <JCHEM_MDDR_LIKE_RULE>
1

> <JCHEM_NUMBER_OF_RINGS>
8

> <JCHEM_PHYSIOLOGICAL_CHARGE>
1

> <JCHEM_PKA>
10.4436482239588

> <JCHEM_PKA_STRONGEST_ACIDIC>
9.85641313843716

> <JCHEM_PKA_STRONGEST_BASIC>
9.05279920654814

> <JCHEM_POLAR_SURFACE_AREA>
141.18

> <JCHEM_REFRACTIVITY>
165.78439999999992

> <JCHEM_ROTATABLE_BOND_COUNT>
6

> <JCHEM_RULE_OF_FIVE>
0

> <ALOGPS_SOLUBILITY>
2.27e-01 g/l

> <JCHEM_TRADITIONAL_IUPAC>
(1S,5R,13R,17S)-4-(cyclopropylmethyl)-10,14,17-trihydroxy-N-[2-(3-phenyl-1,2,4-oxadiazol-5-yl)propan-2-yl]-12-oxa-4-azapentacyclo[9.6.1.0^{1,13}.0^{5,17}.0^{7,18}]octadeca-7,9,11(18),14-tetraene-15-carboxamide

> <JCHEM_VEBER_RULE>
0

> <DRUGBANK_ID>
DB11691

> <DRUG_GROUPS>
approved; investigational

> <GENERIC_NAME>
Naldemedine

> <SYNONYMS>
Naldemedine

> <PRODUCTS>
Rizmoic; Symproic

> <SALTS>
Naldemedine tosylate

$$$$
