
  Mrv1909 01152004412D          

 39 40  0  0  0  0            999 V2000
   -5.0197   -0.5169    0.0000 C   0  0  0  0  0  0  0  0  0  0  0  0
   -5.0197    0.2908    0.0000 C   0  0  0  0  0  0  0  0  0  0  0  0
   -5.7345   -0.9287    0.0000 C   0  0  0  0  0  0  0  0  0  0  0  0
   -4.3090   -0.9530    0.0000 N   0  0  0  0  0  0  0  0  0  0  0  0
   -5.7345    0.7269    0.0000 C   0  0  0  0  0  0  0  0  0  0  0  0
   -4.3090    0.7269    0.0000 I   0  0  0  0  0  0  0  0  0  0  0  0
   -6.4573   -0.4966    0.0000 C   0  0  0  0  0  0  0  0  0  0  0  0
   -5.7345   -1.7566    0.0000 I   0  0  0  0  0  0  0  0  0  0  0  0
   -3.5902   -0.5493    0.0000 C   0  0  0  0  0  0  0  0  0  0  0  0
   -6.4573    0.3270    0.0000 C   0  0  0  0  0  0  0  0  0  0  0  0
   -5.7345    1.5507    0.0000 C   0  0  0  0  0  0  0  0  0  0  0  0
   -2.8713   -0.9812    0.0000 C   0  0  0  0  0  0  0  0  0  0  0  0
   -3.5902    0.2624    0.0000 O   0  0  0  0  0  0  0  0  0  0  0  0
   -7.1883    0.7835    0.0000 I   0  0  0  0  0  0  0  0  0  0  0  0
   -5.0197    1.9546    0.0000 O   0  0  0  0  0  0  0  0  0  0  0  0
   -6.4573    1.9546    0.0000 O   0  0  0  0  0  0  0  0  0  0  0  0
   -2.1525   -0.5775    0.0000 O   0  0  0  0  0  0  0  0  0  0  0  0
   -1.4336   -1.0096    0.0000 C   0  0  0  0  0  0  0  0  0  0  0  0
   -0.7228   -0.6138    0.0000 C   0  0  0  0  0  0  0  0  0  0  0  0
    0.0000   -1.0378    0.0000 O   0  0  0  0  0  0  0  0  0  0  0  0
    0.7147   -0.6461    0.0000 C   0  0  0  0  0  0  0  0  0  0  0  0
    1.4376   -1.0741    0.0000 C   0  0  0  0  0  0  0  0  0  0  0  0
    2.1525   -0.6622    0.0000 O   0  0  0  0  0  0  0  0  0  0  0  0
    2.8672   -1.0903    0.0000 C   0  0  0  0  0  0  0  0  0  0  0  0
    3.5860   -0.6946    0.0000 C   0  0  0  0  0  0  0  0  0  0  0  0
    4.3049   -1.1267    0.0000 N   0  0  0  0  0  0  0  0  0  0  0  0
    3.5860    0.1171    0.0000 O   0  0  0  0  0  0  0  0  0  0  0  0
    5.0360   -0.7228    0.0000 C   0  0  0  0  0  0  0  0  0  0  0  0
    5.0360    0.0888    0.0000 C   0  0  0  0  0  0  0  0  0  0  0  0
    5.7546   -1.1267    0.0000 C   0  0  0  0  0  0  0  0  0  0  0  0
    5.7546    0.5209    0.0000 C   0  0  0  0  0  0  0  0  0  0  0  0
    4.3049    0.5209    0.0000 I   0  0  0  0  0  0  0  0  0  0  0  0
    6.4735   -0.7228    0.0000 C   0  0  0  0  0  0  0  0  0  0  0  0
    5.7546   -1.9546    0.0000 I   0  0  0  0  0  0  0  0  0  0  0  0
    6.4735    0.0888    0.0000 C   0  0  0  0  0  0  0  0  0  0  0  0
    5.7546    1.3609    0.0000 C   0  0  0  0  0  0  0  0  0  0  0  0
    7.1883    0.5209    0.0000 I   0  0  0  0  0  0  0  0  0  0  0  0
    6.4735    1.7566    0.0000 O   0  0  0  0  0  0  0  0  0  0  0  0
    5.0360    1.7566    0.0000 O   0  0  0  0  0  0  0  0  0  0  0  0
  1  2  1  0  0  0  0
  1  3  2  0  0  0  0
  1  4  1  0  0  0  0
  2  5  2  0  0  0  0
  2  6  1  0  0  0  0
  3  7  1  0  0  0  0
  3  8  1  0  0  0  0
  4  9  1  0  0  0  0
  5 10  1  0  0  0  0
  5 11  1  0  0  0  0
  9 12  1  0  0  0  0
  9 13  2  0  0  0  0
 10 14  1  0  0  0  0
 11 15  1  0  0  0  0
 11 16  2  0  0  0  0
 12 17  1  0  0  0  0
 17 18  1  0  0  0  0
 18 19  1  0  0  0  0
 19 20  1  0  0  0  0
 20 21  1  0  0  0  0
 21 22  1  0  0  0  0
 22 23  1  0  0  0  0
 23 24  1  0  0  0  0
 24 25  1  0  0  0  0
 25 26  1  0  0  0  0
 25 27  2  0  0  0  0
 26 28  1  0  0  0  0
 28 29  2  0  0  0  0
 28 30  1  0  0  0  0
 29 31  1  0  0  0  0
 29 32  1  0  0  0  0
 30 33  2  0  0  0  0
 30 34  1  0  0  0  0
 31 35  2  0  0  0  0
 31 36  1  0  0  0  0
 35 37  1  0  0  0  0
 36 38  1  0  0  0  0
 36 39  2  0  0  0  0
  7 10  2  0  0  0  0
 33 35  1  0  0  0  0
M  END
> <DATABASE_ID>
DB08945

> <DATABASE_NAME>
drugbank

> <SMILES>
OC(=O)C1=C(I)C(NC(=O)COCCOCCOCC(=O)NC2=C(I)C(C(O)=O)=C(I)C=C2I)=C(I)C=C1I

> <INCHI_IDENTIFIER>
InChI=1S/C22H18I6N2O9/c23-9-5-11(25)19(17(27)15(9)21(33)34)29-13(31)7-38-3-1-37-2-4-39-8-14(32)30-20-12(26)6-10(24)16(18(20)28)22(35)36/h5-6H,1-4,7-8H2,(H,29,31)(H,30,32)(H,33,34)(H,35,36)

> <INCHI_KEY>
JXMIBUGMYLQZGO-UHFFFAOYSA-N

> <FORMULA>
C22H18I6N2O9

> <MOLECULAR_WEIGHT>
1215.8131

> <EXACT_MASS>
1215.528040704

> <JCHEM_ACCEPTOR_COUNT>
9

> <JCHEM_ATOM_COUNT>
57

> <JCHEM_AVERAGE_NEUTRAL_MICROSPECIES_CHARGE>
-0.011432996878811968

> <JCHEM_AVERAGE_POLARIZABILITY>
77.5337462897516

> <JCHEM_BIOAVAILABILITY>
0

> <JCHEM_DONOR_COUNT>
4

> <JCHEM_FORMAL_CHARGE>
0

> <JCHEM_GHOSE_FILTER>
0

> <JCHEM_IUPAC>
3-{2-[2-(2-{[(3-carboxy-2,4,6-triiodophenyl)carbamoyl]methoxy}ethoxy)ethoxy]acetamido}-2,4,6-triiodobenzoic acid

> <ALOGPS_LOGP>
3.42

> <JCHEM_LOGP>
6.744001516333332

> <ALOGPS_LOGS>
-5.41

> <JCHEM_MDDR_LIKE_RULE>
0

> <JCHEM_NEUTRAL_CHARGE>
-2

> <JCHEM_NUMBER_OF_RINGS>
2

> <JCHEM_PHYSIOLOGICAL_CHARGE>
-2

> <JCHEM_PKA>
2.6269833994945695

> <JCHEM_PKA_STRONGEST_ACIDIC>
2.024923681496313

> <JCHEM_PKA_STRONGEST_BASIC>
-3.876310637171328

> <JCHEM_POLAR_SURFACE_AREA>
160.49

> <JCHEM_REFRACTIVITY>
198.51069999999999

> <JCHEM_ROTATABLE_BOND_COUNT>
14

> <JCHEM_RULE_OF_FIVE>
0

> <ALOGPS_SOLUBILITY>
4.70e-03 g/l

> <JCHEM_TRADITIONAL_IUPAC>
iotroxic acid

> <JCHEM_VEBER_RULE>
0

> <DRUGBANK_ID>
DB08945

> <DRUG_GROUPS>
experimental; withdrawn

> <GENERIC_NAME>
Iotroxic acid

> <SYNONYMS>
Acide iotroxique; Acido iotroxico; Acidum iotroxicum; Iotroxic acid; Iotroxinsaeure

> <INTERNATIONAL_BRANDS>
Biliscopin; Biliscopin DIC

> <SALTS>
Iotroxate meglumine

$$$$
