
  Mrv1909 07222105512D          

 51 54  0  0  1  0            999 V2000
   -2.8769    1.2776    0.0000 O   0  0  0  0  0  0  0  0  0  0  0  0
   -2.5189    0.5343    0.0000 S   0  0  0  0  0  0  0  0  0  0  0  0
   -3.3232    0.3507    0.0000 N   0  0  0  0  0  0  0  0  0  0  0  0
   -3.6811   -0.3925    0.0000 C   0  0  0  0  0  0  0  0  0  0  0  0
   -4.3262   -0.9068    0.0000 C   0  0  0  0  0  0  0  0  0  0  0  0
   -5.0941   -0.6054    0.0000 C   0  0  0  0  0  0  0  0  0  0  0  0
   -5.2171    0.2102    0.0000 C   0  0  0  0  0  0  0  0  0  0  0  0
   -5.9851    0.5116    0.0000 C   0  0  0  0  0  0  0  0  0  0  0  0
   -4.3262    0.1217    0.0000 C   0  0  0  0  0  0  0  0  0  0  0  0
   -4.2032    0.9376    0.0000 C   0  0  0  0  0  0  0  0  0  0  0  0
   -4.8484    1.4520    0.0000 C   0  0  0  0  0  0  0  0  0  0  0  0
   -4.7253    2.2677    0.0000 C   0  0  0  0  0  0  0  0  0  0  0  0
   -3.3232   -1.1358    0.0000 C   0  0  0  0  0  0  0  0  0  0  0  0
   -2.5189   -1.3194    0.0000 N   0  0  0  0  0  0  0  0  0  0  0  0
   -2.3354   -2.1238    0.0000 C   0  0  0  0  0  0  0  0  0  0  0  0
   -1.5470   -2.3669    0.0000 C   0  0  0  0  0  0  0  0  0  0  0  0
   -1.3634   -3.1712    0.0000 C   0  0  0  0  0  0  0  0  0  0  0  0
   -1.9681   -3.7324    0.0000 C   0  0  0  0  0  0  0  0  0  0  0  0
   -2.7565   -3.4891    0.0000 C   0  0  0  0  0  0  0  0  0  0  0  0
   -2.9401   -2.6849    0.0000 C   0  0  0  0  0  0  0  0  0  0  0  0
   -1.8739   -0.8050    0.0000 C   0  0  0  0  0  0  0  0  0  0  0  0
   -1.1594   -1.2175    0.0000 C   0  0  0  0  0  0  0  0  0  0  0  0
   -0.4449   -0.8050    0.0000 C   0  0  0  0  0  0  0  0  0  0  0  0
    0.2694   -1.2175    0.0000 S   0  0  0  0  0  0  0  0  0  0  0  0
    0.9839   -0.8050    0.0000 C   0  0  0  0  0  0  0  0  0  0  0  0
   -0.4449    0.0199    0.0000 C   0  0  0  0  0  0  0  0  0  0  0  0
    0.2694    0.4324    0.0000 O   0  0  0  0  0  0  0  0  0  0  0  0
    0.9839    0.0199    0.0000 C   0  0  0  0  0  0  0  0  0  0  0  0
    1.6984    0.4324    0.0000 C   0  0  0  0  0  0  0  0  0  0  0  0
    1.6984    1.2574    0.0000 O   0  0  0  0  0  0  0  0  0  0  0  0
    2.4128    0.0199    0.0000 N   0  0  0  0  0  0  0  0  0  0  0  0
    3.1273    0.4324    0.0000 C   0  0  2  0  0  0  0  0  0  0  0  0
    3.8418    0.0199    0.0000 C   0  0  0  0  0  0  0  0  0  0  0  0
    4.5562    0.4324    0.0000 C   0  0  0  0  0  0  0  0  0  0  0  0
    5.2707    0.0199    0.0000 C   0  0  0  0  0  0  0  0  0  0  0  0
    5.2707   -0.8050    0.0000 C   0  0  0  0  0  0  0  0  0  0  0  0
    5.9852   -1.2175    0.0000 O   0  0  0  0  0  0  0  0  0  0  0  0
    4.5562   -1.2175    0.0000 C   0  0  0  0  0  0  0  0  0  0  0  0
    3.8418   -0.8050    0.0000 C   0  0  0  0  0  0  0  0  0  0  0  0
    3.1273    1.2574    0.0000 C   0  0  0  0  0  0  0  0  0  0  0  0
    2.4128    1.6699    0.0000 O   0  0  0  0  0  0  0  0  0  0  0  0
    3.8418    1.6699    0.0000 N   0  0  0  0  0  0  0  0  0  0  0  0
    3.8418    2.4949    0.0000 C   0  0  1  0  0  0  0  0  0  0  0  0
    3.1273    2.9074    0.0000 C   0  0  0  0  0  0  0  0  0  0  0  0
    2.4128    2.4949    0.0000 C   0  0  0  0  0  0  0  0  0  0  0  0
    4.5562    2.9074    0.0000 C   0  0  0  0  0  0  0  0  0  0  0  0
    4.5562    3.7324    0.0000 O   0  0  0  0  0  0  0  0  0  0  0  0
    5.2707    2.4949    0.0000 O   0  0  0  0  0  0  0  0  0  0  0  0
   -1.1594    0.4324    0.0000 C   0  0  0  0  0  0  0  0  0  0  0  0
   -1.8739    0.0199    0.0000 C   0  0  0  0  0  0  0  0  0  0  0  0
   -1.8739    1.0487    0.0000 O   0  0  0  0  0  0  0  0  0  0  0  0
  1  2  2  0  0  0  0
  2  3  1  0  0  0  0
  3  4  1  0  0  0  0
  4  5  1  0  0  0  0
  5  6  1  0  0  0  0
  6  7  1  0  0  0  0
  7  8  1  0  0  0  0
  4  9  1  0  0  0  0
  9 10  1  0  0  0  0
 10 11  1  0  0  0  0
 11 12  1  0  0  0  0
  4 13  1  0  0  0  0
 14 13  1  0  0  0  0
 14 15  1  0  0  0  0
 15 16  1  0  0  0  0
 16 17  2  0  0  0  0
 17 18  1  0  0  0  0
 19 18  2  0  0  0  0
 20 19  1  0  0  0  0
 15 20  2  0  0  0  0
 21 14  1  0  0  0  0
 21 22  2  0  0  0  0
 22 23  1  0  0  0  0
 23 24  1  0  0  0  0
 24 25  1  0  0  0  0
 26 23  2  0  0  0  0
 26 27  1  0  0  0  0
 27 28  1  0  0  0  0
 28 29  1  0  0  0  0
 29 30  2  0  0  0  0
 29 31  1  0  0  0  0
 31 32  1  0  0  0  0
 32 33  1  0  0  0  0
 33 34  1  0  0  0  0
 34 35  2  0  0  0  0
 35 36  1  0  0  0  0
 36 37  1  0  0  0  0
 38 36  2  0  0  0  0
 39 38  1  0  0  0  0
 33 39  2  0  0  0  0
 32 40  1  1  0  0  0
 40 41  2  0  0  0  0
 40 42  1  0  0  0  0
 43 42  1  1  0  0  0
 43 44  1  0  0  0  0
 44 45  1  0  0  0  0
 43 46  1  0  0  0  0
 46 47  2  0  0  0  0
 46 48  1  0  0  0  0
 49 26  1  0  0  0  0
 50 49  2  0  0  0  0
 50 21  1  0  0  0  0
  2 50  1  0  0  0  0
  2 51  2  0  0  0  0
M  END
> <DATABASE_ID>
DB16261

> <DATABASE_NAME>
drugbank

> <SMILES>
CCCCC1(CCCC)CN(C2=CC=CC=C2)C2=CC(SC)=C(OCC(=O)N[C@@H](C(=O)N[C@@H](CC)C(O)=O)C3=CC=C(O)C=C3)C=C2S(=O)(=O)N1

> <INCHI_IDENTIFIER>
InChI=1S/C37H48N4O8S2/c1-5-8-19-37(20-9-6-2)24-41(26-13-11-10-12-14-26)29-21-31(50-4)30(22-32(29)51(47,48)40-37)49-23-33(43)39-34(25-15-17-27(42)18-16-25)35(44)38-28(7-3)36(45)46/h10-18,21-22,28,34,40,42H,5-9,19-20,23-24H2,1-4H3,(H,38,44)(H,39,43)(H,45,46)/t28-,34+/m0/s1

> <INCHI_KEY>
XULSCZPZVQIMFM-IPZQJPLYSA-N

> <FORMULA>
C37H48N4O8S2

> <MOLECULAR_WEIGHT>
740.93

> <EXACT_MASS>
740.29135687

> <JCHEM_ACCEPTOR_COUNT>
9

> <JCHEM_ATOM_COUNT>
99

> <JCHEM_AVERAGE_NEUTRAL_MICROSPECIES_CHARGE>
3.148361944891351e-05

> <JCHEM_AVERAGE_POLARIZABILITY>
80.0277491827473

> <JCHEM_BIOAVAILABILITY>
0

> <JCHEM_DONOR_COUNT>
5

> <JCHEM_FORMAL_CHARGE>
0

> <JCHEM_GHOSE_FILTER>
0

> <JCHEM_IUPAC>
(2S)-2-[(2R)-2-(2-{[3,3-dibutyl-7-(methylsulfanyl)-1,1-dioxo-5-phenyl-2,3,4,5-tetrahydro-1lambda6,2,5-benzothiadiazepin-8-yl]oxy}acetamido)-2-(4-hydroxyphenyl)acetamido]butanoic acid

> <ALOGPS_LOGP>
4.44

> <JCHEM_LOGP>
6.277614114333334

> <ALOGPS_LOGS>
-5.81

> <JCHEM_MDDR_LIKE_RULE>
1

> <JCHEM_NEUTRAL_CHARGE>
-1

> <JCHEM_NUMBER_OF_RINGS>
4

> <JCHEM_PHYSIOLOGICAL_CHARGE>
-1

> <JCHEM_PKA>
9.36562160124437

> <JCHEM_PKA_STRONGEST_ACIDIC>
3.402768181769452

> <JCHEM_PKA_STRONGEST_BASIC>
-3.369590673283187

> <JCHEM_POLAR_SURFACE_AREA>
174.36999999999998

> <JCHEM_REFRACTIVITY>
197.3059

> <JCHEM_ROTATABLE_BOND_COUNT>
17

> <JCHEM_RULE_OF_FIVE>
0

> <ALOGPS_SOLUBILITY>
1.15e-03 g/l

> <JCHEM_TRADITIONAL_IUPAC>
(2S)-2-[(2R)-2-(2-{[3,3-dibutyl-7-(methylsulfanyl)-1,1-dioxo-5-phenyl-2,4-dihydro-1lambda6,2,5-benzothiadiazepin-8-yl]oxy}acetamido)-2-(4-hydroxyphenyl)acetamido]butanoic acid

> <JCHEM_VEBER_RULE>
0

> <DRUGBANK_ID>
DB16261

> <DRUG_GROUPS>
approved; investigational

> <GENERIC_NAME>
Odevixibat

> <SYNONYMS>
Odevixibat

> <PRODUCTS>
Bylvay

> <INTERNATIONAL_BRANDS>
Bylvay

$$$$
