
  Mrv1909 05201914522D          

 35 38  0  0  1  0            999 V2000
    4.5627   -4.7185    0.0000 C   0  0  0  0  0  0  0  0  0  0  0  0
    5.2772   -5.1310    0.0000 C   0  0  0  0  0  0  0  0  0  0  0  0
    5.9916   -4.7185    0.0000 C   0  0  0  0  0  0  0  0  0  0  0  0
    5.2772   -5.9560    0.0000 C   0  0  0  0  0  0  0  0  0  0  0  0
    5.9916   -6.3685    0.0000 C   0  0  0  0  0  0  0  0  0  0  0  0
    5.9916   -7.1935    0.0000 C   0  0  0  0  0  0  0  0  0  0  0  0
    6.7061   -7.6060    0.0000 C   0  0  0  0  0  0  0  0  0  0  0  0
    6.7061   -8.4310    0.0000 C   0  0  0  0  0  0  0  0  0  0  0  0
    7.4206   -8.8435    0.0000 C   0  0  0  0  0  0  0  0  0  0  0  0
    8.1351   -8.4310    0.0000 C   0  0  0  0  0  0  0  0  0  0  0  0
    7.4206   -9.6685    0.0000 C   0  0  0  0  0  0  0  0  0  0  0  0
    6.7061  -10.0810    0.0000 C   0  0  0  0  0  0  0  0  0  0  0  0
    6.7061  -10.9060    0.0000 O   0  0  0  0  0  0  0  0  0  0  0  0
    7.4206  -11.3185    0.0000 C   0  0  0  0  0  0  0  0  0  0  0  0
    7.4206  -12.1435    0.0000 P   0  0  1  0  0  0  0  0  0  0  0  0
    6.6081  -12.0003    0.0000 O   0  0  0  0  0  0  0  0  0  0  0  0
    8.2331  -12.0003    0.0000 O   0  0  0  0  0  0  0  0  0  0  0  0
    8.7634  -12.6322    0.0000 C   0  0  0  0  0  0  0  0  0  0  0  0
    8.4812  -13.4075    0.0000 C   0  0  0  0  0  0  0  0  0  0  0  0
    7.6687  -13.5507    0.0000 C   0  0  2  0  0  0  0  0  0  0  0  0
    7.1384  -12.9188    0.0000 O   0  0  0  0  0  0  0  0  0  0  0  0
    7.3866  -14.3260    0.0000 C   0  0  0  0  0  0  0  0  0  0  0  0
    7.9169  -14.9580    0.0000 C   0  0  0  0  0  0  0  0  0  0  0  0
    7.6347  -15.7332    0.0000 C   0  0  0  0  0  0  0  0  0  0  0  0
    6.8222  -15.8765    0.0000 C   0  0  0  0  0  0  0  0  0  0  0  0
    6.2919  -15.2445    0.0000 C   0  0  0  0  0  0  0  0  0  0  0  0
    5.4795  -15.3878    0.0000 Cl  0  0  0  0  0  0  0  0  0  0  0  0
    6.5741  -14.4693    0.0000 C   0  0  0  0  0  0  0  0  0  0  0  0
    5.9916   -9.6685    0.0000 C   0  0  0  0  0  0  0  0  0  0  0  0
    5.9916   -8.8435    0.0000 C   0  0  0  0  0  0  0  0  0  0  0  0
    5.2772   -8.4310    0.0000 C   0  0  0  0  0  0  0  0  0  0  0  0
    5.2772   -7.6060    0.0000 C   0  0  0  0  0  0  0  0  0  0  0  0
    4.5627   -7.1935    0.0000 C   0  0  0  0  0  0  0  0  0  0  0  0
    4.5627   -6.3685    0.0000 C   0  0  0  0  0  0  0  0  0  0  0  0
    3.8482   -5.9560    0.0000 O   0  0  0  0  0  0  0  0  0  0  0  0
  1  2  1  0  0  0  0
  2  3  1  0  0  0  0
  2  4  1  0  0  0  0
  4  5  2  0  0  0  0
  5  6  1  0  0  0  0
  6  7  1  0  0  0  0
  7  8  1  0  0  0  0
  8  9  2  0  0  0  0
  9 10  1  0  0  0  0
  9 11  1  0  0  0  0
 11 12  2  0  0  0  0
 12 13  1  0  0  0  0
 13 14  1  0  0  0  0
 15 14  1  1  0  0  0
 15 16  2  0  0  0  0
 15 17  1  6  0  0  0
 17 18  1  0  0  0  0
 18 19  1  0  0  0  0
 20 19  1  0  0  0  0
 20 21  1  0  0  0  0
 15 21  1  0  0  0  0
 20 22  1  1  0  0  0
 22 23  2  0  0  0  0
 23 24  1  0  0  0  0
 24 25  2  0  0  0  0
 25 26  1  0  0  0  0
 26 27  1  0  0  0  0
 26 28  2  0  0  0  0
 22 28  1  0  0  0  0
 12 29  1  0  0  0  0
 29 30  2  0  0  0  0
  8 30  1  0  0  0  0
 30 31  1  0  0  0  0
  6 32  2  0  0  0  0
 32 33  1  0  0  0  0
 33 34  2  0  0  0  0
  4 34  1  0  0  0  0
 34 35  1  0  0  0  0
M  END
> <DATABASE_ID>
DB15137

> <DATABASE_NAME>
drugbank

> <SMILES>
CC(C)C1=CC(CC2=C(C)C=C(OC[P@@]3(=O)OCC[C@H](O3)C3=CC=CC(Cl)=C3)C=C2C)=CC=C1O

> <INCHI_IDENTIFIER>
InChI=1S/C28H32ClO5P/c1-18(2)25-14-21(8-9-27(25)30)15-26-19(3)12-24(13-20(26)4)32-17-35(31)33-11-10-28(34-35)22-6-5-7-23(29)16-22/h5-9,12-14,16,18,28,30H,10-11,15,17H2,1-4H3/t28-,35+/m0/s1

> <INCHI_KEY>
LGGPZDRLTDGYSQ-JADSYQMUSA-N

> <FORMULA>
C28H32ClO5P

> <MOLECULAR_WEIGHT>
514.98

> <EXACT_MASS>
514.1675888

> <JCHEM_ACCEPTOR_COUNT>
3

> <JCHEM_ATOM_COUNT>
67

> <JCHEM_AVERAGE_POLARIZABILITY>
53.17934753019998

> <JCHEM_BIOAVAILABILITY>
0

> <JCHEM_DONOR_COUNT>
1

> <JCHEM_FORMAL_CHARGE>
0

> <JCHEM_GHOSE_FILTER>
0

> <JCHEM_IUPAC>
(2R,4S)-4-(3-chlorophenyl)-2-[(4-{[4-hydroxy-3-(propan-2-yl)phenyl]methyl}-3,5-dimethylphenoxy)methyl]-1,3,2lambda5-dioxaphosphinan-2-one

> <ALOGPS_LOGP>
6.15

> <JCHEM_LOGP>
8.041211216666667

> <ALOGPS_LOGS>
-6.84

> <JCHEM_MDDR_LIKE_RULE>
1

> <JCHEM_NUMBER_OF_RINGS>
4

> <JCHEM_PHYSIOLOGICAL_CHARGE>
0

> <JCHEM_PKA_STRONGEST_ACIDIC>
10.620988396553454

> <JCHEM_PKA_STRONGEST_BASIC>
-4.904897621467683

> <JCHEM_POLAR_SURFACE_AREA>
64.99000000000001

> <JCHEM_REFRACTIVITY>
140.03779999999998

> <JCHEM_ROTATABLE_BOND_COUNT>
7

> <JCHEM_RULE_OF_FIVE>
0

> <ALOGPS_SOLUBILITY>
7.42e-05 g/l

> <JCHEM_TRADITIONAL_IUPAC>
(2R)-14-fluoro-2-methyl-6,9,10,19-tetraazapentacyclo[14.2.1.0^{2,6}.0^{8,18}.0^{12,17}]nonadeca-1(18),8,12(17),13,15-pentaen-11-one

> <JCHEM_VEBER_RULE>
0

> <DRUGBANK_ID>
DB15137

> <DRUG_GROUPS>
investigational

> <GENERIC_NAME>
VK-2809

$$$$
