
  Mrv1909 03022015452D          

 40 43  0  0  0  0            999 V2000
   -2.1428   -0.6267    0.0000 C   0  0  0  0  0  0  0  0  0  0  0  0
   -1.4289   -0.2130    0.0000 C   0  0  2  0  0  0  0  0  0  0  0  0
   -0.7136   -0.6245    0.0000 N   0  0  0  0  0  0  0  0  0  0  0  0
   -1.4303    0.6119    0.0000 C   0  0  1  0  0  0  0  0  0  0  0  0
   -0.7162    1.0256    0.0000 C   0  0  0  0  0  0  0  0  0  0  0  0
   -2.1454    1.0234    0.0000 O   0  0  0  0  0  0  0  0  0  0  0  0
   -0.7175    1.8507    0.0000 N   0  0  0  0  0  0  0  0  0  0  0  0
   -0.0036    2.2643    0.0000 S   0  0  0  0  0  0  0  0  0  0  0  0
   -1.4327    2.2622    0.0000 C   0  0  0  0  0  0  0  0  0  0  0  0
   -1.4340    3.0872    0.0000 C   0  0  0  0  0  0  0  0  0  0  0  0
   -0.7202    3.5009    0.0000 C   0  0  0  0  0  0  0  0  0  0  0  0
   -2.1493    3.4987    0.0000 C   0  0  0  0  0  0  0  0  0  0  0  0
    0.7133    1.8580    0.0000 C   0  0  0  0  0  0  0  0  0  0  0  0
    0.7135    1.0338    0.0000 C   0  0  0  0  0  0  0  0  0  0  0  0
    1.4270    0.6245    0.0000 C   0  0  0  0  0  0  0  0  0  0  0  0
    2.1395    1.0387    0.0000 C   0  0  0  0  0  0  0  0  0  0  0  0
    2.1340    1.8662    0.0000 C   0  0  0  0  0  0  0  0  0  0  0  0
    1.4199    2.2715    0.0000 C   0  0  0  0  0  0  0  0  0  0  0  0
    2.8560    0.6294    0.0000 N   0  0  0  0  0  0  0  0  0  0  0  0
   -0.0088   -0.2129    0.0000 C   0  0  0  0  0  0  0  0  0  0  0  0
   -0.0116    0.6131    0.0000 O   0  0  0  0  0  0  0  0  0  0  0  0
    0.7176   -0.6147    0.0000 O   0  0  0  0  0  0  0  0  0  0  0  0
    0.7233   -1.4399    0.0000 C   0  0  1  0  0  0  0  0  0  0  0  0
    0.0605   -1.9289    0.0000 C   0  0  0  0  0  0  0  0  0  0  0  0
    0.3213   -2.7118    0.0000 O   0  0  0  0  0  0  0  0  0  0  0  0
    1.3955   -1.9191    0.0000 C   0  0  1  0  0  0  0  0  0  0  0  0
    1.1494   -2.7049    0.0000 C   0  0  2  0  0  0  0  0  0  0  0  0
    1.8206   -3.1817    0.0000 O   0  0  0  0  0  0  0  0  0  0  0  0
    2.4818   -2.6907    0.0000 C   0  0  0  0  0  0  0  0  0  0  0  0
    2.2189   -1.9104    0.0000 C   0  0  0  0  0  0  0  0  0  0  0  0
    1.5985   -1.1159    0.0000 H   0  0  0  0  0  0  0  0  0  0  0  0
    0.9389   -3.5009    0.0000 H   0  0  0  0  0  0  0  0  0  0  0  0
   -0.5862    2.8499    0.0000 O   0  0  0  0  0  0  0  0  0  0  0  0
    0.5865    2.8499    0.0000 O   0  0  0  0  0  0  0  0  0  0  0  0
   -2.1415   -1.4518    0.0000 C   0  0  0  0  0  0  0  0  0  0  0  0
   -2.8559   -1.8643    0.0000 C   0  0  0  0  0  0  0  0  0  0  0  0
   -2.8559   -2.6894    0.0000 C   0  0  0  0  0  0  0  0  0  0  0  0
   -2.1415   -3.1019    0.0000 C   0  0  0  0  0  0  0  0  0  0  0  0
   -1.4270   -2.6894    0.0000 C   0  0  0  0  0  0  0  0  0  0  0  0
   -1.4270   -1.8643    0.0000 C   0  0  0  0  0  0  0  0  0  0  0  0
  2  4  1  0  0  0  0
 13 14  2  0  0  0  0
  4  5  1  0  0  0  0
 14 15  1  0  0  0  0
 15 16  2  0  0  0  0
  4  6  1  6  0  0  0
 16 17  1  0  0  0  0
 17 18  2  0  0  0  0
 18 13  1  0  0  0  0
  5  7  1  0  0  0  0
 16 19  1  0  0  0  0
  3 20  1  0  0  0  0
  7  8  1  0  0  0  0
 20 21  2  0  0  0  0
 20 22  1  0  0  0  0
  7  9  1  0  0  0  0
 23 22  1  6  0  0  0
 23 24  1  0  0  0  0
  9 10  1  0  0  0  0
 24 25  1  0  0  0  0
 25 27  1  0  0  0  0
 26 23  1  0  0  0  0
 26 27  1  0  0  0  0
  1  2  1  0  0  0  0
 10 11  1  0  0  0  0
 10 12  1  0  0  0  0
  2  3  1  1  0  0  0
 27 28  1  0  0  0  0
 28 29  1  0  0  0  0
 29 30  1  0  0  0  0
 30 26  1  0  0  0  0
  8 13  1  0  0  0  0
 26 31  1  1  0  0  0
 27 32  1  1  0  0  0
  8 33  2  0  0  0  0
  8 34  2  0  0  0  0
  1 35  1  0  0  0  0
 35 36  2  0  0  0  0
 35 40  1  0  0  0  0
 36 37  1  0  0  0  0
 37 38  2  0  0  0  0
 38 39  1  0  0  0  0
 39 40  2  0  0  0  0
M  END
> <DATABASE_ID>
DB01264

> <DATABASE_NAME>
drugbank

> <SMILES>
[H][C@@]12CCO[C@]1([H])OC[C@@H]2OC(=O)N[C@@H](CC1=CC=CC=C1)[C@H](O)CN(CC(C)C)S(=O)(=O)C1=CC=C(N)C=C1

> <INCHI_IDENTIFIER>
InChI=1S/C27H37N3O7S/c1-18(2)15-30(38(33,34)21-10-8-20(28)9-11-21)16-24(31)23(14-19-6-4-3-5-7-19)29-27(32)37-25-17-36-26-22(25)12-13-35-26/h3-11,18,22-26,31H,12-17,28H2,1-2H3,(H,29,32)/t22-,23-,24+,25-,26+/m0/s1

> <INCHI_KEY>
CJBJHOAVZSMMDJ-HEXNFIEUSA-N

> <FORMULA>
C27H37N3O7S

> <MOLECULAR_WEIGHT>
547.664

> <EXACT_MASS>
547.235221243

> <JCHEM_ACCEPTOR_COUNT>
7

> <JCHEM_ATOM_COUNT>
75

> <JCHEM_AVERAGE_NEUTRAL_MICROSPECIES_CHARGE>
2.4022132210879294e-05

> <JCHEM_AVERAGE_POLARIZABILITY>
57.486251305591125

> <JCHEM_BIOAVAILABILITY>
0

> <JCHEM_DONOR_COUNT>
3

> <JCHEM_FORMAL_CHARGE>
0

> <JCHEM_GHOSE_FILTER>
0

> <JCHEM_IUPAC>
(3R,3aS,6aR)-hexahydrofuro[2,3-b]furan-3-yl N-[(2S,3R)-3-hydroxy-4-[N-(2-methylpropyl)4-aminobenzenesulfonamido]-1-phenylbutan-2-yl]carbamate

> <ALOGPS_LOGP>
1.76

> <JCHEM_LOGP>
2.8168176063333332

> <ALOGPS_LOGS>
-3.91

> <JCHEM_MDDR_LIKE_RULE>
1

> <JCHEM_NEUTRAL_CHARGE>
0

> <JCHEM_NUMBER_OF_RINGS>
4

> <JCHEM_PHYSIOLOGICAL_CHARGE>
0

> <JCHEM_PKA>
14.23135852263432

> <JCHEM_PKA_STRONGEST_ACIDIC>
13.588299257233066

> <JCHEM_PKA_STRONGEST_BASIC>
2.3863099633984333

> <JCHEM_POLAR_SURFACE_AREA>
140.42

> <JCHEM_REFRACTIVITY>
142.3406

> <JCHEM_ROTATABLE_BOND_COUNT>
11

> <JCHEM_RULE_OF_FIVE>
0

> <ALOGPS_SOLUBILITY>
6.68e-02 g/l

> <JCHEM_TRADITIONAL_IUPAC>
1-hydroxy-2,2,6,6-tetramethylpiperidin-4-yl cyclopropanecarboxylate

> <JCHEM_VEBER_RULE>
0

> <DRUGBANK_ID>
DB01264

> <SECONDARY_ACCESSION_NUMBERS>
EXPT00002

> <DRUG_GROUPS>
approved

> <GENERIC_NAME>
Darunavir

> <SYNONYMS>
(3R,3aS,6aR)-hexahydrofuro[2,3-b]furan-3-yl N-((1S,2R)-1-benzyl-2-hydroxy-3-(N1-isobutylsulfanilamido)propyl)carbamate; (3R,3aS,6aR)-tetrahydro-2H-furo[2,3-b]furan-3-yl (2S,3R)-4-(4-amino-N-isobutylphenylsulfonamido)-3-hydroxy-1-phenylbutan-2-ylcarbamate; (3R,3aS,6aR)-tetrahydro-2H-furo[2,3-b]furan-3-yl (2S,3R)-4-(4-amino-N-neopentylphenylsulfonamido)-3-hydroxy-1-phenylbutan-2-ylcarbamate; [(S)-3-[(4-Amino-benzenesulfonyl)-isobutyl-amino]-2-hydroxy-1-((R)-phenylmethyl)-propyl]-carbamic acid (3R,3aS,6aR)-(hexahydro-furo[2,3-b]furan-3-yl) ester; {(1S,2R)-3-[(4-Amino-benzenesulfonyl)-isobutyl-amino]-1-benzyl-2-hydroxy-propyl}-carbamic acid (3R,3aS,6aR)-(hexahydro-furo[2,3-b]furan-3-yl) ester; Darunavir; Darunavirum; N-((1S,2R)-3-(((4-aminophenyl)sulfonyl)(2-methylpropyl)amino)-2-hydroxy-1-benzylpropyl)((1S,2R,5R)-4,6-dioxabicyclo(3.3.0)oct-2-yloxy)carboxamide

> <PRODUCTS>
Apo-darunavir; Auro-darunavir; Darunavir; Darunavir Krka; Darunavir Krka D.D.; Darunavir Mylan; M-darunavir; Mar-darunavir; Mylan-darunavir; Nat-darunavir; Pat-darunavir; Prezcobix; Prezista; Rezolsta; Sandoz Darunavir; Symtuza

> <SALTS>
Darunavir ethanolate; Darunavir propylene glycolate

$$$$
