
  Mrv1909 03052019062D          

 23 25  0  0  0  0            999 V2000
   -2.1435   -0.4125    0.0000 C   0  0  0  0  0  0  0  0  0  0  0  0
   -2.8579   -0.8251    0.0000 C   0  0  0  0  0  0  0  0  0  0  0  0
   -2.8579   -1.6500    0.0000 C   0  0  0  0  0  0  0  0  0  0  0  0
   -2.1435   -2.0625    0.0000 C   0  0  0  0  0  0  0  0  0  0  0  0
   -1.4289   -0.8251    0.0000 C   0  0  0  0  0  0  0  0  0  0  0  0
   -1.4289   -1.6500    0.0000 C   0  0  0  0  0  0  0  0  0  0  0  0
    0.0000   -0.8251    0.0000 C   0  0  0  0  0  0  0  0  0  0  0  0
    1.4289   -0.8251    0.0000 C   0  0  0  0  0  0  0  0  0  0  0  0
    2.8579   -0.8251    0.0000 C   0  0  0  0  0  0  0  0  0  0  0  0
    0.7145   -0.4125    0.0000 C   0  0  2  0  0  0  0  0  0  0  0  0
    0.7145    0.4125    0.0000 C   0  0  0  0  0  0  0  0  0  0  0  0
    0.7145    2.0625    0.0000 C   0  0  0  0  0  0  0  0  0  0  0  0
    0.0000    1.6499    0.0000 C   0  0  0  0  0  0  0  0  0  0  0  0
    0.0000    0.8250    0.0000 C   0  0  0  0  0  0  0  0  0  0  0  0
    1.4289    0.8250    0.0000 C   0  0  0  0  0  0  0  0  0  0  0  0
    1.4289    1.6499    0.0000 C   0  0  0  0  0  0  0  0  0  0  0  0
   -0.7145   -0.4125    0.0000 C   0  0  0  0  0  0  0  0  0  0  0  0
   -0.7145    0.4125    0.0000 O   0  0  0  0  0  0  0  0  0  0  0  0
   -0.7145   -2.0625    0.0000 O   0  0  0  0  0  0  0  0  0  0  0  0
    0.0000   -1.6500    0.0000 C   0  0  0  0  0  0  0  0  0  0  0  0
    0.7145   -2.0625    0.0000 O   0  0  0  0  0  0  0  0  0  0  0  0
    2.1435   -0.4125    0.0000 C   0  0  0  0  0  0  0  0  0  0  0  0
    2.1435    0.4125    0.0000 O   0  0  0  0  0  0  0  0  0  0  0  0
  1  2  2  0  0  0  0
  1  5  1  0  0  0  0
  2  3  1  0  0  0  0
  3  4  2  0  0  0  0
  4  6  1  0  0  0  0
 17  5  1  0  0  0  0
  6  5  2  0  0  0  0
  6 19  1  0  0  0  0
 17  7  2  0  0  0  0
 19 20  1  0  0  0  0
 20  7  1  0  0  0  0
  7 10  1  0  0  0  0
 10  8  1  0  0  0  0
  8 22  1  0  0  0  0
 22  9  1  0  0  0  0
 10 11  1  1  0  0  0
 14 11  2  0  0  0  0
 11 15  1  0  0  0  0
 12 13  2  0  0  0  0
 12 16  1  0  0  0  0
 13 14  1  0  0  0  0
 15 16  2  0  0  0  0
 17 18  1  0  0  0  0
 20 21  2  0  0  0  0
 22 23  2  0  0  0  0
M  END
> <DATABASE_ID>
DB08496

> <DATABASE_NAME>
drugbank

> <SMILES>
CC(=O)C[C@H](C1=CC=CC=C1)C1=C(O)C2=C(OC1=O)C=CC=C2

> <INCHI_IDENTIFIER>
InChI=1S/C19H16O4/c1-12(20)11-15(13-7-3-2-4-8-13)17-18(21)14-9-5-6-10-16(14)23-19(17)22/h2-10,15,21H,11H2,1H3/t15-/m1/s1

> <INCHI_KEY>
PJVWKTKQMONHTI-OAHLLOKOSA-N

> <FORMULA>
C19H16O4

> <MOLECULAR_WEIGHT>
308.3279

> <EXACT_MASS>
308.104859

> <JCHEM_ACCEPTOR_COUNT>
3

> <JCHEM_ATOM_COUNT>
39

> <JCHEM_AVERAGE_NEUTRAL_MICROSPECIES_CHARGE>
-0.9649941155721914

> <JCHEM_AVERAGE_POLARIZABILITY>
32.04077647418786

> <JCHEM_BIOAVAILABILITY>
1

> <JCHEM_DONOR_COUNT>
1

> <JCHEM_FORMAL_CHARGE>
0

> <JCHEM_GHOSE_FILTER>
1

> <JCHEM_IUPAC>
4-hydroxy-3-[(1R)-3-oxo-1-phenylbutyl]-2H-chromen-2-one

> <ALOGPS_LOGP>
2.41

> <JCHEM_LOGP>
2.744707362333333

> <ALOGPS_LOGS>
-3.82

> <JCHEM_MDDR_LIKE_RULE>
0

> <JCHEM_NEUTRAL_CHARGE>
-1

> <JCHEM_NUMBER_OF_RINGS>
3

> <JCHEM_PHYSIOLOGICAL_CHARGE>
-1

> <JCHEM_PKA>
19.518050558116247

> <JCHEM_PKA_STRONGEST_ACIDIC>
5.559616389561673

> <JCHEM_PKA_STRONGEST_BASIC>
-6.903837402787224

> <JCHEM_POLAR_SURFACE_AREA>
63.599999999999994

> <JCHEM_REFRACTIVITY>
86.86009999999999

> <JCHEM_ROTATABLE_BOND_COUNT>
4

> <JCHEM_RULE_OF_FIVE>
1

> <ALOGPS_SOLUBILITY>
4.72e-02 g/l

> <JCHEM_TRADITIONAL_IUPAC>
(2R,3S,4R,5R,6R)-5-amino-2-(aminomethyl)-6-{[(1R,2R,3S,4R,6S)-4,6-diamino-2-{[(2S,3R,4S,5R)-4-{[(2R,3R,4R,5S,6S)-3-amino-6-(aminomethyl)-4,5-dihydroxyoxan-2-yl]oxy}-3-hydroxy-5-(hydroxymethyl)oxolan-2-yl]oxy}-3-hydroxycyclohexyl]oxy}oxane-3,4-diol

> <JCHEM_VEBER_RULE>
0

> <DRUGBANK_ID>
DB08496

> <DRUG_GROUPS>
experimental

> <GENERIC_NAME>
(R)-warfarin

> <SYNONYMS>
(+)-warfarin; (R)-4-Hydroxy-3-(3-oxo-1-phenylbutyl)-2-benzopyrone; (R)-4-Hydroxy-3-(3-oxo-1-phenylbutyl)-2H-1-benzopyran-2-one; 4-hydroxy-3-[(1R)-3-oxo-1-phenylbutyl]-2H-chromen-2-one; R-warfarin; R,R-Warfarin alcohol

$$$$
