
  Mrv1652310211603102D          

  1  0  0  0  0  0            999 V2000
    0.0000    0.0000    0.0000 Sm  0  0  0  0  0  0  0  0  0  0  0  0
M  ISO  1   1 153
M  END
> <DATABASE_ID>
DB12905

> <DATABASE_NAME>
drugbank

> <SMILES>
[153Sm]

> <INCHI_IDENTIFIER>
InChI=1S/Sm/i1+3

> <INCHI_KEY>
KZUNJOHGWZRPMI-AKLPVKDBSA-N

> <FORMULA>
Sm

> <MOLECULAR_WEIGHT>
152.9221

> <EXACT_MASS>
152.922093907

> <JCHEM_ACCEPTOR_COUNT>
0

> <JCHEM_ATOM_COUNT>
1

> <JCHEM_AVERAGE_POLARIZABILITY>
1.7784

> <JCHEM_BIOAVAILABILITY>
1

> <JCHEM_DONOR_COUNT>
0

> <JCHEM_FORMAL_CHARGE>
0

> <JCHEM_GHOSE_FILTER>
0

> <JCHEM_IUPAC>
(153Sm)samarium

> <JCHEM_LOGP>
0.0

> <JCHEM_MDDR_LIKE_RULE>
0

> <JCHEM_NUMBER_OF_RINGS>
0

> <JCHEM_PHYSIOLOGICAL_CHARGE>
0

> <JCHEM_POLAR_SURFACE_AREA>
0.0

> <JCHEM_REFRACTIVITY>
0.0

> <JCHEM_ROTATABLE_BOND_COUNT>
0

> <JCHEM_RULE_OF_FIVE>
1

> <JCHEM_TRADITIONAL_IUPAC>
(153Sm)samarium

> <JCHEM_VEBER_RULE>
1

> <DRUGBANK_ID>
DB12905

> <DRUG_GROUPS>
investigational

> <GENERIC_NAME>
Samarium Sm-153

> <SYNONYMS>
153SM; Samarium 153; Samarium Sm153; Samarium-153; SM-153

$$$$
