
  Mrv1718010061715022D          

 20 21  0  0  0  0            999 V2000
   -1.7861    1.8562    0.0000 C   0  0  0  0  0  0  0  0  0  0  0  0
   -1.7861    1.0312    0.0000 C   0  0  0  0  0  0  0  0  0  0  0  0
   -2.5006    0.6187    0.0000 C   0  0  0  0  0  0  0  0  0  0  0  0
   -2.5006   -0.2062    0.0000 C   0  0  0  0  0  0  0  0  0  0  0  0
   -1.7861   -0.6187    0.0000 C   0  0  0  0  0  0  0  0  0  0  0  0
   -1.0717   -0.2062    0.0000 C   0  0  0  0  0  0  0  0  0  0  0  0
   -1.0717    0.6187    0.0000 C   0  0  0  0  0  0  0  0  0  0  0  0
   -0.3572   -0.6187    0.0000 O   0  0  0  0  0  0  0  0  0  0  0  0
    0.3572   -0.2062    0.0000 C   0  0  0  0  0  0  0  0  0  0  0  0
    0.3572    0.6187    0.0000 O   0  0  0  0  0  0  0  0  0  0  0  0
    1.0717   -0.6187    0.0000 C   0  0  0  0  0  0  0  0  0  0  0  0
    1.7861   -0.2062    0.0000 C   0  0  0  0  0  0  0  0  0  0  0  0
    2.5006   -0.6187    0.0000 C   0  0  0  0  0  0  0  0  0  0  0  0
    2.5006   -1.4437    0.0000 C   0  0  0  0  0  0  0  0  0  0  0  0
    1.7861   -1.8562    0.0000 C   0  0  0  0  0  0  0  0  0  0  0  0
    1.0717   -1.4437    0.0000 C   0  0  0  0  0  0  0  0  0  0  0  0
    0.3572   -1.8562    0.0000 N   0  0  0  0  0  0  0  0  0  0  0  0
   -1.7861   -1.4437    0.0000 C   0  0  0  0  0  0  0  0  0  0  0  0
   -2.5006   -1.8562    0.0000 C   0  0  0  0  0  0  0  0  0  0  0  0
   -1.0717   -1.8562    0.0000 C   0  0  0  0  0  0  0  0  0  0  0  0
  1  2  1  0  0  0  0
  2  3  1  0  0  0  0
  3  4  1  0  0  0  0
  4  5  1  0  0  0  0
  5  6  1  0  0  0  0
  6  7  1  0  0  0  0
  2  7  1  0  0  0  0
  6  8  1  0  0  0  0
  8  9  1  0  0  0  0
  9 10  2  0  0  0  0
  9 11  1  0  0  0  0
 11 12  2  0  0  0  0
 12 13  1  0  0  0  0
 13 14  2  0  0  0  0
 14 15  1  0  0  0  0
 15 16  2  0  0  0  0
 11 16  1  0  0  0  0
 16 17  1  0  0  0  0
  5 18  1  0  0  0  0
 18 19  1  0  0  0  0
 18 20  1  0  0  0  0
M  END
> <DATABASE_ID>
DB11096

> <DATABASE_NAME>
drugbank

> <SMILES>
CC(C)C1CCC(C)CC1OC(=O)C1=CC=CC=C1N

> <INCHI_IDENTIFIER>
InChI=1S/C17H25NO2/c1-11(2)13-9-8-12(3)10-16(13)20-17(19)14-6-4-5-7-15(14)18/h4-7,11-13,16H,8-10,18H2,1-3H3

> <INCHI_KEY>
SOXAGEOHPCXXIO-UHFFFAOYSA-N

> <FORMULA>
C17H25NO2

> <MOLECULAR_WEIGHT>
275.392

> <EXACT_MASS>
275.188529049

> <JCHEM_ACCEPTOR_COUNT>
2

> <JCHEM_ATOM_COUNT>
45

> <JCHEM_AVERAGE_POLARIZABILITY>
31.555877542801397

> <JCHEM_BIOAVAILABILITY>
1

> <JCHEM_DONOR_COUNT>
1

> <JCHEM_FORMAL_CHARGE>
0

> <JCHEM_GHOSE_FILTER>
1

> <JCHEM_IUPAC>
5-methyl-2-(propan-2-yl)cyclohexyl 2-aminobenzoate

> <ALOGPS_LOGP>
4.12

> <JCHEM_LOGP>
4.980647041666668

> <ALOGPS_LOGS>
-4.67

> <JCHEM_MDDR_LIKE_RULE>
0

> <JCHEM_NUMBER_OF_RINGS>
2

> <JCHEM_PHYSIOLOGICAL_CHARGE>
0

> <JCHEM_PKA_STRONGEST_ACIDIC>
19.391689004921158

> <JCHEM_PKA_STRONGEST_BASIC>
2.2801504183115764

> <JCHEM_POLAR_SURFACE_AREA>
52.32

> <JCHEM_REFRACTIVITY>
81.96770000000001

> <JCHEM_ROTATABLE_BOND_COUNT>
4

> <JCHEM_RULE_OF_FIVE>
1

> <ALOGPS_SOLUBILITY>
5.87e-03 g/l

> <JCHEM_TRADITIONAL_IUPAC>
menthyl anthranilate

> <JCHEM_VEBER_RULE>
0

> <DRUGBANK_ID>
DB11096

> <DRUG_GROUPS>
approved

> <GENERIC_NAME>
Meradimate

> <SYNONYMS>
Menthyl anthranilate; Menthyl-O-aminobenzoate; Meradimate

> <PRODUCTS>
All Seasons Lip Balm; Aloe Up Medicated Lip Ice Sunscreen SPF 30; Aveda Botanical Kinetics Daily Light Guard; BIOCORNEUM PLUS BROAD SPECTRUM SPF 30 ADVANCED SCAR TREATMENT gel; Biocorneum Plus Broad Spectrum SPF 30 Advanced Scar Treatment; Blistex Lip Tone Balm; Blistex Ultra Lip Balm; Body Armor - SPF 30 Sunscreen; Body Armor Sun 'n Bug Block; Bull Frog Water Armor Super 40; BullFrog Super Block; BullFrog Water Armor Sport Super; CeraVe AM BROAD SPECTRUM SUNSCREEN SPF 30; CeraVe AM Facial Moisturizing Broad Spectrum SPF 30 Sunscreen; CeraVe Sunscreen Broad Spectrum SPF 30 BODY; CeraVe Sunscreen Broad Spectrum SPF 30 FACE; Cerave; Clinic A Retinol Vital Day Moist Lot Spf20; Dentec Lip Balm; Eezy Pro SPF 30; Eezy Pro SPF 50; Eezy Pro SPF30; Eezy Pro SPF50; Eezy Sun SPF 30; Eezy Sun SPF 50; Eezy pro; Exact Lip Balm Year-round Protection; Full Service Sunblock 10spf; Gly Derm Super Sunblock; Hawaiian Tropic 10 Plus Lotion; Hawaiian Tropic 10 Plus Sunscreen; Hawaiian Tropic 15 Plus Sunblock Lotion; Hawaiian Tropic 30 Plus Sunblock Lotion; Hawaiian Tropic Herbal Aloe 45 SPF Lip Balm; Hawaiian Tropic Lip Balm 45 SPF-cherry; Hawaiian Tropic Lip Balm 45 SPF-coconut; Hawaiian Tropic Lip Balm 45 SPF-mint; Herbal Day Creme SPF 15; Herpecin; Herpecin L; Hydrating Facial SPF-30; Johnson's Baby Lotion SPF 15; Kids SPF 30+ Spray-ON Sunscreen; Kinesys Sport SPF 30 Oilfree Sunscreen With Mango; Kinesys Sun Protection Stick - Stk; Laura Mercier Tinted Moisturizer Broad Spectrum SPF 20 Sunscreen - Nude; Laura Mercier Tinted Moisturizer Broad Spectrum SPF 20 Sunscreen 1W1 Porcelain; Laura Mercier Tinted Moisturizer Broad Spectrum SPF 20 Sunscreen 2W2 Nude; Laura Mercier Tinted Moisturizer Broad Spectrum SPF 20 Sunscreen 3C1 Fawn; Laura Mercier Tinted Moisturizer Broad Spectrum SPF 20 Sunscreen 3W2 Sand; Laura Mercier Tinted Moisturizer Broad Spectrum SPF 20 Sunscreen 4C1 Almond; Laura Mercier Tinted Moisturizer Broad Spectrum SPF 20 Sunscreen 5W1 Tan; Laura Mercier Tinted Moisturizer Broad Spectrum SPF 20 Sunscreen 6C1 Walnut; Laura Mercier Tinted Moisturizer Broad Spectrum SPF 20 Sunscreen Walnut; Laura mercier Tinted Moisturizer SPF-20 Almond; Laura mercier Tinted Moisturizer SPF-20 Fawn; Laura mercier Tinted Moisturizer SPF-20 Nude; Laura mercier Tinted Moisturizer SPF-20 Porcelain; Laura mercier Tinted Moisturizer SPF-20 Sand; Laura mercier Tinted Moisturizer SPF-20 Tan; Laura mercier Tinted Moisturizer SPF-20 Walnut SPF-20 Walnut; Light Protection SPF 12 - Lot; Lip Balm Vanilla Flavored; Lip Conditioner Lip Balm; Lip Saver Spf15 - Stk; London Drugs' Dark Tanning Lotion SPF 4; Lotion Solaire Fps 15; Lotion Solaire Fps 25; MDSolarSciences SPF40 Ultra-Sport; Marcelle/ Oil Free Multi-Défense Lotion SPF 15 Fps/ Fluide Multi-Défense Sans Huile; Marcelle/multi-defense Cream/crème Multi-Défense/SPF 15 Fps; Medicated Blistex Dct Lip Balm; Native Tan Baby Care Sun Protection Lotion SPF 25; Neutrogena Sunblock Cream SPF 30; Neutrogena Sunblock SPF 30; Neutrogena Sunblock Spray SPF 20; Nutriance Uv Control Skin Protection Creme SPF 8; Principal Secret Reclaim Sunscreen For Face and Body SPF 30; Pro-Tect Sports Sunscreen SPF 20; Pro-Tect Sunscreen for Professionals; Pro-tect Sports Sunscreen; Pro-tect Sunscreen for Professionals; Purpose Dual Treatment Moisture Lotion With SPF 15; Rejuvenating Face Moisturizer SPF 30; SPF 15 Oil Free Sunscreen Spray; SPF 15 Spray-ON Sunscreen; SPF 15 Sunscreen Spray With Insect Repellent; SPF 30 Lip Balm; SPF 30 Moisturizing Facial Sunscreen Cvs Health; SPF 30 Oil Free Sunscreen Spray; SPF 30 Sun Protection Lotion; SPF 30+ Spray-ON Sunscreen; SPF 40 Sport Spray; SPF 8 Oil Free Sunscreen Spray; Sodium Sulfacetamide Sulfur; Watkins Aloe Vera Botanical Lip Balm; Ymlabs; Zoom Protective Lip Cream

$$$$
