
  Mrv1652310211603452D          

 29 32  0  0  0  0            999 V2000
   -0.1014    2.1518    0.0000 C   0  0  0  0  0  0  0  0  0  0  0  0
    0.4507    2.7649    0.0000 C   0  0  0  0  0  0  0  0  0  0  0  0
    1.2577    2.5934    0.0000 C   0  0  0  0  0  0  0  0  0  0  0  0
    1.5126    1.8088    0.0000 N   0  0  0  0  0  0  0  0  0  0  0  0
    0.9606    1.1957    0.0000 C   0  0  0  0  0  0  0  0  0  0  0  0
    0.1536    1.3672    0.0000 C   0  0  0  0  0  0  0  0  0  0  0  0
   -0.3984    0.7541    0.0000 C   0  0  0  0  0  0  0  0  0  0  0  0
   -0.1435   -0.0305    0.0000 C   0  0  0  0  0  0  0  0  0  0  0  0
   -0.6284   -0.6979    0.0000 C   0  0  0  0  0  0  0  0  0  0  0  0
   -0.1435   -1.3654    0.0000 N   0  0  0  0  0  0  0  0  0  0  0  0
    0.6411   -1.1104    0.0000 C   0  0  0  0  0  0  0  0  0  0  0  0
    0.6411   -0.2854    0.0000 C   0  0  0  0  0  0  0  0  0  0  0  0
    1.3556    0.1271    0.0000 C   0  0  0  0  0  0  0  0  0  0  0  0
    2.0701   -0.2854    0.0000 C   0  0  0  0  0  0  0  0  0  0  0  0
    2.0701   -1.1104    0.0000 C   0  0  0  0  0  0  0  0  0  0  0  0
    1.3556   -1.5229    0.0000 N   0  0  0  0  0  0  0  0  0  0  0  0
    2.7845    0.1271    0.0000 Cl  0  0  0  0  0  0  0  0  0  0  0  0
    1.8097    3.2065    0.0000 N   0  0  0  0  0  0  0  0  0  0  0  0
    1.5547    3.9911    0.0000 C   0  0  0  0  0  0  0  0  0  0  0  0
    2.1068    4.6042    0.0000 C   0  0  0  0  0  0  0  0  0  0  0  0
    1.8518    5.3888    0.0000 C   0  0  0  0  0  0  0  0  0  0  0  0
    2.4039    6.0019    0.0000 C   0  0  0  0  0  0  0  0  0  0  0  0
    3.2108    5.8304    0.0000 C   0  0  0  0  0  0  0  0  0  0  0  0
    3.4658    5.0458    0.0000 N   0  0  0  0  0  0  0  0  0  0  0  0
    2.9138    4.4327    0.0000 C   0  0  0  0  0  0  0  0  0  0  0  0
    3.7629    6.4435    0.0000 C   0  0  0  0  0  0  0  0  0  0  0  0
    4.3149    7.0566    0.0000 F   0  0  0  0  0  0  0  0  0  0  0  0
    4.3760    5.8915    0.0000 F   0  0  0  0  0  0  0  0  0  0  0  0
    3.1498    6.9955    0.0000 F   0  0  0  0  0  0  0  0  0  0  0  0
  1  2  2  0  0  0  0
  2  3  1  0  0  0  0
  3  4  2  0  0  0  0
  4  5  1  0  0  0  0
  5  6  2  0  0  0  0
  1  6  1  0  0  0  0
  6  7  1  0  0  0  0
  7  8  1  0  0  0  0
  8  9  2  0  0  0  0
  9 10  1  0  0  0  0
 10 11  1  0  0  0  0
 11 12  1  0  0  0  0
  8 12  1  0  0  0  0
 12 13  2  0  0  0  0
 13 14  1  0  0  0  0
 14 15  2  0  0  0  0
 15 16  1  0  0  0  0
 11 16  2  0  0  0  0
 14 17  1  0  0  0  0
  3 18  1  0  0  0  0
 18 19  1  0  0  0  0
 19 20  1  0  0  0  0
 20 21  2  0  0  0  0
 21 22  1  0  0  0  0
 22 23  2  0  0  0  0
 23 24  1  0  0  0  0
 24 25  2  0  0  0  0
 20 25  1  0  0  0  0
 23 26  1  0  0  0  0
 26 27  1  0  0  0  0
 26 28  1  0  0  0  0
 26 29  1  0  0  0  0
M  END
> <DATABASE_ID>
DB12978

> <DATABASE_NAME>
drugbank

> <SMILES>
FC(F)(F)C1=CC=C(CNC2=NC=C(CC3=CNC4=NC=C(Cl)C=C34)C=C2)C=N1

> <INCHI_IDENTIFIER>
InChI=1S/C20H15ClF3N5/c21-15-6-16-14(10-28-19(16)29-11-15)5-12-2-4-18(26-7-12)27-9-13-1-3-17(25-8-13)20(22,23)24/h1-4,6-8,10-11H,5,9H2,(H,26,27)(H,28,29)

> <INCHI_KEY>
JGWRKYUXBBNENE-UHFFFAOYSA-N

> <FORMULA>
C20H15ClF3N5

> <MOLECULAR_WEIGHT>
417.82

> <EXACT_MASS>
417.0968077

> <JCHEM_ACCEPTOR_COUNT>
4

> <JCHEM_ATOM_COUNT>
44

> <JCHEM_AVERAGE_POLARIZABILITY>
39.328268099559956

> <JCHEM_BIOAVAILABILITY>
1

> <JCHEM_DONOR_COUNT>
2

> <JCHEM_FORMAL_CHARGE>
0

> <JCHEM_GHOSE_FILTER>
1

> <JCHEM_IUPAC>
5-({5-chloro-1H-pyrrolo[2,3-b]pyridin-3-yl}methyl)-N-{[6-(trifluoromethyl)pyridin-3-yl]methyl}pyridin-2-amine

> <ALOGPS_LOGP>
4.64

> <JCHEM_LOGP>
4.537698868333334

> <ALOGPS_LOGS>
-5.12

> <JCHEM_MDDR_LIKE_RULE>
1

> <JCHEM_NUMBER_OF_RINGS>
4

> <JCHEM_PHYSIOLOGICAL_CHARGE>
1

> <JCHEM_PKA_STRONGEST_ACIDIC>
15.678802836375432

> <JCHEM_PKA_STRONGEST_BASIC>
6.76290137785338

> <JCHEM_POLAR_SURFACE_AREA>
66.49000000000001

> <JCHEM_REFRACTIVITY>
105.89

> <JCHEM_ROTATABLE_BOND_COUNT>
6

> <JCHEM_RULE_OF_FIVE>
1

> <ALOGPS_SOLUBILITY>
3.15e-03 g/l

> <JCHEM_TRADITIONAL_IUPAC>
5-({5-chloro-1H-pyrrolo[2,3-b]pyridin-3-yl}methyl)-N-{[6-(trifluoromethyl)pyridin-3-yl]methyl}pyridin-2-amine

> <JCHEM_VEBER_RULE>
0

> <DRUGBANK_ID>
DB12978

> <DRUG_GROUPS>
approved; investigational

> <GENERIC_NAME>
Pexidartinib

> <SYNONYMS>
Pexidartinib

> <PRODUCTS>
Turalio

> <SALTS>
Pexidartinib hydrochloride

$$$$
