
  Mrv1902 01271921532D          

 39 43  0  0  0  0            999 V2000
    0.4741   -0.8250    0.0000 C   0  0  0  0  0  0  0  0  0  0  0  0
   -0.2403   -0.4123    0.0000 N   0  0  0  0  0  0  0  0  0  0  0  0
   -0.2403    0.4124    0.0000 C   0  0  2  0  0  0  0  0  0  0  0  0
    0.4741    0.8250    0.0000 S   0  0  0  0  0  0  0  0  0  0  0  0
    1.1884    0.4124    0.0000 C   0  0  0  0  0  0  0  0  0  0  0  0
    1.1884   -0.4123    0.0000 C   0  0  0  0  0  0  0  0  0  0  0  0
   -1.0653    0.4124    0.0000 C   0  0  1  0  0  0  0  0  0  0  0  0
   -1.0653   -0.4123    0.0000 C   0  0  0  0  0  0  0  0  0  0  0  0
   -1.6487   -0.9958    0.0000 O   0  0  0  0  0  0  0  0  0  0  0  0
    0.4741   -1.6500    0.0000 C   0  0  0  0  0  0  0  0  0  0  0  0
    1.1884   -2.0624    0.0000 O   0  0  0  0  0  0  0  0  0  0  0  0
   -0.2403   -2.0624    0.0000 O   0  0  0  0  0  0  0  0  0  0  0  0
    1.9030   -0.8250    0.0000 C   0  0  0  0  0  0  0  0  0  0  0  0
    2.6175   -0.4123    0.0000 C   0  0  0  0  0  0  0  0  0  0  0  0
    2.7036    0.4079    0.0000 C   0  0  0  0  0  0  0  0  0  0  0  0
    3.5107    0.5795    0.0000 C   0  0  0  0  0  0  0  0  0  0  0  0
    3.9233   -0.1349    0.0000 N   0  0  0  0  0  0  0  0  0  0  0  0
    3.3712   -0.7479    0.0000 C   0  0  0  0  0  0  0  0  0  0  0  0
    3.5427   -1.5549    0.0000 O   0  0  0  0  0  0  0  0  0  0  0  0
    4.7437   -0.2211    0.0000 C   0  0  1  0  0  0  0  0  0  0  0  0
    5.2957    0.3919    0.0000 C   0  0  0  0  0  0  0  0  0  0  0  0
    6.0494    0.0564    0.0000 N   0  0  0  0  0  0  0  0  0  0  0  0
    5.9631   -0.7640    0.0000 C   0  0  0  0  0  0  0  0  0  0  0  0
    5.1562   -0.9357    0.0000 C   0  0  0  0  0  0  0  0  0  0  0  0
    4.3311    0.4933    0.0000 H   0  0  0  0  0  0  0  0  0  0  0  0
   -1.7798    0.8250    0.0000 N   0  0  0  0  0  0  0  0  0  0  0  0
   -2.4943    0.4124    0.0000 C   0  0  0  0  0  0  0  0  0  0  0  0
   -3.2087    0.8250    0.0000 C   0  0  0  0  0  0  0  0  0  0  0  0
   -2.4943   -0.4123    0.0000 O   0  0  0  0  0  0  0  0  0  0  0  0
   -3.9233    0.4124    0.0000 C   0  0  0  0  0  0  0  0  0  0  0  0
   -3.2087    1.6500    0.0000 N   0  0  0  0  0  0  0  0  0  0  0  0
   -2.4943    2.0624    0.0000 O   0  0  0  0  0  0  0  0  0  0  0  0
   -4.0095   -0.4079    0.0000 N   0  0  0  0  0  0  0  0  0  0  0  0
   -4.8165   -0.5795    0.0000 S   0  0  0  0  0  0  0  0  0  0  0  0
   -5.2289    0.1350    0.0000 C   0  0  0  0  0  0  0  0  0  0  0  0
   -4.6770    0.7480    0.0000 N   0  0  0  0  0  0  0  0  0  0  0  0
   -6.0494    0.2211    0.0000 N   0  0  0  0  0  0  0  0  0  0  0  0
   -0.2403    1.2376    0.0000 H   0  0  0  0  0  0  0  0  0  0  0  0
   -1.0653    1.2376    0.0000 H   0  0  0  0  0  0  0  0  0  0  0  0
  1  2  1  0  0  0  0
  1  6  2  0  0  0  0
  2  3  1  0  0  0  0
  3  4  1  0  0  0  0
  4  5  1  0  0  0  0
  5  6  1  0  0  0  0
  7  8  1  0  0  0  0
  8  2  1  0  0  0  0
  3  7  1  0  0  0  0
  8  9  2  0  0  0  0
  1 10  1  0  0  0  0
 10 11  1  0  0  0  0
 10 12  2  0  0  0  0
  6 13  1  0  0  0  0
 13 14  2  0  0  0  0
 15 16  1  0  0  0  0
 16 17  1  0  0  0  0
 17 18  1  0  0  0  0
 14 15  1  0  0  0  0
 14 18  1  0  0  0  0
 18 19  2  0  0  0  0
 20 17  1  1  0  0  0
 21 22  1  0  0  0  0
 22 23  1  0  0  0  0
 23 24  1  0  0  0  0
 20 21  1  0  0  0  0
 20 24  1  0  0  0  0
 20 25  1  6  0  0  0
  7 26  1  1  0  0  0
 26 27  1  0  0  0  0
 27 28  1  0  0  0  0
 27 29  2  0  0  0  0
 28 30  1  0  0  0  0
 28 31  2  0  0  0  0
 31 32  1  0  0  0  0
 33 34  1  0  0  0  0
 34 35  1  0  0  0  0
 35 36  2  0  0  0  0
 30 33  2  0  0  0  0
 30 36  1  0  0  0  0
 35 37  1  0  0  0  0
  3 38  1  6  0  0  0
  7 39  1  6  0  0  0
M  END
> <DATABASE_ID>
DB04918

> <DATABASE_NAME>
drugbank

> <SMILES>
[H][C@@]1(NC(=O)C(=N/O)\C2=NSC(N)=N2)C(=O)N2C(C(O)=O)=C(CS[C@]12[H])\C=C1/CCN(C1=O)[C@]1([H])CCNC1

> <INCHI_IDENTIFIER>
InChI=1S/C20H22N8O6S2/c21-20-24-14(26-36-20)11(25-34)15(29)23-12-17(31)28-13(19(32)33)9(7-35-18(12)28)5-8-2-4-27(16(8)30)10-1-3-22-6-10/h5,10,12,18,22,34H,1-4,6-7H2,(H,23,29)(H,32,33)(H2,21,24,26)/b8-5+,25-11-/t10-,12-,18-/m1/s1

> <INCHI_KEY>
VOAZJEPQLGBXGO-SDAWRPRTSA-N

> <FORMULA>
C20H22N8O6S2

> <MOLECULAR_WEIGHT>
534.57

> <EXACT_MASS>
534.110372808

> <JCHEM_ACCEPTOR_COUNT>
11

> <JCHEM_ATOM_COUNT>
58

> <JCHEM_AVERAGE_POLARIZABILITY>
51.219795171458316

> <JCHEM_BIOAVAILABILITY>
0

> <JCHEM_DONOR_COUNT>
5

> <JCHEM_FORMAL_CHARGE>
0

> <JCHEM_GHOSE_FILTER>
0

> <JCHEM_IUPAC>
(6R,7R)-7-[(2Z)-2-(5-amino-1,2,4-thiadiazol-3-yl)-2-(N-hydroxyimino)acetamido]-8-oxo-3-{[(3E,3'R)-2-oxo-[1,3'-bipyrrolidin]-3-ylidene]methyl}-5-thia-1-azabicyclo[4.2.0]oct-2-ene-2-carboxylic acid

> <ALOGPS_LOGP>
-1.27

> <JCHEM_LOGP>
-4.712068221637441

> <ALOGPS_LOGS>
-3.53

> <JCHEM_MDDR_LIKE_RULE>
1

> <JCHEM_NUMBER_OF_RINGS>
5

> <JCHEM_PHYSIOLOGICAL_CHARGE>
-1

> <JCHEM_PKA>
5.854560978375312

> <JCHEM_PKA_STRONGEST_ACIDIC>
2.893446090546667

> <JCHEM_PKA_STRONGEST_BASIC>
10.39521692044252

> <JCHEM_POLAR_SURFACE_AREA>
203.44000000000003

> <JCHEM_REFRACTIVITY>
131.03879999999995

> <JCHEM_ROTATABLE_BOND_COUNT>
6

> <JCHEM_RULE_OF_FIVE>
0

> <ALOGPS_SOLUBILITY>
1.59e-01 g/l

> <JCHEM_TRADITIONAL_IUPAC>
ceftobiprole

> <JCHEM_VEBER_RULE>
0

> <DRUGBANK_ID>
DB04918

> <DRUG_GROUPS>
approved; investigational

> <GENERIC_NAME>
Ceftobiprole

> <SYNONYMS>
Ceftobiprol; Ceftobiprole

$$$$
