
  Mrv1909 12152018162D          

 44 49  0  0  1  0            999 V2000
   -4.6882    2.3964    0.0000 C   0  0  0  0  0  0  0  0  0  0  0  0
   -3.8813    2.2248    0.0000 C   0  0  0  0  0  0  0  0  0  0  0  0
   -3.3292    2.8379    0.0000 O   0  0  0  0  0  0  0  0  0  0  0  0
   -2.5223    2.6664    0.0000 C   0  0  0  0  0  0  0  0  0  0  0  0
   -2.2673    1.8818    0.0000 O   0  0  0  0  0  0  0  0  0  0  0  0
   -1.9702    3.2795    0.0000 C   0  0  0  0  0  0  0  0  0  0  0  0
   -1.1633    3.1080    0.0000 C   0  0  0  0  0  0  0  0  0  0  0  0
   -0.6112    3.7211    0.0000 N   0  0  0  0  0  0  0  0  0  0  0  0
   -0.8662    4.5057    0.0000 C   0  0  0  0  0  0  0  0  0  0  0  0
   -0.3141    5.1188    0.0000 C   0  0  0  0  0  0  0  0  0  0  0  0
   -1.6731    4.6772    0.0000 C   0  0  0  0  0  0  0  0  0  0  0  0
   -2.2252    4.0641    0.0000 C   0  0  1  0  0  0  0  0  0  0  0  0
   -3.0321    4.2357    0.0000 C   0  0  0  0  0  0  0  0  0  0  0  0
   -3.2871    5.0203    0.0000 C   0  0  0  0  0  0  0  0  0  0  0  0
   -4.0941    5.1918    0.0000 C   0  0  0  0  0  0  0  0  0  0  0  0
   -4.6461    4.5787    0.0000 C   0  0  0  0  0  0  0  0  0  0  0  0
   -4.3912    3.7941    0.0000 C   0  0  0  0  0  0  0  0  0  0  0  0
   -3.5842    3.6226    0.0000 C   0  0  0  0  0  0  0  0  0  0  0  0
   -3.8391    2.8379    0.0000 Cl  0  0  0  0  0  0  0  0  0  0  0  0
   -1.9281    5.4618    0.0000 C   0  0  0  0  0  0  0  0  0  0  0  0
   -2.7351    5.6334    0.0000 O   0  0  0  0  0  0  0  0  0  0  0  0
   -1.3760    6.0749    0.0000 N   0  0  0  0  0  0  0  0  0  0  0  0
   -1.6310    6.8596    0.0000 C   0  0  0  0  0  0  0  0  0  0  0  0
   -2.4380    7.0311    0.0000 N   0  0  0  0  0  0  0  0  0  0  0  0
   -2.6929    7.8157    0.0000 C   0  0  0  0  0  0  0  0  0  0  0  0
   -2.1409    8.4288    0.0000 C   0  0  0  0  0  0  0  0  0  0  0  0
   -1.3339    8.2573    0.0000 C   0  0  0  0  0  0  0  0  0  0  0  0
   -1.0790    7.4727    0.0000 C   0  0  0  0  0  0  0  0  0  0  0  0
   -0.9083    2.3234    0.0000 C   0  0  0  0  0  0  0  0  0  0  0  0
   -0.1014    2.1518    0.0000 C   0  0  0  0  0  0  0  0  0  0  0  0
    0.1536    1.3672    0.0000 C   0  0  0  0  0  0  0  0  0  0  0  0
   -0.3984    0.7541    0.0000 C   0  0  0  0  0  0  0  0  0  0  0  0
   -1.2054    0.9256    0.0000 C   0  0  0  0  0  0  0  0  0  0  0  0
   -1.4604    1.7103    0.0000 C   0  0  0  0  0  0  0  0  0  0  0  0
   -0.1435   -0.0305    0.0000 N   0  0  0  0  0  0  0  0  0  0  0  0
   -0.6284   -0.6979    0.0000 C   0  0  0  0  0  0  0  0  0  0  0  0
   -1.4534   -0.6979    0.0000 C   0  0  0  0  0  0  0  0  0  0  0  0
   -0.1435   -1.3654    0.0000 N   0  0  0  0  0  0  0  0  0  0  0  0
    0.6411   -1.1104    0.0000 C   0  0  0  0  0  0  0  0  0  0  0  0
    0.6411   -0.2854    0.0000 C   0  0  0  0  0  0  0  0  0  0  0  0
    1.3556    0.1271    0.0000 C   0  0  0  0  0  0  0  0  0  0  0  0
    2.0701   -0.2854    0.0000 C   0  0  0  0  0  0  0  0  0  0  0  0
    2.0701   -1.1104    0.0000 N   0  0  0  0  0  0  0  0  0  0  0  0
    1.3556   -1.5229    0.0000 C   0  0  0  0  0  0  0  0  0  0  0  0
  1  2  1  0  0  0  0
  2  3  1  0  0  0  0
  3  4  1  0  0  0  0
  4  5  2  0  0  0  0
  4  6  1  0  0  0  0
  6  7  2  0  0  0  0
  7  8  1  0  0  0  0
  8  9  1  0  0  0  0
  9 10  1  0  0  0  0
  9 11  2  0  0  0  0
 12 11  1  0  0  0  0
 12  6  1  0  0  0  0
 12 13  1  6  0  0  0
 13 14  2  0  0  0  0
 14 15  1  0  0  0  0
 15 16  2  0  0  0  0
 16 17  1  0  0  0  0
 17 18  2  0  0  0  0
 13 18  1  0  0  0  0
 18 19  1  0  0  0  0
 11 20  1  0  0  0  0
 20 21  2  0  0  0  0
 20 22  1  0  0  0  0
 22 23  1  0  0  0  0
 23 24  2  0  0  0  0
 24 25  1  0  0  0  0
 25 26  2  0  0  0  0
 26 27  1  0  0  0  0
 27 28  2  0  0  0  0
 23 28  1  0  0  0  0
  7 29  1  0  0  0  0
 29 30  2  0  0  0  0
 30 31  1  0  0  0  0
 31 32  2  0  0  0  0
 32 33  1  0  0  0  0
 33 34  2  0  0  0  0
 29 34  1  0  0  0  0
 32 35  1  0  0  0  0
 35 36  1  0  0  0  0
 36 37  1  0  0  0  0
 36 38  2  0  0  0  0
 38 39  1  0  0  0  0
 39 40  2  0  0  0  0
 35 40  1  0  0  0  0
 40 41  1  0  0  0  0
 41 42  2  0  0  0  0
 42 43  1  0  0  0  0
 43 44  2  0  0  0  0
 39 44  1  0  0  0  0
M  END
> <DATABASE_ID>
DB16237

> <DATABASE_NAME>
drugbank

> <SMILES>
CCOC(=O)C1=C(NC(C)=C([C@H]1C1=CC=CC=C1Cl)C(=O)NC1=NC=CC=C1)C1=CC=C(C=C1)N1C(C)=NC2=C1C=CN=C2

> <INCHI_IDENTIFIER>
InChI=1S/C34H29ClN6O3/c1-4-44-34(43)31-30(24-9-5-6-10-25(24)35)29(33(42)40-28-11-7-8-17-37-28)20(2)38-32(31)22-12-14-23(15-13-22)41-21(3)39-26-19-36-18-16-27(26)41/h5-19,30,38H,4H2,1-3H3,(H,37,40,42)/t30-/m1/s1

> <INCHI_KEY>
ODRYSCQFUGFOSU-SSEXGKCCSA-N

> <FORMULA>
C34H29ClN6O3

> <MOLECULAR_WEIGHT>
605.1

> <EXACT_MASS>
604.1989665

> <JCHEM_ACCEPTOR_COUNT>
6

> <JCHEM_ATOM_COUNT>
73

> <JCHEM_AVERAGE_NEUTRAL_MICROSPECIES_CHARGE>
0.05483180126647461

> <JCHEM_AVERAGE_POLARIZABILITY>
64.4822147174932

> <JCHEM_BIOAVAILABILITY>
1

> <JCHEM_DONOR_COUNT>
2

> <JCHEM_FORMAL_CHARGE>
0

> <JCHEM_GHOSE_FILTER>
0

> <JCHEM_IUPAC>
ethyl (4R)-4-(2-chlorophenyl)-6-methyl-2-(4-{2-methyl-1H-imidazo[4,5-c]pyridin-1-yl}phenyl)-5-[(pyridin-2-yl)carbamoyl]-1,4-dihydropyridine-3-carboxylate

> <ALOGPS_LOGP>
5.83

> <JCHEM_LOGP>
4.709172498333334

> <ALOGPS_LOGS>
-5.57

> <JCHEM_MDDR_LIKE_RULE>
1

> <JCHEM_NEUTRAL_CHARGE>
0

> <JCHEM_NUMBER_OF_RINGS>
6

> <JCHEM_PHYSIOLOGICAL_CHARGE>
0

> <JCHEM_PKA>
18.343631862869895

> <JCHEM_PKA_STRONGEST_ACIDIC>
12.03550436011311

> <JCHEM_PKA_STRONGEST_BASIC>
4.828953721560109

> <JCHEM_POLAR_SURFACE_AREA>
111.03

> <JCHEM_REFRACTIVITY>
182.11009999999996

> <JCHEM_ROTATABLE_BOND_COUNT>
8

> <JCHEM_RULE_OF_FIVE>
0

> <ALOGPS_SOLUBILITY>
1.63e-03 g/l

> <JCHEM_TRADITIONAL_IUPAC>
2-methoxy-4-[(1E)-3-[4-(nitrooxy)butoxy]-3-oxoprop-1-en-1-yl]phenyl (4R)-4-[(1R,3aS,3bR,4S,5aS,7R,9aS,9bS,11aR)-4,7-dihydroxy-9a,11a-dimethyl-tetradecahydro-1H-cyclopenta[a]phenanthren-1-yl]pentanoate

> <JCHEM_VEBER_RULE>
0

> <DRUGBANK_ID>
DB16237

> <DRUG_GROUPS>
investigational

> <GENERIC_NAME>
Modipafant

> <SYNONYMS>
Modipafant

$$$$
