
  Mrv1652310201622542D          

 37 41  0  0  0  0            999 V2000
   -1.4087   -1.4124    0.0000 C   0  0  0  0  0  0  0  0  0  0  0  0
   -1.8212   -0.6979    0.0000 C   0  0  0  0  0  0  0  0  0  0  0  0
   -1.4087    0.0165    0.0000 C   0  0  0  0  0  0  0  0  0  0  0  0
   -0.5837    0.0165    0.0000 C   0  0  0  0  0  0  0  0  0  0  0  0
   -0.1712   -0.6979    0.0000 C   0  0  0  0  0  0  0  0  0  0  0  0
   -0.5837   -1.4124    0.0000 C   0  0  0  0  0  0  0  0  0  0  0  0
    0.6538   -0.6979    0.0000 C   0  0  0  0  0  0  0  0  0  0  0  0
    1.1387   -0.0305    0.0000 N   0  0  0  0  0  0  0  0  0  0  0  0
    1.9233   -0.2854    0.0000 C   0  0  0  0  0  0  0  0  0  0  0  0
    2.6378    0.1271    0.0000 C   0  0  0  0  0  0  0  0  0  0  0  0
    3.3523   -0.2854    0.0000 C   0  0  0  0  0  0  0  0  0  0  0  0
    3.3523   -1.1104    0.0000 N   0  0  0  0  0  0  0  0  0  0  0  0
    2.6378   -1.5229    0.0000 C   0  0  0  0  0  0  0  0  0  0  0  0
    1.9233   -1.1104    0.0000 C   0  0  0  0  0  0  0  0  0  0  0  0
    1.1387   -1.3654    0.0000 N   0  0  0  0  0  0  0  0  0  0  0  0
    4.0668   -1.5229    0.0000 C   0  0  0  0  0  0  0  0  0  0  0  0
    4.0668   -2.3479    0.0000 C   0  0  0  0  0  0  0  0  0  0  0  0
    4.7812   -2.7604    0.0000 C   0  0  0  0  0  0  0  0  0  0  0  0
    4.7812   -3.5854    0.0000 C   0  0  0  0  0  0  0  0  0  0  0  0
    4.0668   -3.9979    0.0000 C   0  0  0  0  0  0  0  0  0  0  0  0
    3.3523   -3.5854    0.0000 N   0  0  0  0  0  0  0  0  0  0  0  0
    3.3523   -2.7604    0.0000 N   0  0  0  0  0  0  0  0  0  0  0  0
    4.0668   -4.8229    0.0000 C   0  0  0  0  0  0  0  0  0  0  0  0
    4.7812   -5.2354    0.0000 C   0  0  0  0  0  0  0  0  0  0  0  0
    4.7812   -6.0604    0.0000 C   0  0  0  0  0  0  0  0  0  0  0  0
    4.0668   -6.4729    0.0000 C   0  0  0  0  0  0  0  0  0  0  0  0
    3.3523   -6.0604    0.0000 C   0  0  0  0  0  0  0  0  0  0  0  0
    3.3523   -5.2354    0.0000 C   0  0  0  0  0  0  0  0  0  0  0  0
    2.6378   -4.8229    0.0000 C   0  0  0  0  0  0  0  0  0  0  0  0
    1.9233   -4.4104    0.0000 F   0  0  0  0  0  0  0  0  0  0  0  0
    3.0503   -4.1085    0.0000 F   0  0  0  0  0  0  0  0  0  0  0  0
    2.2253   -5.5374    0.0000 F   0  0  0  0  0  0  0  0  0  0  0  0
    4.0668   -7.2979    0.0000 C   0  0  0  0  0  0  0  0  0  0  0  0
    4.0668   -8.1229    0.0000 F   0  0  0  0  0  0  0  0  0  0  0  0
    3.2418   -7.2979    0.0000 F   0  0  0  0  0  0  0  0  0  0  0  0
    4.8918   -7.2979    0.0000 F   0  0  0  0  0  0  0  0  0  0  0  0
   -0.1712    0.7310    0.0000 F   0  0  0  0  0  0  0  0  0  0  0  0
  1  2  2  0  0  0  0
  2  3  1  0  0  0  0
  3  4  2  0  0  0  0
  4  5  1  0  0  0  0
  5  6  2  0  0  0  0
  1  6  1  0  0  0  0
  5  7  1  0  0  0  0
  7  8  1  0  0  0  0
  8  9  2  0  0  0  0
  9 10  1  0  0  0  0
 10 11  2  0  0  0  0
 11 12  1  0  0  0  0
 12 13  1  0  0  0  0
 13 14  2  0  0  0  0
  9 14  1  0  0  0  0
 14 15  1  0  0  0  0
  7 15  2  0  0  0  0
 12 16  1  0  0  0  0
 16 17  1  0  0  0  0
 17 18  2  0  0  0  0
 18 19  1  0  0  0  0
 19 20  2  0  0  0  0
 20 21  1  0  0  0  0
 21 22  2  0  0  0  0
 17 22  1  0  0  0  0
 20 23  1  0  0  0  0
 23 24  2  0  0  0  0
 24 25  1  0  0  0  0
 25 26  2  0  0  0  0
 26 27  1  0  0  0  0
 27 28  2  0  0  0  0
 23 28  1  0  0  0  0
 28 29  1  0  0  0  0
 29 30  1  0  0  0  0
 29 31  1  0  0  0  0
 29 32  1  0  0  0  0
 26 33  1  0  0  0  0
 33 34  1  0  0  0  0
 33 35  1  0  0  0  0
 33 36  1  0  0  0  0
  4 37  1  0  0  0  0
M  END
> <DATABASE_ID>
DB11852

> <DATABASE_NAME>
drugbank

> <SMILES>
FC1=CC=CC=C1C1=NC2=CN(CC3=CC=C(N=N3)C3=CC=C(C=C3C(F)(F)F)C(F)(F)F)C=CC2=N1

> <INCHI_IDENTIFIER>
InChI=1S/C25H14F7N5/c26-19-4-2-1-3-17(19)23-33-21-9-10-37(13-22(21)34-23)12-15-6-8-20(36-35-15)16-7-5-14(24(27,28)29)11-18(16)25(30,31)32/h1-11,13H,12H2

> <INCHI_KEY>
XBEQSQDCBSKCHJ-UHFFFAOYSA-N

> <FORMULA>
C25H14F7N5

> <MOLECULAR_WEIGHT>
517.411

> <EXACT_MASS>
517.113742612

> <JCHEM_ACCEPTOR_COUNT>
4

> <JCHEM_ATOM_COUNT>
51

> <JCHEM_AVERAGE_POLARIZABILITY>
45.45659673964969

> <JCHEM_BIOAVAILABILITY>
0

> <JCHEM_DONOR_COUNT>
0

> <JCHEM_FORMAL_CHARGE>
0

> <JCHEM_GHOSE_FILTER>
0

> <JCHEM_IUPAC>
3-[2,4-bis(trifluoromethyl)phenyl]-6-{[2-(2-fluorophenyl)-5H-imidazo[4,5-c]pyridin-5-yl]methyl}pyridazine

> <ALOGPS_LOGP>
5.02

> <JCHEM_LOGP>
6.895897150000001

> <ALOGPS_LOGS>
-5.37

> <JCHEM_MDDR_LIKE_RULE>
1

> <JCHEM_NUMBER_OF_RINGS>
5

> <JCHEM_PHYSIOLOGICAL_CHARGE>
0

> <JCHEM_PKA_STRONGEST_BASIC>
1.9569761979411724

> <JCHEM_POLAR_SURFACE_AREA>
56.49

> <JCHEM_REFRACTIVITY>
132.2199

> <JCHEM_ROTATABLE_BOND_COUNT>
6

> <JCHEM_RULE_OF_FIVE>
0

> <ALOGPS_SOLUBILITY>
2.22e-03 g/l

> <JCHEM_TRADITIONAL_IUPAC>
3-[2,4-bis(trifluoromethyl)phenyl]-6-{[2-(2-fluorophenyl)imidazo[4,5-c]pyridin-5-yl]methyl}pyridazine

> <JCHEM_VEBER_RULE>
0

> <DRUGBANK_ID>
DB11852

> <DRUG_GROUPS>
investigational

> <GENERIC_NAME>
Tegobuvir

> <SYNONYMS>
Tegobuvir

$$$$
