
  Mrv1652308261601152D          

 58 64  0  0  0  0            999 V2000
    3.2462   -0.6187    0.0000 O   0  0  0  0  0  0  0  0  0  0  0  0
    3.2462   -1.4436    0.0000 C   0  0  2  0  0  0  0  0  0  0  0  0
    2.5317   -1.8562    0.0000 O   0  0  0  0  0  0  0  0  0  0  0  0
    2.5317   -2.6812    0.0000 C   0  0  2  0  0  0  0  0  0  0  0  0
    3.2462   -3.0935    0.0000 C   0  0  2  0  0  0  0  0  0  0  0  0
    3.9607   -2.6812    0.0000 C   0  0  2  0  0  0  0  0  0  0  0  0
    3.9607   -1.8562    0.0000 C   0  0  0  0  0  0  0  0  0  0  0  0
    2.5317   -4.3312    0.0000 C   0  0  2  0  0  0  0  0  0  0  0  0
    1.8172   -3.9187    0.0000 O   0  0  0  0  0  0  0  0  0  0  0  0
    1.1027   -4.3312    0.0000 C   0  0  2  0  0  0  0  0  0  0  0  0
    1.1029   -5.1562    0.0000 C   0  0  0  0  0  0  0  0  0  0  0  0
    1.8173   -5.5687    0.0000 C   0  0  0  0  0  0  0  0  0  0  0  0
    2.5317   -5.1562    0.0000 C   0  0  0  0  0  0  0  0  0  0  0  0
    4.6752   -3.0938    0.0000 O   0  0  0  0  0  0  0  0  0  0  0  0
    1.8172   -3.0937    0.0000 C   0  0  0  0  0  0  0  0  0  0  0  0
    0.3883   -3.9187    0.0000 C   0  0  0  0  0  0  0  0  0  0  0  0
    0.3884   -5.5687    0.0000 O   0  0  0  0  0  0  0  0  0  0  0  0
   -3.9607    3.4438    0.0000 C   0  0  0  0  0  0  0  0  0  0  0  0
   -4.6752    3.0314    0.0000 C   0  0  0  0  0  0  0  0  0  0  0  0
   -4.6752    2.2063    0.0000 C   0  0  0  0  0  0  0  0  0  0  0  0
   -3.2463    3.0314    0.0000 C   0  0  0  0  0  0  0  0  0  0  0  0
   -3.2463    2.2063    0.0000 C   0  0  0  0  0  0  0  0  0  0  0  0
   -2.5319    3.4438    0.0000 C   0  0  0  0  0  0  0  0  0  0  0  0
   -2.5319    4.2688    0.0000 O   0  0  0  0  0  0  0  0  0  0  0  0
   -2.5319    1.7938    0.0000 C   0  0  0  0  0  0  0  0  0  0  0  0
   -2.5319    0.9689    0.0000 O   0  0  0  0  0  0  0  0  0  0  0  0
   -3.9607    1.7938    0.0000 C   0  0  0  0  0  0  0  0  0  0  0  0
   -3.9607    0.9689    0.0000 O   0  0  0  0  0  0  0  0  0  0  0  0
   -1.8174    3.0314    0.0000 C   0  0  0  0  0  0  0  0  0  0  0  0
   -1.8174    2.2063    0.0000 C   0  0  0  0  0  0  0  0  0  0  0  0
   -1.1029    3.4438    0.0000 C   0  0  0  0  0  0  0  0  0  0  0  0
   -1.1029    1.7938    0.0000 C   0  0  0  0  0  0  0  0  0  0  0  0
   -1.1029    0.9689    0.0000 O   0  0  0  0  0  0  0  0  0  0  0  0
   -0.3260    3.0939    0.0000 C   0  0  0  0  0  0  0  0  0  0  0  0
   -0.3260    2.2687    0.0000 C   0  0  0  0  0  0  0  0  0  0  0  0
    1.1029    2.2687    0.0000 C   0  0  0  0  0  0  0  0  0  0  0  0
    0.3884    1.8563    0.0000 C   0  0  2  0  0  0  0  0  0  0  0  0
    0.3884    3.5063    0.0000 C   0  0  2  0  0  0  0  0  0  0  0  0
    1.1029    3.0939    0.0000 C   0  0  2  0  0  0  0  0  0  0  0  0
    1.8996    2.8803    0.0000 O   0  0  0  0  0  0  0  0  0  0  0  0
    1.5154    3.8081    0.0000 C   0  0  0  0  0  0  0  0  0  0  0  0
    2.3404    3.8081    0.0000 C   0  0  0  0  0  0  0  0  0  0  0  0
   -0.3260    4.7438    0.0000 O   0  0  0  0  0  0  0  0  0  0  0  0
    0.3884    4.3312    0.0000 C   0  0  0  0  0  0  0  0  0  0  0  0
    1.1029    4.7438    0.0000 O   0  0  0  0  0  0  0  0  0  0  0  0
    1.1029    5.5687    0.0000 C   0  0  0  0  0  0  0  0  0  0  0  0
    1.1029    0.6187    0.0000 C   0  0  2  0  0  0  0  0  0  0  0  0
    1.1029   -0.2062    0.0000 O   0  0  0  0  0  0  0  0  0  0  0  0
    1.8173   -0.6187    0.0000 C   0  0  2  0  0  0  0  0  0  0  0  0
    2.5319   -0.2062    0.0000 C   0  0  2  0  0  0  0  0  0  0  0  0
    2.5319    0.6187    0.0000 C   0  0  2  0  0  0  0  0  0  0  0  0
    1.8173    1.0313    0.0000 C   0  0  0  0  0  0  0  0  0  0  0  0
    3.2462    1.0313    0.0000 N   0  0  0  0  0  0  0  0  0  0  0  0
    1.8173   -1.4436    0.0000 C   0  0  0  0  0  0  0  0  0  0  0  0
    0.3884    1.0313    0.0000 O   0  0  0  0  0  0  0  0  0  0  0  0
    3.2461    1.8563    0.0000 C   0  0  0  0  0  0  0  0  0  0  0  0
    3.9607    0.6187    0.0000 C   0  0  0  0  0  0  0  0  0  0  0  0
    3.2462   -3.9187    0.0000 O   0  0  0  0  0  0  0  0  0  0  0  0
  2  1  1  1  0  0  0
  7  2  1  0  0  0  0
  3  2  1  0  0  0  0
  3  4  1  0  0  0  0
  4  5  1  0  0  0  0
  4 15  1  6  0  0  0
  5  6  1  0  0  0  0
  5 58  1  6  0  0  0
  6  7  1  0  0  0  0
  6 14  1  6  0  0  0
 13  8  1  0  0  0  0
  9  8  1  0  0  0  0
  9 10  1  0  0  0  0
 10 11  1  0  0  0  0
 10 16  1  6  0  0  0
 11 12  1  0  0  0  0
 11 17  2  0  0  0  0
 12 13  1  0  0  0  0
 18 19  2  0  0  0  0
 18 21  1  0  0  0  0
 19 20  1  0  0  0  0
 20 27  2  0  0  0  0
 23 21  1  0  0  0  0
 21 22  2  0  0  0  0
 27 22  1  0  0  0  0
 22 25  1  0  0  0  0
 23 29  1  0  0  0  0
 23 24  2  0  0  0  0
 25 30  1  0  0  0  0
 25 26  2  0  0  0  0
 27 28  1  0  0  0  0
 31 29  1  0  0  0  0
 30 29  2  0  0  0  0
 30 32  1  0  0  0  0
 31 34  2  0  0  0  0
 32 35  2  0  0  0  0
 32 33  1  0  0  0  0
 38 34  1  0  0  0  0
 34 35  1  0  0  0  0
 35 37  1  0  0  0  0
 37 36  1  0  0  0  0
 36 39  1  0  0  0  0
 37 55  1  6  0  0  0
 38 39  1  0  0  0  0
 38 44  1  1  0  0  0
 39 41  1  0  0  0  0
 39 40  1  6  0  0  0
 41 42  1  0  0  0  0
 44 43  2  0  0  0  0
 44 45  1  0  0  0  0
 45 46  1  0  0  0  0
 52 47  1  0  0  0  0
 48 47  1  0  0  0  0
 47 55  1  1  0  0  0
 48 49  1  0  0  0  0
 49 50  1  0  0  0  0
 49 54  1  6  0  0  0
 50 51  1  0  0  0  0
 50  1  1  6  0  0  0
 51 52  1  0  0  0  0
 51 53  1  6  0  0  0
 53 56  1  0  0  0  0
 53 57  1  0  0  0  0
  8 58  1  1  0  0  0
M  END
> <DATABASE_ID>
DB11617

> <DATABASE_NAME>
drugbank

> <SMILES>
CC[C@@]1(O)C[C@H](O[C@H]2C[C@@H]([C@H](O[C@H]3C[C@H](O)[C@H](O[C@H]4CCC(=O)[C@H](C)O4)[C@H](C)O3)[C@H](C)O2)N(C)C)C2=C(O)C3=C(C=C2[C@H]1C(=O)OC)C(=O)C1=C(C(O)=CC=C1)C3=O

> <INCHI_IDENTIFIER>
InChI=1S/C42H53NO15/c1-8-42(51)17-28(33-22(35(42)41(50)52-7)14-23-34(38(33)49)37(48)32-21(36(23)47)10-9-11-26(32)45)56-30-15-24(43(5)6)39(19(3)54-30)58-31-16-27(46)40(20(4)55-31)57-29-13-12-25(44)18(2)53-29/h9-11,14,18-20,24,27-31,35,39-40,45-46,49,51H,8,12-13,15-17H2,1-7H3/t18-,19-,20-,24-,27-,28-,29-,30-,31-,35-,39+,40+,42+/m0/s1

> <INCHI_KEY>
USZYSDMBJDPRIF-SVEJIMAYSA-N

> <FORMULA>
C42H53NO15

> <MOLECULAR_WEIGHT>
811.878

> <EXACT_MASS>
811.341520011

> <JCHEM_ACCEPTOR_COUNT>
15

> <JCHEM_ATOM_COUNT>
111

> <JCHEM_AVERAGE_POLARIZABILITY>
84.30871995708353

> <JCHEM_BIOAVAILABILITY>
0

> <JCHEM_DONOR_COUNT>
4

> <JCHEM_FORMAL_CHARGE>
0

> <JCHEM_GHOSE_FILTER>
0

> <JCHEM_IUPAC>
methyl (1R,2R,4S)-4-{[(2R,4S,5S,6S)-4-(dimethylamino)-5-{[(2S,4S,5S,6S)-4-hydroxy-6-methyl-5-{[(2R,6S)-6-methyl-5-oxooxan-2-yl]oxy}oxan-2-yl]oxy}-6-methyloxan-2-yl]oxy}-2-ethyl-2,5,7-trihydroxy-6,11-dioxo-1,2,3,4,6,11-hexahydrotetracene-1-carboxylate

> <ALOGPS_LOGP>
2.79

> <JCHEM_LOGP>
3.975094423405608

> <ALOGPS_LOGS>
-3.57

> <JCHEM_MDDR_LIKE_RULE>
1

> <JCHEM_NUMBER_OF_RINGS>
7

> <JCHEM_PHYSIOLOGICAL_CHARGE>
1

> <JCHEM_PKA>
8.101086648912505

> <JCHEM_PKA_STRONGEST_ACIDIC>
7.469178331152877

> <JCHEM_PKA_STRONGEST_BASIC>
8.639237523602342

> <JCHEM_POLAR_SURFACE_AREA>
217.04999999999995

> <JCHEM_REFRACTIVITY>
203.86579999999995

> <JCHEM_ROTATABLE_BOND_COUNT>
10

> <JCHEM_RULE_OF_FIVE>
0

> <ALOGPS_SOLUBILITY>
2.18e-01 g/l

> <JCHEM_TRADITIONAL_IUPAC>
aclacinomycin A

> <JCHEM_VEBER_RULE>
0

> <DRUGBANK_ID>
DB11617

> <DRUG_GROUPS>
investigational

> <GENERIC_NAME>
Aclarubicin

> <SYNONYMS>
Aclacinomycin A; Aclarubicin; aclarubicina

> <SALTS>
Aclarubicin hydrochloride

$$$$
