
  Mrv1652310201623112D          

 30 33  0  0  0  0            999 V2000
    0.0000   -2.4750    0.0000 C   0  0  0  0  0  0  0  0  0  0  0  0
    0.0000   -1.6500    0.0000 O   0  0  0  0  0  0  0  0  0  0  0  0
    0.7145   -1.2375    0.0000 C   0  0  0  0  0  0  0  0  0  0  0  0
    0.7145   -0.4125    0.0000 C   0  0  0  0  0  0  0  0  0  0  0  0
    1.4289    0.0000    0.0000 C   0  0  0  0  0  0  0  0  0  0  0  0
    2.1434   -0.4125    0.0000 C   0  0  0  0  0  0  0  0  0  0  0  0
    2.8579    0.0000    0.0000 C   0  0  0  0  0  0  0  0  0  0  0  0
    3.5724   -0.4125    0.0000 C   0  0  0  0  0  0  0  0  0  0  0  0
    3.5724   -1.2375    0.0000 C   0  0  0  0  0  0  0  0  0  0  0  0
    2.8579   -1.6500    0.0000 C   0  0  0  0  0  0  0  0  0  0  0  0
    2.1434   -1.2375    0.0000 C   0  0  0  0  0  0  0  0  0  0  0  0
    1.4289   -1.6500    0.0000 C   0  0  0  0  0  0  0  0  0  0  0  0
    4.2868   -0.0000    0.0000 O   0  0  0  0  0  0  0  0  0  0  0  0
    5.0013   -0.4125    0.0000 C   0  0  0  0  0  0  0  0  0  0  0  0
    5.7158   -0.0000    0.0000 C   0  0  0  0  0  0  0  0  0  0  0  0
    6.4302    0.4125    0.0000 C   0  0  0  0  0  0  0  0  0  0  0  0
    6.8427   -0.3020    0.0000 N   0  0  0  0  0  0  0  0  0  0  0  0
    6.1283   -0.7145    0.0000 C   0  0  0  0  0  0  0  0  0  0  0  0
    7.6396   -0.5155    0.0000 C   0  0  0  0  0  0  0  0  0  0  0  0
    8.2230    0.0679    0.0000 O   0  0  0  0  0  0  0  0  0  0  0  0
    7.8532   -1.3124    0.0000 C   0  0  0  0  0  0  0  0  0  0  0  0
    8.6500   -1.5259    0.0000 C   0  0  0  0  0  0  0  0  0  0  0  0
    8.8636   -2.3228    0.0000 C   0  0  0  0  0  0  0  0  0  0  0  0
    8.2802   -2.9062    0.0000 C   0  0  0  0  0  0  0  0  0  0  0  0
    7.4833   -2.6926    0.0000 C   0  0  0  0  0  0  0  0  0  0  0  0
    7.2698   -1.8957    0.0000 C   0  0  0  0  0  0  0  0  0  0  0  0
    8.4937   -3.7031    0.0000 F   0  0  0  0  0  0  0  0  0  0  0  0
    5.3033    0.7145    0.0000 C   0  0  0  0  0  0  0  0  0  0  0  0
    5.7158    1.4289    0.0000 O   0  0  0  0  0  0  0  0  0  0  0  0
    4.4783    0.7145    0.0000 O   0  0  0  0  0  0  0  0  0  0  0  0
  1  2  1  0  0  0  0
  2  3  1  0  0  0  0
  3  4  2  0  0  0  0
  4  5  1  0  0  0  0
  5  6  2  0  0  0  0
  6  7  1  0  0  0  0
  7  8  2  0  0  0  0
  8  9  1  0  0  0  0
  9 10  2  0  0  0  0
 10 11  1  0  0  0  0
  6 11  1  0  0  0  0
 11 12  2  0  0  0  0
  3 12  1  0  0  0  0
  8 13  1  0  0  0  0
 13 14  1  0  0  0  0
 14 15  1  0  0  0  0
 15 16  1  0  0  0  0
 16 17  1  0  0  0  0
 17 18  1  0  0  0  0
 15 18  1  0  0  0  0
 17 19  1  0  0  0  0
 19 20  2  0  0  0  0
 19 21  1  0  0  0  0
 21 22  2  0  0  0  0
 22 23  1  0  0  0  0
 23 24  2  0  0  0  0
 24 25  1  0  0  0  0
 25 26  2  0  0  0  0
 21 26  1  0  0  0  0
 24 27  1  0  0  0  0
 15 28  1  0  0  0  0
 28 29  2  0  0  0  0
 28 30  1  0  0  0  0
M  END
> <DATABASE_ID>
DB12024

> <DATABASE_NAME>
drugbank

> <SMILES>
COC1=CC=C2C=C(OCC3(CN(C3)C(=O)C3=CC=C(F)C=C3)C(O)=O)C=CC2=C1

> <INCHI_IDENTIFIER>
InChI=1S/C23H20FNO5/c1-29-19-8-4-17-11-20(9-5-16(17)10-19)30-14-23(22(27)28)12-25(13-23)21(26)15-2-6-18(24)7-3-15/h2-11H,12-14H2,1H3,(H,27,28)

> <INCHI_KEY>
LWJGMYMNSNVCEM-UHFFFAOYSA-N

> <FORMULA>
C23H20FNO5

> <MOLECULAR_WEIGHT>
409.413

> <EXACT_MASS>
409.132550911

> <JCHEM_ACCEPTOR_COUNT>
5

> <JCHEM_ATOM_COUNT>
50

> <JCHEM_AVERAGE_POLARIZABILITY>
42.094132162591116

> <JCHEM_BIOAVAILABILITY>
1

> <JCHEM_DONOR_COUNT>
1

> <JCHEM_FORMAL_CHARGE>
0

> <JCHEM_GHOSE_FILTER>
1

> <JCHEM_IUPAC>
1-(4-fluorobenzoyl)-3-{[(6-methoxynaphthalen-2-yl)oxy]methyl}azetidine-3-carboxylic acid

> <ALOGPS_LOGP>
3.42

> <JCHEM_LOGP>
3.3509286683333337

> <ALOGPS_LOGS>
-4.95

> <JCHEM_MDDR_LIKE_RULE>
1

> <JCHEM_NUMBER_OF_RINGS>
4

> <JCHEM_PHYSIOLOGICAL_CHARGE>
-1

> <JCHEM_PKA_STRONGEST_ACIDIC>
3.9130467544134655

> <JCHEM_PKA_STRONGEST_BASIC>
-1.0943052029016505

> <JCHEM_POLAR_SURFACE_AREA>
76.07000000000001

> <JCHEM_REFRACTIVITY>
107.46709999999999

> <JCHEM_ROTATABLE_BOND_COUNT>
6

> <JCHEM_RULE_OF_FIVE>
1

> <ALOGPS_SOLUBILITY>
4.55e-03 g/l

> <JCHEM_TRADITIONAL_IUPAC>
1-(4-fluorobenzoyl)-3-{[(6-methoxynaphthalen-2-yl)oxy]methyl}azetidine-3-carboxylic acid

> <JCHEM_VEBER_RULE>
0

> <DRUGBANK_ID>
DB12024

> <DRUG_GROUPS>
investigational

> <GENERIC_NAME>
PF-04418948

$$$$
