
  Mrv1909 05201915142D          

 36 38  0  0  1  0            999 V2000
   -7.8592   -7.8375    0.0000 O   0  0  0  0  0  0  0  0  0  0  0  0
   -7.1447   -8.2500    0.0000 N   0  0  0  0  0  0  0  0  0  0  0  0
   -6.4302   -7.8375    0.0000 C   0  0  0  0  0  0  0  0  0  0  0  0
   -6.4302   -7.0125    0.0000 O   0  0  0  0  0  0  0  0  0  0  0  0
   -5.7158   -8.2500    0.0000 C   0  0  0  0  0  0  0  0  0  0  0  0
   -5.0013   -7.8375    0.0000 C   0  0  0  0  0  0  0  0  0  0  0  0
   -4.2868   -8.2500    0.0000 C   0  0  0  0  0  0  0  0  0  0  0  0
   -3.5724   -7.8375    0.0000 C   0  0  0  0  0  0  0  0  0  0  0  0
   -2.8579   -8.2500    0.0000 C   0  0  0  0  0  0  0  0  0  0  0  0
   -2.1434   -7.8375    0.0000 C   0  0  0  0  0  0  0  0  0  0  0  0
   -1.4289   -8.2500    0.0000 C   0  0  0  0  0  0  0  0  0  0  0  0
   -1.4289   -9.0750    0.0000 O   0  0  0  0  0  0  0  0  0  0  0  0
   -0.7145   -7.8375    0.0000 N   0  0  0  0  0  0  0  0  0  0  0  0
    0.0000   -8.2500    0.0000 C   0  0  0  0  0  0  0  0  0  0  0  0
    0.7145   -7.8375    0.0000 C   0  0  0  0  0  0  0  0  0  0  0  0
    1.4289   -8.2500    0.0000 C   0  0  0  0  0  0  0  0  0  0  0  0
    1.4289   -9.0750    0.0000 C   0  0  0  0  0  0  0  0  0  0  0  0
    2.1434   -9.4875    0.0000 C   0  0  0  0  0  0  0  0  0  0  0  0
    2.1434  -10.3125    0.0000 N   0  0  0  0  0  0  0  0  0  0  0  0
    2.8579  -10.7250    0.0000 C   0  0  2  0  0  0  0  0  0  0  0  0
    2.8579  -11.5500    0.0000 C   0  0  0  0  0  0  0  0  0  0  0  0
    2.1434  -11.9625    0.0000 O   0  0  0  0  0  0  0  0  0  0  0  0
    3.5724  -11.9625    0.0000 O   0  0  0  0  0  0  0  0  0  0  0  0
    3.5724  -12.7875    0.0000 C   0  0  0  0  0  0  0  0  0  0  0  0
    4.2398  -13.2724    0.0000 C   0  0  0  0  0  0  0  0  0  0  0  0
    3.9849  -14.0570    0.0000 C   0  0  0  0  0  0  0  0  0  0  0  0
    3.1599  -14.0570    0.0000 C   0  0  0  0  0  0  0  0  0  0  0  0
    2.9049  -13.2724    0.0000 C   0  0  0  0  0  0  0  0  0  0  0  0
    3.5724  -10.3125    0.0000 C   0  0  0  0  0  0  0  0  0  0  0  0
    3.5724   -9.4875    0.0000 C   0  0  0  0  0  0  0  0  0  0  0  0
    4.2868   -9.0750    0.0000 C   0  0  0  0  0  0  0  0  0  0  0  0
    5.0013   -9.4875    0.0000 C   0  0  0  0  0  0  0  0  0  0  0  0
    5.0013  -10.3125    0.0000 C   0  0  0  0  0  0  0  0  0  0  0  0
    4.2868  -10.7250    0.0000 C   0  0  0  0  0  0  0  0  0  0  0  0
    0.7145   -9.4875    0.0000 C   0  0  0  0  0  0  0  0  0  0  0  0
    0.0000   -9.0750    0.0000 C   0  0  0  0  0  0  0  0  0  0  0  0
  1  2  1  0  0  0  0
  2  3  1  0  0  0  0
  3  4  2  0  0  0  0
  3  5  1  0  0  0  0
  5  6  1  0  0  0  0
  6  7  1  0  0  0  0
  7  8  1  0  0  0  0
  8  9  1  0  0  0  0
  9 10  1  0  0  0  0
 10 11  1  0  0  0  0
 11 12  2  0  0  0  0
 11 13  1  0  0  0  0
 13 14  1  0  0  0  0
 14 15  2  0  0  0  0
 15 16  1  0  0  0  0
 16 17  2  0  0  0  0
 17 18  1  0  0  0  0
 18 19  1  0  0  0  0
 20 19  1  1  0  0  0
 20 21  1  0  0  0  0
 21 22  2  0  0  0  0
 21 23  1  0  0  0  0
 23 24  1  0  0  0  0
 24 25  1  0  0  0  0
 25 26  1  0  0  0  0
 26 27  1  0  0  0  0
 27 28  1  0  0  0  0
 24 28  1  0  0  0  0
 20 29  1  0  0  0  0
 29 30  2  0  0  0  0
 30 31  1  0  0  0  0
 31 32  2  0  0  0  0
 32 33  1  0  0  0  0
 33 34  2  0  0  0  0
 29 34  1  0  0  0  0
 17 35  1  0  0  0  0
 35 36  2  0  0  0  0
 14 36  1  0  0  0  0
M  END
> <DATABASE_ID>
DB15321

> <DATABASE_NAME>
drugbank

> <SMILES>
ONC(=O)CCCCCCC(=O)NC1=CC=C(CN[C@H](C(=O)OC2CCCC2)C2=CC=CC=C2)C=C1

> <INCHI_IDENTIFIER>
InChI=1S/C28H37N3O5/c32-25(14-6-1-2-7-15-26(33)31-35)30-23-18-16-21(17-19-23)20-29-27(22-10-4-3-5-11-22)28(34)36-24-12-8-9-13-24/h3-5,10-11,16-19,24,27,29,35H,1-2,6-9,12-15,20H2,(H,30,32)(H,31,33)/t27-/m0/s1

> <INCHI_KEY>
GLNWREBYRLDPQP-MHZLTWQESA-N

> <FORMULA>
C28H37N3O5

> <MOLECULAR_WEIGHT>
495.62

> <EXACT_MASS>
495.273321303

> <JCHEM_ACCEPTOR_COUNT>
5

> <JCHEM_ATOM_COUNT>
73

> <JCHEM_AVERAGE_POLARIZABILITY>
55.588933686880964

> <JCHEM_BIOAVAILABILITY>
1

> <JCHEM_DONOR_COUNT>
4

> <JCHEM_FORMAL_CHARGE>
0

> <JCHEM_GHOSE_FILTER>
0

> <JCHEM_IUPAC>
cyclopentyl (2S)-2-[({4-[7-(hydroxycarbamoyl)heptanamido]phenyl}methyl)amino]-2-phenylacetate

> <ALOGPS_LOGP>
3.91

> <JCHEM_LOGP>
4.477326715

> <ALOGPS_LOGS>
-5.61

> <JCHEM_MDDR_LIKE_RULE>
1

> <JCHEM_NUMBER_OF_RINGS>
3

> <JCHEM_PHYSIOLOGICAL_CHARGE>
0

> <JCHEM_PKA>
14.18392569613178

> <JCHEM_PKA_STRONGEST_ACIDIC>
8.907563279420595

> <JCHEM_PKA_STRONGEST_BASIC>
4.707536378484004

> <JCHEM_POLAR_SURFACE_AREA>
116.76

> <JCHEM_REFRACTIVITY>
138.67789999999997

> <JCHEM_ROTATABLE_BOND_COUNT>
15

> <JCHEM_RULE_OF_FIVE>
1

> <ALOGPS_SOLUBILITY>
1.20e-03 g/l

> <JCHEM_TRADITIONAL_IUPAC>
(2R)-14-fluoro-2-methyl-6,9,10,19-tetraazapentacyclo[14.2.1.0^{2,6}.0^{8,18}.0^{12,17}]nonadeca-1(18),8,12(17),13,15-pentaen-11-one

> <JCHEM_VEBER_RULE>
0

> <DRUGBANK_ID>
DB15321

> <DRUG_GROUPS>
investigational

> <GENERIC_NAME>
Tefinostat

> <SYNONYMS>
Tefinostat

$$$$
