
  Mrv1909 10112218582D          

 34 39  0  0  0  0            999 V2000
   -0.7145   -1.2375    0.0000 O   0  0  0  0  0  0  0  0  0  0  0  0
    0.0000   -1.6500    0.0000 C   0  0  0  0  0  0  0  0  0  0  0  0
    0.0000   -2.4750    0.0000 N   0  0  0  0  0  0  0  0  0  0  0  0
   -0.7145   -2.8875    0.0000 C   0  0  0  0  0  0  0  0  0  0  0  0
   -0.7145   -3.7125    0.0000 C   0  0  0  0  0  0  0  0  0  0  0  0
   -1.4289   -4.1250    0.0000 C   0  0  0  0  0  0  0  0  0  0  0  0
   -2.1434   -3.7125    0.0000 C   0  0  0  0  0  0  0  0  0  0  0  0
   -2.1434   -2.8875    0.0000 C   0  0  0  0  0  0  0  0  0  0  0  0
   -1.4289   -2.4750    0.0000 C   0  0  0  0  0  0  0  0  0  0  0  0
    0.0000   -4.1250    0.0000 C   0  0  0  0  0  0  0  0  0  0  0  0
    0.7537   -3.7894    0.0000 C   0  0  0  0  0  0  0  0  0  0  0  0
    1.3057   -4.4025    0.0000 N   0  0  0  0  0  0  0  0  0  0  0  0
    2.1127   -4.5741    0.0000 C   0  0  0  0  0  0  0  0  0  0  0  0
    2.7258   -4.0220    0.0000 C   0  0  0  0  0  0  0  0  0  0  0  0
    3.5104   -4.2770    0.0000 N   0  0  0  0  0  0  0  0  0  0  0  0
    4.1235   -3.7249    0.0000 C   0  0  0  0  0  0  0  0  0  0  0  0
    4.9081   -3.9799    0.0000 C   0  0  0  0  0  0  0  0  0  0  0  0
    5.0796   -4.7868    0.0000 N   0  0  0  0  0  0  0  0  0  0  0  0
    4.4665   -5.3389    0.0000 C   0  0  0  0  0  0  0  0  0  0  0  0
    3.6819   -5.0839    0.0000 C   0  0  0  0  0  0  0  0  0  0  0  0
    2.1989   -5.3945    0.0000 C   0  0  0  0  0  0  0  0  0  0  0  0
    1.4452   -5.7301    0.0000 S   0  0  0  0  0  0  0  0  0  0  0  0
    0.8932   -5.1170    0.0000 C   0  0  0  0  0  0  0  0  0  0  0  0
    0.0862   -4.9455    0.0000 N   0  0  0  0  0  0  0  0  0  0  0  0
    0.7145   -1.2375    0.0000 C   0  0  0  0  0  0  0  0  0  0  0  0
    0.7145   -0.4125    0.0000 C   0  0  0  0  0  0  0  0  0  0  0  0
    1.4289    0.0000    0.0000 N   0  0  0  0  0  0  0  0  0  0  0  0
    2.1434   -0.4125    0.0000 C   0  0  0  0  0  0  0  0  0  0  0  0
    2.8579    0.0000    0.0000 C   0  0  0  0  0  0  0  0  0  0  0  0
    3.5724   -0.4125    0.0000 C   0  0  0  0  0  0  0  0  0  0  0  0
    3.5724   -1.2375    0.0000 C   0  0  0  0  0  0  0  0  0  0  0  0
    2.8579   -1.6500    0.0000 C   0  0  0  0  0  0  0  0  0  0  0  0
    2.1434   -1.2375    0.0000 C   0  0  0  0  0  0  0  0  0  0  0  0
    1.4289   -1.6500    0.0000 N   0  0  0  0  0  0  0  0  0  0  0  0
  1  2  2  0  0  0  0
  2  3  1  0  0  0  0
  3  4  1  0  0  0  0
  4  5  2  0  0  0  0
  5  6  1  0  0  0  0
  6  7  2  0  0  0  0
  7  8  1  0  0  0  0
  8  9  2  0  0  0  0
  4  9  1  0  0  0  0
  5 10  1  0  0  0  0
 10 11  2  0  0  0  0
 11 12  1  0  0  0  0
 12 13  1  0  0  0  0
 13 14  1  0  0  0  0
 14 15  1  0  0  0  0
 15 16  1  0  0  0  0
 16 17  1  0  0  0  0
 17 18  1  0  0  0  0
 18 19  1  0  0  0  0
 19 20  1  0  0  0  0
 15 20  1  0  0  0  0
 13 21  2  0  0  0  0
 21 22  1  0  0  0  0
 22 23  1  0  0  0  0
 12 23  1  0  0  0  0
 23 24  2  0  0  0  0
 10 24  1  0  0  0  0
  2 25  1  0  0  0  0
 25 26  2  0  0  0  0
 26 27  1  0  0  0  0
 27 28  2  0  0  0  0
 28 29  1  0  0  0  0
 29 30  2  0  0  0  0
 30 31  1  0  0  0  0
 31 32  2  0  0  0  0
 32 33  1  0  0  0  0
 28 33  1  0  0  0  0
 33 34  2  0  0  0  0
 25 34  1  0  0  0  0
M  END
> <DATABASE_ID>
DB17057

> <DATABASE_NAME>
drugbank

> <SMILES>
O=C(NC1=C(C=CC=C1)C1=CN2C(CN3CCNCC3)=CSC2=N1)C1=CN=C2C=CC=CC2=N1

> <INCHI_IDENTIFIER>
InChI=1S/C25H23N7OS/c33-24(22-13-27-20-7-3-4-8-21(20)28-22)29-19-6-2-1-5-18(19)23-15-32-17(16-34-25(32)30-23)14-31-11-9-26-10-12-31/h1-8,13,15-16,26H,9-12,14H2,(H,29,33)

> <INCHI_KEY>
IASPBORHOMBZMY-UHFFFAOYSA-N

> <FORMULA>
C25H23N7OS

> <MOLECULAR_WEIGHT>
469.57

> <EXACT_MASS>
469.168479563

> <JCHEM_ACCEPTOR_COUNT>
6

> <JCHEM_ATOM_COUNT>
57

> <JCHEM_AVERAGE_NEUTRAL_MICROSPECIES_CHARGE>
0.9943579128507323

> <JCHEM_AVERAGE_POLARIZABILITY>
50.920430393205926

> <JCHEM_BIOAVAILABILITY>
1

> <JCHEM_DONOR_COUNT>
2

> <JCHEM_FORMAL_CHARGE>
0

> <JCHEM_GHOSE_FILTER>
0

> <JCHEM_IUPAC>
N-(2-{3-[(piperazin-1-yl)methyl]imidazo[2,1-b][1,3]thiazol-6-yl}phenyl)quinoxaline-2-carboxamide

> <ALOGPS_LOGP>
2.62

> <JCHEM_LOGP>
2.955363647666668

> <ALOGPS_LOGS>
-4.17

> <JCHEM_MDDR_LIKE_RULE>
0

> <JCHEM_NEUTRAL_CHARGE>
1

> <JCHEM_NUMBER_OF_RINGS>
6

> <JCHEM_PHYSIOLOGICAL_CHARGE>
1

> <JCHEM_PKA_STRONGEST_ACIDIC>
13.694354395752233

> <JCHEM_PKA_STRONGEST_BASIC>
9.2150065323027

> <JCHEM_POLAR_SURFACE_AREA>
87.45

> <JCHEM_REFRACTIVITY>
144.00609999999998

> <JCHEM_ROTATABLE_BOND_COUNT>
5

> <JCHEM_RULE_OF_FIVE>
1

> <ALOGPS_SOLUBILITY>
3.18e-02 g/l

> <JCHEM_TRADITIONAL_IUPAC>
6-cyclopropaneamido-N-[hydroxy(2H2)methyl]-4-{[2-methoxy-3-(1-methyl-1,2,4-triazol-3-yl)phenyl]amino}pyridazine-3-carboxamide

> <JCHEM_VEBER_RULE>
0

> <DRUGBANK_ID>
DB17057

> <DRUG_GROUPS>
investigational

> <GENERIC_NAME>
SRT-1720

> <SYNONYMS>
2-quinoxalinecarboxamide, n-(2-(3-(1-piperazinylmethyl)imidazo(2,1-b)thiazol-6-yl)phenyl)-; N-(2-(3-(1-piperazinylmethyl)imidazo(2,1-b)thiazol-6-yl)phenyl)-2-quinoxalinecarboxamide

$$$$
