
  Mrv1909 11251903212D          

 35 37  0  0  0  0            999 V2000
   -0.2169   -1.2405    0.0000 P   0  0  0  0  0  0  0  0  0  0  0  0
    1.0886   -1.8217    0.0000 P   0  0  0  0  0  0  0  0  0  0  0  0
   -1.7523    0.7927    0.0000 O   0  0  0  0  0  0  0  0  0  0  0  0
   -3.3173   -0.6592    0.0000 O   0  0  0  0  0  0  0  0  0  0  0  0
    3.2146   -2.3168    0.0000 O   0  0  0  0  0  0  0  0  0  0  0  0
   -0.7018   -0.5730    0.0000 O   0  0  0  0  0  0  0  0  0  0  0  0
    1.9091   -1.7355    0.0000 O   0  0  0  0  0  0  0  0  0  0  0  0
    2.2078   -4.5779    0.0000 O   0  0  0  0  0  0  0  0  0  0  0  0
    1.2379   -3.2430    0.0000 O   0  0  0  0  0  0  0  0  0  0  0  0
    3.8489   -4.4055    0.0000 O   0  0  0  0  0  0  0  0  0  0  0  0
    0.2680   -1.9080    0.0000 O   0  0  0  0  0  0  0  0  0  0  0  0
   -3.8489    2.1028    0.0000 O   0  0  0  0  0  0  0  0  0  0  0  0
    0.4506   -0.7556    0.0000 O   0  0  0  0  0  0  0  0  0  0  0  0
    1.1748   -2.6423    0.0000 O   0  0  0  0  0  0  0  0  0  0  0  0
   -0.8844   -1.7255    0.0000 O   0  0  0  0  0  0  0  0  0  0  0  0
    1.0023   -1.0012    0.0000 O   0  0  0  0  0  0  0  0  0  0  0  0
   -2.4198    4.5779    0.0000 O   0  0  0  0  0  0  0  0  0  0  0  0
   -2.4198    2.1028    0.0000 N   0  0  0  0  0  0  0  0  0  0  0  0
   -3.1344    3.3403    0.0000 N   0  0  0  0  0  0  0  0  0  0  0  0
   -2.8323    0.0081    0.0000 C   0  0  2  0  0  0  0  0  0  0  0  0
   -2.0073    0.0081    0.0000 C   0  0  1  0  0  0  0  0  0  0  0  0
   -3.0873    0.7927    0.0000 C   0  0  0  0  0  0  0  0  0  0  0  0
   -2.4198    1.2777    0.0000 C   0  0  1  0  0  0  0  0  0  0  0  0
   -1.5224   -0.6592    0.0000 C   0  0  0  0  0  0  0  0  0  0  0  0
    2.5434   -3.8242    0.0000 C   0  0  2  0  0  0  0  0  0  0  0  0
    2.0584   -3.1568    0.0000 C   0  0  2  0  0  0  0  0  0  0  0  0
    3.3639   -3.7379    0.0000 C   0  0  1  0  0  0  0  0  0  0  0  0
    2.3940   -2.4030    0.0000 C   0  0  2  0  0  0  0  0  0  0  0  0
    3.6995   -2.9842    0.0000 C   0  0  0  0  0  0  0  0  0  0  0  0
   -1.7053    2.5153    0.0000 C   0  0  0  0  0  0  0  0  0  0  0  0
   -3.1344    2.5153    0.0000 C   0  0  0  0  0  0  0  0  0  0  0  0
   -1.7053    3.3403    0.0000 C   0  0  0  0  0  0  0  0  0  0  0  0
   -2.4198    3.7529    0.0000 C   0  0  0  0  0  0  0  0  0  0  0  0
   -0.9908    3.7529    0.0000 C   0  0  0  0  0  0  0  0  0  0  0  0
   -3.5773    3.5961    0.0000 H   0  0  0  0  0  0  0  0  0  0  0  0
  1  6  1  0  0  0  0
  1 11  1  0  0  0  0
  1 13  1  1  0  0  0
  1 15  2  0  0  0  0
  2  7  1  0  0  0  0
  2 11  1  0  0  0  0
  2 14  1  6  0  0  0
  2 16  2  0  0  0  0
  3 21  1  0  0  0  0
  3 23  1  0  0  0  0
 20  4  1  1  0  0  0
  5 28  1  0  0  0  0
  5 29  1  0  0  0  0
  6 24  1  0  0  0  0
 28  7  1  1  0  0  0
 25  8  1  6  0  0  0
 26  9  1  1  0  0  0
 27 10  1  1  0  0  0
 12 31  2  0  0  0  0
 17 33  2  0  0  0  0
 23 18  1  6  0  0  0
 18 30  1  0  0  0  0
 18 31  1  0  0  0  0
 19 31  1  0  0  0  0
 19 33  1  0  0  0  0
 19 35  1  0  0  0  0
 20 21  1  0  0  0  0
 20 22  1  0  0  0  0
 21 24  1  6  0  0  0
 22 23  1  0  0  0  0
 25 26  1  0  0  0  0
 25 27  1  0  0  0  0
 26 28  1  0  0  0  0
 27 29  1  0  0  0  0
 30 32  2  0  0  0  0
 32 33  1  0  0  0  0
 32 34  1  0  0  0  0
M  END
> <DATABASE_ID>
DB03161

> <DATABASE_NAME>
drugbank

> <SMILES>
[H]N1C(=O)N(C=C(C)C1=O)[C@H]1C[C@H](O)[C@@H](COP(O)(=O)OP(O)(=O)O[C@H]2OC[C@@H](O)[C@H](O)[C@H]2O)O1

> <INCHI_IDENTIFIER>
InChI=1S/C15H24N2O15P2/c1-6-3-17(15(23)16-13(6)22)10-2-7(18)9(30-10)5-29-33(24,25)32-34(26,27)31-14-12(21)11(20)8(19)4-28-14/h3,7-12,14,18-21H,2,4-5H2,1H3,(H,24,25)(H,26,27)(H,16,22,23)/t7-,8+,9+,10+,11-,12+,14+/m0/s1

> <INCHI_KEY>
AJUADKZRQSBUAK-KDGZBOQCSA-N

> <FORMULA>
C15H24N2O15P2

> <MOLECULAR_WEIGHT>
534.303

> <EXACT_MASS>
534.065191132

> <JCHEM_ACCEPTOR_COUNT>
12

> <JCHEM_ATOM_COUNT>
58

> <JCHEM_AVERAGE_POLARIZABILITY>
44.46022769160744

> <JCHEM_BIOAVAILABILITY>
0

> <JCHEM_DONOR_COUNT>
7

> <JCHEM_FORMAL_CHARGE>
0

> <JCHEM_GHOSE_FILTER>
0

> <JCHEM_IUPAC>
{[hydroxy({[(2R,3R,4S,5R)-3,4,5-trihydroxyoxan-2-yl]oxy})phosphoryl]oxy}({[(2R,3S,5R)-3-hydroxy-5-(5-methyl-2,4-dioxo-1,2,3,4-tetrahydropyrimidin-1-yl)oxolan-2-yl]methoxy})phosphinic acid

> <ALOGPS_LOGP>
-1.29

> <JCHEM_LOGP>
-3.070084584333334

> <ALOGPS_LOGS>
-1.67

> <JCHEM_MDDR_LIKE_RULE>
1

> <JCHEM_NUMBER_OF_RINGS>
3

> <JCHEM_PHYSIOLOGICAL_CHARGE>
-2

> <JCHEM_PKA>
3.176365422960129

> <JCHEM_PKA_STRONGEST_ACIDIC>
1.7326574728244148

> <JCHEM_PKA_STRONGEST_BASIC>
-3.2403442590943885

> <JCHEM_POLAR_SURFACE_AREA>
251.07999999999998

> <JCHEM_REFRACTIVITY>
103.33969999999998

> <JCHEM_ROTATABLE_BOND_COUNT>
8

> <JCHEM_RULE_OF_FIVE>
0

> <ALOGPS_SOLUBILITY>
1.13e+01 g/l

> <JCHEM_TRADITIONAL_IUPAC>
1lambda4-thia-2,3,4,5-tetracupratetracyclo[2.1.0.0^{1,3}.0^{2,5}]pentane

> <JCHEM_VEBER_RULE>
0

> <DRUGBANK_ID>
DB03161

> <SECONDARY_ACCESSION_NUMBERS>
EXPT03034

> <DRUG_GROUPS>
experimental

> <GENERIC_NAME>
Thymidine-5'-diphospho-beta-D-xylose

$$$$
