
  Mrv1909 12152020022D          

 92 98  0  0  1  0            999 V2000
   11.0344   -0.1056    0.0000 H   0  0  0  0  0  0  0  0  0  0  0  0
   11.8024    0.1958    0.0000 C   0  0  2  0  0  0  0  0  0  0  0  0
   12.5106    0.6189    0.0000 C   0  0  0  0  0  0  0  0  0  0  0  0
   13.1319    0.0761    0.0000 C   0  0  1  0  0  0  0  0  0  0  0  0
   13.9362    0.2597    0.0000 O   0  0  0  0  0  0  0  0  0  0  0  0
   12.8076   -0.6825    0.0000 C   0  0  0  0  0  0  0  0  0  0  0  0
   11.9860   -0.6085    0.0000 N   0  0  0  0  0  0  0  0  0  0  0  0
   11.9243   -1.4312    0.0000 C   0  0  0  0  0  0  0  0  0  0  0  0
   12.7286   -1.6148    0.0000 O   0  0  0  0  0  0  0  0  0  0  0  0
   11.6229   -2.1992    0.0000 C   0  0  1  0  0  0  0  0  0  0  0  0
   10.9084   -1.7867    0.0000 H   0  0  0  0  0  0  0  0  0  0  0  0
   11.1085   -2.8442    0.0000 N   0  0  0  0  0  0  0  0  0  0  0  0
   10.4269   -3.3089    0.0000 C   0  0  0  0  0  0  0  0  0  0  0  0
   10.7848   -4.0522    0.0000 O   0  0  0  0  0  0  0  0  0  0  0  0
    9.6385   -3.5521    0.0000 C   0  0  2  0  0  0  0  0  0  0  0  0
    8.8135   -3.5521    0.0000 C   0  0  0  0  0  0  0  0  0  0  0  0
    8.0252   -3.3089    0.0000 C   0  0  1  0  0  0  0  0  0  0  0  0
    7.6672   -4.0522    0.0000 O   0  0  0  0  0  0  0  0  0  0  0  0
    7.3435   -2.8442    0.0000 C   0  0  2  0  0  0  0  0  0  0  0  0
    6.8292   -2.1992    0.0000 N   0  0  0  0  0  0  0  0  0  0  0  0
    6.5278   -1.4312    0.0000 C   0  0  0  0  0  0  0  0  0  0  0  0
    5.7234   -1.6148    0.0000 O   0  0  0  0  0  0  0  0  0  0  0  0
    6.4661   -0.6085    0.0000 C   0  0  2  0  0  0  0  0  0  0  0  0
    7.2888   -0.6702    0.0000 H   0  0  0  0  0  0  0  0  0  0  0  0
    5.6444   -0.6825    0.0000 C   0  0  1  0  0  0  0  0  0  0  0  0
    5.2213   -1.3907    0.0000 O   0  0  0  0  0  0  0  0  0  0  0  0
    5.3202    0.0761    0.0000 C   0  0  1  0  0  0  0  0  0  0  0  0
    4.5159    0.2597    0.0000 C   0  0  0  0  0  0  0  0  0  0  0  0
    5.9415    0.6189    0.0000 C   0  0  0  0  0  0  0  0  0  0  0  0
    6.6497    0.1958    0.0000 N   0  0  0  0  0  0  0  0  0  0  0  0
    7.0622    0.9103    0.0000 C   0  0  0  0  0  0  0  0  0  0  0  0
    6.4172    1.4247    0.0000 O   0  0  0  0  0  0  0  0  0  0  0  0
    7.6669    1.4714    0.0000 C   0  0  1  0  0  0  0  0  0  0  0  0
    8.1317    0.7898    0.0000 H   0  0  0  0  0  0  0  0  0  0  0  0
    8.4102    1.8294    0.0000 N   0  0  0  0  0  0  0  0  0  0  0  0
    9.2260    1.9523    0.0000 C   0  0  0  0  0  0  0  0  0  0  0  0
    9.2260    2.7773    0.0000 O   0  0  0  0  0  0  0  0  0  0  0  0
   10.0418    1.8294    0.0000 C   0  0  0  0  0  0  0  0  0  0  0  0
   10.7851    1.4714    0.0000 N   0  0  0  0  0  0  0  0  0  0  0  0
   11.3899    0.9103    0.0000 C   0  0  0  0  0  0  0  0  0  0  0  0
   12.0349    1.4247    0.0000 O   0  0  0  0  0  0  0  0  0  0  0  0
   10.2850    2.6177    0.0000 C   0  0  2  0  0  0  0  0  0  0  0  0
    9.7238    3.2225    0.0000 O   0  0  0  0  0  0  0  0  0  0  0  0
   11.0893    2.8013    0.0000 C   0  0  1  0  0  0  0  0  0  0  0  0
   11.6504    2.1965    0.0000 O   0  0  0  0  0  0  0  0  0  0  0  0
   11.3325    3.5896    0.0000 C   0  0  0  0  0  0  0  0  0  0  0  0
   10.7713    4.1944    0.0000 C   0  0  0  0  0  0  0  0  0  0  0  0
   11.0145    4.9828    0.0000 C   0  0  0  0  0  0  0  0  0  0  0  0
   11.8188    5.1663    0.0000 C   0  0  0  0  0  0  0  0  0  0  0  0
   12.0620    5.9547    0.0000 O   0  0  0  0  0  0  0  0  0  0  0  0
   12.3800    4.5616    0.0000 C   0  0  0  0  0  0  0  0  0  0  0  0
   12.1368    3.7732    0.0000 C   0  0  0  0  0  0  0  0  0  0  0  0
    7.2022    2.1531    0.0000 C   0  0  1  0  0  0  0  0  0  0  0  0
    6.3795    2.0914    0.0000 C   0  0  0  0  0  0  0  0  0  0  0  0
    7.5602    2.8964    0.0000 O   0  0  0  0  0  0  0  0  0  0  0  0
    6.7824   -3.4490    0.0000 O   0  0  0  0  0  0  0  0  0  0  0  0
    5.9781   -3.2654    0.0000 C   0  0  0  0  0  0  0  0  0  0  0  0
    5.4169   -3.8701    0.0000 C   0  0  0  0  0  0  0  0  0  0  0  0
    5.6601   -4.6585    0.0000 N   0  3  0  0  0  0  0  0  0  0  0  0
    4.8718   -4.9017    0.0000 C   0  0  0  0  0  0  0  0  0  0  0  0
    6.4485   -4.4153    0.0000 C   0  0  0  0  0  0  0  0  0  0  0  0
    5.9033   -5.4468    0.0000 C   0  0  0  0  0  0  0  0  0  0  0  0
    9.7615   -4.3679    0.0000 N   0  0  0  0  0  0  0  0  0  0  0  0
    9.1165   -4.8823    0.0000 C   0  0  0  0  0  0  0  0  0  0  0  0
    8.3485   -4.5809    0.0000 O   0  0  0  0  0  0  0  0  0  0  0  0
    9.2394   -5.6980    0.0000 C   0  0  0  0  0  0  0  0  0  0  0  0
   10.0074   -5.9995    0.0000 C   0  0  0  0  0  0  0  0  0  0  0  0
   10.1304   -6.8152    0.0000 C   0  0  0  0  0  0  0  0  0  0  0  0
    9.4854   -7.3296    0.0000 C   0  0  0  0  0  0  0  0  0  0  0  0
    8.7174   -7.0282    0.0000 C   0  0  0  0  0  0  0  0  0  0  0  0
    8.5944   -6.2124    0.0000 C   0  0  0  0  0  0  0  0  0  0  0  0
    9.6083   -8.1454    0.0000 C   0  0  0  0  0  0  0  0  0  0  0  0
   10.3763   -8.4468    0.0000 C   0  0  0  0  0  0  0  0  0  0  0  0
   10.4993   -9.2626    0.0000 C   0  0  0  0  0  0  0  0  0  0  0  0
    9.8542   -9.7770    0.0000 C   0  0  0  0  0  0  0  0  0  0  0  0
    9.0863   -9.4756    0.0000 C   0  0  0  0  0  0  0  0  0  0  0  0
    8.9633   -8.6598    0.0000 C   0  0  0  0  0  0  0  0  0  0  0  0
    9.9772  -10.5928    0.0000 C   0  0  0  0  0  0  0  0  0  0  0  0
   10.7452  -10.8942    0.0000 C   0  0  0  0  0  0  0  0  0  0  0  0
   10.8681  -11.7099    0.0000 C   0  0  0  0  0  0  0  0  0  0  0  0
   10.2231  -12.2243    0.0000 C   0  0  0  0  0  0  0  0  0  0  0  0
   10.3461  -13.0401    0.0000 O   0  0  0  0  0  0  0  0  0  0  0  0
   11.1140  -13.3415    0.0000 C   0  0  0  0  0  0  0  0  0  0  0  0
   11.2370  -14.1573    0.0000 C   0  0  0  0  0  0  0  0  0  0  0  0
   12.0050  -14.4587    0.0000 C   0  0  0  0  0  0  0  0  0  0  0  0
   12.1279  -15.2745    0.0000 C   0  0  0  0  0  0  0  0  0  0  0  0
   12.8959  -15.5759    0.0000 C   0  0  0  0  0  0  0  0  0  0  0  0
    9.4551  -11.9229    0.0000 C   0  0  0  0  0  0  0  0  0  0  0  0
    9.3322  -11.1071    0.0000 C   0  0  0  0  0  0  0  0  0  0  0  0
   12.3374   -2.6117    0.0000 C   0  0  1  0  0  0  0  0  0  0  0  0
   13.0518   -2.1992    0.0000 C   0  0  0  0  0  0  0  0  0  0  0  0
   12.3374   -3.4367    0.0000 O   0  0  0  0  0  0  0  0  0  0  0  0
  2  1  1  1  0  0  0
  2  3  1  0  0  0  0
  4  3  1  0  0  0  0
  4  5  1  1  0  0  0
  4  6  1  0  0  0  0
  6  7  1  0  0  0  0
  2  7  1  0  0  0  0
  7  8  1  0  0  0  0
  8  9  2  0  0  0  0
 10  8  1  0  0  0  0
 10 11  1  1  0  0  0
 10 12  1  6  0  0  0
 12 13  1  0  0  0  0
 13 14  2  0  0  0  0
 15 13  1  0  0  0  0
 15 16  1  0  0  0  0
 17 16  1  0  0  0  0
 17 18  1  1  0  0  0
 17 19  1  0  0  0  0
 19 20  1  0  0  0  0
 20 21  1  0  0  0  0
 21 22  2  0  0  0  0
 23 21  1  0  0  0  0
 23 24  1  1  0  0  0
 25 23  1  0  0  0  0
 25 26  1  1  0  0  0
 25 27  1  0  0  0  0
 27 28  1  1  0  0  0
 27 29  1  0  0  0  0
 29 30  1  0  0  0  0
 23 30  1  0  0  0  0
 30 31  1  0  0  0  0
 31 32  2  0  0  0  0
 33 31  1  0  0  0  0
 33 34  1  1  0  0  0
 33 35  1  6  0  0  0
 35 36  1  0  0  0  0
 36 37  2  0  0  0  0
 36 38  1  0  0  0  0
 38 39  1  0  0  0  0
 39 40  1  0  0  0  0
  2 40  1  0  0  0  0
 40 41  2  0  0  0  0
 42 38  1  0  0  0  0
 42 43  1  6  0  0  0
 42 44  1  0  0  0  0
 44 45  1  6  0  0  0
 44 46  1  0  0  0  0
 46 47  2  0  0  0  0
 47 48  1  0  0  0  0
 48 49  2  0  0  0  0
 49 50  1  0  0  0  0
 49 51  1  0  0  0  0
 51 52  2  0  0  0  0
 46 52  1  0  0  0  0
 33 53  1  0  0  0  0
 53 54  1  0  0  0  0
 53 55  1  1  0  0  0
 19 56  1  1  0  0  0
 56 57  1  0  0  0  0
 57 58  1  0  0  0  0
 58 59  1  0  0  0  0
 59 60  1  0  0  0  0
 59 61  1  0  0  0  0
 59 62  1  0  0  0  0
 15 63  1  1  0  0  0
 63 64  1  0  0  0  0
 64 65  2  0  0  0  0
 64 66  1  0  0  0  0
 66 67  2  0  0  0  0
 67 68  1  0  0  0  0
 68 69  2  0  0  0  0
 69 70  1  0  0  0  0
 70 71  2  0  0  0  0
 66 71  1  0  0  0  0
 69 72  1  0  0  0  0
 72 73  2  0  0  0  0
 73 74  1  0  0  0  0
 74 75  2  0  0  0  0
 75 76  1  0  0  0  0
 76 77  2  0  0  0  0
 72 77  1  0  0  0  0
 75 78  1  0  0  0  0
 78 79  2  0  0  0  0
 79 80  1  0  0  0  0
 80 81  2  0  0  0  0
 81 82  1  0  0  0  0
 82 83  1  0  0  0  0
 83 84  1  0  0  0  0
 84 85  1  0  0  0  0
 85 86  1  0  0  0  0
 86 87  1  0  0  0  0
 81 88  1  0  0  0  0
 88 89  2  0  0  0  0
 78 89  1  0  0  0  0
 10 90  1  0  0  0  0
 90 91  1  0  0  0  0
 90 92  1  1  0  0  0
M  CHG  1  59   1
M  END
> <DATABASE_ID>
DB16310

> <DATABASE_NAME>
drugbank

> <SMILES>
[H][C@@]12C[C@@H](O)CN1C(=O)[C@@]([H])(NC(=O)[C@H](C[C@@H](O)[C@H](NC(=O)[C@]1([H])[C@@H](O)[C@@H](C)CN1C(=O)[C@@]([H])(NC(=O)C(NC2=O)[C@H](O)[C@@H](O)C1=CC=C(O)C=C1)[C@@H](C)O)OCC[N+](C)(C)C)NC(=O)C1=CC=C(C=C1)C1=CC=C(C=C1)C1=CC=C(OCCCCC)C=C1)[C@@H](C)O

> <INCHI_IDENTIFIER>
InChI=1S/C63H84N8O17/c1-8-9-10-28-87-45-25-21-40(22-26-45)38-13-11-37(12-14-38)39-15-17-42(18-16-39)56(80)64-46-31-48(76)61(88-29-27-71(5,6)7)68-60(84)52-53(77)34(2)32-70(52)63(86)50(36(4)73)66-59(83)51(55(79)54(78)41-19-23-43(74)24-20-41)67-58(82)47-30-44(75)33-69(47)62(85)49(35(3)72)65-57(46)81/h11-26,34-36,44,46-55,61,72-73,75-79H,8-10,27-33H2,1-7H3,(H5-,64,65,66,67,68,74,80,81,82,83,84)/p+1/t34-,35+,36+,44+,46-,47-,48+,49-,50-,51?,52-,53-,54-,55-,61+/m0/s1

> <INCHI_KEY>
LNFCWEXGZIEGJW-AMIBTTDLSA-O

> <FORMULA>
C63H85N8O17

> <MOLECULAR_WEIGHT>
1226.411

> <EXACT_MASS>
1225.602719729

> <JCHEM_ACCEPTOR_COUNT>
17

> <JCHEM_ATOM_COUNT>
173

> <JCHEM_AVERAGE_NEUTRAL_MICROSPECIES_CHARGE>
0.9963649821254151

> <JCHEM_AVERAGE_POLARIZABILITY>
130.91447369168876

> <JCHEM_BIOAVAILABILITY>
0

> <JCHEM_DONOR_COUNT>
13

> <JCHEM_FORMAL_CHARGE>
1

> <JCHEM_GHOSE_FILTER>
0

> <JCHEM_IUPAC>
(2-{[(3S,9S,11R,15S,18S,20R,21R,24S,25S,26S)-6-[(1S,2S)-1,2-dihydroxy-2-(4-hydroxyphenyl)ethyl]-11,20,25-trihydroxy-3,15-bis[(1R)-1-hydroxyethyl]-26-methyl-2,5,8,14,17,23-hexaoxo-18-{4-[4'-(pentyloxy)-[1,1'-biphenyl]-4-yl]benzamido}-1,4,7,13,16,22-hexaazatricyclo[22.3.0.0^{9,13}]heptacosan-21-yl]oxy}ethyl)trimethylazanium

> <ALOGPS_LOGP>
0.29

> <JCHEM_LOGP>
-4.957782741471746

> <ALOGPS_LOGS>
-4.74

> <JCHEM_MDDR_LIKE_RULE>
1

> <JCHEM_NEUTRAL_CHARGE>
1

> <JCHEM_NUMBER_OF_RINGS>
7

> <JCHEM_PHYSIOLOGICAL_CHARGE>
1

> <JCHEM_PKA>
11.016812924014964

> <JCHEM_PKA_STRONGEST_ACIDIC>
9.456815506199687

> <JCHEM_PKA_STRONGEST_BASIC>
-3.34729773106888

> <JCHEM_POLAR_SURFACE_AREA>
366.42

> <JCHEM_REFRACTIVITY>
330.9770999999999

> <JCHEM_ROTATABLE_BOND_COUNT>
18

> <JCHEM_RULE_OF_FIVE>
0

> <ALOGPS_SOLUBILITY>
2.30e-02 g/l

> <JCHEM_TRADITIONAL_IUPAC>
revaprazan

> <JCHEM_VEBER_RULE>
0

> <DRUGBANK_ID>
DB16310

> <DRUG_GROUPS>
investigational

> <GENERIC_NAME>
Rezafungin

> <SYNONYMS>
Biafungin; Rezafungin; Rezafungin cation; Rezafungin ion

$$$$
