
  Mrv1652306131722022D          

 14 13  0  0  0  0            999 V2000
   -0.4125    5.0013    0.0000 C   0  0  0  0  0  0  0  0  0  0  0  0
   -0.0000    4.2868    0.0000 C   0  0  0  0  0  0  0  0  0  0  0  0
    0.8250    4.2868    0.0000 C   0  0  0  0  0  0  0  0  0  0  0  0
    1.2375    3.5724    0.0000 C   0  0  0  0  0  0  0  0  0  0  0  0
    0.8250    2.8579    0.0000 C   0  0  0  0  0  0  0  0  0  0  0  0
    1.2375    2.1434    0.0000 C   0  0  0  0  0  0  0  0  0  0  0  0
    0.8250    1.4289    0.0000 C   0  0  0  0  0  0  0  0  0  0  0  0
    2.0625    3.5724    0.0000 C   0  0  0  0  0  0  0  0  0  0  0  0
    2.4750    4.2868    0.0000 O   0  0  0  0  0  0  0  0  0  0  0  0
    2.4750    2.8579    0.0000 N   0  0  0  0  0  0  0  0  0  0  0  0
    3.3000    2.8579    0.0000 C   0  0  0  0  0  0  0  0  0  0  0  0
    3.7125    2.1434    0.0000 C   0  0  0  0  0  0  0  0  0  0  0  0
    4.5375    2.1434    0.0000 O   0  0  0  0  0  0  0  0  0  0  0  0
    3.3000    1.4289    0.0000 N   0  0  0  0  0  0  0  0  0  0  0  0
  1  2  1  0  0  0  0
  2  3  1  0  0  0  0
  3  4  1  0  0  0  0
  4  5  1  0  0  0  0
  5  6  1  0  0  0  0
  6  7  1  0  0  0  0
  4  8  1  0  0  0  0
  8  9  2  0  0  0  0
  8 10  1  0  0  0  0
 10 11  1  0  0  0  0
 11 12  1  0  0  0  0
 12 13  2  0  0  0  0
 12 14  1  0  0  0  0
M  END
> <DATABASE_ID>
DB06657

> <DATABASE_NAME>
drugbank

> <SMILES>
CCCC(CCC)C(=O)NCC(N)=O

> <INCHI_IDENTIFIER>
InChI=1S/C10H20N2O2/c1-3-5-8(6-4-2)10(14)12-7-9(11)13/h8H,3-7H2,1-2H3,(H2,11,13)(H,12,14)

> <INCHI_KEY>
RALGCAOVRLYSMA-UHFFFAOYSA-N

> <FORMULA>
C10H20N2O2

> <MOLECULAR_WEIGHT>
200.282

> <EXACT_MASS>
200.152477892

> <JCHEM_ACCEPTOR_COUNT>
2

> <JCHEM_ATOM_COUNT>
34

> <JCHEM_AVERAGE_POLARIZABILITY>
22.729234535012097

> <JCHEM_BIOAVAILABILITY>
1

> <JCHEM_DONOR_COUNT>
2

> <JCHEM_FORMAL_CHARGE>
0

> <JCHEM_GHOSE_FILTER>
1

> <JCHEM_IUPAC>
N-(carbamoylmethyl)-2-propylpentanamide

> <ALOGPS_LOGP>
1.10

> <JCHEM_LOGP>
0.8862252176666665

> <ALOGPS_LOGS>
-1.92

> <JCHEM_MDDR_LIKE_RULE>
0

> <JCHEM_NUMBER_OF_RINGS>
0

> <JCHEM_PHYSIOLOGICAL_CHARGE>
0

> <JCHEM_PKA>
16.37769451611597

> <JCHEM_PKA_STRONGEST_ACIDIC>
13.463368832745296

> <JCHEM_PKA_STRONGEST_BASIC>
-0.9930305413321804

> <JCHEM_POLAR_SURFACE_AREA>
72.19

> <JCHEM_REFRACTIVITY>
54.87480000000001

> <JCHEM_ROTATABLE_BOND_COUNT>
7

> <JCHEM_RULE_OF_FIVE>
1

> <ALOGPS_SOLUBILITY>
2.39e+00 g/l

> <JCHEM_TRADITIONAL_IUPAC>
N-(carbamoylmethyl)-2-propylpentanamide

> <JCHEM_VEBER_RULE>
0

> <DRUGBANK_ID>
DB06657

> <DRUG_GROUPS>
investigational

> <GENERIC_NAME>
Valrocemide

> <SYNONYMS>
N-Valproylglycinamide; Valrocemide

$$$$
