
  Mrv1909 11151915422D          

 45 48  0  0  0  0            999 V2000
    3.5840    0.7274    0.0000 C   0  0  0  0  0  0  0  0  0  0  0  0
    3.5840   -0.0975    0.0000 C   0  0  0  0  0  0  0  0  0  0  0  0
    2.8695   -0.5100    0.0000 C   0  0  0  0  0  0  0  0  0  0  0  0
    2.1550   -0.0975    0.0000 C   0  0  0  0  0  0  0  0  0  0  0  0
    2.1550    0.7274    0.0000 C   0  0  0  0  0  0  0  0  0  0  0  0
    2.8695    1.1399    0.0000 C   0  0  0  0  0  0  0  0  0  0  0  0
    1.4407   -0.5100    0.0000 C   0  0  0  0  0  0  0  0  0  0  0  0
    1.4407   -1.3350    0.0000 C   0  0  1  0  0  0  0  0  0  0  0  0
    0.7261   -1.7475    0.0000 C   0  0  0  0  0  0  0  0  0  0  0  0
    0.7261   -2.5725    0.0000 O   0  0  0  0  0  0  0  0  0  0  0  0
    0.0116   -1.3350    0.0000 N   0  0  0  0  0  0  0  0  0  0  0  0
   -1.3844   -1.2829    0.0000 C   0  0  0  0  0  0  0  0  0  0  0  0
   -2.1728   -1.5261    0.0000 C   0  0  0  0  0  0  0  0  0  0  0  0
   -2.4742   -2.2939    0.0000 C   0  0  0  0  0  0  0  0  0  0  0  0
   -2.0617   -3.0085    0.0000 C   0  0  0  0  0  0  0  0  0  0  0  0
   -1.2459   -3.1314    0.0000 C   0  0  0  0  0  0  0  0  0  0  0  0
   -0.6411   -2.5702    0.0000 C   0  0  0  0  0  0  0  0  0  0  0  0
   -0.7028   -1.7475    0.0000 C   0  0  2  0  0  0  0  0  0  0  0  0
   -2.7775   -0.9648    0.0000 C   0  0  0  0  0  0  0  0  0  0  0  0
   -2.5939   -0.1605    0.0000 C   0  0  0  0  0  0  0  0  0  0  0  0
   -1.8056    0.0826    0.0000 C   0  0  0  0  0  0  0  0  0  0  0  0
   -1.2008   -0.4785    0.0000 C   0  0  0  0  0  0  0  0  0  0  0  0
   -3.1986    0.4005    0.0000 O   0  0  0  0  0  0  0  0  0  0  0  0
   -3.0151    1.2049    0.0000 C   0  0  0  0  0  0  0  0  0  0  0  0
   -3.6199    1.7660    0.0000 C   0  0  0  0  0  0  0  0  0  0  0  0
   -4.4082    1.5228    0.0000 C   0  0  0  0  0  0  0  0  0  0  0  0
   -5.0130    2.0840    0.0000 C   0  0  0  0  0  0  0  0  0  0  0  0
   -4.8294    2.8883    0.0000 C   0  0  0  0  0  0  0  0  0  0  0  0
   -4.0411    3.1315    0.0000 C   0  0  0  0  0  0  0  0  0  0  0  0
   -3.4363    2.5703    0.0000 C   0  0  0  0  0  0  0  0  0  0  0  0
   -1.6220    0.8869    0.0000 C   0  0  0  0  0  0  0  0  0  0  0  0
   -2.2268    1.4480    0.0000 O   0  0  0  0  0  0  0  0  0  0  0  0
   -0.8251    1.1004    0.0000 N   0  0  0  0  0  0  0  0  0  0  0  0
    2.1550   -1.7475    0.0000 N   0  0  0  0  0  0  0  0  0  0  0  0
    2.1550   -2.5725    0.0000 C   0  0  0  0  0  0  0  0  0  0  0  0
    1.4407   -2.9851    0.0000 O   0  0  0  0  0  0  0  0  0  0  0  0
    2.8695   -2.9851    0.0000 C   0  0  0  0  0  0  0  0  0  0  0  0
    4.2985    1.1399    0.0000 P   0  0  0  0  0  0  0  0  0  0  0  0
    4.2985    0.3149    0.0000 O   0  0  0  0  0  0  0  0  0  0  0  0
    5.0129    0.7274    0.0000 O   0  0  0  0  0  0  0  0  0  0  0  0
    4.2985    1.9649    0.0000 O   0  0  0  0  0  0  0  0  0  0  0  0
    4.2985   -0.5100    0.0000 P   0  0  0  0  0  0  0  0  0  0  0  0
    3.5840   -0.9225    0.0000 O   0  0  0  0  0  0  0  0  0  0  0  0
    4.2985   -1.3350    0.0000 O   0  0  0  0  0  0  0  0  0  0  0  0
    5.0129   -0.0975    0.0000 O   0  0  0  0  0  0  0  0  0  0  0  0
  1  2  1  0  0  0  0
  2  3  2  0  0  0  0
  3  4  1  0  0  0  0
  4  5  2  0  0  0  0
  5  6  1  0  0  0  0
  1  6  2  0  0  0  0
  8  7  1  6  0  0  0
  8  9  1  0  0  0  0
  9 10  2  0  0  0  0
 12 13  1  0  0  0  0
 13 14  1  0  0  0  0
 14 15  1  0  0  0  0
 15 16  1  0  0  0  0
 16 17  1  0  0  0  0
 17 18  1  0  0  0  0
 12 18  1  0  0  0  0
 19 20  1  0  0  0  0
 20 21  2  0  0  0  0
 21 22  1  0  0  0  0
 22 12  2  0  0  0  0
 19 13  2  0  0  0  0
 23 24  1  0  0  0  0
 25 26  1  0  0  0  0
 26 27  1  0  0  0  0
 27 28  1  0  0  0  0
 28 29  1  0  0  0  0
 29 30  1  0  0  0  0
 25 30  1  0  0  0  0
 24 25  1  0  0  0  0
 20 23  1  0  0  0  0
 31 32  2  0  0  0  0
 31 33  1  0  0  0  0
 21 31  1  0  0  0  0
 18 11  1  1  0  0  0
  9 11  1  0  0  0  0
 35 36  2  0  0  0  0
 35 37  1  0  0  0  0
 34 35  1  0  0  0  0
  8 34  1  0  0  0  0
  4  7  1  0  0  0  0
 38 39  1  0  0  0  0
 38 40  1  0  0  0  0
 38 41  2  0  0  0  0
  1 38  1  0  0  0  0
 42 43  1  0  0  0  0
 42 44  1  0  0  0  0
 42 45  2  0  0  0  0
  2 42  1  0  0  0  0
M  END
> <DATABASE_ID>
DB01830

> <DATABASE_NAME>
drugbank

> <SMILES>
CC(=O)N[C@@H](CC1=CC=C(C(=C1)P(O)(O)=O)P(O)(O)=O)C(=O)N[C@H]1CCCCC2=CC(OCC3CCCCC3)=C(C=C12)C(N)=O

> <INCHI_IDENTIFIER>
InChI=1S/C30H41N3O10P2/c1-18(34)32-25(13-20-11-12-27(44(37,38)39)28(14-20)45(40,41)42)30(36)33-24-10-6-5-9-21-15-26(23(29(31)35)16-22(21)24)43-17-19-7-3-2-4-8-19/h11-12,14-16,19,24-25H,2-10,13,17H2,1H3,(H2,31,35)(H,32,34)(H,33,36)(H2,37,38,39)(H2,40,41,42)/t24-,25-/m0/s1

> <INCHI_KEY>
SPSGYTWOIGAABK-DQEYMECFSA-N

> <FORMULA>
C30H41N3O10P2

> <MOLECULAR_WEIGHT>
665.6082

> <EXACT_MASS>
665.226717571

> <JCHEM_ACCEPTOR_COUNT>
10

> <JCHEM_ATOM_COUNT>
86

> <JCHEM_AVERAGE_POLARIZABILITY>
66.62844221937712

> <JCHEM_BIOAVAILABILITY>
0

> <JCHEM_DONOR_COUNT>
7

> <JCHEM_FORMAL_CHARGE>
0

> <JCHEM_GHOSE_FILTER>
0

> <JCHEM_IUPAC>
{5-[(2S)-2-{[(5S)-3-carbamoyl-2-(cyclohexylmethoxy)-6,7,8,9-tetrahydro-5H-benzo[7]annulen-5-yl]carbamoyl}-2-acetamidoethyl]-2-phosphonophenyl}phosphonic acid

> <JCHEM_LOGP>
0.5392000000000003

> <JCHEM_MDDR_LIKE_RULE>
1

> <JCHEM_NUMBER_OF_RINGS>
4

> <JCHEM_PHYSIOLOGICAL_CHARGE>
-3

> <JCHEM_PKA>
1.9931557751445392

> <JCHEM_PKA_STRONGEST_ACIDIC>
1.2709935522581581

> <JCHEM_PKA_STRONGEST_BASIC>
-0.8092664174420099

> <JCHEM_POLAR_SURFACE_AREA>
225.57999999999996

> <JCHEM_REFRACTIVITY>
166.33780000000004

> <JCHEM_ROTATABLE_BOND_COUNT>
11

> <JCHEM_RULE_OF_FIVE>
0

> <JCHEM_TRADITIONAL_IUPAC>
(L)-canavanine

> <JCHEM_VEBER_RULE>
0

> <DRUGBANK_ID>
DB01830

> <SECONDARY_ACCESSION_NUMBERS>
EXPT00856

> <DRUG_GROUPS>
experimental

> <GENERIC_NAME>
AP-22408

$$$$
