
  Mrv1909 12152020022D          

 33 35  0  0  0  0            999 V2000
    0.7145   -0.4125    0.0000 C   0  0  0  0  0  0  0  0  0  0  0  0
    0.7145   -1.2375    0.0000 C   0  0  0  0  0  0  0  0  0  0  0  0
    1.3819   -1.7224    0.0000 C   0  0  0  0  0  0  0  0  0  0  0  0
    2.1665   -1.4675    0.0000 C   0  0  0  0  0  0  0  0  0  0  0  0
    2.3381   -0.6605    0.0000 S   0  0  0  0  0  0  0  0  0  0  0  0
    3.1227   -0.4056    0.0000 C   0  0  0  0  0  0  0  0  0  0  0  0
    3.2942    0.4014    0.0000 C   0  0  0  0  0  0  0  0  0  0  0  0
    4.0788    0.6563    0.0000 C   0  0  0  0  0  0  0  0  0  0  0  0
    4.6919    0.1043    0.0000 C   0  0  0  0  0  0  0  0  0  0  0  0
    5.4765    0.3592    0.0000 O   0  0  0  0  0  0  0  0  0  0  0  0
    6.0896   -0.1928    0.0000 C   0  0  0  0  0  0  0  0  0  0  0  0
    6.6417    0.4203    0.0000 C   0  0  0  0  0  0  0  0  0  0  0  0
    5.5376   -0.8059    0.0000 C   0  0  0  0  0  0  0  0  0  0  0  0
    6.7027   -0.7448    0.0000 C   0  0  0  0  0  0  0  0  0  0  0  0
    7.4874   -0.4899    0.0000 O   0  0  0  0  0  0  0  0  0  0  0  0
    6.5312   -1.5518    0.0000 O   0  0  0  0  0  0  0  0  0  0  0  0
    4.5204   -0.7027    0.0000 C   0  0  0  0  0  0  0  0  0  0  0  0
    5.1335   -1.2547    0.0000 C   0  0  0  0  0  0  0  0  0  0  0  0
    3.7358   -0.9576    0.0000 C   0  0  0  0  0  0  0  0  0  0  0  0
    1.1270   -2.5070    0.0000 S   0  0  0  0  0  0  0  0  0  0  0  0
    0.3020   -2.5070    0.0000 C   0  0  0  0  0  0  0  0  0  0  0  0
    0.0470   -1.7224    0.0000 N   0  0  0  0  0  0  0  0  0  0  0  0
   -0.1830   -3.1745    0.0000 C   0  0  0  0  0  0  0  0  0  0  0  0
    0.1526   -3.9282    0.0000 C   0  0  0  0  0  0  0  0  0  0  0  0
   -0.3323   -4.5956    0.0000 C   0  0  0  0  0  0  0  0  0  0  0  0
   -1.1528   -4.5094    0.0000 C   0  0  0  0  0  0  0  0  0  0  0  0
   -1.4884   -3.7557    0.0000 C   0  0  0  0  0  0  0  0  0  0  0  0
   -1.0034   -3.0882    0.0000 C   0  0  0  0  0  0  0  0  0  0  0  0
   -1.3390   -2.3346    0.0000 F   0  0  0  0  0  0  0  0  0  0  0  0
   -1.6377   -5.1768    0.0000 C   0  0  0  0  0  0  0  0  0  0  0  0
   -2.1226   -5.8442    0.0000 F   0  0  0  0  0  0  0  0  0  0  0  0
   -2.3052   -4.6919    0.0000 F   0  0  0  0  0  0  0  0  0  0  0  0
   -0.9703   -5.6617    0.0000 F   0  0  0  0  0  0  0  0  0  0  0  0
  1  2  1  0  0  0  0
  2  3  2  0  0  0  0
  3  4  1  0  0  0  0
  4  5  1  0  0  0  0
  5  6  1  0  0  0  0
  6  7  2  0  0  0  0
  7  8  1  0  0  0  0
  8  9  2  0  0  0  0
  9 10  1  0  0  0  0
 10 11  1  0  0  0  0
 11 12  1  0  0  0  0
 11 13  1  0  0  0  0
 11 14  1  0  0  0  0
 14 15  1  0  0  0  0
 14 16  2  0  0  0  0
  9 17  1  0  0  0  0
 17 18  1  0  0  0  0
 17 19  2  0  0  0  0
  6 19  1  0  0  0  0
  3 20  1  0  0  0  0
 20 21  1  0  0  0  0
 21 22  2  0  0  0  0
  2 22  1  0  0  0  0
 21 23  1  0  0  0  0
 23 24  2  0  0  0  0
 24 25  1  0  0  0  0
 25 26  2  0  0  0  0
 26 27  1  0  0  0  0
 27 28  2  0  0  0  0
 23 28  1  0  0  0  0
 28 29  1  0  0  0  0
 26 30  1  0  0  0  0
 30 31  1  0  0  0  0
 30 32  1  0  0  0  0
 30 33  1  0  0  0  0
M  END
> <DATABASE_ID>
DB16332

> <DATABASE_NAME>
drugbank

> <SMILES>
CC1=C(CSC2=CC=C(OC(C)(C)C(O)=O)C(C)=C2)SC(=N1)C1=CC=C(C=C1F)C(F)(F)F

> <INCHI_IDENTIFIER>
InChI=1S/C23H21F4NO3S2/c1-12-9-15(6-8-18(12)31-22(3,4)21(29)30)32-11-19-13(2)28-20(33-19)16-7-5-14(10-17(16)24)23(25,26)27/h5-10H,11H2,1-4H3,(H,29,30)

> <INCHI_KEY>
ZUGQWAYOWCBWGM-UHFFFAOYSA-N

> <FORMULA>
C23H21F4NO3S2

> <MOLECULAR_WEIGHT>
499.54

> <EXACT_MASS>
499.08989854

> <JCHEM_ACCEPTOR_COUNT>
4

> <JCHEM_ATOM_COUNT>
54

> <JCHEM_AVERAGE_NEUTRAL_MICROSPECIES_CHARGE>
-0.9996197574987435

> <JCHEM_AVERAGE_POLARIZABILITY>
48.91963756029169

> <JCHEM_BIOAVAILABILITY>
1

> <JCHEM_DONOR_COUNT>
1

> <JCHEM_FORMAL_CHARGE>
0

> <JCHEM_GHOSE_FILTER>
0

> <JCHEM_IUPAC>
2-{4-[({2-[2-fluoro-4-(trifluoromethyl)phenyl]-4-methyl-1,3-thiazol-5-yl}methyl)sulfanyl]-2-methylphenoxy}-2-methylpropanoic acid

> <ALOGPS_LOGP>
5.75

> <JCHEM_LOGP>
6.896502739406546

> <ALOGPS_LOGS>
-6.11

> <JCHEM_MDDR_LIKE_RULE>
1

> <JCHEM_NEUTRAL_CHARGE>
-1

> <JCHEM_NUMBER_OF_RINGS>
3

> <JCHEM_PHYSIOLOGICAL_CHARGE>
-1

> <JCHEM_PKA_STRONGEST_ACIDIC>
3.581410782106589

> <JCHEM_PKA_STRONGEST_BASIC>
1.7847770023868756

> <JCHEM_POLAR_SURFACE_AREA>
59.42

> <JCHEM_REFRACTIVITY>
131.3046

> <JCHEM_ROTATABLE_BOND_COUNT>
8

> <JCHEM_RULE_OF_FIVE>
0

> <ALOGPS_SOLUBILITY>
3.91e-04 g/l

> <JCHEM_TRADITIONAL_IUPAC>
8-[(3R)-3-[1-({1-[(E)-{[(7S,9E,11S,12S,13S,14S,15R,16R,17S,18S,19E)-13-(acetyloxy)-2,15,17,27,29-pentahydroxy-11-methoxy-3,7,12,14,16,18,22-heptamethyl-6,23-dioxo-8,30-dioxa-24-azatetracyclo[23.3.1.1^{4,7}.0^{5,28}]triaconta-1(28),2,4,9,19,21,25(29),26-octaen-26-yl]methylidene}amino]piperidin-4-yl}(methyl)amino)cyclopropyl]pyrrolidin-1-yl]-1-cyclopropyl-7-fluoro-9-methyl-4-oxoquinolizine-3-carboxylic acid

> <JCHEM_VEBER_RULE>
0

> <DRUGBANK_ID>
DB16332

> <DRUG_GROUPS>
investigational

> <GENERIC_NAME>
Sodelglitazar

> <SYNONYMS>
Sodelglitazar

$$$$
