
  Mrv1909 02122015162D          

 11 10  0  0  0  0            999 V2000
   -1.4292   -0.0067    0.0000 C   0  0  0  0  0  0  0  0  0  0  0  0
   -0.7145   -0.4193    0.0000 O   0  0  0  0  0  0  0  0  0  0  0  0
   -2.1436   -0.4193    0.0000 C   0  0  0  0  0  0  0  0  0  0  0  0
   -1.4292    0.8183    0.0000 C   0  0  0  0  0  0  0  0  0  0  0  0
    0.0000   -0.0175    0.0000 P   0  0  0  0  0  0  0  0  0  0  0  0
    0.7144   -0.4193    0.0000 O   0  0  0  0  0  0  0  0  0  0  0  0
    0.0000    0.8183    0.0000 O   0  0  0  0  0  0  0  0  0  0  0  0
    1.4291   -0.0067    0.0000 C   0  0  0  0  0  0  0  0  0  0  0  0
    1.4291    0.8183    0.0000 C   0  0  0  0  0  0  0  0  0  0  0  0
    2.1436   -0.4193    0.0000 C   0  0  0  0  0  0  0  0  0  0  0  0
   -0.0135   -0.8183    0.0000 C   0  0  0  0  0  0  0  0  0  0  0  0
  1  2  1  0  0  0  0
  1  3  1  0  0  0  0
  1  4  1  0  0  0  0
  2  5  1  0  0  0  0
  5  6  1  0  0  0  0
  5  7  2  0  0  0  0
  6  8  1  0  0  0  0
  8  9  1  0  0  0  0
  8 10  1  0  0  0  0
  5 11  1  0  0  0  0
M  END
> <DATABASE_ID>
DB02127

> <DATABASE_NAME>
drugbank

> <SMILES>
CC(C)OP(C)(=O)OC(C)C

> <INCHI_IDENTIFIER>
InChI=1S/C7H17O3P/c1-6(2)9-11(5,8)10-7(3)4/h6-7H,1-5H3

> <INCHI_KEY>
WOAFDHWYKSOANX-UHFFFAOYSA-N

> <FORMULA>
C7H17O3P

> <MOLECULAR_WEIGHT>
180.1818

> <EXACT_MASS>
180.091530922

> <JCHEM_ACCEPTOR_COUNT>
1

> <JCHEM_ATOM_COUNT>
28

> <JCHEM_AVERAGE_NEUTRAL_MICROSPECIES_CHARGE>
0.0

> <JCHEM_AVERAGE_POLARIZABILITY>
18.525714363858686

> <JCHEM_BIOAVAILABILITY>
1

> <JCHEM_DONOR_COUNT>
0

> <JCHEM_FORMAL_CHARGE>
0

> <JCHEM_GHOSE_FILTER>
1

> <JCHEM_IUPAC>
bis(propan-2-yl) methylphosphonate

> <ALOGPS_LOGP>
1.02

> <JCHEM_LOGP>
1.4083941233333332

> <ALOGPS_LOGS>
-1.15

> <JCHEM_MDDR_LIKE_RULE>
0

> <JCHEM_NEUTRAL_CHARGE>
0

> <JCHEM_NUMBER_OF_RINGS>
0

> <JCHEM_PHYSIOLOGICAL_CHARGE>
0

> <JCHEM_PKA_STRONGEST_BASIC>
-7.9011352421306835

> <JCHEM_POLAR_SURFACE_AREA>
35.53

> <JCHEM_REFRACTIVITY>
44.477399999999996

> <JCHEM_ROTATABLE_BOND_COUNT>
4

> <JCHEM_RULE_OF_FIVE>
1

> <ALOGPS_SOLUBILITY>
1.28e+01 g/l

> <JCHEM_TRADITIONAL_IUPAC>
hadacidin

> <JCHEM_VEBER_RULE>
1

> <DRUGBANK_ID>
DB02127

> <SECONDARY_ACCESSION_NUMBERS>
EXPT01207

> <DRUG_GROUPS>
experimental

> <GENERIC_NAME>
Diisopropyl methylphosphonate

> <SYNONYMS>
Diisopropyl methanephosphonate; Diisopropyl methylphosphonate; DIMP; Methylphosphonic acid bis(1-methylethyl)ester

$$$$
