
  Mrv1902 04081922432D          

 44 51  0  0  0  0            999 V2000
    0.0236    0.5178    0.0000 Fe  0  0  0  0  0  0  0  0  0  0  0  0
    0.9723    1.2539    0.0000 N   0  0  0  0  0  0  0  0  0  0  0  0
    0.7225    2.0422    0.0000 C   0  0  0  0  0  0  0  0  0  0  0  0
    1.3948    2.5234    0.0000 C   0  0  0  0  0  0  0  0  0  0  0  0
    2.0603    2.0326    0.0000 C   0  0  0  0  0  0  0  0  0  0  0  0
    2.8445    2.2812    0.0000 O   0  0  0  0  0  0  0  0  0  0  0  0
    1.7992    1.2480    0.0000 C   0  0  0  0  0  0  0  0  0  0  0  0
    2.2128    0.5317    0.0000 C   0  0  0  0  0  0  0  0  0  0  0  0
    1.7952   -0.1817    0.0000 C   0  0  0  0  0  0  0  0  0  0  0  0
    0.9723   -0.1790    0.0000 N   0  0  0  0  0  0  0  0  0  0  0  0
    0.7155   -0.9607    0.0000 C   0  0  0  0  0  0  0  0  0  0  0  0
   -0.0057   -1.3755    0.0000 C   0  0  0  0  0  0  0  0  0  0  0  0
   -0.7224   -0.9611    0.0000 C   0  0  0  0  0  0  0  0  0  0  0  0
   -0.9754   -0.1732    0.0000 N   0  0  0  0  0  0  0  0  0  0  0  0
   -1.8029   -0.1706    0.0000 C   0  0  0  0  0  0  0  0  0  0  0  0
   -2.2097    0.5471    0.0000 C   0  0  0  0  0  0  0  0  0  0  0  0
   -1.7984    1.2624    0.0000 C   0  0  0  0  0  0  0  0  0  0  0  0
   -0.9715    1.2564    0.0000 N   0  0  0  0  0  0  0  0  0  0  0  0
   -0.7104    2.0409    0.0000 C   0  0  0  0  0  0  0  0  0  0  0  0
    0.0068    2.4615    0.0000 C   0  0  0  0  0  0  0  0  0  0  0  0
   -1.3758    2.5317    0.0000 C   0  0  0  0  0  0  0  0  0  0  0  0
   -2.0481    2.0504    0.0000 C   0  0  0  0  0  0  0  0  0  0  0  0
   -2.8287    2.3103    0.0000 C   0  0  0  0  0  0  0  0  0  0  0  0
   -1.3700    3.3544    0.0000 C   0  0  0  0  0  0  0  0  0  0  0  0
   -2.0796    3.7707    0.0000 C   0  0  0  0  0  0  0  0  0  0  0  0
   -2.0612   -0.9567    0.0000 C   0  0  0  0  0  0  0  0  0  0  0  0
   -1.3932   -1.4452    0.0000 C   0  0  0  0  0  0  0  0  0  0  0  0
   -1.3960   -2.2679    0.0000 C   0  0  0  0  0  0  0  0  0  0  0  0
   -0.6847   -2.6815    0.0000 C   0  0  0  0  0  0  0  0  0  0  0  0
   -0.6874   -3.5042    0.0000 C   0  0  0  0  0  0  0  0  0  0  0  0
   -1.4012   -3.9133    0.0000 O   0  0  0  0  0  0  0  0  0  0  0  0
    0.0238   -3.9178    0.0000 O   0  0  0  0  0  0  0  0  0  0  0  0
   -2.8445   -1.2083    0.0000 C   0  0  0  0  0  0  0  0  0  0  0  0
    1.3796   -1.4466    0.0000 C   0  0  0  0  0  0  0  0  0  0  0  0
    2.0468   -0.9651    0.0000 C   0  0  0  0  0  0  0  0  0  0  0  0
    2.8284   -1.2220    0.0000 C   0  0  0  0  0  0  0  0  0  0  0  0
    1.3770   -2.2692    0.0000 C   0  0  0  0  0  0  0  0  0  0  0  0
    2.0881   -2.6829    0.0000 C   0  0  0  0  0  0  0  0  0  0  0  0
    2.0854   -3.5056    0.0000 C   0  0  0  0  0  0  0  0  0  0  0  0
    1.3717   -3.9146    0.0000 O   0  0  0  0  0  0  0  0  0  0  0  0
    2.7966   -3.9193    0.0000 O   0  0  0  0  0  0  0  0  0  0  0  0
    0.8486    3.1387    0.0000 C   0  0  0  0  0  0  0  0  0  0  0  0
    1.1084    3.9193    0.0000 C   0  0  0  0  0  0  0  0  0  0  0  0
    1.9496    3.1309    0.0000 C   0  0  0  0  0  0  0  0  0  0  0  0
  1  2  1  0  0  0  0
  1 10  1  0  0  0  0
  1 14  1  0  0  0  0
  1 18  1  0  0  0  0
  2  3  1  0  0  0  0
  2  7  1  0  0  0  0
  3  4  1  0  0  0  0
  3 20  2  0  0  0  0
  4  5  1  0  0  0  0
  4 42  1  0  0  0  0
  4 44  1  0  0  0  0
  5  6  2  0  0  0  0
  5  7  1  0  0  0  0
  7  8  2  0  0  0  0
  8  9  1  0  0  0  0
  9 10  1  0  0  0  0
  9 35  2  0  0  0  0
 10 11  1  0  0  0  0
 11 12  1  0  0  0  0
 11 34  2  0  0  0  0
 12 13  2  0  0  0  0
 13 14  1  0  0  0  0
 13 27  1  0  0  0  0
 14 15  1  0  0  0  0
 15 16  2  0  0  0  0
 15 26  1  0  0  0  0
 16 17  1  0  0  0  0
 17 18  1  0  0  0  0
 17 22  2  0  0  0  0
 18 19  1  0  0  0  0
 19 20  1  0  0  0  0
 19 21  2  0  0  0  0
 21 22  1  0  0  0  0
 21 24  1  0  0  0  0
 22 23  1  0  0  0  0
 24 25  1  0  0  0  0
 26 27  2  0  0  0  0
 26 33  1  0  0  0  0
 27 28  1  0  0  0  0
 28 29  1  0  0  0  0
 29 30  1  0  0  0  0
 30 31  2  0  0  0  0
 30 32  1  0  0  0  0
 34 35  1  0  0  0  0
 34 37  1  0  0  0  0
 35 36  1  0  0  0  0
 37 38  1  0  0  0  0
 38 39  1  0  0  0  0
 39 40  2  0  0  0  0
 39 41  1  0  0  0  0
 42 43  1  0  0  0  0
M  END
> <DATABASE_ID>
DB04384

> <DATABASE_NAME>
drugbank

> <SMILES>
CCC1=C2C=C3N4C(=CC5=C(C)C(CCC(O)=O)=C6C=C7N8C(=CC(N2[Fe]48N56)=C1C)C(C)=C7CCC(O)=O)C(=O)C3(C)CC

> <INCHI_IDENTIFIER>
InChI=1S/C34H39N4O5.Fe/c1-7-20-17(3)23-13-24-18(4)21(9-11-31(39)40)26(35-24)15-27-22(10-12-32(41)42)19(5)25(36-27)14-29-33(43)34(6,8-2)30(38-29)16-28(20)37-23;/h13-16H,7-12H2,1-6H3,(H5-,35,36,37,38,39,40,41,42,43);/q-1;+4/p-3

> <INCHI_KEY>
RPYIPNWUMWMZRW-UHFFFAOYSA-K

> <FORMULA>
C34H36FeN4O5

> <MOLECULAR_WEIGHT>
636.53

> <EXACT_MASS>
636.203506

> <JCHEM_ACCEPTOR_COUNT>
5

> <JCHEM_ATOM_COUNT>
80

> <JCHEM_AVERAGE_POLARIZABILITY>
70.93572128142156

> <JCHEM_BIOAVAILABILITY>
0

> <JCHEM_DONOR_COUNT>
2

> <JCHEM_FORMAL_CHARGE>
0

> <JCHEM_GHOSE_FILTER>
0

> <JCHEM_IUPAC>
3-[20-(2-carboxyethyl)-10,14-diethyl-5,10,15,19-tetramethyl-9-oxo-2,22,23,25-tetraaza-1-ferraoctacyclo[11.9.1.1^{1,8}.1^{3,21}.0^{2,6}.0^{16,23}.0^{18,22}.0^{11,25}]pentacosa-3,5,7,11,13,15,17,19,21(24)-nonaen-4-yl]propanoic acid

> <ALOGPS_LOGP>
4.69

> <JCHEM_LOGP>
6.525000000000002

> <ALOGPS_LOGS>
-3.10

> <JCHEM_MDDR_LIKE_RULE>
1

> <JCHEM_NUMBER_OF_RINGS>
8

> <JCHEM_PHYSIOLOGICAL_CHARGE>
-2

> <JCHEM_PKA>
4.137170497700337

> <JCHEM_PKA_STRONGEST_ACIDIC>
3.5335786061552037

> <JCHEM_PKA_STRONGEST_BASIC>
-8.054615635141378

> <JCHEM_POLAR_SURFACE_AREA>
111.39

> <JCHEM_REFRACTIVITY>
169.97680000000005

> <JCHEM_ROTATABLE_BOND_COUNT>
8

> <JCHEM_RULE_OF_FIVE>
0

> <ALOGPS_SOLUBILITY>
5.03e-01 g/l

> <JCHEM_TRADITIONAL_IUPAC>
6-acetyl-2-({5-[(2-aminoethyl)amino]pyridin-2-yl}amino)-8-cyclopentyl-5-methylpyrido[2,3-d]pyrimidin-7-one

> <JCHEM_VEBER_RULE>
0

> <DRUGBANK_ID>
DB04384

> <SECONDARY_ACCESSION_NUMBERS>
EXPT01749

> <DRUG_GROUPS>
experimental

> <GENERIC_NAME>
Fe-Mesopone

$$$$
