
  Mrv1909 11111921522D          

 24 24  0  0  0  0            999 V2000
    3.5723    0.4125    0.0000 C   0  0  2  0  0  0  0  0  0  0  0  0
    4.2868    0.8250    0.0000 C   0  0  0  0  0  0  0  0  0  0  0  0
    5.0013    0.4125    0.0000 O   0  0  0  0  0  0  0  0  0  0  0  0
    4.2868    1.6500    0.0000 O   0  0  0  0  0  0  0  0  0  0  0  0
    2.8578    0.8250    0.0000 N   0  0  0  0  0  0  0  0  0  0  0  0
    3.5723   -0.4125    0.0000 C   0  0  0  0  0  0  0  0  0  0  0  0
    2.1434    0.4125    0.0000 C   0  0  0  0  0  0  0  0  0  0  0  0
    1.4288    0.8250    0.0000 C   0  0  0  0  0  0  0  0  0  0  0  0
    2.1434   -0.4125    0.0000 O   0  0  0  0  0  0  0  0  0  0  0  0
    0.7144    0.4125    0.0000 C   0  0  0  0  0  0  0  0  0  0  0  0
    0.0000    0.8250    0.0000 C   0  0  0  0  0  0  0  0  0  0  0  0
   -0.7145    0.4125    0.0000 P   0  0  0  0  0  0  0  0  0  0  0  0
   -1.4290    0.8250    0.0000 O   0  0  0  0  0  0  0  0  0  0  0  0
   -2.1435    0.4125    0.0000 C   0  0  0  0  0  0  0  0  0  0  0  0
   -2.8579    0.8250    0.0000 C   0  0  0  0  0  0  0  0  0  0  0  0
   -3.5724    0.4125    0.0000 C   0  0  0  0  0  0  0  0  0  0  0  0
   -3.5724   -0.4126    0.0000 C   0  0  0  0  0  0  0  0  0  0  0  0
   -2.8579   -0.8251    0.0000 C   0  0  0  0  0  0  0  0  0  0  0  0
   -2.1435   -0.4126    0.0000 C   0  0  0  0  0  0  0  0  0  0  0  0
   -0.7145   -0.4125    0.0000 O   0  0  0  0  0  0  0  0  0  0  0  0
   -0.9280    1.2093    0.0000 O   0  0  0  0  0  0  0  0  0  0  0  0
   -4.2870   -0.8250    0.0000 N   0  3  0  0  0  0  0  0  0  0  0  0
   -4.2870   -1.6500    0.0000 O   0  0  0  0  0  0  0  0  0  0  0  0
   -5.0013   -0.4125    0.0000 O   0  5  0  0  0  0  0  0  0  0  0  0
  1  2  1  0  0  0  0
  2  3  1  0  0  0  0
  2  4  2  0  0  0  0
  1  5  1  0  0  0  0
  1  6  1  1  0  0  0
  5  7  1  0  0  0  0
  7  8  1  0  0  0  0
  7  9  2  0  0  0  0
  8 10  1  0  0  0  0
 10 11  1  0  0  0  0
 11 12  1  0  0  0  0
 12 13  1  0  0  0  0
 13 14  1  0  0  0  0
 19 14  2  0  0  0  0
 15 14  1  0  0  0  0
 15 16  2  0  0  0  0
 16 17  1  0  0  0  0
 17 18  2  0  0  0  0
 18 19  1  0  0  0  0
 12 20  2  0  0  0  0
 12 21  1  0  0  0  0
 17 22  1  0  0  0  0
 22 23  2  0  0  0  0
 22 24  1  0  0  0  0
M  CHG  2  22   1  24  -1
M  END
> <DATABASE_ID>
DB08377

> <DATABASE_NAME>
drugbank

> <SMILES>
C[C@@H](NC(=O)CCCP(O)(=O)OC1=CC=C(C=C1)[N+]([O-])=O)C(O)=O

> <INCHI_IDENTIFIER>
InChI=1S/C13H17N2O8P/c1-9(13(17)18)14-12(16)3-2-8-24(21,22)23-11-6-4-10(5-7-11)15(19)20/h4-7,9H,2-3,8H2,1H3,(H,14,16)(H,17,18)(H,21,22)/t9-/m1/s1

> <INCHI_KEY>
KBXXIYHMPQZHCH-SECBINFHSA-N

> <FORMULA>
C13H17N2O8P

> <MOLECULAR_WEIGHT>
360.2564

> <EXACT_MASS>
360.072252042

> <JCHEM_ACCEPTOR_COUNT>
7

> <JCHEM_ATOM_COUNT>
41

> <JCHEM_AVERAGE_POLARIZABILITY>
32.211155529308044

> <JCHEM_BIOAVAILABILITY>
1

> <JCHEM_DONOR_COUNT>
3

> <JCHEM_FORMAL_CHARGE>
0

> <JCHEM_GHOSE_FILTER>
1

> <JCHEM_IUPAC>
(2R)-2-{4-[hydroxy(4-nitrophenoxy)phosphoryl]butanamido}propanoic acid

> <ALOGPS_LOGP>
0.44

> <JCHEM_LOGP>
0.45837908433333385

> <ALOGPS_LOGS>
-3.52

> <JCHEM_MDDR_LIKE_RULE>
0

> <JCHEM_NUMBER_OF_RINGS>
1

> <JCHEM_PHYSIOLOGICAL_CHARGE>
-2

> <JCHEM_PKA>
3.715353103228107

> <JCHEM_PKA_STRONGEST_ACIDIC>
1.8033019084421584

> <JCHEM_PKA_STRONGEST_BASIC>
-1.7620717334515175

> <JCHEM_POLAR_SURFACE_AREA>
156.07000000000002

> <JCHEM_REFRACTIVITY>
80.7186

> <JCHEM_ROTATABLE_BOND_COUNT>
9

> <JCHEM_RULE_OF_FIVE>
1

> <ALOGPS_SOLUBILITY>
1.08e-01 g/l

> <JCHEM_TRADITIONAL_IUPAC>
biib021

> <JCHEM_VEBER_RULE>
0

> <DRUGBANK_ID>
DB08377

> <DRUG_GROUPS>
experimental

> <GENERIC_NAME>
N-[4-(4-nitrophenylphospho)butanoyl]-D-alanine

> <SYNONYMS>
N-[4-(4-nitrophenylphospho)butyryl]-D-alanine; p-nitrophenyl phosphonobutanoyl D-alanine

$$$$
