
  Mrv1652306131722062D          

  9  0  0  0  0  0            999 V2000
    0.0000    0.0000    0.0000 O   0  0  0  0  0  0  0  0  0  0  0  0
    3.3000    0.0000    0.0000 O   0  5  0  0  0  0  0  0  0  0  0  0
    6.6000    0.0000    0.0000 O   0  5  0  0  0  0  0  0  0  0  0  0
    0.0000   -1.6500    0.0000 O   0  5  0  0  0  0  0  0  0  0  0  0
    1.1196   -1.6500    0.0000 O   0  5  0  0  0  0  0  0  0  0  0  0
    2.2393   -1.6500    0.0000 O   0  5  0  0  0  0  0  0  0  0  0  0
    2.4750    0.0000    0.0000 Al  0  1  0  0  0  0  0  0  0  0  0  0
    5.7750    0.0000    0.0000 Al  0  1  0  0  0  0  0  0  0  0  0  0
    0.0000   -3.3000    0.0000 Cl  0  5  0  0  0  0  0  0  0  0  0  0
M  CHG  8   2  -1   3  -1   4  -1   5  -1   6  -1   7   3   8   3   9  -1
M  END
> <DATABASE_ID>
DB11573

> <DATABASE_NAME>
drugbank

> <SMILES>
O.[OH-].[OH-].[OH-].[OH-].[OH-].[Al+3].[Al+3].[Cl-]

> <INCHI_IDENTIFIER>
InChI=1S/2Al.ClH.6H2O/h;;1H;6*1H2/q2*+3;;;;;;;/p-6

> <INCHI_KEY>
ZLVPDILYQLCEJO-UHFFFAOYSA-H

> <FORMULA>
Al2ClH7O6

> <MOLECULAR_WEIGHT>
192.46

> <EXACT_MASS>
191.9561926

> <JCHEM_ACCEPTOR_COUNT>
1

> <JCHEM_ATOM_COUNT>
16

> <JCHEM_AVERAGE_POLARIZABILITY>
1.5082203897359623

> <JCHEM_BIOAVAILABILITY>
1

> <JCHEM_DONOR_COUNT>
1

> <JCHEM_FORMAL_CHARGE>
0

> <JCHEM_GHOSE_FILTER>
0

> <JCHEM_IUPAC>
dialuminium(3+) ion hydrate chloride pentahydroxide

> <ALOGPS_LOGP>
-0.32

> <JCHEM_LOGP>
-0.6519999999999999

> <ALOGPS_LOGS>
0.67

> <JCHEM_MDDR_LIKE_RULE>
0

> <JCHEM_NUMBER_OF_RINGS>
0

> <JCHEM_PHYSIOLOGICAL_CHARGE>
0

> <JCHEM_PKA_STRONGEST_ACIDIC>
15.7

> <JCHEM_PKA_STRONGEST_BASIC>
-1.7999999999999998

> <JCHEM_POLAR_SURFACE_AREA>
25.3

> <JCHEM_REFRACTIVITY>
3.7

> <JCHEM_ROTATABLE_BOND_COUNT>
0

> <JCHEM_RULE_OF_FIVE>
1

> <ALOGPS_SOLUBILITY>
4.51e+02 g/l

> <JCHEM_TRADITIONAL_IUPAC>
dialuminium(3+) ion hydrate chloride pentahydroxide

> <JCHEM_VEBER_RULE>
1

> <DRUGBANK_ID>
DB11573

> <DRUG_GROUPS>
approved

> <GENERIC_NAME>
Aluminum chlorohydrate

> <SYNONYMS>
Alchlordrate; Aluminium chlorohydrate; Aluminum chlorhydrate; Aluminum chlorohydrate; Aluminum chlorohydrate dihydrate; Aluminum hydroxychloride

> <PRODUCTS>
2.25OZ EverDry Ultra Dry Antiperspirant; 2.5OZ EverDry Antiperspirant Invisible; 5 Day; ABOVE WOMEN PERSONALITIES PEACEFUL and FASHION; ARRID Dry Renew; ARRID Dry invigorate; ARRID EXTRA DRY Regular; ARRID EXTRA EXTRA DRY XX Cool Shower; ARRID EXTRA EXTRA DRY XX Morning Clean; ARRID EXTRA EXTRA DRY XX Ultra Clear Ultra Clean; ARRID EXTRA EXTRA DRY XX Ultra Clear Ultra Fresh; ARRID EXTRA EXTRA DRY XX Ultra Fresh; ARRID Ultima Clinical Protection Clean Mist; ARRID XX Roll On Antiperspirant Deodorant Regular; AVENA kinesia ROLL-ON DEODORANT/ANTIPERSPIRANT; AVENA kinesia ROLL-ON DEODORANT/ANTIPERSPIRANT with Oat and Aloe Vera; AVON Pure Cica Shea Anti-Perspirant Roll-On Deodorant; AVON Veilment Natural Spa Jasmine Anti-Perspirant Roll-On Deodorant; Above Dermaclinical Men 72 hours; Above Elements Antibac Shinysilver; Above Men Elements Ocean Invisible; Above Men Sport Energy; Above Women Derma Clinical 72 H; Above Women Personalities Fierce and Savage; Above Women Sport Energy; African Opium; Akileine Vaporisateur Antitranspirant; Aluminum Chlorohydrate; Alyssa Ashley Musk Creme DeS.A. Bille-20; Alyssa Ashley Musk Creme Desodor. A Bille; Ambicious Antiperspirant Deodorant Roll On for Women; Amerfresh Roll-ON Antiperspirant Deodorant; Angel - Caresse D'ange - Deodorant Roll-ON Antiperspirant; Antartic Roll-ON Anti-perspirant; Anti-Perspirant Deodorant; Anti-Perspirant Deodorant Roll-On Unscented; Anti-perspirant Anti Sudorifique; Anti-perspirant Roll-ON Deod; Antiperspirant; Antiperspirant Cedarwood; Antiperspirant Deodorant; Antiperspirant Deodorant Extra Dry Men; Antiperspirant Deodorant Extra Dry Women; Antiperspirant Deodorant Fresh Women; Antiperspirant Deodorant Powder Fresh Women; Antiperspirant Deodorant Roll-On Jafra le moire; Antiperspirant Deodorant Roll-on Jafra Daily; Antiperspirant Dry 1.6 oz Lady Antiperspirant; Antiperspirant Dry 1.6 oz Men Antiperspirant; Antiperspirant Dry 2 oz Lady; Antiperspirant Dry 2 oz Men; Antiperspirant Roll On 22%; Antiperspirant Sandalwood; Antiperspirant Wipe for Women; Antiperspirant-deodorant Roll-ON; Antiperspirant/antisudorifique 17.5%; AprilFresh Roll-On Anti-Perspirant Deoderant; Aquax Deo; Aramis 24 Hour High Performance Antiperspirant Spray; Arrid Cream; Arrid Ext Dry Baby Fresh Scent Aer 10%; Arrid Ext Dry Men Light Scent Spray Aer 12.5%; Arrid Ext Dry Unscent Spray Aer 10%; Arrid Ext Dry for Men Reg Scent Aer 12.5%; Arrid Extra Dry Aerosol - 10%; Arrid Extra Dry Baby Fresh Roll-ON Lot 20%; Arrid Extra Dry Reg Spray 10%; Arrid Extra Dry Regular Scent Roll-ON Lot 20%; Arrid Extra Dry Solid Scented 2 Stk 30%; Arrid Extra Dry Unscented Roll-ON Lot 20%; Arrid Extra Dry for Men Aerosol; Arrid Extra Extra Dry - Cool Shower; Arrid Extra Extra Dry Regular Solid; Arrid Extra Extra Dry Sport; Arrid Extra Extra Dry Ultra Fresh; Arrid Extra Extra Dry Unscented Solid; Arrid Extra Extra Dry Xx; Arrid Xx Extra-extra Dry Spray 12.5%; Arrid Xx Sport Spray; Arrid Xx Spray Aerosol; Arrid Xx Spray Fresh Scent -aer 12.5; Arrid Xx Ultra Clear Spray; Aruba Aloe Deodorant Ladies Extra Dry; Aruba Aloe Deodorant Men Extra Dry; Aruba Aloe Deodorant Men Musk; Aruba Aloe Deodorant Women Powder Fresh; Avon Cool Confidence Roll On Liq 17.5%; Avon Cool Confidence Solid Stk 25%; Avon On Duty 24 Plus; Avon On Duty 24 Plus Solid Antipersp Stk 25%; Avon Roll On Antipers Deod Serenad Lot 17.5%; Avon Roll On Antipersp Deod; Avon Roll On Antipersp Deod Destiny 17.5%; Avon Roll On Antiperspirant Deodorant Feelin' Fresh Citrus Cool Lemon; Avon Roll On Antiperspirant Deodorant Vanilla Soft Musk; Avon Roll-ON Antipers. Deod.-contrast 17.5%; Avon Roll-ON Antipers. Deod.-expression17.5%; Avon Roll-ON Antipers. Deod.-lahana 17.5%; Avon Roll-ON Antiperspirant Deodorant; Avon Roll-ON Antiperspirant Deodorant Feelin' Fresh Citrus Cool Grapefruit; Avon Roll-ON Antiperspirant Deodorant Feelin' Fresh Powder Breeze Scent; Avon Roll-ON Antiperspirant Deodorant Maxx; Avon Roll-ON Antiperspirant Deodorant Skin So Soft, Soft and Sensual; Avon Roll-ON Lot Inseparable for Her 17.5%; Avon Roll-ON Lot Inseparable for Him 17.5%; Avon Skin So Soft Roll-ON Antiperspirant Deodorant; Axe; Axe Adrenaline Antiperspirant; Axe Air Antiperspirant; Axe Forest Antiperspirant; Axe Island Antiperspirant; Axe Night Antiperspirant; Axe Signature Air Antiperspirant; Axe Signature Forest Antiperspirant; Axe Signature Gold Dry Antiperspirant; Axe Signature Island Antiperspirant; Axe Signature Night Antiperspirant; Axe Urban Antiperspirant; Ban Beautifully Smooth Roll-ON; Ban Classic Antiperspirant Roll-ON; Ban Purely Gentle Roll-On Antiperspirant Deodorant Unscented; Ban Roll-On Antiperspirant Deodorant Fresh Cotton; Ban Roll-On Antiperspirant Deodorant Powder Fresh; Ban Roll-On Antiperspirant Deodorant Regular; Ban Roll-On Antiperspirant Deodorant Satin Breeze; Ban Roll-On Antiperspirant Deodorant Simple Clean; Ban Roll-On Antiperspirant Deodorant Unscented; Ban Ultra Antiperspirant Roll-ON; Be Dazzle; Bebak Ayak Deodorant; Black Leather; Black Suede Essential Roll-on Anti-perspirant Deodorant; Black Suede Roll-On Anti-Perspirant Deodorant; Blue Leather; Body Series Deodorant and Antiperspirant Roll-On Regular Scent; Body Series Deodorant/antiperspirant Pump - 15%; Bright Diamond; Brown Leather; Brut Anti-perspirant Aerosol 9.2%; Brut Anti-perspirant and Deodorant Original Fragrance; Brut Classic Anti-perspirant and Deodorant Original Fragrance; CLARINS - ROLL-ON DEODORANT Aluminum Chlorohydrate - Antiperspirant, long-lasting, Alcohol-free; CLARINS Roll-On Deodorant Anti-perspirant; CLARINSMEN Antiperspirant ALL DAY DRY ALCOHOL-FREE; CLARISSE Antiperspirant Deodorant Daily Protection; Candid Roll-On Anti-Perspirant Deodorant; Certain Dri; Chantilly Creme Desodorisante A Bille; Charm-Tex ANTIPERSPIRANT ROLL-ON DEODORANT; Charm-Tex Deodorant; Clarins Men-antiperspirant Deo Stick Sans Alcool; Clarisse Antiperspirant Deodoranrt; Clarisse Antiperspirant Deodoranrt Cherry Blossom; Clinique Antiperspirant Deodorant Roll-ON; Cool Confidence Baby Powder Scent Roll-On Anti-Perspirant Deodorant; Cool Confidence Original Scent Roll-On Anti-Perspirant Deodorant; Cool Foot; Cuba Original Ladies Roll On Antiperspirant Deodorant; Cuba Original Mens Roll On Antiperspirant Deodorant; DRYSES Antiperspirant 100ml; DRYSES Deodorant for men Roll-on 75ml; DawMist Antiperspirant Deodorant; DawnMist Antiperspirant Deodorant; DawnMist Antiperspirant and Deodorant; DawnMist Clean Fresh Scent Roll-On Antiperspirant Deodorant; DawnMist Unscented Roll-On Antiperspirant Deodorant; Dead Down Wind ScentPrevent Antiperspirant; Dead down wind Scent Prevent Antiperspirant; Degree; Degree Adventure Antiperspirant; Degree Aerosol Antiperspirant; Degree Aerosol Antiperspirant 10%; Degree Body Heat Activated Antiperspirant (aerosol); Degree Body Responsive Shower Clean Antiperspirant; Degree Everest Antiperspirant; Degree Extreme Antiperspirant; Degree For Men Motionsense Active Shield Antiperspirant; Degree For Men Motionsense Cool Rush Antiperspirant; Degree Fresh Energy Antiperspirant; Degree Men Black and White Dry Antiperspirant; Degree Men MotionSense Stress Control Dry Antiperspirant; Degree Men MotionSense Ultraclear Black and White Driftwood 48H Antiperspirant; Degree Men MotionSense Ultraclear Black and White Fresh Dry Antiperspirant; Degree Men MotionSense Ultraclear Black and White Ocean Air 48H Antiperspirant; Degree Men Motionsense Overtime 48H Antiperspirant; Degree Men Motionsense Sport Defense 48H Antiperspirant; Degree Men Sport 48H Antiperspirant; Degree Men Sport Antiperspirant; Degree MotionSense Stress Control Dry Antiperspirant; Degree MotionSense Ultraclear Black and White Dry Antiperspirant; Degree MotionSense Ultraclear Black and White Pure Clean Dry Antiperspirant; Degree MotionSense Ultraclear Black and White Pure Rain 48H Antiperspirant; Degree MotionSense Ultraclear Black and White Tropical Touch 48H Antiperspirant; Degree Motionsense Daisy Fresh Antiperspirant; Degree Overtime Antiperspirant; Degree Peach Burst Antiperspirant; Degree Sexy Intrigue Antiperspirant; Degree Sheer Powder Antiperspirant; Degree Shower Clean Aerosol Antiperspirant and Deodorant; Degree Shower Clean Antiperspirant; Degree Shower Clean Antiperspirant Deodorant; Degree Sport Aerosol Antiperspirant and Deodorant; Degree Sport Antiperspirant and Deodorant; Degree Sport Defense Antiperspirant; Degree for Women Motionsense Active Shield Antiperspirant; Deo Douceur Creme Anti-transpirante; Deo Douceur Roll-ON Anti-transpirant; DeoDry Antiperspirant; Deodorant Antiperspirant Sprays; Deodorant Antisudorifique; Deodorant Dermo Tolerance - Bille-15 .5%; Deodorant Dermo Tolerance - Stick - Stk 15%; Deodorant Douceur; Desodorante ANTIPERSPIRANT; Deter Anti-perspirant/deod Spray 9.9%; Deter Double Active Antipersp 25%; Dial Antipersp Deod 13.4%; Dove; Dove Beauty Finish Antiperspirant; Dove Bloom 24h Invisible Solid Antiperspirant Deodorant; Dove Caring Coconut Dry Antiperspirant; Dove Clear Tone Skin Renew Antiperspirant; Dove Cool Essentials Antiperspirant; Dove Fresh 24h Invisible Solid Antiperspirant Deodorant; Dove Invisible Clear Finish Dry Antiperspirant; Dove Invisible Sheer Fresh Dry Antiperspirant; Dove Men plus Care Clean Comfort Antiperspirant; Dove Men plus Care Cool Fresh Antiperspirant; Dove Men plus Care Cool Silver Antiperspirant; Dove Men plus Care Extra Fresh Antiperspirant; Dove Men plus Care Invisible Dry Antiperspirant; Dove Men plus Care Invisible Fresh Dry Antiperspirant; Dove Men plus Care Mineral Powder and Sandalwood Dry Antiperspirant; Dove Men plus Care Minerals and Sage Dry Antiperspirant; Dove Men plus Care Sensitive Shield Antiperspirant; Dove Men plus Care Unscented Antiperspirant; Dove Nourished Beauty Antiperspirant; Dove Original Clean 24h Invisible Solid Antiperspirant Deodorant; Dove Original Clean Antiperspirant; Dove Powder 24h Invisible Solid AntiPerspirant Deodorant; Dove Powder 24h Invisible Solid Antiperspirant Deodorant; Dove Powder Soft Dry Antiperspirant; Dove Revive Antiperspirant; Dove Roll-ON Antiperspirant; Dove Sensitive 24h Invisible Solid Antiperspirant Deodorant; Dove Sensitive Antiperspirant; Dove Soothing Chamomile Antiperspirant; Dryses Antiperspirant Solution; Dryses Deoderant for men, Roll-on; EVOKE Antiperspirant Deodorant; EVOKE Antiperspirant and Deodorant Roll-on; Eoux Deodorant; Equate Cucumber Antiperspirant; Equate cool mist Antiperspirant; Essence Skin-saving Antiperspirant; Fahrenheit Deodorant Antiperspirant; Family Dollar Roll-On Deodorant; Far Away Dreams Roll-On Antiperspirant Deoderant; Far Away Roll-On Anti-Perspirant Deodorant; Feelin Fresh Original Roll-On Anti-Perspirant Deodorant; Foot Saver; Fresh Sugar Roll-On Deodorant Antiperspirant; Fresh Sugar Roll-on Deodorant; Freshscent Anti-Perspirant Deodorant; Future Time; G and H Protect Deodorant and Antiperspirant Roll On; GeriGentle Aloe Dry Anti Perspirant Deodorant Body; GeriGentle Aloe Dry Anti Perspirant Deodorant Roll On; Gillette Arctic Ice Invisible; Gillette Clear Shield Cool Wave; Gillette Invisible Cool Wave; Gillette Invisible Power Rush; Gillette Undefeated Invisible; Green Leather; Grounds Keeper Antiperspirant Sea and Amber fragrance; Grounds Keeper Antiperspirant Wipes Bergamot and White Musk; HCS Roll-On Antiperspirant; Haiku Roll-On Anti-Perspirant Deodorant; Hand Saver; Hi and Dri Antiperspirant Roll-ON Powder Fresh; Hi and Dri Antiperspirant Roll-On Unscented; Hi and Dri Roll On; IMARI Mystique Roll-On Anti-Perspirant Deodorant; INVISIBLE SOLID ANTI-PERSPIRANT and DEODORANT; Imari Blossom Roll-on Anti-perspirant Deodorant; Imari Roll-On Anti-Perspirant Deodorant; Imari Seduction Roll-On Anti-Perspirant Deoderant; Invisible Solid Anti-perspirant and Deodorant; Invisible Solid Xtreme Anti-Perspirant Deodorant; Invisible Splash Hair Minimizing Roll-On Antiperspirant; Ironman Glory Roll-On Anti-Perspirant Deodorant; Jafra Daily Antiperspirant Deodorant Roll-on; Jafra Daily Antiperspirant Rollon; Jafra Daily Hair Minimizing Antiperspirant Deodorant Roll-on; Jafra Daily Powder Fresh for Women; Jafra Daily Sensitive Skin Antiperspirant Deodorant Roll-on; Jafra Daily Skin Brightening Antiperspirant Deodorant Roll-on; Jardins Du Monde Antisudorifique A Bille; Jardins du Monde Indian Cotton Flower Antiperspirant Roll-On; Jardins du Monde Laotion Lotus Flower Antiperspirant Roll-On; Jean Nate Roll-ON Antiperspirant; Kiehls CrossTerrain Antiperspirant Deodorant 24 Hour Strong Dry; Kiehls Since 1851 Body Fuel Antiperspirant and Deodorant; Kiehls Since 1851 CrossTerrain Antiperspirant Deodorant 24 hour Strong Dry; Kiehls Since 1851 Superbly Efficient Antiperspirant and Deodorant; LA FRESH Antiperspirant Wipe; Lacovit Deodorant Antiperspirant Original; Lactovit DEO ROLL ON LACTOUREA DEODORANT ANTIPERSPIRANT; Lactovit DEO ROLL-ON LACTOUREA DEODORANT ANTIPERSPIRANT; Lactovit Deodorant Antiperspirant Lactourea; Lactovit Deodorant Antiperspirant Men; Lactovit Deodorant Antiperspirant Original; Lactovit Deodorant Antiperspirant Sensitive; Lactovit Lactourea Deodorant and Antiperspirant; Lactovit Lactourea ROLL-ON DEODORANT ANTIPERSPIRANT; Lactovit Men Deodorant and Antiperspirant; Lactovit Men Roll-On Antiperspirant Deodorant; Lactovit Mens Roll On Antiperspirant Deodorant; Lactovit Mens Roll-On Antiperspirant Deodorant; Lactovit Original Deodorant and Antiperspirant; Lactovit Original Roll-On Antiperspirant Deodorant; Lactovit Sensitive Skin Roll-On Antiperspirant Deodorant; Lactovit Sensitive Skins Deodorant and Antiperspirant; Lady Speed Stick; Lady Speed Stick 24/7 Fresh Fusion; Ladys Choice Invisible Solid Antiperspirant Deodorant Coconut Lime; Ladys Choice Invisible Solid Antiperspirant Deodorant Cucumber Melon; Ladys Choice Invisible Solid Antiperspirant Deodorant Powder Fresh; Ladys Choice Invisible Solid Antiperspirant Deodorant Shower Fresh; Lbel Dry Effect 48; Lemon Ginger Tea Deodorant; Lucky Antiperspirant Deodorant Extreme Energy; Lucky Antiperspirant Deodorant Fresh Comfort; Lucky Antiperspirant Deodorant Spring Fresh; Lutece Creme Desodorisante A Bile 20%; Lutece Creme Desodorisante A Bille - 20; Medif White Tooth; Medrol Acne Lotion; MegaFresh Antiperspirant Roll-on Deodorant; MegaFresh Clear Gel Antiperspirant Deodorant; Mesmerize for Men Roll-On Anti-Perspirant Deodorant; Mitchum Advance Control; Mitchum Advance Control Powder Fresh; Mitchum Advance Control Pure Fresh; Mitchum Advance Control Sport; Mitchum Anti Perspirant Crm Scented; Mitchum Antipersp Crm Unscented; Monsieur Musk Creme Desodorisante A Bille; Mum Chamomile; Musk Fire Roll-On Anti-Perspirant Deodorant; Musk Marine Roll-On Anti-Perspirant Deodorant; Musk Wood Roll-on Anti-perspirant Deodorant; Naturally Dry Natural; Naturally Dry Unscented; Naturals Cucumber Melon Anti-perspirant Deoderant; Naturals Lavender Chamomile Anti-perspirant Deodorant; Naturals Vanilla Anti-Perspirant Deodorant; Neat Feat Roll-ON Antipersp.-deod.for Feet; Neo-medrol Acne Lotion; New Brand Perfumes Ladies Roll On Antiperspirant Deodorant; New Brand Perfumes Mens Roll On Antiperspirant Deodorant; Nieva Satin; Night Magic Roll-On Anti-Perspirant Deodorant; Nuvel Devotion Roll-on Antiperspirant Deodorant; Nuvel Instinct Roll-on Antiperspirant Deodorant; Nuvel Softy Antiperspirant Deodorant Stick; Nuvel Softy Roll-on Antiperspirant Deodorant; Nuvel Tropic Antiperspirant Deodorant Stick; Nuvel Tropic Roll-on Antiperspirant Deodorant; OBAO Soft Freshness; Obao Active; Obao Bamboo Breeze; Obao Cool Metal; Obao Floral Freshness; Obao Frescura Floral; Obao Frescura Intensa; Obao Frescura Suave; Obao Men Active; Obao Men Audaz; Obao Piel Delicada; Obao Sensitive Passion; Obao Soft Freshness; Odorono Antiperspirant and Deodorant Roll-on Original; Odorono Antiperspirant and Deodorant Roll-on Powder; Odyssey Roll-On Anti-Perspirant Deodorant; Okay Mens Antiperspirant RollOn Deodorant; Okay Womens Antiperspirant Roll on Deodorant; Old Spice Aqua Reef Dry Antiperspirant; Old Spice Captain Invisible; Old Spice Fiji Invisible; Old Spice High Endurance Antiperspirant; Old Spice High Endurance Pure Sport; Old Spice Invisible Bearglove; Old Spice Invisible Pure Sport; Old Spice Invisible Swagger; Old Spice On-The-Go No Melt Clean Scent; Old Spice Sweat Defense Knockout Dry; Old Spice Sweat Defense Pure Sport Plus Dry; Old Spice Sweat Defense Stronger Swagger Dry; Old Spice Sweat Defense Ultimate Captain Dry; Old Spice Wolfthorn Invisible; On Duty Original Roll-On Anti-Perspirant Deodorant; On Duty Sport Roll-On Anti-Perspirant Deodorant; On Duty Unscented Roll-On Anti-Perspirant Deodorant; On-the-go Underarm Antiperspirant Wipes; OraLine-Secure CLEAR ANTIPERSPIRANT/DEODORANT; Orange Leather; PINK Satin LACE; Passion and Beyond Deep Moisture Anti-Perspirant Roll-On Deodorant; Passion and Beyond Verbena Anti-Perspirant Roll-On Deodorant; Pastel Antiperspirant Deodorant Roll-On Jafra; Personal CARE FOR MEN Quick Dry Antiperspirant; Personal CARE Quick Dry Antiperspirant; Personal Care Quick Dry Antiperspirant; Pour L'homme: Antisudorifique À Bille; Precious Antiperspirant Deodorant Roll On for Women; Precious Gems; Presidential Leather; Purple Leather; Rare Diamonds Roll-On Anti-Perspirant Deodorant; Rare Gold Roll-On Anti-Perspirant Deodorant; Rare Pearls Roll-On Anti-Perspirant Deodorant; Red Leather; Red Rose; Right Guard Aerosol Antiperspirant; Right Guard Antiperspirant Aerosol; Right Guard Sport Antiperspirant Aerosol; Right Guard Sport Fresh Antiperspirant; Right Guard Sport Scented Antiperspirant; Roll On Anti Perspirant Alcohol Free; Roll On Anti-Perspirant (Alcohol Free); Roll On Anti-Perspirant Deodorant; Roll-ON Anti-perspirant Deodorant; Roll-ON Deodorant Antipersp; Roll-ON Deodorant Multi-soin Anti-perspirant; Roll-On Antiperspirant; Roll-On Antiperspirant Deodorant - Scented; Roll-on Antiperspirant for Men; Roll-on Antiperspirant for Women; SOFT and DRI Clinical Everfresh Blossom; SOFT and DRI Soft Scent; STEFANO Black; STEFANO Fire; STEFANO New Variant; Secret AP Roll On Deo Powder Fresh; Secret Active Cool Invisible; Secret Active Fresh Invisible; Secret Active Sport Invisible; Secret Antiperspirant Powder Fresh; Secret Antiperspirant Sheer Clean; Secret Antiperspirant Spring Breeze; Secret Clean Antipersp Aer 12%; Secret Dry Fresh Linen; Secret Dry Lavender; Secret Dry Light Essentials; Secret Dry Rose; Secret Dry Waterlily; Secret Invisible Boho Berry; Secret Invisible Calm Birch Water; Secret Invisible Cool Waterlily; Secret Invisible Glam Grapefruit; Secret Invisible Luxe Lavender; Secret Invisible Summer Berry; Secret Outlast Completely Clean Dry; Secret Outlast Dry Argan Oil; Secret Outlast Protecting Dry; Secret Paris Rose Invisible; Secret Roll-On Powder Fresh; Secret Spring Breeze Scent Antipersp Roll-ON; Secret Weightless Dry Nurturing Coconut plus Argan Oil; Sensitive Skin antiperspirant deodorant roll-on Jafra Daily; Sexy Tasha; Shafali Fleur Rare Roll-ON Anti-perspirant; Shaklee Essentials Desert Wind Roll-On Antiperspirant; Silky Smooth Anti-Perspirant Deodorant; Silky Smooth Anti-Perspirant Deodorant Invisible Solid; Silver Leather; Skin So Soft Ultra Even Roll-On Anti-Perspirant Deodorant; Skin brightening antiperspirant deodorant roll-on Jafra Daily; Soft & Dri Antiperspirant Aerosol; Soft & Dri Antiperspirant Aerosol (baby Powder); Soft & Dri Antiperspirant Aerosol (soft Scent); Soft and Dri Aerosol Antiperspirant; Soft and Dri Cool and Clean; Soft and Dri Soft Scent; Solid anti perspirant; Spai-sons Floop C; Spai-sons Floop R; Speed Stick 24/7 Fresh Rush; Sport Deodorant Extra Antiperspirant; Stay Dry Deodorant Roll On; Stefano Fire; Stefano Gladius Roll-on; Stefano Midnight; Stefano Royal; Stefano Spazio; Stefano Stick; Stick Deodorant Multi-soin Anti-perspirant; Suave; Suave 24 Hour Fresh Antiperspirant; Suave 24 Hour Powder Antiperspirant; Suave Almond Verbena Antiperspirant Deodorant; Suave Cocoa Butter Antiperspirant and Deodorant; Suave Coconut Kiss Antiperspirant Deodorant; Suave Everlasting Sunshine; Suave Everlasting Sunshine Antiperspirant and Deodorant; Suave Fresh Aerosol Antiperspirant and Deodorant; Suave Fresh Antiperspirant Deodorant; Suave Fresh Antiperspirant and Deodorant; Suave Ocean Breeze Antiperspirant and Deodorant; Suave Pacific Breeze Antiperspirant and Deodorant; Suave Powder 24 Hour Protection Roll-On AntiPerspirant Deodorant; Suave Powder Aerosol Antiperspirant and Deodorant; Suave Powder Antiperspirant and Deodorant; Suave Powder Roll On Antiperspirant and Deodorant; Suave Sweet Pea and Violet Antiperspirant and Deodorant; Suave Tropical Paradise Antiperspirant and Deodorant; Suave Wild Cherry Blossom; Sure Antiperspirant Deodorant Fresh; Sure Antiperspirant Deodorant Regular; Sure Antiperspirant Deodorant Unscented; Sweet Honesty Roll-On Anti-Perspirant Deodorant; Sweet Ones; Tabac Original Antiperspirant; Thierry Mugler Womanity Antiperspirant Roll-On Deodorant; Timeless Roll-On Anti-Perspirant Deodorant; Toms Naturally Dry Antiperspirant Deodorant - Fresh Meadow wetness protection; Toms Naturally Dry Antiperspirant Deodorant - Northwoods wetness protection; Toms of Maine Antiperspirant Deodorant - Coconut Lavender Wetness Protection; Toms of Maine Antiperspirant Deodorant Coconut Lavender Wetness Protection; Toms of Maine Coconut Lavender Antiperspirant / Deodorant; Toms of Maine Coconut Lavender Antiperspriant / Deodorant; Toms of Maine Mens Antiperspirant Deodorant - Mountain Spring Wetness Protection; Toms of Maine Natural Powder Antiperspirant / Deodorant; Toms of Maine Vanilla Antiperspirant / Deodorant; Toms of Maine for Men Charcoal Antiperspirant / Deodorant; Toms of Maine for Men Mountain Spring Antiperspirant / Deodorant; Toms of Maine for Men Mountain Spring Antiperspirant Deodorant; Toms of Maine for Men North Woods Antiperspirant Deodorant; Toms of Maine for Men North Woods Antiperspriant Deodorant; Toms of Maine for Women Charcoal Antiperspirant / Deodorant; Total Comfort Cool Blast; Total Comfort Fresh Blast; True Force Roll-On Antiperspirant Deoderant; Tussy Antiperspirant and Deodorant Invisible Original Fresh Spice; Tussy Antiperspirant and Deodorant Original Fresh Spice; ULTRA MAX Dry CONFIDENCE; ULTRA MAX Dry PEAK PERFORMANCE; UNTRA DRY ANTI-PERSPIRANT and DEODORANT -COOL BLAST; Ultra Dry Anti-perspirant and Deodorant Cool Blast; Ultra Max Dry Confidence; Ultra Max Dry Peak Performance; Ultra dry antiperspirant; UltraMax Invisible Solid - Active Sport Antiperspirant Deodorant Active Sport; UltraMax Invisible Solid - Cool Blast Antiperspirant Deodorant Cool Blast; UltraMax Invisible Solid - Fresh Antiperspirant Deodorant Fresh; UltraMax Invisible Solid - Powder Fresh Antiperspirant Deodorant Powder Fresh; UltraMax Invisible Solid - Unscented Antiperspirant Deodorant Unscented; United Spirit of America Anti Perspirant Deodorant; Veilment Natural Spa Black Rose Anti-Perspirant Roll-On Deodorant; Venture Antiperspirant Deodorant (Fragrance); Venture Antiperspirant Deodorant (unscented); Vesen Antiperpirant Deodorant Roll-On JAFRA; Watkins Roll On Deodorant; Wild Country Roll-On Anti-Perspirant Deodorant; XtraCare Dry Fresh Invisible Solid; XtraCare Invisible Solid Lady Stick Powder Fresh; Xtreme Stick Anti-Perspirant and Deodorant; Youth Dew Roll On Antipersp Deod Lot; Youth Dew Roll-ON Antiperspirant Deodorant; Youth-dew Roll-ON Antiperspirant Deodorant; Zermat Invisible Splash Roll-On Antiperspirant Deodorant; Zermat Kiwi with Fragrance; Zermat Xtreme Roll-On Antiperspirant Deodorant; antiperspirant Invisible Powder Fresh; eau d amour Antiperspirant Deodorant Roll On for Women; eau damour Antiperspirant Deodorant RollOn for Women; esika MEN Control Fresh Deodorant and Antiperspirant; esika total sec DELICATE SKIN Alcohol Free Womens Deodorant and Antiperspirant - All day protection; esika total sec NEUTRAL FRAGRANCE Alcohol Free Unisex Deodorant and Antiperspirant - All day protection; hair minimizing antiperspirant deodorant roll-on Jafra Daily; zermat Antiperspirant Deodorant Roll-on for Men; zermat Antiperspirant Deodorant Roll-on for Women; zermat Kiwi ANTIPERSPIRANT DEODORANT ROLL-ON SENSITIVE SKIN; zermat body breeze Roll-On Antiperspirant

$$$$
