
  Mrv1718007121813032D          

  1  0  0  0  0  0            999 V2000
    0.0000    0.0000    0.0000 Ag  0  3  0  0  0  0  0  0  0  0  0  0
M  CHG  1   1   1
M  END
> <DATABASE_ID>
DB14521

> <DATABASE_NAME>
drugbank

> <SMILES>
[Ag+]

> <INCHI_IDENTIFIER>
InChI=1S/Ag/q+1

> <INCHI_KEY>
FOIXSVOLVBLSDH-UHFFFAOYSA-N

> <FORMULA>
Ag

> <MOLECULAR_WEIGHT>
107.8682

> <EXACT_MASS>
106.90509302

> <JCHEM_ACCEPTOR_COUNT>
0

> <JCHEM_ATOM_COUNT>
1

> <JCHEM_AVERAGE_POLARIZABILITY>
1.7784

> <JCHEM_BIOAVAILABILITY>
1

> <JCHEM_DONOR_COUNT>
0

> <JCHEM_FORMAL_CHARGE>
1

> <JCHEM_GHOSE_FILTER>
0

> <JCHEM_IUPAC>
silver(1+) ion

> <JCHEM_LOGP>
-0.73

> <JCHEM_MDDR_LIKE_RULE>
0

> <JCHEM_NUMBER_OF_RINGS>
0

> <JCHEM_PHYSIOLOGICAL_CHARGE>
1

> <JCHEM_PKA>
3.55

> <JCHEM_PKA_STRONGEST_ACIDIC>
3.09

> <JCHEM_POLAR_SURFACE_AREA>
0.0

> <JCHEM_REFRACTIVITY>
0.0

> <JCHEM_ROTATABLE_BOND_COUNT>
0

> <JCHEM_RULE_OF_FIVE>
1

> <JCHEM_TRADITIONAL_IUPAC>
silver(1+) ion

> <JCHEM_VEBER_RULE>
1

> <DRUGBANK_ID>
DB14521

> <DRUG_GROUPS>
experimental

> <GENERIC_NAME>
Silver cation

> <SYNONYMS>
Silver, ion (Ag1+)

> <PRODUCTS>
75% Alcohol Disinfectant; Ancos Silver Ion Antibacterial; Ancos Silver Ion Hand Sanitizer; Anti-bacterial Slime; Antibacterial hand washing gel; Hand Sanitizer; Lovefun and Duozi Anti-Bacterial Instant hand sanitizer; Nano Silver Antibacterial Disinfectant; Nano Silver Cleanser Hand Sanitizer; Nanover; RUNYI MIAOJIE Hand sanitizer; Silver Ion Antibacterial Gel; Silver ion antibacterial; Silver ion disinfectant NANO SILVER ANTI-BAC

$$$$
