
  Mrv1909 01072022102D          

 54 57  0  0  0  0            999 V2000
    2.0882    6.0134    0.0000 S   0  0  0  0  0  0  0  0  0  0  0  0
   -0.6592   -6.0134    0.0000 S   0  0  0  0  0  0  0  0  0  0  0  0
    1.7861    1.0312    0.0000 O   0  0  0  0  0  0  0  0  0  0  0  0
   -0.3572   -1.0312    0.0000 O   0  0  0  0  0  0  0  0  0  0  0  0
    1.0717   -1.0312    0.0000 O   0  0  0  0  0  0  0  0  0  0  0  0
    0.3572    1.0312    0.0000 O   0  0  0  0  0  0  0  0  0  0  0  0
    3.2151    0.2062    0.0000 O   0  0  0  0  0  0  0  0  0  0  0  0
   -1.0717    1.0312    0.0000 O   0  0  0  0  0  0  0  0  0  0  0  0
    2.5007   -2.6813    0.0000 O   0  0  0  0  0  0  0  0  0  0  0  0
   -3.2152   -1.0312    0.0000 O   0  0  0  0  0  0  0  0  0  0  0  0
    2.5007   -1.0312    0.0000 N   0  0  0  0  0  0  0  0  0  0  0  0
   -1.7862   -0.2062    0.0000 N   0  0  0  0  0  0  0  0  0  0  0  0
    3.9296   -2.6813    0.0000 N   0  0  0  0  0  0  0  0  0  0  0  0
   -3.9297    0.2062    0.0000 N   0  0  0  0  0  0  0  0  0  0  0  0
    1.0717   -0.2062    0.0000 C   0  0  2  0  0  0  0  0  0  0  0  0
    0.3572    0.2062    0.0000 C   0  0  2  0  0  0  0  0  0  0  0  0
    1.7861    0.2062    0.0000 C   0  0  2  0  0  0  0  0  0  0  0  0
   -0.3572   -0.2062    0.0000 C   0  0  2  0  0  0  0  0  0  0  0  0
    3.2151   -1.4437    0.0000 C   0  0  1  0  0  0  0  0  0  0  0  0
   -2.5007    0.2062    0.0000 C   0  0  1  0  0  0  0  0  0  0  0  0
    3.9296   -1.0312    0.0000 C   0  0  0  0  0  0  0  0  0  0  0  0
   -2.5007    1.0312    0.0000 C   0  0  0  0  0  0  0  0  0  0  0  0
    2.5007   -0.2062    0.0000 C   0  0  0  0  0  0  0  0  0  0  0  0
   -1.0717    0.2062    0.0000 C   0  0  0  0  0  0  0  0  0  0  0  0
    4.6441   -1.4437    0.0000 C   0  0  0  0  0  0  0  0  0  0  0  0
    3.9296   -0.2062    0.0000 C   0  0  0  0  0  0  0  0  0  0  0  0
   -3.2152    1.4437    0.0000 C   0  0  0  0  0  0  0  0  0  0  0  0
   -1.7862    1.4437    0.0000 C   0  0  0  0  0  0  0  0  0  0  0  0
    3.2151   -2.2688    0.0000 C   0  0  0  0  0  0  0  0  0  0  0  0
   -3.2152   -0.2062    0.0000 C   0  0  0  0  0  0  0  0  0  0  0  0
    2.5007    1.4437    0.0000 C   0  0  0  0  0  0  0  0  0  0  0  0
   -1.0717   -1.4437    0.0000 C   0  0  0  0  0  0  0  0  0  0  0  0
    2.5007    2.2688    0.0000 C   0  0  0  0  0  0  0  0  0  0  0  0
   -1.0717   -2.2688    0.0000 C   0  0  0  0  0  0  0  0  0  0  0  0
    3.2151    2.6813    0.0000 C   0  0  0  0  0  0  0  0  0  0  0  0
    1.7861    2.6813    0.0000 C   0  0  0  0  0  0  0  0  0  0  0  0
   -0.3572   -2.6813    0.0000 C   0  0  0  0  0  0  0  0  0  0  0  0
   -1.7862   -2.6813    0.0000 C   0  0  0  0  0  0  0  0  0  0  0  0
    3.9296   -3.5063    0.0000 C   0  0  0  0  0  0  0  0  0  0  0  0
   -4.6442   -0.2062    0.0000 C   0  0  0  0  0  0  0  0  0  0  0  0
    3.2151    3.5063    0.0000 C   0  0  0  0  0  0  0  0  0  0  0  0
    1.7861    3.5063    0.0000 C   0  0  0  0  0  0  0  0  0  0  0  0
   -0.3572   -3.5063    0.0000 C   0  0  0  0  0  0  0  0  0  0  0  0
   -1.7862   -3.5063    0.0000 C   0  0  0  0  0  0  0  0  0  0  0  0
    2.5007    3.9188    0.0000 C   0  0  0  0  0  0  0  0  0  0  0  0
   -1.0717   -3.9188    0.0000 C   0  0  0  0  0  0  0  0  0  0  0  0
    2.5007    4.7438    0.0000 C   0  0  0  0  0  0  0  0  0  0  0  0
   -1.0717   -4.7438    0.0000 C   0  0  0  0  0  0  0  0  0  0  0  0
    3.1681    5.2288    0.0000 C   0  0  0  0  0  0  0  0  0  0  0  0
   -1.7392   -5.2288    0.0000 C   0  0  0  0  0  0  0  0  0  0  0  0
    1.8332    5.2288    0.0000 C   0  0  0  0  0  0  0  0  0  0  0  0
   -0.4043   -5.2288    0.0000 C   0  0  0  0  0  0  0  0  0  0  0  0
    2.9132    6.0134    0.0000 C   0  0  0  0  0  0  0  0  0  0  0  0
   -1.4842   -6.0134    0.0000 C   0  0  0  0  0  0  0  0  0  0  0  0
  1 51  1  0  0  0  0
  1 53  1  0  0  0  0
  2 52  1  0  0  0  0
  2 54  1  0  0  0  0
 17  3  1  1  0  0  0
  3 31  1  0  0  0  0
 18  4  1  1  0  0  0
  4 32  1  0  0  0  0
 15  5  1  6  0  0  0
 16  6  1  6  0  0  0
  7 23  2  0  0  0  0
  8 24  2  0  0  0  0
  9 29  2  0  0  0  0
 10 30  2  0  0  0  0
 19 11  1  1  0  0  0
 11 23  1  0  0  0  0
 20 12  1  6  0  0  0
 12 24  1  0  0  0  0
 13 29  1  0  0  0  0
 13 39  1  0  0  0  0
 14 30  1  0  0  0  0
 14 40  1  0  0  0  0
 15 16  1  0  0  0  0
 15 17  1  0  0  0  0
 16 18  1  0  0  0  0
 17 23  1  0  0  0  0
 18 24  1  0  0  0  0
 19 21  1  0  0  0  0
 19 29  1  0  0  0  0
 20 22  1  0  0  0  0
 20 30  1  0  0  0  0
 21 25  1  0  0  0  0
 21 26  1  0  0  0  0
 22 27  1  0  0  0  0
 22 28  1  0  0  0  0
 31 33  1  0  0  0  0
 32 34  1  0  0  0  0
 33 35  2  0  0  0  0
 33 36  1  0  0  0  0
 34 37  2  0  0  0  0
 34 38  1  0  0  0  0
 35 41  1  0  0  0  0
 36 42  2  0  0  0  0
 37 43  1  0  0  0  0
 38 44  2  0  0  0  0
 41 45  2  0  0  0  0
 42 45  1  0  0  0  0
 43 46  2  0  0  0  0
 44 46  1  0  0  0  0
 45 47  1  0  0  0  0
 46 48  1  0  0  0  0
 47 49  1  0  0  0  0
 47 51  2  0  0  0  0
 48 50  1  0  0  0  0
 48 52  2  0  0  0  0
 49 53  2  0  0  0  0
 50 54  2  0  0  0  0
M  END
> <DATABASE_ID>
DB04547

> <DATABASE_NAME>
drugbank

> <SMILES>
CNC(=O)[C@@H](NC(=O)[C@H](OCC1=CC=C(C=C1)C1=CSC=C1)[C@H](O)[C@@H](O)[C@@H](OCC1=CC=C(C=C1)C1=CSC=C1)C(=O)N[C@@H](C(C)C)C(=O)NC)C(C)C

> <INCHI_IDENTIFIER>
InChI=1S/C40H50N4O8S2/c1-23(2)31(37(47)41-5)43-39(49)35(51-19-25-7-11-27(12-8-25)29-15-17-53-21-29)33(45)34(46)36(40(50)44-32(24(3)4)38(48)42-6)52-20-26-9-13-28(14-10-26)30-16-18-54-22-30/h7-18,21-24,31-36,45-46H,19-20H2,1-6H3,(H,41,47)(H,42,48)(H,43,49)(H,44,50)/t31-,32-,33+,34+,35+,36+/m0/s1

> <INCHI_KEY>
AJZAPEZJWWQJHC-UWNKZCSISA-N

> <FORMULA>
C40H50N4O8S2

> <MOLECULAR_WEIGHT>
778.977

> <EXACT_MASS>
778.307005976

> <JCHEM_ACCEPTOR_COUNT>
8

> <JCHEM_ATOM_COUNT>
104

> <JCHEM_AVERAGE_NEUTRAL_MICROSPECIES_CHARGE>
-4.0076295824929745e-05

> <JCHEM_AVERAGE_POLARIZABILITY>
85.51860574173857

> <JCHEM_BIOAVAILABILITY>
0

> <JCHEM_DONOR_COUNT>
6

> <JCHEM_FORMAL_CHARGE>
0

> <JCHEM_GHOSE_FILTER>
0

> <JCHEM_IUPAC>
(2R,3R,4R,5R)-3,4-dihydroxy-N,N'-bis[(1S)-2-methyl-1-(methylcarbamoyl)propyl]-2,5-bis({[4-(thiophen-3-yl)phenyl]methoxy})hexanediamide

> <ALOGPS_LOGP>
4.33

> <JCHEM_LOGP>
4.036483451333333

> <ALOGPS_LOGS>
-5.96

> <JCHEM_MDDR_LIKE_RULE>
1

> <JCHEM_NEUTRAL_CHARGE>
0

> <JCHEM_NUMBER_OF_RINGS>
4

> <JCHEM_PHYSIOLOGICAL_CHARGE>
0

> <JCHEM_PKA>
12.138488294258615

> <JCHEM_PKA_STRONGEST_ACIDIC>
11.612774798051252

> <JCHEM_PKA_STRONGEST_BASIC>
-3.718345249868633

> <JCHEM_POLAR_SURFACE_AREA>
175.32

> <JCHEM_REFRACTIVITY>
207.37379999999985

> <JCHEM_ROTATABLE_BOND_COUNT>
19

> <JCHEM_RULE_OF_FIVE>
0

> <ALOGPS_SOLUBILITY>
8.48e-04 g/l

> <JCHEM_TRADITIONAL_IUPAC>
(E)-N''-(4-chlorophenyl)-N-hydroxyguanidine

> <JCHEM_VEBER_RULE>
0

> <DRUGBANK_ID>
DB04547

> <SECONDARY_ACCESSION_NUMBERS>
EXPT00662

> <DRUG_GROUPS>
experimental

> <GENERIC_NAME>
Inhibitor BEA409

$$$$
