
  Mrv1652310201623332D          

 44 46  0  0  1  0            999 V2000
    8.6645   -3.4276    0.0000 C   0  0  0  0  0  0  0  0  0  0  0  0
    9.2881   -2.8875    0.0000 C   0  0  0  0  0  0  0  0  0  0  0  0
    9.1322   -2.0774    0.0000 C   0  0  0  0  0  0  0  0  0  0  0  0
   10.0677   -3.1575    0.0000 C   0  0  0  0  0  0  0  0  0  0  0  0
   10.2236   -3.9677    0.0000 N   0  0  0  0  0  0  0  0  0  0  0  0
   11.0031   -4.2377    0.0000 C   0  0  0  0  0  0  0  0  0  0  0  0
   11.6268   -3.6976    0.0000 C   0  0  2  0  0  0  0  0  0  0  0  0
   12.4063   -3.9677    0.0000 C   0  0  2  0  0  0  0  0  0  0  0  0
   12.5622   -4.7778    0.0000 C   0  0  0  0  0  0  0  0  0  0  0  0
   11.9386   -5.3179    0.0000 C   0  0  0  0  0  0  0  0  0  0  0  0
   12.0945   -6.1280    0.0000 C   0  0  0  0  0  0  0  0  0  0  0  0
   11.4709   -6.6681    0.0000 C   0  0  0  0  0  0  0  0  0  0  0  0
   10.6913   -6.3981    0.0000 C   0  0  0  0  0  0  0  0  0  0  0  0
   10.5354   -5.5879    0.0000 C   0  0  0  0  0  0  0  0  0  0  0  0
   11.1590   -5.0479    0.0000 C   0  0  0  0  0  0  0  0  0  0  0  0
   13.0300   -3.4276    0.0000 N   0  0  0  0  0  0  0  0  0  0  0  0
   13.8095   -3.6976    0.0000 C   0  0  0  0  0  0  0  0  0  0  0  0
   13.9654   -4.5078    0.0000 O   0  0  0  0  0  0  0  0  0  0  0  0
   14.4332   -3.1575    0.0000 C   0  0  2  0  0  0  0  0  0  0  0  0
   14.2773   -2.3474    0.0000 C   0  0  0  0  0  0  0  0  0  0  0  0
   13.4977   -2.0774    0.0000 C   0  0  0  0  0  0  0  0  0  0  0  0
   12.8741   -2.6175    0.0000 O   0  0  0  0  0  0  0  0  0  0  0  0
   13.3418   -1.2672    0.0000 N   0  0  0  0  0  0  0  0  0  0  0  0
   15.2127   -3.4276    0.0000 N   0  0  0  0  0  0  0  0  0  0  0  0
   15.8364   -2.8875    0.0000 C   0  0  0  0  0  0  0  0  0  0  0  0
   15.6804   -2.0774    0.0000 O   0  0  0  0  0  0  0  0  0  0  0  0
   16.6159   -3.1575    0.0000 C   0  0  0  0  0  0  0  0  0  0  0  0
   17.2396   -2.6175    0.0000 C   0  0  0  0  0  0  0  0  0  0  0  0
   18.0191   -2.8875    0.0000 C   0  0  0  0  0  0  0  0  0  0  0  0
   18.1750   -3.6976    0.0000 C   0  0  0  0  0  0  0  0  0  0  0  0
   18.9546   -3.9677    0.0000 C   0  0  0  0  0  0  0  0  0  0  0  0
   19.1105   -4.7778    0.0000 C   0  0  0  0  0  0  0  0  0  0  0  0
   18.4868   -5.3179    0.0000 C   0  0  0  0  0  0  0  0  0  0  0  0
   17.7073   -5.0479    0.0000 C   0  0  0  0  0  0  0  0  0  0  0  0
   17.5514   -4.2377    0.0000 C   0  0  0  0  0  0  0  0  0  0  0  0
   16.7718   -3.9677    0.0000 N   0  0  0  0  0  0  0  0  0  0  0  0
   11.4709   -2.8875    0.0000 O   0  0  0  0  0  0  0  0  0  0  0  0
    9.5999   -4.5078    0.0000 C   0  0  0  0  0  0  0  0  0  0  0  0
    8.8204   -4.2377    0.0000 O   0  0  0  0  0  0  0  0  0  0  0  0
    9.7559   -5.3179    0.0000 N   0  0  0  0  0  0  0  0  0  0  0  0
    9.1322   -5.8580    0.0000 C   0  0  0  0  0  0  0  0  0  0  0  0
    8.5086   -6.3981    0.0000 C   0  0  0  0  0  0  0  0  0  0  0  0
    8.5921   -5.2343    0.0000 C   0  0  0  0  0  0  0  0  0  0  0  0
    9.6723   -6.4816    0.0000 C   0  0  0  0  0  0  0  0  0  0  0  0
  1  2  1  0  0  0  0
  2  3  1  0  0  0  0
  2  4  1  0  0  0  0
  4  5  1  0  0  0  0
  5  6  1  0  0  0  0
  6  7  1  0  0  0  0
  7  8  1  0  0  0  0
  8  9  1  0  0  0  0
  9 10  1  0  0  0  0
 10 11  2  0  0  0  0
 11 12  1  0  0  0  0
 12 13  2  0  0  0  0
 13 14  1  0  0  0  0
 14 15  2  0  0  0  0
 10 15  1  0  0  0  0
  8 16  1  1  0  0  0
 16 17  1  0  0  0  0
 17 18  2  0  0  0  0
 17 19  1  0  0  0  0
 19 20  1  0  0  0  0
 20 21  1  0  0  0  0
 21 22  2  0  0  0  0
 21 23  1  0  0  0  0
 19 24  1  6  0  0  0
 24 25  1  0  0  0  0
 25 26  2  0  0  0  0
 25 27  1  0  0  0  0
 27 28  2  0  0  0  0
 28 29  1  0  0  0  0
 29 30  2  0  0  0  0
 30 31  1  0  0  0  0
 31 32  2  0  0  0  0
 32 33  1  0  0  0  0
 33 34  2  0  0  0  0
 34 35  1  0  0  0  0
 30 35  1  0  0  0  0
 35 36  2  0  0  0  0
 27 36  1  0  0  0  0
  7 37  1  1  0  0  0
  5 38  1  0  0  0  0
 38 39  2  0  0  0  0
 38 40  1  0  0  0  0
 40 41  1  0  0  0  0
 41 42  1  0  0  0  0
 41 43  1  0  0  0  0
 41 44  1  0  0  0  0
M  END
> <DATABASE_ID>
DB12178

> <DATABASE_NAME>
drugbank

> <SMILES>
CC(C)CN(C[C@@H](O)[C@H](CC1=CC=CC=C1)NC(=O)[C@H](CC(N)=O)NC(=O)C1=CC=C2C=CC=CC2=N1)C(=O)NC(C)(C)C

> <INCHI_IDENTIFIER>
InChI=1S/C33H44N6O5/c1-21(2)19-39(32(44)38-33(3,4)5)20-28(40)26(17-22-11-7-6-8-12-22)36-31(43)27(18-29(34)41)37-30(42)25-16-15-23-13-9-10-14-24(23)35-25/h6-16,21,26-28,40H,17-20H2,1-5H3,(H2,34,41)(H,36,43)(H,37,42)(H,38,44)/t26-,27-,28+/m0/s1

> <INCHI_KEY>
ZILOOGIOHVCEKS-HZFUHODCSA-N

> <FORMULA>
C33H44N6O5

> <MOLECULAR_WEIGHT>
604.752

> <EXACT_MASS>
604.337318541

> <JCHEM_ACCEPTOR_COUNT>
6

> <JCHEM_ATOM_COUNT>
88

> <JCHEM_AVERAGE_POLARIZABILITY>
66.34630221985297

> <JCHEM_BIOAVAILABILITY>
0

> <JCHEM_DONOR_COUNT>
5

> <JCHEM_FORMAL_CHARGE>
0

> <JCHEM_GHOSE_FILTER>
0

> <JCHEM_IUPAC>
(2S)-N-[(2S,3R)-4-[(tert-butylcarbamoyl)(2-methylpropyl)amino]-3-hydroxy-1-phenylbutan-2-yl]-2-[(quinolin-2-yl)formamido]butanediamide

> <ALOGPS_LOGP>
2.39

> <JCHEM_LOGP>
2.4822923020000003

> <ALOGPS_LOGS>
-5.15

> <JCHEM_MDDR_LIKE_RULE>
1

> <JCHEM_NUMBER_OF_RINGS>
3

> <JCHEM_PHYSIOLOGICAL_CHARGE>
0

> <JCHEM_PKA>
14.218622531574773

> <JCHEM_PKA_STRONGEST_ACIDIC>
13.590044772701333

> <JCHEM_PKA_STRONGEST_BASIC>
0.5929095557533681

> <JCHEM_POLAR_SURFACE_AREA>
166.75

> <JCHEM_REFRACTIVITY>
167.15120000000002

> <JCHEM_ROTATABLE_BOND_COUNT>
14

> <JCHEM_RULE_OF_FIVE>
0

> <ALOGPS_SOLUBILITY>
4.27e-03 g/l

> <JCHEM_TRADITIONAL_IUPAC>
(2S)-N-[(2S,3R)-4-[(tert-butylcarbamoyl)(2-methylpropyl)amino]-3-hydroxy-1-phenylbutan-2-yl]-2-(quinolin-2-ylformamido)succinamide

> <JCHEM_VEBER_RULE>
0

> <DRUGBANK_ID>
DB12178

> <DRUG_GROUPS>
investigational

> <GENERIC_NAME>
Telinavir

> <SYNONYMS>
Telinavir

$$$$
