
  Mrv1652306031609512D          

 27 30  0  0  0  0            999 V2000
    3.9934    0.8250    0.0000 C   0  0  0  0  0  0  0  0  0  0  0  0
   11.1381    0.8250    0.0000 C   0  0  0  0  0  0  0  0  0  0  0  0
   10.4236   -0.4125    0.0000 C   0  0  0  0  0  0  0  0  0  0  0  0
   10.4236    1.2375    0.0000 C   0  0  0  0  0  0  0  0  0  0  0  0
    9.7092    0.0000    0.0000 C   0  0  0  0  0  0  0  0  0  0  0  0
    3.2789    1.2375    0.0000 C   0  0  0  0  0  0  0  0  0  0  0  0
    6.1368   -0.4125    0.0000 C   0  0  0  0  0  0  0  0  0  0  0  0
    5.4223    0.8250    0.0000 C   0  0  0  0  0  0  0  0  0  0  0  0
    6.8513   -0.0000    0.0000 C   0  0  0  0  0  0  0  0  0  0  0  0
    6.1368    1.2375    0.0000 C   0  0  0  0  0  0  0  0  0  0  0  0
    3.2789   -0.4125    0.0000 C   0  0  0  0  0  0  0  0  0  0  0  0
    4.7079   -0.4125    0.0000 C   0  0  0  0  0  0  0  0  0  0  0  0
    8.2802    0.8250    0.0000 C   0  0  0  0  0  0  0  0  0  0  0  0
    1.2949    0.4125    0.0000 C   0  0  0  0  0  0  0  0  0  0  0  0
    3.9934    0.0000    0.0000 C   0  0  0  0  0  0  0  0  0  0  0  0
   11.1381   -0.0000    0.0000 C   0  0  0  0  0  0  0  0  0  0  0  0
    9.7092    0.8250    0.0000 C   0  0  0  0  0  0  0  0  0  0  0  0
    2.5645    0.8250    0.0000 C   0  0  0  0  0  0  0  0  0  0  0  0
    2.5645    0.0000    0.0000 C   0  0  0  0  0  0  0  0  0  0  0  0
    7.5658    1.2375    0.0000 C   0  0  0  0  0  0  0  0  0  0  0  0
   11.8526   -0.4125    0.0000 Cl  0  0  0  0  0  0  0  0  0  0  0  0
    5.4223   -0.0000    0.0000 N   0  0  0  0  0  0  0  0  0  0  0  0
    6.8513    0.8250    0.0000 N   0  0  0  0  0  0  0  0  0  0  0  0
    7.5658    2.0625    0.0000 O   0  0  0  0  0  0  0  0  0  0  0  0
    8.9947    1.2375    0.0000 O   0  0  0  0  0  0  0  0  0  0  0  0
    1.7798    1.0799    0.0000 O   0  0  0  0  0  0  0  0  0  0  0  0
    1.7798   -0.2549    0.0000 O   0  0  0  0  0  0  0  0  0  0  0  0
  4  2  1  0  0  0  0
  5  3  2  0  0  0  0
  6  1  2  0  0  0  0
  9  7  1  0  0  0  0
 10  8  1  0  0  0  0
 15  1  1  0  0  0  0
 15 11  2  0  0  0  0
 15 12  1  0  0  0  0
 16  2  2  0  0  0  0
 16  3  1  0  0  0  0
 17  4  2  0  0  0  0
 17  5  1  0  0  0  0
 18  6  1  0  0  0  0
 19 11  1  0  0  0  0
 19 18  2  0  0  0  0
 20 13  1  0  0  0  0
 21 16  1  0  0  0  0
 22  7  1  0  0  0  0
 22  8  1  0  0  0  0
 22 12  1  0  0  0  0
 23  9  1  0  0  0  0
 23 10  1  0  0  0  0
 23 20  1  0  0  0  0
 24 20  2  0  0  0  0
 25 13  1  0  0  0  0
 25 17  1  0  0  0  0
 26 14  1  0  0  0  0
 26 18  1  0  0  0  0
 27 14  1  0  0  0  0
 27 19  1  0  0  0  0
M  END
> <DATABASE_ID>
DB13790

> <DATABASE_NAME>
drugbank

> <SMILES>
ClC1=CC=C(OCC(=O)N2CCN(CC3=CC4=C(OCO4)C=C3)CC2)C=C1

> <INCHI_IDENTIFIER>
InChI=1S/C20H21ClN2O4/c21-16-2-4-17(5-3-16)25-13-20(24)23-9-7-22(8-10-23)12-15-1-6-18-19(11-15)27-14-26-18/h1-6,11H,7-10,12-14H2

> <INCHI_KEY>
BFUJHVVEMMWLHC-UHFFFAOYSA-N

> <FORMULA>
C20H21ClN2O4

> <MOLECULAR_WEIGHT>
388.85

> <EXACT_MASS>
388.1189849

> <JCHEM_ACCEPTOR_COUNT>
5

> <JCHEM_ATOM_COUNT>
48

> <JCHEM_AVERAGE_POLARIZABILITY>
40.488727548071935

> <JCHEM_BIOAVAILABILITY>
1

> <JCHEM_DONOR_COUNT>
0

> <JCHEM_FORMAL_CHARGE>
0

> <JCHEM_GHOSE_FILTER>
1

> <JCHEM_IUPAC>
1-{4-[(2H-1,3-benzodioxol-5-yl)methyl]piperazin-1-yl}-2-(4-chlorophenoxy)ethan-1-one

> <ALOGPS_LOGP>
2.95

> <JCHEM_LOGP>
2.732838216666667

> <ALOGPS_LOGS>
-3.37

> <JCHEM_MDDR_LIKE_RULE>
0

> <JCHEM_NUMBER_OF_RINGS>
4

> <JCHEM_PHYSIOLOGICAL_CHARGE>
0

> <JCHEM_PKA_STRONGEST_ACIDIC>
16.56307707676951

> <JCHEM_PKA_STRONGEST_BASIC>
6.09123718060121

> <JCHEM_POLAR_SURFACE_AREA>
51.24000000000001

> <JCHEM_REFRACTIVITY>
101.45579999999997

> <JCHEM_ROTATABLE_BOND_COUNT>
5

> <JCHEM_RULE_OF_FIVE>
1

> <ALOGPS_SOLUBILITY>
1.67e-01 g/l

> <JCHEM_TRADITIONAL_IUPAC>
fipexide

> <JCHEM_VEBER_RULE>
0

> <DRUGBANK_ID>
DB13790

> <DRUG_GROUPS>
experimental

> <GENERIC_NAME>
Fipexide

> <SYNONYMS>
Fipexide

$$$$
