
  Mrv1572004191601082D          

 17 20  0  0  0  0            999 V2000
    0.3020   -1.9520    0.0000 C   0  0  0  0  0  0  0  0  0  0  0  0
    1.1270   -1.9520    0.0000 C   0  0  0  0  0  0  0  0  0  0  0  0
    1.1270    2.7770    0.0000 C   0  0  0  0  0  0  0  0  0  0  0  0
    0.3020    2.7770    0.0000 C   0  0  0  0  0  0  0  0  0  0  0  0
    2.9684    1.2375    0.0000 C   0  0  0  0  0  0  0  0  0  0  0  0
    2.5559    1.9520    0.0000 C   0  0  0  0  0  0  0  0  0  0  0  0
    0.0000    0.0000    0.0000 C   0  0  0  0  0  0  0  0  0  0  0  0
    0.7145   -0.4125    0.0000 C   0  0  0  0  0  0  0  0  0  0  0  0
    0.0000    0.8250    0.0000 C   0  0  0  0  0  0  0  0  0  0  0  0
    0.7145    1.2375    0.0000 C   0  0  0  0  0  0  0  0  0  0  0  0
    1.4289    0.8250    0.0000 C   0  0  0  0  0  0  0  0  0  0  0  0
    1.4289    0.0000    0.0000 C   0  0  0  0  0  0  0  0  0  0  0  0
    0.7145   -1.2375    0.0000 N   0  0  0  0  0  0  0  0  0  0  0  0
    0.7145    2.0625    0.0000 N   0  0  0  0  0  0  0  0  0  0  0  0
    2.1434    1.2375    0.0000 N   0  0  0  0  0  0  0  0  0  0  0  0
   -0.7145    1.2375    0.0000 O   0  0  0  0  0  0  0  0  0  0  0  0
    2.1434   -0.4125    0.0000 O   0  0  0  0  0  0  0  0  0  0  0  0
  2  1  1  0  0  0  0
  4  3  1  0  0  0  0
  6  5  1  0  0  0  0
  8  7  2  0  0  0  0
  9  7  1  0  0  0  0
 10  9  1  0  0  0  0
 11 10  2  0  0  0  0
 12  8  1  0  0  0  0
 12 11  1  0  0  0  0
 13  1  1  0  0  0  0
 13  2  1  0  0  0  0
 13  8  1  0  0  0  0
 14  3  1  0  0  0  0
 14  4  1  0  0  0  0
 14 10  1  0  0  0  0
 15  5  1  0  0  0  0
 15  6  1  0  0  0  0
 15 11  1  0  0  0  0
 16  9  2  0  0  0  0
 17 12  2  0  0  0  0
M  END
> <DATABASE_ID>
DB13304

> <DATABASE_NAME>
drugbank

> <SMILES>
O=C1C=C(N2CC2)C(=O)C(N2CC2)=C1N1CC1

> <INCHI_IDENTIFIER>
InChI=1S/C12H13N3O2/c16-9-7-8(13-1-2-13)12(17)11(15-5-6-15)10(9)14-3-4-14/h7H,1-6H2

> <INCHI_KEY>
PXSOHRWMIRDKMP-UHFFFAOYSA-N

> <FORMULA>
C12H13N3O2

> <MOLECULAR_WEIGHT>
231.255

> <EXACT_MASS>
231.100776671

> <JCHEM_ACCEPTOR_COUNT>
5

> <JCHEM_ATOM_COUNT>
30

> <JCHEM_AVERAGE_POLARIZABILITY>
23.31475423372844

> <JCHEM_BIOAVAILABILITY>
1

> <JCHEM_DONOR_COUNT>
0

> <JCHEM_FORMAL_CHARGE>
0

> <JCHEM_GHOSE_FILTER>
0

> <JCHEM_IUPAC>
2,3,5-tris(aziridin-1-yl)cyclohexa-2,5-diene-1,4-dione

> <ALOGPS_LOGP>
0.26

> <JCHEM_LOGP>
-0.5110918026666675

> <ALOGPS_LOGS>
-0.49

> <JCHEM_MDDR_LIKE_RULE>
0

> <JCHEM_NUMBER_OF_RINGS>
4

> <JCHEM_PHYSIOLOGICAL_CHARGE>
0

> <JCHEM_PKA_STRONGEST_BASIC>
-6.571571011838282

> <JCHEM_POLAR_SURFACE_AREA>
43.4

> <JCHEM_REFRACTIVITY>
66.2044

> <JCHEM_ROTATABLE_BOND_COUNT>
3

> <JCHEM_RULE_OF_FIVE>
1

> <ALOGPS_SOLUBILITY>
7.52e+01 g/l

> <JCHEM_TRADITIONAL_IUPAC>
triaziquone

> <JCHEM_VEBER_RULE>
0

> <DRUGBANK_ID>
DB13304

> <DRUG_GROUPS>
experimental

> <GENERIC_NAME>
Triaziquone

> <SYNONYMS>
triazicuona; Triaziquone

$$$$
