
  Mrv1909 11061920402D          

 54 58  0  0  0  0            999 V2000
   -6.0246    1.0171    0.0000 P   0  0  0  0  0  0  0  0  0  0  0  0
   -0.0071    1.4883    0.0000 P   0  0  0  0  0  0  0  0  0  0  0  0
   -1.4285    1.3415    0.0000 P   0  0  0  0  0  0  0  0  0  0  0  0
    2.8824    1.7097    0.0000 O   0  0  0  0  0  0  0  0  0  0  0  0
   -3.5195   -0.1141    0.0000 O   0  0  0  0  0  0  0  0  0  0  0  0
    3.5689   -0.3116    0.0000 O   0  0  0  0  0  0  0  0  0  0  0  0
    1.7842   -0.1209    0.0000 O   0  0  0  0  0  0  0  0  0  0  0  0
   -5.6134    0.3019    0.0000 O   0  0  0  0  0  0  0  0  0  0  0  0
   -4.5559    1.7522    0.0000 O   0  0  0  0  0  0  0  0  0  0  0  0
    4.5964   -0.0714    0.0000 O   0  0  0  0  0  0  0  0  0  0  0  0
    0.7458    1.1515    0.0000 O   0  0  0  0  0  0  0  0  0  0  0  0
    6.2110    0.2687    0.0000 O   0  0  0  0  0  0  0  0  0  0  0  0
   -2.0968    0.8577    0.0000 O   0  0  0  0  0  0  0  0  0  0  0  0
   -0.7603    1.8252    0.0000 O   0  0  0  0  0  0  0  0  0  0  0  0
   -6.4359    1.7323    0.0000 O   0  0  0  0  0  0  0  0  0  0  0  0
   -6.7398    0.6058    0.0000 O   0  0  0  0  0  0  0  0  0  0  0  0
    0.3296    2.2415    0.0000 O   0  0  0  0  0  0  0  0  0  0  0  0
    5.0707    3.6793    0.0000 O   0  0  0  0  0  0  0  0  0  0  0  0
   -5.3094    1.4283    0.0000 O   0  0  0  0  0  0  0  0  0  0  0  0
   -0.9447    0.6731    0.0000 O   0  0  0  0  0  0  0  0  0  0  0  0
   -0.3440    0.7353    0.0000 O   0  0  0  0  0  0  0  0  0  0  0  0
   -1.9123    2.0097    0.0000 O   0  0  0  0  0  0  0  0  0  0  0  0
    4.3018    1.3267    0.0000 N   0  0  0  0  0  0  0  0  0  0  0  0
   -4.5609   -1.1519    0.0000 N   0  0  0  0  0  0  0  0  0  0  0  0
   -4.5609   -2.4796    0.0000 N   0  0  0  0  0  0  0  0  0  0  0  0
   -6.0560   -0.9908    0.0000 N   0  0  0  0  0  0  0  0  0  0  0  0
    6.4289    3.2353    0.0000 N   0  0  0  0  0  0  0  0  0  0  0  0
   -6.7705   -2.2283    0.0000 N   0  0  0  0  0  0  0  0  0  0  0  0
   -6.0560   -3.4657    0.0000 N   0  0  0  0  0  0  0  0  0  0  0  0
    3.4945    1.1566    0.0000 C   0  0  1  0  0  0  0  0  0  0  0  0
    3.1576    0.4035    0.0000 C   0  0  1  0  0  0  0  0  0  0  0  0
    2.3373    0.4912    0.0000 C   0  0  1  0  0  0  0  0  0  0  0  0
    2.1672    1.2984    0.0000 C   0  0  1  0  0  0  0  0  0  0  0  0
   -4.7884    0.3005    0.0000 C   0  0  2  0  0  0  0  0  0  0  0  0
   -4.3023    0.9671    0.0000 C   0  0  1  0  0  0  0  0  0  0  0  0
   -4.3046   -0.3676    0.0000 C   0  0  1  0  0  0  0  0  0  0  0  0
   -3.5181    0.7108    0.0000 C   0  0  1  0  0  0  0  0  0  0  0  0
    4.8527    0.7127    0.0000 C   0  0  2  0  0  0  0  0  0  0  0  0
    5.6600    0.8828    0.0000 C   0  0  2  0  0  0  0  0  0  0  0  0
    1.4141    1.6353    0.0000 C   0  0  0  0  0  0  0  0  0  0  0  0
    4.5580    2.1109    0.0000 C   0  0  0  0  0  0  0  0  0  0  0  0
    5.9163    1.6669    0.0000 C   0  0  0  0  0  0  0  0  0  0  0  0
   -2.8499    1.1945    0.0000 C   0  0  0  0  0  0  0  0  0  0  0  0
    5.3653    2.2810    0.0000 C   0  0  0  0  0  0  0  0  0  0  0  0
   -5.3415   -1.4033    0.0000 C   0  0  0  0  0  0  0  0  0  0  0  0
   -4.0795   -1.8158    0.0000 C   0  0  0  0  0  0  0  0  0  0  0  0
    5.6216    3.0652    0.0000 C   0  0  0  0  0  0  0  0  0  0  0  0
   -5.3415   -2.2283    0.0000 C   0  0  0  0  0  0  0  0  0  0  0  0
   -6.0560   -2.6408    0.0000 C   0  0  0  0  0  0  0  0  0  0  0  0
   -6.7705   -1.4033    0.0000 C   0  0  0  0  0  0  0  0  0  0  0  0
    6.7705    2.8546    0.0000 H   0  0  0  0  0  0  0  0  0  0  0  0
    6.5878    3.7215    0.0000 H   0  0  0  0  0  0  0  0  0  0  0  0
   -5.6130   -3.7215    0.0000 H   0  0  0  0  0  0  0  0  0  0  0  0
   -6.4990   -3.7215    0.0000 H   0  0  0  0  0  0  0  0  0  0  0  0
  1  8  1  0  0  0  0
  1 15  1  0  0  0  0
  1 16  1  0  0  0  0
  1 19  2  0  0  0  0
  2 11  1  0  0  0  0
  2 14  1  0  0  0  0
  2 17  1  6  0  0  0
  2 21  2  0  0  0  0
  3 13  1  0  0  0  0
  3 14  1  0  0  0  0
  3 20  1  6  0  0  0
  3 22  2  0  0  0  0
  4 30  1  0  0  0  0
  4 33  1  0  0  0  0
  5 36  1  0  0  0  0
  5 37  1  0  0  0  0
 31  6  1  6  0  0  0
 32  7  1  6  0  0  0
 34  8  1  6  0  0  0
 35  9  1  6  0  0  0
 38 10  1  6  0  0  0
 11 40  1  0  0  0  0
 39 12  1  6  0  0  0
 13 43  1  0  0  0  0
 18 47  2  0  0  0  0
 30 23  1  1  0  0  0
 23 38  1  0  0  0  0
 23 41  1  0  0  0  0
 36 24  1  1  0  0  0
 24 45  1  0  0  0  0
 24 46  1  0  0  0  0
 25 46  2  0  0  0  0
 25 48  1  0  0  0  0
 26 45  2  0  0  0  0
 26 50  1  0  0  0  0
 27 47  1  0  0  0  0
 27 51  1  0  0  0  0
 27 52  1  0  0  0  0
 28 49  1  0  0  0  0
 28 50  2  0  0  0  0
 29 49  1  0  0  0  0
 29 53  1  0  0  0  0
 29 54  1  0  0  0  0
 30 31  1  0  0  0  0
 31 32  1  0  0  0  0
 32 33  1  0  0  0  0
 33 40  1  1  0  0  0
 34 35  1  0  0  0  0
 34 36  1  0  0  0  0
 35 37  1  0  0  0  0
 37 43  1  1  0  0  0
 38 39  1  0  0  0  0
 39 42  1  0  0  0  0
 41 44  2  0  0  0  0
 42 44  1  0  0  0  0
 44 47  1  0  0  0  0
 45 48  1  0  0  0  0
 48 49  2  0  0  0  0
M  END
> <DATABASE_ID>
DB02319

> <DATABASE_NAME>
drugbank

> <SMILES>
[H]N([H])C(=O)C1=CN([C@@H]2O[C@H](COP(O)(=O)OP(O)(=O)OC[C@H]3O[C@H]([C@H](OP(O)(O)=O)[C@@H]3O)N3C=NC4=C(N=CN=C34)N([H])[H])[C@@H](O)[C@H]2O)[C@@H](O)[C@@H](O)C1

> <INCHI_IDENTIFIER>
InChI=1S/C21H32N7O19P3/c22-16-11-18(25-5-24-16)28(6-26-11)21-15(46-48(35,36)37)13(31)10(45-21)4-43-50(40,41)47-49(38,39)42-3-9-12(30)14(32)20(44-9)27-2-7(17(23)33)1-8(29)19(27)34/h2,5-6,8-10,12-15,19-21,29-32,34H,1,3-4H2,(H2,23,33)(H,38,39)(H,40,41)(H2,22,24,25)(H2,35,36,37)/t8-,9+,10+,12+,13+,14+,15+,19-,20+,21+/m0/s1

> <INCHI_KEY>
LRAVAOPKUBJONV-IVCJQJMGSA-N

> <FORMULA>
C21H32N7O19P3

> <MOLECULAR_WEIGHT>
779.4356

> <EXACT_MASS>
779.096581413

> <JCHEM_ACCEPTOR_COUNT>
20

> <JCHEM_ATOM_COUNT>
82

> <JCHEM_AVERAGE_POLARIZABILITY>
65.92883420099531

> <JCHEM_BIOAVAILABILITY>
0

> <JCHEM_DONOR_COUNT>
11

> <JCHEM_FORMAL_CHARGE>
0

> <JCHEM_GHOSE_FILTER>
0

> <JCHEM_IUPAC>
{[(2R,3R,4R,5R)-2-(6-amino-9H-purin-9-yl)-5-[({[({[(2R,3S,4R,5R)-5-[(2S,3S)-5-carbamoyl-2,3-dihydroxy-1,2,3,4-tetrahydropyridin-1-yl]-3,4-dihydroxyoxolan-2-yl]methoxy}(hydroxy)phosphoryl)oxy](hydroxy)phosphoryl}oxy)methyl]-4-hydroxyoxolan-3-yl]oxy}phosphonic acid

> <ALOGPS_LOGP>
-1.42

> <JCHEM_LOGP>
-8.039845149898255

> <ALOGPS_LOGS>
-2.17

> <JCHEM_MDDR_LIKE_RULE>
1

> <JCHEM_NUMBER_OF_RINGS>
5

> <JCHEM_PHYSIOLOGICAL_CHARGE>
-4

> <JCHEM_PKA>
0.902283629211555

> <JCHEM_PKA_STRONGEST_ACIDIC>
0.6629260687767233

> <JCHEM_PKA_STRONGEST_BASIC>
4.866344486445443

> <JCHEM_POLAR_SURFACE_AREA>
404.6099999999999

> <JCHEM_REFRACTIVITY>
156.1709

> <JCHEM_ROTATABLE_BOND_COUNT>
13

> <JCHEM_RULE_OF_FIVE>
0

> <ALOGPS_SOLUBILITY>
5.26e+00 g/l

> <JCHEM_TRADITIONAL_IUPAC>
3-carbamoyl-1-[(2R,3R,4S,5R)-5-[({[(2R,3S,4R,5R)-3,4-dihydroxy-5-{imidazo[2,1-f]purin-3-yl}oxolan-2-yl]methoxy(hydroxy)phosphoryl phosphonato}oxy)methyl]-3,4-dihydroxyoxolan-2-yl]-1lambda5-pyridin-1-ylium

> <JCHEM_VEBER_RULE>
0

> <DRUGBANK_ID>
DB02319

> <SECONDARY_ACCESSION_NUMBERS>
EXPT02403

> <DRUG_GROUPS>
experimental

> <GENERIC_NAME>
5,6-dihydroxy-NADP

$$$$
