
  Mrv1909 03172017432D          

 31 32  0  0  0  0            999 V2000
   -0.1410   -1.5059    0.0000 O   0  0  0  0  0  0  0  0  0  0  0  0
   -1.1676   -1.0489    0.0000 O   0  0  0  0  0  0  0  0  0  0  0  0
    3.2676   -0.3597    0.0000 O   0  0  0  0  0  0  0  0  0  0  0  0
    2.8260   -1.7187    0.0000 O   0  0  0  0  0  0  0  0  0  0  0  0
   -3.3110    1.0136    0.0000 O   0  0  0  0  0  0  0  0  0  0  0  0
   -0.4531    0.1886    0.0000 N   0  0  0  0  0  0  0  0  0  0  0  0
    1.2567   -1.2089    0.0000 N   0  0  0  0  0  0  0  0  0  0  0  0
   -1.8821    1.0136    0.0000 N   0  0  0  0  0  0  0  0  0  0  0  0
    2.5814    2.8681    0.0000 N   0  0  0  0  0  0  0  0  0  0  0  0
    0.3005   -0.1469    0.0000 C   0  0  1  0  0  0  0  0  0  0  0  0
    0.8526    0.4661    0.0000 C   0  0  0  0  0  0  0  0  0  0  0  0
    0.4401    1.1805    0.0000 C   0  0  0  0  0  0  0  0  0  0  0  0
   -0.3669    1.0091    0.0000 C   0  0  0  0  0  0  0  0  0  0  0  0
    0.4721   -0.9539    0.0000 C   0  0  0  0  0  0  0  0  0  0  0  0
   -1.1676   -0.2239    0.0000 C   0  0  0  0  0  0  0  0  0  0  0  0
   -1.8821    0.1886    0.0000 C   0  0  1  0  0  0  0  0  0  0  0  0
    1.8698   -0.6568    0.0000 C   0  0  1  0  0  0  0  0  0  0  0  0
   -2.5966   -0.2239    0.0000 C   0  0  0  0  0  0  0  0  0  0  0  0
    1.6982    0.1501    0.0000 C   0  0  0  0  0  0  0  0  0  0  0  0
    2.3113    0.7021    0.0000 C   0  0  0  0  0  0  0  0  0  0  0  0
   -2.5966   -1.0489    0.0000 C   0  0  0  0  0  0  0  0  0  0  0  0
    2.1399    1.5092    0.0000 C   0  0  0  0  0  0  0  0  0  0  0  0
   -2.5966    1.4261    0.0000 C   0  0  0  0  0  0  0  0  0  0  0  0
    2.7529    2.0612    0.0000 C   0  0  0  0  0  0  0  0  0  0  0  0
   -3.3110   -1.4614    0.0000 C   0  0  0  0  0  0  0  0  0  0  0  0
   -1.8821   -1.4614    0.0000 C   0  0  0  0  0  0  0  0  0  0  0  0
   -2.5966    2.2511    0.0000 C   0  0  0  0  0  0  0  0  0  0  0  0
   -3.3110   -2.2864    0.0000 C   0  0  0  0  0  0  0  0  0  0  0  0
   -1.8821   -2.2864    0.0000 C   0  0  0  0  0  0  0  0  0  0  0  0
   -2.5966   -2.6989    0.0000 C   0  0  0  0  0  0  0  0  0  0  0  0
    2.6544   -0.9118    0.0000 B   0  0  0  0  0  0  0  0  0  0  0  0
  1 14  2  0  0  0  0
  2 15  2  0  0  0  0
  3 31  1  0  0  0  0
  4 31  1  0  0  0  0
  5 23  2  0  0  0  0
  6 10  1  0  0  0  0
  6 13  1  0  0  0  0
  6 15  1  0  0  0  0
  7 14  1  0  0  0  0
 17  7  1  1  0  0  0
 16  8  1  1  0  0  0
  8 23  1  0  0  0  0
  9 24  1  0  0  0  0
 10 11  1  0  0  0  0
 10 14  1  1  0  0  0
 11 12  1  0  0  0  0
 12 13  1  0  0  0  0
 15 16  1  0  0  0  0
 16 18  1  0  0  0  0
 17 19  1  0  0  0  0
 17 31  1  0  0  0  0
 18 21  1  0  0  0  0
 19 20  1  0  0  0  0
 20 22  1  0  0  0  0
 21 25  2  0  0  0  0
 21 26  1  0  0  0  0
 22 24  1  0  0  0  0
 23 27  1  0  0  0  0
 25 28  1  0  0  0  0
 26 29  2  0  0  0  0
 28 30  2  0  0  0  0
 29 30  1  0  0  0  0
M  END
> <DATABASE_ID>
DB07658

> <DATABASE_NAME>
drugbank

> <SMILES>
CC(=O)N[C@H](CC1=CC=CC=C1)C(=O)N1CCC[C@H]1C(=O)N[C@@H](CCCCN)B(O)O

> <INCHI_IDENTIFIER>
InChI=1S/C21H33BN4O5/c1-15(27)24-17(14-16-8-3-2-4-9-16)21(29)26-13-7-10-18(26)20(28)25-19(22(30)31)11-5-6-12-23/h2-4,8-9,17-19,30-31H,5-7,10-14,23H2,1H3,(H,24,27)(H,25,28)/t17-,18+,19+/m1/s1

> <INCHI_KEY>
UCQIHCRMWNRFNP-QYZOEREBSA-N

> <FORMULA>
C21H33BN4O5

> <MOLECULAR_WEIGHT>
432.322

> <EXACT_MASS>
432.254400652

> <JCHEM_ACCEPTOR_COUNT>
6

> <JCHEM_ATOM_COUNT>
64

> <JCHEM_AVERAGE_NEUTRAL_MICROSPECIES_CHARGE>
0.9765275839664354

> <JCHEM_AVERAGE_POLARIZABILITY>
46.70260538042445

> <JCHEM_BIOAVAILABILITY>
1

> <JCHEM_DONOR_COUNT>
5

> <JCHEM_FORMAL_CHARGE>
0

> <JCHEM_GHOSE_FILTER>
0

> <JCHEM_IUPAC>
[(1R)-5-amino-1-{[(2S)-1-[(2R)-2-acetamido-3-phenylpropanoyl]pyrrolidin-2-yl]formamido}pentyl]boronic acid

> <ALOGPS_LOGP>
0.63

> <JCHEM_LOGP>
-1.011888969665631

> <ALOGPS_LOGS>
-2.98

> <JCHEM_MDDR_LIKE_RULE>
0

> <JCHEM_NEUTRAL_CHARGE>
1

> <JCHEM_NUMBER_OF_RINGS>
2

> <JCHEM_PHYSIOLOGICAL_CHARGE>
1

> <JCHEM_PKA>
12.465541961336678

> <JCHEM_PKA_STRONGEST_ACIDIC>
8.631267730483229

> <JCHEM_PKA_STRONGEST_BASIC>
10.214837109005357

> <JCHEM_POLAR_SURFACE_AREA>
144.99

> <JCHEM_REFRACTIVITY>
112.01420000000002

> <JCHEM_ROTATABLE_BOND_COUNT>
11

> <JCHEM_RULE_OF_FIVE>
1

> <ALOGPS_SOLUBILITY>
4.53e-01 g/l

> <JCHEM_TRADITIONAL_IUPAC>
deamino-methyl-phenylalanine

> <JCHEM_VEBER_RULE>
0

> <DRUGBANK_ID>
DB07658

> <DRUG_GROUPS>
experimental

> <GENERIC_NAME>
AC-(D)Phe-pro-borolys-OH

$$$$
