
  Mrv1909 01102015482D          

 47 52  0  0  0  0            999 V2000
   -1.8328    0.2000    0.0000 C   0  0  0  0  0  0  0  0  0  0  0  0
   -1.1164   -0.2093    0.0000 C   0  0  1  0  0  0  0  0  0  0  0  0
   -0.4000    0.2000    0.0000 C   0  0  1  0  0  0  0  0  0  0  0  0
    0.3070   -0.2093    0.0000 C   0  0  0  0  0  0  0  0  0  0  0  0
    1.0234    0.2000    0.0000 C   0  0  2  0  0  0  0  0  0  0  0  0
    1.7397   -0.2093    0.0000 C   0  0  0  0  0  0  0  0  0  0  0  0
    2.4469    0.2000    0.0000 N   0  0  0  0  0  0  0  0  0  0  0  0
    1.7397   -1.0280    0.0000 O   0  0  0  0  0  0  0  0  0  0  0  0
    1.0234    1.0280    0.0000 O   0  0  0  0  0  0  0  0  0  0  0  0
    1.7397    1.4374    0.0000 C   0  0  0  0  0  0  0  0  0  0  0  0
    1.7397    2.2654    0.0000 C   0  0  0  0  0  0  0  0  0  0  0  0
    1.7397    3.9122    0.0000 C   0  0  0  0  0  0  0  0  0  0  0  0
    1.0234    3.4936    0.0000 C   0  0  0  0  0  0  0  0  0  0  0  0
    1.0234    2.6748    0.0000 C   0  0  0  0  0  0  0  0  0  0  0  0
    2.4469    2.6748    0.0000 C   0  0  0  0  0  0  0  0  0  0  0  0
    2.4469    3.4936    0.0000 C   0  0  0  0  0  0  0  0  0  0  0  0
   -0.4000    1.0280    0.0000 O   0  0  0  0  0  0  0  0  0  0  0  0
   -1.8328   -1.4468    0.0000 C   0  0  0  0  0  0  0  0  0  0  0  0
   -1.8328   -2.2654    0.0000 C   0  0  0  0  0  0  0  0  0  0  0  0
   -2.5400   -2.6748    0.0000 C   0  0  0  0  0  0  0  0  0  0  0  0
   -2.5400   -3.5028    0.0000 C   0  0  0  0  0  0  0  0  0  0  0  0
   -1.8328   -3.9122    0.0000 C   0  0  0  0  0  0  0  0  0  0  0  0
   -1.1164   -3.5028    0.0000 C   0  0  0  0  0  0  0  0  0  0  0  0
   -1.1164   -2.6748    0.0000 C   0  0  0  0  0  0  0  0  0  0  0  0
   -1.1164   -1.0280    0.0000 O   0  0  0  0  0  0  0  0  0  0  0  0
   -1.8328    1.0280    0.0000 O   0  0  0  0  0  0  0  0  0  0  0  0
   -2.5400   -0.2093    0.0000 N   0  0  0  0  0  0  0  0  0  0  0  0
   -3.2563    0.2000    0.0000 C   0  0  2  0  0  0  0  0  0  0  0  0
   -4.5868    0.2836    0.0000 C   0  0  0  0  0  0  0  0  0  0  0  0
   -3.9447   -0.2372    0.0000 C   0  0  1  0  0  0  0  0  0  0  0  0
   -4.0006   -1.0653    0.0000 O   0  0  0  0  0  0  0  0  0  0  0  0
   -4.2797    1.0466    0.0000 C   0  0  0  0  0  0  0  0  0  0  0  0
   -3.3772    2.4236    0.0000 C   0  0  0  0  0  0  0  0  0  0  0  0
   -4.1960    2.4701    0.0000 C   0  0  0  0  0  0  0  0  0  0  0  0
   -4.6519    1.7909    0.0000 C   0  0  0  0  0  0  0  0  0  0  0  0
   -3.4610    1.0001    0.0000 C   0  0  0  0  0  0  0  0  0  0  0  0
   -3.0051    1.6886    0.0000 C   0  0  0  0  0  0  0  0  0  0  0  0
    3.1633   -0.2093    0.0000 C   0  0  2  0  0  0  0  0  0  0  0  0
    3.8331    0.2744    0.0000 C   0  0  1  0  0  0  0  0  0  0  0  0
    4.4937   -0.2093    0.0000 C   0  0  0  0  0  0  0  0  0  0  0  0
    4.2425   -0.9908    0.0000 C   0  0  0  0  0  0  0  0  0  0  0  0
    3.4145   -0.9908    0.0000 C   0  0  0  0  0  0  0  0  0  0  0  0
    3.0051   -1.7072    0.0000 C   0  0  0  0  0  0  0  0  0  0  0  0
    3.4145   -2.4143    0.0000 C   0  0  0  0  0  0  0  0  0  0  0  0
    4.2425   -2.4143    0.0000 C   0  0  0  0  0  0  0  0  0  0  0  0
    4.6519   -1.7072    0.0000 C   0  0  0  0  0  0  0  0  0  0  0  0
    3.8331    1.1025    0.0000 O   0  0  0  0  0  0  0  0  0  0  0  0
  1 27  1  0  0  0  0
  1  2  1  0  0  0  0
  1 26  2  0  0  0  0
  2  3  1  0  0  0  0
  2 25  1  1  0  0  0
  3  4  1  0  0  0  0
  3 17  1  6  0  0  0
  4  5  1  0  0  0  0
  5  6  1  0  0  0  0
  5  9  1  1  0  0  0
  6  7  1  0  0  0  0
  6  8  2  0  0  0  0
 38  7  1  6  0  0  0
  9 10  1  0  0  0  0
 10 11  1  0  0  0  0
 11 14  2  0  0  0  0
 11 15  1  0  0  0  0
 12 13  2  0  0  0  0
 12 16  1  0  0  0  0
 13 14  1  0  0  0  0
 15 16  2  0  0  0  0
 18 25  1  0  0  0  0
 18 19  1  0  0  0  0
 19 20  2  0  0  0  0
 19 24  1  0  0  0  0
 20 21  1  0  0  0  0
 21 22  2  0  0  0  0
 22 23  1  0  0  0  0
 23 24  2  0  0  0  0
 28 27  1  6  0  0  0
 28 30  1  0  0  0  0
 28 36  1  0  0  0  0
 29 32  1  0  0  0  0
 29 30  1  0  0  0  0
 30 31  1  6  0  0  0
 32 35  2  0  0  0  0
 32 36  1  0  0  0  0
 33 34  2  0  0  0  0
 33 37  1  0  0  0  0
 34 35  1  0  0  0  0
 36 37  2  0  0  0  0
 38 39  1  0  0  0  0
 38 42  1  0  0  0  0
 39 40  1  0  0  0  0
 39 47  1  6  0  0  0
 40 41  1  0  0  0  0
 41 46  2  0  0  0  0
 41 42  1  0  0  0  0
 42 43  2  0  0  0  0
 43 44  1  0  0  0  0
 44 45  2  0  0  0  0
 45 46  1  0  0  0  0
M  END
> <DATABASE_ID>
DB04190

> <DATABASE_NAME>
drugbank

> <SMILES>
O[C@H](C[C@@H](OCC1=CC=CC=C1)C(=O)N[C@@H]1[C@H](O)CC2=CC=CC=C12)[C@@H](OCC1=CC=CC=C1)C(=O)N[C@@H]1[C@H](O)CC2=CC=CC=C12

> <INCHI_IDENTIFIER>
InChI=1S/C38H40N2O7/c41-30-19-26-15-7-9-17-28(26)34(30)39-37(44)33(46-22-24-11-3-1-4-12-24)21-32(43)36(47-23-25-13-5-2-6-14-25)38(45)40-35-29-18-10-8-16-27(29)20-31(35)42/h1-18,30-36,41-43H,19-23H2,(H,39,44)(H,40,45)/t30-,31-,32-,33-,34+,35+,36-/m1/s1

> <INCHI_KEY>
AHAVBKNGKPWROK-UMFPTGFGSA-N

> <FORMULA>
C38H40N2O7

> <MOLECULAR_WEIGHT>
636.7334

> <EXACT_MASS>
636.283551644

> <JCHEM_ACCEPTOR_COUNT>
7

> <JCHEM_ATOM_COUNT>
87

> <JCHEM_AVERAGE_NEUTRAL_MICROSPECIES_CHARGE>
-1.6022183082816252e-05

> <JCHEM_AVERAGE_POLARIZABILITY>
68.9221556517465

> <JCHEM_BIOAVAILABILITY>
0

> <JCHEM_DONOR_COUNT>
5

> <JCHEM_FORMAL_CHARGE>
0

> <JCHEM_GHOSE_FILTER>
0

> <JCHEM_IUPAC>
(2R,3R,5R)-2,5-bis(benzyloxy)-3-hydroxy-N,N'-bis[(1S,2R)-2-hydroxy-2,3-dihydro-1H-inden-1-yl]hexanediamide

> <ALOGPS_LOGP>
2.89

> <JCHEM_LOGP>
3.5570785576666664

> <ALOGPS_LOGS>
-4.98

> <JCHEM_MDDR_LIKE_RULE>
1

> <JCHEM_NEUTRAL_CHARGE>
0

> <JCHEM_NUMBER_OF_RINGS>
6

> <JCHEM_PHYSIOLOGICAL_CHARGE>
0

> <JCHEM_PKA>
12.535437622831633

> <JCHEM_PKA_STRONGEST_ACIDIC>
11.989520695795749

> <JCHEM_PKA_STRONGEST_BASIC>
-3.074526046349666

> <JCHEM_POLAR_SURFACE_AREA>
137.35000000000002

> <JCHEM_REFRACTIVITY>
176.31649999999996

> <JCHEM_ROTATABLE_BOND_COUNT>
13

> <JCHEM_RULE_OF_FIVE>
0

> <ALOGPS_SOLUBILITY>
6.62e-03 g/l

> <JCHEM_TRADITIONAL_IUPAC>
(2S)-2-[(4-{2-[(6S)-2-amino-4-oxo-1H,5H,6H,7H,8H-pyrido[2,3-d]pyrimidin-6-yl]ethyl}phenyl)formamido]pentanedioic acid

> <JCHEM_VEBER_RULE>
0

> <DRUGBANK_ID>
DB04190

> <SECONDARY_ACCESSION_NUMBERS>
EXPT00664

> <DRUG_GROUPS>
experimental

> <GENERIC_NAME>
2,5-dibenzyloxy-3-hydroxy-hexanedioic acid bis-[(2-hydroxy-indan-1-yl)-amide]

$$$$
