
  Mrv1652306231722472D          

 23 22  0  0  1  0            999 V2000
    0.7013   -0.6616    0.0000 C   0  0  0  0  0  0  0  0  0  0  0  0
   -0.1237   -0.6616    0.0000 C   0  0  0  0  0  0  0  0  0  0  0  0
   -0.3786    0.1230    0.0000 N   0  0  0  0  0  0  0  0  0  0  0  0
    0.2888    0.6079    0.0000 C   0  0  0  0  0  0  0  0  0  0  0  0
    0.9563    0.1230    0.0000 S   0  0  0  0  0  0  0  0  0  0  0  0
    0.2888    1.4329    0.0000 C   0  0  0  0  0  0  0  0  0  0  0  0
    1.0033    1.8454    0.0000 O   0  0  0  0  0  0  0  0  0  0  0  0
   -0.4256    1.8454    0.0000 O   0  0  0  0  0  0  0  0  0  0  0  0
   -0.6086   -1.3290    0.0000 C   0  0  0  0  0  0  0  0  0  0  0  0
   -0.2730   -2.0827    0.0000 O   0  0  0  0  0  0  0  0  0  0  0  0
   -1.4291   -1.2428    0.0000 O   0  0  0  0  0  0  0  0  0  0  0  0
    5.6290    0.2750    0.0000 C   0  0  0  0  0  0  0  0  0  0  0  0
    4.9146   -0.1375    0.0000 C   0  0  0  0  0  0  0  0  0  0  0  0
    4.2001    0.2750    0.0000 C   0  0  1  0  0  0  0  0  0  0  0  0
    3.4856   -0.1375    0.0000 C   0  0  0  0  0  0  0  0  0  0  0  0
    2.7712    0.2750    0.0000 O   0  0  0  0  0  0  0  0  0  0  0  0
    3.4856   -0.9625    0.0000 O   0  0  0  0  0  0  0  0  0  0  0  0
    4.2001    1.1000    0.0000 N   0  0  0  0  0  0  0  0  0  0  0  0
    6.3435   -0.1375    0.0000 C   0  0  0  0  0  0  0  0  0  0  0  0
    7.0580    0.2750    0.0000 N   0  0  0  0  0  0  0  0  0  0  0  0
    7.7725   -0.1375    0.0000 C   0  0  0  0  0  0  0  0  0  0  0  0
    8.4869    0.2750    0.0000 N   0  0  0  0  0  0  0  0  0  0  0  0
    7.7725   -0.9625    0.0000 N   0  0  0  0  0  0  0  0  0  0  0  0
  1  2  1  0  0  0  0
  2  3  1  0  0  0  0
  3  4  1  0  0  0  0
  4  5  1  0  0  0  0
  1  5  1  0  0  0  0
  4  6  1  0  0  0  0
  6  7  2  0  0  0  0
  6  8  1  0  0  0  0
  2  9  1  0  0  0  0
  9 10  2  0  0  0  0
  9 11  1  0  0  0  0
 12 13  1  0  0  0  0
 13 14  1  0  0  0  0
 14 15  1  0  0  0  0
 15 16  2  0  0  0  0
 15 17  1  0  0  0  0
 14 18  1  1  0  0  0
 12 19  1  0  0  0  0
 19 20  1  0  0  0  0
 20 21  1  0  0  0  0
 21 22  2  0  0  0  0
 21 23  1  0  0  0  0
M  END
> <DATABASE_ID>
DB13748

> <DATABASE_NAME>
drugbank

> <SMILES>
OC(=O)C1CSC(N1)C(O)=O.N[C@@H](CCCNC(N)=N)C(O)=O

> <INCHI_IDENTIFIER>
InChI=1S/C6H14N4O2.C5H7NO4S/c7-4(5(11)12)2-1-3-10-6(8)9;7-4(8)2-1-11-3(6-2)5(9)10/h4H,1-3,7H2,(H,11,12)(H4,8,9,10);2-3,6H,1H2,(H,7,8)(H,9,10)/t4-;/m0./s1

> <INCHI_KEY>
LUCWYYXUZVULSK-WCCKRBBISA-N

> <FORMULA>
C11H21N5O6S

> <MOLECULAR_WEIGHT>
351.38

> <EXACT_MASS>
351.12125459

> <JCHEM_ACCEPTOR_COUNT>
6

> <JCHEM_ATOM_COUNT>
44

> <JCHEM_AVERAGE_POLARIZABILITY>
17.78653950562778

> <JCHEM_BIOAVAILABILITY>
1

> <JCHEM_DONOR_COUNT>
5

> <JCHEM_FORMAL_CHARGE>
0

> <JCHEM_GHOSE_FILTER>
0

> <JCHEM_IUPAC>
(2S)-2-amino-5-carbamimidamidopentanoic acid; 1,3-thiazolidine-2,4-dicarboxylic acid

> <ALOGPS_LOGP>
-2.03

> <JCHEM_LOGP>
-3.1559373774200568

> <ALOGPS_LOGS>
-0.93

> <JCHEM_MDDR_LIKE_RULE>
0

> <JCHEM_NUMBER_OF_RINGS>
1

> <JCHEM_PHYSIOLOGICAL_CHARGE>
1

> <JCHEM_PKA_STRONGEST_ACIDIC>
2.4118378885304885

> <JCHEM_PKA_STRONGEST_BASIC>
12.41100429474531

> <JCHEM_POLAR_SURFACE_AREA>
125.21999999999998

> <JCHEM_REFRACTIVITY>
53.9231

> <JCHEM_ROTATABLE_BOND_COUNT>
7

> <JCHEM_RULE_OF_FIVE>
1

> <ALOGPS_SOLUBILITY>
2.06e+01 g/l

> <JCHEM_TRADITIONAL_IUPAC>
L-arginine; tidiacic

> <JCHEM_VEBER_RULE>
0

> <DRUGBANK_ID>
DB13748

> <DRUG_GROUPS>
experimental

> <GENERIC_NAME>
Tidiacic arginine

$$$$
