
  Mrv1652306231722482D          

 15 12  0  0  0  0            999 V2000
    2.8875   -1.5395    0.0000 C   0  0  0  0  0  0  0  0  0  0  0  0
    2.1730   -1.9520    0.0000 C   0  0  0  0  0  0  0  0  0  0  0  0
    1.4586   -1.5395    0.0000 O   0  0  0  0  0  0  0  0  0  0  0  0
    2.1730   -2.7770    0.0000 O   0  5  0  0  0  0  0  0  0  0  0  0
    2.8875   -0.7145    0.0000 C   0  0  0  0  0  0  0  0  0  0  0  0
    2.0625   -0.7145    0.0000 C   0  0  0  0  0  0  0  0  0  0  0  0
    1.6500   -0.0000    0.0000 C   0  0  0  0  0  0  0  0  0  0  0  0
    2.0625    0.7145    0.0000 O   0  0  0  0  0  0  0  0  0  0  0  0
    0.8250    0.0000    0.0000 O   0  5  0  0  0  0  0  0  0  0  0  0
    3.7125   -0.7145    0.0000 C   0  0  0  0  0  0  0  0  0  0  0  0
    4.1250   -1.4289    0.0000 O   0  0  0  0  0  0  0  0  0  0  0  0
    4.1250   -0.0000    0.0000 O   0  5  0  0  0  0  0  0  0  0  0  0
    2.8875    0.1105    0.0000 O   0  5  0  0  0  0  0  0  0  0  0  0
    2.1730   -3.6020    0.0000 Na  0  3  0  0  0  0  0  0  0  0  0  0
    0.0000    0.0000    0.0000 Fe  0  1  0  0  0  0  0  0  0  0  0  0
  1  2  1  0  0  0  0
  2  3  2  0  0  0  0
  2  4  1  0  0  0  0
  1  5  1  0  0  0  0
  5  6  1  0  0  0  0
  6  7  1  0  0  0  0
  7  8  2  0  0  0  0
  7  9  1  0  0  0  0
  5 10  1  0  0  0  0
 10 11  2  0  0  0  0
 10 12  1  0  0  0  0
  5 13  1  0  0  0  0
M  CHG  6   4  -1   9  -1  12  -1  13  -1  14   1  15   3
M  END
> <DATABASE_ID>
DB13771

> <DATABASE_NAME>
drugbank

> <SMILES>
[Na+].[Fe+3].[O-]C(=O)CC([O-])(CC([O-])=O)C([O-])=O

> <INCHI_IDENTIFIER>
InChI=1S/C6H7O7.Fe.Na/c7-3(8)1-6(13,5(11)12)2-4(9)10;;/h1-2H2,(H,7,8)(H,9,10)(H,11,12);;/q-1;+3;+1/p-3

> <INCHI_KEY>
XJDIIQYURGDWCL-UHFFFAOYSA-K

> <FORMULA>
C6H4FeNaO7

> <MOLECULAR_WEIGHT>
266.926

> <EXACT_MASS>
266.920408

> <JCHEM_ACCEPTOR_COUNT>
7

> <JCHEM_ATOM_COUNT>
19

> <JCHEM_AVERAGE_POLARIZABILITY>
13.969238080977824

> <JCHEM_BIOAVAILABILITY>
1

> <JCHEM_DONOR_COUNT>
0

> <JCHEM_FORMAL_CHARGE>
0

> <JCHEM_GHOSE_FILTER>
0

> <JCHEM_IUPAC>
iron(3+) ion sodium 2-oxidopropane-1,2,3-tricarboxylate

> <ALOGPS_LOGP>
1.25

> <JCHEM_LOGP>
-1.3226874519999998

> <ALOGPS_LOGS>
-2.40

> <JCHEM_MDDR_LIKE_RULE>
0

> <JCHEM_NUMBER_OF_RINGS>
0

> <JCHEM_PHYSIOLOGICAL_CHARGE>
-3

> <JCHEM_PKA>
4.674836176324

> <JCHEM_PKA_STRONGEST_ACIDIC>
3.0479515131680732

> <JCHEM_PKA_STRONGEST_BASIC>
-4.185693450231931

> <JCHEM_POLAR_SURFACE_AREA>
143.45

> <JCHEM_REFRACTIVITY>
78.68550000000002

> <JCHEM_ROTATABLE_BOND_COUNT>
5

> <JCHEM_RULE_OF_FIVE>
1

> <ALOGPS_SOLUBILITY>
1.48e+00 g/l

> <JCHEM_TRADITIONAL_IUPAC>
iron(3+) ion sodium 2-oxidopropane-1,2,3-tricarboxylate

> <JCHEM_VEBER_RULE>
0

> <DRUGBANK_ID>
DB13771

> <DRUG_GROUPS>
experimental

> <GENERIC_NAME>
Ferric sodium citrate

$$$$
