
  Mrv1909 05201915282D          

 73 78  0  0  1  0            999 V2000
   -0.5937    2.3864    0.0000 C   0  0  0  0  0  0  0  0  0  0  0  0
    0.1081    1.9527    0.0000 O   0  0  0  0  0  0  0  0  0  0  0  0
    0.0834    1.1281    0.0000 C   0  0  2  0  0  0  0  0  0  0  0  0
    0.7853    0.6944    0.0000 C   0  0  0  0  0  0  0  0  0  0  0  0
    0.7606   -0.1302    0.0000 C   0  0  2  0  0  0  0  0  0  0  0  0
    1.4624   -0.5639    0.0000 C   0  0  0  0  0  0  0  0  0  0  0  0
    2.1889   -0.1729    0.0000 C   0  0  1  0  0  0  0  0  0  0  0  0
    2.2136    0.6517    0.0000 C   0  0  0  0  0  0  0  0  0  0  0  0
    2.8907   -0.6066    0.0000 C   0  0  2  0  0  0  0  0  0  0  0  0
    3.4024    0.0475    0.0000 C   0  0  0  0  0  0  0  0  0  0  0  0
    4.0429    0.5752    0.0000 C   0  0  0  0  0  0  0  0  0  0  0  0
    3.5903    1.2650    0.0000 O   0  0  0  0  0  0  0  0  0  0  0  0
    4.7809    0.9521    0.0000 C   0  0  2  0  0  0  0  0  0  0  0  0
    4.4873    1.7231    0.0000 C   0  0  0  0  0  0  0  0  0  0  0  0
    5.5827    1.1616    0.0000 C   0  0  0  0  0  0  0  0  0  0  0  0
    6.4104    1.1939    0.0000 C   0  0  0  0  0  0  0  0  0  0  0  0
    6.4675    2.0169    0.0000 C   0  0  0  0  0  0  0  0  0  0  0  0
    7.2253    1.0478    0.0000 C   0  0  1  0  0  0  0  0  0  0  0  0
    7.4575    1.8394    0.0000 O   0  0  0  0  0  0  0  0  0  0  0  0
    7.9891    0.7308    0.0000 C   0  0  1  0  0  0  0  0  0  0  0  0
    8.3864    1.4538    0.0000 O   0  0  0  0  0  0  0  0  0  0  0  0
    7.9589    2.1595    0.0000 C   0  0  0  0  0  0  0  0  0  0  0  0
    8.6733    0.2509    0.0000 C   0  0  0  0  0  0  0  0  0  0  0  0
    9.2175    0.8710    0.0000 O   0  0  0  0  0  0  0  0  0  0  0  0
    9.2358   -0.3629    0.0000 C   0  0  2  0  0  0  0  0  0  0  0  0
    9.9004    0.1260    0.0000 C   0  0  0  0  0  0  0  0  0  0  0  0
    9.6651   -1.1012    0.0000 C   0  0  0  0  0  0  0  0  0  0  0  0
    9.9190   -1.9142    0.0000 C   0  0  2  0  0  0  0  0  0  0  0  0
   10.7367   -1.8047    0.0000 C   0  0  0  0  0  0  0  0  0  0  0  0
    9.8872   -2.7839    0.0000 C   0  0  2  0  0  0  0  0  0  0  0  0
   10.3838   -3.4769    0.0000 C   0  0  0  0  0  0  0  0  0  0  0  0
   10.0749   -4.2666    0.0000 C   0  0  0  0  0  0  0  0  0  0  0  0
    9.2335   -4.4052    0.0000 C   0  0  1  0  0  0  0  0  0  0  0  0
    8.7412   -3.7200    0.0000 O   0  0  0  0  0  0  0  0  0  0  0  0
    9.0638   -2.9472    0.0000 N   0  0  0  0  0  0  0  0  0  0  0  0
    8.5415   -2.3085    0.0000 C   0  0  0  0  0  0  0  0  0  0  0  0
    7.7273   -2.4416    0.0000 C   0  0  0  0  0  0  0  0  0  0  0  0
    7.2050   -1.8030    0.0000 C   0  0  0  0  0  0  0  0  0  0  0  0
    7.4968   -1.0313    0.0000 C   0  0  0  0  0  0  0  0  0  0  0  0
    8.3111   -0.8983    0.0000 C   0  0  0  0  0  0  0  0  0  0  0  0
    8.8334   -1.5369    0.0000 C   0  0  0  0  0  0  0  0  0  0  0  0
    8.6756   -5.0959    0.0000 C   0  0  0  0  0  0  0  0  0  0  0  0
    8.0532   -5.7203    0.0000 C   0  0  0  0  0  0  0  0  0  0  0  0
    8.5594   -6.3718    0.0000 C   0  0  0  0  0  0  0  0  0  0  0  0
    7.2967   -6.1678    0.0000 C   0  0  2  0  0  0  0  0  0  0  0  0
    6.4351   -6.3703    0.0000 C   0  0  0  0  0  0  0  0  0  0  0  0
    5.5140   -6.3706    0.0000 C   0  0  2  0  0  0  0  0  0  0  0  0
    5.1299   -7.1272    0.0000 C   0  0  0  0  0  0  0  0  0  0  0  0
    4.2990   -7.2630    0.0000 C   0  0  0  0  0  0  0  0  0  0  0  0
    3.7904   -6.6074    0.0000 C   0  0  1  0  0  0  0  0  0  0  0  0
    2.9749   -6.7323    0.0000 C   0  0  0  0  0  0  0  0  0  0  0  0
    4.0818   -5.8237    0.0000 C   0  0  1  0  0  0  0  0  0  0  0  0
    3.2785   -6.0117    0.0000 O   0  0  0  0  0  0  0  0  0  0  0  0
    4.9387   -5.7405    0.0000 O   0  0  0  0  0  0  0  0  0  0  0  0
    3.4554   -5.2341    0.0000 C   0  0  0  0  0  0  0  0  0  0  0  0
    2.8601   -5.8053    0.0000 O   0  0  0  0  0  0  0  0  0  0  0  0
    2.9021   -4.5954    0.0000 C   0  0  0  0  0  0  0  0  0  0  0  0
    2.2137   -5.0501    0.0000 O   0  0  0  0  0  0  0  0  0  0  0  0
    2.5350   -3.8424    0.0000 N   0  0  0  0  0  0  0  0  0  0  0  0
    1.9307   -4.4041    0.0000 C   0  0  0  0  0  0  0  0  0  0  0  0
    1.1421   -4.1616    0.0000 C   0  0  0  0  0  0  0  0  0  0  0  0
    0.9579   -3.3574    0.0000 C   0  0  0  0  0  0  0  0  0  0  0  0
    1.5622   -2.7958    0.0000 C   0  0  0  0  0  0  0  0  0  0  0  0
    2.3507   -3.0383    0.0000 C   0  0  1  0  0  0  0  0  0  0  0  0
    2.3463   -2.1818    0.0000 C   0  0  0  0  0  0  0  0  0  0  0  0
    1.5261   -2.0927    0.0000 O   0  0  0  0  0  0  0  0  0  0  0  0
    2.5299   -1.3668    0.0000 O   0  0  0  0  0  0  0  0  0  0  0  0
    7.6046   -6.9332    0.0000 O   0  0  0  0  0  0  0  0  0  0  0  0
    7.0957   -7.5826    0.0000 C   0  0  0  0  0  0  0  0  0  0  0  0
    0.0341   -0.5212    0.0000 C   0  0  0  0  0  0  0  0  0  0  0  0
   -0.6677   -0.0875    0.0000 C   0  0  0  0  0  0  0  0  0  0  0  0
   -0.6431    0.7371    0.0000 C   0  0  1  0  0  0  0  0  0  0  0  0
   -1.3449    1.1708    0.0000 O   0  0  0  0  0  0  0  0  0  0  0  0
  1  2  1  0  0  0  0
  3  2  1  6  0  0  0
  3  4  1  0  0  0  0
  5  4  1  0  0  0  0
  5  6  1  6  0  0  0
  7  6  1  0  0  0  0
  7  8  1  1  0  0  0
  7  9  1  0  0  0  0
  9 10  1  0  0  0  0
 10 11  1  0  0  0  0
 11 12  2  0  0  0  0
 13 11  1  0  0  0  0
 13 14  1  6  0  0  0
 13 15  1  0  0  0  0
 15 16  2  0  0  0  0
 16 17  1  0  0  0  0
 18 16  1  0  0  0  0
 18 19  1  1  0  0  0
 18 20  1  0  0  0  0
 20 21  1  1  0  0  0
 21 22  1  0  0  0  0
 20 23  1  0  0  0  0
 23 24  2  0  0  0  0
 25 23  1  0  0  0  0
 25 26  1  6  0  0  0
 25 27  1  0  0  0  0
 28 27  1  0  0  0  0
 28 29  1  6  0  0  0
 28 30  1  0  0  0  0
 30 31  1  0  0  0  0
 31 32  1  0  0  0  0
 33 32  1  0  0  0  0
 33 34  1  6  0  0  0
 34 35  1  0  0  0  0
 30 35  1  6  0  0  0
 35 36  1  0  0  0  0
 36 37  2  0  0  0  0
 37 38  1  0  0  0  0
 38 39  2  0  0  0  0
 39 40  1  0  0  0  0
 40 41  2  0  0  0  0
 36 41  1  0  0  0  0
 33 42  1  0  0  0  0
 42 43  2  0  0  0  0
 43 44  1  0  0  0  0
 45 43  1  0  0  0  0
 45 46  1  0  0  0  0
 47 46  1  0  0  0  0
 47 48  1  0  0  0  0
 48 49  1  0  0  0  0
 50 49  1  0  0  0  0
 50 51  1  1  0  0  0
 50 52  1  0  0  0  0
 52 53  1  1  0  0  0
 52 54  1  0  0  0  0
 47 54  1  6  0  0  0
 52 55  1  0  0  0  0
 55 56  2  0  0  0  0
 55 57  1  0  0  0  0
 57 58  2  0  0  0  0
 57 59  1  0  0  0  0
 59 60  1  0  0  0  0
 60 61  1  0  0  0  0
 61 62  1  0  0  0  0
 62 63  1  0  0  0  0
 64 63  1  0  0  0  0
 64 59  1  1  0  0  0
 64 65  1  0  0  0  0
 65 66  2  0  0  0  0
 65 67  1  0  0  0  0
  9 67  1  6  0  0  0
 45 68  1  1  0  0  0
 68 69  1  0  0  0  0
  5 70  1  0  0  0  0
 70 71  1  0  0  0  0
 72 71  1  0  0  0  0
  3 72  1  0  0  0  0
 72 73  1  1  0  0  0
M  END
> <DATABASE_ID>
DB15422

> <DATABASE_NAME>
drugbank

> <SMILES>
CO[C@@H]1C[C@H](C[C@@H](C)[C@@H]2CC(=O)[C@H](C)\C=C(C)/[C@@H](O)[C@@H](OC)C(=O)[C@H](C)C[C@H](C)[C@@H]3CC[C@@H](ON3C3=CC=CC=C3)\C=C(C)/[C@H](C[C@@H]3CC[C@@H](C)[C@@](O)(O3)C(=O)C(=O)N3CCCC[C@H]3C(=O)O2)OC)CC[C@H]1O

> <INCHI_IDENTIFIER>
InChI=1S/C57H86N2O14/c1-33-26-37(5)51(62)53(70-10)52(63)38(6)27-34(2)47(61)32-49(35(3)28-40-20-24-46(60)50(30-40)69-9)71-56(66)45-18-14-15-25-58(45)55(65)54(64)57(67)39(7)19-21-42(72-57)31-48(68-8)36(4)29-43-22-23-44(33)59(73-43)41-16-12-11-13-17-41/h11-13,16-17,27,29,33-35,37,39-40,42-46,48-50,52-53,60,63,67H,14-15,18-26,28,30-32H2,1-10H3/b36-29-,38-27-/t33-,34+,35+,37+,39+,40-,42-,43+,44-,45-,46+,48-,49-,50+,52+,53-,57+/m0/s1

> <INCHI_KEY>
WZFNBQBUDJACCD-AYNOCWQQSA-N

> <FORMULA>
C57H86N2O14

> <MOLECULAR_WEIGHT>
1023.315

> <EXACT_MASS>
1022.607905457

> <JCHEM_ACCEPTOR_COUNT>
14

> <JCHEM_ATOM_COUNT>
159

> <JCHEM_AVERAGE_POLARIZABILITY>
111.78295947981906

> <JCHEM_BIOAVAILABILITY>
0

> <JCHEM_DONOR_COUNT>
3

> <JCHEM_FORMAL_CHARGE>
0

> <JCHEM_GHOSE_FILTER>
0

> <JCHEM_IUPAC>
(1R,2E,4S,6S,9R,10R,18S,21S,24R,25E,27R,28R,30R,32S,33S)-10,27-dihydroxy-21-[(2R)-1-[(1S,3R,4R)-4-hydroxy-3-methoxycyclohexyl]propan-2-yl]-4,28-dimethoxy-3,9,24,26,30,32-hexamethyl-34-phenyl-20,35,38-trioxa-13,34-diazatetracyclo[31.2.2.1^{6,10}.0^{13,18}]octatriaconta-2,25-diene-11,12,19,23,29-pentone

> <ALOGPS_LOGP>
5.17

> <JCHEM_LOGP>
8.755320680333337

> <ALOGPS_LOGS>
-5.63

> <JCHEM_MDDR_LIKE_RULE>
1

> <JCHEM_NUMBER_OF_RINGS>
6

> <JCHEM_PHYSIOLOGICAL_CHARGE>
0

> <JCHEM_PKA>
13.371280065438874

> <JCHEM_PKA_STRONGEST_ACIDIC>
9.963728902442345

> <JCHEM_PKA_STRONGEST_BASIC>
-1.1505680100678917

> <JCHEM_POLAR_SURFACE_AREA>
207.89999999999998

> <JCHEM_REFRACTIVITY>
286.34819999999996

> <JCHEM_ROTATABLE_BOND_COUNT>
7

> <JCHEM_RULE_OF_FIVE>
0

> <ALOGPS_SOLUBILITY>
2.37e-03 g/l

> <JCHEM_TRADITIONAL_IUPAC>
(2R)-14-fluoro-2-methyl-6,9,10,19-tetraazapentacyclo[14.2.1.0^{2,6}.0^{8,18}.0^{12,17}]nonadeca-1(18),8,12(17),13,15-pentaen-11-one

> <JCHEM_VEBER_RULE>
0

> <DRUGBANK_ID>
DB15422

> <DRUG_GROUPS>
investigational

> <GENERIC_NAME>
ILS-920

$$$$
