
  Mrv1718007061816082D          

 57  8  0  0  0  0            999 V2000
   -7.8375    5.7750    0.0000 Al  0  1  0  0  0  0  0  0  0  0  0  0
   -7.8375    2.4750    0.0000 Al  0  1  0  0  0  0  0  0  0  0  0  0
   -4.4196    5.7750    0.0000 Al  0  1  0  0  0  0  0  0  0  0  0  0
   -4.4196    2.4750    0.0000 Al  0  1  0  0  0  0  0  0  0  0  0  0
   -0.5303    4.1250    0.0000 Al  0  1  0  0  0  0  0  0  0  0  0  0
    2.5339    4.1250    0.0000 Mg  0  2  0  0  0  0  0  0  0  0  0  0
    5.5982    4.1250    0.0000 Mg  0  2  0  0  0  0  0  0  0  0  0  0
    8.6625    4.1250    0.0000 Mg  0  2  0  0  0  0  0  0  0  0  0  0
   -7.4250    0.8250    0.0000 Mg  0  2  0  0  0  0  0  0  0  0  0  0
   -4.3607    0.8250    0.0000 Mg  0  2  0  0  0  0  0  0  0  0  0  0
   -1.2964    0.8250    0.0000 Mg  0  2  0  0  0  0  0  0  0  0  0  0
    1.7678    0.8250    0.0000 Mg  0  2  0  0  0  0  0  0  0  0  0  0
    4.8321    0.8250    0.0000 Mg  0  2  0  0  0  0  0  0  0  0  0  0
    7.8964    0.8250    0.0000 Mg  0  2  0  0  0  0  0  0  0  0  0  0
   -7.4250   -0.8250    0.0000 Mg  0  2  0  0  0  0  0  0  0  0  0  0
   -7.8375    4.9500    0.0000 O   0  5  0  0  0  0  0  0  0  0  0  0
   -7.8375    3.3000    0.0000 O   0  5  0  0  0  0  0  0  0  0  0  0
   -8.6625    4.1250    0.0000 O   0  0  0  0  0  0  0  0  0  0  0  0
   -7.0125    4.1250    0.0000 O   0  0  0  0  0  0  0  0  0  0  0  0
   -7.8375    4.1250    0.0000 S   0  0  0  0  0  0  0  0  0  0  0  0
   -4.4196    4.9500    0.0000 O   0  5  0  0  0  0  0  0  0  0  0  0
   -4.4196    3.3000    0.0000 O   0  5  0  0  0  0  0  0  0  0  0  0
   -5.2446    4.1250    0.0000 O   0  0  0  0  0  0  0  0  0  0  0  0
   -3.5946    4.1250    0.0000 O   0  0  0  0  0  0  0  0  0  0  0  0
   -4.4196    4.1250    0.0000 S   0  0  0  0  0  0  0  0  0  0  0  0
   -1.3553    4.1250    0.0000 O   0  5  0  0  0  0  0  0  0  0  0  0
    1.7089    4.1250    0.0000 O   0  5  0  0  0  0  0  0  0  0  0  0
    4.7732    4.1250    0.0000 O   0  5  0  0  0  0  0  0  0  0  0  0
    7.8375    4.1250    0.0000 O   0  5  0  0  0  0  0  0  0  0  0  0
   -8.2500    0.8250    0.0000 O   0  5  0  0  0  0  0  0  0  0  0  0
   -5.1857    0.8250    0.0000 O   0  5  0  0  0  0  0  0  0  0  0  0
   -2.1214    0.8250    0.0000 O   0  5  0  0  0  0  0  0  0  0  0  0
    0.9428    0.8250    0.0000 O   0  5  0  0  0  0  0  0  0  0  0  0
    4.0071    0.8250    0.0000 O   0  5  0  0  0  0  0  0  0  0  0  0
    7.0714    0.8250    0.0000 O   0  5  0  0  0  0  0  0  0  0  0  0
   -8.2500   -0.8250    0.0000 O   0  5  0  0  0  0  0  0  0  0  0  0
   -5.0678   -0.8250    0.0000 O   0  5  0  0  0  0  0  0  0  0  0  0
   -3.9482   -0.8250    0.0000 O   0  5  0  0  0  0  0  0  0  0  0  0
   -2.8285   -0.8250    0.0000 O   0  5  0  0  0  0  0  0  0  0  0  0
   -1.7089   -0.8250    0.0000 O   0  5  0  0  0  0  0  0  0  0  0  0
   -0.5892   -0.8250    0.0000 O   0  5  0  0  0  0  0  0  0  0  0  0
   -7.8375   -2.4750    0.0000 O   0  5  0  0  0  0  0  0  0  0  0  0
   -6.7178   -2.4750    0.0000 O   0  5  0  0  0  0  0  0  0  0  0  0
   -5.5982   -2.4750    0.0000 O   0  5  0  0  0  0  0  0  0  0  0  0
   -4.4785   -2.4750    0.0000 O   0  5  0  0  0  0  0  0  0  0  0  0
   -3.3589   -2.4750    0.0000 O   0  5  0  0  0  0  0  0  0  0  0  0
   -2.2392   -2.4750    0.0000 O   0  5  0  0  0  0  0  0  0  0  0  0
   -7.8375   -4.1250    0.0000 O   0  5  0  0  0  0  0  0  0  0  0  0
   -6.7178   -4.1250    0.0000 O   0  5  0  0  0  0  0  0  0  0  0  0
   -5.5982   -4.1250    0.0000 O   0  5  0  0  0  0  0  0  0  0  0  0
   -4.4785   -4.1250    0.0000 O   0  5  0  0  0  0  0  0  0  0  0  0
   -3.3589   -4.1250    0.0000 O   0  5  0  0  0  0  0  0  0  0  0  0
   -2.2392   -4.1250    0.0000 O   0  5  0  0  0  0  0  0  0  0  0  0
   -7.8375   -5.7750    0.0000 O   0  5  0  0  0  0  0  0  0  0  0  0
   -6.7178   -5.7750    0.0000 O   0  5  0  0  0  0  0  0  0  0  0  0
   -5.5982   -5.7750    0.0000 O   0  5  0  0  0  0  0  0  0  0  0  0
   -3.2410   -5.7750    0.0000 O   0  0  0  0  0  0  0  0  0  0  0  0
 20 16  1  0  0  0  0
 20 17  1  0  0  0  0
 20 18  2  0  0  0  0
 20 19  2  0  0  0  0
 25 21  1  0  0  0  0
 25 22  1  0  0  0  0
 25 23  2  0  0  0  0
 25 24  2  0  0  0  0
M  CHG  8   1   3   2   3   3   3   4   3   5   3   6   2   7   2   8   2
M  CHG  8   9   2  10   2  11   2  12   2  13   2  14   2  15   2  16  -1
M  CHG  8  17  -1  21  -1  22  -1  26  -1  27  -1  28  -1  29  -1  30  -1
M  CHG  8  31  -1  32  -1  33  -1  34  -1  35  -1  36  -1  37  -1  38  -1
M  CHG  8  39  -1  40  -1  41  -1  42  -1  43  -1  44  -1  45  -1  46  -1
M  CHG  8  47  -1  48  -1  49  -1  50  -1  51  -1  52  -1  53  -1  54  -1
M  CHG  2  55  -1  56  -1
M  END
> <DATABASE_ID>
DB08938

> <DATABASE_NAME>
drugbank

> <SMILES>
O.[OH-].[OH-].[OH-].[OH-].[OH-].[OH-].[OH-].[OH-].[OH-].[OH-].[OH-].[OH-].[OH-].[OH-].[OH-].[OH-].[OH-].[OH-].[OH-].[OH-].[OH-].[OH-].[OH-].[OH-].[OH-].[OH-].[OH-].[OH-].[OH-].[OH-].[OH-].[Mg++].[Mg++].[Mg++].[Mg++].[Mg++].[Mg++].[Mg++].[Mg++].[Mg++].[Mg++].[Al+3].[Al+3].[Al+3].[Al+3].[Al+3].[O-]S([O-])(=O)=O.[O-]S([O-])(=O)=O

> <INCHI_IDENTIFIER>
InChI=1S/5Al.10Mg.2H2O4S.32H2O/c;;;;;;;;;;;;;;;2*1-5(2,3)4;;;;;;;;;;;;;;;;;;;;;;;;;;;;;;;;/h;;;;;;;;;;;;;;;2*(H2,1,2,3,4);32*1H2/q5*+3;10*+2;;;;;;;;;;;;;;;;;;;;;;;;;;;;;;;;;;/p-35

> <INCHI_KEY>
SPPNVMTVMQOKSC-UHFFFAOYSA-A

> <FORMULA>
Al5H33Mg10O40S2

> <MOLECULAR_WEIGHT>
1115.3

> <EXACT_MASS>
1111.7570627

> <JCHEM_ACCEPTOR_COUNT>
4

> <JCHEM_ATOM_COUNT>
90

> <JCHEM_AVERAGE_POLARIZABILITY>
5.805278247285028

> <JCHEM_BIOAVAILABILITY>
1

> <JCHEM_DONOR_COUNT>
0

> <JCHEM_FORMAL_CHARGE>
0

> <JCHEM_GHOSE_FILTER>
0

> <JCHEM_IUPAC>
pentaaluminium(3+) decamagnesium(2+) hydrate hentriacontahydroxide disulfate

> <JCHEM_LOGP>
-0.8415520233333333

> <JCHEM_MDDR_LIKE_RULE>
0

> <JCHEM_NUMBER_OF_RINGS>
0

> <JCHEM_PHYSIOLOGICAL_CHARGE>
-2

> <JCHEM_PKA>
1.8964254257138706

> <JCHEM_PKA_STRONGEST_ACIDIC>
-3.034349054191991

> <JCHEM_POLAR_SURFACE_AREA>
80.25999999999999

> <JCHEM_REFRACTIVITY>
11.5274

> <JCHEM_ROTATABLE_BOND_COUNT>
0

> <JCHEM_RULE_OF_FIVE>
0

> <JCHEM_TRADITIONAL_IUPAC>
pentaaluminium(3+) decamagnesium(2+) hydrate hentriacontahydroxide disulfate

> <JCHEM_VEBER_RULE>
0

> <DRUGBANK_ID>
DB08938

> <DRUG_GROUPS>
approved; withdrawn

> <GENERIC_NAME>
Magaldrate

> <SYNONYMS>
Aluminium magnesium hydroxide sulfate hydrate; Aluminum magnesium hydroxide sulfate hydrate; Aluminum magnesium hydroxide sulphate hydrate; Hydrate magnesium aluminate activated sulfate; Magaldrate; Magaldrato; Magaldratum; Magnesium aluminate hydrate; Monalium hydrate

> <PRODUCTS>
Riopan Chewable Tablets 480mg; Riopan Plus Sus; Riopan Plus Suspension; Riopan Plus Tablets; Riopan Sus 480mg/5ml; Riopan Suspension 480mg/5ml; Riopan Tab 480mg; Zantanol Tab.

> <INTERNATIONAL_BRANDS>
Almadrat T; Almagel T; Antashin; Bemolan; Cremag; Glysan; Lowsium; Magacid; Malugastrin; Riopan; Sanaflat

$$$$
