
  Mrv1718006271813462D          

  4  2  0  0  0  0            999 V2000
   -2.0035    0.0000    0.0000 O   0  0  0  0  0  0  0  0  0  0  0  0
   -0.3535    0.0000    0.0000 O   0  0  0  0  0  0  0  0  0  0  0  0
   -1.1785    0.0000    0.0000 Si  0  0  0  0  0  0  0  0  0  0  0  0
    2.0035    0.0000    0.0000 O   0  0  0  0  0  0  0  0  0  0  0  0
  3  1  2  0  0  0  0
  3  2  2  0  0  0  0
M  END
> <DATABASE_ID>
DB14138

> <DATABASE_NAME>
drugbank

> <SMILES>
O.O=[Si]=O

> <INCHI_IDENTIFIER>
InChI=1S/O2Si.H2O/c1-3-2;/h;1H2

> <INCHI_KEY>
LRCFXGAMWKDGLA-UHFFFAOYSA-N

> <FORMULA>
H2O3Si

> <MOLECULAR_WEIGHT>
78.098

> <EXACT_MASS>
77.977320459

> <JCHEM_ACCEPTOR_COUNT>
2

> <JCHEM_ATOM_COUNT>
6

> <JCHEM_AVERAGE_POLARIZABILITY>
3.2811468900078617

> <JCHEM_BIOAVAILABILITY>
1

> <JCHEM_DONOR_COUNT>
0

> <JCHEM_FORMAL_CHARGE>
0

> <JCHEM_GHOSE_FILTER>
0

> <JCHEM_IUPAC>
silanedione hydrate

> <JCHEM_LOGP>
-0.6577999999999999

> <JCHEM_MDDR_LIKE_RULE>
0

> <JCHEM_NUMBER_OF_RINGS>
0

> <JCHEM_PHYSIOLOGICAL_CHARGE>
0

> <JCHEM_PKA_STRONGEST_BASIC>
-8.532702804224158

> <JCHEM_POLAR_SURFACE_AREA>
34.14

> <JCHEM_REFRACTIVITY>
2.8858

> <JCHEM_ROTATABLE_BOND_COUNT>
0

> <JCHEM_RULE_OF_FIVE>
1

> <JCHEM_TRADITIONAL_IUPAC>
silica hydrate

> <JCHEM_VEBER_RULE>
1

> <DRUGBANK_ID>
DB14138

> <DRUG_GROUPS>
experimental

> <GENERIC_NAME>
Silicic acid

> <SYNONYMS>
Hydrated silica; Hydrosilicic acid; Silica hydrate; Silica, hydrated; Silicic acid hydrate; Silicon dioxide hydrate

> <PRODUCTS>
BeanGuard Sensitivetoothpaste; DR.EL Very Good Tooth; Dr.EL BERRYGOOD TOOTH; Dr.EL CHARCOR PARTY TOOTH; Dr.chois Toothpaste Step One Babies; Dr.chois Toothpaste Step Two Kids; Medif White Tooth; Nlihome Dental Care; Rooisland Tooth

$$$$
