
  Mrv1652306131722032D          

  9  8  0  0  1  0            999 V2000
    1.7605    1.0164    0.0000 C   0  0  0  0  0  0  0  0  0  0  0  0
    2.4750    1.4289    0.0000 Se  0  0  0  0  0  0  0  0  0  0  0  0
    3.1895    1.8414    0.0000 C   0  0  0  0  0  0  0  0  0  0  0  0
    3.9039    1.4289    0.0000 C   0  0  0  0  0  0  0  0  0  0  0  0
    4.6184    1.8414    0.0000 C   0  0  1  0  0  0  0  0  0  0  0  0
    5.3329    1.4289    0.0000 C   0  0  0  0  0  0  0  0  0  0  0  0
    6.0474    1.8414    0.0000 O   0  0  0  0  0  0  0  0  0  0  0  0
    5.3329    0.6039    0.0000 O   0  0  0  0  0  0  0  0  0  0  0  0
    4.6184    2.6664    0.0000 N   0  0  0  0  0  0  0  0  0  0  0  0
  1  2  1  0  0  0  0
  2  3  1  0  0  0  0
  3  4  1  0  0  0  0
  4  5  1  0  0  0  0
  5  6  1  0  0  0  0
  6  7  2  0  0  0  0
  6  8  1  0  0  0  0
  5  9  1  6  0  0  0
M  ISO  1   2  75
M  END
> <DATABASE_ID>
DB09400

> <DATABASE_NAME>
drugbank

> <SMILES>
C[75Se]CC[C@H](N)C(O)=O

> <INCHI_IDENTIFIER>
InChI=1S/C5H11NO2Se/c1-9-3-2-4(6)5(7)8/h4H,2-3,6H2,1H3,(H,7,8)/t4-/m0/s1/i9-4

> <INCHI_KEY>
RJFAYQIBOAGBLC-ZEMBQCNESA-N

> <FORMULA>
C5H11NO2Se

> <MOLECULAR_WEIGHT>
192.071

> <EXACT_MASS>
192.001502169

> <JCHEM_ACCEPTOR_COUNT>
4

> <JCHEM_ATOM_COUNT>
20

> <JCHEM_AVERAGE_POLARIZABILITY>
14.638332052450323

> <JCHEM_BIOAVAILABILITY>
1

> <JCHEM_DONOR_COUNT>
2

> <JCHEM_FORMAL_CHARGE>
0

> <JCHEM_GHOSE_FILTER>
0

> <JCHEM_IUPAC>
(2S)-2-amino-4-[methyl(â·âµSe)selanyl]butanoic acid

> <ALOGPS_LOGP>
-2.46

> <JCHEM_LOGP>
-3.3019949587229283

> <ALOGPS_LOGS>
-0.25

> <JCHEM_MDDR_LIKE_RULE>
0

> <JCHEM_NUMBER_OF_RINGS>
0

> <JCHEM_PHYSIOLOGICAL_CHARGE>
0

> <JCHEM_PKA_STRONGEST_ACIDIC>
1.5595213885250399

> <JCHEM_PKA_STRONGEST_BASIC>
9.502319448582847

> <JCHEM_POLAR_SURFACE_AREA>
63.31999999999999

> <JCHEM_REFRACTIVITY>
42.9074

> <JCHEM_ROTATABLE_BOND_COUNT>
4

> <JCHEM_RULE_OF_FIVE>
1

> <ALOGPS_SOLUBILITY>
1.09e+02 g/l

> <JCHEM_TRADITIONAL_IUPAC>
selenomethionine se 75

> <JCHEM_VEBER_RULE>
0

> <DRUGBANK_ID>
DB09400

> <DRUG_GROUPS>
approved

> <GENERIC_NAME>
Selenomethionine Se-75

> <SYNONYMS>
Selenomethionine (75 Se); Selenomethionine (75Se); Selenomethionine Se 75; Selenometionina (75 Se)

> <PRODUCTS>
Megavite Rx

$$$$
