
  Mrv1909 12081923322D          

 45 48  0  0  0  0            999 V2000
   -2.8579   -1.8562    0.0000 S   0  0  0  0  0  0  0  0  0  0  0  0
   -3.2704   -1.1418    0.0000 O   0  0  0  0  0  0  0  0  0  0  0  0
   -2.4453   -2.5707    0.0000 O   0  0  0  0  0  0  0  0  0  0  0  0
    0.0000    0.6187    0.0000 O   0  0  0  0  0  0  0  0  0  0  0  0
    1.4289    2.2687    0.0000 O   0  0  0  0  0  0  0  0  0  0  0  0
    0.7145    1.0312    0.0000 O   0  0  0  0  0  0  0  0  0  0  0  0
   -1.4289    0.6187    0.0000 N   0  0  0  0  0  0  0  0  0  0  0  0
    0.0000    2.2687    0.0000 N   0  0  0  0  0  0  0  0  0  0  0  0
   -1.4289   -0.2062    0.0000 C   0  0  2  0  0  0  0  0  0  0  0  0
   -2.1434   -0.6187    0.0000 C   0  0  0  0  0  0  0  0  0  0  0  0
   -0.7145   -0.6187    0.0000 C   0  0  0  0  0  0  0  0  0  0  0  0
   -2.1434   -1.4437    0.0000 C   0  0  0  0  0  0  0  0  0  0  0  0
    0.0000   -0.2062    0.0000 C   0  0  0  0  0  0  0  0  0  0  0  0
   -3.5724   -2.2687    0.0000 C   0  0  0  0  0  0  0  0  0  0  0  0
   -0.7145    1.0312    0.0000 C   0  0  0  0  0  0  0  0  0  0  0  0
   -0.7145    1.8562    0.0000 C   0  0  2  0  0  0  0  0  0  0  0  0
    0.7145   -0.6187    0.0000 C   0  0  0  0  0  0  0  0  0  0  0  0
   -1.4289    2.2687    0.0000 C   0  0  0  0  0  0  0  0  0  0  0  0
   -3.5724   -3.0938    0.0000 C   0  0  0  0  0  0  0  0  0  0  0  0
    1.4289   -0.2062    0.0000 C   0  0  0  0  0  0  0  0  0  0  0  0
    0.7145   -1.4437    0.0000 C   0  0  0  0  0  0  0  0  0  0  0  0
   -1.4289    3.0938    0.0000 C   0  0  0  0  0  0  0  0  0  0  0  0
   -2.8579   -3.5063    0.0000 C   0  0  0  0  0  0  0  0  0  0  0  0
   -4.2869   -3.5063    0.0000 C   0  0  0  0  0  0  0  0  0  0  0  0
    2.1434   -0.6187    0.0000 C   0  0  0  0  0  0  0  0  0  0  0  0
    1.4289   -1.8562    0.0000 C   0  0  0  0  0  0  0  0  0  0  0  0
   -2.1434    3.5063    0.0000 C   0  0  0  0  0  0  0  0  0  0  0  0
   -0.7145    3.5063    0.0000 C   0  0  0  0  0  0  0  0  0  0  0  0
    0.7145    1.8562    0.0000 C   0  0  0  0  0  0  0  0  0  0  0  0
    2.1434   -1.4437    0.0000 C   0  0  0  0  0  0  0  0  0  0  0  0
   -2.8579   -4.3313    0.0000 C   0  0  0  0  0  0  0  0  0  0  0  0
   -4.2869   -4.3313    0.0000 C   0  0  0  0  0  0  0  0  0  0  0  0
   -3.5724   -4.7438    0.0000 C   0  0  0  0  0  0  0  0  0  0  0  0
   -2.1434    4.3313    0.0000 C   0  0  0  0  0  0  0  0  0  0  0  0
   -0.7145    4.3313    0.0000 C   0  0  0  0  0  0  0  0  0  0  0  0
   -1.4289    4.7438    0.0000 C   0  0  0  0  0  0  0  0  0  0  0  0
    2.1434    1.8562    0.0000 C   0  0  0  0  0  0  0  0  0  0  0  0
    2.8579    2.2687    0.0000 C   0  0  0  0  0  0  0  0  0  0  0  0
    3.5724    1.8562    0.0000 C   0  0  0  0  0  0  0  0  0  0  0  0
    2.8579    3.0938    0.0000 C   0  0  0  0  0  0  0  0  0  0  0  0
    4.2869    2.2687    0.0000 C   0  0  0  0  0  0  0  0  0  0  0  0
    3.5724    3.5063    0.0000 C   0  0  0  0  0  0  0  0  0  0  0  0
    4.2869    3.0938    0.0000 C   0  0  0  0  0  0  0  0  0  0  0  0
   -1.8719    0.8745    0.0000 H   0  0  0  0  0  0  0  0  0  0  0  0
    0.0000    2.7803    0.0000 H   0  0  0  0  0  0  0  0  0  0  0  0
  1  2  2  0  0  0  0
  1  3  2  0  0  0  0
  1 12  1  0  0  0  0
  1 14  1  0  0  0  0
  4 15  2  0  0  0  0
  5 29  1  0  0  0  0
  5 37  1  0  0  0  0
  6 29  2  0  0  0  0
  9  7  1  1  0  0  0
  7 15  1  0  0  0  0
  7 44  1  0  0  0  0
 16  8  1  6  0  0  0
  8 29  1  0  0  0  0
  8 45  1  0  0  0  0
  9 10  1  0  0  0  0
  9 11  1  0  0  0  0
 10 12  1  0  0  0  0
 11 13  1  0  0  0  0
 13 17  1  0  0  0  0
 14 19  1  0  0  0  0
 15 16  1  0  0  0  0
 16 18  1  0  0  0  0
 17 20  2  0  0  0  0
 17 21  1  0  0  0  0
 18 22  1  0  0  0  0
 19 23  2  0  0  0  0
 19 24  1  0  0  0  0
 20 25  1  0  0  0  0
 21 26  2  0  0  0  0
 22 27  2  0  0  0  0
 22 28  1  0  0  0  0
 23 31  1  0  0  0  0
 24 32  2  0  0  0  0
 25 30  2  0  0  0  0
 26 30  1  0  0  0  0
 27 34  1  0  0  0  0
 28 35  2  0  0  0  0
 31 33  2  0  0  0  0
 32 33  1  0  0  0  0
 34 36  2  0  0  0  0
 35 36  1  0  0  0  0
 37 38  1  0  0  0  0
 38 39  2  0  0  0  0
 38 40  1  0  0  0  0
 39 41  1  0  0  0  0
 40 42  2  0  0  0  0
 41 43  2  0  0  0  0
 42 43  1  0  0  0  0
M  END
> <DATABASE_ID>
DB02200

> <DATABASE_NAME>
drugbank

> <SMILES>
[H]N([C@@H](CCC1=CC=CC=C1)CCS(=O)(=O)CC1=CC=CC=C1)C(=O)[C@H](CC1=CC=CC=C1)N([H])C(=O)OCC1=CC=CC=C1

> <INCHI_IDENTIFIER>
InChI=1S/C35H38N2O5S/c38-34(33(25-29-15-7-2-8-16-29)37-35(39)42-26-30-17-9-3-10-18-30)36-32(22-21-28-13-5-1-6-14-28)23-24-43(40,41)27-31-19-11-4-12-20-31/h1-20,32-33H,21-27H2,(H,36,38)(H,37,39)/t32-,33-/m0/s1

> <INCHI_KEY>
VXIINIMESJGNGI-LQJZCPKCSA-N

> <FORMULA>
C35H38N2O5S

> <MOLECULAR_WEIGHT>
598.752

> <EXACT_MASS>
598.250143026

> <JCHEM_ACCEPTOR_COUNT>
4

> <JCHEM_ATOM_COUNT>
81

> <JCHEM_AVERAGE_POLARIZABILITY>
65.95202597833591

> <JCHEM_BIOAVAILABILITY>
0

> <JCHEM_DONOR_COUNT>
2

> <JCHEM_FORMAL_CHARGE>
0

> <JCHEM_GHOSE_FILTER>
0

> <JCHEM_IUPAC>
benzyl N-[(1S)-2-phenyl-1-{[(3S)-1-phenyl-5-phenylmethanesulfonylpentan-3-yl]carbamoyl}ethyl]carbamate

> <ALOGPS_LOGP>
4.94

> <JCHEM_LOGP>
5.790744023666665

> <ALOGPS_LOGS>
-7.14

> <JCHEM_MDDR_LIKE_RULE>
1

> <JCHEM_NUMBER_OF_RINGS>
4

> <JCHEM_PHYSIOLOGICAL_CHARGE>
0

> <JCHEM_PKA>
15.187833089265476

> <JCHEM_PKA_STRONGEST_ACIDIC>
13.335066110995777

> <JCHEM_PKA_STRONGEST_BASIC>
-3.5789868403644243

> <JCHEM_POLAR_SURFACE_AREA>
101.57

> <JCHEM_REFRACTIVITY>
169.02999999999997

> <JCHEM_ROTATABLE_BOND_COUNT>
16

> <JCHEM_RULE_OF_FIVE>
0

> <ALOGPS_SOLUBILITY>
4.34e-05 g/l

> <JCHEM_TRADITIONAL_IUPAC>
trihydrate zinc

> <JCHEM_VEBER_RULE>
0

> <DRUGBANK_ID>
DB02200

> <SECONDARY_ACCESSION_NUMBERS>
EXPT03232

> <DRUG_GROUPS>
experimental

> <GENERIC_NAME>
3-[N-[benzyloxycarbonyl]-phenylalaninyl-amino]-5-phenyl-pentane-1-sulfonylmethylbenzene

$$$$
