
  Mrv1909 05201914552D          

 39 44  0  0  0  0            999 V2000
    9.9851   -0.5542    0.0000 O   0  0  0  0  0  0  0  0  0  0  0  0
    9.2500   -0.9288    0.0000 C   0  0  0  0  0  0  0  0  0  0  0  0
    8.5581   -0.4794    0.0000 O   0  0  0  0  0  0  0  0  0  0  0  0
    9.2068   -1.7526    0.0000 C   0  0  0  0  0  0  0  0  0  0  0  0
    9.8987   -2.2020    0.0000 C   0  0  0  0  0  0  0  0  0  0  0  0
    9.8556   -3.0258    0.0000 C   0  0  0  0  0  0  0  0  0  0  0  0
    9.1205   -3.4004    0.0000 N   0  0  0  0  0  0  0  0  0  0  0  0
    8.4286   -2.9510    0.0000 C   0  0  0  0  0  0  0  0  0  0  0  0
    8.4718   -2.1272    0.0000 C   0  0  0  0  0  0  0  0  0  0  0  0
    7.6935   -3.3256    0.0000 N   0  0  0  0  0  0  0  0  0  0  0  0
    7.4386   -4.1102    0.0000 C   0  0  0  0  0  0  0  0  0  0  0  0
    6.6539   -3.8553    0.0000 C   0  0  0  0  0  0  0  0  0  0  0  0
    6.3990   -4.6399    0.0000 O   0  0  0  0  0  0  0  0  0  0  0  0
    6.9089   -3.0706    0.0000 C   0  0  0  0  0  0  0  0  0  0  0  0
    5.8693   -3.6003    0.0000 C   0  0  0  0  0  0  0  0  0  0  0  0
    5.2562   -4.1524    0.0000 C   0  0  0  0  0  0  0  0  0  0  0  0
    5.4277   -4.9593    0.0000 Cl  0  0  0  0  0  0  0  0  0  0  0  0
    4.4716   -3.8974    0.0000 C   0  0  0  0  0  0  0  0  0  0  0  0
    4.3001   -3.0904    0.0000 C   0  0  0  0  0  0  0  0  0  0  0  0
    3.5155   -2.8355    0.0000 O   0  0  0  0  0  0  0  0  0  0  0  0
    3.3439   -2.0285    0.0000 C   0  0  0  0  0  0  0  0  0  0  0  0
    2.5593   -1.7736    0.0000 C   0  0  0  0  0  0  0  0  0  0  0  0
    1.8919   -2.2585    0.0000 C   0  0  0  0  0  0  0  0  0  0  0  0
    1.2244   -1.7736    0.0000 O   0  0  0  0  0  0  0  0  0  0  0  0
    1.4794   -0.9890    0.0000 N   0  0  0  0  0  0  0  0  0  0  0  0
    2.3044   -0.9890    0.0000 C   0  0  0  0  0  0  0  0  0  0  0  0
    2.7893   -0.3215    0.0000 C   0  0  0  0  0  0  0  0  0  0  0  0
    2.4537    0.4321    0.0000 C   0  0  0  0  0  0  0  0  0  0  0  0
    1.6332    0.5184    0.0000 Cl  0  0  0  0  0  0  0  0  0  0  0  0
    2.9387    1.0996    0.0000 C   0  0  0  0  0  0  0  0  0  0  0  0
    3.7591    1.0133    0.0000 C   0  0  0  0  0  0  0  0  0  0  0  0
    4.0947    0.2597    0.0000 C   0  0  0  0  0  0  0  0  0  0  0  0
    3.6098   -0.4078    0.0000 C   0  0  0  0  0  0  0  0  0  0  0  0
    3.9453   -1.1614    0.0000 Cl  0  0  0  0  0  0  0  0  0  0  0  0
    1.8919   -3.0835    0.0000 C   0  0  0  0  0  0  0  0  0  0  0  0
    2.3044   -3.7980    0.0000 C   0  0  0  0  0  0  0  0  0  0  0  0
    1.4794   -3.7980    0.0000 C   0  0  0  0  0  0  0  0  0  0  0  0
    4.9132   -2.5384    0.0000 C   0  0  0  0  0  0  0  0  0  0  0  0
    5.6978   -2.7933    0.0000 C   0  0  0  0  0  0  0  0  0  0  0  0
  1  2  1  0  0  0  0
  2  3  2  0  0  0  0
  2  4  1  0  0  0  0
  4  5  2  0  0  0  0
  5  6  1  0  0  0  0
  6  7  2  0  0  0  0
  7  8  1  0  0  0  0
  8  9  2  0  0  0  0
  4  9  1  0  0  0  0
  8 10  1  0  0  0  0
 10 11  1  0  0  0  0
 11 12  1  0  0  0  0
 12 13  1  0  0  0  0
 12 14  1  0  0  0  0
 10 14  1  0  0  0  0
 12 15  1  0  0  0  0
 15 16  2  0  0  0  0
 16 17  1  0  0  0  0
 16 18  1  0  0  0  0
 18 19  2  0  0  0  0
 19 20  1  0  0  0  0
 20 21  1  0  0  0  0
 21 22  1  0  0  0  0
 22 23  2  0  0  0  0
 23 24  1  0  0  0  0
 24 25  1  0  0  0  0
 25 26  2  0  0  0  0
 22 26  1  0  0  0  0
 26 27  1  0  0  0  0
 27 28  2  0  0  0  0
 28 29  1  0  0  0  0
 28 30  1  0  0  0  0
 30 31  2  0  0  0  0
 31 32  1  0  0  0  0
 32 33  2  0  0  0  0
 27 33  1  0  0  0  0
 33 34  1  0  0  0  0
 23 35  1  0  0  0  0
 35 36  1  0  0  0  0
 36 37  1  0  0  0  0
 35 37  1  0  0  0  0
 19 38  1  0  0  0  0
 38 39  2  0  0  0  0
 15 39  1  0  0  0  0
M  END
> <DATABASE_ID>
DB15168

> <DATABASE_NAME>
drugbank

> <SMILES>
OC(=O)C1=CC=NC(=C1)N1CC(O)(C1)C1=C(Cl)C=C(OCC2=C(ON=C2C2=C(Cl)C=CC=C2Cl)C2CC2)C=C1

> <INCHI_IDENTIFIER>
InChI=1S/C28H22Cl3N3O5/c29-20-2-1-3-21(30)24(20)25-18(26(39-33-25)15-4-5-15)12-38-17-6-7-19(22(31)11-17)28(37)13-34(14-28)23-10-16(27(35)36)8-9-32-23/h1-3,6-11,15,37H,4-5,12-14H2,(H,35,36)

> <INCHI_KEY>
KZSKGLFYQAYZCO-UHFFFAOYSA-N

> <FORMULA>
C28H22Cl3N3O5

> <MOLECULAR_WEIGHT>
586.85

> <EXACT_MASS>
585.0625039

> <JCHEM_ACCEPTOR_COUNT>
7

> <JCHEM_ATOM_COUNT>
61

> <JCHEM_AVERAGE_POLARIZABILITY>
56.81375477869177

> <JCHEM_BIOAVAILABILITY>
1

> <JCHEM_DONOR_COUNT>
2

> <JCHEM_FORMAL_CHARGE>
0

> <JCHEM_GHOSE_FILTER>
0

> <JCHEM_IUPAC>
2-[3-(2-chloro-4-{[5-cyclopropyl-3-(2,6-dichlorophenyl)-1,2-oxazol-4-yl]methoxy}phenyl)-3-hydroxyazetidin-1-yl]pyridine-4-carboxylic acid

> <ALOGPS_LOGP>
5.36

> <JCHEM_LOGP>
4.64550100973898

> <ALOGPS_LOGS>
-4.30

> <JCHEM_MDDR_LIKE_RULE>
1

> <JCHEM_NUMBER_OF_RINGS>
6

> <JCHEM_PHYSIOLOGICAL_CHARGE>
0

> <JCHEM_PKA>
13.2541214987145

> <JCHEM_PKA_STRONGEST_ACIDIC>
0.44528555541450676

> <JCHEM_PKA_STRONGEST_BASIC>
8.141116836248697

> <JCHEM_POLAR_SURFACE_AREA>
108.92

> <JCHEM_REFRACTIVITY>
148.43459999999996

> <JCHEM_ROTATABLE_BOND_COUNT>
7

> <JCHEM_RULE_OF_FIVE>
0

> <ALOGPS_SOLUBILITY>
2.95e-02 g/l

> <JCHEM_TRADITIONAL_IUPAC>
(2R)-14-fluoro-2-methyl-6,9,10,19-tetraazapentacyclo[14.2.1.0^{2,6}.0^{8,18}.0^{12,17}]nonadeca-1(18),8,12(17),13,15-pentaen-11-one

> <JCHEM_VEBER_RULE>
0

> <DRUGBANK_ID>
DB15168

> <DRUG_GROUPS>
investigational

> <GENERIC_NAME>
Cilofexor

> <SYNONYMS>
Cilofexor

$$$$
