
  Mrv1909 02282022362D          

  6  5  0  0  0  0            999 V2000
   -0.3576   -0.0020    0.0000 S   0  0  0  0  0  0  0  0  0  0  0  0
    0.3575   -0.4203    0.0000 C   0  0  0  0  0  0  0  0  0  0  0  0
   -1.0686    0.4204    0.0000 O   0  0  0  0  0  0  0  0  0  0  0  0
   -0.7758   -0.7130    0.0000 O   0  0  0  0  0  0  0  0  0  0  0  0
    0.0648    0.7130    0.0000 O   0  0  0  0  0  0  0  0  0  0  0  0
    1.0686   -0.0020    0.0000 C   0  0  0  0  0  0  0  0  0  0  0  0
  2  1  1  0  0  0  0
  3  1  2  0  0  0  0
  4  1  2  0  0  0  0
  5  1  1  0  0  0  0
  6  2  2  0  0  0  0
M  END
> <DATABASE_ID>
DB04359

> <DATABASE_NAME>
drugbank

> <SMILES>
OS(=O)(=O)C=C

> <INCHI_IDENTIFIER>
InChI=1S/C2H4O3S/c1-2-6(3,4)5/h2H,1H2,(H,3,4,5)

> <INCHI_KEY>
NLVXSWCKKBEXTG-UHFFFAOYSA-N

> <FORMULA>
C2H4O3S

> <MOLECULAR_WEIGHT>
108.116

> <EXACT_MASS>
107.988114684

> <JCHEM_ACCEPTOR_COUNT>
3

> <JCHEM_ATOM_COUNT>
10

> <JCHEM_AVERAGE_NEUTRAL_MICROSPECIES_CHARGE>
-0.9999999952734996

> <JCHEM_AVERAGE_POLARIZABILITY>
8.593584502777516

> <JCHEM_BIOAVAILABILITY>
1

> <JCHEM_DONOR_COUNT>
1

> <JCHEM_FORMAL_CHARGE>
0

> <JCHEM_GHOSE_FILTER>
0

> <JCHEM_IUPAC>
ethenesulfonic acid

> <ALOGPS_LOGP>
-1.86

> <JCHEM_LOGP>
-0.22802569666666664

> <ALOGPS_LOGS>
-0.73

> <JCHEM_MDDR_LIKE_RULE>
0

> <JCHEM_NEUTRAL_CHARGE>
-1

> <JCHEM_NUMBER_OF_RINGS>
0

> <JCHEM_PHYSIOLOGICAL_CHARGE>
-1

> <JCHEM_PKA_STRONGEST_ACIDIC>
-1.3254602941712088

> <JCHEM_POLAR_SURFACE_AREA>
54.37

> <JCHEM_REFRACTIVITY>
20.688499999999998

> <JCHEM_ROTATABLE_BOND_COUNT>
1

> <JCHEM_RULE_OF_FIVE>
1

> <ALOGPS_SOLUBILITY>
2.02e+01 g/l

> <JCHEM_TRADITIONAL_IUPAC>
L-saccharopine

> <JCHEM_VEBER_RULE>
0

> <DRUGBANK_ID>
DB04359

> <SECONDARY_ACCESSION_NUMBERS>
EXPT03236

> <DRUG_GROUPS>
experimental

> <GENERIC_NAME>
Vinylsulfonic acid

> <SYNONYMS>
Ethylenesulfonic acid; Vinylsulphonic acid

$$$$
