MSI
  Mrv0541 02241213562D          

 29 32  0  0  0  0            999 V2000
    0.7778   -0.6767    0.0000 S   0  0  0  0  0  0  0  0  0  0  0  0
   -2.1502   -2.1691    0.0000 N   0  0  0  0  0  0  0  0  0  0  0  0
    1.4923   -0.2642    0.0000 N   0  0  0  0  0  0  0  0  0  0  0  0
    0.1808    0.8534    0.0000 O   0  0  0  0  0  0  0  0  0  0  0  0
   -3.4601   -1.5017    0.0000 O   0  0  0  0  0  0  0  0  0  0  0  0
   -2.4052   -0.0496    0.0000 O   0  0  0  0  0  0  0  0  0  0  0  0
    1.1903   -1.3912    0.0000 O   0  0  0  0  0  0  0  0  0  0  0  0
    0.3653    0.0378    0.0000 O   0  0  0  0  0  0  0  0  0  0  0  0
   -2.6351   -1.5017    0.0000 C   0  0  0  0  0  0  0  0  0  0  0  0
   -2.1502   -0.8343    0.0000 C   0  0  0  0  0  0  0  0  0  0  0  0
   -0.6511   -0.6767    0.0000 C   0  0  0  0  0  0  0  0  0  0  0  0
    0.0633   -1.0892    0.0000 C   0  0  0  0  0  0  0  0  0  0  0  0
    0.0633   -1.9142    0.0000 C   0  0  0  0  0  0  0  0  0  0  0  0
   -0.6511   -2.3267    0.0000 C   0  0  0  0  0  0  0  0  0  0  0  0
   -1.3656   -1.9142    0.0000 C   0  0  0  0  0  0  0  0  0  0  0  0
   -1.3656   -1.0892    0.0000 C   0  0  0  0  0  0  0  0  0  0  0  0
    1.5785    0.5563    0.0000 C   0  0  1  0  0  0  0  0  0  0  0  0
    2.3855    0.7278    0.0000 C   0  0  0  0  0  0  0  0  0  0  0  0
    2.7980    0.0133    0.0000 C   0  0  0  0  0  0  0  0  0  0  0  0
    2.2460   -0.5998    0.0000 C   0  0  0  0  0  0  0  0  0  0  0  0
    0.9654    1.1083    0.0000 C   0  0  0  0  0  0  0  0  0  0  0  0
   -0.4323    1.4054    0.0000 C   0  0  0  0  0  0  0  0  0  0  0  0
   -1.2169    1.1505    0.0000 C   0  0  0  0  0  0  0  0  0  0  0  0
   -1.8300    1.7025    0.0000 C   0  0  0  0  0  0  0  0  0  0  0  0
   -1.6585    2.5095    0.0000 C   0  0  0  0  0  0  0  0  0  0  0  0
   -0.8739    2.7644    0.0000 C   0  0  0  0  0  0  0  0  0  0  0  0
   -0.2608    2.2124    0.0000 C   0  0  0  0  0  0  0  0  0  0  0  0
   -2.4052   -2.9538    0.0000 C   0  0  0  0  0  0  0  0  0  0  0  0
    1.0334    0.3470    0.0000 H   0  0  0  0  0  0  0  0  0  0  0  0
  1  3  1  0  0  0  0
  1  7  2  0  0  0  0
  1  8  2  0  0  0  0
  1 12  1  0  0  0  0
  2  9  1  0  0  0  0
  2 15  1  0  0  0  0
  2 28  1  0  0  0  0
  3 17  1  0  0  0  0
  3 20  1  0  0  0  0
  4 21  1  0  0  0  0
  4 22  1  0  0  0  0
  5  9  2  0  0  0  0
  6 10  2  0  0  0  0
  9 10  1  0  0  0  0
 10 16  1  0  0  0  0
 11 12  2  0  0  0  0
 11 16  1  0  0  0  0
 12 13  1  0  0  0  0
 13 14  2  0  0  0  0
 14 15  1  0  0  0  0
 15 16  2  0  0  0  0
 17 18  1  0  0  0  0
 17 21  1  6  0  0  0
 17 29  1  1  0  0  0
 18 19  1  0  0  0  0
 19 20  1  0  0  0  0
 22 23  2  0  0  0  0
 22 27  1  0  0  0  0
 23 24  1  0  0  0  0
 24 25  2  0  0  0  0
 25 26  1  0  0  0  0
 26 27  2  0  0  0  0
M  END
> <DATABASE_ID>
DB08213

> <DATABASE_NAME>
drugbank

> <SMILES>
[H][C@@]1(COC2=CC=CC=C2)CCCN1S(=O)(=O)C1=CC2=C(C=C1)N(C)C(=O)C2=O

> <INCHI_IDENTIFIER>
InChI=1S/C20H20N2O5S/c1-21-18-10-9-16(12-17(18)19(23)20(21)24)28(25,26)22-11-5-6-14(22)13-27-15-7-3-2-4-8-15/h2-4,7-10,12,14H,5-6,11,13H2,1H3/t14-/m0/s1

> <INCHI_KEY>
PFAYCUAUBOGVDX-AWEZNQCLSA-N

> <FORMULA>
C20H20N2O5S

> <MOLECULAR_WEIGHT>
400.448

> <EXACT_MASS>
400.10929245

> <JCHEM_ACCEPTOR_COUNT>
5

> <JCHEM_ATOM_COUNT>
48

> <JCHEM_AVERAGE_NEUTRAL_MICROSPECIES_CHARGE>
1.4194152180177072e-12

> <JCHEM_AVERAGE_POLARIZABILITY>
39.404541161696

> <JCHEM_BIOAVAILABILITY>
1

> <JCHEM_DONOR_COUNT>
0

> <JCHEM_FORMAL_CHARGE>
0

> <JCHEM_GHOSE_FILTER>
1

> <JCHEM_IUPAC>
1-methyl-5-{[(2S)-2-(phenoxymethyl)pyrrolidin-1-yl]sulfonyl}-2,3-dihydro-1H-indole-2,3-dione

> <ALOGPS_LOGP>
1.89

> <JCHEM_LOGP>
1.9786066746666666

> <ALOGPS_LOGS>
-3.87

> <JCHEM_MDDR_LIKE_RULE>
0

> <JCHEM_NEUTRAL_CHARGE>
0

> <JCHEM_NUMBER_OF_RINGS>
4

> <JCHEM_PHYSIOLOGICAL_CHARGE>
0

> <JCHEM_PKA_STRONGEST_BASIC>
-4.655069713511667

> <JCHEM_POLAR_SURFACE_AREA>
83.99000000000001

> <JCHEM_REFRACTIVITY>
103.30560000000003

> <JCHEM_ROTATABLE_BOND_COUNT>
4

> <JCHEM_RULE_OF_FIVE>
1

> <ALOGPS_SOLUBILITY>
5.35e-02 g/l

> <JCHEM_TRADITIONAL_IUPAC>
tetrahydrofolic acid

> <JCHEM_VEBER_RULE>
0

> <DRUGBANK_ID>
DB08213

> <DRUG_GROUPS>
experimental

> <GENERIC_NAME>
1-METHYL-5-(2-PHENOXYMETHYL-PYRROLIDINE-1-SULFONYL)-1H-INDOLE-2,3-DIONE

$$$$
