N-Acetyl-L-alanine.mol
  Mrv0541 02231218442D          

  9  8  0  0  0  0            999 V2000
   -1.0717    0.2062    0.0000 C   0  0  0  0  0  0  0  0  0  0  0  0
    0.3572    0.2063    0.0000 N   0  0  0  0  0  0  0  0  0  0  0  0
   -0.3572   -0.2062    0.0000 C   0  0  1  0  0  0  0  0  0  0  0  0
   -0.3572   -1.0313    0.0000 C   0  0  0  0  0  0  0  0  0  0  0  0
   -1.0717    1.0313    0.0000 O   0  0  0  0  0  0  0  0  0  0  0  0
   -1.7862   -0.2062    0.0000 O   0  0  0  0  0  0  0  0  0  0  0  0
    1.0717   -0.2062    0.0000 C   0  0  0  0  0  0  0  0  0  0  0  0
    1.0717   -1.0312    0.0000 O   0  0  0  0  0  0  0  0  0  0  0  0
    1.7862    0.2063    0.0000 C   0  0  0  0  0  0  0  0  0  0  0  0
  2  3  1  0  0  0  0
  1  3  1  0  0  0  0
  3  4  1  1  0  0  0
  1  5  2  0  0  0  0
  1  6  1  0  0  0  0
  7  8  2  0  0  0  0
  7  9  1  0  0  0  0
  2  7  1  0  0  0  0
M  END
> <DATABASE_ID>
DB02518

> <DATABASE_NAME>
drugbank

> <SMILES>
C[C@H](NC(C)=O)C(O)=O

> <INCHI_IDENTIFIER>
InChI=1S/C5H9NO3/c1-3(5(8)9)6-4(2)7/h3H,1-2H3,(H,6,7)(H,8,9)/t3-/m0/s1

> <INCHI_KEY>
KTHDTJVBEPMMGL-VKHMYHEASA-N

> <FORMULA>
C5H9NO3

> <MOLECULAR_WEIGHT>
131.1299

> <EXACT_MASS>
131.058243159

> <JCHEM_ACCEPTOR_COUNT>
3

> <JCHEM_ATOM_COUNT>
18

> <JCHEM_AVERAGE_NEUTRAL_MICROSPECIES_CHARGE>
-0.9992257343919229

> <JCHEM_AVERAGE_POLARIZABILITY>
12.501187655687254

> <JCHEM_BIOAVAILABILITY>
1

> <JCHEM_DONOR_COUNT>
2

> <JCHEM_FORMAL_CHARGE>
0

> <JCHEM_GHOSE_FILTER>
0

> <JCHEM_IUPAC>
(2S)-2-acetamidopropanoic acid

> <ALOGPS_LOGP>
-0.53

> <JCHEM_LOGP>
-0.7598647116666665

> <ALOGPS_LOGS>
-0.48

> <JCHEM_MDDR_LIKE_RULE>
0

> <JCHEM_NEUTRAL_CHARGE>
-1

> <JCHEM_NUMBER_OF_RINGS>
0

> <JCHEM_PHYSIOLOGICAL_CHARGE>
-1

> <JCHEM_PKA>
15.629254426140378

> <JCHEM_PKA_STRONGEST_ACIDIC>
3.889227666212694

> <JCHEM_PKA_STRONGEST_BASIC>
-1.9647201220572617

> <JCHEM_POLAR_SURFACE_AREA>
66.4

> <JCHEM_REFRACTIVITY>
29.941100000000006

> <JCHEM_ROTATABLE_BOND_COUNT>
2

> <JCHEM_RULE_OF_FIVE>
1

> <ALOGPS_SOLUBILITY>
4.36e+01 g/l

> <JCHEM_TRADITIONAL_IUPAC>
biotin

> <JCHEM_VEBER_RULE>
0

> <DRUGBANK_ID>
DB02518

> <SECONDARY_ACCESSION_NUMBERS>
EXPT00596

> <DRUG_GROUPS>
experimental

> <GENERIC_NAME>
N-Acetylalanine

> <SYNONYMS>
(S)-2-(acetylamino)propanoic acid; 2-acetamidopropionic acid; Ac-Ala-OH; Acetylalanine; L-N-Acetylalanine; N-acetyl-L-alanine; N-acetyl-L-Î±-alanine; N-Acetyl-S-alanine; s-(-)-n-acetylalanine

$$$$
