NNI
  Mrv0541 02241213592D          

 24 26  0  0  0  0            999 V2000
    2.6046   33.2656    0.0000 C   0  0  0  0  0  0  0  0  0  0  0  0
    1.8901   33.6781    0.0000 C   0  0  0  0  0  0  0  0  0  0  0  0
    1.8901   34.5031    0.0000 C   0  0  0  0  0  0  0  0  0  0  0  0
    1.1757   34.9156    0.0000 I   0  0  0  0  0  0  0  0  0  0  0  0
    2.6046   34.9156    0.0000 C   0  0  0  0  0  0  0  0  0  0  0  0
    3.3191   34.5031    0.0000 C   0  0  0  0  0  0  0  0  0  0  0  0
    3.3191   33.6781    0.0000 C   0  0  0  0  0  0  0  0  0  0  0  0
    4.0335   33.2656    0.0000 N   0  0  0  0  0  0  0  0  0  0  0  0
    4.7480   33.6781    0.0000 C   0  0  0  0  0  0  0  0  0  0  0  0
    4.7480   34.5031    0.0000 S   0  0  0  0  0  0  0  0  0  0  0  0
    5.4625   33.2656    0.0000 O   0  0  0  0  0  0  0  0  0  0  0  0
    6.1770   33.6781    0.0000 C   0  0  0  0  0  0  0  0  0  0  0  0
    6.8914   33.2656    0.0000 C   0  0  0  0  0  0  0  0  0  0  0  0
    7.6059   33.6781    0.0000 N   0  0  0  0  0  0  0  0  0  0  0  0
    8.3596   33.3425    0.0000 C   0  0  0  0  0  0  0  0  0  0  0  0
    8.5311   32.5355    0.0000 O   0  0  0  0  0  0  0  0  0  0  0  0
    8.9116   33.9556    0.0000 C   0  0  0  0  0  0  0  0  0  0  0  0
    9.7366   33.9556    0.0000 C   0  0  0  0  0  0  0  0  0  0  0  0
   10.1491   34.6701    0.0000 C   0  0  0  0  0  0  0  0  0  0  0  0
    9.7366   35.3845    0.0000 C   0  0  0  0  0  0  0  0  0  0  0  0
    8.9116   35.3845    0.0000 C   0  0  0  0  0  0  0  0  0  0  0  0
    8.4991   34.6701    0.0000 C   0  0  0  0  0  0  0  0  0  0  0  0
    7.6921   34.4985    0.0000 C   0  0  0  0  0  0  0  0  0  0  0  0
    7.0790   35.0506    0.0000 O   0  0  0  0  0  0  0  0  0  0  0  0
  1  2  1  0  0  0  0
  1  7  2  0  0  0  0
  2  3  2  0  0  0  0
  3  4  1  0  0  0  0
  3  5  1  0  0  0  0
  5  6  2  0  0  0  0
  6  7  1  0  0  0  0
  7  8  1  0  0  0  0
  8  9  1  0  0  0  0
  9 10  2  0  0  0  0
  9 11  1  0  0  0  0
 11 12  1  0  0  0  0
 12 13  1  0  0  0  0
 13 14  1  0  0  0  0
 14 23  1  0  0  0  0
 14 15  1  0  0  0  0
 15 16  2  0  0  0  0
 17 15  1  0  0  0  0
 18 17  1  0  0  0  0
 19 18  2  0  0  0  0
 20 19  1  0  0  0  0
 21 20  2  0  0  0  0
 22 21  1  0  0  0  0
 22 17  2  0  0  0  0
 23 24  2  0  0  0  0
 23 22  1  0  0  0  0
M  END
> <DATABASE_ID>
DB08284

> <DATABASE_NAME>
drugbank

> <SMILES>
IC1=CC=C(NC(=S)OCCN2C(=O)C3=C(C=CC=C3)C2=O)C=C1

> <INCHI_IDENTIFIER>
InChI=1S/C17H13IN2O3S/c18-11-5-7-12(8-6-11)19-17(24)23-10-9-20-15(21)13-3-1-2-4-14(13)16(20)22/h1-8H,9-10H2,(H,19,24)

> <INCHI_KEY>
CYYIBMGIJWXZEP-UHFFFAOYSA-N

> <FORMULA>
C17H13IN2O3S

> <MOLECULAR_WEIGHT>
452.266

> <EXACT_MASS>
451.969156402

> <JCHEM_ACCEPTOR_COUNT>
3

> <JCHEM_ATOM_COUNT>
37

> <JCHEM_AVERAGE_NEUTRAL_MICROSPECIES_CHARGE>
-0.6841081135678999

> <JCHEM_AVERAGE_POLARIZABILITY>
38.629795593274736

> <JCHEM_BIOAVAILABILITY>
1

> <JCHEM_DONOR_COUNT>
1

> <JCHEM_FORMAL_CHARGE>
0

> <JCHEM_GHOSE_FILTER>
1

> <JCHEM_IUPAC>
N-(4-iodophenyl)[2-(1,3-dioxo-2,3-dihydro-1H-isoindol-2-yl)ethoxy]carbothioamide

> <ALOGPS_LOGP>
3.38

> <JCHEM_LOGP>
4.394635542666666

> <ALOGPS_LOGS>
-5.25

> <JCHEM_MDDR_LIKE_RULE>
0

> <JCHEM_NEUTRAL_CHARGE>
-1

> <JCHEM_NUMBER_OF_RINGS>
3

> <JCHEM_PHYSIOLOGICAL_CHARGE>
-1

> <JCHEM_PKA_STRONGEST_ACIDIC>
6.664413726986438

> <JCHEM_PKA_STRONGEST_BASIC>
-1.8048163202419794

> <JCHEM_POLAR_SURFACE_AREA>
58.64

> <JCHEM_REFRACTIVITY>
106.14049999999999

> <JCHEM_ROTATABLE_BOND_COUNT>
5

> <JCHEM_RULE_OF_FIVE>
1

> <ALOGPS_SOLUBILITY>
2.54e-03 g/l

> <JCHEM_TRADITIONAL_IUPAC>
tetrahydrofolic acid

> <JCHEM_VEBER_RULE>
0

> <DRUGBANK_ID>
DB08284

> <DRUG_GROUPS>
experimental

> <GENERIC_NAME>
O-[2-(1,3-dioxo-1,3-dihydro-2H-isoindol-2-yl)ethyl] (4-iodophenyl)thiocarbamate

$$$$
