P91
  Mrv0541 02241214022D          

 29 32  0  0  0  0            999 V2000
    0.3139    0.5499    0.0000 C   0  0  0  0  0  0  0  0  0  0  0  0
    1.1389    0.5499    0.0000 C   0  0  0  0  0  0  0  0  0  0  0  0
    1.5514   -0.1645    0.0000 C   0  0  0  0  0  0  0  0  0  0  0  0
    1.1389   -0.8790    0.0000 C   0  0  0  0  0  0  0  0  0  0  0  0
    1.6909   -1.4921    0.0000 C   0  0  0  0  0  0  0  0  0  0  0  0
    2.3584   -0.3361    0.0000 C   0  0  0  0  0  0  0  0  0  0  0  0
    1.5514    1.2644    0.0000 C   0  0  0  0  0  0  0  0  0  0  0  0
    1.5194   -2.2991    0.0000 O   0  0  0  0  0  0  0  0  0  0  0  0
    2.9715    0.2160    0.0000 O   0  0  0  0  0  0  0  0  0  0  0  0
   -3.1352   -4.0441    0.0000 O   0  0  0  0  0  0  0  0  0  0  0  0
   -2.4208   -1.1566    0.0000 O   0  0  0  0  0  0  0  0  0  0  0  0
    1.1389    1.9789    0.0000 C   0  0  0  0  0  0  0  0  0  0  0  0
    2.4446   -1.1566    0.0000 N   0  0  0  0  0  0  0  0  0  0  0  0
    1.5514    2.6933    0.0000 C   0  0  0  0  0  0  0  0  0  0  0  0
    2.3764    2.6933    0.0000 C   0  0  0  0  0  0  0  0  0  0  0  0
    2.7889    1.9789    0.0000 C   0  0  0  0  0  0  0  0  0  0  0  0
   -1.7063   -1.5691    0.0000 C   0  0  0  0  0  0  0  0  0  0  0  0
   -1.7063   -2.3941    0.0000 N   0  0  0  0  0  0  0  0  0  0  0  0
   -2.4208   -2.8066    0.0000 C   0  0  0  0  0  0  0  0  0  0  0  0
   -2.4208   -3.6316    0.0000 C   0  0  0  0  0  0  0  0  0  0  0  0
   -0.9918   -1.1566    0.0000 C   0  0  0  0  0  0  0  0  0  0  0  0
   -0.2381   -1.4921    0.0000 C   0  0  0  0  0  0  0  0  0  0  0  0
   -0.0666   -2.2991    0.0000 Br  0  0  0  0  0  0  0  0  0  0  0  0
   -0.9056   -0.3361    0.0000 N   0  0  0  0  0  0  0  0  0  0  0  0
   -1.5187    0.2160    0.0000 C   0  0  0  0  0  0  0  0  0  0  0  0
   -0.0986   -0.1645    0.0000 C   0  0  0  0  0  0  0  0  0  0  0  0
    0.3139   -0.8790    0.0000 C   0  0  0  0  0  0  0  0  0  0  0  0
    2.3764    1.2644    0.0000 C   0  0  0  0  0  0  0  0  0  0  0  0
    0.3139    1.9789    0.0000 Cl  0  0  0  0  0  0  0  0  0  0  0  0
  1  2  2  0  0  0  0
  1 26  1  0  0  0  0
  2  3  1  0  0  0  0
  2  7  1  0  0  0  0
  3  4  2  0  0  0  0
  3  6  1  0  0  0  0
  4  5  1  0  0  0  0
  4 27  1  0  0  0  0
  5  8  2  0  0  0  0
  5 13  1  0  0  0  0
  6  9  2  0  0  0  0
  6 13  1  0  0  0  0
  7 12  2  0  0  0  0
  7 28  1  0  0  0  0
 10 20  1  0  0  0  0
 11 17  2  0  0  0  0
 12 14  1  0  0  0  0
 12 29  1  0  0  0  0
 14 15  2  0  0  0  0
 15 16  1  0  0  0  0
 16 28  2  0  0  0  0
 17 18  1  0  0  0  0
 17 21  1  0  0  0  0
 18 19  1  0  0  0  0
 19 20  1  0  0  0  0
 21 22  2  0  0  0  0
 21 24  1  0  0  0  0
 22 23  1  0  0  0  0
 22 27  1  0  0  0  0
 24 25  1  0  0  0  0
 24 26  1  0  0  0  0
 26 27  2  0  0  0  0
M  END
> <DATABASE_ID>
DB08365

> <DATABASE_NAME>
drugbank

> <SMILES>
CN1C2=C(C(Br)=C1C(=O)NCCO)C1=C(C(=O)NC1=O)C(=C2)C1=C(Cl)C=CC=C1

> <INCHI_IDENTIFIER>
InChI=1S/C20H15BrClN3O4/c1-25-12-8-10(9-4-2-3-5-11(9)22)13-15(19(28)24-18(13)27)14(12)16(21)17(25)20(29)23-6-7-26/h2-5,8,26H,6-7H2,1H3,(H,23,29)(H,24,27,28)

> <INCHI_KEY>
XUAHLMVOYLUYSB-UHFFFAOYSA-N

> <FORMULA>
C20H15BrClN3O4

> <MOLECULAR_WEIGHT>
476.708

> <EXACT_MASS>
474.993446337

> <JCHEM_ACCEPTOR_COUNT>
4

> <JCHEM_ATOM_COUNT>
44

> <JCHEM_AVERAGE_NEUTRAL_MICROSPECIES_CHARGE>
-0.08936765790159432

> <JCHEM_AVERAGE_POLARIZABILITY>
43.88871717212342

> <JCHEM_BIOAVAILABILITY>
1

> <JCHEM_DONOR_COUNT>
3

> <JCHEM_FORMAL_CHARGE>
0

> <JCHEM_GHOSE_FILTER>
1

> <JCHEM_IUPAC>
8-bromo-4-(2-chlorophenyl)-N-(2-hydroxyethyl)-6-methyl-1,3-dioxo-1H,2H,3H,6H-pyrrolo[3,4-e]indole-7-carboxamide

> <ALOGPS_LOGP>
3.13

> <JCHEM_LOGP>
2.340099232333333

> <ALOGPS_LOGS>
-4.81

> <JCHEM_MDDR_LIKE_RULE>
0

> <JCHEM_NEUTRAL_CHARGE>
0

> <JCHEM_NUMBER_OF_RINGS>
4

> <JCHEM_PHYSIOLOGICAL_CHARGE>
0

> <JCHEM_PKA>
14.127149439352403

> <JCHEM_PKA_STRONGEST_ACIDIC>
8.008224874855568

> <JCHEM_PKA_STRONGEST_BASIC>
-1.8267809349116393

> <JCHEM_POLAR_SURFACE_AREA>
100.43

> <JCHEM_REFRACTIVITY>
113.0067

> <JCHEM_ROTATABLE_BOND_COUNT>
4

> <JCHEM_RULE_OF_FIVE>
1

> <ALOGPS_SOLUBILITY>
7.31e-03 g/l

> <JCHEM_TRADITIONAL_IUPAC>
tetrahydrofolic acid

> <JCHEM_VEBER_RULE>
0

> <DRUGBANK_ID>
DB08365

> <DRUG_GROUPS>
experimental

> <GENERIC_NAME>
8-bromo-4-(2-chlorophenyl)-N-(2-hydroxyethyl)-6-methyl-1,3-dioxo-1,2,3,6-tetrahydropyrrolo[3,4-e]indole-7-carboxamide

$$$$
