PM2
  Mrv0541 02231217542D          

 30 33  0  0  0  0            999 V2000
   -0.4285   -2.8725    0.0000 C   0  0  0  0  0  0  0  0  0  0  0  0
    0.2859   -3.2850    0.0000 C   0  0  0  0  0  0  0  0  0  0  0  0
   -1.1430   -3.2850    0.0000 C   0  0  0  0  0  0  0  0  0  0  0  0
    0.2859   -4.1100    0.0000 C   0  0  0  0  0  0  0  0  0  0  0  0
   -1.1430   -4.1100    0.0000 C   0  0  0  0  0  0  0  0  0  0  0  0
   -0.4285   -4.5225    0.0000 C   0  0  0  0  0  0  0  0  0  0  0  0
    1.0004   -4.5225    0.0000 C   0  0  0  0  0  0  0  0  0  0  0  0
    1.0004   -5.3475    0.0000 N   0  0  0  0  0  0  0  0  0  0  0  0
   -1.1430   -1.6350    0.0000 C   0  0  0  0  0  0  0  0  0  0  0  0
   -1.1430   -0.8100    0.0000 C   0  0  0  0  0  0  0  0  0  0  0  0
   -0.4285    0.4275    0.0000 C   0  0  0  0  0  0  0  0  0  0  0  0
   -1.1430    0.8400    0.0000 O   0  0  0  0  0  0  0  0  0  0  0  0
   -0.4285   -2.0475    0.0000 C   0  0  0  0  0  0  0  0  0  0  0  0
   -0.4285   -0.3975    0.0000 N   0  0  0  0  0  0  0  0  0  0  0  0
    0.2859   -0.8100    0.0000 C   0  0  0  0  0  0  0  0  0  0  0  0
    0.2859   -1.6350    0.0000 C   0  0  0  0  0  0  0  0  0  0  0  0
    0.2859    0.8400    0.0000 C   0  0  0  0  0  0  0  0  0  0  0  0
    0.2859    1.6650    0.0000 C   0  0  0  0  0  0  0  0  0  0  0  0
    1.0004    0.4275    0.0000 C   0  0  0  0  0  0  0  0  0  0  0  0
    1.0004    2.0775    0.0000 C   0  0  0  0  0  0  0  0  0  0  0  0
    1.7149    0.8400    0.0000 N   0  0  0  0  0  0  0  0  0  0  0  0
    1.0004    2.9025    0.0000 C   0  0  0  0  0  0  0  0  0  0  0  0
    1.7149    1.6650    0.0000 C   0  0  0  0  0  0  0  0  0  0  0  0
    0.2859    3.3150    0.0000 C   0  0  0  0  0  0  0  0  0  0  0  0
    0.2859    4.1400    0.0000 C   0  0  0  0  0  0  0  0  0  0  0  0
   -0.4285    4.5525    0.0000 C   0  0  0  0  0  0  0  0  0  0  0  0
    1.0004    4.5525    0.0000 C   0  0  0  0  0  0  0  0  0  0  0  0
   -0.4285    5.3775    0.0000 C   0  0  0  0  0  0  0  0  0  0  0  0
    1.0004    5.3775    0.0000 C   0  0  0  0  0  0  0  0  0  0  0  0
    0.2859    5.7900    0.0000 C   0  0  0  0  0  0  0  0  0  0  0  0
  1  2  2  0  0  0  0
  1  3  1  0  0  0  0
  1 13  1  0  0  0  0
  2  4  1  0  0  0  0
  3  5  2  0  0  0  0
  4  6  2  0  0  0  0
  4  7  1  0  0  0  0
  5  6  1  0  0  0  0
  7  8  1  0  0  0  0
  9 10  1  0  0  0  0
  9 13  1  0  0  0  0
 10 14  1  0  0  0  0
 11 12  2  0  0  0  0
 11 14  1  0  0  0  0
 11 17  1  0  0  0  0
 13 16  1  0  0  0  0
 14 15  1  0  0  0  0
 15 16  1  0  0  0  0
 17 18  2  0  0  0  0
 17 19  1  0  0  0  0
 18 20  1  0  0  0  0
 19 21  2  0  0  0  0
 20 22  1  0  0  0  0
 20 23  2  0  0  0  0
 21 23  1  0  0  0  0
 22 24  1  0  0  0  0
 24 25  1  0  0  0  0
 25 26  2  0  0  0  0
 25 27  1  0  0  0  0
 26 28  1  0  0  0  0
 27 29  2  0  0  0  0
 28 30  2  0  0  0  0
 29 30  1  0  0  0  0
M  END
> <DATABASE_ID>
DB04764

> <DATABASE_NAME>
drugbank

> <SMILES>
NCC1=CC=CC(=C1)C1CCN(CC1)C(=O)C1=CC(CCC2=CC=CC=C2)=CN=C1

> <INCHI_IDENTIFIER>
InChI=1S/C26H29N3O/c27-17-21-7-4-8-24(15-21)23-11-13-29(14-12-23)26(30)25-16-22(18-28-19-25)10-9-20-5-2-1-3-6-20/h1-8,15-16,18-19,23H,9-14,17,27H2

> <INCHI_KEY>
CCLHROFBSWWOQO-UHFFFAOYSA-N

> <FORMULA>
C26H29N3O

> <MOLECULAR_WEIGHT>
399.528

> <EXACT_MASS>
399.231062565

> <JCHEM_ACCEPTOR_COUNT>
3

> <JCHEM_ATOM_COUNT>
59

> <JCHEM_AVERAGE_NEUTRAL_MICROSPECIES_CHARGE>
0.9957452073377063

> <JCHEM_AVERAGE_POLARIZABILITY>
46.42430537028767

> <JCHEM_BIOAVAILABILITY>
1

> <JCHEM_DONOR_COUNT>
1

> <JCHEM_FORMAL_CHARGE>
0

> <JCHEM_GHOSE_FILTER>
1

> <JCHEM_IUPAC>
1-(3-{1-[5-(2-phenylethyl)pyridine-3-carbonyl]piperidin-4-yl}phenyl)methanamine

> <ALOGPS_LOGP>
4.12

> <JCHEM_LOGP>
3.9868861433333325

> <ALOGPS_LOGS>
-5.70

> <JCHEM_MDDR_LIKE_RULE>
1

> <JCHEM_NEUTRAL_CHARGE>
1

> <JCHEM_NUMBER_OF_RINGS>
4

> <JCHEM_PHYSIOLOGICAL_CHARGE>
1

> <JCHEM_PKA_STRONGEST_BASIC>
9.275053498973652

> <JCHEM_POLAR_SURFACE_AREA>
59.220000000000006

> <JCHEM_REFRACTIVITY>
122.3701

> <JCHEM_ROTATABLE_BOND_COUNT>
6

> <JCHEM_RULE_OF_FIVE>
1

> <ALOGPS_SOLUBILITY>
8.03e-04 g/l

> <JCHEM_TRADITIONAL_IUPAC>
biotin

> <JCHEM_VEBER_RULE>
0

> <DRUGBANK_ID>
DB04764

> <DRUG_GROUPS>
experimental

> <GENERIC_NAME>
[4-(3-AMINOMETHYL-PHENYL)-PIPERIDIN-1-YL]-(5-PHENETHYL- PYRIDIN-3-YL)-METHANONE

$$$$
