PNF
  Mrv0541 02241214042D          

 27 27  0  0  0  0            999 V2000
   -3.6037    0.0168    0.0000 C   0  0  0  0  0  0  0  0  0  0  0  0
   -4.3544   -0.3253    0.0000 C   0  0  0  0  0  0  0  0  0  0  0  0
   -5.0261    0.1537    0.0000 C   0  0  0  0  0  0  0  0  0  0  0  0
   -4.9471    0.9749    0.0000 C   0  0  0  0  0  0  0  0  0  0  0  0
   -4.1964    1.3171    0.0000 C   0  0  0  0  0  0  0  0  0  0  0  0
   -3.5247    0.8380    0.0000 C   0  0  0  0  0  0  0  0  0  0  0  0
   -2.1814   -0.1200    0.0000 P   0  0  1  0  0  0  0  0  0  0  0  0
   -2.9320   -0.4622    0.0000 O   0  0  0  0  0  0  0  0  0  0  0  0
   -2.5235    0.6306    0.0000 O   0  0  0  0  0  0  0  0  0  0  0  0
   -1.8392   -0.8707    0.0000 O   0  0  0  0  0  0  0  0  0  0  0  0
   -1.4307    0.2221    0.0000 C   0  0  0  0  0  0  0  0  0  0  0  0
   -0.7590   -0.2569    0.0000 C   0  0  0  0  0  0  0  0  0  0  0  0
   -0.0083    0.0853    0.0000 C   0  0  0  0  0  0  0  0  0  0  0  0
    0.6634   -0.3938    0.0000 C   0  0  0  0  0  0  0  0  0  0  0  0
    1.4141   -0.0516    0.0000 N   0  0  0  0  0  0  0  0  0  0  0  0
    0.5844   -1.2150    0.0000 O   0  0  0  0  0  0  0  0  0  0  0  0
    2.0858   -0.5307    0.0000 C   0  0  0  0  0  0  0  0  0  0  0  0
    2.8365   -0.1885    0.0000 C   0  0  0  0  0  0  0  0  0  0  0  0
    3.5081   -0.6675    0.0000 C   0  0  0  0  0  0  0  0  0  0  0  0
    4.2588   -0.3253    0.0000 C   0  0  0  0  0  0  0  0  0  0  0  0
    4.9305   -0.8044    0.0000 C   0  0  0  0  0  0  0  0  0  0  0  0
    5.6812   -0.4622    0.0000 C   0  0  0  0  0  0  0  0  0  0  0  0
    6.3529   -0.9413    0.0000 O   0  0  0  0  0  0  0  0  0  0  0  0
    5.7602    0.3590    0.0000 O   0  0  0  0  0  0  0  0  0  0  0  0
   -5.6188    1.4539    0.0000 N   0  3  0  0  0  0  0  0  0  0  0  0
   -6.3694    1.1118    0.0000 O   0  0  0  0  0  0  0  0  0  0  0  0
   -5.5397    2.2751    0.0000 O   0  5  0  0  0  0  0  0  0  0  0  0
  1  2  2  0  0  0  0
  1  6  1  0  0  0  0
  1  8  1  0  0  0  0
  2  3  1  0  0  0  0
  3  4  2  0  0  0  0
  4  5  1  0  0  0  0
  4 25  1  0  0  0  0
  5  6  2  0  0  0  0
  7  8  1  6  0  0  0
  7  9  1  1  0  0  0
  7 10  2  0  0  0  0
  7 11  1  0  0  0  0
 11 12  1  0  0  0  0
 12 13  1  0  0  0  0
 13 14  1  0  0  0  0
 14 15  1  0  0  0  0
 14 16  2  0  0  0  0
 15 17  1  0  0  0  0
 17 18  1  0  0  0  0
 18 19  1  0  0  0  0
 19 20  1  0  0  0  0
 20 21  1  0  0  0  0
 21 22  1  0  0  0  0
 22 23  2  0  0  0  0
 22 24  1  0  0  0  0
 25 26  2  0  0  0  0
 25 27  1  0  0  0  0
M  CHG  2  25   1  27  -1
M  END
> <DATABASE_ID>
DB08412

> <DATABASE_NAME>
drugbank

> <SMILES>
OC(=O)CCCCCNC(=O)CCC[P@](O)(=O)OC1=CC=C(C=C1)[N+]([O-])=O

> <INCHI_IDENTIFIER>
InChI=1S/C16H23N2O8P/c19-15(17-11-3-1-2-6-16(20)21)5-4-12-27(24,25)26-14-9-7-13(8-10-14)18(22)23/h7-10H,1-6,11-12H2,(H,17,19)(H,20,21)(H,24,25)

> <INCHI_KEY>
WYHHVZLGTMCKOR-UHFFFAOYSA-N

> <FORMULA>
C16H23N2O8P

> <MOLECULAR_WEIGHT>
402.3362

> <EXACT_MASS>
402.119202234

> <JCHEM_ACCEPTOR_COUNT>
7

> <JCHEM_ATOM_COUNT>
50

> <JCHEM_AVERAGE_NEUTRAL_MICROSPECIES_CHARGE>
-1.997038416520463

> <JCHEM_AVERAGE_POLARIZABILITY>
38.85536391194469

> <JCHEM_BIOAVAILABILITY>
1

> <JCHEM_DONOR_COUNT>
3

> <JCHEM_FORMAL_CHARGE>
0

> <JCHEM_GHOSE_FILTER>
1

> <JCHEM_IUPAC>
6-{4-[hydroxy(4-nitrophenoxy)phosphoryl]butanamido}hexanoic acid

> <ALOGPS_LOGP>
1.18

> <JCHEM_LOGP>
1.239441596000001

> <ALOGPS_LOGS>
-4.35

> <JCHEM_MDDR_LIKE_RULE>
0

> <JCHEM_NEUTRAL_CHARGE>
-2

> <JCHEM_NUMBER_OF_RINGS>
1

> <JCHEM_PHYSIOLOGICAL_CHARGE>
-2

> <JCHEM_PKA>
4.472809016070141

> <JCHEM_PKA_STRONGEST_ACIDIC>
1.80960283113015

> <JCHEM_PKA_STRONGEST_BASIC>
-1.2772959697162838

> <JCHEM_POLAR_SURFACE_AREA>
156.07

> <JCHEM_REFRACTIVITY>
94.88109999999998

> <JCHEM_ROTATABLE_BOND_COUNT>
13

> <JCHEM_RULE_OF_FIVE>
1

> <ALOGPS_SOLUBILITY>
1.80e-02 g/l

> <JCHEM_TRADITIONAL_IUPAC>
biotin

> <JCHEM_VEBER_RULE>
0

> <DRUGBANK_ID>
DB08412

> <DRUG_GROUPS>
experimental

> <GENERIC_NAME>
6-{4-[HYDROXY-(4-NITRO-PHENOXY)-PHOSPHORYL]-BUTYRYLAMINO}-HEXANOIC ACID

$$$$
