PPX
  Mrv0541 02241214052D          

 30 32  0  0  0  0            999 V2000
   -1.9286   -1.0365    0.0000 N   0  0  0  0  0  0  0  0  0  0  0  0
   -1.1440   -0.7816    0.0000 C   0  0  2  0  0  0  0  0  0  0  0  0
   -0.5309   -1.3336    0.0000 C   0  0  0  0  0  0  0  0  0  0  0  0
   -0.7025   -2.1406    0.0000 C   0  0  0  0  0  0  0  0  0  0  0  0
   -0.0894   -2.6926    0.0000 C   0  0  0  0  0  0  0  0  0  0  0  0
   -1.4871   -2.3955    0.0000 C   0  0  0  0  0  0  0  0  0  0  0  0
   -0.2609   -3.4996    0.0000 C   0  0  0  0  0  0  0  0  0  0  0  0
   -1.6586   -3.2025    0.0000 C   0  0  0  0  0  0  0  0  0  0  0  0
   -1.0455   -3.7545    0.0000 C   0  0  0  0  0  0  0  0  0  0  0  0
   -0.9725    0.0254    0.0000 C   0  0  0  0  0  0  0  0  0  0  0  0
   -0.1879    0.2803    0.0000 O   0  0  0  0  0  0  0  0  0  0  0  0
   -1.5856    0.5774    0.0000 N   0  0  0  0  0  0  0  0  0  0  0  0
   -2.3926    0.4059    0.0000 C   0  0  0  0  0  0  0  0  0  0  0  0
   -1.4994    1.3979    0.0000 C   0  0  1  0  0  0  0  0  0  0  0  0
   -2.2530    1.7335    0.0000 C   0  0  0  0  0  0  0  0  0  0  0  0
   -2.8051    1.1204    0.0000 C   0  0  0  0  0  0  0  0  0  0  0  0
   -0.7849    1.8104    0.0000 C   0  0  0  0  0  0  0  0  0  0  0  0
   -0.7849    2.6354    0.0000 O   0  0  0  0  0  0  0  0  0  0  0  0
   -0.0704    1.3979    0.0000 N   0  0  0  0  0  0  0  0  0  0  0  0
    0.6441    1.8104    0.0000 C   0  0  0  0  0  0  0  0  0  0  0  0
    1.3585    1.3979    0.0000 C   0  0  0  0  0  0  0  0  0  0  0  0
    2.0730    1.8104    0.0000 N   0  0  0  0  0  0  0  0  0  0  0  0
    2.7875    1.3979    0.0000 C   0  0  0  0  0  0  0  0  0  0  0  0
    3.5019    1.8104    0.0000 C   0  0  0  0  0  0  0  0  0  0  0  0
    4.2164    1.3979    0.0000 C   0  0  0  0  0  0  0  0  0  0  0  0
    4.2164    0.5729    0.0000 N   0  0  0  0  0  0  0  0  0  0  0  0
    3.5019    0.1604    0.0000 C   0  0  0  0  0  0  0  0  0  0  0  0
    2.7875    0.5729    0.0000 C   0  0  0  0  0  0  0  0  0  0  0  0
   -1.2654   -1.3527    0.0000 H   0  0  0  0  0  0  0  0  0  0  0  0
   -1.0096    1.0799    0.0000 H   0  0  0  0  0  0  0  0  0  0  0  0
  2  1  1  1  0  0  0
  2  3  1  0  0  0  0
  2 10  1  0  0  0  0
  2 29  1  6  0  0  0
  3  4  1  0  0  0  0
  4  5  2  0  0  0  0
  4  6  1  0  0  0  0
  5  7  1  0  0  0  0
  6  8  2  0  0  0  0
  7  9  2  0  0  0  0
  8  9  1  0  0  0  0
 10 11  2  0  0  0  0
 10 12  1  0  0  0  0
 12 13  1  0  0  0  0
 12 14  1  0  0  0  0
 13 16  1  0  0  0  0
 14 15  1  0  0  0  0
 14 17  1  1  0  0  0
 14 30  1  6  0  0  0
 15 16  1  0  0  0  0
 17 18  2  0  0  0  0
 17 19  1  0  0  0  0
 19 20  1  0  0  0  0
 20 21  1  0  0  0  0
 21 22  1  0  0  0  0
 22 23  1  0  0  0  0
 23 24  2  0  0  0  0
 23 28  1  0  0  0  0
 24 25  1  0  0  0  0
 25 26  2  0  0  0  0
 26 27  1  0  0  0  0
 27 28  2  0  0  0  0
M  END
> <DATABASE_ID>
DB08422

> <DATABASE_NAME>
drugbank

> <SMILES>
[H][C@@](N)(CC1=CC=CC=C1)C(=O)N1CCC[C@@]1([H])C(=O)NCCNC1=CC=NC=C1

> <INCHI_IDENTIFIER>
InChI=1S/C21H27N5O2/c22-18(15-16-5-2-1-3-6-16)21(28)26-14-4-7-19(26)20(27)25-13-12-24-17-8-10-23-11-9-17/h1-3,5-6,8-11,18-19H,4,7,12-15,22H2,(H,23,24)(H,25,27)/t18-,19+/m1/s1

> <INCHI_KEY>
GEIDRYBJURDUSW-MOPGFXCFSA-N

> <FORMULA>
C21H27N5O2

> <MOLECULAR_WEIGHT>
381.4714

> <EXACT_MASS>
381.216475133

> <JCHEM_ACCEPTOR_COUNT>
5

> <JCHEM_ATOM_COUNT>
55

> <JCHEM_AVERAGE_NEUTRAL_MICROSPECIES_CHARGE>
1.8090711790621992

> <JCHEM_AVERAGE_POLARIZABILITY>
41.156932687654546

> <JCHEM_BIOAVAILABILITY>
1

> <JCHEM_DONOR_COUNT>
3

> <JCHEM_FORMAL_CHARGE>
0

> <JCHEM_GHOSE_FILTER>
1

> <JCHEM_IUPAC>
(2S)-1-[(2R)-2-amino-3-phenylpropanoyl]-N-{2-[(pyridin-4-yl)amino]ethyl}pyrrolidine-2-carboxamide

> <ALOGPS_LOGP>
0.99

> <JCHEM_LOGP>
0.2873216583333329

> <ALOGPS_LOGS>
-3.35

> <JCHEM_MDDR_LIKE_RULE>
1

> <JCHEM_NEUTRAL_CHARGE>
2

> <JCHEM_NUMBER_OF_RINGS>
3

> <JCHEM_PHYSIOLOGICAL_CHARGE>
2

> <JCHEM_PKA_STRONGEST_ACIDIC>
15.29488405716065

> <JCHEM_PKA_STRONGEST_BASIC>
8.855548488637437

> <JCHEM_POLAR_SURFACE_AREA>
100.35000000000001

> <JCHEM_REFRACTIVITY>
108.9476

> <JCHEM_ROTATABLE_BOND_COUNT>
8

> <JCHEM_RULE_OF_FIVE>
1

> <ALOGPS_SOLUBILITY>
1.72e-01 g/l

> <JCHEM_TRADITIONAL_IUPAC>
tetrahydrofolic acid

> <JCHEM_VEBER_RULE>
0

> <DRUGBANK_ID>
DB08422

> <DRUG_GROUPS>
experimental

> <GENERIC_NAME>
[PHENYLALANINYL-PROLINYL]-[2-(PYRIDIN-4-YLAMINO)-ETHYL]-AMINE

$$$$
