PU1
  Mrv0541 02231216172D          

 30 32  0  0  0  0            999 V2000
    0.3038   -2.2271    0.0000 Cl  0  0  0  0  0  0  0  0  0  0  0  0
   -0.3093   -1.6751    0.0000 C   0  0  0  0  0  0  0  0  0  0  0  0
   -1.0939   -1.9300    0.0000 C   0  0  0  0  0  0  0  0  0  0  0  0
   -1.2654   -2.7370    0.0000 O   0  0  0  0  0  0  0  0  0  0  0  0
   -2.0500   -2.9919    0.0000 C   0  0  0  0  0  0  0  0  0  0  0  0
   -1.7070   -1.3780    0.0000 C   0  0  0  0  0  0  0  0  0  0  0  0
   -2.4916   -1.6329    0.0000 O   0  0  0  0  0  0  0  0  0  0  0  0
   -3.1047   -1.0809    0.0000 C   0  0  0  0  0  0  0  0  0  0  0  0
   -1.5354   -0.5710    0.0000 C   0  0  0  0  0  0  0  0  0  0  0  0
   -2.1485   -0.0190    0.0000 O   0  0  0  0  0  0  0  0  0  0  0  0
   -1.9770    0.7880    0.0000 C   0  0  0  0  0  0  0  0  0  0  0  0
   -0.7508   -0.3161    0.0000 C   0  0  0  0  0  0  0  0  0  0  0  0
   -0.1377   -0.8681    0.0000 C   0  0  0  0  0  0  0  0  0  0  0  0
    0.6469   -0.6132    0.0000 C   0  0  0  0  0  0  0  0  0  0  0  0
    0.8184    0.1938    0.0000 C   0  0  0  0  0  0  0  0  0  0  0  0
    0.2664    0.8069    0.0000 N   0  0  0  0  0  0  0  0  0  0  0  0
    0.6789    1.5214    0.0000 C   0  0  0  0  0  0  0  0  0  0  0  0
    0.4239    2.3060    0.0000 C   0  0  0  0  0  0  0  0  0  0  0  0
   -0.3830    2.4775    0.0000 N   0  0  0  0  0  0  0  0  0  0  0  0
    1.4859    1.3498    0.0000 C   0  0  0  0  0  0  0  0  0  0  0  0
    2.0379    1.9629    0.0000 N   0  0  0  0  0  0  0  0  0  0  0  0
    1.7830    2.7476    0.0000 C   0  0  0  0  0  0  0  0  0  0  0  0
    0.9760    2.9191    0.0000 N   0  0  0  0  0  0  0  0  0  0  0  0
    1.5721    0.5294    0.0000 N   0  0  0  0  0  0  0  0  0  0  0  0
    2.2866    0.1169    0.0000 C   0  0  0  0  0  0  0  0  0  0  0  0
    3.0010    0.5294    0.0000 C   0  0  0  0  0  0  0  0  0  0  0  0
    3.7155    0.1169    0.0000 C   0  0  0  0  0  0  0  0  0  0  0  0
    4.4300    0.5294    0.0000 C   0  0  0  0  0  0  0  0  0  0  0  0
    5.1444    0.9419    0.0000 C   0  0  0  0  0  0  0  0  0  0  0  0
    2.3350    3.3607    0.0000 F   0  0  0  0  0  0  0  0  0  0  0  0
  1  2  1  0  0  0  0
  2  3  2  0  0  0  0
  2 13  1  0  0  0  0
  3  4  1  0  0  0  0
  3  6  1  0  0  0  0
  4  5  1  0  0  0  0
  6  7  1  0  0  0  0
  6  9  2  0  0  0  0
  7  8  1  0  0  0  0
  9 10  1  0  0  0  0
  9 12  1  0  0  0  0
 10 11  1  0  0  0  0
 12 13  2  0  0  0  0
 13 14  1  0  0  0  0
 14 15  1  0  0  0  0
 15 16  2  0  0  0  0
 15 24  1  0  0  0  0
 16 17  1  0  0  0  0
 17 18  2  0  0  0  0
 17 20  1  0  0  0  0
 18 19  1  0  0  0  0
 18 23  1  0  0  0  0
 20 21  2  0  0  0  0
 20 24  1  0  0  0  0
 21 22  1  0  0  0  0
 22 23  2  0  0  0  0
 22 30  1  0  0  0  0
 24 25  1  0  0  0  0
 25 26  1  0  0  0  0
 26 27  1  0  0  0  0
 27 28  1  0  0  0  0
 28 29  3  0  0  0  0
M  END
> <DATABASE_ID>
DB02550

> <DATABASE_NAME>
drugbank

> <SMILES>
COC1=C(OC)C(OC)=C(Cl)C(CC2=NC3=C(N)N=C(F)N=C3N2CCCC#C)=C1

> <INCHI_IDENTIFIER>
InChI=1S/C20H21ClFN5O3/c1-5-6-7-8-27-13(24-15-18(23)25-20(22)26-19(15)27)10-11-9-12(28-2)16(29-3)17(30-4)14(11)21/h1,9H,6-8,10H2,2-4H3,(H2,23,25,26)

> <INCHI_KEY>
KCIOVTSUEXGUFJ-UHFFFAOYSA-N

> <FORMULA>
C20H21ClFN5O3

> <MOLECULAR_WEIGHT>
433.864

> <EXACT_MASS>
433.131695475

> <JCHEM_ACCEPTOR_COUNT>
7

> <JCHEM_ATOM_COUNT>
51

> <JCHEM_AVERAGE_NEUTRAL_MICROSPECIES_CHARGE>
4.866031169616668e-07

> <JCHEM_AVERAGE_POLARIZABILITY>
43.10581159596499

> <JCHEM_BIOAVAILABILITY>
1

> <JCHEM_DONOR_COUNT>
1

> <JCHEM_FORMAL_CHARGE>
0

> <JCHEM_GHOSE_FILTER>
1

> <JCHEM_IUPAC>
8-[(2-chloro-3,4,5-trimethoxyphenyl)methyl]-2-fluoro-9-(pent-4-yn-1-yl)-9H-purin-6-amine

> <ALOGPS_LOGP>
3.86

> <JCHEM_LOGP>
3.3633727790000005

> <ALOGPS_LOGS>
-4.34

> <JCHEM_MDDR_LIKE_RULE>
1

> <JCHEM_NEUTRAL_CHARGE>
0

> <JCHEM_NUMBER_OF_RINGS>
3

> <JCHEM_PHYSIOLOGICAL_CHARGE>
0

> <JCHEM_PKA_STRONGEST_ACIDIC>
17.642240600481074

> <JCHEM_PKA_STRONGEST_BASIC>
0.7189183717882044

> <JCHEM_POLAR_SURFACE_AREA>
97.31

> <JCHEM_REFRACTIVITY>
112.65279999999998

> <JCHEM_ROTATABLE_BOND_COUNT>
8

> <JCHEM_RULE_OF_FIVE>
1

> <ALOGPS_SOLUBILITY>
2.00e-02 g/l

> <JCHEM_TRADITIONAL_IUPAC>
tetrahydrofolic acid

> <JCHEM_VEBER_RULE>
0

> <DRUGBANK_ID>
DB02550

> <SECONDARY_ACCESSION_NUMBERS>
EXPT02692

> <DRUG_GROUPS>
experimental

> <GENERIC_NAME>
8-(2-Chloro-3,4,5-Trimethoxy-Benzyl)-2-Fluoro-9-Pent-4-Ylnyl-9h-Purin-6-Ylamine

$$$$
