RSS
  Mrv0541 02241214082D          

 34 36  0  0  0  0            999 V2000
    1.0417   -1.7376    0.0000 C   0  0  0  0  0  0  0  0  0  0  0  0
    0.7816   -2.5205    0.0000 O   0  0  0  0  0  0  0  0  0  0  0  0
    1.8498   -1.5714    0.0000 O   0  0  0  0  0  0  0  0  0  0  0  0
    0.4142   -1.0313    0.0000 C   0  0  0  0  0  0  0  0  0  0  0  0
    0.8352   -0.2817    0.0000 C   0  0  2  0  0  0  0  0  0  0  0  0
    0.1366    0.1540    0.0000 C   0  0  0  0  0  0  0  0  0  0  0  0
   -0.1520    0.7954    0.0000 O   0  0  0  0  0  0  0  0  0  0  0  0
   -0.4477    0.7537    0.0000 N   0  0  0  0  0  0  0  0  0  0  0  0
   -1.0330    1.2703    0.0000 C   0  0  2  0  0  0  0  0  0  0  0  0
   -1.1242    2.0902    0.0000 C   0  0  0  0  0  0  0  0  0  0  0  0
   -1.7376    2.6584    0.0000 O   0  0  0  0  0  0  0  0  0  0  0  0
   -0.3726    2.4303    0.0000 N   0  0  0  0  0  0  0  0  0  0  0  0
    0.1831    1.8206    0.0000 C   0  0  0  0  0  0  0  0  0  0  0  0
    1.2881    1.8457    0.0000 C   0  0  0  0  0  0  0  0  0  0  0  0
    1.3980    1.0562    0.0000 C   0  0  0  0  0  0  0  0  0  0  0  0
    0.9360    0.2707    0.0000 C   0  0  0  0  0  0  0  0  0  0  0  0
    1.2761   -0.4810    0.0000 C   0  0  0  0  0  0  0  0  0  0  0  0
    0.7952   -1.1513    0.0000 C   0  0  0  0  0  0  0  0  0  0  0  0
   -0.0258   -1.0700    0.0000 N   0  0  0  0  0  0  0  0  0  0  0  0
    1.6856    0.1649    0.0000 C   0  0  0  0  0  0  0  0  0  0  0  0
    1.0466    0.7537    0.0000 C   0  0  0  0  0  0  0  0  0  0  0  0
    0.4477    1.2992    0.0000 C   0  0  0  0  0  0  0  0  0  0  0  0
    0.7068    1.5267    0.0000 C   0  0  0  0  0  0  0  0  0  0  0  0
   -1.5270    0.5146    0.0000 C   0  0  0  0  0  0  0  0  0  0  0  0
   -1.1869   -0.2371    0.0000 C   0  0  0  0  0  0  0  0  0  0  0  0
   -0.3659   -0.3184    0.0000 C   0  0  0  0  0  0  0  0  0  0  0  0
   -1.3606   -1.0780    0.0000 C   0  0  0  0  0  0  0  0  0  0  0  0
   -0.6903   -1.5589    0.0000 C   0  0  0  0  0  0  0  0  0  0  0  0
   -2.1123   -1.4181    0.0000 C   0  0  0  0  0  0  0  0  0  0  0  0
   -0.7716   -2.3799    0.0000 C   0  0  0  0  0  0  0  0  0  0  0  0
   -2.1936   -2.2391    0.0000 C   0  0  0  0  0  0  0  0  0  0  0  0
   -1.5232   -2.7200    0.0000 C   0  0  0  0  0  0  0  0  0  0  0  0
    0.2695   -0.4266    0.0000 H   0  0  0  0  0  0  0  0  0  0  0  0
   -0.5149    1.5396    0.0000 H   0  0  0  0  0  0  0  0  0  0  0  0
  1  2  2  0  0  0  0
  1  3  1  0  0  0  0
  1  4  1  0  0  0  0
  4  5  1  0  0  0  0
  5  6  1  0  0  0  0
  5 20  1  1  0  0  0
  5 33  1  1  0  0  0
  6  7  2  0  0  0  0
  6  8  1  0  0  0  0
  9  8  1  1  0  0  0
  9 10  1  0  0  0  0
  9 24  1  0  0  0  0
  9 34  1  6  0  0  0
 10 11  2  0  0  0  0
 10 12  1  0  0  0  0
 12 13  1  0  0  0  0
 13 14  1  0  0  0  0
 14 15  1  0  0  0  0
 15 16  1  0  0  0  0
 16 17  1  0  0  0  0
 17 18  1  0  0  0  0
 18 19  1  0  0  0  0
 19 26  1  0  0  0  0
 19 28  1  0  0  0  0
 20 21  1  0  0  0  0
 21 22  1  0  0  0  0
 21 23  1  0  0  0  0
 24 25  1  0  0  0  0
 25 26  2  0  0  0  0
 25 27  1  0  0  0  0
 27 28  2  0  0  0  0
 27 29  1  0  0  0  0
 28 30  1  0  0  0  0
 29 31  2  0  0  0  0
 30 32  2  0  0  0  0
 31 32  1  0  0  0  0
M  END
> <DATABASE_ID>
DB08493

> <DATABASE_NAME>
drugbank

> <SMILES>
[H][C@@](CC(C)C)(CC(O)=O)C(=O)N[C@@]1([H])CC2=CN(CCCCCCNC1=O)C1=C2C=CC=C1

> <INCHI_IDENTIFIER>
InChI=1S/C25H35N3O4/c1-17(2)13-18(15-23(29)30)24(31)27-21-14-19-16-28(22-10-6-5-9-20(19)22)12-8-4-3-7-11-26-25(21)32/h5-6,9-10,16-18,21H,3-4,7-8,11-15H2,1-2H3,(H,26,32)(H,27,31)(H,29,30)/t18-,21+/m1/s1

> <INCHI_KEY>
AKWKBACKRMYPRV-NQIIRXRSSA-N

> <FORMULA>
C25H35N3O4

> <MOLECULAR_WEIGHT>
441.5631

> <EXACT_MASS>
441.262756623

> <JCHEM_ACCEPTOR_COUNT>
4

> <JCHEM_ATOM_COUNT>
67

> <JCHEM_AVERAGE_NEUTRAL_MICROSPECIES_CHARGE>
-0.9973188143595534

> <JCHEM_AVERAGE_POLARIZABILITY>
48.71137895724928

> <JCHEM_BIOAVAILABILITY>
1

> <JCHEM_DONOR_COUNT>
3

> <JCHEM_FORMAL_CHARGE>
0

> <JCHEM_GHOSE_FILTER>
1

> <JCHEM_IUPAC>
(3R)-5-methyl-3-{[(10S)-9-oxo-1,8-diazatricyclo[10.6.1.0^{13,18}]nonadeca-12(19),13(18),14,16-tetraen-10-yl]carbamoyl}hexanoic acid

> <ALOGPS_LOGP>
3.32

> <JCHEM_LOGP>
3.4745734150000005

> <ALOGPS_LOGS>
-4.59

> <JCHEM_MDDR_LIKE_RULE>
1

> <JCHEM_NEUTRAL_CHARGE>
-1

> <JCHEM_NUMBER_OF_RINGS>
3

> <JCHEM_PHYSIOLOGICAL_CHARGE>
-1

> <JCHEM_PKA>
12.915041908242841

> <JCHEM_PKA_STRONGEST_ACIDIC>
4.42969551542402

> <JCHEM_PKA_STRONGEST_BASIC>
-1.1781836758009003

> <JCHEM_POLAR_SURFACE_AREA>
100.43

> <JCHEM_REFRACTIVITY>
123.2236

> <JCHEM_ROTATABLE_BOND_COUNT>
6

> <JCHEM_RULE_OF_FIVE>
1

> <ALOGPS_SOLUBILITY>
1.13e-02 g/l

> <JCHEM_TRADITIONAL_IUPAC>
tetrahydrofolic acid

> <JCHEM_VEBER_RULE>
0

> <DRUGBANK_ID>
DB08493

> <DRUG_GROUPS>
experimental

> <GENERIC_NAME>
5-METHYL-3-(9-OXO-1,8-DIAZA-TRICYCLO[10.6.1.013,18]NONADECA-12(19),13,15,17-TETRAEN-10-YLCARBAMOYL)-HEXANOIC ACID

$$$$
