SD2
  Mrv0541 02231215482D          

 35 36  0  0  0  0            999 V2000
   -5.2422    0.6839    0.0000 C   0  0  0  0  0  0  0  0  0  0  0  0
   -4.5277    1.0964    0.0000 S   0  0  0  0  0  0  0  0  0  0  0  0
   -3.8132    0.6839    0.0000 C   0  0  0  0  0  0  0  0  0  0  0  0
   -3.0988    1.0964    0.0000 C   0  0  0  0  0  0  0  0  0  0  0  0
   -2.3843    0.6839    0.0000 C   0  0  1  0  0  0  0  0  0  0  0  0
   -2.3843   -0.1411    0.0000 C   0  0  0  0  0  0  0  0  0  0  0  0
   -1.6698   -0.5536    0.0000 O   0  0  0  0  0  0  0  0  0  0  0  0
   -3.0988   -0.5536    0.0000 N   0  0  0  0  0  0  0  0  0  0  0  0
   -1.6698    1.0964    0.0000 N   0  0  0  0  0  0  0  0  0  0  0  0
   -0.9554    0.6839    0.0000 C   0  0  0  0  0  0  0  0  0  0  0  0
   -0.9554   -0.1411    0.0000 O   0  0  0  0  0  0  0  0  0  0  0  0
   -0.2409    1.0964    0.0000 C   0  0  2  0  0  0  0  0  0  0  0  0
   -0.1547    1.9169    0.0000 C   0  0  0  0  0  0  0  0  0  0  0  0
    0.6523    2.0884    0.0000 C   0  0  0  0  0  0  0  0  0  0  0  0
    1.0648    1.3740    0.0000 C   0  0  0  0  0  0  0  0  0  0  0  0
    0.5128    0.7609    0.0000 N   0  0  0  0  0  0  0  0  0  0  0  0
    0.6843   -0.0461    0.0000 C   0  0  0  0  0  0  0  0  0  0  0  0
    0.0712   -0.5981    0.0000 O   0  0  0  0  0  0  0  0  0  0  0  0
    1.4689   -0.3011    0.0000 C   0  0  1  0  0  0  0  0  0  0  0  0
    1.6405   -1.1080    0.0000 N   0  0  0  0  0  0  0  0  0  0  0  0
    1.0274   -1.6601    0.0000 C   0  0  0  0  0  0  0  0  0  0  0  0
    0.2427   -1.4051    0.0000 O   0  0  0  0  0  0  0  0  0  0  0  0
    1.1989   -2.4670    0.0000 C   0  0  0  0  0  0  0  0  0  0  0  0
    0.5858   -3.0191    0.0000 S   0  0  0  0  0  0  0  0  0  0  0  0
    2.0820    0.2510    0.0000 C   0  0  0  0  0  0  0  0  0  0  0  0
    2.8666   -0.0040    0.0000 C   0  0  0  0  0  0  0  0  0  0  0  0
    3.4797    0.5481    0.0000 C   0  0  0  0  0  0  0  0  0  0  0  0
    4.2644    0.2931    0.0000 C   0  0  0  0  0  0  0  0  0  0  0  0
    4.4359   -0.5138    0.0000 C   0  0  0  0  0  0  0  0  0  0  0  0
    5.2205   -0.7688    0.0000 O   0  0  0  0  0  0  0  0  0  0  0  0
    3.8228   -1.0659    0.0000 C   0  0  0  0  0  0  0  0  0  0  0  0
    3.0382   -0.8109    0.0000 C   0  0  0  0  0  0  0  0  0  0  0  0
   -2.8900    0.3919    0.0000 H   0  0  0  0  0  0  0  0  0  0  0  0
   -0.7306    1.4144    0.0000 H   0  0  0  0  0  0  0  0  0  0  0  0
    1.0350   -0.6918    0.0000 H   0  0  0  0  0  0  0  0  0  0  0  0
  1  2  1  0  0  0  0
  2  3  1  0  0  0  0
  3  4  1  0  0  0  0
  4  5  1  0  0  0  0
  5  6  1  0  0  0  0
  5  9  1  1  0  0  0
  5 33  1  1  0  0  0
  6  7  2  0  0  0  0
  6  8  1  0  0  0  0
  9 10  1  0  0  0  0
 10 11  2  0  0  0  0
 12 10  1  6  0  0  0
 12 13  1  0  0  0  0
 12 16  1  0  0  0  0
 12 34  1  1  0  0  0
 13 14  1  0  0  0  0
 14 15  1  0  0  0  0
 15 16  1  0  0  0  0
 16 17  1  0  0  0  0
 17 18  2  0  0  0  0
 17 19  1  0  0  0  0
 19 20  1  6  0  0  0
 19 25  1  0  0  0  0
 19 35  1  1  0  0  0
 20 21  1  0  0  0  0
 21 22  2  0  0  0  0
 21 23  1  0  0  0  0
 23 24  1  0  0  0  0
 25 26  1  0  0  0  0
 26 27  2  0  0  0  0
 26 32  1  0  0  0  0
 27 28  1  0  0  0  0
 28 29  2  0  0  0  0
 29 30  1  0  0  0  0
 29 31  1  0  0  0  0
 31 32  2  0  0  0  0
M  END
> <DATABASE_ID>
DB01883

> <DATABASE_NAME>
drugbank

> <SMILES>
[H][C@@](CCSC)(NC(=O)[C@]1([H])CCCN1C(=O)[C@]([H])(CC1=CC=C(O)C=C1)NC(=O)CS)C(N)=O

> <INCHI_IDENTIFIER>
InChI=1S/C21H30N4O5S2/c1-32-10-8-15(19(22)28)24-20(29)17-3-2-9-25(17)21(30)16(23-18(27)12-31)11-13-4-6-14(26)7-5-13/h4-7,15-17,26,31H,2-3,8-12H2,1H3,(H2,22,28)(H,23,27)(H,24,29)/t15-,16-,17-/m0/s1

> <INCHI_KEY>
LNLWXWOYQHAKTD-ULQDDVLXSA-N

> <FORMULA>
C21H30N4O5S2

> <MOLECULAR_WEIGHT>
482.617

> <EXACT_MASS>
482.16576147

> <JCHEM_ACCEPTOR_COUNT>
5

> <JCHEM_ATOM_COUNT>
62

> <JCHEM_AVERAGE_NEUTRAL_MICROSPECIES_CHARGE>
-0.008312879546380584

> <JCHEM_AVERAGE_POLARIZABILITY>
49.32769531920685

> <JCHEM_BIOAVAILABILITY>
1

> <JCHEM_DONOR_COUNT>
5

> <JCHEM_FORMAL_CHARGE>
0

> <JCHEM_GHOSE_FILTER>
0

> <JCHEM_IUPAC>
(2S)-2-{[(2S)-1-[(2S)-3-(4-hydroxyphenyl)-2-(2-sulfanylacetamido)propanoyl]pyrrolidin-2-yl]formamido}-4-(methylsulfanyl)butanamide

> <ALOGPS_LOGP>
1.31

> <JCHEM_LOGP>
-0.13642489666666763

> <ALOGPS_LOGS>
-4.39

> <JCHEM_MDDR_LIKE_RULE>
0

> <JCHEM_NEUTRAL_CHARGE>
0

> <JCHEM_NUMBER_OF_RINGS>
2

> <JCHEM_PHYSIOLOGICAL_CHARGE>
0

> <JCHEM_PKA>
9.778053093237325

> <JCHEM_PKA_STRONGEST_ACIDIC>
9.174695311383678

> <JCHEM_PKA_STRONGEST_BASIC>
-3.4251664983004337

> <JCHEM_POLAR_SURFACE_AREA>
141.82999999999998

> <JCHEM_REFRACTIVITY>
125.565

> <JCHEM_ROTATABLE_BOND_COUNT>
11

> <JCHEM_RULE_OF_FIVE>
1

> <ALOGPS_SOLUBILITY>
1.97e-02 g/l

> <JCHEM_TRADITIONAL_IUPAC>
tetrahydrofolic acid

> <JCHEM_VEBER_RULE>
0

> <DRUGBANK_ID>
DB01883

> <SECONDARY_ACCESSION_NUMBERS>
EXPT02874

> <DRUG_GROUPS>
experimental

> <GENERIC_NAME>
N-(Sulfanylacetyl)Tyrosylprolylmethioninamide

$$$$
