SNX
  Mrv0541 02241214102D          

 28 31  0  0  0  0            999 V2000
   -0.4730    2.5634    0.0000 O   0  0  0  0  0  0  0  0  0  0  0  0
    0.2415    2.1509    0.0000 C   0  0  0  0  0  0  0  0  0  0  0  0
    0.9560    2.5634    0.0000 N   0  0  0  0  0  0  0  0  0  0  0  0
    0.2415    1.3259    0.0000 C   0  0  0  0  0  0  0  0  0  0  0  0
    0.9560    0.9134    0.0000 C   0  0  0  0  0  0  0  0  0  0  0  0
    0.9560    0.0884    0.0000 C   0  0  0  0  0  0  0  0  0  0  0  0
   -0.4730    0.9134    0.0000 C   0  0  0  0  0  0  0  0  0  0  0  0
   -1.1875    1.3259    0.0000 N   0  0  0  0  0  0  0  0  0  0  0  0
   -1.1875    2.1509    0.0000 C   0  0  0  0  0  0  0  0  0  0  0  0
   -1.9019    2.5634    0.0000 C   0  0  0  0  0  0  0  0  0  0  0  0
   -1.9019    3.3884    0.0000 O   0  0  0  0  0  0  0  0  0  0  0  0
   -2.6164    3.8009    0.0000 C   0  0  0  0  0  0  0  0  0  0  0  0
   -0.4730    0.0884    0.0000 C   0  0  0  0  0  0  0  0  0  0  0  0
    0.2415   -0.3241    0.0000 C   0  0  0  0  0  0  0  0  0  0  0  0
    0.2415   -1.1491    0.0000 N   0  0  0  0  0  0  0  0  0  0  0  0
   -0.4259   -1.6340    0.0000 C   0  0  0  0  0  0  0  0  0  0  0  0
   -1.2329   -1.4624    0.0000 C   0  0  0  0  0  0  0  0  0  0  0  0
   -1.7850   -2.0755    0.0000 C   0  0  0  0  0  0  0  0  0  0  0  0
   -1.5300   -2.8602    0.0000 C   0  0  0  0  0  0  0  0  0  0  0  0
   -0.7230   -3.0317    0.0000 C   0  0  0  0  0  0  0  0  0  0  0  0
    0.9089   -1.6340    0.0000 C   0  0  0  0  0  0  0  0  0  0  0  0
    1.7159   -1.4624    0.0000 C   0  0  0  0  0  0  0  0  0  0  0  0
    2.2679   -2.0755    0.0000 C   0  0  0  0  0  0  0  0  0  0  0  0
    2.0130   -2.8602    0.0000 C   0  0  0  0  0  0  0  0  0  0  0  0
    1.2060   -3.0317    0.0000 C   0  0  0  0  0  0  0  0  0  0  0  0
    0.9511   -3.8163    0.0000 O   0  0  0  0  0  0  0  0  0  0  0  0
    0.6540   -2.4186    0.0000 C   0  0  0  0  0  0  0  0  0  0  0  0
   -0.1710   -2.4186    0.0000 C   0  0  0  0  0  0  0  0  0  0  0  0
  1  2  2  0  0  0  0
  2  3  1  0  0  0  0
  2  4  1  0  0  0  0
  4  5  2  0  0  0  0
  4  7  1  0  0  0  0
  5  6  1  0  0  0  0
  6 14  2  0  0  0  0
  7  8  1  0  0  0  0
  7 13  2  0  0  0  0
  8  9  1  0  0  0  0
  9 10  1  0  0  0  0
 10 11  1  0  0  0  0
 11 12  1  0  0  0  0
 13 14  1  0  0  0  0
 14 15  1  0  0  0  0
 15 16  1  0  0  0  0
 15 21  1  0  0  0  0
 16 17  2  0  0  0  0
 16 28  1  0  0  0  0
 17 18  1  0  0  0  0
 18 19  2  0  0  0  0
 19 20  1  0  0  0  0
 20 28  2  0  0  0  0
 21 22  1  0  0  0  0
 21 27  2  0  0  0  0
 22 23  1  0  0  0  0
 23 24  1  0  0  0  0
 24 25  1  0  0  0  0
 25 26  2  0  0  0  0
 25 27  1  0  0  0  0
 27 28  1  0  0  0  0
M  END
> <DATABASE_ID>
DB08557

> <DATABASE_NAME>
drugbank

> <SMILES>
COCCNC1=CC(=CC=C1C(N)=O)N1C2=C(C3=CC=CC=C13)C(=O)CCC2

> <INCHI_IDENTIFIER>
InChI=1S/C22H23N3O3/c1-28-12-11-24-17-13-14(9-10-15(17)22(23)27)25-18-6-3-2-5-16(18)21-19(25)7-4-8-20(21)26/h2-3,5-6,9-10,13,24H,4,7-8,11-12H2,1H3,(H2,23,27)

> <INCHI_KEY>
XQKFKSJUBJPOLY-UHFFFAOYSA-N

> <FORMULA>
C22H23N3O3

> <MOLECULAR_WEIGHT>
377.4363

> <EXACT_MASS>
377.173941617

> <JCHEM_ACCEPTOR_COUNT>
4

> <JCHEM_ATOM_COUNT>
51

> <JCHEM_AVERAGE_NEUTRAL_MICROSPECIES_CHARGE>
1.7371453991984106e-05

> <JCHEM_AVERAGE_POLARIZABILITY>
41.993716633566535

> <JCHEM_BIOAVAILABILITY>
1

> <JCHEM_DONOR_COUNT>
2

> <JCHEM_FORMAL_CHARGE>
0

> <JCHEM_GHOSE_FILTER>
1

> <JCHEM_IUPAC>
2-[(2-methoxyethyl)amino]-4-(4-oxo-2,3,4,9-tetrahydro-1H-carbazol-9-yl)benzamide

> <ALOGPS_LOGP>
3.09

> <JCHEM_LOGP>
2.9520577526666663

> <ALOGPS_LOGS>
-4.44

> <JCHEM_MDDR_LIKE_RULE>
1

> <JCHEM_NEUTRAL_CHARGE>
0

> <JCHEM_NUMBER_OF_RINGS>
4

> <JCHEM_PHYSIOLOGICAL_CHARGE>
0

> <JCHEM_PKA>
16.482712159297158

> <JCHEM_PKA_STRONGEST_ACIDIC>
15.239627599813131

> <JCHEM_PKA_STRONGEST_BASIC>
2.241489435057927

> <JCHEM_POLAR_SURFACE_AREA>
86.35

> <JCHEM_REFRACTIVITY>
120.754

> <JCHEM_ROTATABLE_BOND_COUNT>
6

> <JCHEM_RULE_OF_FIVE>
1

> <ALOGPS_SOLUBILITY>
1.36e-02 g/l

> <JCHEM_TRADITIONAL_IUPAC>
biotin

> <JCHEM_VEBER_RULE>
0

> <DRUGBANK_ID>
DB08557

> <DRUG_GROUPS>
experimental

> <GENERIC_NAME>
2-[(2-methoxyethyl)amino]-4-(4-oxo-1,2,3,4-tetrahydro-9H-carbazol-9-yl)benzamide

$$$$
