SP6
  Mrv0541 02241214102D          

 28 31  0  0  0  0            999 V2000
    0.5207    0.6418    0.0000 N   0  0  0  0  0  0  0  0  0  0  0  0
    2.6641    0.2293    0.0000 C   0  0  0  0  0  0  0  0  0  0  0  0
    1.2351    0.2293    0.0000 C   0  0  0  0  0  0  0  0  0  0  0  0
   -0.2639    0.3868    0.0000 C   0  0  0  0  0  0  0  0  0  0  0  0
   -1.5739    1.0543    0.0000 C   0  0  0  0  0  0  0  0  0  0  0  0
   -0.7489    1.0543    0.0000 C   0  0  0  0  0  0  0  0  0  0  0  0
    4.8075    1.4668    0.0000 C   0  0  0  0  0  0  0  0  0  0  0  0
    4.8075    0.6418    0.0000 C   0  0  0  0  0  0  0  0  0  0  0  0
    4.0930    0.2293    0.0000 C   0  0  0  0  0  0  0  0  0  0  0  0
    3.3786    1.4668    0.0000 C   0  0  0  0  0  0  0  0  0  0  0  0
   -3.2239   -0.3747    0.0000 C   0  0  0  0  0  0  0  0  0  0  0  0
    3.3786    0.6418    0.0000 C   0  0  0  0  0  0  0  0  0  0  0  0
   -1.9864    1.7688    0.0000 O   0  0  0  0  0  0  0  0  0  0  0  0
   -1.9864    0.3398    0.0000 O   0  0  0  0  0  0  0  0  0  0  0  0
   -2.8114    0.3398    0.0000 C   0  0  0  0  0  0  0  0  0  0  0  0
   -4.0489   -0.3747    0.0000 C   0  0  0  0  0  0  0  0  0  0  0  0
   -4.4614   -1.0891    0.0000 C   0  0  0  0  0  0  0  0  0  0  0  0
   -2.8114   -1.0891    0.0000 C   0  0  0  0  0  0  0  0  0  0  0  0
   -3.2239   -1.8036    0.0000 C   0  0  0  0  0  0  0  0  0  0  0  0
   -4.0489   -1.8036    0.0000 C   0  0  0  0  0  0  0  0  0  0  0  0
    0.5207    1.4668    0.0000 C   0  0  0  0  0  0  0  0  0  0  0  0
   -0.2639    1.7217    0.0000 S   0  0  0  0  0  0  0  0  0  0  0  0
    1.2351    1.8793    0.0000 C   0  0  0  0  0  0  0  0  0  0  0  0
    1.9496    1.4668    0.0000 C   0  0  0  0  0  0  0  0  0  0  0  0
    2.6641    1.8793    0.0000 O   0  0  0  0  0  0  0  0  0  0  0  0
    1.2351   -0.5957    0.0000 O   0  0  0  0  0  0  0  0  0  0  0  0
    1.9496    0.6418    0.0000 N   0  0  0  0  0  0  0  0  0  0  0  0
    4.0930    1.8793    0.0000 C   0  0  0  0  0  0  0  0  0  0  0  0
  1 21  1  0  0  0  0
  1  3  1  0  0  0  0
  1  4  1  0  0  0  0
  2 27  1  0  0  0  0
  2 12  1  0  0  0  0
  3 27  1  0  0  0  0
  3 26  2  0  0  0  0
  4  6  2  0  0  0  0
  5  6  1  0  0  0  0
  5 14  1  0  0  0  0
  5 13  2  0  0  0  0
  6 22  1  0  0  0  0
  7  8  1  0  0  0  0
  7 28  2  0  0  0  0
  8  9  2  0  0  0  0
  9 12  1  0  0  0  0
 10 12  2  0  0  0  0
 10 28  1  0  0  0  0
 11 15  1  0  0  0  0
 11 18  2  0  0  0  0
 11 16  1  0  0  0  0
 14 15  1  0  0  0  0
 16 17  2  0  0  0  0
 17 20  1  0  0  0  0
 18 19  1  0  0  0  0
 19 20  2  0  0  0  0
 21 23  2  0  0  0  0
 21 22  1  0  0  0  0
 23 24  1  0  0  0  0
 24 25  2  0  0  0  0
 24 27  1  0  0  0  0
M  END
> <DATABASE_ID>
DB08561

> <DATABASE_NAME>
drugbank

> <SMILES>
O=C(OCC1=CC=CC=C1)C1=CN2C(S1)=CC(=O)N(CC1=CC=CC=C1)C2=O

> <INCHI_IDENTIFIER>
InChI=1S/C21H16N2O4S/c24-18-11-19-23(21(26)22(18)12-15-7-3-1-4-8-15)13-17(28-19)20(25)27-14-16-9-5-2-6-10-16/h1-11,13H,12,14H2

> <INCHI_KEY>
PLBINCOCFGQAJM-UHFFFAOYSA-N

> <FORMULA>
C21H16N2O4S

> <MOLECULAR_WEIGHT>
392.428

> <EXACT_MASS>
392.0830777

> <JCHEM_ACCEPTOR_COUNT>
3

> <JCHEM_ATOM_COUNT>
44

> <JCHEM_AVERAGE_NEUTRAL_MICROSPECIES_CHARGE>
0.0

> <JCHEM_AVERAGE_POLARIZABILITY>
39.884909659954374

> <JCHEM_BIOAVAILABILITY>
1

> <JCHEM_DONOR_COUNT>
0

> <JCHEM_FORMAL_CHARGE>
0

> <JCHEM_GHOSE_FILTER>
1

> <JCHEM_IUPAC>
benzyl 6-benzyl-5,7-dioxo-5H,6H,7H-[1,3]thiazolo[3,2-c]pyrimidine-2-carboxylate

> <ALOGPS_LOGP>
3.17

> <JCHEM_LOGP>
3.9597723750000005

> <ALOGPS_LOGS>
-4.35

> <JCHEM_MDDR_LIKE_RULE>
1

> <JCHEM_NEUTRAL_CHARGE>
0

> <JCHEM_NUMBER_OF_RINGS>
4

> <JCHEM_PHYSIOLOGICAL_CHARGE>
0

> <JCHEM_PKA_STRONGEST_BASIC>
-5.163599808072801

> <JCHEM_POLAR_SURFACE_AREA>
66.92

> <JCHEM_REFRACTIVITY>
116.67500000000001

> <JCHEM_ROTATABLE_BOND_COUNT>
6

> <JCHEM_RULE_OF_FIVE>
1

> <ALOGPS_SOLUBILITY>
1.76e-02 g/l

> <JCHEM_TRADITIONAL_IUPAC>
tetrahydrofolic acid

> <JCHEM_VEBER_RULE>
0

> <DRUGBANK_ID>
DB08561

> <DRUG_GROUPS>
experimental

> <GENERIC_NAME>
BENZYL 6-BENZYL-5,7-DIOXO-6,7-DIHYDRO-5H-[1,3]THIAZOLO[3,2-C]PYRIMIDINE-2-CARBOXYLATE

$$$$
