Structure #1
  Mrv0541 02241207142D          

 17 18  0  0  0  0            999 V2000
    4.2868    1.6500    0.0000 C   0  0  0  0  0  0  0  0  0  0  0  0
   -2.0945    0.4125    0.0000 C   0  0  0  0  0  0  0  0  0  0  0  0
    3.5724    1.2375    0.0000 C   0  0  0  0  0  0  0  0  0  0  0  0
    2.8579    1.6500    0.0000 C   0  0  0  0  0  0  0  0  0  0  0  0
   -0.7846    1.0799    0.0000 C   0  0  0  0  0  0  0  0  0  0  0  0
    0.7145   -0.4125    0.0000 C   0  0  0  0  0  0  0  0  0  0  0  0
   -1.2695    0.4125    0.0000 C   0  0  0  0  0  0  0  0  0  0  0  0
    0.0000    0.8250    0.0000 C   0  0  0  0  0  0  0  0  0  0  0  0
    0.0000    0.0000    0.0000 C   0  0  0  0  0  0  0  0  0  0  0  0
    0.7145    1.2375    0.0000 B   0  0  0  0  0  0  0  0  0  0  0  0
    1.4289    0.0000    0.0000 N   0  0  0  0  0  0  0  0  0  0  0  0
    1.4289    0.8250    0.0000 N   0  0  0  0  0  0  0  0  0  0  0  0
    0.7145    2.0625    0.0000 O   0  0  0  0  0  0  0  0  0  0  0  0
    1.7309    1.9520    0.0000 O   0  0  0  0  0  0  0  0  0  0  0  0
    2.5559    0.5230    0.0000 O   0  0  0  0  0  0  0  0  0  0  0  0
   -0.7846   -0.2549    0.0000 S   0  0  0  0  0  0  0  0  0  0  0  0
    2.1434    1.2375    0.0000 S   0  0  0  0  0  0  0  0  0  0  0  0
  1  3  1  0  0  0  0
  2  7  1  0  0  0  0
  3  4  1  0  0  0  0
  4 17  1  0  0  0  0
  5  7  2  0  0  0  0
  5  8  1  0  0  0  0
  6  9  1  0  0  0  0
  6 11  2  0  0  0  0
  7 16  1  0  0  0  0
  8  9  2  0  0  0  0
  8 10  1  0  0  0  0
  9 16  1  0  0  0  0
 10 12  1  0  0  0  0
 10 13  1  0  0  0  0
 11 12  1  0  0  0  0
 12 17  1  0  0  0  0
 14 17  2  0  0  0  0
 15 17  2  0  0  0  0
M  END
> <DATABASE_ID>
DB08605

> <DATABASE_NAME>
drugbank

> <SMILES>
CCCS(=O)(=O)N1N=CC2=C(C=C(C)S2)B1O

> <INCHI_IDENTIFIER>
InChI=1S/C9H13BN2O3S2/c1-3-4-17(14,15)12-10(13)8-5-7(2)16-9(8)6-11-12/h5-6,13H,3-4H2,1-2H3

> <INCHI_KEY>
TVXLILKNSPCVRB-UHFFFAOYSA-N

> <FORMULA>
C9H13BN2O3S2

> <MOLECULAR_WEIGHT>
272.152

> <EXACT_MASS>
272.046064138

> <JCHEM_ACCEPTOR_COUNT>
4

> <JCHEM_ATOM_COUNT>
30

> <JCHEM_AVERAGE_NEUTRAL_MICROSPECIES_CHARGE>
-0.025001142563608966

> <JCHEM_AVERAGE_POLARIZABILITY>
27.33669818456308

> <JCHEM_BIOAVAILABILITY>
1

> <JCHEM_DONOR_COUNT>
1

> <JCHEM_FORMAL_CHARGE>
0

> <JCHEM_GHOSE_FILTER>
1

> <JCHEM_IUPAC>
6-methyl-2-(propane-1-sulfonyl)-1H,2H-thieno[3,2-d][1,2,3]diazaborinin-1-ol

> <ALOGPS_LOGP>
1.31

> <JCHEM_LOGP>
1.6950000000000005

> <ALOGPS_LOGS>
-3.38

> <JCHEM_MDDR_LIKE_RULE>
0

> <JCHEM_NEUTRAL_CHARGE>
0

> <JCHEM_NUMBER_OF_RINGS>
2

> <JCHEM_PHYSIOLOGICAL_CHARGE>
0

> <JCHEM_PKA_STRONGEST_ACIDIC>
8.59101405024963

> <JCHEM_PKA_STRONGEST_BASIC>
1.2372885021061668

> <JCHEM_POLAR_SURFACE_AREA>
72.19

> <JCHEM_REFRACTIVITY>
62.8516

> <JCHEM_ROTATABLE_BOND_COUNT>
2

> <JCHEM_RULE_OF_FIVE>
1

> <ALOGPS_SOLUBILITY>
1.15e-01 g/l

> <JCHEM_TRADITIONAL_IUPAC>
biotin

> <JCHEM_VEBER_RULE>
0

> <DRUGBANK_ID>
DB08605

> <DRUG_GROUPS>
experimental

> <GENERIC_NAME>
6-METHYL-2(PROPANE-1-SULFONYL)-2H-THIENO[3,2-D][1,2,3]DIAZABORININ-1-OL

$$$$
