Structure #1
  Mrv1718004241813522D          

 11 12  0  0  0  0            999 V2000
    2.1434    1.2375    0.0000 C   0  0  0  0  0  0  0  0  0  0  0  0
   -0.7145    1.2375    0.0000 C   0  0  0  0  0  0  0  0  0  0  0  0
    1.4289    0.8250    0.0000 C   0  0  0  0  0  0  0  0  0  0  0  0
    0.0000    0.8250    0.0000 C   0  0  0  0  0  0  0  0  0  0  0  0
    2.1434    2.0625    0.0000 C   0  0  0  0  0  0  0  0  0  0  0  0
   -0.7145    2.0625    0.0000 C   0  0  0  0  0  0  0  0  0  0  0  0
    0.7145    1.2375    0.0000 C   0  0  0  0  0  0  0  0  0  0  0  0
    1.4289    2.4750    0.0000 C   0  0  0  0  0  0  0  0  0  0  0  0
    0.7145    2.0625    0.0000 C   0  0  0  0  0  0  0  0  0  0  0  0
    0.0000    2.4750    0.0000 N   0  0  0  0  0  0  0  0  0  0  0  0
    1.4289    3.3000    0.0000 O   0  0  0  0  0  0  0  0  0  0  0  0
  1  3  2  0  0  0  0
  1  5  1  0  0  0  0
  2  4  2  0  0  0  0
  2  6  1  0  0  0  0
  3  7  1  0  0  0  0
  4  7  1  0  0  0  0
  5  8  2  0  0  0  0
  6 10  2  0  0  0  0
  7  9  2  0  0  0  0
  8  9  1  0  0  0  0
  8 11  1  0  0  0  0
  9 10  1  0  0  0  0
M  END
> <DATABASE_ID>
DB11145

> <DATABASE_NAME>
drugbank

> <SMILES>
OC1=CC=CC2=C1N=CC=C2

> <INCHI_IDENTIFIER>
InChI=1S/C9H7NO/c11-8-5-1-3-7-4-2-6-10-9(7)8/h1-6,11H

> <INCHI_KEY>
MCJGNVYPOGVAJF-UHFFFAOYSA-N

> <FORMULA>
C9H7NO

> <MOLECULAR_WEIGHT>
145.158

> <EXACT_MASS>
145.052763851

> <JCHEM_ACCEPTOR_COUNT>
2

> <JCHEM_ATOM_COUNT>
18

> <JCHEM_AVERAGE_POLARIZABILITY>
14.866872454340452

> <JCHEM_BIOAVAILABILITY>
1

> <JCHEM_DONOR_COUNT>
1

> <JCHEM_FORMAL_CHARGE>
0

> <JCHEM_GHOSE_FILTER>
0

> <JCHEM_IUPAC>
quinolin-8-ol

> <ALOGPS_LOGP>
1.91

> <JCHEM_LOGP>
1.8273351496666665

> <ALOGPS_LOGS>
-1.54

> <JCHEM_MDDR_LIKE_RULE>
0

> <JCHEM_NUMBER_OF_RINGS>
2

> <JCHEM_PHYSIOLOGICAL_CHARGE>
0

> <JCHEM_PKA_STRONGEST_ACIDIC>
9.357697226795183

> <JCHEM_PKA_STRONGEST_BASIC>
4.827847757000724

> <JCHEM_POLAR_SURFACE_AREA>
33.120000000000005

> <JCHEM_REFRACTIVITY>
41.9602

> <JCHEM_ROTATABLE_BOND_COUNT>
0

> <JCHEM_RULE_OF_FIVE>
1

> <ALOGPS_SOLUBILITY>
4.18e+00 g/l

> <JCHEM_TRADITIONAL_IUPAC>
8 hydroxyquinoline

> <JCHEM_VEBER_RULE>
1

> <DRUGBANK_ID>
DB11145

> <DRUG_GROUPS>
approved; vet_approved

> <GENERIC_NAME>
Oxyquinoline

> <SYNONYMS>
8-Hydroxyquinoline; hydroxybenzopyridine; Hydroxyquinoline; oxine; Oxyquinoline; Phenopyridine

> <PRODUCTS>
Arkodyne; Fem pH; New Skin Clear Liquid Bandage; New Skin Clear Spray Bandage; Racestyptine Cord; Racestyptine Sol; Relegard; Sulpak II; Trimo San; Trimo San Deodorant Vaginal Jelly; Trimo-San

> <SALTS>
8-Hydroxyquinoline citrate; 8-Hydroxyquinoline hydrochloride; 8-Hydroxyquinoline salicylate; 8-Hydroxyquinoline sulfate; Oxyquinoline sulfate

$$$$
