TG(22:1(13Z)/22:1(13Z)/22:1(13Z))
  Mrv1652309081701002D          

 76 75  0  0  0  0            999 V2000
   24.1437   -6.4800    0.0000 C   0  0  0  0  0  0  0  0  0  0  0  0
   23.1826   -7.0350    0.0000 C   0  0  1  0  0  0  0  0  0  0  0  0
   22.2214   -6.4802    0.0000 C   0  0  0  0  0  0  0  0  0  0  0  0
   24.1436   -5.3702    0.0000 O   0  0  0  0  0  0  0  0  0  0  0  0
   21.2601   -7.0350    0.0000 O   0  0  0  0  0  0  0  0  0  0  0  0
   22.4325   -8.1450    0.0000 O   0  0  0  0  0  0  0  0  0  0  0  0
   23.9378   -8.1588    0.0000 H   0  0  0  0  0  0  0  0  0  0  0  0
   23.4292   -4.9578    0.0000 C   0  0  0  0  0  0  0  0  0  0  0  0
   23.4292   -4.1864    0.0000 O   0  0  0  0  0  0  0  0  0  0  0  0
   22.7151   -5.3709    0.0000 C   0  0  0  0  0  0  0  0  0  0  0  0
   22.0010   -4.9578    0.0000 C   0  0  0  0  0  0  0  0  0  0  0  0
   21.2868   -5.3709    0.0000 C   0  0  0  0  0  0  0  0  0  0  0  0
   20.5727   -4.9578    0.0000 C   0  0  0  0  0  0  0  0  0  0  0  0
   19.8586   -5.3709    0.0000 C   0  0  0  0  0  0  0  0  0  0  0  0
   19.1445   -4.9578    0.0000 C   0  0  0  0  0  0  0  0  0  0  0  0
   18.4304   -5.3709    0.0000 C   0  0  0  0  0  0  0  0  0  0  0  0
   17.7162   -4.9578    0.0000 C   0  0  0  0  0  0  0  0  0  0  0  0
   17.0021   -5.3709    0.0000 C   0  0  0  0  0  0  0  0  0  0  0  0
   16.2880   -4.9578    0.0000 C   0  0  0  0  0  0  0  0  0  0  0  0
   15.5739   -5.3709    0.0000 C   0  0  0  0  0  0  0  0  0  0  0  0
   14.8597   -4.9578    0.0000 C   0  0  0  0  0  0  0  0  0  0  0  0
   14.0347   -4.9578    0.0000 C   0  0  0  0  0  0  0  0  0  0  0  0
   13.3206   -5.3709    0.0000 C   0  0  0  0  0  0  0  0  0  0  0  0
   12.6065   -4.9578    0.0000 C   0  0  0  0  0  0  0  0  0  0  0  0
   11.8924   -5.3709    0.0000 C   0  0  0  0  0  0  0  0  0  0  0  0
   11.1783   -4.9578    0.0000 C   0  0  0  0  0  0  0  0  0  0  0  0
   10.4641   -5.3709    0.0000 C   0  0  0  0  0  0  0  0  0  0  0  0
    9.7500   -4.9578    0.0000 C   0  0  0  0  0  0  0  0  0  0  0  0
    9.0359   -5.3709    0.0000 C   0  0  0  0  0  0  0  0  0  0  0  0
    8.3218   -4.9578    0.0000 C   0  0  0  0  0  0  0  0  0  0  0  0
   21.7180   -8.5575    0.0000 C   0  0  0  0  0  0  0  0  0  0  0  0
   21.7180   -9.3289    0.0000 O   0  0  0  0  0  0  0  0  0  0  0  0
   21.0039   -8.1444    0.0000 C   0  0  0  0  0  0  0  0  0  0  0  0
   20.2898   -8.5575    0.0000 C   0  0  0  0  0  0  0  0  0  0  0  0
   19.5756   -8.1444    0.0000 C   0  0  0  0  0  0  0  0  0  0  0  0
   18.8615   -8.5575    0.0000 C   0  0  0  0  0  0  0  0  0  0  0  0
   18.1474   -8.1444    0.0000 C   0  0  0  0  0  0  0  0  0  0  0  0
   17.4333   -8.5575    0.0000 C   0  0  0  0  0  0  0  0  0  0  0  0
   16.7192   -8.1444    0.0000 C   0  0  0  0  0  0  0  0  0  0  0  0
   16.0050   -8.5575    0.0000 C   0  0  0  0  0  0  0  0  0  0  0  0
   15.2909   -8.1444    0.0000 C   0  0  0  0  0  0  0  0  0  0  0  0
   14.5768   -8.5575    0.0000 C   0  0  0  0  0  0  0  0  0  0  0  0
   13.8627   -8.1444    0.0000 C   0  0  0  0  0  0  0  0  0  0  0  0
   13.1485   -8.5575    0.0000 C   0  0  0  0  0  0  0  0  0  0  0  0
   12.3235   -8.5575    0.0000 C   0  0  0  0  0  0  0  0  0  0  0  0
   11.6094   -8.1444    0.0000 C   0  0  0  0  0  0  0  0  0  0  0  0
   10.8953   -8.5575    0.0000 C   0  0  0  0  0  0  0  0  0  0  0  0
   10.1812   -8.1444    0.0000 C   0  0  0  0  0  0  0  0  0  0  0  0
    9.4671   -8.5575    0.0000 C   0  0  0  0  0  0  0  0  0  0  0  0
    8.7529   -8.1444    0.0000 C   0  0  0  0  0  0  0  0  0  0  0  0
    8.0388   -8.5575    0.0000 C   0  0  0  0  0  0  0  0  0  0  0  0
    7.3247   -8.1444    0.0000 C   0  0  0  0  0  0  0  0  0  0  0  0
    6.6106   -8.5575    0.0000 C   0  0  0  0  0  0  0  0  0  0  0  0
   20.5457   -6.6225    0.0000 C   0  0  0  0  0  0  0  0  0  0  0  0
   20.5457   -5.8511    0.0000 O   0  0  0  0  0  0  0  0  0  0  0  0
   19.8316   -7.0356    0.0000 C   0  0  0  0  0  0  0  0  0  0  0  0
   19.1175   -6.6225    0.0000 C   0  0  0  0  0  0  0  0  0  0  0  0
   18.4033   -7.0356    0.0000 C   0  0  0  0  0  0  0  0  0  0  0  0
   17.6892   -6.6225    0.0000 C   0  0  0  0  0  0  0  0  0  0  0  0
   16.9751   -7.0356    0.0000 C   0  0  0  0  0  0  0  0  0  0  0  0
   16.2610   -6.6225    0.0000 C   0  0  0  0  0  0  0  0  0  0  0  0
   15.5469   -7.0356    0.0000 C   0  0  0  0  0  0  0  0  0  0  0  0
   14.8327   -6.6225    0.0000 C   0  0  0  0  0  0  0  0  0  0  0  0
   14.1186   -7.0356    0.0000 C   0  0  0  0  0  0  0  0  0  0  0  0
   13.4045   -6.6225    0.0000 C   0  0  0  0  0  0  0  0  0  0  0  0
   12.6904   -7.0356    0.0000 C   0  0  0  0  0  0  0  0  0  0  0  0
   11.9762   -6.6225    0.0000 C   0  0  0  0  0  0  0  0  0  0  0  0
   11.1512   -6.6225    0.0000 C   0  0  0  0  0  0  0  0  0  0  0  0
   10.4371   -7.0356    0.0000 C   0  0  0  0  0  0  0  0  0  0  0  0
    9.7230   -6.6225    0.0000 C   0  0  0  0  0  0  0  0  0  0  0  0
    9.0089   -7.0356    0.0000 C   0  0  0  0  0  0  0  0  0  0  0  0
    8.2948   -6.6225    0.0000 C   0  0  0  0  0  0  0  0  0  0  0  0
    7.5806   -7.0356    0.0000 C   0  0  0  0  0  0  0  0  0  0  0  0
    6.8665   -6.6225    0.0000 C   0  0  0  0  0  0  0  0  0  0  0  0
    6.1524   -7.0356    0.0000 C   0  0  0  0  0  0  0  0  0  0  0  0
    5.4383   -6.6225    0.0000 C   0  0  0  0  0  0  0  0  0  0  0  0
  2  1  1  0  0  0  0
  3  2  1  0  0  0  0
  4  1  1  0  0  0  0
  5  3  1  0  0  0  0
  2  6  1  6  0  0  0
  2  7  1  1  0  0  0
 54  5  1  0  0  0  0
 31  6  1  0  0  0  0
  4  8  1  0  0  0  0
  8  9  2  0  0  0  0
  8 10  1  0  0  0  0
 10 11  1  0  0  0  0
 11 12  1  0  0  0  0
 12 13  1  0  0  0  0
 13 14  1  0  0  0  0
 14 15  1  0  0  0  0
 15 16  1  0  0  0  0
 16 17  1  0  0  0  0
 17 18  1  0  0  0  0
 18 19  1  0  0  0  0
 19 20  1  0  0  0  0
 20 21  1  0  0  0  0
 21 22  2  0  0  0  0
 22 23  1  0  0  0  0
 23 24  1  0  0  0  0
 24 25  1  0  0  0  0
 25 26  1  0  0  0  0
 26 27  1  0  0  0  0
 27 28  1  0  0  0  0
 28 29  1  0  0  0  0
 29 30  1  0  0  0  0
 31 32  2  0  0  0  0
 31 33  1  0  0  0  0
 33 34  1  0  0  0  0
 34 35  1  0  0  0  0
 35 36  1  0  0  0  0
 36 37  1  0  0  0  0
 37 38  1  0  0  0  0
 38 39  1  0  0  0  0
 39 40  1  0  0  0  0
 40 41  1  0  0  0  0
 41 42  1  0  0  0  0
 42 43  1  0  0  0  0
 43 44  1  0  0  0  0
 44 45  2  0  0  0  0
 45 46  1  0  0  0  0
 46 47  1  0  0  0  0
 47 48  1  0  0  0  0
 48 49  1  0  0  0  0
 49 50  1  0  0  0  0
 50 51  1  0  0  0  0
 51 52  1  0  0  0  0
 52 53  1  0  0  0  0
 54 55  2  0  0  0  0
 54 56  1  0  0  0  0
 56 57  1  0  0  0  0
 57 58  1  0  0  0  0
 58 59  1  0  0  0  0
 59 60  1  0  0  0  0
 60 61  1  0  0  0  0
 61 62  1  0  0  0  0
 62 63  1  0  0  0  0
 63 64  1  0  0  0  0
 64 65  1  0  0  0  0
 65 66  1  0  0  0  0
 66 67  1  0  0  0  0
 67 68  2  0  0  0  0
 68 69  1  0  0  0  0
 69 70  1  0  0  0  0
 70 71  1  0  0  0  0
 71 72  1  0  0  0  0
 72 73  1  0  0  0  0
 73 74  1  0  0  0  0
 74 75  1  0  0  0  0
 75 76  1  0  0  0  0
M  END
> <DATABASE_ID>
DB12528

> <DATABASE_NAME>
drugbank

> <SMILES>
[H]C(COC(=O)CCCCCCCCCCC\C=C/CCCCCCCC)(COC(=O)CCCCCCCCCCC\C=C/CCCCCCCC)OC(=O)CCCCCCCCCCC\C=C/CCCCCCCC

> <INCHI_IDENTIFIER>
InChI=1S/C69H128O6/c1-4-7-10-13-16-19-22-25-28-31-34-37-40-43-46-49-52-55-58-61-67(70)73-64-66(75-69(72)63-60-57-54-51-48-45-42-39-36-33-30-27-24-21-18-15-12-9-6-3)65-74-68(71)62-59-56-53-50-47-44-41-38-35-32-29-26-23-20-17-14-11-8-5-2/h25-30,66H,4-24,31-65H2,1-3H3/b28-25-,29-26-,30-27-

> <INCHI_KEY>
XDSPGKDYYRNYJI-IUPFWZBJSA-N

> <FORMULA>
C69H128O6

> <MOLECULAR_WEIGHT>
1053.751

> <EXACT_MASS>
1052.971091828

> <JCHEM_ACCEPTOR_COUNT>
3

> <JCHEM_ATOM_COUNT>
203

> <JCHEM_AVERAGE_POLARIZABILITY>
142.96023596937545

> <JCHEM_BIOAVAILABILITY>
0

> <JCHEM_DONOR_COUNT>
0

> <JCHEM_FORMAL_CHARGE>
0

> <JCHEM_GHOSE_FILTER>
0

> <JCHEM_IUPAC>
1,3-bis[(13Z)-docos-13-enoyloxy]propan-2-yl (13Z)-docos-13-enoate

> <ALOGPS_LOGP>
10.74

> <JCHEM_LOGP>
25.84061868433333

> <ALOGPS_LOGS>
-8.20

> <JCHEM_MDDR_LIKE_RULE>
0

> <JCHEM_NUMBER_OF_RINGS>
0

> <JCHEM_PHYSIOLOGICAL_CHARGE>
0

> <JCHEM_PKA_STRONGEST_BASIC>
-6.565867985366662

> <JCHEM_POLAR_SURFACE_AREA>
78.9

> <JCHEM_REFRACTIVITY>
327.45809999999994

> <JCHEM_ROTATABLE_BOND_COUNT>
65

> <JCHEM_RULE_OF_FIVE>
0

> <ALOGPS_SOLUBILITY>
6.67e-06 g/l

> <JCHEM_TRADITIONAL_IUPAC>
1,3-bis[(13Z)-docos-13-enoyloxy]propan-2-yl (13Z)-docos-13-enoate

> <JCHEM_VEBER_RULE>
0

> <DRUGBANK_ID>
DB12528

> <DRUG_GROUPS>
investigational

> <GENERIC_NAME>
Glyceryl Trierucate

$$$$
