TGN
  Mrv0541 02241214122D          

 27 29  0  0  0  0            999 V2000
    0.3512    0.9886    0.0000 C   0  0  2  0  0  0  0  0  0  0  0  0
   -0.5775    0.9731    0.0000 C   0  0  2  0  0  0  0  0  0  0  0  0
   -1.1382    1.4130    0.0000 N   0  0  0  0  0  0  0  0  0  0  0  0
   -1.5608    2.1215    0.0000 C   0  0  0  0  0  0  0  0  0  0  0  0
   -0.8981    0.2645    0.0000 C   0  0  0  0  0  0  0  0  0  0  0  0
   -1.5184   -0.1124    0.0000 C   0  0  0  0  0  0  0  0  0  0  0  0
   -0.9985    0.5998    0.0000 C   0  0  1  0  0  0  0  0  0  0  0  0
   -0.0268    0.5998    0.0000 C   0  0  0  0  0  0  0  0  0  0  0  0
    0.4894    0.1712    0.0000 C   0  0  2  0  0  0  0  0  0  0  0  0
    0.9012   -0.5436    0.0000 O   0  0  0  0  0  0  0  0  0  0  0  0
    0.4880   -1.2577    0.0000 P   0  0  1  0  0  0  0  0  0  0  0  0
   -0.2261   -0.8445    0.0000 O   0  0  0  0  0  0  0  0  0  0  0  0
    1.2021   -1.6708    0.0000 O   0  0  0  0  0  0  0  0  0  0  0  0
    0.0748   -1.9717    0.0000 C   0  0  0  0  0  0  0  0  0  0  0  0
    0.4866   -2.6866    0.0000 C   0  0  0  0  0  0  0  0  0  0  0  0
   -0.7502   -1.9709    0.0000 C   0  0  0  0  0  0  0  0  0  0  0  0
    0.0734   -3.4006    0.0000 C   0  0  0  0  0  0  0  0  0  0  0  0
   -0.7516   -3.3998    0.0000 C   0  0  0  0  0  0  0  0  0  0  0  0
   -1.1634   -2.6849    0.0000 C   0  0  0  0  0  0  0  0  0  0  0  0
    0.8784    1.6231    0.0000 C   0  0  0  0  0  0  0  0  0  0  0  0
    1.6915    1.4838    0.0000 O   0  0  0  0  0  0  0  0  0  0  0  0
    0.5924    2.3970    0.0000 O   0  0  0  0  0  0  0  0  0  0  0  0
    1.1198    3.0315    0.0000 C   0  0  0  0  0  0  0  0  0  0  0  0
    0.0987    1.5152    0.0000 H   0  0  0  0  0  0  0  0  0  0  0  0
   -0.7119    1.5414    0.0000 H   0  0  0  0  0  0  0  0  0  0  0  0
   -1.2630    1.1205    0.0000 H   0  0  0  0  0  0  0  0  0  0  0  0
    1.0389    0.3687    0.0000 H   0  0  0  0  0  0  0  0  0  0  0  0
  1  2  1  0  0  0  0
  1  9  1  0  0  0  0
  1 20  1  1  0  0  0
  1 24  1  6  0  0  0
  2  3  1  0  0  0  0
  2  5  1  0  0  0  0
  2 25  1  6  0  0  0
  3  4  1  0  0  0  0
  3  7  1  0  0  0  0
  5  6  1  0  0  0  0
  6  7  1  0  0  0  0
  7  8  1  0  0  0  0
  7 26  1  1  0  0  0
  8  9  1  0  0  0  0
  9 10  1  1  0  0  0
  9 27  1  6  0  0  0
 11 10  1  1  0  0  0
 11 12  2  0  0  0  0
 11 13  1  6  0  0  0
 11 14  1  0  0  0  0
 14 15  1  0  0  0  0
 14 16  2  0  0  0  0
 15 17  2  0  0  0  0
 16 19  1  0  0  0  0
 17 18  1  0  0  0  0
 18 19  2  0  0  0  0
 20 21  2  0  0  0  0
 20 22  1  0  0  0  0
 22 23  1  0  0  0  0
M  END
> <DATABASE_ID>
DB08618

> <DATABASE_NAME>
drugbank

> <SMILES>
[H][C@@]12CC[C@@]([H])(N1C)[C@@]([H])(C(=O)OC)[C@]([H])(C2)O[P@](O)(=O)C1=CC=CC=C1

> <INCHI_IDENTIFIER>
InChI=1S/C16H22NO5P/c1-17-11-8-9-13(17)15(16(18)21-2)14(10-11)22-23(19,20)12-6-4-3-5-7-12/h3-7,11,13-15H,8-10H2,1-2H3,(H,19,20)/t11-,13+,14-,15+/m0/s1

> <INCHI_KEY>
WJTKWTJTOSZMKO-PMOUVXMZSA-N

> <FORMULA>
C16H22NO5P

> <MOLECULAR_WEIGHT>
339.3233

> <EXACT_MASS>
339.123559331

> <JCHEM_ACCEPTOR_COUNT>
4

> <JCHEM_ATOM_COUNT>
45

> <JCHEM_AVERAGE_NEUTRAL_MICROSPECIES_CHARGE>
-0.01672313011412918

> <JCHEM_AVERAGE_POLARIZABILITY>
33.79997008896041

> <JCHEM_BIOAVAILABILITY>
1

> <JCHEM_DONOR_COUNT>
1

> <JCHEM_FORMAL_CHARGE>
0

> <JCHEM_GHOSE_FILTER>
1

> <JCHEM_IUPAC>
{[(1R,2R,3S,5S)-2-(methoxycarbonyl)-8-methyl-8-azabicyclo[3.2.1]octan-3-yl]oxy}(phenyl)phosphinic acid

> <ALOGPS_LOGP>
0.91

> <JCHEM_LOGP>
-0.33149357049476397

> <ALOGPS_LOGS>
-1.55

> <JCHEM_MDDR_LIKE_RULE>
0

> <JCHEM_NEUTRAL_CHARGE>
0

> <JCHEM_NUMBER_OF_RINGS>
3

> <JCHEM_PHYSIOLOGICAL_CHARGE>
0

> <JCHEM_PKA_STRONGEST_ACIDIC>
2.122748320949816

> <JCHEM_PKA_STRONGEST_BASIC>
8.769016592909244

> <JCHEM_POLAR_SURFACE_AREA>
76.07000000000001

> <JCHEM_REFRACTIVITY>
84.8058

> <JCHEM_ROTATABLE_BOND_COUNT>
5

> <JCHEM_RULE_OF_FIVE>
1

> <ALOGPS_SOLUBILITY>
9.49e+00 g/l

> <JCHEM_TRADITIONAL_IUPAC>
biotin

> <JCHEM_VEBER_RULE>
0

> <DRUGBANK_ID>
DB08618

> <DRUG_GROUPS>
experimental

> <GENERIC_NAME>
3-(HYDROXY-PHENYL-PHOSPHINOYLOXY)-8-METHYL-8-AZA-BICYCLO[3.2.1]OCTANE-2-CARBOXYLIC ACID METHYL ESTER

$$$$
