TTT
  Mrv0541 02241214142D          

 24 26  0  0  0  0            999 V2000
   -0.2644   -0.9683    0.0000 C   0  0  0  0  0  0  0  0  0  0  0  0
   -0.9788   -1.3808    0.0000 C   0  0  0  0  0  0  0  0  0  0  0  0
    1.1646    1.5067    0.0000 C   0  0  0  0  0  0  0  0  0  0  0  0
   -0.2644    2.3317    0.0000 C   0  0  0  0  0  0  0  0  0  0  0  0
   -0.9788   -2.2058    0.0000 C   0  0  0  0  0  0  0  0  0  0  0  0
    1.1646    2.3317    0.0000 C   0  0  0  0  0  0  0  0  0  0  0  0
    0.4501    2.7442    0.0000 C   0  0  0  0  0  0  0  0  0  0  0  0
   -1.6933   -0.9683    0.0000 C   0  0  0  0  0  0  0  0  0  0  0  0
    1.8790    1.0942    0.0000 C   0  0  0  0  0  0  0  0  0  0  0  0
   -0.2644   -2.6183    0.0000 C   0  0  0  0  0  0  0  0  0  0  0  0
   -2.4078   -1.3808    0.0000 C   0  0  0  0  0  0  0  0  0  0  0  0
    2.5935    1.5067    0.0000 C   0  0  0  0  0  0  0  0  0  0  0  0
   -2.4078   -2.2058    0.0000 C   0  0  0  0  0  0  0  0  0  0  0  0
    2.5935    2.3317    0.0000 C   0  0  0  0  0  0  0  0  0  0  0  0
    0.4501   -1.3808    0.0000 O   0  0  0  0  0  0  0  0  0  0  0  0
   -1.6933   -2.6183    0.0000 C   0  0  0  0  0  0  0  0  0  0  0  0
   -3.1223   -0.9683    0.0000 N   0  0  0  0  0  0  0  0  0  0  0  0
   -0.2644   -0.1433    0.0000 N   0  0  0  0  0  0  0  0  0  0  0  0
    0.4501    0.2692    0.0000 C   0  0  2  0  0  0  0  0  0  0  0  0
    1.1646   -0.1433    0.0000 C   0  0  0  0  0  0  0  0  0  0  0  0
    0.4501    1.0942    0.0000 C   0  0  0  0  0  0  0  0  0  0  0  0
    1.8790    2.7442    0.0000 C   0  0  0  0  0  0  0  0  0  0  0  0
   -0.2644    1.5067    0.0000 C   0  0  0  0  0  0  0  0  0  0  0  0
    0.4501   -0.3147    0.0000 H   0  0  0  0  0  0  0  0  0  0  0  0
  1  2  1  0  0  0  0
  1 15  2  0  0  0  0
  1 18  1  0  0  0  0
  2  5  2  0  0  0  0
  2  8  1  0  0  0  0
  3  6  2  0  0  0  0
  3  9  1  0  0  0  0
  3 21  1  0  0  0  0
  4  7  2  0  0  0  0
  4 23  1  0  0  0  0
  5 10  1  0  0  0  0
  5 16  1  0  0  0  0
  6  7  1  0  0  0  0
  6 22  1  0  0  0  0
  8 11  2  0  0  0  0
  9 12  2  0  0  0  0
 11 13  1  0  0  0  0
 11 17  1  0  0  0  0
 12 14  1  0  0  0  0
 13 16  2  0  0  0  0
 14 22  2  0  0  0  0
 18 19  1  0  0  0  0
 19 20  1  1  0  0  0
 19 21  1  0  0  0  0
 19 24  1  6  0  0  0
 21 23  2  0  0  0  0
M  END
> <DATABASE_ID>
DB08656

> <DATABASE_NAME>
drugbank

> <SMILES>
[H][C@](C)(NC(=O)C1=C(C)C=CC(N)=C1)C1=CC=CC2=C1C=CC=C2

> <INCHI_IDENTIFIER>
InChI=1S/C20H20N2O/c1-13-10-11-16(21)12-19(13)20(23)22-14(2)17-9-5-7-15-6-3-4-8-18(15)17/h3-12,14H,21H2,1-2H3,(H,22,23)/t14-/m1/s1

> <INCHI_KEY>
UVERBUNNCOKGNZ-CQSZACIVSA-N

> <FORMULA>
C20H20N2O

> <MOLECULAR_WEIGHT>
304.3856

> <EXACT_MASS>
304.157563272

> <JCHEM_ACCEPTOR_COUNT>
2

> <JCHEM_ATOM_COUNT>
43

> <JCHEM_AVERAGE_NEUTRAL_MICROSPECIES_CHARGE>
0.0005920454324582019

> <JCHEM_AVERAGE_POLARIZABILITY>
34.32429680004931

> <JCHEM_BIOAVAILABILITY>
1

> <JCHEM_DONOR_COUNT>
2

> <JCHEM_FORMAL_CHARGE>
0

> <JCHEM_GHOSE_FILTER>
1

> <JCHEM_IUPAC>
5-amino-2-methyl-N-[(1R)-1-(naphthalen-1-yl)ethyl]benzamide

> <ALOGPS_LOGP>
3.79

> <JCHEM_LOGP>
3.862582510000001

> <ALOGPS_LOGS>
-5.73

> <JCHEM_MDDR_LIKE_RULE>
0

> <JCHEM_NEUTRAL_CHARGE>
0

> <JCHEM_NUMBER_OF_RINGS>
3

> <JCHEM_PHYSIOLOGICAL_CHARGE>
0

> <JCHEM_PKA_STRONGEST_ACIDIC>
15.470049487201354

> <JCHEM_PKA_STRONGEST_BASIC>
3.7726205457289077

> <JCHEM_POLAR_SURFACE_AREA>
55.120000000000005

> <JCHEM_REFRACTIVITY>
95.2563

> <JCHEM_ROTATABLE_BOND_COUNT>
3

> <JCHEM_RULE_OF_FIVE>
1

> <ALOGPS_SOLUBILITY>
5.72e-04 g/l

> <JCHEM_TRADITIONAL_IUPAC>
biotin

> <JCHEM_VEBER_RULE>
0

> <DRUGBANK_ID>
DB08656

> <DRUG_GROUPS>
experimental

> <GENERIC_NAME>
5-amino-2-methyl-N-[(1R)-1-naphthalen-1-ylethyl]benzamide

$$$$
