TUI
  Mrv0541 02241214142D          

 33 36  0  0  0  0            999 V2000
    0.3049   -1.6598    0.0000 O   0  0  0  0  0  0  0  0  0  0  0  0
   -0.4096   -1.2473    0.0000 C   0  0  0  0  0  0  0  0  0  0  0  0
   -1.1241   -1.6598    0.0000 N   0  0  0  0  0  0  0  0  0  0  0  0
   -1.1241   -2.4848    0.0000 C   0  0  0  0  0  0  0  0  0  0  0  0
   -1.7915   -2.9697    0.0000 S   0  0  0  0  0  0  0  0  0  0  0  0
   -1.5366   -3.7543    0.0000 C   0  0  0  0  0  0  0  0  0  0  0  0
   -2.0215   -4.4218    0.0000 S   0  0  0  0  0  0  0  0  0  0  0  0
   -1.6860   -5.1754    0.0000 C   0  0  0  0  0  0  0  0  0  0  0  0
   -2.1709   -5.8429    0.0000 N   0  0  0  0  0  0  0  0  0  0  0  0
   -1.8353   -6.5966    0.0000 C   0  0  0  0  0  0  0  0  0  0  0  0
   -1.0148   -6.6828    0.0000 C   0  0  0  0  0  0  0  0  0  0  0  0
   -0.5299   -6.0154    0.0000 C   0  0  0  0  0  0  0  0  0  0  0  0
   -0.8655   -5.2617    0.0000 C   0  0  0  0  0  0  0  0  0  0  0  0
   -0.7116   -3.7543    0.0000 C   0  0  0  0  0  0  0  0  0  0  0  0
   -0.4566   -2.9697    0.0000 N   0  0  0  0  0  0  0  0  0  0  0  0
   -0.4096   -0.4223    0.0000 N   0  0  0  0  0  0  0  0  0  0  0  0
    0.3049   -0.0098    0.0000 C   0  0  0  0  0  0  0  0  0  0  0  0
    0.3049    0.8152    0.0000 C   0  0  0  0  0  0  0  0  0  0  0  0
    0.9723    1.3001    0.0000 N   0  0  0  0  0  0  0  0  0  0  0  0
   -0.3626    1.3001    0.0000 N   0  0  0  0  0  0  0  0  0  0  0  0
   -0.1076    2.0848    0.0000 C   0  0  0  0  0  0  0  0  0  0  0  0
    0.7174    2.0848    0.0000 C   0  0  0  0  0  0  0  0  0  0  0  0
    1.2023    2.7522    0.0000 C   0  0  0  0  0  0  0  0  0  0  0  0
    2.0228    2.6660    0.0000 C   0  0  0  0  0  0  0  0  0  0  0  0
    2.5077    3.3334    0.0000 C   0  0  0  0  0  0  0  0  0  0  0  0
    0.8667    3.5059    0.0000 C   0  0  0  0  0  0  0  0  0  0  0  0
    1.3516    4.1733    0.0000 C   0  0  0  0  0  0  0  0  0  0  0  0
    2.1721    4.0871    0.0000 C   0  0  0  0  0  0  0  0  0  0  0  0
    2.6570    4.7545    0.0000 O   0  0  0  0  0  0  0  0  0  0  0  0
    2.3215    5.5082    0.0000 C   0  0  0  0  0  0  0  0  0  0  0  0
    2.8064    6.1756    0.0000 C   0  0  0  0  0  0  0  0  0  0  0  0
    2.4709    6.9293    0.0000 O   0  0  0  0  0  0  0  0  0  0  0  0
    3.6269    6.0894    0.0000 O   0  0  0  0  0  0  0  0  0  0  0  0
  1  2  2  0  0  0  0
  2 16  1  0  0  0  0
  2  3  1  0  0  0  0
  3  4  1  0  0  0  0
  4 15  2  0  0  0  0
  4  5  1  0  0  0  0
  5  6  1  0  0  0  0
  6 14  2  0  0  0  0
  6  7  1  0  0  0  0
  7  8  1  0  0  0  0
  8 13  1  0  0  0  0
  8  9  2  0  0  0  0
  9 10  1  0  0  0  0
 10 11  2  0  0  0  0
 11 12  1  0  0  0  0
 12 13  2  0  0  0  0
 14 15  1  0  0  0  0
 16 17  1  0  0  0  0
 17 18  1  0  0  0  0
 18 20  1  0  0  0  0
 18 19  2  0  0  0  0
 19 22  1  0  0  0  0
 20 21  1  0  0  0  0
 21 22  2  0  0  0  0
 22 23  1  0  0  0  0
 23 26  1  0  0  0  0
 23 24  2  0  0  0  0
 24 25  1  0  0  0  0
 25 28  2  0  0  0  0
 26 27  2  0  0  0  0
 27 28  1  0  0  0  0
 28 29  1  0  0  0  0
 29 30  1  0  0  0  0
 30 31  1  0  0  0  0
 31 32  1  0  0  0  0
 31 33  2  0  0  0  0
M  END
> <DATABASE_ID>
DB08657

> <DATABASE_NAME>
drugbank

> <SMILES>
OC(=O)COC1=CC=C(C=C1)C1=CNC(CNC(=O)NC2=NC=C(SC3=NC=CC=C3)S2)=N1

> <INCHI_IDENTIFIER>
InChI=1S/C21H18N6O4S2/c28-18(29)12-31-14-6-4-13(5-7-14)15-9-23-16(26-15)10-24-20(30)27-21-25-11-19(33-21)32-17-3-1-2-8-22-17/h1-9,11H,10,12H2,(H,23,26)(H,28,29)(H2,24,25,27,30)

> <INCHI_KEY>
SSXCWVOQWRUMGN-UHFFFAOYSA-N

> <FORMULA>
C21H18N6O4S2

> <MOLECULAR_WEIGHT>
482.535

> <EXACT_MASS>
482.083094474

> <JCHEM_ACCEPTOR_COUNT>
7

> <JCHEM_ATOM_COUNT>
51

> <JCHEM_AVERAGE_NEUTRAL_MICROSPECIES_CHARGE>
-1.1203202450376153

> <JCHEM_AVERAGE_POLARIZABILITY>
49.1659860570772

> <JCHEM_BIOAVAILABILITY>
1

> <JCHEM_DONOR_COUNT>
4

> <JCHEM_FORMAL_CHARGE>
0

> <JCHEM_GHOSE_FILTER>
0

> <JCHEM_IUPAC>
2-(4-{2-[({[5-(pyridin-2-ylsulfanyl)-1,3-thiazol-2-yl]carbamoyl}amino)methyl]-1H-imidazol-4-yl}phenoxy)acetic acid

> <ALOGPS_LOGP>
2.71

> <JCHEM_LOGP>
1.745110399721765

> <ALOGPS_LOGS>
-5.29

> <JCHEM_MDDR_LIKE_RULE>
1

> <JCHEM_NEUTRAL_CHARGE>
-1

> <JCHEM_NUMBER_OF_RINGS>
4

> <JCHEM_PHYSIOLOGICAL_CHARGE>
-1

> <JCHEM_PKA>
7.805517232204545

> <JCHEM_PKA_STRONGEST_ACIDIC>
3.578553212535975

> <JCHEM_PKA_STRONGEST_BASIC>
5.190889355152455

> <JCHEM_POLAR_SURFACE_AREA>
142.12

> <JCHEM_REFRACTIVITY>
123.38310000000001

> <JCHEM_ROTATABLE_BOND_COUNT>
9

> <JCHEM_RULE_OF_FIVE>
1

> <ALOGPS_SOLUBILITY>
2.47e-03 g/l

> <JCHEM_TRADITIONAL_IUPAC>
tetrahydrofolic acid

> <JCHEM_VEBER_RULE>
0

> <DRUGBANK_ID>
DB08657

> <DRUG_GROUPS>
experimental

> <GENERIC_NAME>
2-(4-(2-((3-(5-(PYRIDIN-2-YLTHIO)THIAZOL-2-YL)UREIDO)METHYL)-1H-IMIDAZOL-4-YL)PHENOXY)ACETIC ACID

$$$$
