UC4
  Mrv0541 02241214152D          

 23 24  0  0  0  0            999 V2000
    3.0050    0.3238    0.0000 Cl  0  0  0  0  0  0  0  0  0  0  0  0
    1.5761    0.3238    0.0000 C   0  0  0  0  0  0  0  0  0  0  0  0
    2.2906   -0.0887    0.0000 C   0  0  0  0  0  0  0  0  0  0  0  0
    2.2906   -0.9137    0.0000 C   0  0  0  0  0  0  0  0  0  0  0  0
    1.5761   -1.3262    0.0000 C   0  0  0  0  0  0  0  0  0  0  0  0
    0.8616   -0.9137    0.0000 C   0  0  0  0  0  0  0  0  0  0  0  0
    0.8616   -0.0887    0.0000 C   0  0  0  0  0  0  0  0  0  0  0  0
    0.8616    1.5613    0.0000 O   0  0  0  0  0  0  0  0  0  0  0  0
    1.5761    1.1488    0.0000 C   0  0  0  0  0  0  0  0  0  0  0  0
    2.2906    1.5613    0.0000 O   0  0  0  0  0  0  0  0  0  0  0  0
    2.2906    2.3863    0.0000 C   0  0  0  0  0  0  0  0  0  0  0  0
    3.0050    2.7988    0.0000 C   0  0  0  0  0  0  0  0  0  0  0  0
    1.5761    2.7988    0.0000 C   0  0  0  0  0  0  0  0  0  0  0  0
   -2.7107   -1.3262    0.0000 O   0  0  0  0  0  0  0  0  0  0  0  0
   -1.9963   -0.9137    0.0000 C   0  0  0  0  0  0  0  0  0  0  0  0
   -1.2818   -1.3262    0.0000 C   0  0  0  0  0  0  0  0  0  0  0  0
   -1.2818   -2.1512    0.0000 S   0  0  0  0  0  0  0  0  0  0  0  0
   -1.9963   -2.5637    0.0000 C   0  0  0  0  0  0  0  0  0  0  0  0
   -2.7107   -2.1512    0.0000 C   0  0  0  0  0  0  0  0  0  0  0  0
   -1.9963   -0.0887    0.0000 C   0  0  0  0  0  0  0  0  0  0  0  0
   -0.5673   -0.0887    0.0000 O   0  0  0  0  0  0  0  0  0  0  0  0
   -0.5673   -0.9137    0.0000 C   0  0  0  0  0  0  0  0  0  0  0  0
    0.1471   -1.3262    0.0000 N   0  0  0  0  0  0  0  0  0  0  0  0
  1  3  1  0  0  0  0
  2  3  2  0  0  0  0
  2  7  1  0  0  0  0
  2  9  1  0  0  0  0
  3  4  1  0  0  0  0
  4  5  2  0  0  0  0
  5  6  1  0  0  0  0
  6  7  2  0  0  0  0
  6 23  1  0  0  0  0
  8  9  2  0  0  0  0
  9 10  1  0  0  0  0
 10 11  1  0  0  0  0
 11 12  1  0  0  0  0
 11 13  1  0  0  0  0
 14 15  1  0  0  0  0
 14 19  1  0  0  0  0
 15 16  2  0  0  0  0
 15 20  1  0  0  0  0
 16 17  1  0  0  0  0
 16 22  1  0  0  0  0
 17 18  1  0  0  0  0
 18 19  1  0  0  0  0
 21 22  2  0  0  0  0
 22 23  1  0  0  0  0
M  END
> <DATABASE_ID>
DB08682

> <DATABASE_NAME>
drugbank

> <SMILES>
CC(C)OC(=O)C1=C(Cl)C=CC(NC(=O)C2=C(C)OCCS2)=C1

> <INCHI_IDENTIFIER>
InChI=1S/C16H18ClNO4S/c1-9(2)22-16(20)12-8-11(4-5-13(12)17)18-15(19)14-10(3)21-6-7-23-14/h4-5,8-9H,6-7H2,1-3H3,(H,18,19)

> <INCHI_KEY>
FMQGUMRNTBJHEA-UHFFFAOYSA-N

> <FORMULA>
C16H18ClNO4S

> <MOLECULAR_WEIGHT>
355.836

> <EXACT_MASS>
355.064506466

> <JCHEM_ACCEPTOR_COUNT>
3

> <JCHEM_ATOM_COUNT>
41

> <JCHEM_AVERAGE_NEUTRAL_MICROSPECIES_CHARGE>
-1.2796623355490854e-06

> <JCHEM_AVERAGE_POLARIZABILITY>
36.17970124575287

> <JCHEM_BIOAVAILABILITY>
1

> <JCHEM_DONOR_COUNT>
1

> <JCHEM_FORMAL_CHARGE>
0

> <JCHEM_GHOSE_FILTER>
1

> <JCHEM_IUPAC>
propan-2-yl 2-chloro-5-(2-methyl-5,6-dihydro-1,4-oxathiine-3-amido)benzoate

> <ALOGPS_LOGP>
3.50

> <JCHEM_LOGP>
2.893563619

> <ALOGPS_LOGS>
-4.22

> <JCHEM_MDDR_LIKE_RULE>
0

> <JCHEM_NEUTRAL_CHARGE>
0

> <JCHEM_NUMBER_OF_RINGS>
2

> <JCHEM_PHYSIOLOGICAL_CHARGE>
0

> <JCHEM_PKA_STRONGEST_ACIDIC>
12.892660590755902

> <JCHEM_PKA_STRONGEST_BASIC>
-2.1432422338502977

> <JCHEM_POLAR_SURFACE_AREA>
64.63

> <JCHEM_REFRACTIVITY>
95.09379999999997

> <JCHEM_ROTATABLE_BOND_COUNT>
5

> <JCHEM_RULE_OF_FIVE>
1

> <ALOGPS_SOLUBILITY>
2.13e-02 g/l

> <JCHEM_TRADITIONAL_IUPAC>
biotin

> <JCHEM_VEBER_RULE>
0

> <DRUGBANK_ID>
DB08682

> <DRUG_GROUPS>
experimental

> <GENERIC_NAME>
1-METHYL ETHYL 1-CHLORO-5-[[(5,6DIHYDRO-2-METHYL-1,4-OXATHIIN-3-YL)CARBONYL]AMINO]BENZOATE

$$$$
