Untitled Document-1
  Mrv0541 02231219372D          

 10  9  0  0  0  0            999 V2000
    0.7145   -0.2063    0.0000 C   0  0  1  0  0  0  0  0  0  0  0  0
    0.7145   -1.0313    0.0000 N   0  0  0  0  0  0  0  0  0  0  0  0
    0.0000    0.2062    0.0000 C   0  0  0  0  0  0  0  0  0  0  0  0
   -0.7145   -0.2063    0.0000 O   0  0  0  0  0  0  0  0  0  0  0  0
   -1.4289    0.2062    0.0000 C   0  0  0  0  0  0  0  0  0  0  0  0
   -1.4289    1.0313    0.0000 O   0  0  0  0  0  0  0  0  0  0  0  0
   -2.1434   -0.2063    0.0000 C   0  0  0  0  0  0  0  0  0  0  0  0
    1.4289    0.2062    0.0000 C   0  0  0  0  0  0  0  0  0  0  0  0
    1.4289    1.0312    0.0000 O   0  0  0  0  0  0  0  0  0  0  0  0
    2.1434   -0.2063    0.0000 O   0  0  0  0  0  0  0  0  0  0  0  0
  1  2  1  1  0  0  0
  1  3  1  0  0  0  0
  1  8  1  0  0  0  0
  3  4  1  0  0  0  0
  4  5  1  0  0  0  0
  5  6  2  0  0  0  0
  5  7  1  0  0  0  0
  8  9  2  0  0  0  0
  8 10  1  0  0  0  0
M  END
> <DATABASE_ID>
DB01837

> <DATABASE_NAME>
drugbank

> <SMILES>
CC(=O)OC[C@H](N)C(O)=O

> <INCHI_IDENTIFIER>
InChI=1S/C5H9NO4/c1-3(7)10-2-4(6)5(8)9/h4H,2,6H2,1H3,(H,8,9)/t4-/m0/s1

> <INCHI_KEY>
VZXPDPZARILFQX-BYPYZUCNSA-N

> <FORMULA>
C5H9NO4

> <MOLECULAR_WEIGHT>
147.1293

> <EXACT_MASS>
147.053157781

> <JCHEM_ACCEPTOR_COUNT>
4

> <JCHEM_ATOM_COUNT>
19

> <JCHEM_AVERAGE_NEUTRAL_MICROSPECIES_CHARGE>
-0.02432415324925985

> <JCHEM_AVERAGE_POLARIZABILITY>
13.444499866392562

> <JCHEM_BIOAVAILABILITY>
1

> <JCHEM_DONOR_COUNT>
2

> <JCHEM_FORMAL_CHARGE>
0

> <JCHEM_GHOSE_FILTER>
0

> <JCHEM_IUPAC>
(2S)-3-(acetyloxy)-2-aminopropanoic acid

> <ALOGPS_LOGP>
-2.85

> <JCHEM_LOGP>
-3.4461460799416375

> <ALOGPS_LOGS>
0.07

> <JCHEM_MDDR_LIKE_RULE>
0

> <JCHEM_NEUTRAL_CHARGE>
0

> <JCHEM_NUMBER_OF_RINGS>
0

> <JCHEM_PHYSIOLOGICAL_CHARGE>
0

> <JCHEM_PKA_STRONGEST_ACIDIC>
1.8610845826775206

> <JCHEM_PKA_STRONGEST_BASIC>
8.603142088524868

> <JCHEM_POLAR_SURFACE_AREA>
89.62

> <JCHEM_REFRACTIVITY>
31.192500000000006

> <JCHEM_ROTATABLE_BOND_COUNT>
4

> <JCHEM_RULE_OF_FIVE>
1

> <ALOGPS_SOLUBILITY>
1.74e+02 g/l

> <JCHEM_TRADITIONAL_IUPAC>
tetrahydrofolic acid

> <JCHEM_VEBER_RULE>
0

> <DRUGBANK_ID>
DB01837

> <SECONDARY_ACCESSION_NUMBERS>
EXPT02411

> <DRUG_GROUPS>
experimental

> <GENERIC_NAME>
O-acetyl-L-serine

> <SYNONYMS>
L-Serine, acetate (ester); O3-acetyl-L-serine

$$$$
