Untitled Document-7
  Mrv1902 04081923022D          

 27 30  0  0  0  0            999 V2000
    0.5370    0.8902    0.0000 C   0  0  0  0  0  0  0  0  0  0  0  0
   -1.9788    1.2923    0.0000 C   0  0  0  0  0  0  0  0  0  0  0  0
    0.5658   -1.2923    0.0000 C   0  0  0  0  0  0  0  0  0  0  0  0
   -0.2462   -1.1471    0.0000 C   0  0  0  0  0  0  0  0  0  0  0  0
   -1.9899   -0.7323    0.0000 C   0  0  0  0  0  0  0  0  0  0  0  0
   -2.6728   -0.2693    0.0000 C   0  0  0  0  0  0  0  0  0  0  0  0
    2.1613    0.5997    0.0000 C   0  0  0  0  0  0  0  0  0  0  0  0
   -0.2750    1.0354    0.0000 C   0  0  0  0  0  0  0  0  0  0  0  0
    1.3492    0.7450    0.0000 C   0  0  0  0  0  0  0  0  0  0  0  0
   -1.0871    1.1806    0.0000 C   0  0  0  0  0  0  0  0  0  0  0  0
    1.9098   -0.8068    0.0000 C   0  0  0  0  0  0  0  0  0  0  0  0
    1.0976   -0.6616    0.0000 C   0  0  1  0  0  0  0  0  0  0  0  0
    2.4416   -0.1761    0.0000 C   0  0  2  0  0  0  0  0  0  0  0  0
   -0.5265   -0.3711    0.0000 C   0  0  1  0  0  0  0  0  0  0  0  0
   -1.3386   -0.2259    0.0000 C   0  0  1  0  0  0  0  0  0  0  0  0
    0.0052    0.2595    0.0000 C   0  0  1  0  0  0  0  0  0  0  0  0
   -2.4435    0.5231    0.0000 C   0  0  1  0  0  0  0  0  0  0  0  0
    0.8173    0.1143    0.0000 C   0  0  2  0  0  0  0  0  0  0  0  0
   -1.6189    0.5499    0.0000 C   0  0  2  0  0  0  0  0  0  0  0  0
    3.2537   -0.3213    0.0000 O   0  0  0  0  0  0  0  0  0  0  0  0
   -2.9498    1.1744    0.0000 O   0  0  0  0  0  0  0  0  0  0  0  0
    1.6295   -0.0309    0.0000 H   0  0  0  0  0  0  0  0  0  0  0  0
    2.7219   -0.9520    0.0000 H   0  0  0  0  0  0  0  0  0  0  0  0
   -1.0583   -1.0018    0.0000 H   0  0  0  0  0  0  0  0  0  0  0  0
   -0.8068    0.4047    0.0000 H   0  0  0  0  0  0  0  0  0  0  0  0
    0.2855   -0.5164    0.0000 H   0  0  0  0  0  0  0  0  0  0  0  0
   -3.2537    0.3676    0.0000 H   0  0  0  0  0  0  0  0  0  0  0  0
  4  3  1  0  0  0  0
  6  5  1  0  0  0  0
  9  7  1  0  0  0  0
 10  8  1  0  0  0  0
 12  3  1  0  0  0  0
 12 11  1  0  0  0  0
 13  7  1  0  0  0  0
 13 11  1  0  0  0  0
 14  4  1  0  0  0  0
 15  5  1  0  0  0  0
 14 15  1  0  0  0  0
 16  8  1  0  0  0  0
 14 16  1  0  0  0  0
 17  6  1  0  0  0  0
 18  1  1  6  0  0  0
 18  9  1  0  0  0  0
 18 12  1  0  0  0  0
 16 18  1  0  0  0  0
 19  2  1  6  0  0  0
 19 10  1  0  0  0  0
 15 19  1  0  0  0  0
 19 17  1  0  0  0  0
 13 20  1  0  0  0  0
 17 21  1  6  0  0  0
 12 22  1  1  0  0  0
 13 23  1  6  0  0  0
 14 24  1  6  0  0  0
 15 25  1  1  0  0  0
 16 26  1  1  0  0  0
 17 27  1  1  0  0  0
M  END
> <DATABASE_ID>
DB01530

> <DATABASE_NAME>
drugbank

> <SMILES>
[H][C@]1(O)CC[C@@]2([H])[C@]3([H])CC[C@@]4([H])C[C@]([H])(O)CC[C@]4(C)[C@@]3([H])CC[C@]12C

> <INCHI_IDENTIFIER>
InChI=1S/C19H32O2/c1-18-9-7-13(20)11-12(18)3-4-14-15-5-6-17(21)19(15,2)10-8-16(14)18/h12-17,20-21H,3-11H2,1-2H3/t12-,13+,14-,15-,16-,17-,18-,19-/m0/s1

> <INCHI_KEY>
CBMYJHIOYJEBSB-KHOSGYARSA-N

> <FORMULA>
C19H32O2

> <MOLECULAR_WEIGHT>
292.4562

> <EXACT_MASS>
292.240230268

> <JCHEM_ACCEPTOR_COUNT>
2

> <JCHEM_ATOM_COUNT>
53

> <JCHEM_AVERAGE_POLARIZABILITY>
35.24736542564138

> <JCHEM_BIOAVAILABILITY>
1

> <JCHEM_DONOR_COUNT>
2

> <JCHEM_FORMAL_CHARGE>
0

> <JCHEM_GHOSE_FILTER>
1

> <JCHEM_IUPAC>
(1S,3aS,3bR,5aS,7R,9aS,9bS,11aS)-9a,11a-dimethyl-hexadecahydro-1H-cyclopenta[a]phenanthrene-1,7-diol

> <ALOGPS_LOGP>
3.56

> <JCHEM_LOGP>
3.2037568309999997

> <ALOGPS_LOGS>
-4.18

> <JCHEM_MDDR_LIKE_RULE>
0

> <JCHEM_NUMBER_OF_RINGS>
4

> <JCHEM_PHYSIOLOGICAL_CHARGE>
0

> <JCHEM_PKA>
19.377705356554483

> <JCHEM_PKA_STRONGEST_ACIDIC>
18.2963963211217

> <JCHEM_PKA_STRONGEST_BASIC>
-0.7580100340749988

> <JCHEM_POLAR_SURFACE_AREA>
40.46

> <JCHEM_REFRACTIVITY>
84.63119999999999

> <JCHEM_ROTATABLE_BOND_COUNT>
0

> <JCHEM_RULE_OF_FIVE>
1

> <ALOGPS_SOLUBILITY>
1.93e-02 g/l

> <JCHEM_TRADITIONAL_IUPAC>
6-acetyl-2-({5-[(2-aminoethyl)amino]pyridin-2-yl}amino)-8-cyclopentyl-5-methylpyrido[2,3-d]pyrimidin-7-one

> <JCHEM_VEBER_RULE>
0

> <DRUGBANK_ID>
DB01530

> <DRUG_GROUPS>
experimental; illicit

> <GENERIC_NAME>
5alpha-androstane-3alpha,17beta-diol

> <SYNONYMS>
17beta-dihydroandrosterone; 3alpha-androstanediol; 3alpha,17beta-dihydroxy-5alpha-androstane; 3α,17β-dihydroxy-5α-androstane; Dihydroandrosterone; hombreol

$$$$
