Untitled Document-7
  Mrv0541 02231219372D          

 25 28  0  0  0  0            999 V2000
   -2.0637   -0.3135    0.0000 C   0  0  0  0  0  0  0  0  0  0  0  0
   -2.0637   -1.1385    0.0000 C   0  0  0  0  0  0  0  0  0  0  0  0
   -1.3492   -1.5510    0.0000 C   0  0  0  0  0  0  0  0  0  0  0  0
   -0.6348   -1.1385    0.0000 C   0  0  1  0  0  0  0  0  0  0  0  0
   -0.6348   -0.3135    0.0000 C   0  0  2  0  0  0  0  0  0  0  0  0
   -1.3492    0.0990    0.0000 C   0  0  0  0  0  0  0  0  0  0  0  0
    0.0797   -1.5510    0.0000 C   0  0  0  0  0  0  0  0  0  0  0  0
    0.7942   -1.1385    0.0000 C   0  0  0  0  0  0  0  0  0  0  0  0
    0.7942   -0.3135    0.0000 C   0  0  2  0  0  0  0  0  0  0  0  0
    0.0797    0.0990    0.0000 C   0  0  2  0  0  0  0  0  0  0  0  0
    1.5086    0.0990    0.0000 C   0  0  1  0  0  0  0  0  0  0  0  0
    1.5086    0.9240    0.0000 C   0  0  2  0  0  0  0  0  0  0  0  0
    0.7942    1.3365    0.0000 C   0  0  0  0  0  0  0  0  0  0  0  0
    0.0797    0.9240    0.0000 C   0  0  0  0  0  0  0  0  0  0  0  0
    2.2933   -0.1560    0.0000 C   0  0  0  0  0  0  0  0  0  0  0  0
    2.7782    0.5115    0.0000 C   0  0  0  0  0  0  0  0  0  0  0  0
    2.2933    1.1789    0.0000 C   0  0  2  0  0  0  0  0  0  0  0  0
   -2.7782   -1.5510    0.0000 O   0  0  0  0  0  0  0  0  0  0  0  0
   -0.6348    0.5115    0.0000 C   0  0  0  0  0  0  0  0  0  0  0  0
    0.7942    0.5060    0.0000 H   0  0  0  0  0  0  0  0  0  0  0  0
    1.5949    1.7445    0.0000 C   0  0  0  0  0  0  0  0  0  0  0  0
    2.5482    1.9635    0.0000 O   0  0  0  0  0  0  0  0  0  0  0  0
   -0.6348   -1.9635    0.0000 H   0  0  0  0  0  0  0  0  0  0  0  0
    0.0797   -0.7260    0.0000 H   0  0  0  0  0  0  0  0  0  0  0  0
    1.5086   -0.7260    0.0000 H   0  0  0  0  0  0  0  0  0  0  0  0
  1  2  1  0  0  0  0
  2  3  1  0  0  0  0
  3  4  1  0  0  0  0
  4  5  1  0  0  0  0
  5  6  1  0  0  0  0
  6  1  1  0  0  0  0
  4  7  1  0  0  0  0
  7  8  1  0  0  0  0
  8  9  1  0  0  0  0
  9 10  1  0  0  0  0
 10  5  1  0  0  0  0
  9 11  1  0  0  0  0
 11 12  1  0  0  0  0
 12 13  1  0  0  0  0
 13 14  1  0  0  0  0
 14 10  1  0  0  0  0
 11 15  1  0  0  0  0
 15 16  1  0  0  0  0
 16 17  1  0  0  0  0
 17 12  1  0  0  0  0
  2 18  2  0  0  0  0
  5 19  1  1  0  0  0
  9 20  1  1  0  0  0
 12 21  1  1  0  0  0
 17 22  1  1  0  0  0
  4 23  1  6  0  0  0
 10 24  1  6  0  0  0
 11 25  1  6  0  0  0
M  END
> <DATABASE_ID>
DB02901

> <DATABASE_NAME>
drugbank

> <SMILES>
[H][C@@]12CC[C@H](O)[C@@]1(C)CC[C@@]1([H])[C@@]2([H])CC[C@@]2([H])CC(=O)CC[C@]12C

> <INCHI_IDENTIFIER>
InChI=1S/C19H30O2/c1-18-9-7-13(20)11-12(18)3-4-14-15-5-6-17(21)19(15,2)10-8-16(14)18/h12,14-17,21H,3-11H2,1-2H3/t12-,14-,15-,16-,17-,18-,19-/m0/s1

> <INCHI_KEY>
NVKAWKQGWWIWPM-ABEVXSGRSA-N

> <FORMULA>
C19H30O2

> <MOLECULAR_WEIGHT>
290.4403

> <EXACT_MASS>
290.224580204

> <JCHEM_ACCEPTOR_COUNT>
2

> <JCHEM_ATOM_COUNT>
51

> <JCHEM_AVERAGE_NEUTRAL_MICROSPECIES_CHARGE>
1.3061539954021853e-08

> <JCHEM_AVERAGE_POLARIZABILITY>
34.537342899421

> <JCHEM_BIOAVAILABILITY>
1

> <JCHEM_DONOR_COUNT>
1

> <JCHEM_FORMAL_CHARGE>
0

> <JCHEM_GHOSE_FILTER>
1

> <JCHEM_IUPAC>
(1S,3aS,3bR,5aS,9aS,9bS,11aS)-1-hydroxy-9a,11a-dimethyl-hexadecahydro-1H-cyclopenta[a]phenanthren-7-one

> <ALOGPS_LOGP>
3.37

> <JCHEM_LOGP>
3.4112576326666675

> <ALOGPS_LOGS>
-4.46

> <JCHEM_MDDR_LIKE_RULE>
0

> <JCHEM_NEUTRAL_CHARGE>
0

> <JCHEM_NUMBER_OF_RINGS>
4

> <JCHEM_PHYSIOLOGICAL_CHARGE>
0

> <JCHEM_PKA_STRONGEST_ACIDIC>
19.37770535655329

> <JCHEM_PKA_STRONGEST_BASIC>
-0.8839915294840951

> <JCHEM_POLAR_SURFACE_AREA>
37.3

> <JCHEM_REFRACTIVITY>
83.60309999999998

> <JCHEM_ROTATABLE_BOND_COUNT>
0

> <JCHEM_RULE_OF_FIVE>
1

> <ALOGPS_SOLUBILITY>
9.98e-03 g/l

> <JCHEM_TRADITIONAL_IUPAC>
biotin

> <JCHEM_VEBER_RULE>
1

> <DRUGBANK_ID>
DB02901

> <SECONDARY_ACCESSION_NUMBERS>
EXPT01199

> <DRUG_GROUPS>
illicit; investigational

> <GENERIC_NAME>
Stanolone

> <SYNONYMS>
17beta-Hydroxy-5alpha-androstan-3-one; 17beta-Hydroxy-5alpha-androstane-3-one; 17beta-Hydroxyandrostan-3-one; 17β-hydroxy-3-oxo-5α-androstanone; 17β-hydroxy-5α-androstan-3-one; 4-Dihydrotestosterone; 5alpha-Dihydrotestosterone; 5α-DHT; Androstanolona; Androstanolone; Androstanolonum; DHT; Dihydrotestosteron; Dihydrotestosterone; Dihydrotestostérone

> <INTERNATIONAL_BRANDS>
Anaboleen; Anabolex; Andractim; Androlone; Cristerona MB; Neodrol; Proteina; Protona; Stanaprol

$$$$
