VGA
  Mrv0541 02241214152D          

 28 32  0  0  0  0            999 V2000
   -0.5351    1.1605    0.0000 N   0  0  0  0  0  0  0  0  0  0  0  0
    0.2692    0.9769    0.0000 C   0  0  0  0  0  0  0  0  0  0  0  0
    0.6271    0.2336    0.0000 C   0  0  2  0  0  0  0  0  0  0  0  0
   -0.5351   -0.6933    0.0000 C   0  0  0  0  0  0  0  0  0  0  0  0
    0.2692   -0.5097    0.0000 N   0  0  0  0  0  0  0  0  0  0  0  0
   -1.1802   -0.1789    0.0000 C   0  0  0  0  0  0  0  0  0  0  0  0
   -1.1802    0.6461    0.0000 C   0  0  0  0  0  0  0  0  0  0  0  0
   -1.8946    1.0586    0.0000 C   0  0  0  0  0  0  0  0  0  0  0  0
   -2.6091    0.6461    0.0000 C   0  0  0  0  0  0  0  0  0  0  0  0
   -2.6091   -0.1789    0.0000 C   0  0  0  0  0  0  0  0  0  0  0  0
   -1.8946   -0.5914    0.0000 C   0  0  0  0  0  0  0  0  0  0  0  0
   -0.7187   -1.4976    0.0000 C   0  0  0  0  0  0  0  0  0  0  0  0
    0.7836    1.6219    0.0000 N   0  0  0  0  0  0  0  0  0  0  0  0
    0.6912    2.4417    0.0000 C   0  0  0  0  0  0  0  0  0  0  0  0
    1.5110    2.5341    0.0000 C   0  0  0  0  0  0  0  0  0  0  0  0
    1.6034    1.7143    0.0000 C   0  0  0  0  0  0  0  0  0  0  0  0
   -0.1140   -2.0587    0.0000 C   0  0  0  0  0  0  0  0  0  0  0  0
   -0.2975   -2.8630    0.0000 C   0  0  0  0  0  0  0  0  0  0  0  0
   -1.0859   -3.1062    0.0000 C   0  0  0  0  0  0  0  0  0  0  0  0
   -1.6906   -2.5451    0.0000 C   0  0  0  0  0  0  0  0  0  0  0  0
   -1.5071   -1.7408    0.0000 C   0  0  0  0  0  0  0  0  0  0  0  0
    1.4521    0.2336    0.0000 C   0  0  0  0  0  0  0  0  0  0  0  0
    1.9371    0.9011    0.0000 S   0  0  0  0  0  0  0  0  0  0  0  0
    2.7217    0.6461    0.0000 C   0  0  0  0  0  0  0  0  0  0  0  0
    2.7217   -0.1789    0.0000 C   0  0  0  0  0  0  0  0  0  0  0  0
    1.9371   -0.4338    0.0000 C   0  0  0  0  0  0  0  0  0  0  0  0
    2.0254    3.1791    0.0000 O   0  0  0  0  0  0  0  0  0  0  0  0
    0.9378    0.7280    0.0000 H   0  0  0  0  0  0  0  0  0  0  0  0
  1  2  2  0  0  0  0
  1  7  1  0  0  0  0
  2  3  1  0  0  0  0
  2 13  1  0  0  0  0
  3  5  1  0  0  0  0
  3 22  1  1  0  0  0
  3 28  1  6  0  0  0
  4  5  2  0  0  0  0
  4  6  1  0  0  0  0
  4 12  1  0  0  0  0
  6  7  1  0  0  0  0
  6 11  2  0  0  0  0
  7  8  2  0  0  0  0
  8  9  1  0  0  0  0
  9 10  2  0  0  0  0
 10 11  1  0  0  0  0
 12 17  1  0  0  0  0
 12 21  2  0  0  0  0
 13 14  1  0  0  0  0
 13 16  1  0  0  0  0
 14 15  1  0  0  0  0
 15 16  1  0  0  0  0
 15 27  1  0  0  0  0
 17 18  2  0  0  0  0
 18 19  1  0  0  0  0
 19 20  2  0  0  0  0
 20 21  1  0  0  0  0
 22 23  1  0  0  0  0
 22 26  2  0  0  0  0
 23 24  1  0  0  0  0
 24 25  2  0  0  0  0
 25 26  1  0  0  0  0
M  END
> <DATABASE_ID>
DB08698

> <DATABASE_NAME>
drugbank

> <SMILES>
[H][C@@]1(N=C(C2=CC=CC=C2)C2=CC=CC=C2N=C1N1CC(O)C1)C1=CC=CS1

> <INCHI_IDENTIFIER>
InChI=1S/C22H19N3OS/c26-16-13-25(14-16)22-21(19-11-6-12-27-19)24-20(15-7-2-1-3-8-15)17-9-4-5-10-18(17)23-22/h1-12,16,21,26H,13-14H2/t21-/m1/s1

> <INCHI_KEY>
BKSGACYTXOQQNI-OAQYLSRUSA-N

> <FORMULA>
C22H19N3OS

> <MOLECULAR_WEIGHT>
373.471

> <EXACT_MASS>
373.124882935

> <JCHEM_ACCEPTOR_COUNT>
4

> <JCHEM_ATOM_COUNT>
46

> <JCHEM_AVERAGE_NEUTRAL_MICROSPECIES_CHARGE>
0.0006633122682242078

> <JCHEM_AVERAGE_POLARIZABILITY>
40.61342874536558

> <JCHEM_BIOAVAILABILITY>
1

> <JCHEM_DONOR_COUNT>
1

> <JCHEM_FORMAL_CHARGE>
0

> <JCHEM_GHOSE_FILTER>
1

> <JCHEM_IUPAC>
1-[(3S)-5-phenyl-3-(thiophen-2-yl)-3H-1,4-benzodiazepin-2-yl]azetidin-3-ol

> <ALOGPS_LOGP>
3.60

> <JCHEM_LOGP>
4.072692903

> <ALOGPS_LOGS>
-4.77

> <JCHEM_MDDR_LIKE_RULE>
0

> <JCHEM_NEUTRAL_CHARGE>
0

> <JCHEM_NUMBER_OF_RINGS>
5

> <JCHEM_PHYSIOLOGICAL_CHARGE>
0

> <JCHEM_PKA_STRONGEST_ACIDIC>
14.761394309643567

> <JCHEM_PKA_STRONGEST_BASIC>
3.822059154425821

> <JCHEM_POLAR_SURFACE_AREA>
48.19

> <JCHEM_REFRACTIVITY>
109.61440000000003

> <JCHEM_ROTATABLE_BOND_COUNT>
2

> <JCHEM_RULE_OF_FIVE>
1

> <ALOGPS_SOLUBILITY>
6.30e-03 g/l

> <JCHEM_TRADITIONAL_IUPAC>
biotin

> <JCHEM_VEBER_RULE>
0

> <DRUGBANK_ID>
DB08698

> <DRUG_GROUPS>
experimental

> <GENERIC_NAME>
1-[(3S)-5-PHENYL-3-THIOPHEN-2-YL-3H-1,4-BENZODIAZEPIN-2-YL]AZETIDIN-3-OL

$$$$
