VRV
  Mrv0541 02241214162D          

 23 25  0  0  0  0            999 V2000
   -0.6517    2.4131    0.0000 C   0  0  0  0  0  0  0  0  0  0  0  0
   -1.3662    2.0006    0.0000 C   0  0  0  0  0  0  0  0  0  0  0  0
   -1.3662    1.1756    0.0000 C   0  0  0  0  0  0  0  0  0  0  0  0
   -0.6517    0.7631    0.0000 C   0  0  0  0  0  0  0  0  0  0  0  0
    0.0627    1.1756    0.0000 C   0  0  0  0  0  0  0  0  0  0  0  0
    0.0627    2.0006    0.0000 C   0  0  0  0  0  0  0  0  0  0  0  0
   -0.6517   -0.0619    0.0000 C   0  0  0  0  0  0  0  0  0  0  0  0
   -1.3662   -0.4744    0.0000 N   0  0  0  0  0  0  0  0  0  0  0  0
   -1.3662   -1.2994    0.0000 C   0  0  0  0  0  0  0  0  0  0  0  0
   -0.6517   -1.7119    0.0000 C   0  0  0  0  0  0  0  0  0  0  0  0
    0.0627   -1.2994    0.0000 C   0  0  0  0  0  0  0  0  0  0  0  0
    0.0627   -0.4744    0.0000 C   0  0  0  0  0  0  0  0  0  0  0  0
    0.7772   -1.7119    0.0000 C   0  0  0  0  0  0  0  0  0  0  0  0
    0.7772   -2.5369    0.0000 C   0  0  0  0  0  0  0  0  0  0  0  0
    1.4917   -2.9494    0.0000 C   0  0  0  0  0  0  0  0  0  0  0  0
    2.2062   -2.5369    0.0000 C   0  0  0  0  0  0  0  0  0  0  0  0
    2.2062   -1.7119    0.0000 C   0  0  0  0  0  0  0  0  0  0  0  0
    1.4917   -1.2994    0.0000 C   0  0  0  0  0  0  0  0  0  0  0  0
   -0.6517   -2.5369    0.0000 C   0  0  0  0  0  0  0  0  0  0  0  0
   -0.6517   -3.3619    0.0000 N   0  0  0  0  0  0  0  0  0  0  0  0
   -2.0807   -1.7119    0.0000 O   0  0  0  0  0  0  0  0  0  0  0  0
   -2.0807    0.7631    0.0000 O   0  0  0  0  0  0  0  0  0  0  0  0
    0.7772    2.4131    0.0000 Br  0  0  0  0  0  0  0  0  0  0  0  0
  1  6  1  0  0  0  0
  1  2  2  0  0  0  0
  2  3  1  0  0  0  0
  3  4  2  0  0  0  0
  3 22  1  0  0  0  0
  4  5  1  0  0  0  0
  4  7  1  0  0  0  0
  5  6  2  0  0  0  0
  6 23  1  0  0  0  0
  7 12  2  0  0  0  0
  7  8  1  0  0  0  0
  8  9  1  0  0  0  0
  9 10  1  0  0  0  0
  9 21  2  0  0  0  0
 10 11  2  0  0  0  0
 10 19  1  0  0  0  0
 11 13  1  0  0  0  0
 11 12  1  0  0  0  0
 13 18  2  0  0  0  0
 13 14  1  0  0  0  0
 14 15  2  0  0  0  0
 15 16  1  0  0  0  0
 16 17  2  0  0  0  0
 17 18  1  0  0  0  0
 19 20  3  0  0  0  0
M  END
> <DATABASE_ID>
DB08705

> <DATABASE_NAME>
drugbank

> <SMILES>
OC1=C(C=C(Br)C=C1)C1=CC(C2=CC=CC=C2)=C(C#N)C(=O)N1

> <INCHI_IDENTIFIER>
InChI=1S/C18H11BrN2O2/c19-12-6-7-17(22)14(8-12)16-9-13(11-4-2-1-3-5-11)15(10-20)18(23)21-16/h1-9,22H,(H,21,23)

> <INCHI_KEY>
SVSYJTYGPLVUOZ-UHFFFAOYSA-N

> <FORMULA>
C18H11BrN2O2

> <MOLECULAR_WEIGHT>
367.196

> <EXACT_MASS>
366.000390253

> <JCHEM_ACCEPTOR_COUNT>
3

> <JCHEM_ATOM_COUNT>
34

> <JCHEM_AVERAGE_NEUTRAL_MICROSPECIES_CHARGE>
-0.6472657076043751

> <JCHEM_AVERAGE_POLARIZABILITY>
33.75119852331173

> <JCHEM_BIOAVAILABILITY>
1

> <JCHEM_DONOR_COUNT>
2

> <JCHEM_FORMAL_CHARGE>
0

> <JCHEM_GHOSE_FILTER>
1

> <JCHEM_IUPAC>
6-(5-bromo-2-hydroxyphenyl)-2-oxo-4-phenyl-1,2-dihydropyridine-3-carbonitrile

> <ALOGPS_LOGP>
4.01

> <JCHEM_LOGP>
3.1077109436666666

> <ALOGPS_LOGS>
-4.81

> <JCHEM_MDDR_LIKE_RULE>
0

> <JCHEM_NEUTRAL_CHARGE>
-1

> <JCHEM_NUMBER_OF_RINGS>
3

> <JCHEM_PHYSIOLOGICAL_CHARGE>
-1

> <JCHEM_PKA>
8.150450542854975

> <JCHEM_PKA_STRONGEST_ACIDIC>
6.870195217367507

> <JCHEM_PKA_STRONGEST_BASIC>
-5.391120723611485

> <JCHEM_POLAR_SURFACE_AREA>
73.12

> <JCHEM_REFRACTIVITY>
92.76270000000001

> <JCHEM_ROTATABLE_BOND_COUNT>
2

> <JCHEM_RULE_OF_FIVE>
1

> <ALOGPS_SOLUBILITY>
5.67e-03 g/l

> <JCHEM_TRADITIONAL_IUPAC>
tetrahydrofolic acid

> <JCHEM_VEBER_RULE>
0

> <DRUGBANK_ID>
DB08705

> <DRUG_GROUPS>
experimental

> <GENERIC_NAME>
6-(5-BROMO-2-HYDROXYPHENYL)-2-OXO-4-PHENYL-1,2-DIHYDROPYRIDINE-3-CARBONITRILE

$$$$
