Xanthotoxin
  Mrv1718011041807362D          

 16 18  0  0  0  0            999 V2000
    2.6378    0.1271    0.0000 C   0  0  0  0  0  0  0  0  0  0  0  0
    3.3523   -0.2854    0.0000 O   0  0  0  0  0  0  0  0  0  0  0  0
    3.3523   -1.1104    0.0000 C   0  0  0  0  0  0  0  0  0  0  0  0
    4.0668   -1.5229    0.0000 C   0  0  0  0  0  0  0  0  0  0  0  0
    4.7812   -1.1104    0.0000 O   0  0  0  0  0  0  0  0  0  0  0  0
    5.4957   -1.5229    0.0000 C   0  0  0  0  0  0  0  0  0  0  0  0
    6.2102   -1.1104    0.0000 O   0  0  0  0  0  0  0  0  0  0  0  0
    5.4957   -2.3479    0.0000 C   0  0  0  0  0  0  0  0  0  0  0  0
    4.7812   -2.7604    0.0000 C   0  0  0  0  0  0  0  0  0  0  0  0
    4.0668   -2.3479    0.0000 C   0  0  0  0  0  0  0  0  0  0  0  0
    3.3523   -2.7604    0.0000 C   0  0  0  0  0  0  0  0  0  0  0  0
    2.6378   -2.3479    0.0000 C   0  0  0  0  0  0  0  0  0  0  0  0
    2.6378   -1.5229    0.0000 C   0  0  0  0  0  0  0  0  0  0  0  0
    1.8532   -1.2680    0.0000 O   0  0  0  0  0  0  0  0  0  0  0  0
    1.3683   -1.9354    0.0000 C   0  0  0  0  0  0  0  0  0  0  0  0
    1.8532   -2.6029    0.0000 C   0  0  0  0  0  0  0  0  0  0  0  0
  1  2  1  0  0  0  0
  2  3  1  0  0  0  0
  3  4  2  0  0  0  0
  4  5  1  0  0  0  0
  5  6  1  0  0  0  0
  6  7  2  0  0  0  0
  6  8  1  0  0  0  0
  8  9  2  0  0  0  0
  9 10  1  0  0  0  0
  4 10  1  0  0  0  0
 10 11  2  0  0  0  0
 11 12  1  0  0  0  0
 12 13  2  0  0  0  0
  3 13  1  0  0  0  0
 13 14  1  0  0  0  0
 14 15  1  0  0  0  0
 15 16  2  0  0  0  0
 12 16  1  0  0  0  0
M  END
> <DATABASE_ID>
DB00553

> <DATABASE_NAME>
drugbank

> <SMILES>
COC1=C2OC(=O)C=CC2=CC2=C1OC=C2

> <INCHI_IDENTIFIER>
InChI=1S/C12H8O4/c1-14-12-10-8(4-5-15-10)6-7-2-3-9(13)16-11(7)12/h2-6H,1H3

> <INCHI_KEY>
QXKHYNVANLEOEG-UHFFFAOYSA-N

> <FORMULA>
C12H8O4

> <MOLECULAR_WEIGHT>
216.192

> <EXACT_MASS>
216.042258738

> <JCHEM_ACCEPTOR_COUNT>
2

> <JCHEM_ATOM_COUNT>
24

> <JCHEM_AVERAGE_POLARIZABILITY>
20.978883414920794

> <JCHEM_BIOAVAILABILITY>
1

> <JCHEM_DONOR_COUNT>
0

> <JCHEM_FORMAL_CHARGE>
0

> <JCHEM_GHOSE_FILTER>
1

> <JCHEM_IUPAC>
9-methoxy-7H-furo[3,2-g]chromen-7-one

> <ALOGPS_LOGP>
2.10

> <JCHEM_LOGP>
1.7848117503333332

> <ALOGPS_LOGS>
-3.12

> <JCHEM_MDDR_LIKE_RULE>
0

> <JCHEM_NUMBER_OF_RINGS>
3

> <JCHEM_PHYSIOLOGICAL_CHARGE>
0

> <JCHEM_PKA_STRONGEST_BASIC>
-2.9251351971985664

> <JCHEM_POLAR_SURFACE_AREA>
48.67

> <JCHEM_REFRACTIVITY>
56.852900000000005

> <JCHEM_ROTATABLE_BOND_COUNT>
1

> <JCHEM_RULE_OF_FIVE>
1

> <ALOGPS_SOLUBILITY>
1.64e-01 g/l

> <JCHEM_TRADITIONAL_IUPAC>
methoxsalen

> <JCHEM_VEBER_RULE>
0

> <DRUGBANK_ID>
DB00553

> <SECONDARY_ACCESSION_NUMBERS>
APRD00157

> <DRUG_GROUPS>
approved

> <GENERIC_NAME>
Methoxsalen

> <SYNONYMS>
6-hydroxy-7-methoxy-5-benzofuranacrylic acid δ-lactone; 8-methoxy-[furano-3'.2':6.7-coumarin]; 8-methoxy-2',3',6,7-furocoumarin; 8-methoxy-4',5':6,7-furocoumarin; 8-Methoxyfuranocoumarin; 8-methoxypsoralen; 8-MOP; 8-MP; 9-methoxy-7H-furo[3,2-g][1]benzopyran-7-one; Ammoidin; Methoxsalen; Méthoxsalène; Metoxaleno; O-methylxanthotoxol; Xanthotoxin; Xanthotoxine

> <PRODUCTS>
8-mop; Methoxsalen; Oxsoralen; Oxsoralen Cap 10mg; Oxsoralen Lot 10mg/ml; Oxsoralen-Ultra; Oxsoralen-ultra Cap 10mg; Ultra Mop Lotion 1%; Ultramop Cap 10mg; Uvadex

> <INTERNATIONAL_BRANDS>
Deltasoralen; Meladinine; Meloxine; Ultra Mop

$$$$
