XIH
  Mrv0541 02241214172D          

 30 33  0  0  0  0            999 V2000
    0.5644    0.4127    0.0000 C   0  0  0  0  0  0  0  0  0  0  0  0
    0.5644    1.2377    0.0000 C   0  0  0  0  0  0  0  0  0  0  0  0
   -0.7051    0.8252    0.0000 C   0  0  0  0  0  0  0  0  0  0  0  0
   -1.9426    1.5397    0.0000 C   0  0  0  0  0  0  0  0  0  0  0  0
   -2.7676    0.1108    0.0000 C   0  0  1  0  0  0  0  0  0  0  0  0
   -1.9426    0.1108    0.0000 C   0  0  0  0  0  0  0  0  0  0  0  0
   -0.4751   -0.6268    0.0000 C   0  0  0  0  0  0  0  0  0  0  0  0
    1.4359   -1.6815    0.0000 C   0  0  0  0  0  0  0  0  0  0  0  0
    1.1810   -2.4661    0.0000 C   0  0  0  0  0  0  0  0  0  0  0  0
    0.3740   -2.6376    0.0000 C   0  0  0  0  0  0  0  0  0  0  0  0
   -0.9850   -2.1961    0.0000 C   0  0  0  0  0  0  0  0  0  0  0  0
    1.9934    1.2377    0.0000 C   0  0  0  0  0  0  0  0  0  0  0  0
    2.7078    0.0002    0.0000 C   0  0  0  0  0  0  0  0  0  0  0  0
    1.9934    0.4127    0.0000 N   0  0  0  0  0  0  0  0  0  0  0  0
    1.2789    0.0002    0.0000 C   0  0  0  0  0  0  0  0  0  0  0  0
    1.2789   -0.8248    0.0000 O   0  0  0  0  0  0  0  0  0  0  0  0
   -0.2202    1.4927    0.0000 N   0  0  0  0  0  0  0  0  0  0  0  0
   -1.5301    0.8252    0.0000 N   0  0  0  0  0  0  0  0  0  0  0  0
   -2.7676    1.5397    0.0000 C   0  0  0  0  0  0  0  0  0  0  0  0
   -3.1801    0.8252    0.0000 C   0  0  0  0  0  0  0  0  0  0  0  0
   -3.1801   -0.6037    0.0000 N   0  0  0  0  0  0  0  0  0  0  0  0
   -0.2202    0.1578    0.0000 N   0  0  0  0  0  0  0  0  0  0  0  0
    0.0769   -1.2399    0.0000 C   0  0  0  0  0  0  0  0  0  0  0  0
    0.8839   -1.0684    0.0000 C   0  0  0  0  0  0  0  0  0  0  0  0
   -0.1780   -2.0245    0.0000 C   0  0  0  0  0  0  0  0  0  0  0  0
   -1.7920   -2.3676    0.0000 N   0  0  0  0  0  0  0  0  0  0  0  0
    1.2789    1.6502    0.0000 N   0  0  0  0  0  0  0  0  0  0  0  0
    1.2789    2.4752    0.0000 C   0  0  0  0  0  0  0  0  0  0  0  0
    2.7078    1.6502    0.0000 O   0  0  0  0  0  0  0  0  0  0  0  0
   -2.4757   -0.3949    0.0000 H   0  0  0  0  0  0  0  0  0  0  0  0
  1  2  2  0  0  0  0
  1 15  1  0  0  0  0
  1 22  1  0  0  0  0
  2 17  1  0  0  0  0
  2 27  1  0  0  0  0
  3 17  2  0  0  0  0
  3 18  1  0  0  0  0
  3 22  1  0  0  0  0
  4 18  1  0  0  0  0
  4 19  1  0  0  0  0
  5  6  1  0  0  0  0
  5 20  1  0  0  0  0
  5 21  1  6  0  0  0
  5 30  1  1  0  0  0
  6 18  1  0  0  0  0
  7 22  1  0  0  0  0
  7 23  1  0  0  0  0
  8  9  2  0  0  0  0
  8 24  1  0  0  0  0
  9 10  1  0  0  0  0
 10 25  2  0  0  0  0
 11 25  1  0  0  0  0
 11 26  3  0  0  0  0
 12 14  1  0  0  0  0
 12 27  1  0  0  0  0
 12 29  2  0  0  0  0
 13 14  1  0  0  0  0
 14 15  1  0  0  0  0
 15 16  2  0  0  0  0
 19 20  1  0  0  0  0
 23 24  2  0  0  0  0
 23 25  1  0  0  0  0
 27 28  1  0  0  0  0
M  END
> <DATABASE_ID>
DB08743

> <DATABASE_NAME>
drugbank

> <SMILES>
[H][C@@]1(N)CCCN(C1)C1=NC2=C(N1CC1=CC=CC=C1C#N)C(=O)N(C)C(=O)N2C

> <INCHI_IDENTIFIER>
InChI=1S/C20H23N7O2/c1-24-17-16(18(28)25(2)20(24)29)27(11-14-7-4-3-6-13(14)10-21)19(23-17)26-9-5-8-15(22)12-26/h3-4,6-7,15H,5,8-9,11-12,22H2,1-2H3/t15-/m1/s1

> <INCHI_KEY>
XJNKUWDMCBZMTG-OAHLLOKOSA-N

> <FORMULA>
C20H23N7O2

> <MOLECULAR_WEIGHT>
393.4423

> <EXACT_MASS>
393.191323015

> <JCHEM_ACCEPTOR_COUNT>
6

> <JCHEM_ATOM_COUNT>
52

> <JCHEM_AVERAGE_NEUTRAL_MICROSPECIES_CHARGE>
0.9986328130516011

> <JCHEM_AVERAGE_POLARIZABILITY>
41.50515773560783

> <JCHEM_BIOAVAILABILITY>
1

> <JCHEM_DONOR_COUNT>
1

> <JCHEM_FORMAL_CHARGE>
0

> <JCHEM_GHOSE_FILTER>
1

> <JCHEM_IUPAC>
2-({8-[(3R)-3-aminopiperidin-1-yl]-1,3-dimethyl-2,6-dioxo-2,3,6,7-tetrahydro-1H-purin-7-yl}methyl)benzonitrile

> <ALOGPS_LOGP>
1.03

> <JCHEM_LOGP>
1.4957983056666664

> <ALOGPS_LOGS>
-2.66

> <JCHEM_MDDR_LIKE_RULE>
0

> <JCHEM_NEUTRAL_CHARGE>
1

> <JCHEM_NUMBER_OF_RINGS>
4

> <JCHEM_PHYSIOLOGICAL_CHARGE>
1

> <JCHEM_PKA_STRONGEST_BASIC>
9.863575456677834

> <JCHEM_POLAR_SURFACE_AREA>
111.49000000000001

> <JCHEM_REFRACTIVITY>
109.22829999999998

> <JCHEM_ROTATABLE_BOND_COUNT>
3

> <JCHEM_RULE_OF_FIVE>
1

> <ALOGPS_SOLUBILITY>
8.61e-01 g/l

> <JCHEM_TRADITIONAL_IUPAC>
biotin

> <JCHEM_VEBER_RULE>
0

> <DRUGBANK_ID>
DB08743

> <DRUG_GROUPS>
experimental

> <GENERIC_NAME>
2-({8-[(3R)-3-AMINOPIPERIDIN-1-YL]-1,3-DIMETHYL-2,6-DIOXO-1,2,3,6-TETRAHYDRO-7H-PURIN-7-YL}METHYL)BENZONITRILE

$$$$
