XMJ
  Mrv0541 02241214172D          

 32 35  0  0  0  0            999 V2000
   -2.5952   -1.9210    0.0000 C   0  0  0  0  0  0  0  0  0  0  0  0
   -1.8807   -2.3335    0.0000 C   0  0  0  0  0  0  0  0  0  0  0  0
   -4.0241   -1.9210    0.0000 C   0  0  0  0  0  0  0  0  0  0  0  0
   -1.1662   -1.9210    0.0000 S   0  0  0  0  0  0  0  0  0  0  0  0
   -3.3097   -2.3335    0.0000 C   0  0  0  0  0  0  0  0  0  0  0  0
   -5.4531   -3.5710    0.0000 Cl  0  0  0  0  0  0  0  0  0  0  0  0
   -0.7537   -2.6354    0.0000 O   0  0  0  0  0  0  0  0  0  0  0  0
    0.9772   -1.5085    0.0000 C   0  0  0  0  0  0  0  0  0  0  0  0
    1.6916   -1.9210    0.0000 O   0  0  0  0  0  0  0  0  0  0  0  0
    0.2627   -1.9210    0.0000 C   0  0  0  0  0  0  0  0  0  0  0  0
   -0.4518   -1.5085    0.0000 N   0  0  0  0  0  0  0  0  0  0  0  0
   -3.3097   -3.1585    0.0000 C   0  0  0  0  0  0  0  0  0  0  0  0
    0.2627   -0.2710    0.0000 C   0  0  0  0  0  0  0  0  0  0  0  0
   -0.4518   -0.6835    0.0000 C   0  0  0  0  0  0  0  0  0  0  0  0
   -4.7386   -2.3335    0.0000 C   0  0  0  0  0  0  0  0  0  0  0  0
    0.9772   -0.6835    0.0000 N   0  0  0  0  0  0  0  0  0  0  0  0
   -4.0241   -3.5710    0.0000 C   0  0  0  0  0  0  0  0  0  0  0  0
   -4.7386   -3.1585    0.0000 C   0  0  0  0  0  0  0  0  0  0  0  0
   -1.5787   -1.2065    0.0000 O   0  0  0  0  0  0  0  0  0  0  0  0
    1.6916   -0.2710    0.0000 C   0  0  0  0  0  0  0  0  0  0  0  0
    2.4061    4.2665    0.0000 C   0  0  0  0  0  0  0  0  0  0  0  0
    1.6916    2.2040    0.0000 N   0  0  0  0  0  0  0  0  0  0  0  0
    1.6916    3.0290    0.0000 C   0  0  0  0  0  0  0  0  0  0  0  0
    2.4061    3.4415    0.0000 C   0  0  0  0  0  0  0  0  0  0  0  0
    2.4061    1.7915    0.0000 C   0  0  0  0  0  0  0  0  0  0  0  0
    0.9772    3.4415    0.0000 C   0  0  0  0  0  0  0  0  0  0  0  0
    0.9772    1.7915    0.0000 C   0  0  0  0  0  0  0  0  0  0  0  0
    1.6916    0.5540    0.0000 C   0  0  0  0  0  0  0  0  0  0  0  0
    2.4061    0.9665    0.0000 C   0  0  0  0  0  0  0  0  0  0  0  0
    1.6916    4.6790    0.0000 N   0  0  0  0  0  0  0  0  0  0  0  0
    0.9772    4.2665    0.0000 C   0  0  0  0  0  0  0  0  0  0  0  0
    0.9772    0.9665    0.0000 C   0  0  0  0  0  0  0  0  0  0  0  0
  1  2  2  0  0  0  0
  1  5  1  0  0  0  0
  2  4  1  0  0  0  0
  3  5  2  0  0  0  0
  3 15  1  0  0  0  0
  4  7  2  0  0  0  0
  4 11  1  0  0  0  0
  4 19  2  0  0  0  0
  5 12  1  0  0  0  0
  6 18  1  0  0  0  0
  8  9  2  0  0  0  0
  8 10  1  0  0  0  0
  8 16  1  0  0  0  0
 10 11  1  0  0  0  0
 11 14  1  0  0  0  0
 12 17  2  0  0  0  0
 13 14  1  0  0  0  0
 13 16  1  0  0  0  0
 15 18  2  0  0  0  0
 16 20  1  0  0  0  0
 17 18  1  0  0  0  0
 20 28  1  0  0  0  0
 21 24  2  0  0  0  0
 21 30  1  0  0  0  0
 22 23  1  0  0  0  0
 22 25  1  0  0  0  0
 22 27  1  0  0  0  0
 23 24  1  0  0  0  0
 23 26  2  0  0  0  0
 25 29  1  0  0  0  0
 26 31  1  0  0  0  0
 27 32  1  0  0  0  0
 28 29  1  0  0  0  0
 28 32  1  0  0  0  0
 30 31  2  0  0  0  0
M  END
> <DATABASE_ID>
DB08745

> <DATABASE_NAME>
drugbank

> <SMILES>
ClC1=CC=C(\C=C\S(=O)(=O)N2CCN(CC3CCN(CC3)C3=CC=NC=C3)C(=O)C2)C=C1

> <INCHI_IDENTIFIER>
InChI=1S/C23H27ClN4O3S/c24-21-3-1-19(2-4-21)9-16-32(30,31)28-15-14-27(23(29)18-28)17-20-7-12-26(13-8-20)22-5-10-25-11-6-22/h1-6,9-11,16,20H,7-8,12-15,17-18H2/b16-9+

> <INCHI_KEY>
QLHUDNKWOSQSMK-CXUHLZMHSA-N

> <FORMULA>
C23H27ClN4O3S

> <MOLECULAR_WEIGHT>
475.003

> <EXACT_MASS>
474.149239147

> <JCHEM_ACCEPTOR_COUNT>
5

> <JCHEM_ATOM_COUNT>
59

> <JCHEM_AVERAGE_NEUTRAL_MICROSPECIES_CHARGE>
0.9813700895538405

> <JCHEM_AVERAGE_POLARIZABILITY>
49.465477152713135

> <JCHEM_BIOAVAILABILITY>
1

> <JCHEM_DONOR_COUNT>
0

> <JCHEM_FORMAL_CHARGE>
0

> <JCHEM_GHOSE_FILTER>
1

> <JCHEM_IUPAC>
4-[(1E)-2-(4-chlorophenyl)ethenesulfonyl]-1-{[1-(pyridin-4-yl)piperidin-4-yl]methyl}piperazin-2-one

> <ALOGPS_LOGP>
2.77

> <JCHEM_LOGP>
1.9593566716666655

> <ALOGPS_LOGS>
-3.97

> <JCHEM_MDDR_LIKE_RULE>
0

> <JCHEM_NEUTRAL_CHARGE>
1

> <JCHEM_NUMBER_OF_RINGS>
4

> <JCHEM_PHYSIOLOGICAL_CHARGE>
1

> <JCHEM_PKA_STRONGEST_ACIDIC>
17.052726554237903

> <JCHEM_PKA_STRONGEST_BASIC>
8.721622036902204

> <JCHEM_POLAR_SURFACE_AREA>
73.82000000000001

> <JCHEM_REFRACTIVITY>
126.93249999999998

> <JCHEM_ROTATABLE_BOND_COUNT>
5

> <JCHEM_RULE_OF_FIVE>
1

> <ALOGPS_SOLUBILITY>
5.10e-02 g/l

> <JCHEM_TRADITIONAL_IUPAC>
tetrahydrofolic acid

> <JCHEM_VEBER_RULE>
0

> <DRUGBANK_ID>
DB08745

> <DRUG_GROUPS>
experimental

> <GENERIC_NAME>
4-[[(1E)-2-(4-CHLOROPHENYL)ETHENYL]SULFONYL]-1-[[1-(4-PYRIDINYL)-4-PIPERIDINYL]METHYL]PIPERAZINONE

$$$$
