XX4
  Mrv0541 02241214172D          

 31 34  0  0  0  0            999 V2000
   -2.0848   -0.9602    0.0000 C   0  0  0  0  0  0  0  0  0  0  0  0
   -2.0848   -0.1352    0.0000 N   0  0  0  0  0  0  0  0  0  0  0  0
   -1.3703    0.2773    0.0000 C   0  0  0  0  0  0  0  0  0  0  0  0
   -1.3703    1.1023    0.0000 O   0  0  0  0  0  0  0  0  0  0  0  0
   -0.6559   -0.1352    0.0000 C   0  0  0  0  0  0  0  0  0  0  0  0
    0.0586    0.2773    0.0000 C   0  0  0  0  0  0  0  0  0  0  0  0
    0.7731   -0.1352    0.0000 N   0  0  0  0  0  0  0  0  0  0  0  0
    1.4876    0.2773    0.0000 C   0  0  0  0  0  0  0  0  0  0  0  0
    2.2020   -0.1352    0.0000 C   0  0  0  0  0  0  0  0  0  0  0  0
    2.9165    0.2773    0.0000 C   0  0  0  0  0  0  0  0  0  0  0  0
    3.6310   -0.1352    0.0000 C   0  0  0  0  0  0  0  0  0  0  0  0
    4.3454    0.2773    0.0000 C   0  0  0  0  0  0  0  0  0  0  0  0
    4.3454    1.1023    0.0000 O   0  0  0  0  0  0  0  0  0  0  0  0
    5.0599   -0.1352    0.0000 C   0  0  0  0  0  0  0  0  0  0  0  0
    5.7744    0.2773    0.0000 C   0  0  0  0  0  0  0  0  0  0  0  0
    6.4889   -0.1352    0.0000 C   0  0  0  0  0  0  0  0  0  0  0  0
    6.4889   -0.9602    0.0000 C   0  0  0  0  0  0  0  0  0  0  0  0
    5.7744   -1.3727    0.0000 C   0  0  0  0  0  0  0  0  0  0  0  0
    5.0599   -0.9602    0.0000 C   0  0  0  0  0  0  0  0  0  0  0  0
    3.6310   -0.9602    0.0000 C   0  0  0  0  0  0  0  0  0  0  0  0
    2.9165   -1.3727    0.0000 C   0  0  0  0  0  0  0  0  0  0  0  0
    2.2020   -0.9602    0.0000 C   0  0  0  0  0  0  0  0  0  0  0  0
    1.4876   -1.3727    0.0000 N   0  0  0  0  0  0  0  0  0  0  0  0
    0.7731   -0.9602    0.0000 C   0  0  0  0  0  0  0  0  0  0  0  0
    0.0586   -1.3727    0.0000 N   0  0  0  0  0  0  0  0  0  0  0  0
   -2.7993    0.2773    0.0000 C   0  0  0  0  0  0  0  0  0  0  0  0
   -3.5137   -0.1352    0.0000 C   0  0  0  0  0  0  0  0  0  0  0  0
   -4.2282    0.2773    0.0000 C   0  0  0  0  0  0  0  0  0  0  0  0
   -4.2282    1.1023    0.0000 C   0  0  0  0  0  0  0  0  0  0  0  0
   -3.5137    1.5148    0.0000 C   0  0  0  0  0  0  0  0  0  0  0  0
   -2.7993    1.1023    0.0000 C   0  0  0  0  0  0  0  0  0  0  0  0
  1  2  1  0  0  0  0
  2 26  1  0  0  0  0
  2  3  1  0  0  0  0
  3  4  2  0  0  0  0
  3  5  1  0  0  0  0
  5  6  1  0  0  0  0
  6  7  1  0  0  0  0
  7 24  1  0  0  0  0
  7  8  1  0  0  0  0
  8  9  1  0  0  0  0
  9 10  2  0  0  0  0
  9 22  1  0  0  0  0
 10 11  1  0  0  0  0
 11 12  1  0  0  0  0
 11 20  2  0  0  0  0
 12 14  1  0  0  0  0
 12 13  2  0  0  0  0
 14 15  2  0  0  0  0
 14 19  1  0  0  0  0
 15 16  1  0  0  0  0
 16 17  2  0  0  0  0
 17 18  1  0  0  0  0
 18 19  2  0  0  0  0
 20 21  1  0  0  0  0
 21 22  2  0  0  0  0
 22 23  1  0  0  0  0
 23 24  2  0  0  0  0
 24 25  1  0  0  0  0
 26 27  1  0  0  0  0
 26 31  1  0  0  0  0
 27 28  1  0  0  0  0
 28 29  1  0  0  0  0
 29 30  1  0  0  0  0
 30 31  1  0  0  0  0
M  END
> <DATABASE_ID>
DB08749

> <DATABASE_NAME>
drugbank

> <SMILES>
CN(C1CCCCC1)C(=O)CCN1CC2=CC(=CC=C2N=C1N)C(=O)C1=CC=CC=C1

> <INCHI_IDENTIFIER>
InChI=1S/C25H30N4O2/c1-28(21-10-6-3-7-11-21)23(30)14-15-29-17-20-16-19(12-13-22(20)27-25(29)26)24(31)18-8-4-2-5-9-18/h2,4-5,8-9,12-13,16,21H,3,6-7,10-11,14-15,17H2,1H3,(H2,26,27)

> <INCHI_KEY>
KTRFBFMYAJOXLG-UHFFFAOYSA-N

> <FORMULA>
C25H30N4O2

> <MOLECULAR_WEIGHT>
418.5313

> <EXACT_MASS>
418.236876224

> <JCHEM_ACCEPTOR_COUNT>
5

> <JCHEM_ATOM_COUNT>
61

> <JCHEM_AVERAGE_NEUTRAL_MICROSPECIES_CHARGE>
0.990661924760661

> <JCHEM_AVERAGE_POLARIZABILITY>
47.71078811857896

> <JCHEM_BIOAVAILABILITY>
1

> <JCHEM_DONOR_COUNT>
1

> <JCHEM_FORMAL_CHARGE>
0

> <JCHEM_GHOSE_FILTER>
1

> <JCHEM_IUPAC>
3-(2-amino-6-benzoyl-3,4-dihydroquinazolin-3-yl)-N-cyclohexyl-N-methylpropanamide

> <ALOGPS_LOGP>
3.21

> <JCHEM_LOGP>
3.350433270333334

> <ALOGPS_LOGS>
-4.24

> <JCHEM_MDDR_LIKE_RULE>
1

> <JCHEM_NEUTRAL_CHARGE>
1

> <JCHEM_NUMBER_OF_RINGS>
4

> <JCHEM_PHYSIOLOGICAL_CHARGE>
1

> <JCHEM_PKA_STRONGEST_BASIC>
9.025667431633687

> <JCHEM_POLAR_SURFACE_AREA>
79.0

> <JCHEM_REFRACTIVITY>
124.74560000000002

> <JCHEM_ROTATABLE_BOND_COUNT>
6

> <JCHEM_RULE_OF_FIVE>
1

> <ALOGPS_SOLUBILITY>
2.42e-02 g/l

> <JCHEM_TRADITIONAL_IUPAC>
tetrahydrofolic acid

> <JCHEM_VEBER_RULE>
0

> <DRUGBANK_ID>
DB08749

> <DRUG_GROUPS>
experimental

> <GENERIC_NAME>
3-(2-AMINO-6-BENZOYLQUINAZOLIN-3(4H)-YL)-N-CYCLOHEXYL-N-METHYLPROPANAMIDE

$$$$
