Zeaxanthin
  Mrv1572001071617052D          
  Marvin  03020612512D          
 42 43  0  0  0  0            999 V2000
   -6.7893   -0.2309    0.0000 C   0  0  0  0  0  0  0  0  0  0  0  0
   -6.0748    0.1816    0.0000 C   0  0  0  0  0  0  0  0  0  0  0  0
   -7.5038   -1.4684    0.0000 C   0  0  0  0  0  0  0  0  0  0  0  0
   -8.2182   -0.2309    0.0000 C   0  0  0  0  0  0  0  0  0  0  0  0
   -5.3603   -0.2309    0.0000 C   0  0  0  0  0  0  0  0  0  0  0  0
   -4.6459    0.1816    0.0000 C   0  0  0  0  0  0  0  0  0  0  0  0
   -3.9314   -0.2309    0.0000 C   0  0  0  0  0  0  0  0  0  0  0  0
   -4.6459    1.0066    0.0000 C   0  0  0  0  0  0  0  0  0  0  0  0
   -3.2169    0.1816    0.0000 C   0  0  0  0  0  0  0  0  0  0  0  0
   -2.5025   -0.2309    0.0000 C   0  0  0  0  0  0  0  0  0  0  0  0
   -1.7880    0.1816    0.0000 C   0  0  0  0  0  0  0  0  0  0  0  0
   -1.0735   -0.2309    0.0000 C   0  0  0  0  0  0  0  0  0  0  0  0
   -1.7880    1.0066    0.0000 C   0  0  0  0  0  0  0  0  0  0  0  0
   -0.3591    0.1816    0.0000 C   0  0  0  0  0  0  0  0  0  0  0  0
    0.3554   -0.2309    0.0000 C   0  0  0  0  0  0  0  0  0  0  0  0
    1.0699    0.1816    0.0000 C   0  0  0  0  0  0  0  0  0  0  0  0
    1.7844   -0.2309    0.0000 C   0  0  0  0  0  0  0  0  0  0  0  0
    2.4988    0.1816    0.0000 C   0  0  0  0  0  0  0  0  0  0  0  0
    1.7844   -1.0559    0.0000 C   0  0  0  0  0  0  0  0  0  0  0  0
    3.2133   -0.2309    0.0000 C   0  0  0  0  0  0  0  0  0  0  0  0
    3.9278    0.1816    0.0000 C   0  0  0  0  0  0  0  0  0  0  0  0
    4.6422   -0.2309    0.0000 C   0  0  0  0  0  0  0  0  0  0  0  0
    5.3567    0.1816    0.0000 C   0  0  0  0  0  0  0  0  0  0  0  0
    4.6422   -1.0559    0.0000 C   0  0  0  0  0  0  0  0  0  0  0  0
    6.0712   -0.2309    0.0000 C   0  0  0  0  0  0  0  0  0  0  0  0
    6.7857    0.1816    0.0000 C   0  0  0  0  0  0  0  0  0  0  0  0
    7.5001    1.4191    0.0000 C   0  0  0  0  0  0  0  0  0  0  0  0
    8.2146    0.1816    0.0000 C   0  0  0  0  0  0  0  0  0  0  0  0
   -6.7893   -1.0559    0.0000 C   0  0  0  0  0  0  0  0  0  0  0  0
   -6.0748   -1.4684    0.0000 C   0  0  0  0  0  0  0  0  0  0  0  0
    6.0712    1.4191    0.0000 C   0  0  0  0  0  0  0  0  0  0  0  0
    6.7857    1.0066    0.0000 C   0  0  0  0  0  0  0  0  0  0  0  0
   -7.9163    0.8961    0.0000 C   0  0  0  0  0  0  0  0  0  0  0  0
   -7.5038    0.1816    0.0000 C   0  0  0  0  0  0  0  0  0  0  0  0
   -7.0913    0.8961    0.0000 C   0  0  0  0  0  0  0  0  0  0  0  0
    7.0876   -0.9453    0.0000 C   0  0  0  0  0  0  0  0  0  0  0  0
    7.5001   -0.2309    0.0000 C   0  0  0  0  0  0  0  0  0  0  0  0
    7.9126   -0.9453    0.0000 C   0  0  0  0  0  0  0  0  0  0  0  0
    8.2146    1.0066    0.0000 C   0  0  2  0  0  0  0  0  0  0  0  0
    8.9291    1.4191    0.0000 O   0  0  0  0  0  0  0  0  0  0  0  0
   -8.2182   -1.0559    0.0000 C   0  0  2  0  0  0  0  0  0  0  0  0
   -8.9327   -1.4684    0.0000 O   0  0  0  0  0  0  0  0  0  0  0  0
  1 29  2  0  0  0  0
  1 34  1  0  0  0  0
  1  2  1  0  0  0  0
 29  3  1  0  0  0  0
 34  4  1  0  0  0  0
  2  5  2  0  0  0  0
  3 41  1  0  0  0  0
  5  6  1  0  0  0  0
  6  7  2  0  0  0  0
  6  8  1  0  0  0  0
  7  9  1  0  0  0  0
  9 10  2  0  0  0  0
 10 11  1  0  0  0  0
 11 12  2  0  0  0  0
 11 13  1  0  0  0  0
 12 14  1  0  0  0  0
 14 15  2  0  0  0  0
 15 16  1  0  0  0  0
 16 17  2  0  0  0  0
 17 18  1  0  0  0  0
 17 19  1  0  0  0  0
 18 20  2  0  0  0  0
 20 21  1  0  0  0  0
 21 22  2  0  0  0  0
 22 23  1  0  0  0  0
 22 24  1  0  0  0  0
 23 25  2  0  0  0  0
 25 26  1  0  0  0  0
 26 32  2  0  0  0  0
 26 37  1  0  0  0  0
 32 27  1  0  0  0  0
 37 28  1  0  0  0  0
 27 39  1  0  0  0  0
  4 41  1  0  0  0  0
 28 39  1  0  0  0  0
 29 30  1  0  0  0  0
 32 31  1  0  0  0  0
 34 33  1  0  0  0  0
 34 35  1  0  0  0  0
 37 36  1  0  0  0  0
 37 38  1  0  0  0  0
 39 40  1  1  0  0  0
 41 42  1  1  0  0  0
M  END
> <DATABASE_ID>
DB11176

> <DATABASE_NAME>
drugbank

> <SMILES>
C\C(\C=C\C=C(/C)\C=C\C1=C(C)C[C@@H](O)CC1(C)C)=C/C=C/C=C(\C)/C=C/C=C(\C)/C=C/C1=C(C)C[C@@H](O)CC1(C)C

> <INCHI_IDENTIFIER>
InChI=1S/C40H56O2/c1-29(17-13-19-31(3)21-23-37-33(5)25-35(41)27-39(37,7)8)15-11-12-16-30(2)18-14-20-32(4)22-24-38-34(6)26-36(42)28-40(38,9)10/h11-24,35-36,41-42H,25-28H2,1-10H3/b12-11+,17-13+,18-14+,23-21+,24-22+,29-15+,30-16+,31-19+,32-20+/t35-,36-/m1/s1

> <INCHI_KEY>
JKQXZKUSFCKOGQ-QAYBQHTQSA-N

> <FORMULA>
C40H56O2

> <MOLECULAR_WEIGHT>
568.886

> <EXACT_MASS>
568.428031043

> <JCHEM_ACCEPTOR_COUNT>
2

> <JCHEM_ATOM_COUNT>
98

> <JCHEM_AVERAGE_POLARIZABILITY>
73.46744361216797

> <JCHEM_BIOAVAILABILITY>
0

> <JCHEM_DONOR_COUNT>
2

> <JCHEM_FORMAL_CHARGE>
0

> <JCHEM_GHOSE_FILTER>
0

> <JCHEM_IUPAC>
(1R)-4-[(1E,3E,5E,7E,9E,11E,13E,15E,17E)-18-[(4R)-4-hydroxy-2,6,6-trimethylcyclohex-1-en-1-yl]-3,7,12,16-tetramethyloctadeca-1,3,5,7,9,11,13,15,17-nonaen-1-yl]-3,5,5-trimethylcyclohex-3-en-1-ol

> <ALOGPS_LOGP>
8.30

> <JCHEM_LOGP>
8.350644046

> <ALOGPS_LOGS>
-5.94

> <JCHEM_MDDR_LIKE_RULE>
0

> <JCHEM_NUMBER_OF_RINGS>
2

> <JCHEM_PHYSIOLOGICAL_CHARGE>
0

> <JCHEM_PKA>
18.907213404525137

> <JCHEM_PKA_STRONGEST_ACIDIC>
18.907213404525137

> <JCHEM_PKA_STRONGEST_BASIC>
-0.7887548611967236

> <JCHEM_POLAR_SURFACE_AREA>
40.46

> <JCHEM_REFRACTIVITY>
194.9508

> <JCHEM_ROTATABLE_BOND_COUNT>
10

> <JCHEM_RULE_OF_FIVE>
0

> <ALOGPS_SOLUBILITY>
6.49e-04 g/l

> <JCHEM_TRADITIONAL_IUPAC>
zeaxanthin

> <JCHEM_VEBER_RULE>
0

> <DRUGBANK_ID>
DB11176

> <DRUG_GROUPS>
approved; investigational

> <GENERIC_NAME>
Zeaxanthin

> <PRODUCTS>
Macuvex; Macuzin; Ocuvel; Tozal; Vista Advanced AREDS2 Formula

$$$$
