
     RDKit          3D

 35 40  0  0  0  0  0  0  0  0999 V2000
  130.6815  166.3067  151.1104 C   0  0  0  0  0  0  0  0  0  0  0  0
  131.6218  165.1307  150.9332 C   0  0  2  0  0  0  0  0  0  0  0  0
  132.1842  165.2331  149.5418 C   0  0  2  0  0  0  0  0  0  0  0  0
  132.4568  166.5597  149.0959 N   0  0  0  0  0  0  0  0  0  0  0  0
  132.9578  166.4897  147.7541 C   0  0  0  0  0  0  0  0  0  0  0  0
  132.2188  165.6508  146.8074 C   0  0  1  0  0  0  0  0  0  0  0  0
  133.1838  165.0628  145.7947 C   0  0  0  0  0  0  0  0  0  0  0  0
  131.4195  164.5236  147.3770 C   0  0  0  0  0  0  0  0  0  0  0  0
  130.9334  164.7995  148.7569 C   0  0  1  0  0  0  0  0  0  0  0  0
  130.4422  163.7500  149.4551 O   0  0  0  0  0  0  0  0  0  0  0  0
  130.8584  163.8099  150.7850 C   0  0  2  0  0  0  0  0  0  0  0  0
  129.6939  163.7872  151.7066 C   0  0  0  0  0  0  0  0  0  0  0  0
  129.7778  162.7496  152.8067 C   0  0  0  0  0  0  0  0  0  0  0  0
  130.7184  163.3114  153.8513 C   0  0  1  0  0  0  0  0  0  0  0  0
  130.5748  162.6884  155.1949 C   0  0  2  0  0  0  0  0  0  0  0  0
  129.5954  163.3907  156.1054 C   0  0  0  0  0  0  0  0  0  0  0  0
  130.0418  163.1508  157.5352 C   0  0  0  0  0  0  0  0  0  0  0  0
  130.7919  161.8456  157.6758 C   0  0  2  0  0  0  0  0  0  0  0  0
  131.0388  161.6200  159.1524 C   0  0  0  0  0  0  0  0  0  0  0  0
  132.1317  160.5803  159.3706 C   0  0  1  0  0  0  0  0  0  0  0  0
  133.4349  161.0555  158.8150 C   0  0  0  0  0  0  0  0  0  0  0  0
  133.2743  162.1472  157.7844 C   0  0  0  0  0  0  0  0  0  0  0  0
  132.0976  161.8604  156.8862 C   0  0  1  0  0  0  0  0  0  0  0  0
  132.2432  160.5204  156.2427 C   0  0  0  0  0  0  0  0  0  0  0  0
  131.9575  162.9039  155.8260 C   0  0  1  0  0  0  0  0  0  0  0  0
  132.9482  162.8442  154.7273 C   0  0  0  0  0  0  0  0  0  0  0  0
  132.1148  162.9088  153.4701 C   0  0  0  0  0  0  0  0  0  0  0  0
  132.5440  162.6518  152.2401 C   0  0  0  0  0  0  0  0  0  0  0  0
  133.9895  162.2780  152.2012 C   0  0  0  0  0  0  0  0  0  0  0  0
  131.8350  162.6777  150.9635 C   0  0  0  0  0  0  0  0  0  0  0  0
  132.2349  160.3498  160.7818 N   0  0  0  0  0  0  0  0  0  0  0  0
  132.0669  161.7954  161.7046 S   0  0  0  0  0  6  0  0  0  0  0  0
  133.0646  163.0415  160.9545 C   0  0  0  0  0  0  0  0  0  0  0  0
  130.6341  162.2242  161.6420 O   0  0  0  0  0  0  0  0  0  0  0  0
  132.4237  161.5861  163.1422 O   0  0  0  0  0  0  0  0  0  0  0  0
  2  1  1  6
  2  3  1  0
  3  4  1  6
  4  5  1  0
  5  6  1  0
  6  7  1  6
  6  8  1  0
  9  8  1  6
  9 10  1  0
 10 11  1  0
 11 12  1  1
 12 13  1  0
 14 13  1  6
 14 15  1  0
 15 16  1  1
 16 17  1  0
 18 17  1  1
 18 19  1  0
 19 20  1  0
 20 21  1  0
 21 22  1  0
 22 23  1  0
 23 24  1  6
 23 25  1  0
 25 26  1  6
 26 27  1  0
 27 28  2  0
 28 29  1  0
 28 30  1  0
 20 31  1  1
 31 32  1  0
 32 33  1  0
 32 34  2  0
 32 35  2  0
 11  2  1  0
 30 11  1  0
  9  3  1  0
 27 14  1  0
 25 15  1  0
 23 18  1  0
M  END
$$$$
