
     RDKit          3D

 35 40  0  0  0  0  0  0  0  0999 V2000
  201.4700  139.0148  134.1383 C   0  0  0  0  0  0  0  0  0  0  0  0
  201.8261  138.6122  132.7208 C   0  0  2  0  0  0  0  0  0  0  0  0
  201.3375  139.7156  131.8227 C   0  0  2  0  0  0  0  0  0  0  0  0
  201.4829  141.0327  132.3490 N   0  0  0  0  0  0  0  0  0  0  0  0
  200.9511  141.9606  131.3937 C   0  0  0  0  0  0  0  0  0  0  0  0
  199.6357  141.6553  130.8259 C   0  0  1  0  0  0  0  0  0  0  0  0
  199.5655  142.1816  129.4044 C   0  0  0  0  0  0  0  0  0  0  0  0
  199.2236  140.2189  130.7967 C   0  0  0  0  0  0  0  0  0  0  0  0
  199.8289  139.4218  131.8989 C   0  0  1  0  0  0  0  0  0  0  0  0
  199.7405  138.0753  131.8017 O   0  0  0  0  0  0  0  0  0  0  0  0
  200.9319  137.4765  132.2108 C   0  0  2  0  0  0  0  0  0  0  0  0
  200.6857  136.4938  133.2970 C   0  0  0  0  0  0  0  0  0  0  0  0
  201.2842  135.1232  133.0577 C   0  0  0  0  0  0  0  0  0  0  0  0
  202.7611  135.2433  133.3673 C   0  0  1  0  0  0  0  0  0  0  0  0
  203.4293  133.9444  133.6505 C   0  0  2  0  0  0  0  0  0  0  0  0
  203.4422  133.5560  135.1100 C   0  0  0  0  0  0  0  0  0  0  0  0
  204.6672  132.6931  135.3465 C   0  0  0  0  0  0  0  0  0  0  0  0
  205.0706  131.9401  134.0990 C   0  0  2  0  0  0  0  0  0  0  0  0
  206.1835  130.9880  134.4827 C   0  0  0  0  0  0  0  0  0  0  0  0
  206.9363  130.5028  133.2494 C   0  0  1  0  0  0  0  0  0  0  0  0
  207.6071  131.6430  132.5544 C   0  0  0  0  0  0  0  0  0  0  0  0
  207.0082  132.9836  132.9065 C   0  0  0  0  0  0  0  0  0  0  0  0
  205.5054  132.8893  132.9861 C   0  0  1  0  0  0  0  0  0  0  0  0
  204.9444  132.3609  131.7066 C   0  0  0  0  0  0  0  0  0  0  0  0
  204.8933  134.2202  133.2804 C   0  0  1  0  0  0  0  0  0  0  0  0
  204.8809  135.1867  132.1588 C   0  0  0  0  0  0  0  0  0  0  0  0
  203.4557  135.6820  132.1093 C   0  0  0  0  0  0  0  0  0  0  0  0
  202.9113  136.3831  131.1218 C   0  0  0  0  0  0  0  0  0  0  0  0
  203.8726  136.6564  130.0119 C   0  0  0  0  0  0  0  0  0  0  0  0
  201.5570  136.9068  130.9650 C   0  0  0  0  0  0  0  0  0  0  0  0
  207.9002  129.5344  133.6833 N   0  0  0  0  0  0  0  0  0  0  0  0
  209.5153  129.9773  133.2769 S   0  0  0  0  0  6  0  0  0  0  0  0
  209.7611  129.6357  131.5642 C   0  0  0  0  0  0  0  0  0  0  0  0
  209.6647  131.4499  133.4999 O   0  0  0  0  0  0  0  0  0  0  0  0
  210.5203  129.2763  134.1350 O   0  0  0  0  0  0  0  0  0  0  0  0
  2  1  1  1
  2  3  1  0
  3  4  1  1
  4  5  1  0
  5  6  1  0
  6  7  1  6
  6  8  1  0
  9  8  1  6
  9 10  1  0
 10 11  1  0
 11 12  1  1
 12 13  1  0
 14 13  1  6
 14 15  1  0
 15 16  1  1
 16 17  1  0
 18 17  1  1
 18 19  1  0
 19 20  1  0
 20 21  1  0
 21 22  1  0
 22 23  1  0
 23 24  1  6
 23 25  1  0
 25 26  1  6
 26 27  1  0
 27 28  2  0
 28 29  1  0
 28 30  1  0
 20 31  1  1
 31 32  1  0
 32 33  1  0
 32 34  2  0
 32 35  2  0
 11  2  1  0
 30 11  1  0
  9  3  1  0
 27 14  1  0
 25 15  1  0
 23 18  1  0
M  END
$$$$
