
     RDKit          3D

 35 40  0  0  0  0  0  0  0  0999 V2000
  126.3041  146.6700  135.8791 C   0  0  0  0  0  0  0  0  0  0  0  0
  127.6949  146.8166  135.2939 C   0  0  2  0  0  0  0  0  0  0  0  0
  128.1182  148.2395  135.5372 C   0  0  2  0  0  0  0  0  0  0  0  0
  127.7059  148.7876  136.7872 N   0  0  0  0  0  0  0  0  0  0  0  0
  128.1600  150.1461  136.8548 C   0  0  0  0  0  0  0  0  0  0  0  0
  127.9095  150.9938  135.6866 C   0  0  1  0  0  0  0  0  0  0  0  0
  129.0252  152.0139  135.5551 C   0  0  0  0  0  0  0  0  0  0  0  0
  127.7663  150.3081  134.3663 C   0  0  0  0  0  0  0  0  0  0  0  0
  127.2257  148.9263  134.4885 C   0  0  1  0  0  0  0  0  0  0  0  0
  127.3157  148.1340  133.3957 O   0  0  0  0  0  0  0  0  0  0  0  0
  127.6678  146.8349  133.7615 C   0  0  2  0  0  0  0  0  0  0  0  0
  126.6733  145.8539  133.2568 C   0  0  0  0  0  0  0  0  0  0  0  0
  127.2655  144.6922  132.4863 C   0  0  0  0  0  0  0  0  0  0  0  0
  127.8282  143.7388  133.5188 C   0  0  1  0  0  0  0  0  0  0  0  0
  128.0231  142.3505  133.0202 C   0  0  2  0  0  0  0  0  0  0  0  0
  126.8380  141.4393  133.2358 C   0  0  0  0  0  0  0  0  0  0  0  0
  127.3635  140.0221  133.3635 C   0  0  0  0  0  0  0  0  0  0  0  0
  128.6551  139.8332  132.6006 C   0  0  2  0  0  0  0  0  0  0  0  0
  129.0000  138.3598  132.6483 C   0  0  0  0  0  0  0  0  0  0  0  0
  130.4632  138.1297  132.2890 C   0  0  1  0  0  0  0  0  0  0  0  0
  131.3638  138.7838  133.2860 C   0  0  0  0  0  0  0  0  0  0  0  0
  130.6793  139.8760  134.0724 C   0  0  0  0  0  0  0  0  0  0  0  0
  129.7786  140.6896  133.1778 C   0  0  1  0  0  0  0  0  0  0  0  0
  130.5485  141.2480  132.0261 C   0  0  0  0  0  0  0  0  0  0  0  0
  129.1350  141.8090  133.9296 C   0  0  1  0  0  0  0  0  0  0  0  0
  130.0153  142.9518  134.2635 C   0  0  0  0  0  0  0  0  0  0  0  0
  129.2390  144.1649  133.8107 C   0  0  0  0  0  0  0  0  0  0  0  0
  129.7228  145.3956  133.6902 C   0  0  0  0  0  0  0  0  0  0  0  0
  131.1671  145.4852  134.0598 C   0  0  0  0  0  0  0  0  0  0  0  0
  129.0738  146.6320  133.2621 C   0  0  0  0  0  0  0  0  0  0  0  0
  130.6840  136.7135  132.2574 N   0  0  0  0  0  0  0  0  0  0  0  0
  129.3548  135.8202  132.8935 S   0  0  0  0  0  6  0  0  0  0  0  0
  128.0562  136.9568  133.2567 C   0  0  0  0  0  0  0  0  0  0  0  0
  128.8821  134.8718  131.8361 O   0  0  0  0  0  0  0  0  0  0  0  0
  129.7441  135.0165  134.0936 O   0  0  0  0  0  0  0  0  0  0  0  0
  2  1  1  1
  2  3  1  0
  3  4  1  1
  4  5  1  0
  5  6  1  0
  6  7  1  6
  6  8  1  0
  9  8  1  6
  9 10  1  0
 10 11  1  0
 11 12  1  6
 12 13  1  0
 14 13  1  6
 14 15  1  0
 15 16  1  1
 16 17  1  0
 18 17  1  1
 18 19  1  0
 19 20  1  0
 20 21  1  0
 21 22  1  0
 22 23  1  0
 23 24  1  6
 23 25  1  0
 25 26  1  6
 26 27  1  0
 27 28  2  0
 28 29  1  0
 28 30  1  0
 20 31  1  1
 31 32  1  0
 32 33  1  0
 32 34  2  0
 32 35  2  0
 11  2  1  0
 30 11  1  0
  9  3  1  0
 27 14  1  0
 25 15  1  0
 23 18  1  0
M  END
$$$$
