
     RDKit          3D

 35 40  0  0  0  0  0  0  0  0999 V2000
  203.4045  138.3304  130.2116 C   0  0  0  0  0  0  0  0  0  0  0  0
  202.2199  137.8976  131.0529 C   0  0  2  0  0  0  0  0  0  0  0  0
  201.1414  138.9246  130.8411 C   0  0  2  0  0  0  0  0  0  0  0  0
  201.0456  139.4359  129.5136 N   0  0  0  0  0  0  0  0  0  0  0  0
  199.9980  140.4147  129.4825 C   0  0  0  0  0  0  0  0  0  0  0  0
  199.9948  141.4245  130.5438 C   0  0  1  0  0  0  0  0  0  0  0  0
  198.5649  141.8282  130.8516 C   0  0  0  0  0  0  0  0  0  0  0  0
  200.6483  141.0555  131.8364 C   0  0  0  0  0  0  0  0  0  0  0  0
  201.7525  140.0716  131.6653 C   0  0  1  0  0  0  0  0  0  0  0  0
  202.2191  139.4729  132.7851 O   0  0  0  0  0  0  0  0  0  0  0  0
  202.4722  138.1220  132.5480 C   0  0  2  0  0  0  0  0  0  0  0  0
  203.8773  137.7785  132.8857 C   0  0  0  0  0  0  0  0  0  0  0  0
  204.0334  136.5838  133.8034 C   0  0  0  0  0  0  0  0  0  0  0  0
  203.8370  135.3555  132.9408 C   0  0  1  0  0  0  0  0  0  0  0  0
  204.4026  134.1085  133.5230 C   0  0  2  0  0  0  0  0  0  0  0  0
  205.8283  133.8216  133.1148 C   0  0  0  0  0  0  0  0  0  0  0  0
  206.0240  132.3178  133.1497 C   0  0  0  0  0  0  0  0  0  0  0  0
  205.1118  131.6579  134.1589 C   0  0  2  0  0  0  0  0  0  0  0  0
  205.5032  130.1976  134.2389 C   0  0  0  0  0  0  0  0  0  0  0  0
  204.3992  129.3713  134.8881 C   0  0  1  0  0  0  0  0  0  0  0  0
  203.1541  129.4072  134.0627 C   0  0  0  0  0  0  0  0  0  0  0  0
  203.1085  130.5810  133.1140 C   0  0  0  0  0  0  0  0  0  0  0  0
  203.6428  131.8234  133.7805 C   0  0  1  0  0  0  0  0  0  0  0  0
  202.8893  132.1095  135.0381 C   0  0  0  0  0  0  0  0  0  0  0  0
  203.5541  133.0068  132.8726 C   0  0  1  0  0  0  0  0  0  0  0  0
  202.1980  133.5668  132.6733 C   0  0  0  0  0  0  0  0  0  0  0  0
  202.3667  135.0473  132.9156 C   0  0  0  0  0  0  0  0  0  0  0  0
  201.3832  135.9241  133.0799 C   0  0  0  0  0  0  0  0  0  0  0  0
  200.0312  135.2945  132.9986 C   0  0  0  0  0  0  0  0  0  0  0  0
  201.4267  137.3637  133.3221 C   0  0  0  0  0  0  0  0  0  0  0  0
  204.8833  128.0283  135.0191 N   0  0  0  0  0  0  0  0  0  0  0  0
  205.0239  127.2225  133.5023 S   0  0  0  0  0  6  0  0  0  0  0  0
  205.6271  128.3841  132.3203 C   0  0  0  0  0  0  0  0  0  0  0  0
  206.0277  126.1220  133.6507 O   0  0  0  0  0  0  0  0  0  0  0  0
  203.7286  126.6106  133.0717 O   0  0  0  0  0  0  0  0  0  0  0  0
  2  1  1  6
  2  3  1  0
  3  4  1  6
  4  5  1  0
  5  6  1  0
  6  7  1  1
  6  8  1  0
  9  8  1  1
  9 10  1  0
 10 11  1  0
 11 12  1  1
 12 13  1  0
 14 13  1  1
 14 15  1  0
 15 16  1  6
 16 17  1  0
 18 17  1  6
 18 19  1  0
 19 20  1  0
 20 21  1  0
 21 22  1  0
 22 23  1  0
 23 24  1  1
 23 25  1  0
 25 26  1  1
 26 27  1  0
 27 28  2  0
 28 29  1  0
 28 30  1  0
 20 31  1  6
 31 32  1  0
 32 33  1  0
 32 34  2  0
 32 35  2  0
 11  2  1  0
 30 11  1  0
  9  3  1  0
 27 14  1  0
 25 15  1  0
 23 18  1  0
M  END
$$$$
