
     RDKit          3D

 35 40  0  0  0  0  0  0  0  0999 V2000
  103.3762  167.6032  154.6810 C   0  0  0  0  0  0  0  0  0  0  0  0
  104.2061  166.4280  155.1592 C   0  0  2  0  0  0  0  0  0  0  0  0
  105.2050  166.1344  154.0735 C   0  0  2  0  0  0  0  0  0  0  0  0
  105.7345  167.2815  153.4126 N   0  0  0  0  0  0  0  0  0  0  0  0
  106.6430  166.8363  152.3963 C   0  0  0  0  0  0  0  0  0  0  0  0
  106.1837  165.7616  151.5131 C   0  0  1  0  0  0  0  0  0  0  0  0
  107.3695  164.9142  151.0910 C   0  0  0  0  0  0  0  0  0  0  0  0
  105.1377  164.8392  152.0505 C   0  0  0  0  0  0  0  0  0  0  0  0
  104.2501  165.4927  153.0514 C   0  0  1  0  0  0  0  0  0  0  0  0
  103.4580  164.6821  153.7901 O   0  0  0  0  0  0  0  0  0  0  0  0
  103.4135  165.1169  155.1146 C   0  0  2  0  0  0  0  0  0  0  0  0
  102.0126  165.3523  155.5485 C   0  0  0  0  0  0  0  0  0  0  0  0
  101.6283  164.6684  156.8442 C   0  0  0  0  0  0  0  0  0  0  0  0
  102.2181  165.5056  157.9590 C   0  0  1  0  0  0  0  0  0  0  0  0
  101.5788  165.2877  159.2848 C   0  0  2  0  0  0  0  0  0  0  0  0
  100.4242  166.2158  159.5793 C   0  0  0  0  0  0  0  0  0  0  0  0
  100.3464  166.3915  161.0840 C   0  0  0  0  0  0  0  0  0  0  0  0
  100.8801  165.1817  161.8172 C   0  0  2  0  0  0  0  0  0  0  0  0
  100.6009  165.3837  163.2914 C   0  0  0  0  0  0  0  0  0  0  0  0
  101.4559  164.4515  164.1417 C   0  0  1  0  0  0  0  0  0  0  0  0
  102.9084  164.7541  163.9644 C   0  0  0  0  0  0  0  0  0  0  0  0
  103.2028  165.5092  162.6904 C   0  0  0  0  0  0  0  0  0  0  0  0
  102.3690  164.9765  161.5528 C   0  0  1  0  0  0  0  0  0  0  0  0
  102.5919  163.5096  161.3808 C   0  0  0  0  0  0  0  0  0  0  0  0
  102.6879  165.6771  160.2721 C   0  0  1  0  0  0  0  0  0  0  0  0
  103.9764  165.3120  159.6407 C   0  0  0  0  0  0  0  0  0  0  0  0
  103.6171  165.0159  158.2046 C   0  0  0  0  0  0  0  0  0  0  0  0
  104.4034  164.4228  157.3141 C   0  0  0  0  0  0  0  0  0  0  0  0
  105.7377  164.0576  157.8772 C   0  0  0  0  0  0  0  0  0  0  0  0
  104.1636  164.0844  155.9137 C   0  0  0  0  0  0  0  0  0  0  0  0
  101.0630  164.6299  165.5089 N   0  0  0  0  0  0  0  0  0  0  0  0
   99.3720  164.9129  165.6820 S   0  0  0  0  0  6  0  0  0  0  0  0
   99.1147  165.7747  167.1991 C   0  0  0  0  0  0  0  0  0  0  0  0
   98.9277  165.7870  164.5509 O   0  0  0  0  0  0  0  0  0  0  0  0
   98.5832  163.6433  165.6213 O   0  0  0  0  0  0  0  0  0  0  0  0
  2  1  1  6
  2  3  1  0
  3  4  1  6
  4  5  1  0
  5  6  1  0
  6  7  1  1
  6  8  1  0
  9  8  1  6
  9 10  1  0
 10 11  1  0
 11 12  1  1
 12 13  1  0
 14 13  1  6
 14 15  1  0
 15 16  1  6
 16 17  1  0
 18 17  1  6
 18 19  1  0
 19 20  1  0
 20 21  1  0
 21 22  1  0
 22 23  1  0
 23 24  1  6
 23 25  1  0
 25 26  1  6
 26 27  1  0
 27 28  2  0
 28 29  1  0
 28 30  1  0
 20 31  1  1
 31 32  1  0
 32 33  1  0
 32 34  2  0
 32 35  2  0
 11  2  1  0
 30 11  1  0
  9  3  1  0
 27 14  1  0
 25 15  1  0
 23 18  1  0
M  END
$$$$
