
     RDKit          3D

 35 40  0  0  0  0  0  0  0  0999 V2000
  189.1607  163.9064  134.0436 C   0  0  0  0  0  0  0  0  0  0  0  0
  189.8850  163.6764  135.3554 C   0  0  2  0  0  0  0  0  0  0  0  0
  191.3446  163.9288  135.0929 C   0  0  2  0  0  0  0  0  0  0  0  0
  191.6208  165.0013  134.1949 N   0  0  0  0  0  0  0  0  0  0  0  0
  193.0421  165.0955  134.0298 C   0  0  0  0  0  0  0  0  0  0  0  0
  193.7679  163.8517  133.7611 C   0  0  1  0  0  0  0  0  0  0  0  0
  195.1575  163.9382  134.3645 C   0  0  0  0  0  0  0  0  0  0  0  0
  193.1442  162.5819  134.2434 C   0  0  0  0  0  0  0  0  0  0  0  0
  191.6578  162.6513  134.2941 C   0  0  1  0  0  0  0  0  0  0  0  0
  191.0208  161.6659  134.9675 O   0  0  0  0  0  0  0  0  0  0  0  0
  189.9608  162.1869  135.7092 C   0  0  2  0  0  0  0  0  0  0  0  0
  188.6851  161.5130  135.3566 C   0  0  0  0  0  0  0  0  0  0  0  0
  187.8996  160.9864  136.5397 C   0  0  0  0  0  0  0  0  0  0  0  0
  187.2101  162.1829  137.1598 C   0  0  1  0  0  0  0  0  0  0  0  0
  186.0444  161.8348  138.0165 C   0  0  2  0  0  0  0  0  0  0  0  0
  184.7222  161.8056  137.2869 C   0  0  0  0  0  0  0  0  0  0  0  0
  183.6354  162.1467  138.2887 C   0  0  0  0  0  0  0  0  0  0  0  0
  184.0214  161.7409  139.6931 C   0  0  2  0  0  0  0  0  0  0  0  0
  182.8138  161.9634  140.5787 C   0  0  0  0  0  0  0  0  0  0  0  0
  183.2132  161.9929  142.0493 C   0  0  1  0  0  0  0  0  0  0  0  0
  184.1299  163.1397  142.3274 C   0  0  0  0  0  0  0  0  0  0  0  0
  184.8137  163.6630  141.0870 C   0  0  0  0  0  0  0  0  0  0  0  0
  185.2323  162.5247  140.1912 C   0  0  1  0  0  0  0  0  0  0  0  0
  186.1069  161.5676  140.9330 C   0  0  0  0  0  0  0  0  0  0  0  0
  185.9591  163.0230  138.9846 C   0  0  1  0  0  0  0  0  0  0  0  0
  187.3441  163.4935  139.2144 C   0  0  0  0  0  0  0  0  0  0  0  0
  188.1577  162.7886  138.1560 C   0  0  0  0  0  0  0  0  0  0  0  0
  189.4830  162.7160  138.1157 C   0  0  0  0  0  0  0  0  0  0  0  0
  190.1333  163.4260  139.2576 C   0  0  0  0  0  0  0  0  0  0  0  0
  190.3683  162.0651  137.1537 C   0  0  0  0  0  0  0  0  0  0  0  0
  182.0112  162.1043  142.8226 N   0  0  0  0  0  0  0  0  0  0  0  0
  181.0846  163.4980  142.4119 S   0  0  0  0  0  6  0  0  0  0  0  0
  180.2636  163.1778  140.8842 C   0  0  0  0  0  0  0  0  0  0  0  0
  180.0540  163.7030  143.4781 O   0  0  0  0  0  0  0  0  0  0  0  0
  181.9290  164.7309  142.3432 O   0  0  0  0  0  0  0  0  0  0  0  0
  2  1  1  6
  2  3  1  0
  3  4  1  6
  4  5  1  0
  5  6  1  0
  6  7  1  1
  6  8  1  0
  9  8  1  1
  9 10  1  0
 10 11  1  0
 11 12  1  1
 12 13  1  0
 14 13  1  1
 14 15  1  0
 15 16  1  6
 16 17  1  0
 18 17  1  6
 18 19  1  0
 19 20  1  0
 20 21  1  0
 21 22  1  0
 22 23  1  0
 23 24  1  1
 23 25  1  0
 25 26  1  1
 26 27  1  0
 27 28  2  0
 28 29  1  0
 28 30  1  0
 20 31  1  1
 31 32  1  0
 32 33  1  0
 32 34  2  0
 32 35  2  0
 11  2  1  0
 30 11  1  0
  9  3  1  0
 27 14  1  0
 25 15  1  0
 23 18  1  0
M  END
$$$$
