
     RDKit          3D

 35 40  0  0  0  0  0  0  0  0999 V2000
  110.2877  166.5768  155.8223 C   0  0  0  0  0  0  0  0  0  0  0  0
  110.0445  165.3467  156.6744 C   0  0  2  0  0  0  0  0  0  0  0  0
  111.1374  164.3680  156.3419 C   0  0  2  0  0  0  0  0  0  0  0  0
  112.4185  164.9485  156.1086 N   0  0  0  0  0  0  0  0  0  0  0  0
  113.3365  163.8967  155.7807 C   0  0  0  0  0  0  0  0  0  0  0  0
  112.9020  162.9172  154.7818 C   0  0  1  0  0  0  0  0  0  0  0  0
  113.5199  161.5676  155.0967 C   0  0  0  0  0  0  0  0  0  0  0  0
  111.4297  162.7141  154.6233 C   0  0  0  0  0  0  0  0  0  0  0  0
  110.6396  163.9323  154.9524 C   0  0  1  0  0  0  0  0  0  0  0  0
  109.3047  163.7746  155.1047 O   0  0  0  0  0  0  0  0  0  0  0  0
  108.8413  164.5387  156.1756 C   0  0  2  0  0  0  0  0  0  0  0  0
  107.7553  165.4548  155.7427 C   0  0  0  0  0  0  0  0  0  0  0  0
  106.4990  165.3898  156.5862 C   0  0  0  0  0  0  0  0  0  0  0  0
  106.7916  166.1741  157.8474 C   0  0  1  0  0  0  0  0  0  0  0  0
  105.5760  166.6270  158.5761 C   0  0  2  0  0  0  0  0  0  0  0  0
  105.0838  167.9974  158.1746 C   0  0  0  0  0  0  0  0  0  0  0  0
  104.3769  168.6024  159.3726 C   0  0  0  0  0  0  0  0  0  0  0  0
  103.7809  167.5389  160.2668 C   0  0  2  0  0  0  0  0  0  0  0  0
  102.9598  168.2432  161.3260 C   0  0  0  0  0  0  0  0  0  0  0  0
  102.6741  167.3160  162.5014 C   0  0  1  0  0  0  0  0  0  0  0  0
  103.9428  166.9137  163.1807 C   0  0  0  0  0  0  0  0  0  0  0  0
  105.1610  167.0842  162.3049 C   0  0  0  0  0  0  0  0  0  0  0  0
  104.8610  166.6591  160.8897 C   0  0  1  0  0  0  0  0  0  0  0  0
  104.3604  165.2521  160.8594 C   0  0  0  0  0  0  0  0  0  0  0  0
  106.0721  166.7702  160.0217 C   0  0  1  0  0  0  0  0  0  0  0  0
  107.1101  165.7346  160.2270 C   0  0  0  0  0  0  0  0  0  0  0  0
  107.4129  165.2295  158.8369 C   0  0  0  0  0  0  0  0  0  0  0  0
  108.1075  164.1370  158.5420 C   0  0  0  0  0  0  0  0  0  0  0  0
  108.5898  163.4159  159.7578 C   0  0  0  0  0  0  0  0  0  0  0  0
  108.4559  163.5550  157.2486 C   0  0  0  0  0  0  0  0  0  0  0  0
  101.8132  168.0180  163.4077 N   0  0  0  0  0  0  0  0  0  0  0  0
  102.3006  167.8488  165.0519 S   0  0  0  0  0  6  0  0  0  0  0  0
  102.8397  169.4264  165.6273 C   0  0  0  0  0  0  0  0  0  0  0  0
  101.1068  167.4277  165.8507 O   0  0  0  0  0  0  0  0  0  0  0  0
  103.3583  166.8039  165.2171 O   0  0  0  0  0  0  0  0  0  0  0  0
  2  1  1  6
  2  3  1  0
  3  4  1  6
  4  5  1  0
  5  6  1  0
  6  7  1  1
  6  8  1  0
  9  8  1  1
  9 10  1  0
 10 11  1  0
 11 12  1  6
 12 13  1  0
 14 13  1  6
 14 15  1  0
 15 16  1  6
 16 17  1  0
 18 17  1  6
 18 19  1  0
 19 20  1  0
 20 21  1  0
 21 22  1  0
 22 23  1  0
 23 24  1  1
 23 25  1  0
 25 26  1  1
 26 27  1  0
 27 28  2  0
 28 29  1  0
 28 30  1  0
 20 31  1  1
 31 32  1  0
 32 33  1  0
 32 34  2  0
 32 35  2  0
 11  2  1  0
 30 11  1  0
  9  3  1  0
 27 14  1  0
 25 15  1  0
 23 18  1  0
M  END
$$$$
