
     RDKit          3D

 35 40  0  0  0  0  0  0  0  0999 V2000
  163.6573  155.0933  126.0563 C   0  0  0  0  0  0  0  0  0  0  0  0
  164.8249  154.7101  126.9441 C   0  0  2  0  0  0  0  0  0  0  0  0
  165.4765  155.9943  127.3792 C   0  0  2  0  0  0  0  0  0  0  0  0
  164.5775  157.0684  127.6458 N   0  0  0  0  0  0  0  0  0  0  0  0
  165.3482  158.2184  128.0197 C   0  0  0  0  0  0  0  0  0  0  0  0
  166.4957  158.5578  127.1745 C   0  0  1  0  0  0  0  0  0  0  0  0
  167.5792  159.1926  128.0263 C   0  0  0  0  0  0  0  0  0  0  0  0
  167.1239  157.4443  126.4004 C   0  0  0  0  0  0  0  0  0  0  0  0
  166.1577  156.3670  126.0505 C   0  0  1  0  0  0  0  0  0  0  0  0
  166.6757  155.2025  125.5970 O   0  0  0  0  0  0  0  0  0  0  0  0
  165.9838  154.1174  126.1348 C   0  0  2  0  0  0  0  0  0  0  0  0
  165.4581  153.2381  125.0594 C   0  0  0  0  0  0  0  0  0  0  0  0
  165.8038  151.7718  125.2156 C   0  0  0  0  0  0  0  0  0  0  0  0
  164.8598  151.2207  126.2628 C   0  0  1  0  0  0  0  0  0  0  0  0
  164.7099  149.7408  126.2261 C   0  0  2  0  0  0  0  0  0  0  0  0
  163.5784  149.2511  125.3536 C   0  0  0  0  0  0  0  0  0  0  0  0
  163.0964  147.9300  125.9225 C   0  0  0  0  0  0  0  0  0  0  0  0
  164.2021  147.1957  126.6465 C   0  0  2  0  0  0  0  0  0  0  0  0
  163.6703  145.8287  127.0215 C   0  0  0  0  0  0  0  0  0  0  0  0
  164.5322  145.1849  128.1012 C   0  0  1  0  0  0  0  0  0  0  0  0
  164.4936  145.9884  129.3604 C   0  0  0  0  0  0  0  0  0  0  0  0
  164.0611  147.4174  129.1357 C   0  0  0  0  0  0  0  0  0  0  0  0
  164.6780  147.9668  127.8743 C   0  0  1  0  0  0  0  0  0  0  0  0
  166.1662  147.8492  127.9239 C   0  0  0  0  0  0  0  0  0  0  0  0
  164.3033  149.3981  127.6661 C   0  0  1  0  0  0  0  0  0  0  0  0
  164.9770  150.3765  128.5499 C   0  0  0  0  0  0  0  0  0  0  0  0
  165.4959  151.4351  127.6070 C   0  0  0  0  0  0  0  0  0  0  0  0
  166.3664  152.3895  127.9145 C   0  0  0  0  0  0  0  0  0  0  0  0
  166.8089  152.3275  129.3397 C   0  0  0  0  0  0  0  0  0  0  0  0
  166.9372  153.4532  127.0925 C   0  0  0  0  0  0  0  0  0  0  0  0
  164.0276  143.8621  128.3269 N   0  0  0  0  0  0  0  0  0  0  0  0
  162.9232  143.7894  129.6476 S   0  0  0  0  0  6  0  0  0  0  0  0
  162.1174  145.3533  129.7729 C   0  0  0  0  0  0  0  0  0  0  0  0
  161.8976  142.7432  129.3403 O   0  0  0  0  0  0  0  0  0  0  0  0
  163.6026  143.4086  130.9247 O   0  0  0  0  0  0  0  0  0  0  0  0
  2  1  1  6
  2  3  1  0
  3  4  1  6
  4  5  1  0
  5  6  1  0
  6  7  1  1
  6  8  1  0
  9  8  1  1
  9 10  1  0
 10 11  1  0
 11 12  1  6
 12 13  1  0
 14 13  1  6
 14 15  1  0
 15 16  1  6
 16 17  1  0
 18 17  1  1
 18 19  1  0
 19 20  1  0
 20 21  1  0
 21 22  1  0
 22 23  1  0
 23 24  1  1
 23 25  1  0
 25 26  1  1
 26 27  1  0
 27 28  2  0
 28 29  1  0
 28 30  1  0
 20 31  1  1
 31 32  1  0
 32 33  1  0
 32 34  2  0
 32 35  2  0
 11  2  1  0
 30 11  1  0
  9  3  1  0
 27 14  1  0
 25 15  1  0
 23 18  1  0
M  END
$$$$
