
     RDKit          3D

 35 40  0  0  0  0  0  0  0  0999 V2000
  115.9801  164.6386  142.1893 C   0  0  0  0  0  0  0  0  0  0  0  0
  116.9039  165.7482  141.7269 C   0  0  2  0  0  0  0  0  0  0  0  0
  117.1698  165.5082  140.2659 C   0  0  2  0  0  0  0  0  0  0  0  0
  116.0562  165.0211  139.5207 N   0  0  0  0  0  0  0  0  0  0  0  0
  116.4755  164.8198  138.1642 C   0  0  0  0  0  0  0  0  0  0  0  0
  117.7331  164.0989  137.9531 C   0  0  1  0  0  0  0  0  0  0  0  0
  118.4066  164.6169  136.6959 C   0  0  0  0  0  0  0  0  0  0  0  0
  118.7392  164.1477  139.0574 C   0  0  0  0  0  0  0  0  0  0  0  0
  118.1158  164.3018  140.4006 C   0  0  1  0  0  0  0  0  0  0  0  0
  118.9378  164.6284  141.4241 O   0  0  0  0  0  0  0  0  0  0  0  0
  118.3281  165.5621  142.2619 C   0  0  2  0  0  0  0  0  0  0  0  0
  118.2869  165.0702  143.6628 C   0  0  0  0  0  0  0  0  0  0  0  0
  118.8305  166.0410  144.6905 C   0  0  0  0  0  0  0  0  0  0  0  0
  117.7463  167.0728  144.9171 C   0  0  1  0  0  0  0  0  0  0  0  0
  117.8781  167.8204  146.1968 C   0  0  2  0  0  0  0  0  0  0  0  0
  117.1393  167.2002  147.3591 C   0  0  0  0  0  0  0  0  0  0  0  0
  116.7612  168.3169  148.3135 C   0  0  0  0  0  0  0  0  0  0  0  0
  117.7343  169.4715  148.2377 C   0  0  2  0  0  0  0  0  0  0  0  0
  117.3711  170.4452  149.3387 C   0  0  0  0  0  0  0  0  0  0  0  0
  117.9993  171.8112  149.0887 C   0  0  1  0  0  0  0  0  0  0  0  0
  117.4702  172.4162  147.8290 C   0  0  0  0  0  0  0  0  0  0  0  0
  116.8702  171.3963  146.8910 C   0  0  0  0  0  0  0  0  0  0  0  0
  117.7054  170.1412  146.8669 C   0  0  1  0  0  0  0  0  0  0  0  0
  119.1175  170.4577  146.4968 C   0  0  0  0  0  0  0  0  0  0  0  0
  117.1551  169.1420  145.9019 C   0  0  1  0  0  0  0  0  0  0  0  0
  117.3716  169.4425  144.4683 C   0  0  0  0  0  0  0  0  0  0  0  0
  117.9353  168.1625  143.9001 C   0  0  0  0  0  0  0  0  0  0  0  0
  118.5021  168.0260  142.7070 C   0  0  0  0  0  0  0  0  0  0  0  0
  118.5348  169.3046  141.9357 C   0  0  0  0  0  0  0  0  0  0  0  0
  119.0801  166.8510  142.0606 C   0  0  0  0  0  0  0  0  0  0  0  0
  117.6953  172.6410  150.2175 N   0  0  0  0  0  0  0  0  0  0  0  0
  116.0024  172.8895  150.4219 S   0  0  0  0  0  6  0  0  0  0  0  0
  115.2265  171.3090  150.5245 C   0  0  0  0  0  0  0  0  0  0  0  0
  115.7906  173.6141  151.7145 O   0  0  0  0  0  0  0  0  0  0  0  0
  115.4231  173.7247  149.3244 O   0  0  0  0  0  0  0  0  0  0  0  0
  2  1  1  1
  2  3  1  0
  3  4  1  6
  4  5  1  0
  5  6  1  0
  6  7  1  6
  6  8  1  0
  9  8  1  6
  9 10  1  0
 10 11  1  0
 11 12  1  1
 12 13  1  0
 14 13  1  6
 14 15  1  0
 15 16  1  1
 16 17  1  0
 18 17  1  6
 18 19  1  0
 19 20  1  0
 20 21  1  0
 21 22  1  0
 22 23  1  0
 23 24  1  6
 23 25  1  0
 25 26  1  6
 26 27  1  0
 27 28  2  0
 28 29  1  0
 28 30  1  0
 20 31  1  1
 31 32  1  0
 32 33  1  0
 32 34  2  0
 32 35  2  0
 11  2  1  0
 30 11  1  0
  9  3  1  0
 27 14  1  0
 25 15  1  0
 23 18  1  0
M  END
$$$$
