
     RDKit          3D

 35 40  0  0  0  0  0  0  0  0999 V2000
  130.2473  147.8861  134.6753 C   0  0  0  0  0  0  0  0  0  0  0  0
  128.8139  147.5333  134.3302 C   0  0  2  0  0  0  0  0  0  0  0  0
  128.0493  148.8279  134.2850 C   0  0  2  0  0  0  0  0  0  0  0  0
  128.7637  149.9332  133.7364 N   0  0  0  0  0  0  0  0  0  0  0  0
  127.9151  151.0881  133.7878 C   0  0  0  0  0  0  0  0  0  0  0  0
  127.2246  151.3546  135.0520 C   0  0  1  0  0  0  0  0  0  0  0  0
  125.8895  152.0172  134.7676 C   0  0  0  0  0  0  0  0  0  0  0  0
  126.9671  150.1852  135.9466 C   0  0  0  0  0  0  0  0  0  0  0  0
  127.9840  149.1082  135.7968 C   0  0  1  0  0  0  0  0  0  0  0  0
  127.6932  147.9091  136.3514 O   0  0  0  0  0  0  0  0  0  0  0  0
  128.0919  146.8713  135.5091 C   0  0  2  0  0  0  0  0  0  0  0  0
  129.0107  145.9405  136.2129 C   0  0  0  0  0  0  0  0  0  0  0  0
  128.6214  144.4795  136.1239 C   0  0  0  0  0  0  0  0  0  0  0  0
  129.0414  144.0097  134.7476 C   0  0  1  0  0  0  0  0  0  0  0  0
  129.1830  142.5334  134.6273 C   0  0  2  0  0  0  0  0  0  0  0  0
  130.5713  142.0151  134.9195 C   0  0  0  0  0  0  0  0  0  0  0  0
  130.7644  140.7396  134.1216 C   0  0  0  0  0  0  0  0  0  0  0  0
  129.4530  140.0279  133.8777 C   0  0  2  0  0  0  0  0  0  0  0  0
  129.7717  138.6960  133.2322 C   0  0  0  0  0  0  0  0  0  0  0  0
  128.5348  138.1004  132.5700 C   0  0  1  0  0  0  0  0  0  0  0  0
  128.0524  138.9774  131.4605 C   0  0  0  0  0  0  0  0  0  0  0  0
  128.5490  140.3989  131.5733 C   0  0  0  0  0  0  0  0  0  0  0  0
  128.5154  140.8607  133.0082 C   0  0  1  0  0  0  0  0  0  0  0  0
  127.1402  140.7173  133.5735 C   0  0  0  0  0  0  0  0  0  0  0  0
  128.9525  142.2843  133.1302 C   0  0  1  0  0  0  0  0  0  0  0  0
  127.9792  143.2998  132.6679 C   0  0  0  0  0  0  0  0  0  0  0  0
  127.9060  144.2906  133.8046 C   0  0  0  0  0  0  0  0  0  0  0  0
  126.9929  145.2443  133.9456 C   0  0  0  0  0  0  0  0  0  0  0  0
  125.9981  145.2579  132.8316 C   0  0  0  0  0  0  0  0  0  0  0  0
  126.8223  146.2463  134.9943 C   0  0  0  0  0  0  0  0  0  0  0  0
  128.8911  136.8033  132.0740 N   0  0  0  0  0  0  0  0  0  0  0  0
  130.5856  136.6368  131.8082 S   0  0  0  0  0  6  0  0  0  0  0  0
  131.4028  136.8196  133.3604 C   0  0  0  0  0  0  0  0  0  0  0  0
  130.8423  135.2565  131.2890 O   0  0  0  0  0  0  0  0  0  0  0  0
  131.0912  137.6129  130.7936 O   0  0  0  0  0  0  0  0  0  0  0  0
  2  1  1  1
  2  3  1  0
  3  4  1  6
  4  5  1  0
  5  6  1  0
  6  7  1  6
  6  8  1  0
  9  8  1  6
  9 10  1  0
 10 11  1  0
 11 12  1  1
 12 13  1  0
 14 13  1  1
 14 15  1  0
 15 16  1  6
 16 17  1  0
 18 17  1  6
 18 19  1  0
 19 20  1  0
 20 21  1  0
 21 22  1  0
 22 23  1  0
 23 24  1  1
 23 25  1  0
 25 26  1  1
 26 27  1  0
 27 28  2  0
 28 29  1  0
 28 30  1  0
 20 31  1  6
 31 32  1  0
 32 33  1  0
 32 34  2  0
 32 35  2  0
 11  2  1  0
 30 11  1  0
  9  3  1  0
 27 14  1  0
 25 15  1  0
 23 18  1  0
M  END
$$$$
