
     RDKit          3D

 35 40  0  0  0  0  0  0  0  0999 V2000
  203.7390  138.1645  129.8217 C   0  0  0  0  0  0  0  0  0  0  0  0
  202.5272  137.8917  130.6908 C   0  0  2  0  0  0  0  0  0  0  0  0
  201.5582  139.0161  130.4461 C   0  0  2  0  0  0  0  0  0  0  0  0
  201.4984  139.4804  129.0994 N   0  0  0  0  0  0  0  0  0  0  0  0
  200.5576  140.5609  129.0371 C   0  0  0  0  0  0  0  0  0  0  0  0
  200.6731  141.6076  130.0554 C   0  0  1  0  0  0  0  0  0  0  0  0
  199.2970  142.1701  130.3590 C   0  0  0  0  0  0  0  0  0  0  0  0
  201.3019  141.2252  131.3564 C   0  0  0  0  0  0  0  0  0  0  0  0
  202.2958  140.1255  131.2165 C   0  0  1  0  0  0  0  0  0  0  0  0
  202.7126  139.5273  132.3560 O   0  0  0  0  0  0  0  0  0  0  0  0
  202.8212  138.1489  132.1729 C   0  0  2  0  0  0  0  0  0  0  0  0
  204.1874  137.6749  132.5120 C   0  0  0  0  0  0  0  0  0  0  0  0
  204.2310  136.5085  133.4772 C   0  0  0  0  0  0  0  0  0  0  0  0
  203.8969  135.2734  132.6682 C   0  0  1  0  0  0  0  0  0  0  0  0
  204.3379  133.9989  133.2966 C   0  0  2  0  0  0  0  0  0  0  0  0
  205.7206  133.5489  132.8880 C   0  0  0  0  0  0  0  0  0  0  0  0
  205.7599  132.0356  132.9836 C   0  0  0  0  0  0  0  0  0  0  0  0
  204.7976  131.5155  134.0275 C   0  0  2  0  0  0  0  0  0  0  0  0
  205.0365  130.0269  134.1646 C   0  0  0  0  0  0  0  0  0  0  0  0
  203.8615  129.3469  134.8575 C   0  0  1  0  0  0  0  0  0  0  0  0
  202.6161  129.4788  134.0424 C   0  0  0  0  0  0  0  0  0  0  0  0
  202.6798  130.6116  133.0462 C   0  0  0  0  0  0  0  0  0  0  0  0
  203.3488  131.8177  133.6557 C   0  0  1  0  0  0  0  0  0  0  0  0
  202.6457  132.2312  134.9070 C   0  0  0  0  0  0  0  0  0  0  0  0
  203.3712  132.9662  132.7002 C   0  0  1  0  0  0  0  0  0  0  0  0
  202.0780  133.6557  132.4900 C   0  0  0  0  0  0  0  0  0  0  0  0
  202.4024  135.1193  132.6690 C   0  0  0  0  0  0  0  0  0  0  0  0
  201.5173  136.0996  132.8055 C   0  0  0  0  0  0  0  0  0  0  0  0
  200.1064  135.6114  132.7625 C   0  0  0  0  0  0  0  0  0  0  0  0
  201.7130  137.5355  132.9872 C   0  0  0  0  0  0  0  0  0  0  0  0
  204.2055  127.9671  135.0398 N   0  0  0  0  0  0  0  0  0  0  0  0
  205.2001  127.3578  133.7714 S   0  0  0  0  0  6  0  0  0  0  0  0
  204.7348  128.1674  132.2751 C   0  0  0  0  0  0  0  0  0  0  0  0
  206.6215  127.7071  134.0852 O   0  0  0  0  0  0  0  0  0  0  0  0
  205.1060  125.8696  133.6525 O   0  0  0  0  0  0  0  0  0  0  0  0
  2  1  1  6
  2  3  1  0
  3  4  1  6
  4  5  1  0
  5  6  1  0
  6  7  1  1
  6  8  1  0
  9  8  1  1
  9 10  1  0
 10 11  1  0
 11 12  1  1
 12 13  1  0
 14 13  1  1
 14 15  1  0
 15 16  1  6
 16 17  1  0
 18 17  1  6
 18 19  1  0
 19 20  1  0
 20 21  1  0
 21 22  1  0
 22 23  1  0
 23 24  1  1
 23 25  1  0
 25 26  1  1
 26 27  1  0
 27 28  2  0
 28 29  1  0
 28 30  1  0
 20 31  1  6
 31 32  1  0
 32 33  1  0
 32 34  2  0
 32 35  2  0
 11  2  1  0
 30 11  1  0
  9  3  1  0
 27 14  1  0
 25 15  1  0
 23 18  1  0
M  END
$$$$
