
     RDKit          3D

 35 40  0  0  0  0  0  0  0  0999 V2000
  126.8634  149.0335  137.2530 C   0  0  0  0  0  0  0  0  0  0  0  0
  127.6680  149.1475  135.9732 C   0  0  2  0  0  0  0  0  0  0  0  0
  127.9255  150.6133  135.7539 C   0  0  2  0  0  0  0  0  0  0  0  0
  128.1798  151.3662  136.9377 N   0  0  0  0  0  0  0  0  0  0  0  0
  128.3773  152.7370  136.5658 C   0  0  0  0  0  0  0  0  0  0  0  0
  127.4018  153.3274  135.6461 C   0  0  1  0  0  0  0  0  0  0  0  0
  128.0891  154.3679  134.7816 C   0  0  0  0  0  0  0  0  0  0  0  0
  126.6729  152.3931  134.7352 C   0  0  0  0  0  0  0  0  0  0  0  0
  126.5112  151.0308  135.3138 C   0  0  1  0  0  0  0  0  0  0  0  0
  126.1152  150.0498  134.4708 O   0  0  0  0  0  0  0  0  0  0  0  0
  126.8088  148.8689  134.7349 C   0  0  2  0  0  0  0  0  0  0  0  0
  125.8689  147.7514  135.0068 C   0  0  0  0  0  0  0  0  0  0  0  0
  126.1201  146.5005  134.1906 C   0  0  0  0  0  0  0  0  0  0  0  0
  127.2957  145.7991  134.8368 C   0  0  1  0  0  0  0  0  0  0  0  0
  127.4033  144.3550  134.4949 C   0  0  2  0  0  0  0  0  0  0  0  0
  126.6872  143.4332  135.4536 C   0  0  0  0  0  0  0  0  0  0  0  0
  127.4126  142.1010  135.4405 C   0  0  0  0  0  0  0  0  0  0  0  0
  128.0915  141.8464  134.1137 C   0  0  2  0  0  0  0  0  0  0  0  0
  128.6333  140.4330  134.1442 C   0  0  0  0  0  0  0  0  0  0  0  0
  129.6797  140.2259  133.0555 C   0  0  1  0  0  0  0  0  0  0  0  0
  130.8616  141.1123  133.2797 C   0  0  0  0  0  0  0  0  0  0  0  0
  130.5538  142.2926  134.1698 C   0  0  0  0  0  0  0  0  0  0  0  0
  129.1967  142.8634  133.8441 C   0  0  1  0  0  0  0  0  0  0  0  0
  129.1166  143.2346  132.3995 C   0  0  0  0  0  0  0  0  0  0  0  0
  128.8996  144.0661  134.6794 C   0  0  1  0  0  0  0  0  0  0  0  0
  129.6270  145.3024  134.3120 C   0  0  0  0  0  0  0  0  0  0  0  0
  128.5501  146.3570  134.2266 C   0  0  0  0  0  0  0  0  0  0  0  0
  128.6896  147.5681  133.7004 C   0  0  0  0  0  0  0  0  0  0  0  0
  130.0670  147.8133  133.1773 C   0  0  0  0  0  0  0  0  0  0  0  0
  127.7275  148.6579  133.5606 C   0  0  0  0  0  0  0  0  0  0  0  0
  130.0671  138.8459  133.0839 N   0  0  0  0  0  0  0  0  0  0  0  0
  129.2248  137.9446  134.2871 S   0  0  0  0  0  6  0  0  0  0  0  0
  128.2462  139.0704  135.2280 C   0  0  0  0  0  0  0  0  0  0  0  0
  128.3146  136.9792  133.5940 O   0  0  0  0  0  0  0  0  0  0  0  0
  130.1579  137.1588  135.1529 O   0  0  0  0  0  0  0  0  0  0  0  0
  2  1  1  1
  2  3  1  0
  3  4  1  1
  4  5  1  0
  5  6  1  0
  6  7  1  6
  6  8  1  0
  9  8  1  6
  9 10  1  0
 10 11  1  0
 11 12  1  1
 12 13  1  0
 14 13  1  6
 14 15  1  0
 15 16  1  1
 16 17  1  0
 18 17  1  1
 18 19  1  0
 19 20  1  0
 20 21  1  0
 21 22  1  0
 22 23  1  0
 23 24  1  6
 23 25  1  0
 25 26  1  6
 26 27  1  0
 27 28  2  0
 28 29  1  0
 28 30  1  0
 20 31  1  1
 31 32  1  0
 32 33  1  0
 32 34  2  0
 32 35  2  0
 11  2  1  0
 30 11  1  0
  9  3  1  0
 27 14  1  0
 25 15  1  0
 23 18  1  0
M  END
$$$$
