
     RDKit          3D

 35 40  0  0  0  0  0  0  0  0999 V2000
  172.4174  148.8569  119.5004 C   0  0  0  0  0  0  0  0  0  0  0  0
  173.2896  148.2012  120.5527 C   0  0  2  0  0  0  0  0  0  0  0  0
  174.6542  148.0366  119.9414 C   0  0  2  0  0  0  0  0  0  0  0  0
  175.0725  149.1078  119.0986 N   0  0  0  0  0  0  0  0  0  0  0  0
  176.3700  148.7902  118.5771 C   0  0  0  0  0  0  0  0  0  0  0  0
  176.5571  147.4475  118.0219 C   0  0  1  0  0  0  0  0  0  0  0  0
  177.9907  147.0039  118.2470 C   0  0  0  0  0  0  0  0  0  0  0  0
  175.6633  146.3667  118.5387 C   0  0  0  0  0  0  0  0  0  0  0  0
  174.3364  146.8766  118.9813 C   0  0  1  0  0  0  0  0  0  0  0  0
  173.5680  146.0346  119.7098 O   0  0  0  0  0  0  0  0  0  0  0  0
  172.9346  146.7226  120.7445 C   0  0  2  0  0  0  0  0  0  0  0  0
  171.4621  146.5387  120.6801 C   0  0  0  0  0  0  0  0  0  0  0  0
  170.8236  146.0870  121.9771 C   0  0  0  0  0  0  0  0  0  0  0  0
  170.7304  147.3156  122.8566 C   0  0  1  0  0  0  0  0  0  0  0  0
  169.7325  147.2017  123.9543 C   0  0  2  0  0  0  0  0  0  0  0  0
  168.3524  147.6995  123.5953 C   0  0  0  0  0  0  0  0  0  0  0  0
  167.6906  148.1835  124.8715 C   0  0  0  0  0  0  0  0  0  0  0  0
  168.2139  147.4508  126.0861 C   0  0  2  0  0  0  0  0  0  0  0  0
  167.3761  147.8798  127.2719 C   0  0  0  0  0  0  0  0  0  0  0  0
  168.0729  147.5400  128.5842 C   0  0  1  0  0  0  0  0  0  0  0  0
  169.3595  148.2892  128.7114 C   0  0  0  0  0  0  0  0  0  0  0  0
  169.8913  148.7784  127.3857 C   0  0  0  0  0  0  0  0  0  0  0  0
  169.6957  147.7330  126.3168 C   0  0  1  0  0  0  0  0  0  0  0  0
  170.3363  146.4450  126.7192 C   0  0  0  0  0  0  0  0  0  0  0  0
  170.2660  148.1801  125.0101 C   0  0  1  0  0  0  0  0  0  0  0  0
  171.7431  148.1604  124.9104 C   0  0  0  0  0  0  0  0  0  0  0  0
  172.0199  147.4280  123.6195 C   0  0  0  0  0  0  0  0  0  0  0  0
  173.2004  146.9625  123.2287 C   0  0  0  0  0  0  0  0  0  0  0  0
  174.2844  147.2391  124.2183 C   0  0  0  0  0  0  0  0  0  0  0  0
  173.5820  146.2429  122.0166 C   0  0  0  0  0  0  0  0  0  0  0  0
  167.1783  147.8820  129.6509 N   0  0  0  0  0  0  0  0  0  0  0  0
  166.2933  149.3271  129.3375 S   0  0  0  0  0  6  0  0  0  0  0  0
  167.2926  150.3716  128.3272 C   0  0  0  0  0  0  0  0  0  0  0  0
  165.0576  148.9607  128.5761 O   0  0  0  0  0  0  0  0  0  0  0  0
  165.8720  150.0100  130.6000 O   0  0  0  0  0  0  0  0  0  0  0  0
  2  1  1  6
  2  3  1  0
  3  4  1  6
  4  5  1  0
  5  6  1  0
  6  7  1  1
  6  8  1  0
  9  8  1  1
  9 10  1  0
 10 11  1  0
 11 12  1  1
 12 13  1  0
 14 13  1  6
 14 15  1  0
 15 16  1  6
 16 17  1  0
 18 17  1  6
 18 19  1  0
 19 20  1  0
 20 21  1  0
 21 22  1  0
 22 23  1  0
 23 24  1  1
 23 25  1  0
 25 26  1  1
 26 27  1  0
 27 28  2  0
 28 29  1  0
 28 30  1  0
 20 31  1  1
 31 32  1  0
 32 33  1  0
 32 34  2  0
 32 35  2  0
 11  2  1  0
 30 11  1  0
  9  3  1  0
 27 14  1  0
 25 15  1  0
 23 18  1  0
M  END
$$$$
