
     RDKit          3D

 35 40  0  0  0  0  0  0  0  0999 V2000
  172.4300  164.5086  107.4769 C   0  0  0  0  0  0  0  0  0  0  0  0
  173.1939  165.4001  108.4360 C   0  0  2  0  0  0  0  0  0  0  0  0
  173.4200  166.7062  107.7248 C   0  0  2  0  0  0  0  0  0  0  0  0
  172.3393  167.1423  106.9034 N   0  0  0  0  0  0  0  0  0  0  0  0
  172.7176  168.3769  106.2795 C   0  0  0  0  0  0  0  0  0  0  0  0
  174.0410  168.4316  105.6536 C   0  0  1  0  0  0  0  0  0  0  0  0
  174.5907  169.8420  105.7587 C   0  0  0  0  0  0  0  0  0  0  0  0
  175.0832  167.4999  106.1826 C   0  0  0  0  0  0  0  0  0  0  0  0
  174.5073  166.2445  106.7384 C   0  0  1  0  0  0  0  0  0  0  0  0
  175.3304  165.4684  107.4803 O   0  0  0  0  0  0  0  0  0  0  0  0
  174.6529  164.9550  108.5860 C   0  0  2  0  0  0  0  0  0  0  0  0
  174.7337  163.4721  108.6158 C   0  0  0  0  0  0  0  0  0  0  0  0
  175.2045  162.8905  109.9327 C   0  0  0  0  0  0  0  0  0  0  0  0
  174.0171  162.9427  110.8702 C   0  0  1  0  0  0  0  0  0  0  0  0
  174.1173  162.0140  112.0284 C   0  0  2  0  0  0  0  0  0  0  0  0
  173.5105  160.6518  111.7885 C   0  0  0  0  0  0  0  0  0  0  0  0
  173.0463  160.1117  113.1278 C   0  0  0  0  0  0  0  0  0  0  0  0
  173.8715  160.6612  114.2694 C   0  0  2  0  0  0  0  0  0  0  0  0
  173.4457  159.9360  115.5283 C   0  0  0  0  0  0  0  0  0  0  0  0
  173.8958  160.6924  116.7727 C   0  0  1  0  0  0  0  0  0  0  0  0
  173.2423  162.0343  116.8436 C   0  0  0  0  0  0  0  0  0  0  0  0
  172.7254  162.5104  115.5071 C   0  0  0  0  0  0  0  0  0  0  0  0
  173.7014  162.1712  114.4090 C   0  0  1  0  0  0  0  0  0  0  0  0
  175.0479  162.7444  114.7083 C   0  0  0  0  0  0  0  0  0  0  0  0
  173.2302  162.6839  113.0871 C   0  0  1  0  0  0  0  0  0  0  0  0
  173.3445  164.1462  112.8843 C   0  0  0  0  0  0  0  0  0  0  0  0
  174.0295  164.2845  111.5461 C   0  0  0  0  0  0  0  0  0  0  0  0
  174.5538  165.4008  111.0540 C   0  0  0  0  0  0  0  0  0  0  0  0
  174.4000  166.5647  111.9773 C   0  0  0  0  0  0  0  0  0  0  0  0
  175.2371  165.6496  109.7875 C   0  0  0  0  0  0  0  0  0  0  0  0
  173.5471  159.8966  117.9131 N   0  0  0  0  0  0  0  0  0  0  0  0
  171.8432  159.7667  118.1358 S   0  0  0  0  0  6  0  0  0  0  0  0
  171.2676  158.4091  117.1683 C   0  0  0  0  0  0  0  0  0  0  0  0
  171.5834  159.4721  119.5803 O   0  0  0  0  0  0  0  0  0  0  0  0
  171.1352  161.0380  117.7894 O   0  0  0  0  0  0  0  0  0  0  0  0
  2  1  1  6
  2  3  1  0
  3  4  1  6
  4  5  1  0
  5  6  1  0
  6  7  1  1
  6  8  1  0
  9  8  1  1
  9 10  1  0
 10 11  1  0
 11 12  1  1
 12 13  1  0
 14 13  1  6
 14 15  1  0
 15 16  1  6
 16 17  1  0
 18 17  1  6
 18 19  1  0
 19 20  1  0
 20 21  1  0
 21 22  1  0
 22 23  1  0
 23 24  1  1
 23 25  1  0
 25 26  1  1
 26 27  1  0
 27 28  2  0
 28 29  1  0
 28 30  1  0
 20 31  1  1
 31 32  1  0
 32 33  1  0
 32 34  2  0
 32 35  2  0
 11  2  1  0
 30 11  1  0
  9  3  1  0
 27 14  1  0
 25 15  1  0
 23 18  1  0
M  END
$$$$
