
     RDKit          3D

 35 40  0  0  0  0  0  0  0  0999 V2000
  129.3608  149.0828  135.7470 C   0  0  0  0  0  0  0  0  0  0  0  0
  128.1282  148.6418  134.9825 C   0  0  2  0  0  0  0  0  0  0  0  0
  127.2920  149.8731  134.7639 C   0  0  2  0  0  0  0  0  0  0  0  0
  128.0281  151.0635  134.4921 N   0  0  0  0  0  0  0  0  0  0  0  0
  127.0970  152.1429  134.3359 C   0  0  0  0  0  0  0  0  0  0  0  0
  126.0483  152.2734  135.3504 C   0  0  1  0  0  0  0  0  0  0  0  0
  124.7970  152.8465  134.7115 C   0  0  0  0  0  0  0  0  0  0  0  0
  125.6532  151.0328  136.0844 C   0  0  0  0  0  0  0  0  0  0  0  0
  126.7659  150.0503  136.1992 C   0  0  1  0  0  0  0  0  0  0  0  0
  126.4402  148.7991  136.5976 O   0  0  0  0  0  0  0  0  0  0  0  0
  127.1608  147.8516  135.8708 C   0  0  2  0  0  0  0  0  0  0  0  0
  127.9193  146.9524  136.7775 C   0  0  0  0  0  0  0  0  0  0  0  0
  127.7107  145.4741  136.5223 C   0  0  0  0  0  0  0  0  0  0  0  0
  128.5532  145.1274  135.3134 C   0  0  1  0  0  0  0  0  0  0  0  0
  128.8606  143.6774  135.1838 C   0  0  2  0  0  0  0  0  0  0  0  0
  130.1469  143.2516  135.8513 C   0  0  0  0  0  0  0  0  0  0  0  0
  130.6811  142.0486  135.0973 C   0  0  0  0  0  0  0  0  0  0  0  0
  129.5689  141.2536  134.4516 C   0  0  2  0  0  0  0  0  0  0  0  0
  130.1838  139.9946  133.8780 C   0  0  0  0  0  0  0  0  0  0  0  0
  129.2530  139.3477  132.8591 C   0  0  1  0  0  0  0  0  0  0  0  0
  129.0327  140.2533  131.6912 C   0  0  0  0  0  0  0  0  0  0  0  0
  129.3403  141.6992  131.9992 C   0  0  0  0  0  0  0  0  0  0  0  0
  128.8497  142.0644  133.3773 C   0  0  1  0  0  0  0  0  0  0  0  0
  127.3895  141.7782  133.5074 C   0  0  0  0  0  0  0  0  0  0  0  0
  129.0978  143.5071  133.6767 C   0  0  1  0  0  0  0  0  0  0  0  0
  128.2097  144.4709  132.9878 C   0  0  0  0  0  0  0  0  0  0  0  0
  127.7183  145.3784  134.0897 C   0  0  0  0  0  0  0  0  0  0  0  0
  126.7186  146.2468  133.9923 C   0  0  0  0  0  0  0  0  0  0  0  0
  126.0923  146.2538  132.6364 C   0  0  0  0  0  0  0  0  0  0  0  0
  126.1589  147.1635  134.9819 C   0  0  0  0  0  0  0  0  0  0  0  0
  129.8571  138.1168  132.4407 N   0  0  0  0  0  0  0  0  0  0  0  0
  131.5469  138.2747  132.1417 S   0  0  0  0  0  6  0  0  0  0  0  0
  131.7865  139.6614  131.0786 C   0  0  0  0  0  0  0  0  0  0  0  0
  132.2276  138.5461  133.4470 O   0  0  0  0  0  0  0  0  0  0  0  0
  132.1326  137.0239  131.5671 O   0  0  0  0  0  0  0  0  0  0  0  0
  2  1  1  1
  2  3  1  0
  3  4  1  1
  4  5  1  0
  5  6  1  0
  6  7  1  6
  6  8  1  0
  9  8  1  6
  9 10  1  0
 10 11  1  0
 11 12  1  1
 12 13  1  0
 14 13  1  1
 14 15  1  0
 15 16  1  1
 16 17  1  0
 18 17  1  6
 18 19  1  0
 19 20  1  0
 20 21  1  0
 21 22  1  0
 22 23  1  0
 23 24  1  6
 23 25  1  0
 25 26  1  6
 26 27  1  0
 27 28  2  0
 28 29  1  0
 28 30  1  0
 20 31  1  6
 31 32  1  0
 32 33  1  0
 32 34  2  0
 32 35  2  0
 11  2  1  0
 30 11  1  0
  9  3  1  0
 27 14  1  0
 25 15  1  0
 23 18  1  0
M  END
$$$$
