
     RDKit          3D

 35 40  0  0  0  0  0  0  0  0999 V2000
  175.1963  164.6254  115.0536 C   0  0  0  0  0  0  0  0  0  0  0  0
  174.1773  163.5087  115.1673 C   0  0  2  0  0  0  0  0  0  0  0  0
  174.3337  162.9196  116.5426 C   0  0  2  0  0  0  0  0  0  0  0  0
  174.6191  163.8609  117.5747 N   0  0  0  0  0  0  0  0  0  0  0  0
  174.7644  163.1455  118.8090 C   0  0  0  0  0  0  0  0  0  0  0  0
  175.6172  161.9545  118.7950 C   0  0  1  0  0  0  0  0  0  0  0  0
  175.0904  160.9451  119.7980 C   0  0  0  0  0  0  0  0  0  0  0  0
  175.7801  161.2492  117.4873 C   0  0  0  0  0  0  0  0  0  0  0  0
  175.6550  162.1630  116.3186 C   0  0  1  0  0  0  0  0  0  0  0  0
  175.5139  161.5873  115.1026 O   0  0  0  0  0  0  0  0  0  0  0  0
  174.5800  162.2850  114.3368 C   0  0  2  0  0  0  0  0  0  0  0  0
  175.1708  162.7172  113.0444 C   0  0  0  0  0  0  0  0  0  0  0  0
  174.3582  162.3454  111.8215 C   0  0  0  0  0  0  0  0  0  0  0  0
  173.2206  163.3412  111.7471 C   0  0  1  0  0  0  0  0  0  0  0  0
  172.5974  163.4508  110.4004 C   0  0  2  0  0  0  0  0  0  0  0  0
  173.2099  164.5105  109.5152 C   0  0  0  0  0  0  0  0  0  0  0  0
  172.1327  164.9948  108.5633 C   0  0  0  0  0  0  0  0  0  0  0  0
  171.1055  163.9203  108.2870 C   0  0  2  0  0  0  0  0  0  0  0  0
  170.1832  164.4406  107.2050 C   0  0  0  0  0  0  0  0  0  0  0  0
  168.8904  163.6347  107.1555 C   0  0  1  0  0  0  0  0  0  0  0  0
  168.1280  163.7755  108.4329 C   0  0  0  0  0  0  0  0  0  0  0  0
  168.9891  164.2286  109.5875 C   0  0  0  0  0  0  0  0  0  0  0  0
  170.3325  163.5450  109.5481 C   0  0  1  0  0  0  0  0  0  0  0  0
  170.1659  162.0607  109.5421 C   0  0  0  0  0  0  0  0  0  0  0  0
  171.1772  163.9415  110.7150 C   0  0  1  0  0  0  0  0  0  0  0  0
  170.7950  163.3517  112.0181 C   0  0  0  0  0  0  0  0  0  0  0  0
  172.0868  162.7995  112.5707 C   0  0  0  0  0  0  0  0  0  0  0  0
  172.1991  161.9753  113.6057 C   0  0  0  0  0  0  0  0  0  0  0  0
  170.8781  161.6251  114.2085 C   0  0  0  0  0  0  0  0  0  0  0  0
  173.3828  161.3794  114.2195 C   0  0  0  0  0  0  0  0  0  0  0  0
  168.1199  164.1193  106.0479 N   0  0  0  0  0  0  0  0  0  0  0  0
  168.5302  165.7347  105.6101 S   0  0  0  0  0  6  0  0  0  0  0  0
  167.3697  166.8199  106.3757 C   0  0  0  0  0  0  0  0  0  0  0  0
  169.8946  166.0314  106.1498 O   0  0  0  0  0  0  0  0  0  0  0  0
  168.5708  165.9190  104.1262 O   0  0  0  0  0  0  0  0  0  0  0  0
  2  1  1  1
  2  3  1  0
  3  4  1  1
  4  5  1  0
  5  6  1  0
  6  7  1  1
  6  8  1  0
  9  8  1  1
  9 10  1  0
 10 11  1  0
 11 12  1  6
 12 13  1  0
 14 13  1  6
 14 15  1  0
 15 16  1  6
 16 17  1  0
 18 17  1  1
 18 19  1  0
 19 20  1  0
 20 21  1  0
 21 22  1  0
 22 23  1  0
 23 24  1  6
 23 25  1  0
 25 26  1  1
 26 27  1  0
 27 28  2  0
 28 29  1  0
 28 30  1  0
 20 31  1  6
 31 32  1  0
 32 33  1  0
 32 34  2  0
 32 35  2  0
 11  2  1  0
 30 11  1  0
  9  3  1  0
 27 14  1  0
 25 15  1  0
 23 18  1  0
M  END
$$$$
