
     RDKit          3D

 35 40  0  0  0  0  0  0  0  0999 V2000
  163.8529  157.9265  128.2596 C   0  0  0  0  0  0  0  0  0  0  0  0
  165.2496  157.6041  127.7660 C   0  0  2  0  0  0  0  0  0  0  0  0
  166.0332  158.8871  127.8188 C   0  0  2  0  0  0  0  0  0  0  0  0
  165.7446  159.7265  128.9346 N   0  0  0  0  0  0  0  0  0  0  0  0
  166.5462  160.9106  128.8266 C   0  0  0  0  0  0  0  0  0  0  0  0
  166.5711  161.5847  127.5262 C   0  0  1  0  0  0  0  0  0  0  0  0
  167.9243  162.2410  127.3241 C   0  0  0  0  0  0  0  0  0  0  0  0
  166.2903  160.7478  126.3201 C   0  0  0  0  0  0  0  0  0  0  0  0
  165.3931  159.5961  126.6122 C   0  0  1  0  0  0  0  0  0  0  0  0
  165.3007  158.6353  125.6644 O   0  0  0  0  0  0  0  0  0  0  0  0
  165.2773  157.3703  126.2514 C   0  0  2  0  0  0  0  0  0  0  0  0
  164.0715  156.6123  125.8299 C   0  0  0  0  0  0  0  0  0  0  0  0
  164.3523  155.2236  125.2945 C   0  0  0  0  0  0  0  0  0  0  0  0
  164.6036  154.3447  126.5010 C   0  0  1  0  0  0  0  0  0  0  0  0
  164.4324  152.8902  126.2383 C   0  0  2  0  0  0  0  0  0  0  0  0
  163.0390  152.3697  126.5011 C   0  0  0  0  0  0  0  0  0  0  0  0
  163.1581  150.9070  126.8848 C   0  0  0  0  0  0  0  0  0  0  0  0
  164.3745  150.2617  126.2602 C   0  0  2  0  0  0  0  0  0  0  0  0
  164.3071  148.7793  126.5601 C   0  0  0  0  0  0  0  0  0  0  0  0
  165.6646  148.1181  126.3525 C   0  0  1  0  0  0  0  0  0  0  0  0
  166.6761  148.6729  127.3022 C   0  0  0  0  0  0  0  0  0  0  0  0
  166.2870  150.0222  127.8570 C   0  0  0  0  0  0  0  0  0  0  0  0
  165.6684  150.8798  126.7822 C   0  0  1  0  0  0  0  0  0  0  0  0
  166.5968  151.0154  125.6200 C   0  0  0  0  0  0  0  0  0  0  0  0
  165.3273  152.2386  127.3018 C   0  0  1  0  0  0  0  0  0  0  0  0
  166.4722  153.1513  127.5215 C   0  0  0  0  0  0  0  0  0  0  0  0
  166.0671  154.4307  126.8299 C   0  0  0  0  0  0  0  0  0  0  0  0
  166.8686  155.4538  126.5584 C   0  0  0  0  0  0  0  0  0  0  0  0
  168.2710  155.2242  127.0183 C   0  0  0  0  0  0  0  0  0  0  0  0
  166.5914  156.7262  125.8972 C   0  0  0  0  0  0  0  0  0  0  0  0
  165.4958  146.7090  126.5560 N   0  0  0  0  0  0  0  0  0  0  0  0
  163.9326  146.3082  127.1603 S   0  0  0  0  0  6  0  0  0  0  0  0
  162.9000  147.7277  126.9889 C   0  0  0  0  0  0  0  0  0  0  0  0
  163.3761  145.2039  126.3167 O   0  0  0  0  0  0  0  0  0  0  0  0
  163.9866  145.8258  128.5752 O   0  0  0  0  0  0  0  0  0  0  0  0
  2  1  1  6
  2  3  1  0
  3  4  1  1
  4  5  1  0
  5  6  1  0
  6  7  1  6
  6  8  1  0
  9  8  1  6
  9 10  1  0
 10 11  1  0
 11 12  1  6
 12 13  1  0
 14 13  1  6
 14 15  1  0
 15 16  1  1
 16 17  1  0
 18 17  1  1
 18 19  1  0
 19 20  1  0
 20 21  1  0
 21 22  1  0
 22 23  1  0
 23 24  1  6
 23 25  1  0
 25 26  1  6
 26 27  1  0
 27 28  2  0
 28 29  1  0
 28 30  1  0
 20 31  1  1
 31 32  1  0
 32 33  1  0
 32 34  2  0
 32 35  2  0
 11  2  1  0
 30 11  1  0
  9  3  1  0
 27 14  1  0
 25 15  1  0
 23 18  1  0
M  END
$$$$
