
     RDKit          3D

 35 40  0  0  0  0  0  0  0  0999 V2000
  199.2031  128.3828  131.1797 C   0  0  0  0  0  0  0  0  0  0  0  0
  200.0745  128.7800  130.0044 C   0  0  2  0  0  0  0  0  0  0  0  0
  199.7766  127.8062  128.8972 C   0  0  2  0  0  0  0  0  0  0  0  0
  198.4113  127.4088  128.7926 N   0  0  0  0  0  0  0  0  0  0  0  0
  198.2976  126.4673  127.7169 C   0  0  0  0  0  0  0  0  0  0  0  0
  199.2722  125.3743  127.6792 C   0  0  1  0  0  0  0  0  0  0  0  0
  199.5427  124.9892  126.2366 C   0  0  0  0  0  0  0  0  0  0  0  0
  200.5922  125.6163  128.3372 C   0  0  0  0  0  0  0  0  0  0  0  0
  200.5051  126.5779  129.4706 C   0  0  1  0  0  0  0  0  0  0  0  0
  201.6714  127.0685  129.9493 O   0  0  0  0  0  0  0  0  0  0  0  0
  201.5466  128.4262  130.2431 C   0  0  2  0  0  0  0  0  0  0  0  0
  201.9145  128.6990  131.6560 C   0  0  0  0  0  0  0  0  0  0  0  0
  202.9277  129.8092  131.8429 C   0  0  0  0  0  0  0  0  0  0  0  0
  202.1685  131.1095  131.6867 C   0  0  1  0  0  0  0  0  0  0  0  0
  202.8525  132.2872  132.2859 C   0  0  2  0  0  0  0  0  0  0  0  0
  202.4725  132.5641  133.7213 C   0  0  0  0  0  0  0  0  0  0  0  0
  202.6313  134.0536  133.9609 C   0  0  0  0  0  0  0  0  0  0  0  0
  203.6893  134.6551  133.0638 C   0  0  2  0  0  0  0  0  0  0  0  0
  203.8899  136.0917  133.4975 C   0  0  0  0  0  0  0  0  0  0  0  0
  204.6025  136.8942  132.4152 C   0  0  1  0  0  0  0  0  0  0  0  0
  203.7741  136.9632  131.1734 C   0  0  0  0  0  0  0  0  0  0  0  0
  202.7320  135.8731  131.0978 C   0  0  0  0  0  0  0  0  0  0  0  0
  203.2953  134.5648  131.5923 C   0  0  1  0  0  0  0  0  0  0  0  0
  204.5235  134.1989  130.8249 C   0  0  0  0  0  0  0  0  0  0  0  0
  202.2931  133.4631  131.4731 C   0  0  1  0  0  0  0  0  0  0  0  0
  202.0454  132.9619  130.1021 C   0  0  0  0  0  0  0  0  0  0  0  0
  202.1656  131.4621  130.2262 C   0  0  0  0  0  0  0  0  0  0  0  0
  202.2550  130.6043  129.2166 C   0  0  0  0  0  0  0  0  0  0  0  0
  202.2227  131.2782  127.8841 C   0  0  0  0  0  0  0  0  0  0  0  0
  202.3781  129.1490  129.2167 C   0  0  0  0  0  0  0  0  0  0  0  0
  204.8445  138.2071  132.9379 N   0  0  0  0  0  0  0  0  0  0  0  0
  204.2026  139.4506  131.9324 S   0  0  0  0  0  6  0  0  0  0  0  0
  202.7836  138.8073  131.1060 C   0  0  0  0  0  0  0  0  0  0  0  0
  203.7748  140.5852  132.8102 O   0  0  0  0  0  0  0  0  0  0  0  0
  205.2208  139.9716  130.9682 O   0  0  0  0  0  0  0  0  0  0  0  0
  2  1  1  1
  2  3  1  0
  3  4  1  1
  4  5  1  0
  5  6  1  0
  6  7  1  6
  6  8  1  0
  9  8  1  6
  9 10  1  0
 10 11  1  0
 11 12  1  1
 12 13  1  0
 14 13  1  6
 14 15  1  0
 15 16  1  1
 16 17  1  0
 18 17  1  1
 18 19  1  0
 19 20  1  0
 20 21  1  0
 21 22  1  0
 22 23  1  0
 23 24  1  6
 23 25  1  0
 25 26  1  6
 26 27  1  0
 27 28  2  0
 28 29  1  0
 28 30  1  0
 20 31  1  1
 31 32  1  0
 32 33  1  0
 32 34  2  0
 32 35  2  0
 11  2  1  0
 30 11  1  0
  9  3  1  0
 27 14  1  0
 25 15  1  0
 23 18  1  0
M  END
$$$$
