
     RDKit          3D

 35 40  0  0  0  0  0  0  0  0999 V2000
  150.9161  161.4135  123.2285 C   0  0  0  0  0  0  0  0  0  0  0  0
  149.5828  161.1082  123.8823 C   0  0  2  0  0  0  0  0  0  0  0  0
  149.0583  159.8581  123.2305 C   0  0  2  0  0  0  0  0  0  0  0  0
  150.0467  158.8797  122.9161 N   0  0  0  0  0  0  0  0  0  0  0  0
  149.3963  157.7702  122.2817 C   0  0  0  0  0  0  0  0  0  0  0  0
  148.4530  158.0758  121.2033 C   0  0  1  0  0  0  0  0  0  0  0  0
  147.3502  157.0335  121.1875 C   0  0  0  0  0  0  0  0  0  0  0  0
  147.8026  159.4213  121.2287 C   0  0  0  0  0  0  0  0  0  0  0  0
  148.6507  160.4607  121.8744 C   0  0  1  0  0  0  0  0  0  0  0  0
  148.0511  161.6315  122.1904 O   0  0  0  0  0  0  0  0  0  0  0  0
  148.4921  162.0868  123.4329 C   0  0  2  0  0  0  0  0  0  0  0  0
  149.0497  163.4594  123.3273 C   0  0  0  0  0  0  0  0  0  0  0  0
  148.4818  164.4511  124.3212 C   0  0  0  0  0  0  0  0  0  0  0  0
  149.1651  164.1692  125.6422 C   0  0  1  0  0  0  0  0  0  0  0  0
  149.1097  165.3002  126.6075 C   0  0  2  0  0  0  0  0  0  0  0  0
  150.2829  166.2478  126.5241 C   0  0  0  0  0  0  0  0  0  0  0  0
  150.4807  166.8584  127.8986 C   0  0  0  0  0  0  0  0  0  0  0  0
  149.1841  166.9245  128.6735 C   0  0  2  0  0  0  0  0  0  0  0  0
  149.4542  167.6983  129.9464 C   0  0  0  0  0  0  0  0  0  0  0  0
  148.3534  167.4609  130.9736 C   0  0  1  0  0  0  0  0  0  0  0  0
  148.3084  166.0240  131.3809 C   0  0  0  0  0  0  0  0  0  0  0  0
  148.9668  165.1057  130.3793 C   0  0  0  0  0  0  0  0  0  0  0  0
  148.6363  165.5317  128.9712 C   0  0  1  0  0  0  0  0  0  0  0  0
  147.1568  165.5840  128.7724 C   0  0  0  0  0  0  0  0  0  0  0  0
  149.2358  164.6007  127.9680 C   0  0  1  0  0  0  0  0  0  0  0  0
  148.5771  163.2810  127.8383 C   0  0  0  0  0  0  0  0  0  0  0  0
  148.3644  163.1150  126.3529 C   0  0  0  0  0  0  0  0  0  0  0  0
  147.5993  162.1957  125.7761 C   0  0  0  0  0  0  0  0  0  0  0  0
  146.9368  161.2947  126.7660 C   0  0  0  0  0  0  0  0  0  0  0  0
  147.3180  161.9455  124.3650 C   0  0  0  0  0  0  0  0  0  0  0  0
  148.6264  168.3008  132.1030 N   0  0  0  0  0  0  0  0  0  0  0  0
  150.2271  168.9386  132.0844 S   0  0  0  0  0  6  0  0  0  0  0  0
  150.9955  168.5314  133.6188 C   0  0  0  0  0  0  0  0  0  0  0  0
  150.9815  168.2717  130.9768 O   0  0  0  0  0  0  0  0  0  0  0  0
  150.2390  170.4125  131.8288 O   0  0  0  0  0  0  0  0  0  0  0  0
  2  1  1  6
  2  3  1  0
  3  4  1  6
  4  5  1  0
  5  6  1  0
  6  7  1  1
  6  8  1  0
  9  8  1  1
  9 10  1  0
 10 11  1  0
 11 12  1  6
 12 13  1  0
 14 13  1  6
 14 15  1  0
 15 16  1  6
 16 17  1  0
 18 17  1  1
 18 19  1  0
 19 20  1  0
 20 21  1  0
 21 22  1  0
 22 23  1  0
 23 24  1  1
 23 25  1  0
 25 26  1  6
 26 27  1  0
 27 28  2  0
 28 29  1  0
 28 30  1  0
 20 31  1  1
 31 32  1  0
 32 33  1  0
 32 34  2  0
 32 35  2  0
 11  2  1  0
 30 11  1  0
  9  3  1  0
 27 14  1  0
 25 15  1  0
 23 18  1  0
M  END
$$$$
