
     RDKit          3D

 35 40  0  0  0  0  0  0  0  0999 V2000
  208.6511  134.7466  138.3548 C   0  0  0  0  0  0  0  0  0  0  0  0
  208.7643  134.9019  136.8510 C   0  0  2  0  0  0  0  0  0  0  0  0
  209.9496  135.7925  136.5967 C   0  0  2  0  0  0  0  0  0  0  0  0
  211.0558  135.5919  137.4736 N   0  0  0  0  0  0  0  0  0  0  0  0
  212.0849  136.5265  137.1214 C   0  0  0  0  0  0  0  0  0  0  0  0
  211.6833  137.9222  136.9298 C   0  0  1  0  0  0  0  0  0  0  0  0
  212.5724  138.5633  135.8804 C   0  0  0  0  0  0  0  0  0  0  0  0
  210.2640  138.1740  136.5344 C   0  0  0  0  0  0  0  0  0  0  0  0
  209.3300  137.1300  137.0386 C   0  0  1  0  0  0  0  0  0  0  0  0
  208.0839  137.1165  136.5121 O   0  0  0  0  0  0  0  0  0  0  0  0
  207.6619  135.8061  136.2883 C   0  0  2  0  0  0  0  0  0  0  0  0
  206.3769  135.5368  136.9828 C   0  0  0  0  0  0  0  0  0  0  0  0
  205.2968  134.9387  136.1055 C   0  0  0  0  0  0  0  0  0  0  0  0
  205.6355  133.4711  135.9538 C   0  0  1  0  0  0  0  0  0  0  0  0
  204.4852  132.6226  135.5405 C   0  0  2  0  0  0  0  0  0  0  0  0
  203.7013  132.0338  136.6895 C   0  0  0  0  0  0  0  0  0  0  0  0
  203.0906  130.7305  136.2108 C   0  0  0  0  0  0  0  0  0  0  0  0
  202.8377  130.7450  134.7202 C   0  0  2  0  0  0  0  0  0  0  0  0
  202.0770  129.4822  134.3757 C   0  0  0  0  0  0  0  0  0  0  0  0
  202.1447  129.1947  132.8804 C   0  0  1  0  0  0  0  0  0  0  0  0
  203.5538  128.9424  132.4518 C   0  0  0  0  0  0  0  0  0  0  0  0
  204.5730  129.4963  133.4184 C   0  0  0  0  0  0  0  0  0  0  0  0
  204.1397  130.8465  133.9308 C   0  0  1  0  0  0  0  0  0  0  0  0
  203.8988  131.7862  132.7950 C   0  0  0  0  0  0  0  0  0  0  0  0
  205.1639  131.4331  134.8471 C   0  0  1  0  0  0  0  0  0  0  0  0
  206.3886  131.9529  134.1974 C   0  0  0  0  0  0  0  0  0  0  0  0
  206.5593  133.3365  134.7766 C   0  0  0  0  0  0  0  0  0  0  0  0
  207.3835  134.2727  134.3210 C   0  0  0  0  0  0  0  0  0  0  0  0
  208.1673  133.8207  133.1326 C   0  0  0  0  0  0  0  0  0  0  0  0
  207.6270  135.6331  134.7930 C   0  0  0  0  0  0  0  0  0  0  0  0
  201.3222  128.0494  132.6218 N   0  0  0  0  0  0  0  0  0  0  0  0
  201.3845  126.8869  133.8924 S   0  0  0  0  0  6  0  0  0  0  0  0
  199.8522  126.9469  134.7635 C   0  0  0  0  0  0  0  0  0  0  0  0
  201.5347  125.5309  133.2763 O   0  0  0  0  0  0  0  0  0  0  0  0
  202.5514  127.1130  134.8007 O   0  0  0  0  0  0  0  0  0  0  0  0
  2  1  1  1
  2  3  1  0
  3  4  1  1
  4  5  1  0
  5  6  1  0
  6  7  1  6
  6  8  1  0
  9  8  1  6
  9 10  1  0
 10 11  1  0
 11 12  1  1
 12 13  1  0
 14 13  1  6
 14 15  1  0
 15 16  1  1
 16 17  1  0
 18 17  1  1
 18 19  1  0
 19 20  1  0
 20 21  1  0
 21 22  1  0
 22 23  1  0
 23 24  1  6
 23 25  1  0
 25 26  1  6
 26 27  1  0
 27 28  2  0
 28 29  1  0
 28 30  1  0
 20 31  1  1
 31 32  1  0
 32 33  1  0
 32 34  2  0
 32 35  2  0
 11  2  1  0
 30 11  1  0
  9  3  1  0
 27 14  1  0
 25 15  1  0
 23 18  1  0
M  END
$$$$
