
     RDKit          3D

 35 40  0  0  0  0  0  0  0  0999 V2000
  201.5177  139.9213  133.7199 C   0  0  0  0  0  0  0  0  0  0  0  0
  202.1815  139.4940  132.4257 C   0  0  2  0  0  0  0  0  0  0  0  0
  202.3020  140.7282  131.5741 C   0  0  2  0  0  0  0  0  0  0  0  0
  202.6120  141.9250  132.2843 N   0  0  0  0  0  0  0  0  0  0  0  0
  202.6652  143.0060  131.3434 C   0  0  0  0  0  0  0  0  0  0  0  0
  201.5614  143.1143  130.3865 C   0  0  1  0  0  0  0  0  0  0  0  0
  202.0779  143.6984  129.0847 C   0  0  0  0  0  0  0  0  0  0  0  0
  200.8213  141.8585  130.0560 C   0  0  0  0  0  0  0  0  0  0  0  0
  200.8232  140.8755  131.1742 C   0  0  1  0  0  0  0  0  0  0  0  0
  200.4236  139.6161  130.8839 O   0  0  0  0  0  0  0  0  0  0  0  0
  201.2291  138.6845  131.5386 C   0  0  2  0  0  0  0  0  0  0  0  0
  200.4099  137.7682  132.3725 C   0  0  0  0  0  0  0  0  0  0  0  0
  200.6760  136.2951  132.1421 C   0  0  0  0  0  0  0  0  0  0  0  0
  201.9601  135.9742  132.8767 C   0  0  1  0  0  0  0  0  0  0  0  0
  202.1452  134.5276  133.1714 C   0  0  2  0  0  0  0  0  0  0  0  0
  201.6003  134.0903  134.5105 C   0  0  0  0  0  0  0  0  0  0  0  0
  202.4220  132.9036  134.9772 C   0  0  0  0  0  0  0  0  0  0  0  0
  202.9851  132.1202  133.8130 C   0  0  2  0  0  0  0  0  0  0  0  0
  203.6352  130.8740  134.3757 C   0  0  0  0  0  0  0  0  0  0  0  0
  204.5826  130.2465  133.3600 C   0  0  1  0  0  0  0  0  0  0  0  0
  205.7085  131.1753  133.0398 C   0  0  0  0  0  0  0  0  0  0  0  0
  205.3990  132.6151  133.3733 C   0  0  0  0  0  0  0  0  0  0  0  0
  203.9764  132.9516  133.0038 C   0  0  1  0  0  0  0  0  0  0  0  0
  203.7264  132.6606  131.5603 C   0  0  0  0  0  0  0  0  0  0  0  0
  203.6703  134.3882  133.2774 C   0  0  1  0  0  0  0  0  0  0  0  0
  204.2602  135.3645  132.3332 C   0  0  0  0  0  0  0  0  0  0  0  0
  203.1016  136.2487  131.9392 C   0  0  0  0  0  0  0  0  0  0  0  0
  203.0945  137.1175  130.9351 C   0  0  0  0  0  0  0  0  0  0  0  0
  204.3908  137.1510  130.1938 C   0  0  0  0  0  0  0  0  0  0  0  0
  202.0418  138.0131  130.4633 C   0  0  0  0  0  0  0  0  0  0  0  0
  205.0767  129.0252  133.9253 N   0  0  0  0  0  0  0  0  0  0  0  0
  205.0261  129.0229  135.6478 S   0  0  0  0  0  6  0  0  0  0  0  0
  203.7822  130.1638  136.1595 C   0  0  0  0  0  0  0  0  0  0  0  0
  204.6356  127.6506  136.1006 O   0  0  0  0  0  0  0  0  0  0  0  0
  206.3584  129.3449  136.2470 O   0  0  0  0  0  0  0  0  0  0  0  0
  2  1  1  1
  2  3  1  0
  3  4  1  1
  4  5  1  0
  5  6  1  0
  6  7  1  6
  6  8  1  0
  9  8  1  6
  9 10  1  0
 10 11  1  0
 11 12  1  1
 12 13  1  0
 14 13  1  6
 14 15  1  0
 15 16  1  1
 16 17  1  0
 18 17  1  1
 18 19  1  0
 19 20  1  0
 20 21  1  0
 21 22  1  0
 22 23  1  0
 23 24  1  6
 23 25  1  0
 25 26  1  6
 26 27  1  0
 27 28  2  0
 28 29  1  0
 28 30  1  0
 20 31  1  1
 31 32  1  0
 32 33  1  0
 32 34  2  0
 32 35  2  0
 11  2  1  0
 30 11  1  0
  9  3  1  0
 27 14  1  0
 25 15  1  0
 23 18  1  0
M  END
$$$$
