
     RDKit          3D

 35 40  0  0  0  0  0  0  0  0999 V2000
  129.1897  148.7736  135.6299 C   0  0  0  0  0  0  0  0  0  0  0  0
  128.2697  148.3575  134.4990 C   0  0  2  0  0  0  0  0  0  0  0  0
  127.5045  149.5864  134.0903 C   0  0  2  0  0  0  0  0  0  0  0  0
  128.2508  150.8009  134.1192 N   0  0  0  0  0  0  0  0  0  0  0  0
  127.3808  151.8734  133.7327 C   0  0  0  0  0  0  0  0  0  0  0  0
  126.0655  151.9317  134.3750 C   0  0  1  0  0  0  0  0  0  0  0  0
  125.0569  152.5208  133.4064 C   0  0  0  0  0  0  0  0  0  0  0  0
  125.5012  150.6465  134.8887 C   0  0  0  0  0  0  0  0  0  0  0  0
  126.5536  149.6758  135.2970 C   0  0  1  0  0  0  0  0  0  0  0  0
  126.1598  148.3998  135.5134 O   0  0  0  0  0  0  0  0  0  0  0  0
  127.0998  147.5049  135.0025 C   0  0  2  0  0  0  0  0  0  0  0  0
  127.5672  146.5680  136.0561 C   0  0  0  0  0  0  0  0  0  0  0  0
  127.4946  145.1033  135.6777 C   0  0  0  0  0  0  0  0  0  0  0  0
  128.6812  144.8368  134.7763 C   0  0  1  0  0  0  0  0  0  0  0  0
  129.0591  143.4009  134.6792 C   0  0  2  0  0  0  0  0  0  0  0  0
  130.0874  142.9579  135.6930 C   0  0  0  0  0  0  0  0  0  0  0  0
  130.8667  141.8067  135.0860 C   0  0  0  0  0  0  0  0  0  0  0  0
  130.0354  141.0324  134.0884 C   0  0  2  0  0  0  0  0  0  0  0  0
  130.8372  139.8165  133.6750 C   0  0  0  0  0  0  0  0  0  0  0  0
  130.2893  139.2133  132.3869 C   0  0  1  0  0  0  0  0  0  0  0  0
  130.4142  140.1791  131.2536 C   0  0  0  0  0  0  0  0  0  0  0  0
  130.5654  141.6100  131.7113 C   0  0  0  0  0  0  0  0  0  0  0  0
  129.6601  141.8908  132.8839 C   0  0  1  0  0  0  0  0  0  0  0  0
  128.2414  141.5761  132.5385 C   0  0  0  0  0  0  0  0  0  0  0  0
  129.7576  143.3182  133.3148 C   0  0  1  0  0  0  0  0  0  0  0  0
  129.0974  144.3055  132.4307 C   0  0  0  0  0  0  0  0  0  0  0  0
  128.2599  145.1429  133.3669 C   0  0  0  0  0  0  0  0  0  0  0  0
  127.3131  146.0005  133.0048 C   0  0  0  0  0  0  0  0  0  0  0  0
  127.1386  146.0735  131.5232 C   0  0  0  0  0  0  0  0  0  0  0  0
  126.4454  146.8524  133.8137 C   0  0  0  0  0  0  0  0  0  0  0  0
  131.0319  138.0167  132.1188 N   0  0  0  0  0  0  0  0  0  0  0  0
  132.6911  138.3285  131.7733 S   0  0  0  0  0  6  0  0  0  0  0  0
  132.7652  139.4328  130.4002 C   0  0  0  0  0  0  0  0  0  0  0  0
  133.2966  139.0018  132.9652 O   0  0  0  0  0  0  0  0  0  0  0  0
  133.4555  137.0684  131.5171 O   0  0  0  0  0  0  0  0  0  0  0  0
  2  1  1  1
  2  3  1  0
  3  4  1  1
  4  5  1  0
  5  6  1  0
  6  7  1  6
  6  8  1  0
  9  8  1  6
  9 10  1  0
 10 11  1  0
 11 12  1  1
 12 13  1  0
 14 13  1  1
 14 15  1  0
 15 16  1  1
 16 17  1  0
 18 17  1  1
 18 19  1  0
 19 20  1  0
 20 21  1  0
 21 22  1  0
 22 23  1  0
 23 24  1  6
 23 25  1  0
 25 26  1  6
 26 27  1  0
 27 28  2  0
 28 29  1  0
 28 30  1  0
 20 31  1  6
 31 32  1  0
 32 33  1  0
 32 34  2  0
 32 35  2  0
 11  2  1  0
 30 11  1  0
  9  3  1  0
 27 14  1  0
 25 15  1  0
 23 18  1  0
M  END
$$$$
