
     RDKit          3D

 35 40  0  0  0  0  0  0  0  0999 V2000
  169.2413  158.6866  126.5386 C   0  0  0  0  0  0  0  0  0  0  0  0
  169.0612  157.9126  125.2475 C   0  0  2  0  0  0  0  0  0  0  0  0
  169.9417  158.5726  124.2218 C   0  0  2  0  0  0  0  0  0  0  0  0
  171.1946  159.0433  124.7134 N   0  0  0  0  0  0  0  0  0  0  0  0
  171.8987  159.6648  123.6298 C   0  0  0  0  0  0  0  0  0  0  0  0
  171.1513  160.6186  122.8065 C   0  0  1  0  0  0  0  0  0  0  0  0
  171.6745  160.5743  121.3828 C   0  0  0  0  0  0  0  0  0  0  0  0
  169.6673  160.4505  122.7479 C   0  0  0  0  0  0  0  0  0  0  0  0
  169.1054  159.8426  123.9854 C   0  0  1  0  0  0  0  0  0  0  0  0
  167.8281  159.4010  123.9260 O   0  0  0  0  0  0  0  0  0  0  0  0
  167.6977  158.1894  124.6044 C   0  0  2  0  0  0  0  0  0  0  0  0
  166.6480  158.2782  125.6515 C   0  0  0  0  0  0  0  0  0  0  0  0
  165.6096  157.1768  125.6013 C   0  0  0  0  0  0  0  0  0  0  0  0
  166.2563  155.9533  126.2146 C   0  0  1  0  0  0  0  0  0  0  0  0
  165.2877  154.9271  126.6864 C   0  0  2  0  0  0  0  0  0  0  0  0
  164.8695  155.0825  128.1295 C   0  0  0  0  0  0  0  0  0  0  0  0
  164.5141  153.7055  128.6572 C   0  0  0  0  0  0  0  0  0  0  0  0
  164.0193  152.7947  127.5564 C   0  0  2  0  0  0  0  0  0  0  0  0
  163.5332  151.5172  128.2074 C   0  0  0  0  0  0  0  0  0  0  0  0
  163.4161  150.3935  127.1843 C   0  0  1  0  0  0  0  0  0  0  0  0
  164.7526  150.0631  126.6035 C   0  0  0  0  0  0  0  0  0  0  0  0
  165.7583  151.1777  126.7649 C   0  0  0  0  0  0  0  0  0  0  0  0
  165.1091  152.5173  126.5249 C   0  0  1  0  0  0  0  0  0  0  0  0
  164.4657  152.5546  125.1774 C   0  0  0  0  0  0  0  0  0  0  0  0
  166.1034  153.6280  126.6273 C   0  0  1  0  0  0  0  0  0  0  0  0
  167.0434  153.7591  125.4909 C   0  0  0  0  0  0  0  0  0  0  0  0
  166.9754  155.2204  125.1177 C   0  0  0  0  0  0  0  0  0  0  0  0
  167.4659  155.7622  124.0090 C   0  0  0  0  0  0  0  0  0  0  0  0
  168.1243  154.7583  123.1204 C   0  0  0  0  0  0  0  0  0  0  0  0
  167.4552  157.1469  123.5452 C   0  0  0  0  0  0  0  0  0  0  0  0
  162.8574  149.2552  127.8532 N   0  0  0  0  0  0  0  0  0  0  0  0
  164.0541  148.1071  128.3215 S   0  0  0  0  0  6  0  0  0  0  0  0
  163.3053  146.5102  128.3308 C   0  0  0  0  0  0  0  0  0  0  0  0
  165.1419  148.1222  127.2933 O   0  0  0  0  0  0  0  0  0  0  0  0
  164.6651  148.4440  129.6447 O   0  0  0  0  0  0  0  0  0  0  0  0
  2  1  1  1
  2  3  1  0
  3  4  1  1
  4  5  1  0
  5  6  1  0
  6  7  1  6
  6  8  1  0
  9  8  1  6
  9 10  1  0
 10 11  1  0
 11 12  1  1
 12 13  1  0
 14 13  1  6
 14 15  1  0
 15 16  1  1
 16 17  1  0
 18 17  1  1
 18 19  1  0
 19 20  1  0
 20 21  1  0
 21 22  1  0
 22 23  1  0
 23 24  1  6
 23 25  1  0
 25 26  1  6
 26 27  1  0
 27 28  2  0
 28 29  1  0
 28 30  1  0
 20 31  1  1
 31 32  1  0
 32 33  1  0
 32 34  2  0
 32 35  2  0
 11  2  1  0
 30 11  1  0
  9  3  1  0
 27 14  1  0
 25 15  1  0
 23 18  1  0
M  END
$$$$
