
     RDKit          3D

 35 40  0  0  0  0  0  0  0  0999 V2000
  189.2618  163.7133  134.0147 C   0  0  0  0  0  0  0  0  0  0  0  0
  189.9659  163.0986  135.2084 C   0  0  2  0  0  0  0  0  0  0  0  0
  191.4000  162.8912  134.8043 C   0  0  2  0  0  0  0  0  0  0  0  0
  191.9509  163.9173  133.9817 N   0  0  0  0  0  0  0  0  0  0  0  0
  193.3033  163.5620  133.6638 C   0  0  0  0  0  0  0  0  0  0  0  0
  193.5439  162.1928  133.2018 C   0  0  1  0  0  0  0  0  0  0  0  0
  194.9238  161.7453  133.6471 C   0  0  0  0  0  0  0  0  0  0  0  0
  192.5681  161.1468  133.6350 C   0  0  0  0  0  0  0  0  0  0  0  0
  191.2009  161.6908  133.8621 C   0  0  1  0  0  0  0  0  0  0  0  0
  190.3234  160.8920  134.5117 O   0  0  0  0  0  0  0  0  0  0  0  0
  189.5623  161.6344  135.4144 C   0  0  2  0  0  0  0  0  0  0  0  0
  188.1107  161.4631  135.1507 C   0  0  0  0  0  0  0  0  0  0  0  0
  187.2883  161.0796  136.3634 C   0  0  0  0  0  0  0  0  0  0  0  0
  187.0931  162.3490  137.1646 C   0  0  1  0  0  0  0  0  0  0  0  0
  185.9487  162.2972  138.1142 C   0  0  2  0  0  0  0  0  0  0  0  0
  184.6416  162.7920  137.5414 C   0  0  0  0  0  0  0  0  0  0  0  0
  183.8150  163.3423  138.6881 C   0  0  0  0  0  0  0  0  0  0  0  0
  184.1496  162.6620  139.9963 C   0  0  2  0  0  0  0  0  0  0  0  0
  183.1605  163.1550  141.0311 C   0  0  0  0  0  0  0  0  0  0  0  0
  183.6597  162.8700  142.4427 C   0  0  1  0  0  0  0  0  0  0  0  0
  184.9281  163.6108  142.7168 C   0  0  0  0  0  0  0  0  0  0  0  0
  185.6496  164.0316  141.4589 C   0  0  0  0  0  0  0  0  0  0  0  0
  185.5887  162.9393  140.4213 C   0  0  1  0  0  0  0  0  0  0  0  0
  186.1442  161.6650  140.9678 C   0  0  0  0  0  0  0  0  0  0  0  0
  186.3448  163.3185  139.1896 C   0  0  1  0  0  0  0  0  0  0  0  0
  187.8207  163.2787  139.3008 C   0  0  0  0  0  0  0  0  0  0  0  0
  188.2640  162.4837  138.0964 C   0  0  0  0  0  0  0  0  0  0  0  0
  189.4797  161.9880  137.8979 C   0  0  0  0  0  0  0  0  0  0  0  0
  190.4181  162.2994  139.0174 C   0  0  0  0  0  0  0  0  0  0  0  0
  190.0159  161.2082  136.7855 C   0  0  0  0  0  0  0  0  0  0  0  0
  182.6297  163.2710  143.3557 N   0  0  0  0  0  0  0  0  0  0  0  0
  183.0005  164.7442  144.1692 S   0  0  0  0  0  6  0  0  0  0  0  0
  184.5779  164.5625  144.9369 C   0  0  0  0  0  0  0  0  0  0  0  0
  183.0864  165.8329  143.1454 O   0  0  0  0  0  0  0  0  0  0  0  0
  181.9406  165.1207  145.1554 O   0  0  0  0  0  0  0  0  0  0  0  0
  2  1  1  6
  2  3  1  0
  3  4  1  6
  4  5  1  0
  5  6  1  0
  6  7  1  1
  6  8  1  0
  9  8  1  1
  9 10  1  0
 10 11  1  0
 11 12  1  1
 12 13  1  0
 14 13  1  1
 14 15  1  0
 15 16  1  6
 16 17  1  0
 18 17  1  6
 18 19  1  0
 19 20  1  0
 20 21  1  0
 21 22  1  0
 22 23  1  0
 23 24  1  1
 23 25  1  0
 25 26  1  1
 26 27  1  0
 27 28  2  0
 28 29  1  0
 28 30  1  0
 20 31  1  1
 31 32  1  0
 32 33  1  0
 32 34  2  0
 32 35  2  0
 11  2  1  0
 30 11  1  0
  9  3  1  0
 27 14  1  0
 25 15  1  0
 23 18  1  0
M  END
$$$$
