
     RDKit          3D

 35 40  0  0  0  0  0  0  0  0999 V2000
  129.0570  147.9541  135.8907 C   0  0  0  0  0  0  0  0  0  0  0  0
  128.3470  147.7185  134.5721 C   0  0  2  0  0  0  0  0  0  0  0  0
  127.7591  149.0392  134.1562 C   0  0  2  0  0  0  0  0  0  0  0  0
  128.5655  150.1785  134.4471 N   0  0  0  0  0  0  0  0  0  0  0  0
  127.8603  151.3509  134.0175 C   0  0  0  0  0  0  0  0  0  0  0  0
  126.4526  151.4646  134.4068 C   0  0  1  0  0  0  0  0  0  0  0  0
  125.6918  152.2201  133.3330 C   0  0  0  0  0  0  0  0  0  0  0  0
  125.7150  150.1922  134.6726 C   0  0  0  0  0  0  0  0  0  0  0  0
  126.6013  149.1032  135.1679 C   0  0  1  0  0  0  0  0  0  0  0  0
  126.0886  147.8514  135.1758 O   0  0  0  0  0  0  0  0  0  0  0  0
  127.0474  146.9279  134.7597 C   0  0  2  0  0  0  0  0  0  0  0  0
  127.2388  145.8659  135.7804 C   0  0  0  0  0  0  0  0  0  0  0  0
  127.1426  144.4515  135.2474 C   0  0  0  0  0  0  0  0  0  0  0  0
  128.4603  144.1649  134.5597 C   0  0  1  0  0  0  0  0  0  0  0  0
  128.7528  142.7160  134.3883 C   0  0  2  0  0  0  0  0  0  0  0  0
  129.5340  142.0999  135.5248 C   0  0  0  0  0  0  0  0  0  0  0  0
  130.3369  140.9441  134.9587 C   0  0  0  0  0  0  0  0  0  0  0  0
  129.6639  140.3338  133.7502 C   0  0  2  0  0  0  0  0  0  0  0  0
  130.4471  139.0949  133.3709 C   0  0  0  0  0  0  0  0  0  0  0  0
  130.1191  138.6559  131.9486 C   0  0  1  0  0  0  0  0  0  0  0  0
  130.5249  139.7030  130.9629 C   0  0  0  0  0  0  0  0  0  0  0  0
  130.6804  141.0702  131.5846 C   0  0  0  0  0  0  0  0  0  0  0  0
  129.5866  141.3233  132.5910 C   0  0  1  0  0  0  0  0  0  0  0  0
  128.2434  141.1622  131.9578 C   0  0  0  0  0  0  0  0  0  0  0  0
  129.6945  142.6939  133.1762 C   0  0  1  0  0  0  0  0  0  0  0  0
  129.2850  143.8075  132.2904 C   0  0  0  0  0  0  0  0  0  0  0  0
  128.3406  144.6280  133.1354 C   0  0  0  0  0  0  0  0  0  0  0  0
  127.5411  145.5916  132.6933 C   0  0  0  0  0  0  0  0  0  0  0  0
  127.6613  145.8086  131.2204 C   0  0  0  0  0  0  0  0  0  0  0  0
  126.5926  146.4402  133.4097 C   0  0  0  0  0  0  0  0  0  0  0  0
  130.8176  137.4284  131.7022 N   0  0  0  0  0  0  0  0  0  0  0  0
  132.5170  137.6551  131.5279 S   0  0  0  0  0  6  0  0  0  0  0  0
  132.7990  139.3302  131.0534 C   0  0  0  0  0  0  0  0  0  0  0  0
  133.1576  137.4182  132.8599 O   0  0  0  0  0  0  0  0  0  0  0  0
  133.1126  136.6912  130.5513 O   0  0  0  0  0  0  0  0  0  0  0  0
  2  1  1  1
  2  3  1  0
  3  4  1  1
  4  5  1  0
  5  6  1  0
  6  7  1  6
  6  8  1  0
  9  8  1  6
  9 10  1  0
 10 11  1  0
 11 12  1  1
 12 13  1  0
 14 13  1  1
 14 15  1  0
 15 16  1  1
 16 17  1  0
 18 17  1  1
 18 19  1  0
 19 20  1  0
 20 21  1  0
 21 22  1  0
 22 23  1  0
 23 24  1  6
 23 25  1  0
 25 26  1  6
 26 27  1  0
 27 28  2  0
 28 29  1  0
 28 30  1  0
 20 31  1  6
 31 32  1  0
 32 33  1  0
 32 34  2  0
 32 35  2  0
 11  2  1  0
 30 11  1  0
  9  3  1  0
 27 14  1  0
 25 15  1  0
 23 18  1  0
M  END
$$$$
