
     RDKit          3D

 38 43  0  0  0  0  0  0  0  0999 V2000
  206.2487  135.7501  133.9057 C   0  0  1  0  0  0  0  0  0  0  0  0
  206.5891  135.5566  135.3442 C   0  0  0  0  0  0  0  0  0  0  0  0
  206.0664  134.1380  135.6232 C   0  0  0  0  0  0  0  0  0  0  0  0
  204.7511  134.1919  134.9072 C   0  0  2  0  0  0  0  0  0  0  0  0
  203.9166  135.0251  135.6868 O   0  0  0  0  0  0  0  0  0  0  0  0
  204.0492  132.8699  134.7924 C   0  0  2  0  0  0  0  0  0  0  0  0
  203.7662  132.3095  136.1601 C   0  0  0  0  0  0  0  0  0  0  0  0
  203.2571  130.9093  136.1529 C   0  0  0  0  0  0  0  0  0  0  0  0
  203.9280  130.0672  135.1183 C   0  0  0  0  0  0  0  0  0  0  0  0
  204.3123  128.8506  135.4890 C   0  0  0  0  0  0  0  0  0  0  0  0
  204.9917  127.9084  134.5576 C   0  0  2  0  0  0  0  0  0  0  0  0
  204.7489  128.2978  133.1192 C   0  0  0  0  0  0  0  0  0  0  0  0
  205.1043  129.7410  132.9563 C   0  0  0  0  0  0  0  0  0  0  0  0
  204.1342  130.6064  133.7501 C   0  0  1  0  0  0  0  0  0  0  0  0
  202.8460  130.6409  132.9587 C   0  0  0  0  0  0  0  0  0  0  0  0
  204.7728  131.9602  133.8686 C   0  0  1  0  0  0  0  0  0  0  0  0
  204.7883  132.6166  132.4987 C   0  0  0  0  0  0  0  0  0  0  0  0
  205.3996  133.9617  132.4853 C   0  0  0  0  0  0  0  0  0  0  0  0
  205.0224  134.8679  133.6233 C   0  0  2  0  0  0  0  0  0  0  0  0
  203.8191  135.7335  133.2718 C   0  0  0  0  0  0  0  0  0  0  0  0
  204.5289  126.6381  134.8201 O   0  0  0  0  0  0  0  0  0  0  0  0
  204.9128  125.6894  133.8835 C   0  0  2  0  0  0  0  0  0  0  0  0
  204.5237  126.1483  132.6328 O   0  0  0  0  0  0  0  0  0  0  0  0
  204.7894  125.2515  131.6214 C   0  0  1  0  0  0  0  0  0  0  0  0
  206.2350  124.8904  131.4800 C   0  0  0  0  0  0  0  0  0  0  0  0
  203.8971  124.0492  131.8107 C   0  0  2  0  0  0  0  0  0  0  0  0
  202.5802  124.5012  131.7138 O   0  0  0  0  0  0  0  0  0  0  0  0
  204.1294  123.4156  133.1441 C   0  0  1  0  0  0  0  0  0  0  0  0
  205.1701  122.4755  133.0765 O   0  0  0  0  0  0  0  0  0  0  0  0
  204.3057  124.3817  134.2682 C   0  0  1  0  0  0  0  0  0  0  0  0
  205.1300  123.7943  135.2337 O   0  0  0  0  0  0  0  0  0  0  0  0
  206.0490  137.1524  133.5409 C   0  0  0  0  0  0  0  0  0  0  0  0
  205.1265  137.4845  132.5768 C   0  0  0  0  0  0  0  0  0  0  0  0
  204.9100  138.7465  132.2053 O   0  0  0  0  0  0  0  0  0  0  0  0
  205.5617  139.7381  132.7363 C   0  0  0  0  0  0  0  0  0  0  0  0
  205.3094  140.9050  132.3404 O   0  0  0  0  0  0  0  0  0  0  0  0
  206.4956  139.4611  133.7054 C   0  0  0  0  0  0  0  0  0  0  0  0
  206.7616  138.1770  134.1290 C   0  0  0  0  0  0  0  0  0  0  0  0
  1  2  1  0
  2  3  1  0
  3  4  1  0
  4  5  1  1
  4  6  1  0
  6  7  1  1
  7  8  1  0
  8  9  1  0
  9 10  2  0
 10 11  1  0
 11 12  1  0
 12 13  1  0
 13 14  1  0
 14 15  1  6
 14 16  1  0
 16 17  1  6
 17 18  1  0
 18 19  1  0
 19 20  1  6
 11 21  1  6
 22 21  1  1
 22 23  1  0
 23 24  1  0
 24 25  1  1
 24 26  1  0
 26 27  1  1
 26 28  1  0
 28 29  1  6
 28 30  1  0
 30 31  1  1
  1 32  1  1
 32 33  2  0
 33 34  1  0
 34 35  1  0
 35 36  2  0
 35 37  1  0
 37 38  2  0
 19  1  1  0
 30 22  1  0
 38 32  1  0
 19  4  1  0
 16  6  1  0
 14  9  1  0
M  END
$$$$
