
     RDKit          3D

 38 43  0  0  0  0  0  0  0  0999 V2000
  149.0826  162.4172  131.3057 C   0  0  1  0  0  0  0  0  0  0  0  0
  149.4361  162.1832  129.8764 C   0  0  0  0  0  0  0  0  0  0  0  0
  149.0359  163.5105  129.2117 C   0  0  0  0  0  0  0  0  0  0  0  0
  147.7219  163.7621  129.8867 C   0  0  2  0  0  0  0  0  0  0  0  0
  146.8181  162.8201  129.3444 O   0  0  0  0  0  0  0  0  0  0  0  0
  147.1355  165.1188  129.6234 C   0  0  2  0  0  0  0  0  0  0  0  0
  146.8993  165.3072  128.1492 C   0  0  0  0  0  0  0  0  0  0  0  0
  146.5115  166.6936  127.7652 C   0  0  0  0  0  0  0  0  0  0  0  0
  147.2533  167.7271  128.5470 C   0  0  0  0  0  0  0  0  0  0  0  0
  147.7394  168.7609  127.8686 C   0  0  0  0  0  0  0  0  0  0  0  0
  148.4982  169.8616  128.5240 C   0  0  2  0  0  0  0  0  0  0  0  0
  148.2253  169.8997  130.0085 C   0  0  0  0  0  0  0  0  0  0  0  0
  148.4565  168.5311  130.5645 C   0  0  0  0  0  0  0  0  0  0  0  0
  147.4148  167.5655  130.0143 C   0  0  1  0  0  0  0  0  0  0  0  0
  146.1296  167.8540  130.7571 C   0  0  0  0  0  0  0  0  0  0  0  0
  147.9355  166.1826  130.2812 C   0  0  1  0  0  0  0  0  0  0  0  0
  147.8970  165.9248  131.7779 C   0  0  0  0  0  0  0  0  0  0  0  0
  148.3914  164.5884  132.1689 C   0  0  0  0  0  0  0  0  0  0  0  0
  147.9365  163.4411  131.3115 C   0  0  2  0  0  0  0  0  0  0  0  0
  146.6643  162.8062  131.8583 C   0  0  0  0  0  0  0  0  0  0  0  0
  148.1450  171.0462  127.9168 O   0  0  0  0  0  0  0  0  0  0  0  0
  147.8557  172.0738  128.8028 C   0  0  2  0  0  0  0  0  0  0  0  0
  146.4985  172.0170  129.0876 O   0  0  0  0  0  0  0  0  0  0  0  0
  146.0752  173.0396  129.9080 C   0  0  1  0  0  0  0  0  0  0  0  0
  146.7588  173.0872  131.2386 C   0  0  0  0  0  0  0  0  0  0  0  0
  146.1853  174.3351  129.1418 C   0  0  2  0  0  0  0  0  0  0  0  0
  145.3384  174.2276  128.0377 O   0  0  0  0  0  0  0  0  0  0  0  0
  147.5909  174.5736  128.6939 C   0  0  1  0  0  0  0  0  0  0  0  0
  148.3251  175.2435  129.6856 O   0  0  0  0  0  0  0  0  0  0  0  0
  148.2949  173.3595  128.1856 C   0  0  1  0  0  0  0  0  0  0  0  0
  149.6646  173.5055  128.4290 O   0  0  0  0  0  0  0  0  0  0  0  0
  148.7646  161.1886  132.0328 C   0  0  0  0  0  0  0  0  0  0  0  0
  148.1356  160.1523  131.3839 C   0  0  0  0  0  0  0  0  0  0  0  0
  147.8201  159.0140  132.0022 O   0  0  0  0  0  0  0  0  0  0  0  0
  148.0909  158.8192  133.2586 C   0  0  0  0  0  0  0  0  0  0  0  0
  147.7661  157.7222  133.7814 O   0  0  0  0  0  0  0  0  0  0  0  0
  148.7196  159.8237  133.9541 C   0  0  0  0  0  0  0  0  0  0  0  0
  149.0693  161.0208  133.3679 C   0  0  0  0  0  0  0  0  0  0  0  0
  1  2  1  0
  2  3  1  0
  3  4  1  0
  4  5  1  6
  4  6  1  0
  6  7  1  6
  7  8  1  0
  8  9  1  0
  9 10  2  0
 10 11  1  0
 11 12  1  0
 12 13  1  0
 13 14  1  0
 14 15  1  1
 14 16  1  0
 16 17  1  1
 17 18  1  0
 18 19  1  0
 19 20  1  1
 11 21  1  6
 22 21  1  6
 22 23  1  0
 23 24  1  0
 24 25  1  1
 24 26  1  0
 26 27  1  6
 26 28  1  0
 28 29  1  1
 28 30  1  0
 30 31  1  1
  1 32  1  6
 32 33  2  0
 33 34  1  0
 34 35  1  0
 35 36  2  0
 35 37  1  0
 37 38  2  0
 19  1  1  0
 30 22  1  0
 38 32  1  0
 19  4  1  0
 16  6  1  0
 14  9  1  0
M  END
$$$$
