
     RDKit          3D

 38 43  0  0  0  0  0  0  0  0999 V2000
  128.0843  149.5495  134.1446 C   0  0  1  0  0  0  0  0  0  0  0  0
  129.3264  149.1957  134.8894 C   0  0  0  0  0  0  0  0  0  0  0  0
  129.2236  147.6659  135.0028 C   0  0  0  0  0  0  0  0  0  0  0  0
  127.7739  147.5205  135.3532 C   0  0  2  0  0  0  0  0  0  0  0  0
  127.6477  147.9731  136.6865 O   0  0  0  0  0  0  0  0  0  0  0  0
  127.2657  146.1081  135.3306 C   0  0  2  0  0  0  0  0  0  0  0  0
  128.0282  145.2640  136.3159 C   0  0  0  0  0  0  0  0  0  0  0  0
  127.7387  143.8055  136.2231 C   0  0  0  0  0  0  0  0  0  0  0  0
  127.5721  143.3491  134.8112 C   0  0  0  0  0  0  0  0  0  0  0  0
  128.1797  142.2183  134.4684 C   0  0  0  0  0  0  0  0  0  0  0  0
  128.0960  141.6504  133.0946 C   0  0  2  0  0  0  0  0  0  0  0  0
  126.9130  142.2150  132.3453 C   0  0  0  0  0  0  0  0  0  0  0  0
  126.9718  143.7067  132.4287 C   0  0  0  0  0  0  0  0  0  0  0  0
  126.7547  144.1541  133.8684 C   0  0  1  0  0  0  0  0  0  0  0  0
  125.2745  144.0102  134.1423 C   0  0  0  0  0  0  0  0  0  0  0  0
  127.2174  145.5807  133.9435 C   0  0  1  0  0  0  0  0  0  0  0  0
  126.2528  146.4511  133.1563 C   0  0  0  0  0  0  0  0  0  0  0  0
  126.6060  147.8858  133.1528 C   0  0  0  0  0  0  0  0  0  0  0  0
  127.0530  148.4572  134.4690 C   0  0  2  0  0  0  0  0  0  0  0  0
  125.8840  149.0490  135.2460 C   0  0  0  0  0  0  0  0  0  0  0  0
  128.0163  140.2797  133.2018 O   0  0  0  0  0  0  0  0  0  0  0  0
  129.2331  139.6279  133.0629 C   0  0  2  0  0  0  0  0  0  0  0  0
  129.5339  139.5778  131.7089 O   0  0  0  0  0  0  0  0  0  0  0  0
  130.6937  138.8855  131.4382 C   0  0  1  0  0  0  0  0  0  0  0  0
  131.9156  139.4460  132.0962 C   0  0  0  0  0  0  0  0  0  0  0  0
  130.4620  137.4308  131.7666 C   0  0  2  0  0  0  0  0  0  0  0  0
  129.4348  136.9848  130.9337 O   0  0  0  0  0  0  0  0  0  0  0  0
  130.0758  137.2611  133.2002 C   0  0  1  0  0  0  0  0  0  0  0  0
  131.2135  137.1335  134.0130 O   0  0  0  0  0  0  0  0  0  0  0  0
  129.1218  138.2888  133.7118 C   0  0  1  0  0  0  0  0  0  0  0  0
  129.3434  138.4574  135.0826 O   0  0  0  0  0  0  0  0  0  0  0  0
  127.6037  150.9015  134.4282 C   0  0  0  0  0  0  0  0  0  0  0  0
  127.5838  151.3636  135.7231 C   0  0  0  0  0  0  0  0  0  0  0  0
  127.1513  152.5856  136.0348 O   0  0  0  0  0  0  0  0  0  0  0  0
  126.7225  153.4124  135.1278 C   0  0  0  0  0  0  0  0  0  0  0  0
  126.3281  154.5508  135.4892 O   0  0  0  0  0  0  0  0  0  0  0  0
  126.7216  153.0002  133.8170 C   0  0  0  0  0  0  0  0  0  0  0  0
  127.1566  151.7494  133.4359 C   0  0  0  0  0  0  0  0  0  0  0  0
  1  2  1  0
  2  3  1  0
  3  4  1  0
  4  5  1  1
  4  6  1  0
  6  7  1  1
  7  8  1  0
  8  9  1  0
  9 10  2  0
 10 11  1  0
 11 12  1  0
 12 13  1  0
 13 14  1  0
 14 15  1  1
 14 16  1  0
 16 17  1  6
 17 18  1  0
 18 19  1  0
 19 20  1  1
 11 21  1  1
 22 21  1  6
 22 23  1  0
 23 24  1  0
 24 25  1  1
 24 26  1  0
 26 27  1  6
 26 28  1  0
 28 29  1  1
 28 30  1  0
 30 31  1  1
  1 32  1  1
 32 33  2  0
 33 34  1  0
 34 35  1  0
 35 36  2  0
 35 37  1  0
 37 38  2  0
 19  1  1  0
 30 22  1  0
 38 32  1  0
 19  4  1  0
 16  6  1  0
 14  9  1  0
M  END
$$$$
