
     RDKit          3D

 38 43  0  0  0  0  0  0  0  0999 V2000
  124.7377  134.6407  130.3808 C   0  0  1  0  0  0  0  0  0  0  0  0
  125.3381  135.5929  129.4033 C   0  0  0  0  0  0  0  0  0  0  0  0
  125.7227  136.7865  130.2927 C   0  0  0  0  0  0  0  0  0  0  0  0
  124.5020  136.8804  131.1568 C   0  0  2  0  0  0  0  0  0  0  0  0
  123.4752  137.3867  130.3275 O   0  0  0  0  0  0  0  0  0  0  0  0
  124.6275  137.8312  132.3118 C   0  0  2  0  0  0  0  0  0  0  0  0
  124.9035  139.2239  131.8127 C   0  0  0  0  0  0  0  0  0  0  0  0
  125.2467  140.1999  132.8849 C   0  0  0  0  0  0  0  0  0  0  0  0
  126.1054  139.5967  133.9472 C   0  0  0  0  0  0  0  0  0  0  0  0
  127.1414  140.3164  134.3644 C   0  0  0  0  0  0  0  0  0  0  0  0
  128.0772  139.8347  135.4175 C   0  0  2  0  0  0  0  0  0  0  0  0
  127.4504  138.7328  136.2375 C   0  0  0  0  0  0  0  0  0  0  0  0
  126.9316  137.6876  135.3025 C   0  0  0  0  0  0  0  0  0  0  0  0
  125.7776  138.2515  134.4839 C   0  0  1  0  0  0  0  0  0  0  0  0
  124.5786  138.2897  135.4046 C   0  0  0  0  0  0  0  0  0  0  0  0
  125.5832  137.3167  133.3249 C   0  0  1  0  0  0  0  0  0  0  0  0
  125.0338  135.9992  133.8446 C   0  0  0  0  0  0  0  0  0  0  0  0
  124.8020  134.9891  132.7915 C   0  0  0  0  0  0  0  0  0  0  0  0
  124.1658  135.4913  131.5259 C   0  0  2  0  0  0  0  0  0  0  0  0
  122.6489  135.3602  131.5741 C   0  0  0  0  0  0  0  0  0  0  0  0
  128.4277  140.9099  136.2036 O   0  0  0  0  0  0  0  0  0  0  0  0
  128.4586  142.1209  135.5276 C   0  0  2  0  0  0  0  0  0  0  0  0
  128.2765  141.8563  134.1774 O   0  0  0  0  0  0  0  0  0  0  0  0
  128.3599  142.9835  133.3897 C   0  0  1  0  0  0  0  0  0  0  0  0
  127.3607  144.0464  133.7245 C   0  0  0  0  0  0  0  0  0  0  0  0
  129.7844  143.4805  133.4271 C   0  0  2  0  0  0  0  0  0  0  0  0
  130.5826  142.4668  132.8952 O   0  0  0  0  0  0  0  0  0  0  0  0
  130.2062  143.7900  134.8269 C   0  0  1  0  0  0  0  0  0  0  0  0
  129.8696  145.1090  135.1707 O   0  0  0  0  0  0  0  0  0  0  0  0
  129.7484  142.8004  135.8463 C   0  0  1  0  0  0  0  0  0  0  0  0
  129.5933  143.4617  137.0692 O   0  0  0  0  0  0  0  0  0  0  0  0
  123.7535  133.7394  129.7822 C   0  0  0  0  0  0  0  0  0  0  0  0
  123.3668  132.6040  130.4544 C   0  0  0  0  0  0  0  0  0  0  0  0
  122.4771  131.7483  129.9507 O   0  0  0  0  0  0  0  0  0  0  0  0
  121.9228  131.9406  128.7907 C   0  0  0  0  0  0  0  0  0  0  0  0
  121.0910  131.0943  128.3734 O   0  0  0  0  0  0  0  0  0  0  0  0
  122.2743  133.0609  128.0770 C   0  0  0  0  0  0  0  0  0  0  0  0
  123.1877  133.9794  128.5470 C   0  0  0  0  0  0  0  0  0  0  0  0
  1  2  1  0
  2  3  1  0
  3  4  1  0
  4  5  1  6
  4  6  1  0
  6  7  1  6
  7  8  1  0
  8  9  1  0
  9 10  2  0
 10 11  1  0
 11 12  1  0
 12 13  1  0
 13 14  1  0
 14 15  1  1
 14 16  1  0
 16 17  1  1
 17 18  1  0
 18 19  1  0
 19 20  1  1
 11 21  1  1
 22 21  1  1
 22 23  1  0
 23 24  1  0
 24 25  1  1
 24 26  1  0
 26 27  1  1
 26 28  1  0
 28 29  1  1
 28 30  1  0
 30 31  1  1
  1 32  1  6
 32 33  2  0
 33 34  1  0
 34 35  1  0
 35 36  2  0
 35 37  1  0
 37 38  2  0
 19  1  1  0
 30 22  1  0
 38 32  1  0
 19  4  1  0
 16  6  1  0
 14  9  1  0
M  END
$$$$
