
     RDKit          3D

 38 43  0  0  0  0  0  0  0  0999 V2000
  126.8511  146.3788  133.9013 C   0  0  1  0  0  0  0  0  0  0  0  0
  126.7936  146.3634  132.4116 C   0  0  0  0  0  0  0  0  0  0  0  0
  127.4259  145.0052  132.0669 C   0  0  0  0  0  0  0  0  0  0  0  0
  128.5811  144.9980  133.0214 C   0  0  2  0  0  0  0  0  0  0  0  0
  129.5055  145.9439  132.5220 O   0  0  0  0  0  0  0  0  0  0  0  0
  129.3116  143.6891  133.1063 C   0  0  2  0  0  0  0  0  0  0  0  0
  129.8701  143.3158  131.7597 C   0  0  0  0  0  0  0  0  0  0  0  0
  130.4351  141.9388  131.6934 C   0  0  0  0  0  0  0  0  0  0  0  0
  129.6244  140.9552  132.4713 C   0  0  0  0  0  0  0  0  0  0  0  0
  129.3740  139.7874  131.8892 C   0  0  0  0  0  0  0  0  0  0  0  0
  128.5789  138.7176  132.5527 C   0  0  2  0  0  0  0  0  0  0  0  0
  128.5313  138.9249  134.0474 C   0  0  0  0  0  0  0  0  0  0  0  0
  128.0836  140.3265  134.3139 C   0  0  0  0  0  0  0  0  0  0  0  0
  129.1421  141.3092  133.8304 C   0  0  1  0  0  0  0  0  0  0  0  0
  130.2576  141.2726  134.8508 C   0  0  0  0  0  0  0  0  0  0  0  0
  128.4729  142.6515  133.7578 C   0  0  1  0  0  0  0  0  0  0  0  0
  128.1720  143.1262  135.1692 C   0  0  0  0  0  0  0  0  0  0  0  0
  127.5055  144.4436  135.2293 C   0  0  0  0  0  0  0  0  0  0  0  0
  128.0441  145.4970  134.3026 C   0  0  2  0  0  0  0  0  0  0  0  0
  129.1185  146.3386  134.9793 C   0  0  0  0  0  0  0  0  0  0  0  0
  129.1424  137.5029  132.2308 O   0  0  0  0  0  0  0  0  0  0  0  0
  130.3489  137.2505  132.8672 C   0  0  2  0  0  0  0  0  0  0  0  0
  131.3385  137.2056  131.8951 O   0  0  0  0  0  0  0  0  0  0  0  0
  132.5797  136.8883  132.4016 C   0  0  1  0  0  0  0  0  0  0  0  0
  133.0852  137.8409  133.4395 C   0  0  0  0  0  0  0  0  0  0  0  0
  132.5413  135.4583  132.8826 C   0  0  2  0  0  0  0  0  0  0  0  0
  132.2624  134.6629  131.7703 O   0  0  0  0  0  0  0  0  0  0  0  0
  131.4888  135.2736  133.9272 C   0  0  1  0  0  0  0  0  0  0  0  0
  131.9970  135.5576  135.2049 O   0  0  0  0  0  0  0  0  0  0  0  0
  130.2079  135.9886  133.6512 C   0  0  1  0  0  0  0  0  0  0  0  0
  129.6053  136.3081  134.8723 O   0  0  0  0  0  0  0  0  0  0  0  0
  126.9126  147.7270  134.4651 C   0  0  0  0  0  0  0  0  0  0  0  0
  127.6120  148.7124  133.8089 C   0  0  0  0  0  0  0  0  0  0  0  0
  127.7023  149.9553  134.2827 O   0  0  0  0  0  0  0  0  0  0  0  0
  127.1313  150.3068  135.3965 C   0  0  0  0  0  0  0  0  0  0  0  0
  127.2557  151.4957  135.7876 O   0  0  0  0  0  0  0  0  0  0  0  0
  126.4192  149.3596  136.0922 C   0  0  0  0  0  0  0  0  0  0  0  0
  126.2919  148.0603  135.6513 C   0  0  0  0  0  0  0  0  0  0  0  0
  1  2  1  0
  2  3  1  0
  3  4  1  0
  4  5  1  6
  4  6  1  0
  6  7  1  6
  7  8  1  0
  8  9  1  0
  9 10  2  0
 10 11  1  0
 11 12  1  0
 12 13  1  0
 13 14  1  0
 14 15  1  1
 14 16  1  0
 16 17  1  1
 17 18  1  0
 18 19  1  0
 19 20  1  1
 11 21  1  1
 22 21  1  6
 22 23  1  0
 23 24  1  0
 24 25  1  1
 24 26  1  0
 26 27  1  6
 26 28  1  0
 28 29  1  1
 28 30  1  0
 30 31  1  1
  1 32  1  6
 32 33  2  0
 33 34  1  0
 34 35  1  0
 35 36  2  0
 35 37  1  0
 37 38  2  0
 19  1  1  0
 30 22  1  0
 38 32  1  0
 19  4  1  0
 16  6  1  0
 14  9  1  0
M  END
$$$$
