
     RDKit          3D

 38 43  0  0  0  0  0  0  0  0999 V2000
  187.0842  148.3296  126.8975 C   0  0  1  0  0  0  0  0  0  0  0  0
  187.8572  147.6546  125.8160 C   0  0  0  0  0  0  0  0  0  0  0  0
  187.0621  146.3570  125.5973 C   0  0  0  0  0  0  0  0  0  0  0  0
  186.7866  145.9694  127.0183 C   0  0  2  0  0  0  0  0  0  0  0  0
  188.0211  145.5307  127.5493 O   0  0  0  0  0  0  0  0  0  0  0  0
  185.8226  144.8297  127.1780 C   0  0  2  0  0  0  0  0  0  0  0  0
  186.3546  143.5979  126.4966 C   0  0  0  0  0  0  0  0  0  0  0  0
  185.3811  142.4724  126.4226 C   0  0  0  0  0  0  0  0  0  0  0  0
  183.9904  142.9426  126.1496 C   0  0  0  0  0  0  0  0  0  0  0  0
  183.2940  142.2673  125.2417 C   0  0  0  0  0  0  0  0  0  0  0  0
  181.8972  142.6289  124.8742 C   0  0  2  0  0  0  0  0  0  0  0  0
  181.2567  143.4780  125.9458 C   0  0  0  0  0  0  0  0  0  0  0  0
  182.1676  144.6257  126.2435 C   0  0  0  0  0  0  0  0  0  0  0  0
  183.4518  144.1155  126.8841 C   0  0  1  0  0  0  0  0  0  0  0  0
  183.1086  143.7734  128.3166 C   0  0  0  0  0  0  0  0  0  0  0  0
  184.4494  145.2332  126.7829 C   0  0  1  0  0  0  0  0  0  0  0  0
  184.0195  146.3593  127.7075 C   0  0  0  0  0  0  0  0  0  0  0  0
  184.9262  147.5258  127.6935 C   0  0  0  0  0  0  0  0  0  0  0  0
  186.3969  147.2169  127.7045 C   0  0  2  0  0  0  0  0  0  0  0  0
  186.9479  147.1773  129.1242 C   0  0  0  0  0  0  0  0  0  0  0  0
  181.1931  141.4634  124.6677 O   0  0  0  0  0  0  0  0  0  0  0  0
  180.8828  140.7742  125.8310 C   0  0  2  0  0  0  0  0  0  0  0  0
  181.9158  139.8820  126.0823 O   0  0  0  0  0  0  0  0  0  0  0  0
  181.6856  139.0843  127.1816 C   0  0  1  0  0  0  0  0  0  0  0  0
  181.4904  139.8366  128.4607 C   0  0  0  0  0  0  0  0  0  0  0  0
  180.5373  138.1591  126.8607 C   0  0  2  0  0  0  0  0  0  0  0  0
  180.9377  137.3750  125.7778 O   0  0  0  0  0  0  0  0  0  0  0  0
  179.3079  138.9337  126.5116 C   0  0  1  0  0  0  0  0  0  0  0  0
  178.5695  139.2461  127.6642 O   0  0  0  0  0  0  0  0  0  0  0  0
  179.5504  140.1273  125.6488 C   0  0  1  0  0  0  0  0  0  0  0  0
  178.5684  141.0837  125.9271 O   0  0  0  0  0  0  0  0  0  0  0  0
  187.8987  149.2230  127.7209 C   0  0  0  0  0  0  0  0  0  0  0  0
  189.2068  148.8995  127.9945 C   0  0  0  0  0  0  0  0  0  0  0  0
  189.9894  149.6770  128.7430 O   0  0  0  0  0  0  0  0  0  0  0  0
  189.5577  150.7897  129.2582 C   0  0  0  0  0  0  0  0  0  0  0  0
  190.3478  151.4769  129.9551 O   0  0  0  0  0  0  0  0  0  0  0  0
  188.2570  151.1602  129.0152 C   0  0  0  0  0  0  0  0  0  0  0  0
  187.4025  150.3967  128.2497 C   0  0  0  0  0  0  0  0  0  0  0  0
  1  2  1  0
  2  3  1  0
  3  4  1  0
  4  5  1  1
  4  6  1  0
  6  7  1  6
  7  8  1  0
  8  9  1  0
  9 10  2  0
 10 11  1  0
 11 12  1  0
 12 13  1  0
 13 14  1  0
 14 15  1  1
 14 16  1  0
 16 17  1  1
 17 18  1  0
 18 19  1  0
 19 20  1  1
 11 21  1  1
 22 21  1  6
 22 23  1  0
 23 24  1  0
 24 25  1  1
 24 26  1  0
 26 27  1  6
 26 28  1  0
 28 29  1  1
 28 30  1  0
 30 31  1  1
  1 32  1  1
 32 33  2  0
 33 34  1  0
 34 35  1  0
 35 36  2  0
 35 37  1  0
 37 38  2  0
 19  1  1  0
 30 22  1  0
 38 32  1  0
 19  4  1  0
 16  6  1  0
 14  9  1  0
M  END
$$$$
