
     RDKit          3D

 38 43  0  0  0  0  0  0  0  0999 V2000
  187.3280  164.0700  140.4530 C   0  0  1  0  0  0  0  0  0  0  0  0
  186.9669  165.0840  139.4215 C   0  0  0  0  0  0  0  0  0  0  0  0
  185.9509  164.3273  138.5505 C   0  0  0  0  0  0  0  0  0  0  0  0
  186.6283  162.9947  138.4459 C   0  0  2  0  0  0  0  0  0  0  0  0
  187.7377  163.1872  137.5912 O   0  0  0  0  0  0  0  0  0  0  0  0
  185.7899  161.9163  137.8231 C   0  0  2  0  0  0  0  0  0  0  0  0
  185.3970  162.3047  136.4233 C   0  0  0  0  0  0  0  0  0  0  0  0
  184.3972  161.3960  135.7954 C   0  0  0  0  0  0  0  0  0  0  0  0
  183.3619  160.9338  136.7671 C   0  0  0  0  0  0  0  0  0  0  0  0
  182.0989  160.9518  136.3550 C   0  0  0  0  0  0  0  0  0  0  0  0
  180.9689  160.5177  137.2218 C   0  0  2  0  0  0  0  0  0  0  0  0
  181.4577  159.6489  138.3558 C   0  0  0  0  0  0  0  0  0  0  0  0
  182.5711  160.3652  139.0508 C   0  0  0  0  0  0  0  0  0  0  0  0
  183.7719  160.4825  138.1211 C   0  0  1  0  0  0  0  0  0  0  0  0
  184.4211  159.1172  138.0868 C   0  0  0  0  0  0  0  0  0  0  0  0
  184.6678  161.5306  138.7157 C   0  0  1  0  0  0  0  0  0  0  0  0
  185.2705  160.9889  140.0006 C   0  0  0  0  0  0  0  0  0  0  0  0
  186.1744  161.9364  140.6850 C   0  0  0  0  0  0  0  0  0  0  0  0
  187.1270  162.6924  139.8020 C   0  0  2  0  0  0  0  0  0  0  0  0
  188.4616  161.9694  139.6736 C   0  0  0  0  0  0  0  0  0  0  0  0
  180.0564  159.8511  136.4344 O   0  0  0  0  0  0  0  0  0  0  0  0
  178.8180  160.4709  136.3524 C   0  0  2  0  0  0  0  0  0  0  0  0
  178.3393  160.6319  137.6451 O   0  0  0  0  0  0  0  0  0  0  0  0
  177.0745  161.1762  137.6893 C   0  0  1  0  0  0  0  0  0  0  0  0
  176.9603  162.5258  137.0522 C   0  0  0  0  0  0  0  0  0  0  0  0
  176.1077  160.1696  137.1152 C   0  0  2  0  0  0  0  0  0  0  0  0
  176.1685  159.0377  137.9294 O   0  0  0  0  0  0  0  0  0  0  0  0
  176.4749  159.8163  135.7104 C   0  0  1  0  0  0  0  0  0  0  0  0
  175.8887  160.7105  134.8003 O   0  0  0  0  0  0  0  0  0  0  0  0
  177.9388  159.6423  135.4764 C   0  0  1  0  0  0  0  0  0  0  0  0
  178.2194  159.9779  134.1478 O   0  0  0  0  0  0  0  0  0  0  0  0
  188.6688  164.2583  141.0063 C   0  0  0  0  0  0  0  0  0  0  0  0
  188.8987  164.0193  142.3407 C   0  0  0  0  0  0  0  0  0  0  0  0
  190.1006  164.1801  142.8946 O   0  0  0  0  0  0  0  0  0  0  0  0
  191.1273  164.5735  142.2009 C   0  0  0  0  0  0  0  0  0  0  0  0
  192.2335  164.7054  142.7848 O   0  0  0  0  0  0  0  0  0  0  0  0
  190.9520  164.8262  140.8617 C   0  0  0  0  0  0  0  0  0  0  0  0
  189.7335  164.6775  140.2355 C   0  0  0  0  0  0  0  0  0  0  0  0
  1  2  1  0
  2  3  1  0
  3  4  1  0
  4  5  1  6
  4  6  1  0
  6  7  1  6
  7  8  1  0
  8  9  1  0
  9 10  2  0
 10 11  1  0
 11 12  1  0
 12 13  1  0
 13 14  1  0
 14 15  1  6
 14 16  1  0
 16 17  1  1
 17 18  1  0
 18 19  1  0
 19 20  1  6
 11 21  1  6
 22 21  1  1
 22 23  1  0
 23 24  1  0
 24 25  1  6
 24 26  1  0
 26 27  1  1
 26 28  1  0
 28 29  1  6
 28 30  1  0
 30 31  1  6
  1 32  1  6
 32 33  2  0
 33 34  1  0
 34 35  1  0
 35 36  2  0
 35 37  1  0
 37 38  2  0
 19  1  1  0
 30 22  1  0
 38 32  1  0
 19  4  1  0
 16  6  1  0
 14  9  1  0
M  END
$$$$
