
     RDKit          3D

 38 43  0  0  0  0  0  0  0  0999 V2000
  130.3783  159.7138  157.1117 C   0  0  1  0  0  0  0  0  0  0  0  0
  128.9091  159.6903  156.8597 C   0  0  0  0  0  0  0  0  0  0  0  0
  128.7628  160.6267  155.6492 C   0  0  0  0  0  0  0  0  0  0  0  0
  129.6886  161.7334  156.0536 C   0  0  2  0  0  0  0  0  0  0  0  0
  129.0376  162.4229  157.1021 O   0  0  0  0  0  0  0  0  0  0  0  0
  129.9579  162.7454  154.9780 C   0  0  2  0  0  0  0  0  0  0  0  0
  128.6741  163.4012  154.5463 C   0  0  0  0  0  0  0  0  0  0  0  0
  128.8070  164.2710  153.3440 C   0  0  0  0  0  0  0  0  0  0  0  0
  129.7373  163.6954  152.3276 C   0  0  0  0  0  0  0  0  0  0  0  0
  129.3419  163.7337  151.0597 C   0  0  0  0  0  0  0  0  0  0  0  0
  130.1718  163.1953  149.9469 C   0  0  2  0  0  0  0  0  0  0  0  0
  131.6188  163.0720  150.3598 C   0  0  0  0  0  0  0  0  0  0  0  0
  131.6782  162.3067  151.6430 C   0  0  0  0  0  0  0  0  0  0  0  0
  131.0351  163.1179  152.7603 C   0  0  1  0  0  0  0  0  0  0  0  0
  132.0312  164.1915  153.1372 C   0  0  0  0  0  0  0  0  0  0  0  0
  130.7719  162.1575  153.8842 C   0  0  1  0  0  0  0  0  0  0  0  0
  132.1003  161.7274  154.4827 C   0  0  0  0  0  0  0  0  0  0  0  0
  131.9720  160.7728  155.6033 C   0  0  0  0  0  0  0  0  0  0  0  0
  130.8886  161.0706  156.6013 C   0  0  2  0  0  0  0  0  0  0  0  0
  131.4132  161.9074  157.7610 C   0  0  0  0  0  0  0  0  0  0  0  0
  130.0275  164.0311  148.8618 O   0  0  0  0  0  0  0  0  0  0  0  0
  131.0253  164.9879  148.7458 C   0  0  2  0  0  0  0  0  0  0  0  0
  131.2764  165.4927  150.0141 O   0  0  0  0  0  0  0  0  0  0  0  0
  132.2061  166.5094  150.0167 C   0  0  1  0  0  0  0  0  0  0  0  0
  133.5450  166.1236  149.4702 C   0  0  0  0  0  0  0  0  0  0  0  0
  131.6035  167.7011  149.3137 C   0  0  2  0  0  0  0  0  0  0  0  0
  130.4793  168.0808  150.0484 O   0  0  0  0  0  0  0  0  0  0  0  0
  131.2132  167.3549  147.9133 C   0  0  1  0  0  0  0  0  0  0  0  0
  132.2915  167.5396  147.0333 O   0  0  0  0  0  0  0  0  0  0  0  0
  130.5753  166.0140  147.7602 C   0  0  1  0  0  0  0  0  0  0  0  0
  130.8594  165.5306  146.4788 O   0  0  0  0  0  0  0  0  0  0  0  0
  130.7314  159.4503  158.5064 C   0  0  0  0  0  0  0  0  0  0  0  0
  130.0051  160.0325  159.5184 C   0  0  0  0  0  0  0  0  0  0  0  0
  130.2888  159.8283  160.8050 O   0  0  0  0  0  0  0  0  0  0  0  0
  131.2723  159.0635  161.1763 C   0  0  0  0  0  0  0  0  0  0  0  0
  131.4865  158.9131  162.4066 O   0  0  0  0  0  0  0  0  0  0  0  0
  132.0303  158.4566  160.2040 C   0  0  0  0  0  0  0  0  0  0  0  0
  131.7839  158.6311  158.8595 C   0  0  0  0  0  0  0  0  0  0  0  0
  1  2  1  0
  2  3  1  0
  3  4  1  0
  4  5  1  1
  4  6  1  0
  6  7  1  6
  7  8  1  0
  8  9  1  0
  9 10  2  0
 10 11  1  0
 11 12  1  0
 12 13  1  0
 13 14  1  0
 14 15  1  1
 14 16  1  0
 16 17  1  1
 17 18  1  0
 18 19  1  0
 19 20  1  1
 11 21  1  6
 22 21  1  1
 22 23  1  0
 23 24  1  0
 24 25  1  6
 24 26  1  0
 26 27  1  1
 26 28  1  0
 28 29  1  6
 28 30  1  0
 30 31  1  6
  1 32  1  1
 32 33  2  0
 33 34  1  0
 34 35  1  0
 35 36  2  0
 35 37  1  0
 37 38  2  0
 19  1  1  0
 30 22  1  0
 38 32  1  0
 19  4  1  0
 16  6  1  0
 14  9  1  0
M  END
$$$$
