
     RDKit          3D

 38 43  0  0  0  0  0  0  0  0999 V2000
  126.7788  149.8715  135.9658 C   0  0  1  0  0  0  0  0  0  0  0  0
  125.4714  149.3011  135.5324 C   0  0  0  0  0  0  0  0  0  0  0  0
  125.8684  147.9067  135.0209 C   0  0  0  0  0  0  0  0  0  0  0  0
  127.1118  148.2463  134.2565 C   0  0  2  0  0  0  0  0  0  0  0  0
  126.6817  148.9286  133.0955 O   0  0  0  0  0  0  0  0  0  0  0  0
  127.8994  147.0575  133.7874 C   0  0  2  0  0  0  0  0  0  0  0  0
  127.0602  146.2029  132.8764 C   0  0  0  0  0  0  0  0  0  0  0  0
  127.6812  144.8958  132.5218 C   0  0  0  0  0  0  0  0  0  0  0  0
  128.4066  144.2816  133.6735 C   0  0  0  0  0  0  0  0  0  0  0  0
  128.2162  142.9832  133.8814 C   0  0  0  0  0  0  0  0  0  0  0  0
  128.8777  142.2461  134.9931 C   0  0  2  0  0  0  0  0  0  0  0  0
  130.0856  142.9975  135.4991 C   0  0  0  0  0  0  0  0  0  0  0  0
  129.6718  144.4011  135.8064 C   0  0  0  0  0  0  0  0  0  0  0  0
  129.2906  145.1223  134.5201 C   0  0  1  0  0  0  0  0  0  0  0  0
  130.5872  145.4595  133.8186 C   0  0  0  0  0  0  0  0  0  0  0  0
  128.5239  146.3462  134.9313 C   0  0  1  0  0  0  0  0  0  0  0  0
  129.4763  147.3167  135.6087 C   0  0  0  0  0  0  0  0  0  0  0  0
  128.8344  148.5670  136.0645 C   0  0  0  0  0  0  0  0  0  0  0  0
  127.8586  149.1929  135.1082 C   0  0  2  0  0  0  0  0  0  0  0  0
  128.5383  150.2166  134.2079 C   0  0  0  0  0  0  0  0  0  0  0  0
  129.2202  140.9940  134.5331 O   0  0  0  0  0  0  0  0  0  0  0  0
  128.2124  140.0488  134.6565 C   0  0  2  0  0  0  0  0  0  0  0  0
  127.7475  140.0946  135.9635 O   0  0  0  0  0  0  0  0  0  0  0  0
  126.7861  139.1442  136.2287 C   0  0  1  0  0  0  0  0  0  0  0  0
  125.5650  139.2441  135.3690 C   0  0  0  0  0  0  0  0  0  0  0  0
  127.4384  137.7846  136.1707 C   0  0  2  0  0  0  0  0  0  0  0  0
  128.4188  137.7615  137.1638 O   0  0  0  0  0  0  0  0  0  0  0  0
  128.0543  137.5437  134.8306 C   0  0  1  0  0  0  0  0  0  0  0  0
  127.1175  136.9931  133.9414 O   0  0  0  0  0  0  0  0  0  0  0  0
  128.7646  138.7225  134.2529 C   0  0  1  0  0  0  0  0  0  0  0  0
  128.7022  138.6392  132.8580 O   0  0  0  0  0  0  0  0  0  0  0  0
  126.8233  151.3322  135.9027 C   0  0  0  0  0  0  0  0  0  0  0  0
  127.8470  152.0133  136.5182 C   0  0  0  0  0  0  0  0  0  0  0  0
  127.9308  153.3436  136.4939 O   0  0  0  0  0  0  0  0  0  0  0  0
  127.0454  154.0746  135.8840 C   0  0  0  0  0  0  0  0  0  0  0  0
  127.1833  155.3247  135.8992 O   0  0  0  0  0  0  0  0  0  0  0  0
  126.0012  153.4434  135.2522 C   0  0  0  0  0  0  0  0  0  0  0  0
  125.8631  152.0723  135.2442 C   0  0  0  0  0  0  0  0  0  0  0  0
  1  2  1  0
  2  3  1  0
  3  4  1  0
  4  5  1  6
  4  6  1  0
  6  7  1  1
  7  8  1  0
  8  9  1  0
  9 10  2  0
 10 11  1  0
 11 12  1  0
 12 13  1  0
 13 14  1  0
 14 15  1  6
 14 16  1  0
 16 17  1  6
 17 18  1  0
 18 19  1  0
 19 20  1  6
 11 21  1  6
 22 21  1  1
 22 23  1  0
 23 24  1  0
 24 25  1  6
 24 26  1  0
 26 27  1  1
 26 28  1  0
 28 29  1  6
 28 30  1  0
 30 31  1  6
  1 32  1  6
 32 33  2  0
 33 34  1  0
 34 35  1  0
 35 36  2  0
 35 37  1  0
 37 38  2  0
 19  1  1  0
 30 22  1  0
 38 32  1  0
 19  4  1  0
 16  6  1  0
 14  9  1  0
M  END
$$$$
