
     RDKit          3D

 38 43  0  0  0  0  0  0  0  0999 V2000
  100.4349  156.6049  160.7379 C   0  0  1  0  0  0  0  0  0  0  0  0
   98.9843  156.7780  161.0353 C   0  0  0  0  0  0  0  0  0  0  0  0
   98.9999  157.7758  162.2048 C   0  0  0  0  0  0  0  0  0  0  0  0
  100.1260  157.2155  163.0195 C   0  0  2  0  0  0  0  0  0  0  0  0
   99.6350  156.0207  163.5937 O   0  0  0  0  0  0  0  0  0  0  0  0
  100.5660  158.0887  164.1586 C   0  0  2  0  0  0  0  0  0  0  0  0
   99.4240  158.3168  165.1117 C   0  0  0  0  0  0  0  0  0  0  0  0
   99.7010  159.3343  166.1642 C   0  0  0  0  0  0  0  0  0  0  0  0
  100.4882  160.4906  165.6419 C   0  0  0  0  0  0  0  0  0  0  0  0
  100.0872  161.7045  166.0042 C   0  0  0  0  0  0  0  0  0  0  0  0
  100.7815  162.9428  165.5555 C   0  0  2  0  0  0  0  0  0  0  0  0
  102.1849  162.6392  165.0888 C   0  0  0  0  0  0  0  0  0  0  0  0
  102.1179  161.5326  164.0854 C   0  0  0  0  0  0  0  0  0  0  0  0
  101.6590  160.2472  164.7615 C   0  0  1  0  0  0  0  0  0  0  0  0
  102.8472  159.7241  165.5369 C   0  0  0  0  0  0  0  0  0  0  0  0
  101.2355  159.3171  163.6613 C   0  0  1  0  0  0  0  0  0  0  0  0
  102.4670  158.8844  162.8841 C   0  0  0  0  0  0  0  0  0  0  0  0
  102.1770  157.9637  161.7654 C   0  0  0  0  0  0  0  0  0  0  0  0
  101.1862  156.8707  162.0520 C   0  0  2  0  0  0  0  0  0  0  0  0
  101.8791  155.6010  162.5300 C   0  0  0  0  0  0  0  0  0  0  0  0
  100.7818  163.8372  166.6027 O   0  0  0  0  0  0  0  0  0  0  0  0
  101.1578  165.1249  166.2491 C   0  0  2  0  0  0  0  0  0  0  0  0
  102.3448  165.0379  165.5351 O   0  0  0  0  0  0  0  0  0  0  0  0
  102.8584  166.2683  165.1884 C   0  0  1  0  0  0  0  0  0  0  0  0
  101.9468  167.1023  164.3436 C   0  0  0  0  0  0  0  0  0  0  0  0
  103.2973  166.9688  166.4510 C   0  0  2  0  0  0  0  0  0  0  0  0
  104.2947  166.1807  167.0272 O   0  0  0  0  0  0  0  0  0  0  0  0
  102.1532  167.1294  167.3988 C   0  0  1  0  0  0  0  0  0  0  0  0
  101.4485  168.3150  167.1357 O   0  0  0  0  0  0  0  0  0  0  0  0
  101.2549  165.9412  167.4945 C   0  0  1  0  0  0  0  0  0  0  0  0
   99.9677  166.3823  167.8189 O   0  0  0  0  0  0  0  0  0  0  0  0
  100.7535  155.3080  160.1414 C   0  0  0  0  0  0  0  0  0  0  0  0
  102.0504  154.8512  160.1482 C   0  0  0  0  0  0  0  0  0  0  0  0
  102.3936  153.6788  159.6140 O   0  0  0  0  0  0  0  0  0  0  0  0
  101.5173  152.8984  159.0545 C   0  0  0  0  0  0  0  0  0  0  0  0
  101.9074  151.8055  158.5693 O   0  0  0  0  0  0  0  0  0  0  0  0
  100.2060  153.3076  159.0211 C   0  0  0  0  0  0  0  0  0  0  0  0
   99.7932  154.5083  159.5567 C   0  0  0  0  0  0  0  0  0  0  0  0
  1  2  1  0
  2  3  1  0
  3  4  1  0
  4  5  1  1
  4  6  1  0
  6  7  1  6
  7  8  1  0
  8  9  1  0
  9 10  2  0
 10 11  1  0
 11 12  1  0
 12 13  1  0
 13 14  1  0
 14 15  1  1
 14 16  1  0
 16 17  1  1
 17 18  1  0
 18 19  1  0
 19 20  1  1
 11 21  1  1
 22 21  1  1
 22 23  1  0
 23 24  1  0
 24 25  1  1
 24 26  1  0
 26 27  1  1
 26 28  1  0
 28 29  1  6
 28 30  1  0
 30 31  1  6
  1 32  1  1
 32 33  2  0
 33 34  1  0
 34 35  1  0
 35 36  2  0
 35 37  1  0
 37 38  2  0
 19  1  1  0
 30 22  1  0
 38 32  1  0
 19  4  1  0
 16  6  1  0
 14  9  1  0
M  END
$$$$
