
     RDKit          3D

 38 43  0  0  0  0  0  0  0  0999 V2000
  204.6156  136.9012  132.4996 C   0  0  1  0  0  0  0  0  0  0  0  0
  205.1758  136.5564  133.8375 C   0  0  0  0  0  0  0  0  0  0  0  0
  204.7437  135.0914  134.0131 C   0  0  0  0  0  0  0  0  0  0  0  0
  203.3341  135.1662  133.5103 C   0  0  2  0  0  0  0  0  0  0  0  0
  202.6031  135.8611  134.5009 O   0  0  0  0  0  0  0  0  0  0  0  0
  202.6623  133.8347  133.3376 C   0  0  2  0  0  0  0  0  0  0  0  0
  202.6069  133.1046  134.6523 C   0  0  0  0  0  0  0  0  0  0  0  0
  202.1443  131.6922  134.5473 C   0  0  0  0  0  0  0  0  0  0  0  0
  202.6752  131.0107  133.3294 C   0  0  0  0  0  0  0  0  0  0  0  0
  203.1471  129.7786  133.4865 C   0  0  0  0  0  0  0  0  0  0  0  0
  203.7051  128.9861  132.3564 C   0  0  2  0  0  0  0  0  0  0  0  0
  203.2356  129.5298  131.0285 C   0  0  0  0  0  0  0  0  0  0  0  0
  203.5191  130.9975  130.9944 C   0  0  0  0  0  0  0  0  0  0  0  0
  202.6554  131.7162  132.0228 C   0  0  1  0  0  0  0  0  0  0  0  0
  201.2616  131.7819  131.4397 C   0  0  0  0  0  0  0  0  0  0  0  0
  203.2642  133.0756  132.2124 C   0  0  1  0  0  0  0  0  0  0  0  0
  203.0522  133.8885  130.9467 C   0  0  0  0  0  0  0  0  0  0  0  0
  203.6143  135.2536  131.0097 C   0  0  0  0  0  0  0  0  0  0  0  0
  203.3873  136.0006  132.2938 C   0  0  2  0  0  0  0  0  0  0  0  0
  202.1195  136.8429  132.2324 C   0  0  0  0  0  0  0  0  0  0  0  0
  203.3253  127.6731  132.5252 O   0  0  0  0  0  0  0  0  0  0  0  0
  204.0168  126.7750  131.7254 C   0  0  2  0  0  0  0  0  0  0  0  0
  203.6467  127.0097  130.4085 O   0  0  0  0  0  0  0  0  0  0  0  0
  204.2184  126.1251  129.5205 C   0  0  1  0  0  0  0  0  0  0  0  0
  205.7151  126.1312  129.5197 C   0  0  0  0  0  0  0  0  0  0  0  0
  203.6345  124.7571  129.7759 C   0  0  2  0  0  0  0  0  0  0  0  0
  202.2622  124.8503  129.5395 O   0  0  0  0  0  0  0  0  0  0  0  0
  203.8884  124.3214  131.1826 C   0  0  1  0  0  0  0  0  0  0  0  0
  205.1295  123.6735  131.2893 O   0  0  0  0  0  0  0  0  0  0  0  0
  203.7155  125.3946  132.2056 C   0  0  1  0  0  0  0  0  0  0  0  0
  204.5639  125.1216  133.2837 O   0  0  0  0  0  0  0  0  0  0  0  0
  204.3213  138.3254  132.3440 C   0  0  0  0  0  0  0  0  0  0  0  0
  203.9693  138.8212  131.1107 C   0  0  0  0  0  0  0  0  0  0  0  0
  203.6959  140.1113  130.9152 O   0  0  0  0  0  0  0  0  0  0  0  0
  203.7468  140.9766  131.8841 C   0  0  0  0  0  0  0  0  0  0  0  0
  203.4772  142.1791  131.6320 O   0  0  0  0  0  0  0  0  0  0  0  0
  204.0934  140.5333  133.1376 C   0  0  0  0  0  0  0  0  0  0  0  0
  204.3865  139.2123  133.3988 C   0  0  0  0  0  0  0  0  0  0  0  0
  1  2  1  0
  2  3  1  0
  3  4  1  0
  4  5  1  1
  4  6  1  0
  6  7  1  1
  7  8  1  0
  8  9  1  0
  9 10  2  0
 10 11  1  0
 11 12  1  0
 12 13  1  0
 13 14  1  0
 14 15  1  6
 14 16  1  0
 16 17  1  6
 17 18  1  0
 18 19  1  0
 19 20  1  6
 11 21  1  1
 22 21  1  1
 22 23  1  0
 23 24  1  0
 24 25  1  1
 24 26  1  0
 26 27  1  1
 26 28  1  0
 28 29  1  6
 28 30  1  0
 30 31  1  1
  1 32  1  1
 32 33  2  0
 33 34  1  0
 34 35  1  0
 35 36  2  0
 35 37  1  0
 37 38  2  0
 19  1  1  0
 30 22  1  0
 38 32  1  0
 19  4  1  0
 16  6  1  0
 14  9  1  0
M  END
$$$$
