
     RDKit          3D

 38 43  0  0  0  0  0  0  0  0999 V2000
  128.9032  147.2431  135.3659 C   0  0  1  0  0  0  0  0  0  0  0  0
  128.7080  146.6872  136.7354 C   0  0  0  0  0  0  0  0  0  0  0  0
  128.4525  145.1968  136.4576 C   0  0  0  0  0  0  0  0  0  0  0  0
  127.5304  145.2984  135.2808 C   0  0  2  0  0  0  0  0  0  0  0  0
  126.2985  145.7692  135.7900 O   0  0  0  0  0  0  0  0  0  0  0  0
  127.2412  143.9916  134.6008 C   0  0  2  0  0  0  0  0  0  0  0  0
  126.5957  143.0338  135.5654 C   0  0  0  0  0  0  0  0  0  0  0  0
  126.4565  141.6445  135.0454 C   0  0  0  0  0  0  0  0  0  0  0  0
  127.6399  141.2191  134.2403 C   0  0  0  0  0  0  0  0  0  0  0  0
  128.1186  140.0013  134.4710 C   0  0  0  0  0  0  0  0  0  0  0  0
  129.2932  139.4521  133.7392 C   0  0  2  0  0  0  0  0  0  0  0  0
  129.5318  140.2058  132.4529 C   0  0  0  0  0  0  0  0  0  0  0  0
  129.5876  141.6666  132.7670 C   0  0  0  0  0  0  0  0  0  0  0  0
  128.2214  142.1479  133.2381 C   0  0  1  0  0  0  0  0  0  0  0  0
  127.3566  142.2558  132.0023 C   0  0  0  0  0  0  0  0  0  0  0  0
  128.4453  143.4763  133.9013 C   0  0  1  0  0  0  0  0  0  0  0  0
  128.8298  144.4946  132.8416 C   0  0  0  0  0  0  0  0  0  0  0  0
  129.0810  145.8495  133.3752 C   0  0  0  0  0  0  0  0  0  0  0  0
  128.1076  146.3408  134.4095 C   0  0  2  0  0  0  0  0  0  0  0  0
  126.9655  147.1229  133.7736 C   0  0  0  0  0  0  0  0  0  0  0  0
  129.0642  138.1146  133.5037 O   0  0  0  0  0  0  0  0  0  0  0  0
  129.9664  137.5302  132.6268 C   0  0  2  0  0  0  0  0  0  0  0  0
  129.8387  138.1685  131.4010 O   0  0  0  0  0  0  0  0  0  0  0  0
  130.6397  137.6233  130.4217 C   0  0  1  0  0  0  0  0  0  0  0  0
  132.1032  137.6517  130.7339 C   0  0  0  0  0  0  0  0  0  0  0  0
  130.1295  136.2370  130.1130 C   0  0  2  0  0  0  0  0  0  0  0  0
  128.8252  136.3804  129.6374 O   0  0  0  0  0  0  0  0  0  0  0  0
  130.1424  135.3778  131.3356 C   0  0  1  0  0  0  0  0  0  0  0  0
  131.3878  134.7485  131.4916 O   0  0  0  0  0  0  0  0  0  0  0  0
  129.6904  136.0644  132.5816 C   0  0  1  0  0  0  0  0  0  0  0  0
  130.3348  135.4734  133.6733 O   0  0  0  0  0  0  0  0  0  0  0  0
  128.5463  148.6574  135.2582 C   0  0  0  0  0  0  0  0  0  0  0  0
  128.6935  149.4856  136.3459 C   0  0  0  0  0  0  0  0  0  0  0  0
  128.3787  150.7803  136.3010 O   0  0  0  0  0  0  0  0  0  0  0  0
  127.9128  151.3347  135.2214 C   0  0  0  0  0  0  0  0  0  0  0  0
  127.6354  152.5613  135.2462 O   0  0  0  0  0  0  0  0  0  0  0  0
  127.7465  150.5512  134.1049 C   0  0  0  0  0  0  0  0  0  0  0  0
  128.0546  149.2081  134.0927 C   0  0  0  0  0  0  0  0  0  0  0  0
  1  2  1  0
  2  3  1  0
  3  4  1  0
  4  5  1  1
  4  6  1  0
  6  7  1  1
  7  8  1  0
  8  9  1  0
  9 10  2  0
 10 11  1  0
 11 12  1  0
 12 13  1  0
 13 14  1  0
 14 15  1  6
 14 16  1  0
 16 17  1  6
 17 18  1  0
 18 19  1  0
 19 20  1  6
 11 21  1  6
 22 21  1  1
 22 23  1  0
 23 24  1  0
 24 25  1  1
 24 26  1  0
 26 27  1  1
 26 28  1  0
 28 29  1  1
 28 30  1  0
 30 31  1  1
  1 32  1  1
 32 33  2  0
 33 34  1  0
 34 35  1  0
 35 36  2  0
 35 37  1  0
 37 38  2  0
 19  1  1  0
 30 22  1  0
 38 32  1  0
 19  4  1  0
 16  6  1  0
 14  9  1  0
M  END
$$$$
