
     RDKit          3D

 38 43  0  0  0  0  0  0  0  0999 V2000
  166.0052  157.3815  126.7575 C   0  0  1  0  0  0  0  0  0  0  0  0
  166.8760  157.2899  127.9642 C   0  0  0  0  0  0  0  0  0  0  0  0
  166.7967  155.7965  128.3207 C   0  0  0  0  0  0  0  0  0  0  0  0
  165.3310  155.5526  128.1267 C   0  0  2  0  0  0  0  0  0  0  0  0
  164.6822  156.1980  129.2042 O   0  0  0  0  0  0  0  0  0  0  0  0
  164.9260  154.1082  128.1862 C   0  0  2  0  0  0  0  0  0  0  0  0
  165.2810  153.5224  129.5262 C   0  0  0  0  0  0  0  0  0  0  0  0
  165.1065  152.0452  129.6123 C   0  0  0  0  0  0  0  0  0  0  0  0
  165.5159  151.3516  128.3550 C   0  0  0  0  0  0  0  0  0  0  0  0
  166.2520  150.2532  128.4858 C   0  0  0  0  0  0  0  0  0  0  0  0
  166.7275  149.4654  127.3153 C   0  0  2  0  0  0  0  0  0  0  0  0
  165.9047  149.7694  126.0864 C   0  0  0  0  0  0  0  0  0  0  0  0
  165.8689  151.2524  125.8994 C   0  0  0  0  0  0  0  0  0  0  0  0
  165.0954  151.9001  127.0407 C   0  0  1  0  0  0  0  0  0  0  0  0
  163.6311  151.6419  126.7655 C   0  0  0  0  0  0  0  0  0  0  0  0
  165.4377  153.3618  127.0092 C   0  0  1  0  0  0  0  0  0  0  0  0
  164.8190  153.9835  125.7688 C   0  0  0  0  0  0  0  0  0  0  0  0
  165.0902  155.4286  125.6234 C   0  0  0  0  0  0  0  0  0  0  0  0
  164.9718  156.2502  126.8763 C   0  0  2  0  0  0  0  0  0  0  0  0
  163.5714  156.8288  127.0335 C   0  0  0  0  0  0  0  0  0  0  0  0
  166.6658  148.1295  127.6445 O   0  0  0  0  0  0  0  0  0  0  0  0
  165.8425  147.3788  126.8179 C   0  0  2  0  0  0  0  0  0  0  0  0
  164.5278  147.6986  127.1272 O   0  0  0  0  0  0  0  0  0  0  0  0
  163.6097  146.9582  126.4154 C   0  0  1  0  0  0  0  0  0  0  0  0
  163.7156  147.1058  124.9297 C   0  0  0  0  0  0  0  0  0  0  0  0
  163.7041  145.5233  126.8736 C   0  0  2  0  0  0  0  0  0  0  0  0
  163.3800  145.5080  128.2309 O   0  0  0  0  0  0  0  0  0  0  0  0
  165.0825  144.9850  126.6651 C   0  0  1  0  0  0  0  0  0  0  0  0
  165.2207  144.4503  125.3742 O   0  0  0  0  0  0  0  0  0  0  0  0
  166.1794  145.9376  127.0082 C   0  0  1  0  0  0  0  0  0  0  0  0
  167.2874  145.6471  126.2053 O   0  0  0  0  0  0  0  0  0  0  0  0
  165.4004  158.7011  126.5781 C   0  0  0  0  0  0  0  0  0  0  0  0
  164.5049  159.1760  127.5071 C   0  0  0  0  0  0  0  0  0  0  0  0
  163.9228  160.3695  127.3876 O   0  0  0  0  0  0  0  0  0  0  0  0
  164.1706  161.1546  126.3815 C   0  0  0  0  0  0  0  0  0  0  0  0
  163.5874  162.2678  126.3288 O   0  0  0  0  0  0  0  0  0  0  0  0
  165.0590  160.7279  125.4240 C   0  0  0  0  0  0  0  0  0  0  0  0
  165.6902  159.5050  125.4949 C   0  0  0  0  0  0  0  0  0  0  0  0
  1  2  1  0
  2  3  1  0
  3  4  1  0
  4  5  1  1
  4  6  1  0
  6  7  1  1
  7  8  1  0
  8  9  1  0
  9 10  2  0
 10 11  1  0
 11 12  1  0
 12 13  1  0
 13 14  1  0
 14 15  1  6
 14 16  1  0
 16 17  1  6
 17 18  1  0
 18 19  1  0
 19 20  1  1
 11 21  1  1
 22 21  1  1
 22 23  1  0
 23 24  1  0
 24 25  1  6
 24 26  1  0
 26 27  1  1
 26 28  1  0
 28 29  1  6
 28 30  1  0
 30 31  1  6
  1 32  1  1
 32 33  2  0
 33 34  1  0
 34 35  1  0
 35 36  2  0
 35 37  1  0
 37 38  2  0
 19  1  1  0
 30 22  1  0
 38 32  1  0
 19  4  1  0
 16  6  1  0
 14  9  1  0
M  END
$$$$
