
     RDKit          3D

 38 43  0  0  0  0  0  0  0  0999 V2000
  165.3978  154.4733  125.6171 C   0  0  1  0  0  0  0  0  0  0  0  0
  166.3823  154.0678  124.5736 C   0  0  0  0  0  0  0  0  0  0  0  0
  166.3484  152.5332  124.6608 C   0  0  0  0  0  0  0  0  0  0  0  0
  166.3377  152.3500  126.1480 C   0  0  2  0  0  0  0  0  0  0  0  0
  167.6357  152.6909  126.5923 O   0  0  0  0  0  0  0  0  0  0  0  0
  166.0864  150.9409  126.6008 C   0  0  2  0  0  0  0  0  0  0  0  0
  167.1535  150.0239  126.0670 C   0  0  0  0  0  0  0  0  0  0  0  0
  166.8818  148.5760  126.2896 C   0  0  0  0  0  0  0  0  0  0  0  0
  165.4387  148.2360  126.1116 C   0  0  0  0  0  0  0  0  0  0  0  0
  165.1601  147.1411  125.4123 C   0  0  0  0  0  0  0  0  0  0  0  0
  163.7648  146.6874  125.1597 C   0  0  2  0  0  0  0  0  0  0  0  0
  162.8062  147.3037  126.1501 C   0  0  0  0  0  0  0  0  0  0  0  0
  163.0175  148.7839  126.1505 C   0  0  0  0  0  0  0  0  0  0  0  0
  164.3969  149.1103  126.7078 C   0  0  1  0  0  0  0  0  0  0  0  0
  164.3051  148.9346  128.2069 C   0  0  0  0  0  0  0  0  0  0  0  0
  164.6896  150.5288  126.3117 C   0  0  1  0  0  0  0  0  0  0  0  0
  163.7693  151.4545  127.0888 C   0  0  0  0  0  0  0  0  0  0  0  0
  163.9607  152.8870  126.7812 C   0  0  0  0  0  0  0  0  0  0  0  0
  165.3855  153.3514  126.6673 C   0  0  2  0  0  0  0  0  0  0  0  0
  165.9115  153.8697  127.9996 C   0  0  0  0  0  0  0  0  0  0  0  0
  163.7427  145.3120  125.2271 O   0  0  0  0  0  0  0  0  0  0  0  0
  162.7987  144.8019  126.1065 C   0  0  2  0  0  0  0  0  0  0  0  0
  163.2946  144.9539  127.3939 O   0  0  0  0  0  0  0  0  0  0  0  0
  162.4705  144.4152  128.3575 C   0  0  1  0  0  0  0  0  0  0  0  0
  161.0936  145.0008  128.3904 C   0  0  0  0  0  0  0  0  0  0  0  0
  162.4695  142.9151  128.1921 C   0  0  2  0  0  0  0  0  0  0  0  0
  163.7817  142.4834  128.3910 O   0  0  0  0  0  0  0  0  0  0  0  0
  161.9990  142.5279  126.8276 C   0  0  1  0  0  0  0  0  0  0  0  0
  160.6005  142.4063  126.7965 O   0  0  0  0  0  0  0  0  0  0  0  0
  162.5215  143.3864  125.7240 C   0  0  1  0  0  0  0  0  0  0  0  0
  161.5818  143.3990  124.6879 O   0  0  0  0  0  0  0  0  0  0  0  0
  165.6660  155.7944  126.1848 C   0  0  0  0  0  0  0  0  0  0  0  0
  164.6328  156.5409  126.7002 C   0  0  0  0  0  0  0  0  0  0  0  0
  164.8237  157.7517  127.2246 O   0  0  0  0  0  0  0  0  0  0  0  0
  166.0027  158.2966  127.2785 C   0  0  0  0  0  0  0  0  0  0  0  0
  166.1138  159.4421  127.7860 O   0  0  0  0  0  0  0  0  0  0  0  0
  167.0707  157.5923  126.7770 C   0  0  0  0  0  0  0  0  0  0  0  0
  166.9336  156.3378  126.2234 C   0  0  0  0  0  0  0  0  0  0  0  0
  1  2  1  0
  2  3  1  0
  3  4  1  0
  4  5  1  1
  4  6  1  0
  6  7  1  6
  7  8  1  0
  8  9  1  0
  9 10  2  0
 10 11  1  0
 11 12  1  0
 12 13  1  0
 13 14  1  0
 14 15  1  1
 14 16  1  0
 16 17  1  1
 17 18  1  0
 18 19  1  0
 19 20  1  1
 11 21  1  1
 22 21  1  6
 22 23  1  0
 23 24  1  0
 24 25  1  6
 24 26  1  0
 26 27  1  6
 26 28  1  0
 28 29  1  1
 28 30  1  0
 30 31  1  6
  1 32  1  1
 32 33  2  0
 33 34  1  0
 34 35  1  0
 35 36  2  0
 35 37  1  0
 37 38  2  0
 19  1  1  0
 30 22  1  0
 38 32  1  0
 19  4  1  0
 16  6  1  0
 14  9  1  0
M  END
$$$$
