
     RDKit          3D

 38 43  0  0  0  0  0  0  0  0999 V2000
  166.2509  154.3420  126.7457 C   0  0  1  0  0  0  0  0  0  0  0  0
  166.6003  154.0513  128.1656 C   0  0  0  0  0  0  0  0  0  0  0  0
  166.6600  152.5153  128.1871 C   0  0  0  0  0  0  0  0  0  0  0  0
  165.4464  152.1889  127.3709 C   0  0  2  0  0  0  0  0  0  0  0  0
  164.3336  152.5010  128.1849 O   0  0  0  0  0  0  0  0  0  0  0  0
  165.3143  150.7397  127.0023 C   0  0  2  0  0  0  0  0  0  0  0  0
  165.2331  149.8917  128.2428 C   0  0  0  0  0  0  0  0  0  0  0  0
  165.3060  148.4258  127.9863 C   0  0  0  0  0  0  0  0  0  0  0  0
  166.2784  148.0870  126.9050 C   0  0  0  0  0  0  0  0  0  0  0  0
  167.0933  147.0616  127.1280 C   0  0  0  0  0  0  0  0  0  0  0  0
  168.1096  146.6174  126.1346 C   0  0  2  0  0  0  0  0  0  0  0  0
  167.7743  147.1233  124.7522 C   0  0  0  0  0  0  0  0  0  0  0  0
  167.5477  148.5990  124.8335 C   0  0  0  0  0  0  0  0  0  0  0  0
  166.2970  148.8868  125.6539 C   0  0  1  0  0  0  0  0  0  0  0  0
  165.1180  148.5658  124.7631 C   0  0  0  0  0  0  0  0  0  0  0  0
  166.3585  150.3405  126.0252 C   0  0  1  0  0  0  0  0  0  0  0  0
  166.1560  151.1754  124.7723 C   0  0  0  0  0  0  0  0  0  0  0  0
  166.1992  152.6331  125.0097 C   0  0  0  0  0  0  0  0  0  0  0  0
  165.4698  153.1237  126.2287 C   0  0  2  0  0  0  0  0  0  0  0  0
  164.0354  153.5171  125.8997 C   0  0  0  0  0  0  0  0  0  0  0  0
  168.1675  145.2418  126.1668 O   0  0  0  0  0  0  0  0  0  0  0  0
  169.1419  144.7345  127.0140 C   0  0  2  0  0  0  0  0  0  0  0  0
  170.3789  145.0056  126.4459 O   0  0  0  0  0  0  0  0  0  0  0  0
  171.4305  144.4830  127.1663 C   0  0  1  0  0  0  0  0  0  0  0  0
  171.5224  144.9810  128.5747 C   0  0  0  0  0  0  0  0  0  0  0  0
  171.3622  142.9781  127.0762 C   0  0  2  0  0  0  0  0  0  0  0  0
  171.4958  142.6453  125.7275 O   0  0  0  0  0  0  0  0  0  0  0  0
  170.0617  142.4691  127.6080 C   0  0  1  0  0  0  0  0  0  0  0  0
  170.1367  142.2572  128.9940 O   0  0  0  0  0  0  0  0  0  0  0  0
  168.8714  143.2813  127.2189 C   0  0  1  0  0  0  0  0  0  0  0  0
  167.9051  143.1630  128.2234 O   0  0  0  0  0  0  0  0  0  0  0  0
  165.5341  155.6051  126.5722 C   0  0  0  0  0  0  0  0  0  0  0  0
  164.2195  155.7057  126.9626 C   0  0  0  0  0  0  0  0  0  0  0  0
  163.5208  156.8324  126.8220 O   0  0  0  0  0  0  0  0  0  0  0  0
  164.0456  157.9038  126.3057 C   0  0  0  0  0  0  0  0  0  0  0  0
  163.3312  158.9337  126.2013 O   0  0  0  0  0  0  0  0  0  0  0  0
  165.3573  157.8572  125.8990 C   0  0  0  0  0  0  0  0  0  0  0  0
  166.1278  156.7211  126.0194 C   0  0  0  0  0  0  0  0  0  0  0  0
  1  2  1  0
  2  3  1  0
  3  4  1  0
  4  5  1  1
  4  6  1  0
  6  7  1  1
  7  8  1  0
  8  9  1  0
  9 10  2  0
 10 11  1  0
 11 12  1  0
 12 13  1  0
 13 14  1  0
 14 15  1  6
 14 16  1  0
 16 17  1  6
 17 18  1  0
 18 19  1  0
 19 20  1  6
 11 21  1  6
 22 21  1  6
 22 23  1  0
 23 24  1  0
 24 25  1  1
 24 26  1  0
 26 27  1  6
 26 28  1  0
 28 29  1  1
 28 30  1  0
 30 31  1  1
  1 32  1  1
 32 33  2  0
 33 34  1  0
 34 35  1  0
 35 36  2  0
 35 37  1  0
 37 38  2  0
 19  1  1  0
 30 22  1  0
 38 32  1  0
 19  4  1  0
 16  6  1  0
 14  9  1  0
M  END
$$$$
