
     RDKit          3D

 38 43  0  0  0  0  0  0  0  0999 V2000
  127.3545  144.9124  133.8079 C   0  0  1  0  0  0  0  0  0  0  0  0
  127.2982  145.3468  132.3829 C   0  0  0  0  0  0  0  0  0  0  0  0
  128.1201  144.2607  131.6699 C   0  0  0  0  0  0  0  0  0  0  0  0
  129.2653  144.1208  132.6263 C   0  0  2  0  0  0  0  0  0  0  0  0
  130.0423  145.2924  132.4783 O   0  0  0  0  0  0  0  0  0  0  0  0
  130.1776  142.9631  132.3415 C   0  0  2  0  0  0  0  0  0  0  0  0
  130.7829  143.1015  130.9707 C   0  0  0  0  0  0  0  0  0  0  0  0
  131.5412  141.9030  130.5142 C   0  0  0  0  0  0  0  0  0  0  0  0
  130.8823  140.6263  130.9209 C   0  0  0  0  0  0  0  0  0  0  0  0
  130.8030  139.6704  130.0015 C   0  0  0  0  0  0  0  0  0  0  0  0
  130.1719  138.3496  130.2738 C   0  0  2  0  0  0  0  0  0  0  0  0
  130.0964  138.0800  131.7574 C   0  0  0  0  0  0  0  0  0  0  0  0
  129.4508  139.2563  132.4170 C   0  0  0  0  0  0  0  0  0  0  0  0
  130.3553  140.4764  132.3011 C   0  0  1  0  0  0  0  0  0  0  0  0
  131.4655  140.2831  133.3095 C   0  0  0  0  0  0  0  0  0  0  0  0
  129.4988  141.6703  132.6104 C   0  0  1  0  0  0  0  0  0  0  0  0
  129.1337  141.6430  134.0847 C   0  0  0  0  0  0  0  0  0  0  0  0
  128.2836  142.7731  134.5130 C   0  0  0  0  0  0  0  0  0  0  0  0
  128.6630  144.1237  133.9740 C   0  0  2  0  0  0  0  0  0  0  0  0
  129.6050  144.8573  134.9202 C   0  0  0  0  0  0  0  0  0  0  0  0
  130.9049  137.3822  129.6231 O   0  0  0  0  0  0  0  0  0  0  0  0
  130.8281  137.4467  128.2395 C   0  0  2  0  0  0  0  0  0  0  0  0
  129.7822  136.6288  127.8354 O   0  0  0  0  0  0  0  0  0  0  0  0
  129.6520  136.5547  126.4659 C   0  0  1  0  0  0  0  0  0  0  0  0
  129.4086  137.8709  125.7964 C   0  0  0  0  0  0  0  0  0  0  0  0
  130.8549  135.8273  125.9167 C   0  0  2  0  0  0  0  0  0  0  0  0
  130.8409  134.5450  126.4673 O   0  0  0  0  0  0  0  0  0  0  0  0
  132.1200  136.5334  126.2830 C   0  0  1  0  0  0  0  0  0  0  0  0
  132.4373  137.5166  125.3321 O   0  0  0  0  0  0  0  0  0  0  0  0
  132.1558  137.0584  127.6798 C   0  0  1  0  0  0  0  0  0  0  0  0
  132.9799  138.1882  127.7088 O   0  0  0  0  0  0  0  0  0  0  0  0
  127.2207  146.0178  134.7565 C   0  0  0  0  0  0  0  0  0  0  0  0
  127.8587  147.2110  134.5119 C   0  0  0  0  0  0  0  0  0  0  0  0
  127.7724  148.2470  135.3466 O   0  0  0  0  0  0  0  0  0  0  0  0
  127.0769  148.1867  136.4432 C   0  0  0  0  0  0  0  0  0  0  0  0
  127.0371  149.2002  137.1872 O   0  0  0  0  0  0  0  0  0  0  0  0
  126.4189  147.0164  136.7354 C   0  0  0  0  0  0  0  0  0  0  0  0
  126.4720  145.9137  135.9106 C   0  0  0  0  0  0  0  0  0  0  0  0
  1  2  1  0
  2  3  1  0
  3  4  1  0
  4  5  1  1
  4  6  1  0
  6  7  1  6
  7  8  1  0
  8  9  1  0
  9 10  2  0
 10 11  1  0
 11 12  1  0
 12 13  1  0
 13 14  1  0
 14 15  1  1
 14 16  1  0
 16 17  1  1
 17 18  1  0
 18 19  1  0
 19 20  1  1
 11 21  1  6
 22 21  1  1
 22 23  1  0
 23 24  1  0
 24 25  1  6
 24 26  1  0
 26 27  1  1
 26 28  1  0
 28 29  1  6
 28 30  1  0
 30 31  1  6
  1 32  1  1
 32 33  2  0
 33 34  1  0
 34 35  1  0
 35 36  2  0
 35 37  1  0
 37 38  2  0
 19  1  1  0
 30 22  1  0
 38 32  1  0
 19  4  1  0
 16  6  1  0
 14  9  1  0
M  END
$$$$
