
     RDKit          3D

 38 43  0  0  0  0  0  0  0  0999 V2000
  165.9590  150.1825  127.1795 C   0  0  1  0  0  0  0  0  0  0  0  0
  165.7578  150.8969  125.8866 C   0  0  0  0  0  0  0  0  0  0  0  0
  164.5775  150.1338  125.2635 C   0  0  0  0  0  0  0  0  0  0  0  0
  164.9778  148.7233  125.5727 C   0  0  2  0  0  0  0  0  0  0  0  0
  166.0656  148.4304  124.7187 O   0  0  0  0  0  0  0  0  0  0  0  0
  163.9198  147.6977  125.2855 C   0  0  2  0  0  0  0  0  0  0  0  0
  163.5500  147.7248  123.8270 C   0  0  0  0  0  0  0  0  0  0  0  0
  162.3665  146.8884  123.4815 C   0  0  0  0  0  0  0  0  0  0  0  0
  161.3040  146.9490  124.5288 C   0  0  0  0  0  0  0  0  0  0  0  0
  160.0520  147.0945  124.1084 C   0  0  0  0  0  0  0  0  0  0  0  0
  158.8976  147.1692  125.0457 C   0  0  2  0  0  0  0  0  0  0  0  0
  159.2565  146.5955  126.3954 C   0  0  0  0  0  0  0  0  0  0  0  0
  160.5168  147.2495  126.8643 C   0  0  0  0  0  0  0  0  0  0  0  0
  161.6763  146.8461  125.9627 C   0  0  1  0  0  0  0  0  0  0  0  0
  162.0457  145.4313  126.3482 C   0  0  0  0  0  0  0  0  0  0  0  0
  162.7836  147.8237  126.2330 C   0  0  1  0  0  0  0  0  0  0  0  0
  163.3243  147.5776  127.6312 C   0  0  0  0  0  0  0  0  0  0  0  0
  164.4237  148.4861  128.0173 C   0  0  0  0  0  0  0  0  0  0  0  0
  165.4662  148.7426  126.9657 C   0  0  2  0  0  0  0  0  0  0  0  0
  166.6281  147.7643  127.0816 C   0  0  0  0  0  0  0  0  0  0  0  0
  157.8399  146.4946  124.4773 O   0  0  0  0  0  0  0  0  0  0  0  0
  157.3512  145.4512  125.2500 C   0  0  2  0  0  0  0  0  0  0  0  0
  158.0402  145.4586  126.4548 O   0  0  0  0  0  0  0  0  0  0  0  0
  157.6895  144.4160  127.2843 C   0  0  1  0  0  0  0  0  0  0  0  0
  156.2400  144.3828  127.6557 C   0  0  0  0  0  0  0  0  0  0  0  0
  158.1662  143.1306  126.6533 C   0  0  2  0  0  0  0  0  0  0  0  0
  159.5557  143.2164  126.5563 O   0  0  0  0  0  0  0  0  0  0  0  0
  157.5638  142.9445  125.2985 C   0  0  1  0  0  0  0  0  0  0  0  0
  156.3229  142.2935  125.3879 O   0  0  0  0  0  0  0  0  0  0  0  0
  157.4982  144.1861  124.4724 C   0  0  1  0  0  0  0  0  0  0  0  0
  156.4043  144.0862  123.6063 O   0  0  0  0  0  0  0  0  0  0  0  0
  167.3334  150.2561  127.6746 C   0  0  0  0  0  0  0  0  0  0  0  0
  167.7285  151.3265  128.4419 C   0  0  0  0  0  0  0  0  0  0  0  0
  168.9700  151.4429  128.9135 O   0  0  0  0  0  0  0  0  0  0  0  0
  169.8806  150.5468  128.6733 C   0  0  0  0  0  0  0  0  0  0  0  0
  171.0329  150.7172  129.1480 O   0  0  0  0  0  0  0  0  0  0  0  0
  169.5380  149.4560  127.9110 C   0  0  0  0  0  0  0  0  0  0  0  0
  168.2711  149.2828  127.3972 C   0  0  0  0  0  0  0  0  0  0  0  0
  1  2  1  0
  2  3  1  0
  3  4  1  0
  4  5  1  6
  4  6  1  0
  6  7  1  6
  7  8  1  0
  8  9  1  0
  9 10  2  0
 10 11  1  0
 11 12  1  0
 12 13  1  0
 13 14  1  0
 14 15  1  1
 14 16  1  0
 16 17  1  1
 17 18  1  0
 18 19  1  0
 19 20  1  6
 11 21  1  6
 22 21  1  6
 22 23  1  0
 23 24  1  0
 24 25  1  6
 24 26  1  0
 26 27  1  6
 26 28  1  0
 28 29  1  1
 28 30  1  0
 30 31  1  6
  1 32  1  6
 32 33  2  0
 33 34  1  0
 34 35  1  0
 35 36  2  0
 35 37  1  0
 37 38  2  0
 19  1  1  0
 30 22  1  0
 38 32  1  0
 19  4  1  0
 16  6  1  0
 14  9  1  0
M  END
$$$$
