
     RDKit          3D

 38 43  0  0  0  0  0  0  0  0999 V2000
  201.0509  137.7523  131.9495 C   0  0  1  0  0  0  0  0  0  0  0  0
  200.8495  137.8922  130.4789 C   0  0  0  0  0  0  0  0  0  0  0  0
  200.2359  136.5358  130.0953 C   0  0  0  0  0  0  0  0  0  0  0  0
  201.0997  135.6139  130.9013 C   0  0  2  0  0  0  0  0  0  0  0  0
  202.3636  135.6108  130.2681 O   0  0  0  0  0  0  0  0  0  0  0  0
  200.6319  134.1877  130.9306 C   0  0  2  0  0  0  0  0  0  0  0  0
  200.5929  133.6234  129.5361 C   0  0  0  0  0  0  0  0  0  0  0  0
  199.9488  132.2835  129.4374 C   0  0  0  0  0  0  0  0  0  0  0  0
  198.7615  132.1577  130.3341 C   0  0  0  0  0  0  0  0  0  0  0  0
  197.6742  131.5949  129.8178 C   0  0  0  0  0  0  0  0  0  0  0  0
  196.4221  131.4077  130.6013 C   0  0  2  0  0  0  0  0  0  0  0  0
  196.6953  131.4742  132.0847 C   0  0  0  0  0  0  0  0  0  0  0  0
  197.4561  132.7300  132.3671 C   0  0  0  0  0  0  0  0  0  0  0  0
  198.8385  132.6521  131.7322 C   0  0  1  0  0  0  0  0  0  0  0  0
  199.6608  131.7347  132.6092 C   0  0  0  0  0  0  0  0  0  0  0  0
  199.3732  134.0551  131.7067 C   0  0  1  0  0  0  0  0  0  0  0  0
  199.6656  134.4942  133.1313 C   0  0  0  0  0  0  0  0  0  0  0  0
  200.1972  135.8687  133.2379 C   0  0  0  0  0  0  0  0  0  0  0  0
  201.2391  136.2522  132.2250 C   0  0  2  0  0  0  0  0  0  0  0  0
  202.6462  135.9831  132.7430 C   0  0  0  0  0  0  0  0  0  0  0  0
  195.8706  130.1971  130.2449 O   0  0  0  0  0  0  0  0  0  0  0  0
  196.7722  129.3072  129.6795 C   0  0  2  0  0  0  0  0  0  0  0  0
  197.5530  130.0137  128.7753 O   0  0  0  0  0  0  0  0  0  0  0  0
  198.4451  129.2160  128.0928 C   0  0  1  0  0  0  0  0  0  0  0  0
  199.4142  128.4844  128.9678 C   0  0  0  0  0  0  0  0  0  0  0  0
  197.6602  128.2990  127.1868 C   0  0  2  0  0  0  0  0  0  0  0  0
  196.9643  129.1114  126.2905 O   0  0  0  0  0  0  0  0  0  0  0  0
  196.7054  127.4598  127.9726 C   0  0  1  0  0  0  0  0  0  0  0  0
  197.3255  126.2819  128.4192 O   0  0  0  0  0  0  0  0  0  0  0  0
  196.0003  128.1847  129.0705 C   0  0  1  0  0  0  0  0  0  0  0  0
  195.7008  127.2704  130.0859 O   0  0  0  0  0  0  0  0  0  0  0  0
  202.1430  138.5769  132.4660 C   0  0  0  0  0  0  0  0  0  0  0  0
  203.4056  138.4511  131.9363 C   0  0  0  0  0  0  0  0  0  0  0  0
  204.4354  139.1756  132.3745 O   0  0  0  0  0  0  0  0  0  0  0  0
  204.3028  140.0456  133.3313 C   0  0  0  0  0  0  0  0  0  0  0  0
  205.3149  140.6964  133.6977 O   0  0  0  0  0  0  0  0  0  0  0  0
  203.0609  140.2110  133.8956 C   0  0  0  0  0  0  0  0  0  0  0  0
  201.9608  139.4904  133.4838 C   0  0  0  0  0  0  0  0  0  0  0  0
  1  2  1  0
  2  3  1  0
  3  4  1  0
  4  5  1  6
  4  6  1  0
  6  7  1  6
  7  8  1  0
  8  9  1  0
  9 10  2  0
 10 11  1  0
 11 12  1  0
 12 13  1  0
 13 14  1  0
 14 15  1  1
 14 16  1  0
 16 17  1  1
 17 18  1  0
 18 19  1  0
 19 20  1  1
 11 21  1  1
 22 21  1  6
 22 23  1  0
 23 24  1  0
 24 25  1  1
 24 26  1  0
 26 27  1  6
 26 28  1  0
 28 29  1  1
 28 30  1  0
 30 31  1  1
  1 32  1  6
 32 33  2  0
 33 34  1  0
 34 35  1  0
 35 36  2  0
 35 37  1  0
 37 38  2  0
 19  1  1  0
 30 22  1  0
 38 32  1  0
 19  4  1  0
 16  6  1  0
 14  9  1  0
M  END
$$$$
