
     RDKit          3D

 38 43  0  0  0  0  0  0  0  0999 V2000
  190.3274  159.5644  129.5163 C   0  0  1  0  0  0  0  0  0  0  0  0
  191.4475  159.3088  130.4665 C   0  0  0  0  0  0  0  0  0  0  0  0
  190.8943  159.8599  131.7908 C   0  0  0  0  0  0  0  0  0  0  0  0
  190.2645  161.1315  131.3091 C   0  0  2  0  0  0  0  0  0  0  0  0
  191.3334  162.0014  130.9947 O   0  0  0  0  0  0  0  0  0  0  0  0
  189.4244  161.8380  132.3333 C   0  0  2  0  0  0  0  0  0  0  0  0
  190.2601  162.2041  133.5300 C   0  0  0  0  0  0  0  0  0  0  0  0
  189.4768  162.7251  134.6854 C   0  0  0  0  0  0  0  0  0  0  0  0
  188.1815  162.0040  134.8637 C   0  0  0  0  0  0  0  0  0  0  0  0
  187.8535  161.6531  136.1025 C   0  0  0  0  0  0  0  0  0  0  0  0
  186.5914  160.9302  136.4210 C   0  0  2  0  0  0  0  0  0  0  0  0
  185.5814  161.0865  135.3097 C   0  0  0  0  0  0  0  0  0  0  0  0
  186.2382  160.7089  134.0206 C   0  0  0  0  0  0  0  0  0  0  0  0
  187.3306  161.7148  133.6815 C   0  0  1  0  0  0  0  0  0  0  0  0
  186.6281  162.9551  133.1766 C   0  0  0  0  0  0  0  0  0  0  0  0
  188.1882  161.0712  132.6302 C   0  0  1  0  0  0  0  0  0  0  0  0
  187.3909  160.9711  131.3410 C   0  0  0  0  0  0  0  0  0  0  0  0
  188.1316  160.3474  130.2249 C   0  0  0  0  0  0  0  0  0  0  0  0
  189.5611  160.7807  130.0596 C   0  0  2  0  0  0  0  0  0  0  0  0
  189.6805  161.9537  129.0950 C   0  0  0  0  0  0  0  0  0  0  0  0
  186.1069  161.4193  137.6138 O   0  0  0  0  0  0  0  0  0  0  0  0
  185.4976  160.4634  138.4134 C   0  0  2  0  0  0  0  0  0  0  0  0
  184.4873  159.8708  137.6688 O   0  0  0  0  0  0  0  0  0  0  0  0
  183.7581  158.9474  138.3855 C   0  0  1  0  0  0  0  0  0  0  0  0
  184.5661  157.8127  138.9327 C   0  0  0  0  0  0  0  0  0  0  0  0
  182.9798  159.6835  139.4485 C   0  0  2  0  0  0  0  0  0  0  0  0
  182.1196  160.5616  138.7875 O   0  0  0  0  0  0  0  0  0  0  0  0
  183.8960  160.4411  140.3539 C   0  0  1  0  0  0  0  0  0  0  0  0
  184.3344  159.6309  141.4136 O   0  0  0  0  0  0  0  0  0  0  0  0
  185.0229  161.1318  139.6603 C   0  0  1  0  0  0  0  0  0  0  0  0
  186.1056  161.2114  140.5423 O   0  0  0  0  0  0  0  0  0  0  0  0
  190.7685  159.7297  128.1316 C   0  0  0  0  0  0  0  0  0  0  0  0
  191.8116  160.5773  127.8417 C   0  0  0  0  0  0  0  0  0  0  0  0
  192.2485  160.7663  126.5963 O   0  0  0  0  0  0  0  0  0  0  0  0
  191.7104  160.1569  125.5819 C   0  0  0  0  0  0  0  0  0  0  0  0
  192.1703  160.3799  124.4326 O   0  0  0  0  0  0  0  0  0  0  0  0
  190.6639  159.2979  125.8166 C   0  0  0  0  0  0  0  0  0  0  0  0
  190.1703  159.0636  127.0818 C   0  0  0  0  0  0  0  0  0  0  0  0
  1  2  1  0
  2  3  1  0
  3  4  1  0
  4  5  1  6
  4  6  1  0
  6  7  1  1
  7  8  1  0
  8  9  1  0
  9 10  2  0
 10 11  1  0
 11 12  1  0
 12 13  1  0
 13 14  1  0
 14 15  1  6
 14 16  1  0
 16 17  1  6
 17 18  1  0
 18 19  1  0
 19 20  1  6
 11 21  1  1
 22 21  1  6
 22 23  1  0
 23 24  1  0
 24 25  1  1
 24 26  1  0
 26 27  1  6
 26 28  1  0
 28 29  1  1
 28 30  1  0
 30 31  1  1
  1 32  1  6
 32 33  2  0
 33 34  1  0
 34 35  1  0
 35 36  2  0
 35 37  1  0
 37 38  2  0
 19  1  1  0
 30 22  1  0
 38 32  1  0
 19  4  1  0
 16  6  1  0
 14  9  1  0
M  END
$$$$
