
     RDKit          3D

 38 43  0  0  0  0  0  0  0  0999 V2000
  120.6745  147.2325  159.2381 C   0  0  1  0  0  0  0  0  0  0  0  0
  119.2728  146.7305  159.3152 C   0  0  0  0  0  0  0  0  0  0  0  0
  118.9475  146.4210  157.8448 C   0  0  0  0  0  0  0  0  0  0  0  0
  119.5412  147.6258  157.1802 C   0  0  2  0  0  0  0  0  0  0  0  0
  118.6891  148.7074  157.5004 O   0  0  0  0  0  0  0  0  0  0  0  0
  119.5919  147.5497  155.6817 C   0  0  2  0  0  0  0  0  0  0  0  0
  118.2042  147.3949  155.1205 C   0  0  0  0  0  0  0  0  0  0  0  0
  118.1651  147.1057  153.6595 C   0  0  0  0  0  0  0  0  0  0  0  0
  119.2564  146.1788  153.2355 C   0  0  0  0  0  0  0  0  0  0  0  0
  118.9222  145.1935  152.4093 C   0  0  0  0  0  0  0  0  0  0  0  0
  119.9114  144.1995  151.9089 C   0  0  2  0  0  0  0  0  0  0  0  0
  121.3218  144.7196  152.0498 C   0  0  0  0  0  0  0  0  0  0  0  0
  121.5163  145.1754  153.4605 C   0  0  0  0  0  0  0  0  0  0  0  0
  120.6377  146.3881  153.7390 C   0  0  1  0  0  0  0  0  0  0  0  0
  121.3089  147.5656  153.0683 C   0  0  0  0  0  0  0  0  0  0  0  0
  120.5775  146.5343  155.2323 C   0  0  1  0  0  0  0  0  0  0  0  0
  121.9432  146.9669  155.7379 C   0  0  0  0  0  0  0  0  0  0  0  0
  122.0120  147.1422  157.2034 C   0  0  0  0  0  0  0  0  0  0  0  0
  120.8444  147.8438  157.8383 C   0  0  2  0  0  0  0  0  0  0  0  0
  121.0853  149.3443  157.9433 C   0  0  0  0  0  0  0  0  0  0  0  0
  119.6080  143.9170  150.5955 O   0  0  0  0  0  0  0  0  0  0  0  0
  118.9860  144.9572  149.9204 C   0  0  2  0  0  0  0  0  0  0  0  0
  117.7432  144.5046  149.4994 O   0  0  0  0  0  0  0  0  0  0  0  0
  117.0555  145.4335  148.7497 C   0  0  1  0  0  0  0  0  0  0  0  0
  116.7890  146.7245  149.4584 C   0  0  0  0  0  0  0  0  0  0  0  0
  117.7862  145.6185  147.4422 C   0  0  2  0  0  0  0  0  0  0  0  0
  117.7789  144.3825  146.7942 O   0  0  0  0  0  0  0  0  0  0  0  0
  119.1909  146.0724  147.6743 C   0  0  1  0  0  0  0  0  0  0  0  0
  119.2559  147.4721  147.7642 O   0  0  0  0  0  0  0  0  0  0  0  0
  119.8823  145.3952  148.8107 C   0  0  1  0  0  0  0  0  0  0  0  0
  120.8264  146.2778  149.3458 O   0  0  0  0  0  0  0  0  0  0  0  0
  121.0196  148.1560  160.3185 C   0  0  0  0  0  0  0  0  0  0  0  0
  122.3327  148.3055  160.6983 C   0  0  0  0  0  0  0  0  0  0  0  0
  122.6990  149.1304  161.6796 O   0  0  0  0  0  0  0  0  0  0  0  0
  121.8313  149.8429  162.3349 C   0  0  0  0  0  0  0  0  0  0  0  0
  122.2434  150.6015  163.2497 O   0  0  0  0  0  0  0  0  0  0  0  0
  120.5047  149.7312  161.9948 C   0  0  0  0  0  0  0  0  0  0  0  0
  120.0679  148.8953  160.9901 C   0  0  0  0  0  0  0  0  0  0  0  0
  1  2  1  0
  2  3  1  0
  3  4  1  0
  4  5  1  6
  4  6  1  0
  6  7  1  1
  7  8  1  0
  8  9  1  0
  9 10  2  0
 10 11  1  0
 11 12  1  0
 12 13  1  0
 13 14  1  0
 14 15  1  6
 14 16  1  0
 16 17  1  6
 17 18  1  0
 18 19  1  0
 19 20  1  1
 11 21  1  6
 22 21  1  6
 22 23  1  0
 23 24  1  0
 24 25  1  1
 24 26  1  0
 26 27  1  1
 26 28  1  0
 28 29  1  1
 28 30  1  0
 30 31  1  1
  1 32  1  1
 32 33  2  0
 33 34  1  0
 34 35  1  0
 35 36  2  0
 35 37  1  0
 37 38  2  0
 19  1  1  0
 30 22  1  0
 38 32  1  0
 19  4  1  0
 16  6  1  0
 14  9  1  0
M  END
$$$$
