
     RDKit          3D

 38 43  0  0  0  0  0  0  0  0999 V2000
  129.5468  140.0648  134.3102 C   0  0  1  0  0  0  0  0  0  0  0  0
  130.9282  140.5572  134.0419 C   0  0  0  0  0  0  0  0  0  0  0  0
  130.7349  142.0814  133.9879 C   0  0  0  0  0  0  0  0  0  0  0  0
  129.4727  142.1626  133.1843 C   0  0  2  0  0  0  0  0  0  0  0  0
  129.8294  141.8143  131.8615 O   0  0  0  0  0  0  0  0  0  0  0  0
  128.8636  143.5331  133.1168 C   0  0  2  0  0  0  0  0  0  0  0  0
  129.8296  144.5023  132.4906 C   0  0  0  0  0  0  0  0  0  0  0  0
  129.3994  145.9268  132.5645 C   0  0  0  0  0  0  0  0  0  0  0  0
  128.7411  146.2537  133.8643 C   0  0  0  0  0  0  0  0  0  0  0  0
  129.1019  147.3888  134.4531 C   0  0  0  0  0  0  0  0  0  0  0  0
  128.5244  147.8350  135.7508 C   0  0  2  0  0  0  0  0  0  0  0  0
  127.2156  147.1365  136.0310 C   0  0  0  0  0  0  0  0  0  0  0  0
  127.4285  145.6634  135.8874 C   0  0  0  0  0  0  0  0  0  0  0  0
  127.7339  145.3233  134.4344 C   0  0  1  0  0  0  0  0  0  0  0  0
  126.4181  145.3948  133.6927 C   0  0  0  0  0  0  0  0  0  0  0  0
  128.3186  143.9402  134.4366 C   0  0  1  0  0  0  0  0  0  0  0  0
  127.2296  142.9482  134.8076 C   0  0  0  0  0  0  0  0  0  0  0  0
  127.6861  141.5435  134.8469 C   0  0  0  0  0  0  0  0  0  0  0  0
  128.5870  141.1122  133.7240 C   0  0  2  0  0  0  0  0  0  0  0  0
  127.7927  140.5132  132.5704 C   0  0  0  0  0  0  0  0  0  0  0  0
  128.3647  149.2021  135.7013 O   0  0  0  0  0  0  0  0  0  0  0  0
  127.1097  149.6117  135.2752 C   0  0  2  0  0  0  0  0  0  0  0  0
  127.1881  149.8673  133.9133 O   0  0  0  0  0  0  0  0  0  0  0  0
  126.0119  150.3534  133.3859 C   0  0  1  0  0  0  0  0  0  0  0  0
  124.8370  149.4411  133.5520 C   0  0  0  0  0  0  0  0  0  0  0  0
  125.7738  151.7308  133.9548 C   0  0  2  0  0  0  0  0  0  0  0  0
  126.8443  152.5288  133.5486 O   0  0  0  0  0  0  0  0  0  0  0  0
  125.6981  151.6875  135.4466 C   0  0  1  0  0  0  0  0  0  0  0  0
  124.3871  151.4219  135.8734 O   0  0  0  0  0  0  0  0  0  0  0  0
  126.7010  150.7909  136.0933 C   0  0  1  0  0  0  0  0  0  0  0  0
  126.1624  150.3139  137.2929 O   0  0  0  0  0  0  0  0  0  0  0  0
  129.3055  138.7129  133.8067 C   0  0  0  0  0  0  0  0  0  0  0  0
  128.4509  137.8733  134.4815 C   0  0  0  0  0  0  0  0  0  0  0  0
  128.2007  136.6311  134.0669 O   0  0  0  0  0  0  0  0  0  0  0  0
  128.7530  136.1421  132.9965 C   0  0  0  0  0  0  0  0  0  0  0  0
  128.4742  134.9625  132.6605 O   0  0  0  0  0  0  0  0  0  0  0  0
  129.6157  136.9401  132.2844 C   0  0  0  0  0  0  0  0  0  0  0  0
  129.9120  138.2310  132.6650 C   0  0  0  0  0  0  0  0  0  0  0  0
  1  2  1  0
  2  3  1  0
  3  4  1  0
  4  5  1  6
  4  6  1  0
  6  7  1  1
  7  8  1  0
  8  9  1  0
  9 10  2  0
 10 11  1  0
 11 12  1  0
 12 13  1  0
 13 14  1  0
 14 15  1  6
 14 16  1  0
 16 17  1  6
 17 18  1  0
 18 19  1  0
 19 20  1  6
 11 21  1  6
 22 21  1  1
 22 23  1  0
 23 24  1  0
 24 25  1  1
 24 26  1  0
 26 27  1  1
 26 28  1  0
 28 29  1  6
 28 30  1  0
 30 31  1  1
  1 32  1  6
 32 33  2  0
 33 34  1  0
 34 35  1  0
 35 36  2  0
 35 37  1  0
 37 38  2  0
 19  1  1  0
 30 22  1  0
 38 32  1  0
 19  4  1  0
 16  6  1  0
 14  9  1  0
M  END
$$$$
