
     RDKit          3D

 38 43  0  0  0  0  0  0  0  0999 V2000
  192.3349  157.8919  116.9486 C   0  0  1  0  0  0  0  0  0  0  0  0
  193.7309  157.5518  117.3465 C   0  0  0  0  0  0  0  0  0  0  0  0
  193.6761  157.6560  118.8793 C   0  0  0  0  0  0  0  0  0  0  0  0
  192.8719  158.9111  119.0335 C   0  0  2  0  0  0  0  0  0  0  0  0
  193.7245  159.9705  118.6473 O   0  0  0  0  0  0  0  0  0  0  0  0
  192.4360  159.2033  120.4400 C   0  0  2  0  0  0  0  0  0  0  0  0
  193.6352  159.3537  121.3367 C   0  0  0  0  0  0  0  0  0  0  0  0
  193.3059  159.4420  122.7870 C   0  0  0  0  0  0  0  0  0  0  0  0
  192.1881  158.5296  123.1714 C   0  0  0  0  0  0  0  0  0  0  0  0
  192.3428  157.8251  124.2872 C   0  0  0  0  0  0  0  0  0  0  0  0
  191.3067  156.8789  124.7853 C   0  0  2  0  0  0  0  0  0  0  0  0
  189.9584  157.1814  124.1771 C   0  0  0  0  0  0  0  0  0  0  0  0
  190.1166  157.2478  122.6918 C   0  0  0  0  0  0  0  0  0  0  0  0
  190.9774  158.4467  122.3155 C   0  0  1  0  0  0  0  0  0  0  0  0
  190.0983  159.6680  122.4642 C   0  0  0  0  0  0  0  0  0  0  0  0
  191.4178  158.2242  120.8972 C   0  0  1  0  0  0  0  0  0  0  0  0
  190.2119  158.3574  119.9830 C   0  0  0  0  0  0  0  0  0  0  0  0
  190.5191  158.1548  118.5519 C   0  0  0  0  0  0  0  0  0  0  0  0
  191.7764  158.8072  118.0496 C   0  0  2  0  0  0  0  0  0  0  0  0
  191.4987  160.1967  117.4904 C   0  0  0  0  0  0  0  0  0  0  0  0
  191.2705  156.9676  126.1592 O   0  0  0  0  0  0  0  0  0  0  0  0
  190.0511  156.6145  126.7187 C   0  0  2  0  0  0  0  0  0  0  0  0
  189.2460  157.7450  126.7260 O   0  0  0  0  0  0  0  0  0  0  0  0
  188.0249  157.5350  127.3281 C   0  0  1  0  0  0  0  0  0  0  0  0
  187.1981  156.4625  126.6905 C   0  0  0  0  0  0  0  0  0  0  0  0
  188.2591  157.3018  128.8007 C   0  0  2  0  0  0  0  0  0  0  0  0
  188.8475  158.4615  129.3072 O   0  0  0  0  0  0  0  0  0  0  0  0
  189.1576  156.1280  129.0199 C   0  0  1  0  0  0  0  0  0  0  0  0
  188.4180  154.9358  129.0771 O   0  0  0  0  0  0  0  0  0  0  0  0
  190.3075  156.0408  128.0722 C   0  0  1  0  0  0  0  0  0  0  0  0
  190.6477  154.6939  127.9091 O   0  0  0  0  0  0  0  0  0  0  0  0
  192.2391  158.4727  115.6096 C   0  0  0  0  0  0  0  0  0  0  0  0
  192.8344  159.6833  115.3440 C   0  0  0  0  0  0  0  0  0  0  0  0
  192.7726  160.2571  114.1422 O   0  0  0  0  0  0  0  0  0  0  0  0
  192.1432  159.7014  113.1496 C   0  0  0  0  0  0  0  0  0  0  0  0
  192.1227  160.2960  112.0414 O   0  0  0  0  0  0  0  0  0  0  0  0
  191.5304  158.4899  113.3615 C   0  0  0  0  0  0  0  0  0  0  0  0
  191.5611  157.8503  114.5817 C   0  0  0  0  0  0  0  0  0  0  0  0
  1  2  1  0
  2  3  1  0
  3  4  1  0
  4  5  1  6
  4  6  1  0
  6  7  1  1
  7  8  1  0
  8  9  1  0
  9 10  2  0
 10 11  1  0
 11 12  1  0
 12 13  1  0
 13 14  1  0
 14 15  1  6
 14 16  1  0
 16 17  1  6
 17 18  1  0
 18 19  1  0
 19 20  1  6
 11 21  1  1
 22 21  1  1
 22 23  1  0
 23 24  1  0
 24 25  1  6
 24 26  1  0
 26 27  1  6
 26 28  1  0
 28 29  1  6
 28 30  1  0
 30 31  1  6
  1 32  1  6
 32 33  2  0
 33 34  1  0
 34 35  1  0
 35 36  2  0
 35 37  1  0
 37 38  2  0
 19  1  1  0
 30 22  1  0
 38 32  1  0
 19  4  1  0
 16  6  1  0
 14  9  1  0
M  END
$$$$
