
     RDKit          3D

 38 43  0  0  0  0  0  0  0  0999 V2000
  164.2251  153.4862  127.2415 C   0  0  1  0  0  0  0  0  0  0  0  0
  163.3601  152.5908  126.4213 C   0  0  0  0  0  0  0  0  0  0  0  0
  164.1628  151.2798  126.3990 C   0  0  0  0  0  0  0  0  0  0  0  0
  165.5438  151.8154  126.1722 C   0  0  2  0  0  0  0  0  0  0  0  0
  165.5742  152.2598  124.8305 O   0  0  0  0  0  0  0  0  0  0  0  0
  166.6381  150.7971  126.3109 C   0  0  2  0  0  0  0  0  0  0  0  0
  166.4444  149.6852  125.3155 C   0  0  0  0  0  0  0  0  0  0  0  0
  167.3599  148.5258  125.5093 C   0  0  0  0  0  0  0  0  0  0  0  0
  167.5825  148.2141  126.9525 C   0  0  0  0  0  0  0  0  0  0  0  0
  167.5313  146.9346  127.3068 C   0  0  0  0  0  0  0  0  0  0  0  0
  167.7354  146.4852  128.7115 C   0  0  2  0  0  0  0  0  0  0  0  0
  168.4511  147.5404  129.5201 C   0  0  0  0  0  0  0  0  0  0  0  0
  167.7234  148.8357  129.3521 C   0  0  0  0  0  0  0  0  0  0  0  0
  167.8466  149.3163  127.9120 C   0  0  1  0  0  0  0  0  0  0  0  0
  169.2467  149.8682  127.7637 C   0  0  0  0  0  0  0  0  0  0  0  0
  166.7910  150.3675  127.7239 C   0  0  1  0  0  0  0  0  0  0  0  0
  167.1700  151.5937  128.5366 C   0  0  0  0  0  0  0  0  0  0  0  0
  166.2000  152.7037  128.4349 C   0  0  0  0  0  0  0  0  0  0  0  0
  165.6678  152.9892  127.0587 C   0  0  2  0  0  0  0  0  0  0  0  0
  166.5033  154.0446  126.3455 C   0  0  0  0  0  0  0  0  0  0  0  0
  168.4441  145.3046  128.6850 O   0  0  0  0  0  0  0  0  0  0  0  0
  169.1910  145.0654  129.8293 C   0  0  2  0  0  0  0  0  0  0  0  0
  170.4214  145.6871  129.6689 O   0  0  0  0  0  0  0  0  0  0  0  0
  171.2835  145.4585  130.7189 C   0  0  1  0  0  0  0  0  0  0  0  0
  170.7746  145.9216  132.0480 C   0  0  0  0  0  0  0  0  0  0  0  0
  171.6617  143.9975  130.7088 C   0  0  2  0  0  0  0  0  0  0  0  0
  172.3104  143.7540  129.4974 O   0  0  0  0  0  0  0  0  0  0  0  0
  170.4505  143.1307  130.8302 C   0  0  1  0  0  0  0  0  0  0  0  0
  170.1275  142.9084  132.1784 O   0  0  0  0  0  0  0  0  0  0  0  0
  169.2764  143.5892  130.0305 C   0  0  1  0  0  0  0  0  0  0  0  0
  168.1082  143.1772  130.6802 O   0  0  0  0  0  0  0  0  0  0  0  0
  164.0570  154.9042  126.9242 C   0  0  0  0  0  0  0  0  0  0  0  0
  163.5229  155.7569  127.8612 C   0  0  0  0  0  0  0  0  0  0  0  0
  163.3451  157.0560  127.6201 O   0  0  0  0  0  0  0  0  0  0  0  0
  163.6683  157.5916  126.4806 C   0  0  0  0  0  0  0  0  0  0  0  0
  163.4742  158.8237  126.3179 O   0  0  0  0  0  0  0  0  0  0  0  0
  164.2067  156.7831  125.5087 C   0  0  0  0  0  0  0  0  0  0  0  0
  164.4133  155.4343  125.7012 C   0  0  0  0  0  0  0  0  0  0  0  0
  1  2  1  0
  2  3  1  0
  3  4  1  0
  4  5  1  6
  4  6  1  0
  6  7  1  6
  7  8  1  0
  8  9  1  0
  9 10  2  0
 10 11  1  0
 11 12  1  0
 12 13  1  0
 13 14  1  0
 14 15  1  1
 14 16  1  0
 16 17  1  1
 17 18  1  0
 18 19  1  0
 19 20  1  6
 11 21  1  6
 22 21  1  6
 22 23  1  0
 23 24  1  0
 24 25  1  1
 24 26  1  0
 26 27  1  6
 26 28  1  0
 28 29  1  1
 28 30  1  0
 30 31  1  1
  1 32  1  6
 32 33  2  0
 33 34  1  0
 34 35  1  0
 35 36  2  0
 35 37  1  0
 37 38  2  0
 19  1  1  0
 30 22  1  0
 38 32  1  0
 19  4  1  0
 16  6  1  0
 14  9  1  0
M  END
$$$$
