
     RDKit          3D

 38 43  0  0  0  0  0  0  0  0999 V2000
  186.6413  148.2915  124.2078 C   0  0  1  0  0  0  0  0  0  0  0  0
  186.7017  146.8023  124.1711 C   0  0  0  0  0  0  0  0  0  0  0  0
  185.2540  146.4012  124.4979 C   0  0  0  0  0  0  0  0  0  0  0  0
  184.9549  147.3609  125.6092 C   0  0  2  0  0  0  0  0  0  0  0  0
  185.6967  146.9094  126.7247 O   0  0  0  0  0  0  0  0  0  0  0  0
  183.5159  147.3916  126.0360 C   0  0  2  0  0  0  0  0  0  0  0  0
  183.0869  146.0330  126.5204 C   0  0  0  0  0  0  0  0  0  0  0  0
  181.6238  145.9088  126.7731 C   0  0  0  0  0  0  0  0  0  0  0  0
  180.8088  146.6376  125.7562 C   0  0  0  0  0  0  0  0  0  0  0  0
  179.7492  146.0027  125.2666 C   0  0  0  0  0  0  0  0  0  0  0  0
  178.8516  146.6134  124.2478 C   0  0  2  0  0  0  0  0  0  0  0  0
  179.0010  148.1156  124.2237 C   0  0  0  0  0  0  0  0  0  0  0  0
  180.4539  148.4416  124.0877 C   0  0  0  0  0  0  0  0  0  0  0  0
  181.2018  148.0083  125.3418 C   0  0  1  0  0  0  0  0  0  0  0  0
  180.8799  149.0323  126.4070 C   0  0  0  0  0  0  0  0  0  0  0  0
  182.6595  147.9917  124.9819 C   0  0  1  0  0  0  0  0  0  0  0  0
  183.1285  149.4210  124.7700 C   0  0  0  0  0  0  0  0  0  0  0  0
  184.5558  149.5359  124.4053 C   0  0  0  0  0  0  0  0  0  0  0  0
  185.5045  148.6600  125.1742 C   0  0  2  0  0  0  0  0  0  0  0  0
  186.0624  149.3795  126.3955 C   0  0  0  0  0  0  0  0  0  0  0  0
  177.5578  146.2410  124.5383 O   0  0  0  0  0  0  0  0  0  0  0  0
  177.2267  144.9622  124.1145 C   0  0  2  0  0  0  0  0  0  0  0  0
  178.4013  144.3218  123.7450 O   0  0  0  0  0  0  0  0  0  0  0  0
  178.1912  143.0592  123.2353 C   0  0  1  0  0  0  0  0  0  0  0  0
  177.5054  142.1193  124.1768 C   0  0  0  0  0  0  0  0  0  0  0  0
  177.4750  143.1972  121.9141 C   0  0  2  0  0  0  0  0  0  0  0  0
  178.3183  143.9189  121.0681 O   0  0  0  0  0  0  0  0  0  0  0  0
  176.1749  143.9146  122.0830 C   0  0  1  0  0  0  0  0  0  0  0  0
  175.1455  143.0154  122.4041 O   0  0  0  0  0  0  0  0  0  0  0  0
  176.2254  145.0799  123.0144 C   0  0  1  0  0  0  0  0  0  0  0  0
  174.9640  145.2369  123.5983 O   0  0  0  0  0  0  0  0  0  0  0  0
  187.9187  148.9150  124.5526 C   0  0  0  0  0  0  0  0  0  0  0  0
  189.0972  148.2771  124.2449 C   0  0  0  0  0  0  0  0  0  0  0  0
  190.2870  148.8006  124.5414 O   0  0  0  0  0  0  0  0  0  0  0  0
  190.3999  149.9486  125.1407 C   0  0  0  0  0  0  0  0  0  0  0  0
  191.5522  150.3858  125.3919 O   0  0  0  0  0  0  0  0  0  0  0  0
  189.2522  150.6284  125.4706 C   0  0  0  0  0  0  0  0  0  0  0  0
  187.9960  150.1366  125.1893 C   0  0  0  0  0  0  0  0  0  0  0  0
  1  2  1  0
  2  3  1  0
  3  4  1  0
  4  5  1  1
  4  6  1  0
  6  7  1  6
  7  8  1  0
  8  9  1  0
  9 10  2  0
 10 11  1  0
 11 12  1  0
 12 13  1  0
 13 14  1  0
 14 15  1  1
 14 16  1  0
 16 17  1  1
 17 18  1  0
 18 19  1  0
 19 20  1  1
 11 21  1  1
 22 21  1  6
 22 23  1  0
 23 24  1  0
 24 25  1  1
 24 26  1  0
 26 27  1  6
 26 28  1  0
 28 29  1  1
 28 30  1  0
 30 31  1  1
  1 32  1  1
 32 33  2  0
 33 34  1  0
 34 35  1  0
 35 36  2  0
 35 37  1  0
 37 38  2  0
 19  1  1  0
 30 22  1  0
 38 32  1  0
 19  4  1  0
 16  6  1  0
 14  9  1  0
M  END
$$$$
