
     RDKit          3D

 53 58  0  0  0  0  0  0  0  0999 V2000
  202.6821  135.3262  130.5206 C   0  0  2  0  0  0  0  0  0  0  0  0
  202.3083  134.6754  129.2371 C   0  0  0  0  0  0  0  0  0  0  0  0
  202.6636  133.2092  129.5434 C   0  0  2  0  0  0  0  0  0  0  0  0
  201.9952  133.1105  130.9248 C   0  0  0  0  0  0  0  0  0  0  0  0
  202.5876  134.3035  131.5512 N   0  0  0  0  0  0  0  0  0  0  0  0
  202.9286  134.2549  132.9099 C   0  0  0  0  0  0  0  0  0  0  0  0
  203.5027  135.2450  133.4236 O   0  0  0  0  0  0  0  0  0  0  0  0
  202.6454  133.0722  133.8054 C   0  0  1  0  0  0  0  0  0  0  0  0
  203.7881  132.2379  133.8116 N   0  0  0  0  0  0  0  0  0  0  0  0
  204.3053  131.3705  134.7778 C   0  0  0  0  0  0  0  0  0  0  0  0
  205.5149  131.5483  135.1904 O   0  0  0  0  0  0  0  0  0  0  0  0
  203.6667  130.2929  135.3833 O   0  0  0  0  0  0  0  0  0  0  0  0
  202.9055  129.3079  134.7280 C   0  0  0  0  0  0  0  0  0  0  0  0
  203.5945  127.9711  134.6708 C   0  0  0  0  0  0  0  0  0  0  0  0
  202.5150  126.9101  134.6045 C   0  0  0  0  0  0  0  0  0  0  0  0
  204.3575  127.7760  135.9606 C   0  0  0  0  0  0  0  0  0  0  0  0
  204.4964  127.8124  133.4907 C   0  0  0  0  0  0  0  0  0  0  0  0
  203.7567  127.2670  132.2737 C   0  0  0  0  0  0  0  0  0  0  0  0
  204.6609  127.3323  131.0792 C   0  0  0  0  0  0  0  0  0  0  0  0
  203.8550  127.5658  129.8079 C   0  0  0  0  0  0  0  0  0  0  0  0
  204.7132  128.0092  128.6908 C   0  0  0  0  0  0  0  0  0  0  0  0
  204.7404  129.2523  128.1604 C   0  0  0  0  0  0  0  0  0  0  0  0
  203.9594  130.4218  128.5437 C   0  0  0  0  0  0  0  0  0  0  0  0
  204.7921  131.5199  128.0901 N   0  0  0  0  0  0  0  0  0  0  0  0
  205.3133  131.0793  126.7982 C   0  0  0  0  0  0  0  0  0  0  0  0
  205.5587  129.6256  127.1149 C   0  0  0  0  0  0  0  0  0  0  0  0
  206.3929  128.6591  126.5915 C   0  0  0  0  0  0  0  0  0  0  0  0
  206.4095  127.3699  127.0925 C   0  0  0  0  0  0  0  0  0  0  0  0
  205.5682  127.0557  128.1394 C   0  0  0  0  0  0  0  0  0  0  0  0
  204.9909  132.7246  128.8270 C   0  0  0  0  0  0  0  0  0  0  0  0
  206.0262  133.4512  128.6161 O   0  0  0  0  0  0  0  0  0  0  0  0
  204.0334  133.0595  129.7569 O   0  0  0  0  0  0  0  0  0  0  0  0
  202.1532  133.5674  135.1222 C   0  0  0  0  0  0  0  0  0  0  0  0
  201.9139  132.4979  136.1365 C   0  0  0  0  0  0  0  0  0  0  0  0
  201.0264  134.5475  134.9669 C   0  0  0  0  0  0  0  0  0  0  0  0
  203.3206  134.4078  135.6914 C   0  0  0  0  0  0  0  0  0  0  0  0
  201.8997  136.5206  130.8669 C   0  0  0  0  0  0  0  0  0  0  0  0
  200.6763  136.3499  131.1835 O   0  0  0  0  0  0  0  0  0  0  0  0
  202.4090  137.8215  130.8710 N   0  0  0  0  0  0  0  0  0  0  0  0
  203.0762  138.3161  132.1251 C   0  0  2  0  0  0  0  0  0  0  0  0
  204.3578  137.6284  132.3321 C   0  0  0  0  0  0  0  0  0  0  0  0
  203.1333  137.3723  133.2403 C   0  0  1  0  0  0  0  0  0  0  0  0
  203.4838  137.6699  134.6588 C   0  0  0  0  0  0  0  0  0  0  0  0
  202.4265  137.3777  135.6701 C   0  0  0  0  0  0  0  0  0  0  0  0
  202.7891  139.7184  132.3807 C   0  0  0  0  0  0  0  0  0  0  0  0
  203.5308  140.5248  133.0060 O   0  0  0  0  0  0  0  0  0  0  0  0
  201.5425  140.2793  131.8856 N   0  0  0  0  0  0  0  0  0  0  0  0
  201.5717  141.4128  130.5851 S   0  0  0  0  0  6  0  0  0  0  0  0
  200.6687  142.5952  130.8868 O   0  0  0  0  0  0  0  0  0  0  0  0
  202.9659  141.9070  130.3371 O   0  0  0  0  0  0  0  0  0  0  0  0
  201.0305  140.5874  129.1115 C   0  0  0  0  0  0  0  0  0  0  0  0
  199.9450  141.3592  128.3279 C   0  0  0  0  0  0  0  0  0  0  0  0
  201.3224  141.1238  127.7789 C   0  0  0  0  0  0  0  0  0  0  0  0
  1  2  1  0
  3  2  1  1
  3  4  1  0
  4  5  1  0
  5  6  1  0
  6  7  2  0
  6  8  1  0
  8  9  1  0
  9 10  1  0
 10 11  2  0
 10 12  1  0
 12 13  1  0
 13 14  1  0
 14 15  1  0
 14 16  1  0
 14 17  1  0
 17 18  1  0
 18 19  1  0
 19 20  1  0
 20 21  1  0
 21 22  2  0
 22 23  1  0
 23 24  1  0
 24 25  1  0
 25 26  1  0
 26 27  2  0
 27 28  1  0
 28 29  2  0
 24 30  1  0
 30 31  2  0
 30 32  1  0
  8 33  1  1
 33 34  1  0
 33 35  1  0
 33 36  1  0
  1 37  1  1
 37 38  2  0
 37 39  1  0
 40 39  1  6
 40 41  1  0
 41 42  1  0
 42 43  1  1
 43 44  1  0
 40 45  1  0
 45 46  2  0
 45 47  1  0
 47 48  1  0
 48 49  2  0
 48 50  2  0
 48 51  1  0
 51 52  1  0
 52 53  1  0
  5  1  1  0
 29 21  1  0
 42 40  1  0
 53 51  1  0
 32  3  1  0
 26 22  1  0
M  END
$$$$
