
     RDKit          3D

 53 58  0  0  0  0  0  0  0  0999 V2000
  128.8371  144.7110  132.6666 C   0  0  2  0  0  0  0  0  0  0  0  0
  128.8606  144.5628  131.1873 C   0  0  0  0  0  0  0  0  0  0  0  0
  129.1732  143.0615  131.0532 C   0  0  2  0  0  0  0  0  0  0  0  0
  128.1514  142.5373  132.0759 C   0  0  0  0  0  0  0  0  0  0  0  0
  128.4996  143.4053  133.2125 N   0  0  0  0  0  0  0  0  0  0  0  0
  128.4510  142.8740  134.5087 C   0  0  0  0  0  0  0  0  0  0  0  0
  128.8208  143.5915  135.4690 O   0  0  0  0  0  0  0  0  0  0  0  0
  127.9761  141.4760  134.8263 C   0  0  1  0  0  0  0  0  0  0  0  0
  129.1035  140.6217  134.8568 N   0  0  0  0  0  0  0  0  0  0  0  0
  129.3649  139.4461  135.5662 C   0  0  0  0  0  0  0  0  0  0  0  0
  130.4042  139.3976  136.3293 O   0  0  0  0  0  0  0  0  0  0  0  0
  128.6253  138.2677  135.5625 O   0  0  0  0  0  0  0  0  0  0  0  0
  128.1152  137.6148  134.4256 C   0  0  0  0  0  0  0  0  0  0  0  0
  128.8442  136.3387  134.1013 C   0  0  0  0  0  0  0  0  0  0  0  0
  127.8678  135.4326  133.3796 C   0  0  0  0  0  0  0  0  0  0  0  0
  129.2255  135.6678  135.4006 C   0  0  0  0  0  0  0  0  0  0  0  0
  130.0442  136.5385  133.2343 C   0  0  0  0  0  0  0  0  0  0  0  0
  129.6938  136.4887  131.7509 C   0  0  0  0  0  0  0  0  0  0  0  0
  130.8912  136.9033  130.9491 C   0  0  0  0  0  0  0  0  0  0  0  0
  130.4622  137.6065  129.6679 C   0  0  0  0  0  0  0  0  0  0  0  0
  131.5791  138.3520  129.0535 C   0  0  0  0  0  0  0  0  0  0  0  0
  131.7045  139.6973  129.0142 C   0  0  0  0  0  0  0  0  0  0  0  0
  130.8030  140.7106  129.5482 C   0  0  0  0  0  0  0  0  0  0  0  0
  131.6857  141.8444  129.7485 N   0  0  0  0  0  0  0  0  0  0  0  0
  132.5623  141.8414  128.5796 C   0  0  0  0  0  0  0  0  0  0  0  0
  132.7661  140.3549  128.4289 C   0  0  0  0  0  0  0  0  0  0  0  0
  133.7498  139.5768  127.8539 C   0  0  0  0  0  0  0  0  0  0  0  0
  133.6765  138.1954  127.8628 C   0  0  0  0  0  0  0  0  0  0  0  0
  132.5902  137.5941  128.4635 C   0  0  0  0  0  0  0  0  0  0  0  0
  131.6249  142.7098  130.8804 C   0  0  0  0  0  0  0  0  0  0  0  0
  132.6491  143.3998  131.2258 O   0  0  0  0  0  0  0  0  0  0  0  0
  130.4344  142.7642  131.5684 O   0  0  0  0  0  0  0  0  0  0  0  0
  127.1183  141.5199  136.0444 C   0  0  0  0  0  0  0  0  0  0  0  0
  127.7847  142.0934  137.2515 C   0  0  0  0  0  0  0  0  0  0  0  0
  126.4106  140.2166  136.2789 C   0  0  0  0  0  0  0  0  0  0  0  0
  125.9873  142.5166  135.6974 C   0  0  0  0  0  0  0  0  0  0  0  0
  127.9436  145.7604  133.1756 C   0  0  0  0  0  0  0  0  0  0  0  0
  126.7025  145.4819  133.2663 O   0  0  0  0  0  0  0  0  0  0  0  0
  128.3661  147.0342  133.5634 N   0  0  0  0  0  0  0  0  0  0  0  0
  128.2325  147.4131  135.0130 C   0  0  2  0  0  0  0  0  0  0  0  0
  129.5573  147.5847  135.6244 C   0  0  0  0  0  0  0  0  0  0  0  0
  128.6351  146.3973  135.9846 C   0  0  1  0  0  0  0  0  0  0  0  0
  128.3651  146.3925  137.4511 C   0  0  0  0  0  0  0  0  0  0  0  0
  127.1549  145.6395  137.8919 C   0  0  0  0  0  0  0  0  0  0  0  0
  127.0480  148.2190  135.2608 C   0  0  0  0  0  0  0  0  0  0  0  0
  125.9127  147.7842  135.5977 O   0  0  0  0  0  0  0  0  0  0  0  0
  127.1410  149.6629  135.1174 N   0  0  0  0  0  0  0  0  0  0  0  0
  125.7004  150.6097  135.0452 S   0  0  0  0  0  6  0  0  0  0  0  0
  124.8465  150.3777  136.2787 O   0  0  0  0  0  0  0  0  0  0  0  0
  126.0247  152.0701  134.9369 O   0  0  0  0  0  0  0  0  0  0  0  0
  124.8046  150.1545  133.5837 C   0  0  0  0  0  0  0  0  0  0  0  0
  125.6801  149.4879  132.4987 C   0  0  0  0  0  0  0  0  0  0  0  0
  124.5892  148.7508  133.2204 C   0  0  0  0  0  0  0  0  0  0  0  0
  1  2  1  0
  3  2  1  1
  3  4  1  0
  4  5  1  0
  5  6  1  0
  6  7  2  0
  6  8  1  0
  8  9  1  0
  9 10  1  0
 10 11  2  0
 10 12  1  0
 12 13  1  0
 13 14  1  0
 14 15  1  0
 14 16  1  0
 14 17  1  0
 17 18  1  0
 18 19  1  0
 19 20  1  0
 20 21  1  0
 21 22  2  0
 22 23  1  0
 23 24  1  0
 24 25  1  0
 25 26  1  0
 26 27  2  0
 27 28  1  0
 28 29  2  0
 24 30  1  0
 30 31  2  0
 30 32  1  0
  8 33  1  1
 33 34  1  0
 33 35  1  0
 33 36  1  0
  1 37  1  6
 37 38  2  0
 37 39  1  0
 40 39  1  6
 40 41  1  0
 41 42  1  0
 42 43  1  1
 43 44  1  0
 40 45  1  0
 45 46  2  0
 45 47  1  0
 47 48  1  0
 48 49  2  0
 48 50  2  0
 48 51  1  0
 51 52  1  0
 52 53  1  0
  5  1  1  0
 29 21  1  0
 42 40  1  0
 53 51  1  0
 32  3  1  0
 26 22  1  0
M  END
$$$$
