
     RDKit          3D

 53 58  0  0  0  0  0  0  0  0999 V2000
  203.8742  136.6026  132.2331 C   0  0  2  0  0  0  0  0  0  0  0  0
  202.8349  136.1381  131.2767 C   0  0  0  0  0  0  0  0  0  0  0  0
  203.0085  134.6121  131.3814 C   0  0  2  0  0  0  0  0  0  0  0  0
  203.0488  134.5054  132.9149 C   0  0  0  0  0  0  0  0  0  0  0  0
  204.0761  135.5236  133.1880 N   0  0  0  0  0  0  0  0  0  0  0  0
  204.9902  135.3000  134.2268 C   0  0  0  0  0  0  0  0  0  0  0  0
  205.9113  136.1318  134.4093 O   0  0  0  0  0  0  0  0  0  0  0  0
  204.9359  134.1071  135.1514 C   0  0  1  0  0  0  0  0  0  0  0  0
  205.7722  133.0969  134.6203 N   0  0  0  0  0  0  0  0  0  0  0  0
  206.5037  132.0742  135.2307 C   0  0  0  0  0  0  0  0  0  0  0  0
  207.7761  132.0113  135.0259 O   0  0  0  0  0  0  0  0  0  0  0  0
  206.0271  131.0692  136.0664 O   0  0  0  0  0  0  0  0  0  0  0  0
  204.8794  130.2858  135.8470 C   0  0  0  0  0  0  0  0  0  0  0  0
  205.1986  128.8633  135.4738 C   0  0  0  0  0  0  0  0  0  0  0  0
  204.0329  128.0067  135.9239 C   0  0  0  0  0  0  0  0  0  0  0  0
  206.4191  128.4316  136.2535 C   0  0  0  0  0  0  0  0  0  0  0  0
  205.4053  128.6607  134.0083 C   0  0  0  0  0  0  0  0  0  0  0  0
  204.0994  128.3548  133.2826 C   0  0  0  0  0  0  0  0  0  0  0  0
  204.3434  128.3731  131.8032 C   0  0  0  0  0  0  0  0  0  0  0  0
  203.1017  128.8480  131.0599 C   0  0  0  0  0  0  0  0  0  0  0  0
  203.4127  129.2385  129.6701 C   0  0  0  0  0  0  0  0  0  0  0  0
  203.4251  130.5013  129.1881 C   0  0  0  0  0  0  0  0  0  0  0  0
  203.1454  131.7464  129.8924 C   0  0  0  0  0  0  0  0  0  0  0  0
  203.8641  132.7260  129.0995 N   0  0  0  0  0  0  0  0  0  0  0  0
  203.6361  132.3198  127.7147 C   0  0  0  0  0  0  0  0  0  0  0  0
  203.7216  130.8234  127.8802 C   0  0  0  0  0  0  0  0  0  0  0  0
  204.0210  129.7812  127.0269 C   0  0  0  0  0  0  0  0  0  0  0  0
  204.0243  128.4683  127.4625 C   0  0  0  0  0  0  0  0  0  0  0  0
  203.7197  128.2080  128.7823 C   0  0  0  0  0  0  0  0  0  0  0  0
  204.6034  133.8115  129.6552 C   0  0  0  0  0  0  0  0  0  0  0  0
  205.5400  134.3713  128.9815 O   0  0  0  0  0  0  0  0  0  0  0  0
  204.2662  134.2183  130.9258 O   0  0  0  0  0  0  0  0  0  0  0  0
  205.2108  134.5599  136.5446 C   0  0  0  0  0  0  0  0  0  0  0  0
  206.5104  135.2744  136.7191 C   0  0  0  0  0  0  0  0  0  0  0  0
  204.9531  133.4734  137.5482 C   0  0  0  0  0  0  0  0  0  0  0  0
  204.1251  135.6221  136.8379 C   0  0  0  0  0  0  0  0  0  0  0  0
  203.5808  137.8755  132.9055 C   0  0  0  0  0  0  0  0  0  0  0  0
  202.9541  137.8230  134.0148 O   0  0  0  0  0  0  0  0  0  0  0  0
  203.9432  139.1300  132.4088 N   0  0  0  0  0  0  0  0  0  0  0  0
  202.8725  139.9771  131.7773 C   0  0  2  0  0  0  0  0  0  0  0  0
  202.3013  140.9043  132.7632 C   0  0  0  0  0  0  0  0  0  0  0  0
  201.5006  139.7061  132.2039 C   0  0  1  0  0  0  0  0  0  0  0  0
  200.2433  140.1909  131.5652 C   0  0  0  0  0  0  0  0  0  0  0  0
  199.2953  139.1364  131.1013 C   0  0  0  0  0  0  0  0  0  0  0  0
  203.1509  140.2568  130.3779 C   0  0  0  0  0  0  0  0  0  0  0  0
  203.0477  139.4382  129.4236 O   0  0  0  0  0  0  0  0  0  0  0  0
  203.5907  141.5914  130.0046 N   0  0  0  0  0  0  0  0  0  0  0  0
  203.6284  142.0452  128.3405 S   0  0  0  0  0  6  0  0  0  0  0  0
  203.8785  143.5359  128.1990 O   0  0  0  0  0  0  0  0  0  0  0  0
  204.6975  141.2933  127.6048 O   0  0  0  0  0  0  0  0  0  0  0  0
  202.0730  141.6113  127.6070 C   0  0  0  0  0  0  0  0  0  0  0  0
  200.8521  142.2335  128.3215 C   0  0  0  0  0  0  0  0  0  0  0  0
  201.2431  142.6056  126.9205 C   0  0  0  0  0  0  0  0  0  0  0  0
  1  2  1  0
  3  2  1  1
  3  4  1  0
  4  5  1  0
  5  6  1  0
  6  7  2  0
  6  8  1  0
  8  9  1  0
  9 10  1  0
 10 11  2  0
 10 12  1  0
 12 13  1  0
 13 14  1  0
 14 15  1  0
 14 16  1  0
 14 17  1  0
 17 18  1  0
 18 19  1  0
 19 20  1  0
 20 21  1  0
 21 22  2  0
 22 23  1  0
 23 24  1  0
 24 25  1  0
 25 26  1  0
 26 27  2  0
 27 28  1  0
 28 29  2  0
 24 30  1  0
 30 31  2  0
 30 32  1  0
  8 33  1  1
 33 34  1  0
 33 35  1  0
 33 36  1  0
  1 37  1  1
 37 38  2  0
 37 39  1  0
 40 39  1  1
 40 41  1  0
 41 42  1  0
 42 43  1  6
 43 44  1  0
 40 45  1  0
 45 46  2  0
 45 47  1  0
 47 48  1  0
 48 49  2  0
 48 50  2  0
 48 51  1  0
 51 52  1  0
 52 53  1  0
  5  1  1  0
 29 21  1  0
 42 40  1  0
 53 51  1  0
 32  3  1  0
 26 22  1  0
M  END
$$$$
