
     RDKit          3D

 53 58  0  0  0  0  0  0  0  0999 V2000
  117.6005  164.3780  144.7961 C   0  0  2  0  0  0  0  0  0  0  0  0
  117.9055  164.0224  146.2072 C   0  0  0  0  0  0  0  0  0  0  0  0
  118.5643  165.3249  146.6965 C   0  0  2  0  0  0  0  0  0  0  0  0
  117.5284  166.3132  146.1354 C   0  0  0  0  0  0  0  0  0  0  0  0
  117.4768  165.8268  144.7472 N   0  0  0  0  0  0  0  0  0  0  0  0
  117.3306  166.7578  143.7096 C   0  0  0  0  0  0  0  0  0  0  0  0
  117.3632  166.3496  142.5238 O   0  0  0  0  0  0  0  0  0  0  0  0
  117.1342  168.2387  143.9312 C   0  0  1  0  0  0  0  0  0  0  0  0
  118.4025  168.8645  143.8912 N   0  0  0  0  0  0  0  0  0  0  0  0
  118.7971  170.1512  143.5143 C   0  0  0  0  0  0  0  0  0  0  0  0
  119.6770  170.2840  142.5800 O   0  0  0  0  0  0  0  0  0  0  0  0
  118.3516  171.3636  144.0315 O   0  0  0  0  0  0  0  0  0  0  0  0
  118.1996  171.6755  145.3948 C   0  0  0  0  0  0  0  0  0  0  0  0
  119.2398  172.6393  145.8990 C   0  0  0  0  0  0  0  0  0  0  0  0
  118.6269  173.3983  147.0581 C   0  0  0  0  0  0  0  0  0  0  0  0
  119.5369  173.6330  144.7998 C   0  0  0  0  0  0  0  0  0  0  0  0
  120.4930  171.9760  146.3687 C   0  0  0  0  0  0  0  0  0  0  0  0
  120.4178  171.5868  147.8413 C   0  0  0  0  0  0  0  0  0  0  0  0
  121.6095  170.7456  148.1887 C   0  0  0  0  0  0  0  0  0  0  0  0
  121.2562  169.7355  149.2726 C   0  0  0  0  0  0  0  0  0  0  0  0
  122.2651  168.6614  149.3683 C   0  0  0  0  0  0  0  0  0  0  0  0
  122.0909  167.3771  148.9842 C   0  0  0  0  0  0  0  0  0  0  0  0
  120.9087  166.7545  148.4017 C   0  0  0  0  0  0  0  0  0  0  0  0
  121.4685  165.6260  147.6820 N   0  0  0  0  0  0  0  0  0  0  0  0
  122.5076  165.1026  148.5658 C   0  0  0  0  0  0  0  0  0  0  0  0
  123.0614  166.4030  149.0912 C   0  0  0  0  0  0  0  0  0  0  0  0
  124.2768  166.7803  149.6245 C   0  0  0  0  0  0  0  0  0  0  0  0
  124.5141  168.0797  150.0351 C   0  0  0  0  0  0  0  0  0  0  0  0
  123.5047  169.0104  149.9032 C   0  0  0  0  0  0  0  0  0  0  0  0
  121.0256  165.2054  146.3933 C   0  0  0  0  0  0  0  0  0  0  0  0
  121.7961  164.5153  145.6354 O   0  0  0  0  0  0  0  0  0  0  0  0
  119.7547  165.5716  146.0135 O   0  0  0  0  0  0  0  0  0  0  0  0
  116.0957  168.7374  142.9854 C   0  0  0  0  0  0  0  0  0  0  0  0
  116.2863  170.1514  142.5448 C   0  0  0  0  0  0  0  0  0  0  0  0
  114.7074  168.4082  143.4530 C   0  0  0  0  0  0  0  0  0  0  0  0
  116.2838  167.8883  141.7061 C   0  0  0  0  0  0  0  0  0  0  0  0
  116.4221  163.7123  144.2244 C   0  0  0  0  0  0  0  0  0  0  0  0
  115.4459  163.4706  145.0086 O   0  0  0  0  0  0  0  0  0  0  0  0
  116.3056  163.3308  142.8856 N   0  0  0  0  0  0  0  0  0  0  0  0
  117.5656  163.2038  142.0739 C   0  0  2  0  0  0  0  0  0  0  0  0
  118.0758  161.8272  142.1273 C   0  0  0  0  0  0  0  0  0  0  0  0
  118.8009  162.9985  142.8287 C   0  0  1  0  0  0  0  0  0  0  0  0
  120.1987  163.1061  142.3206 C   0  0  0  0  0  0  0  0  0  0  0  0
  121.2492  163.3760  143.3449 C   0  0  0  0  0  0  0  0  0  0  0  0
  117.5639  164.0877  140.9194 C   0  0  0  0  0  0  0  0  0  0  0  0
  118.2677  163.9523  139.8812 O   0  0  0  0  0  0  0  0  0  0  0  0
  116.6834  165.2446  140.9248 N   0  0  0  0  0  0  0  0  0  0  0  0
  115.1221  165.1343  140.1988 S   0  0  0  0  0  6  0  0  0  0  0  0
  114.1842  164.3188  141.0706 O   0  0  0  0  0  0  0  0  0  0  0  0
  114.5349  166.4975  139.9826 O   0  0  0  0  0  0  0  0  0  0  0  0
  115.2981  164.3729  138.6067 C   0  0  0  0  0  0  0  0  0  0  0  0
  114.7490  162.9299  138.5421 C   0  0  0  0  0  0  0  0  0  0  0  0
  114.1347  164.0621  137.7708 C   0  0  0  0  0  0  0  0  0  0  0  0
  1  2  1  0
  3  2  1  6
  3  4  1  0
  4  5  1  0
  5  6  1  0
  6  7  2  0
  6  8  1  0
  8  9  1  0
  9 10  1  0
 10 11  2  0
 10 12  1  0
 12 13  1  0
 13 14  1  0
 14 15  1  0
 14 16  1  0
 14 17  1  0
 17 18  1  0
 18 19  1  0
 19 20  1  0
 20 21  1  0
 21 22  2  0
 22 23  1  0
 23 24  1  0
 24 25  1  0
 25 26  1  0
 26 27  2  0
 27 28  1  0
 28 29  2  0
 24 30  1  0
 30 31  2  0
 30 32  1  0
  8 33  1  6
 33 34  1  0
 33 35  1  0
 33 36  1  0
  1 37  1  1
 37 38  2  0
 37 39  1  0
 40 39  1  1
 40 41  1  0
 41 42  1  0
 42 43  1  6
 43 44  1  0
 40 45  1  0
 45 46  2  0
 45 47  1  0
 47 48  1  0
 48 49  2  0
 48 50  2  0
 48 51  1  0
 51 52  1  0
 52 53  1  0
  5  1  1  0
 29 21  1  0
 42 40  1  0
 53 51  1  0
 32  3  1  0
 26 22  1  0
M  END
$$$$
