
     RDKit          3D

 53 58  0  0  0  0  0  0  0  0999 V2000
  102.2230  167.1870  157.7692 C   0  0  2  0  0  0  0  0  0  0  0  0
  102.6936  167.8950  158.9891 C   0  0  0  0  0  0  0  0  0  0  0  0
  103.8665  166.9920  159.4117 C   0  0  2  0  0  0  0  0  0  0  0  0
  104.5388  166.8553  158.0355 C   0  0  0  0  0  0  0  0  0  0  0  0
  103.3640  166.4514  157.2461 N   0  0  0  0  0  0  0  0  0  0  0  0
  103.5300  165.5123  156.2188 C   0  0  0  0  0  0  0  0  0  0  0  0
  102.5163  165.1123  155.5975 O   0  0  0  0  0  0  0  0  0  0  0  0
  104.8678  164.9448  155.8076 C   0  0  1  0  0  0  0  0  0  0  0  0
  105.0738  163.7380  156.5170 N   0  0  0  0  0  0  0  0  0  0  0  0
  105.7893  162.5798  156.2007 C   0  0  0  0  0  0  0  0  0  0  0  0
  105.1707  161.4475  156.1971 O   0  0  0  0  0  0  0  0  0  0  0  0
  107.1378  162.4750  155.8748 O   0  0  0  0  0  0  0  0  0  0  0  0
  108.2031  163.0973  156.5509 C   0  0  0  0  0  0  0  0  0  0  0  0
  109.0376  162.1335  157.3505 C   0  0  0  0  0  0  0  0  0  0  0  0
  110.4341  162.7142  157.4413 C   0  0  0  0  0  0  0  0  0  0  0  0
  109.1250  160.8339  156.5842 C   0  0  0  0  0  0  0  0  0  0  0  0
  108.5237  161.9012  158.7337 C   0  0  0  0  0  0  0  0  0  0  0  0
  109.0827  162.9117  159.7298 C   0  0  0  0  0  0  0  0  0  0  0  0
  108.3706  162.7556  161.0401 C   0  0  0  0  0  0  0  0  0  0  0  0
  108.2731  164.0938  161.7611 C   0  0  0  0  0  0  0  0  0  0  0  0
  107.2699  164.0591  162.8442 C   0  0  0  0  0  0  0  0  0  0  0  0
  106.0709  164.6832  162.8311 C   0  0  0  0  0  0  0  0  0  0  0  0
  105.4900  165.5150  161.7846 C   0  0  0  0  0  0  0  0  0  0  0  0
  104.0668  165.3950  162.0396 N   0  0  0  0  0  0  0  0  0  0  0  0
  103.9472  165.4387  163.4951 C   0  0  0  0  0  0  0  0  0  0  0  0
  105.1613  164.6250  163.8661 C   0  0  0  0  0  0  0  0  0  0  0  0
  105.5132  163.8804  164.9733 C   0  0  0  0  0  0  0  0  0  0  0  0
  106.7263  163.2196  165.0443 C   0  0  0  0  0  0  0  0  0  0  0  0
  107.5954  163.3148  163.9776 C   0  0  0  0  0  0  0  0  0  0  0  0
  103.0831  165.2658  161.0152 C   0  0  0  0  0  0  0  0  0  0  0  0
  101.9398  164.7463  161.2748 O   0  0  0  0  0  0  0  0  0  0  0  0
  103.4182  165.7182  159.7595 O   0  0  0  0  0  0  0  0  0  0  0  0
  104.9321  164.8828  154.3198 C   0  0  0  0  0  0  0  0  0  0  0  0
  104.1206  165.9230  153.6204 C   0  0  0  0  0  0  0  0  0  0  0  0
  104.7350  163.4851  153.8080 C   0  0  0  0  0  0  0  0  0  0  0  0
  106.4018  165.2178  153.9720 C   0  0  0  0  0  0  0  0  0  0  0  0
  101.6135  168.0454  156.7443 C   0  0  0  0  0  0  0  0  0  0  0  0
  100.7179  167.5259  155.9999 O   0  0  0  0  0  0  0  0  0  0  0  0
  101.9516  169.3848  156.5364 N   0  0  0  0  0  0  0  0  0  0  0  0
  103.1662  169.9254  157.2403 C   0  0  2  0  0  0  0  0  0  0  0  0
  104.3885  169.5601  156.5118 C   0  0  0  0  0  0  0  0  0  0  0  0
  104.0328  168.9375  157.8814 C   0  0  1  0  0  0  0  0  0  0  0  0
  105.1312  169.1965  158.8560 C   0  0  0  0  0  0  0  0  0  0  0  0
  105.7331  167.9928  159.4999 C   0  0  0  0  0  0  0  0  0  0  0  0
  102.8946  171.1882  157.9077 C   0  0  0  0  0  0  0  0  0  0  0  0
  103.6349  171.7499  158.7609 O   0  0  0  0  0  0  0  0  0  0  0  0
  101.6671  171.8990  157.5886 N   0  0  0  0  0  0  0  0  0  0  0  0
  100.3034  171.7639  158.6367 S   0  0  0  0  0  6  0  0  0  0  0  0
  100.0734  173.0648  159.3845 O   0  0  0  0  0  0  0  0  0  0  0  0
   99.0668  171.4137  157.8634 O   0  0  0  0  0  0  0  0  0  0  0  0
  100.6061  170.4431  159.7811 C   0  0  0  0  0  0  0  0  0  0  0  0
  101.5302  169.3365  159.2249 C   0  0  0  0  0  0  0  0  0  0  0  0
  101.9314  170.2235  160.3678 C   0  0  0  0  0  0  0  0  0  0  0  0
  1  2  1  0
  3  2  1  6
  3  4  1  0
  4  5  1  0
  5  6  1  0
  6  7  2  0
  6  8  1  0
  8  9  1  0
  9 10  1  0
 10 11  2  0
 10 12  1  0
 12 13  1  0
 13 14  1  0
 14 15  1  0
 14 16  1  0
 14 17  1  0
 17 18  1  0
 18 19  1  0
 19 20  1  0
 20 21  1  0
 21 22  2  0
 22 23  1  0
 23 24  1  0
 24 25  1  0
 25 26  1  0
 26 27  2  0
 27 28  1  0
 28 29  2  0
 24 30  1  0
 30 31  2  0
 30 32  1  0
  8 33  1  6
 33 34  1  0
 33 35  1  0
 33 36  1  0
  1 37  1  6
 37 38  2  0
 37 39  1  0
 40 39  1  6
 40 41  1  0
 41 42  1  0
 42 43  1  1
 43 44  1  0
 40 45  1  0
 45 46  2  0
 45 47  1  0
 47 48  1  0
 48 49  2  0
 48 50  2  0
 48 51  1  0
 51 52  1  0
 52 53  1  0
  5  1  1  0
 29 21  1  0
 42 40  1  0
 53 51  1  0
 32  3  1  0
 26 22  1  0
M  END
$$$$
