
     RDKit          3D

 53 58  0  0  0  0  0  0  0  0999 V2000
  128.0692  144.8979  134.0473 C   0  0  2  0  0  0  0  0  0  0  0  0
  126.6389  144.5937  133.7780 C   0  0  0  0  0  0  0  0  0  0  0  0
  126.7577  143.2036  133.1275 C   0  0  2  0  0  0  0  0  0  0  0  0
  127.7206  142.5714  134.1463 C   0  0  0  0  0  0  0  0  0  0  0  0
  128.7538  143.6196  134.1654 N   0  0  0  0  0  0  0  0  0  0  0  0
  130.0983  143.2415  134.2833 C   0  0  0  0  0  0  0  0  0  0  0  0
  130.9822  144.1296  134.2230 O   0  0  0  0  0  0  0  0  0  0  0  0
  130.5559  141.8158  134.4807 C   0  0  1  0  0  0  0  0  0  0  0  0
  130.8377  141.2614  133.2098 N   0  0  0  0  0  0  0  0  0  0  0  0
  131.7332  140.2686  132.8023 C   0  0  0  0  0  0  0  0  0  0  0  0
  132.6097  140.5536  131.8994 O   0  0  0  0  0  0  0  0  0  0  0  0
  131.8131  138.9560  133.2567 O   0  0  0  0  0  0  0  0  0  0  0  0
  130.7302  138.0771  133.4411 C   0  0  0  0  0  0  0  0  0  0  0  0
  130.6777  136.9815  132.4106 C   0  0  0  0  0  0  0  0  0  0  0  0
  129.9855  135.7947  133.0494 C   0  0  0  0  0  0  0  0  0  0  0  0
  132.0948  136.5706  132.0836 C   0  0  0  0  0  0  0  0  0  0  0  0
  129.9348  137.3603  131.1713 C   0  0  0  0  0  0  0  0  0  0  0  0
  128.4434  137.0621  131.2837 C   0  0  0  0  0  0  0  0  0  0  0  0
  127.7336  137.6549  130.1034 C   0  0  0  0  0  0  0  0  0  0  0  0
  126.3242  138.0877  130.4862 C   0  0  0  0  0  0  0  0  0  0  0  0
  125.7420  139.0019  129.4831 C   0  0  0  0  0  0  0  0  0  0  0  0
  125.5255  140.3255  129.6518 C   0  0  0  0  0  0  0  0  0  0  0  0
  125.8018  141.1505  130.8212 C   0  0  0  0  0  0  0  0  0  0  0  0
  125.9380  142.4760  130.2474 N   0  0  0  0  0  0  0  0  0  0  0  0
  124.8901  142.5485  129.2319 C   0  0  0  0  0  0  0  0  0  0  0  0
  124.9780  141.1452  128.6871 C   0  0  0  0  0  0  0  0  0  0  0  0
  124.6371  140.5619  127.4840 C   0  0  0  0  0  0  0  0  0  0  0  0
  124.8350  139.2125  127.2529 C   0  0  0  0  0  0  0  0  0  0  0  0
  125.3866  138.4431  128.2560 C   0  0  0  0  0  0  0  0  0  0  0  0
  126.9200  143.4243  130.6599 C   0  0  0  0  0  0  0  0  0  0  0  0
  127.2785  144.3714  129.8731 O   0  0  0  0  0  0  0  0  0  0  0  0
  127.4516  143.2730  131.9200 O   0  0  0  0  0  0  0  0  0  0  0  0
  131.6485  141.7927  135.4942 C   0  0  0  0  0  0  0  0  0  0  0  0
  132.7867  142.7134  135.1999 C   0  0  0  0  0  0  0  0  0  0  0  0
  132.0521  140.3913  135.8514 C   0  0  0  0  0  0  0  0  0  0  0  0
  131.0037  142.3499  136.7853 C   0  0  0  0  0  0  0  0  0  0  0  0
  128.3168  145.7568  135.2134 C   0  0  0  0  0  0  0  0  0  0  0  0
  129.5291  145.9286  135.5694 O   0  0  0  0  0  0  0  0  0  0  0  0
  127.3142  146.3919  135.9504 N   0  0  0  0  0  0  0  0  0  0  0  0
  126.8681  147.7583  135.5071 C   0  0  2  0  0  0  0  0  0  0  0  0
  127.0964  148.7449  136.5714 C   0  0  0  0  0  0  0  0  0  0  0  0
  125.6757  148.2918  136.1639 C   0  0  1  0  0  0  0  0  0  0  0  0
  124.8672  149.4736  135.7475 C   0  0  0  0  0  0  0  0  0  0  0  0
  123.4094  149.4126  136.0588 C   0  0  0  0  0  0  0  0  0  0  0  0
  127.0558  147.9584  134.0793 C   0  0  0  0  0  0  0  0  0  0  0  0
  127.5901  147.1414  133.2802 O   0  0  0  0  0  0  0  0  0  0  0  0
  126.5984  149.2018  133.4804 N   0  0  0  0  0  0  0  0  0  0  0  0
  127.7114  150.1921  132.6101 S   0  0  0  0  0  6  0  0  0  0  0  0
  127.0395  151.4730  132.1494 O   0  0  0  0  0  0  0  0  0  0  0  0
  128.8993  150.5355  133.4591 O   0  0  0  0  0  0  0  0  0  0  0  0
  128.3042  149.2731  131.2137 C   0  0  0  0  0  0  0  0  0  0  0  0
  127.2910  148.2392  130.6729 C   0  0  0  0  0  0  0  0  0  0  0  0
  127.7195  149.4399  129.8799 C   0  0  0  0  0  0  0  0  0  0  0  0
  1  2  1  0
  3  2  1  1
  3  4  1  0
  4  5  1  0
  5  6  1  0
  6  7  2  0
  6  8  1  0
  8  9  1  0
  9 10  1  0
 10 11  2  0
 10 12  1  0
 12 13  1  0
 13 14  1  0
 14 15  1  0
 14 16  1  0
 14 17  1  0
 17 18  1  0
 18 19  1  0
 19 20  1  0
 20 21  1  0
 21 22  2  0
 22 23  1  0
 23 24  1  0
 24 25  1  0
 25 26  1  0
 26 27  2  0
 27 28  1  0
 28 29  2  0
 24 30  1  0
 30 31  2  0
 30 32  1  0
  8 33  1  1
 33 34  1  0
 33 35  1  0
 33 36  1  0
  1 37  1  1
 37 38  2  0
 37 39  1  0
 40 39  1  1
 40 41  1  0
 41 42  1  0
 42 43  1  6
 43 44  1  0
 40 45  1  0
 45 46  2  0
 45 47  1  0
 47 48  1  0
 48 49  2  0
 48 50  2  0
 48 51  1  0
 51 52  1  0
 52 53  1  0
  5  1  1  0
 29 21  1  0
 42 40  1  0
 53 51  1  0
 32  3  1  0
 26 22  1  0
M  END
$$$$
