
     RDKit          3D

 53 58  0  0  0  0  0  0  0  0999 V2000
  169.1627  146.0580  126.2742 C   0  0  2  0  0  0  0  0  0  0  0  0
  169.8482  144.8215  126.7344 C   0  0  0  0  0  0  0  0  0  0  0  0
  170.6636  144.4603  125.4796 C   0  0  2  0  0  0  0  0  0  0  0  0
  171.2439  145.8550  125.1919 C   0  0  0  0  0  0  0  0  0  0  0  0
  169.9958  146.6342  125.2298 N   0  0  0  0  0  0  0  0  0  0  0  0
  169.8374  147.7012  124.3347 C   0  0  0  0  0  0  0  0  0  0  0  0
  168.7441  148.3159  124.3162 O   0  0  0  0  0  0  0  0  0  0  0  0
  170.9124  148.1632  123.3798 C   0  0  1  0  0  0  0  0  0  0  0  0
  170.7167  147.5067  122.1418 N   0  0  0  0  0  0  0  0  0  0  0  0
  171.0110  147.8838  120.8285 C   0  0  0  0  0  0  0  0  0  0  0  0
  170.0555  147.9190  119.9620 O   0  0  0  0  0  0  0  0  0  0  0  0
  172.2482  148.2426  120.3030 O   0  0  0  0  0  0  0  0  0  0  0  0
  173.4635  147.5655  120.5121 C   0  0  0  0  0  0  0  0  0  0  0  0
  173.9421  146.8227  119.2939 C   0  0  0  0  0  0  0  0  0  0  0  0
  175.4523  146.7391  119.3813 C   0  0  0  0  0  0  0  0  0  0  0  0
  173.5933  147.6415  118.0725 C   0  0  0  0  0  0  0  0  0  0  0  0
  173.3906  145.4390  119.1812 C   0  0  0  0  0  0  0  0  0  0  0  0
  174.2572  144.4161  119.9080 C   0  0  0  0  0  0  0  0  0  0  0  0
  173.5429  143.0979  119.9354 C   0  0  0  0  0  0  0  0  0  0  0  0
  173.8946  142.3227  121.1985 C   0  0  0  0  0  0  0  0  0  0  0  0
  172.9434  141.2204  121.4457 C   0  0  0  0  0  0  0  0  0  0  0  0
  172.0150  141.1830  122.4274 C   0  0  0  0  0  0  0  0  0  0  0  0
  171.7310  142.1832  123.4491 C   0  0  0  0  0  0  0  0  0  0  0  0
  170.3490  141.9025  123.7899 N   0  0  0  0  0  0  0  0  0  0  0  0
  170.2610  140.4442  123.8056 C   0  0  0  0  0  0  0  0  0  0  0  0
  171.1441  140.1318  122.6240 C   0  0  0  0  0  0  0  0  0  0  0  0
  171.2408  139.0628  121.7569 C   0  0  0  0  0  0  0  0  0  0  0  0
  172.1709  139.0440  120.7332 C   0  0  0  0  0  0  0  0  0  0  0  0
  173.0154  140.1246  120.5863 C   0  0  0  0  0  0  0  0  0  0  0  0
  169.3698  142.9099  124.0351 C   0  0  0  0  0  0  0  0  0  0  0  0
  168.1213  142.6465  123.9071 O   0  0  0  0  0  0  0  0  0  0  0  0
  169.8253  144.1535  124.4084 O   0  0  0  0  0  0  0  0  0  0  0  0
  170.9418  149.6533  123.3663 C   0  0  0  0  0  0  0  0  0  0  0  0
  171.9462  150.2450  122.4330 C   0  0  0  0  0  0  0  0  0  0  0  0
  170.9618  150.2261  124.7540 C   0  0  0  0  0  0  0  0  0  0  0  0
  169.5664  150.0720  122.7954 C   0  0  0  0  0  0  0  0  0  0  0  0
  168.8605  147.0348  127.3292 C   0  0  0  0  0  0  0  0  0  0  0  0
  168.0244  147.9574  127.0536 O   0  0  0  0  0  0  0  0  0  0  0  0
  169.4279  147.0158  128.6057 N   0  0  0  0  0  0  0  0  0  0  0  0
  170.4239  145.9336  128.9211 C   0  0  2  0  0  0  0  0  0  0  0  0
  170.5504  145.0047  127.7900 C   0  0  0  0  0  0  0  0  0  0  0  0
  169.8773  144.5920  129.1190 C   0  0  1  0  0  0  0  0  0  0  0  0
  170.5766  143.4073  129.6943 C   0  0  0  0  0  0  0  0  0  0  0  0
  169.7148  142.2362  130.0284 C   0  0  0  0  0  0  0  0  0  0  0  0
  171.4954  146.4101  129.7807 C   0  0  0  0  0  0  0  0  0  0  0  0
  172.4533  145.7189  130.2236 O   0  0  0  0  0  0  0  0  0  0  0  0
  171.4978  147.8057  130.1885 N   0  0  0  0  0  0  0  0  0  0  0  0
  171.1318  148.2197  131.8230 S   0  0  0  0  0  6  0  0  0  0  0  0
  172.1721  147.6425  132.7659 O   0  0  0  0  0  0  0  0  0  0  0  0
  171.0780  149.7083  131.9987 O   0  0  0  0  0  0  0  0  0  0  0  0
  169.5249  147.5797  132.2157 C   0  0  0  0  0  0  0  0  0  0  0  0
  168.3674  148.3369  131.5266 C   0  0  0  0  0  0  0  0  0  0  0  0
  168.6985  146.9074  131.2089 C   0  0  0  0  0  0  0  0  0  0  0  0
  1  2  1  0
  3  2  1  1
  3  4  1  0
  4  5  1  0
  5  6  1  0
  6  7  2  0
  6  8  1  0
  8  9  1  0
  9 10  1  0
 10 11  2  0
 10 12  1  0
 12 13  1  0
 13 14  1  0
 14 15  1  0
 14 16  1  0
 14 17  1  0
 17 18  1  0
 18 19  1  0
 19 20  1  0
 20 21  1  0
 21 22  2  0
 22 23  1  0
 23 24  1  0
 24 25  1  0
 25 26  1  0
 26 27  2  0
 27 28  1  0
 28 29  2  0
 24 30  1  0
 30 31  2  0
 30 32  1  0
  8 33  1  6
 33 34  1  0
 33 35  1  0
 33 36  1  0
  1 37  1  1
 37 38  2  0
 37 39  1  0
 40 39  1  6
 40 41  1  0
 41 42  1  0
 42 43  1  1
 43 44  1  0
 40 45  1  0
 45 46  2  0
 45 47  1  0
 47 48  1  0
 48 49  2  0
 48 50  2  0
 48 51  1  0
 51 52  1  0
 52 53  1  0
  5  1  1  0
 29 21  1  0
 42 40  1  0
 53 51  1  0
 32  3  1  0
 26 22  1  0
M  END
$$$$
