
     RDKit          3D

 53 58  0  0  0  0  0  0  0  0999 V2000
  187.2608  159.9129  135.2807 C   0  0  2  0  0  0  0  0  0  0  0  0
  187.4341  159.2707  133.9509 C   0  0  0  0  0  0  0  0  0  0  0  0
  186.0195  158.7115  133.7145 C   0  0  2  0  0  0  0  0  0  0  0  0
  185.2241  159.9697  134.1005 C   0  0  0  0  0  0  0  0  0  0  0  0
  185.8496  160.2447  135.4042 N   0  0  0  0  0  0  0  0  0  0  0  0
  185.0515  160.7346  136.4471 C   0  0  0  0  0  0  0  0  0  0  0  0
  185.5693  160.8963  137.5782 O   0  0  0  0  0  0  0  0  0  0  0  0
  183.5903  161.0842  136.2937 C   0  0  1  0  0  0  0  0  0  0  0  0
  182.8235  159.9526  136.6591 N   0  0  0  0  0  0  0  0  0  0  0  0
  181.5428  159.8296  137.2051 C   0  0  0  0  0  0  0  0  0  0  0  0
  181.3993  159.1937  138.3186 O   0  0  0  0  0  0  0  0  0  0  0  0
  180.3473  160.3204  136.6898 O   0  0  0  0  0  0  0  0  0  0  0  0
  179.9212  160.2233  135.3526 C   0  0  0  0  0  0  0  0  0  0  0  0
  178.7936  159.2448  135.1624 C   0  0  0  0  0  0  0  0  0  0  0  0
  178.0018  159.6991  133.9532 C   0  0  0  0  0  0  0  0  0  0  0  0
  177.8864  159.3275  136.3681 C   0  0  0  0  0  0  0  0  0  0  0  0
  179.2510  157.8408  134.9367 C   0  0  0  0  0  0  0  0  0  0  0  0
  179.4970  157.5488  133.4603 C   0  0  0  0  0  0  0  0  0  0  0  0
  180.1497  156.2053  133.3273 C   0  0  0  0  0  0  0  0  0  0  0  0
  181.0815  156.1779  132.1227 C   0  0  0  0  0  0  0  0  0  0  0  0
  182.0114  155.0320  132.1772 C   0  0  0  0  0  0  0  0  0  0  0  0
  183.3392  155.1027  132.4202 C   0  0  0  0  0  0  0  0  0  0  0  0
  184.1547  156.2827  132.6795 C   0  0  0  0  0  0  0  0  0  0  0  0
  185.2739  155.7356  133.4231 N   0  0  0  0  0  0  0  0  0  0  0  0
  185.5773  154.4710  132.7573 C   0  0  0  0  0  0  0  0  0  0  0  0
  184.1737  154.0055  132.4624 C   0  0  0  0  0  0  0  0  0  0  0  0
  183.6015  152.7696  132.2409 C   0  0  0  0  0  0  0  0  0  0  0  0
  182.2484  152.6344  131.9871 C   0  0  0  0  0  0  0  0  0  0  0  0
  181.4639  153.7684  131.9574 C   0  0  0  0  0  0  0  0  0  0  0  0
  185.8715  156.3773  134.5478 C   0  0  0  0  0  0  0  0  0  0  0  0
  186.5362  155.6956  135.4068 O   0  0  0  0  0  0  0  0  0  0  0  0
  185.7008  157.7381  134.6608 O   0  0  0  0  0  0  0  0  0  0  0  0
  183.3174  162.3579  137.0181 C   0  0  0  0  0  0  0  0  0  0  0  0
  183.2165  162.2180  138.5014 C   0  0  0  0  0  0  0  0  0  0  0  0
  182.1997  163.1348  136.3843 C   0  0  0  0  0  0  0  0  0  0  0  0
  184.5750  163.2267  136.7804 C   0  0  0  0  0  0  0  0  0  0  0  0
  188.1173  161.0809  135.5272 C   0  0  0  0  0  0  0  0  0  0  0  0
  189.3751  160.9276  135.3835 O   0  0  0  0  0  0  0  0  0  0  0  0
  187.6429  162.3391  135.9061 N   0  0  0  0  0  0  0  0  0  0  0  0
  187.9116  162.8026  137.3117 C   0  0  2  0  0  0  0  0  0  0  0  0
  189.0452  163.7366  137.3380 C   0  0  0  0  0  0  0  0  0  0  0  0
  189.1429  162.3113  137.9284 C   0  0  1  0  0  0  0  0  0  0  0  0
  189.5237  162.3845  139.3682 C   0  0  0  0  0  0  0  0  0  0  0  0
  190.7348  161.6091  139.7658 C   0  0  0  0  0  0  0  0  0  0  0  0
  186.6937  162.8887  138.1013 C   0  0  0  0  0  0  0  0  0  0  0  0
  185.5152  162.8277  137.6552 O   0  0  0  0  0  0  0  0  0  0  0  0
  186.8033  163.0609  139.5408 N   0  0  0  0  0  0  0  0  0  0  0  0
  186.0501  161.9241  140.5978 S   0  0  0  0  0  6  0  0  0  0  0  0
  186.9069  160.6791  140.7412 O   0  0  0  0  0  0  0  0  0  0  0  0
  185.8206  162.5242  141.9532 O   0  0  0  0  0  0  0  0  0  0  0  0
  184.4630  161.5032  139.9273 C   0  0  0  0  0  0  0  0  0  0  0  0
  183.4592  162.6781  139.9182 C   0  0  0  0  0  0  0  0  0  0  0  0
  183.9927  162.0629  138.6568 C   0  0  0  0  0  0  0  0  0  0  0  0
  1  2  1  0
  3  2  1  1
  3  4  1  0
  4  5  1  0
  5  6  1  0
  6  7  2  0
  6  8  1  0
  8  9  1  0
  9 10  1  0
 10 11  2  0
 10 12  1  0
 12 13  1  0
 13 14  1  0
 14 15  1  0
 14 16  1  0
 14 17  1  0
 17 18  1  0
 18 19  1  0
 19 20  1  0
 20 21  1  0
 21 22  2  0
 22 23  1  0
 23 24  1  0
 24 25  1  0
 25 26  1  0
 26 27  2  0
 27 28  1  0
 28 29  2  0
 24 30  1  0
 30 31  2  0
 30 32  1  0
  8 33  1  1
 33 34  1  0
 33 35  1  0
 33 36  1  0
  1 37  1  6
 37 38  2  0
 37 39  1  0
 40 39  1  6
 40 41  1  0
 41 42  1  0
 42 43  1  1
 43 44  1  0
 40 45  1  0
 45 46  2  0
 45 47  1  0
 47 48  1  0
 48 49  2  0
 48 50  2  0
 48 51  1  0
 51 52  1  0
 52 53  1  0
  5  1  1  0
 29 21  1  0
 42 40  1  0
 53 51  1  0
 32  3  1  0
 26 22  1  0
M  END
$$$$
