
     RDKit          3D

 53 58  0  0  0  0  0  0  0  0999 V2000
  203.8959  137.3990  131.3816 C   0  0  2  0  0  0  0  0  0  0  0  0
  205.0179  136.9881  130.4967 C   0  0  0  0  0  0  0  0  0  0  0  0
  205.4062  135.6402  131.1310 C   0  0  2  0  0  0  0  0  0  0  0  0
  203.9925  135.0494  131.2619 C   0  0  0  0  0  0  0  0  0  0  0  0
  203.3347  136.1782  131.9398 N   0  0  0  0  0  0  0  0  0  0  0  0
  202.3681  135.9087  132.9185 C   0  0  0  0  0  0  0  0  0  0  0  0
  201.8638  136.8689  133.5487 O   0  0  0  0  0  0  0  0  0  0  0  0
  201.8897  134.5192  133.2665 C   0  0  1  0  0  0  0  0  0  0  0  0
  202.6653  134.0421  134.3494 N   0  0  0  0  0  0  0  0  0  0  0  0
  202.3756  133.1447  135.3810 C   0  0  0  0  0  0  0  0  0  0  0  0
  202.5055  133.5380  136.6030 O   0  0  0  0  0  0  0  0  0  0  0  0
  201.9474  131.8259  135.2664 O   0  0  0  0  0  0  0  0  0  0  0  0
  202.4858  130.8532  134.4043 C   0  0  0  0  0  0  0  0  0  0  0  0
  203.2813  129.7998  135.1270 C   0  0  0  0  0  0  0  0  0  0  0  0
  203.2136  128.5347  134.2962 C   0  0  0  0  0  0  0  0  0  0  0  0
  202.6068  129.5218  136.4505 C   0  0  0  0  0  0  0  0  0  0  0  0
  204.7156  130.1656  135.3282 C   0  0  0  0  0  0  0  0  0  0  0  0
  205.5858  129.7402  134.1503 C   0  0  0  0  0  0  0  0  0  0  0  0
  206.9586  130.3194  134.3191 C   0  0  0  0  0  0  0  0  0  0  0  0
  207.5861  130.6176  132.9636 C   0  0  0  0  0  0  0  0  0  0  0  0
  208.7484  131.5203  133.0863 C   0  0  0  0  0  0  0  0  0  0  0  0
  208.7895  132.8133  132.6945 C   0  0  0  0  0  0  0  0  0  0  0  0
  207.7371  133.6102  132.0764 C   0  0  0  0  0  0  0  0  0  0  0  0
  208.1174  134.9647  132.4308 N   0  0  0  0  0  0  0  0  0  0  0  0
  209.5708  134.9911  132.2835 C   0  0  0  0  0  0  0  0  0  0  0  0
  209.8979  133.6232  132.8273 C   0  0  0  0  0  0  0  0  0  0  0  0
  211.0232  133.0630  133.3965 C   0  0  0  0  0  0  0  0  0  0  0  0
  211.0412  131.7453  133.8167 C   0  0  0  0  0  0  0  0  0  0  0  0
  209.9019  130.9842  133.6578 C   0  0  0  0  0  0  0  0  0  0  0  0
  207.1902  135.9738  132.8253 C   0  0  0  0  0  0  0  0  0  0  0  0
  207.5808  136.9786  133.5197 O   0  0  0  0  0  0  0  0  0  0  0  0
  205.8816  135.8161  132.4301 O   0  0  0  0  0  0  0  0  0  0  0  0
  200.4101  134.5458  133.4446 C   0  0  0  0  0  0  0  0  0  0  0  0
  199.8105  133.2385  133.8462 C   0  0  0  0  0  0  0  0  0  0  0  0
  199.7197  135.2262  132.2979 C   0  0  0  0  0  0  0  0  0  0  0  0
  200.1726  135.4849  134.6507 C   0  0  0  0  0  0  0  0  0  0  0  0
  202.8655  138.2273  130.7408 C   0  0  0  0  0  0  0  0  0  0  0  0
  203.2573  139.1228  129.9217 O   0  0  0  0  0  0  0  0  0  0  0  0
  201.4939  138.0958  130.9712 N   0  0  0  0  0  0  0  0  0  0  0  0
  200.7494  139.2872  131.5088 C   0  0  2  0  0  0  0  0  0  0  0  0
  200.1126  138.9603  132.7917 C   0  0  0  0  0  0  0  0  0  0  0  0
  199.2904  139.1920  131.5033 C   0  0  1  0  0  0  0  0  0  0  0  0
  198.3121  140.2966  131.7184 C   0  0  0  0  0  0  0  0  0  0  0  0
  198.1441  140.7578  133.1273 C   0  0  0  0  0  0  0  0  0  0  0  0
  201.3920  140.5411  131.1499 C   0  0  0  0  0  0  0  0  0  0  0  0
  202.0478  141.2871  131.9276 O   0  0  0  0  0  0  0  0  0  0  0  0
  201.2919  141.0116  129.7779 N   0  0  0  0  0  0  0  0  0  0  0  0
  202.0778  142.4767  129.3167 S   0  0  0  0  0  6  0  0  0  0  0  0
  202.1425  142.5949  127.8046 O   0  0  0  0  0  0  0  0  0  0  0  0
  201.3583  143.6685  129.8747 O   0  0  0  0  0  0  0  0  0  0  0  0
  203.7133  142.4740  130.0028 C   0  0  0  0  0  0  0  0  0  0  0  0
  204.3307  143.8833  130.1470 C   0  0  0  0  0  0  0  0  0  0  0  0
  203.9898  143.0267  131.3320 C   0  0  0  0  0  0  0  0  0  0  0  0
  1  2  1  0
  3  2  1  1
  3  4  1  0
  4  5  1  0
  5  6  1  0
  6  7  2  0
  6  8  1  0
  8  9  1  0
  9 10  1  0
 10 11  2  0
 10 12  1  0
 12 13  1  0
 13 14  1  0
 14 15  1  0
 14 16  1  0
 14 17  1  0
 17 18  1  0
 18 19  1  0
 19 20  1  0
 20 21  1  0
 21 22  2  0
 22 23  1  0
 23 24  1  0
 24 25  1  0
 25 26  1  0
 26 27  2  0
 27 28  1  0
 28 29  2  0
 24 30  1  0
 30 31  2  0
 30 32  1  0
  8 33  1  1
 33 34  1  0
 33 35  1  0
 33 36  1  0
  1 37  1  6
 37 38  2  0
 37 39  1  0
 40 39  1  6
 40 41  1  0
 41 42  1  0
 42 43  1  1
 43 44  1  0
 40 45  1  0
 45 46  2  0
 45 47  1  0
 47 48  1  0
 48 49  2  0
 48 50  2  0
 48 51  1  0
 51 52  1  0
 52 53  1  0
  5  1  1  0
 29 21  1  0
 42 40  1  0
 53 51  1  0
 32  3  1  0
 26 22  1  0
M  END
$$$$
