
     RDKit          3D

 53 58  0  0  0  0  0  0  0  0999 V2000
  188.5360  156.5636  126.4230 C   0  0  2  0  0  0  0  0  0  0  0  0
  187.2103  156.7167  125.7673 C   0  0  0  0  0  0  0  0  0  0  0  0
  187.6344  157.2097  124.3720 C   0  0  2  0  0  0  0  0  0  0  0  0
  188.7461  156.1802  124.1093 C   0  0  0  0  0  0  0  0  0  0  0  0
  189.5045  156.3382  125.3609 N   0  0  0  0  0  0  0  0  0  0  0  0
  190.9029  156.2525  125.3194 C   0  0  0  0  0  0  0  0  0  0  0  0
  191.5517  156.4628  126.3723 O   0  0  0  0  0  0  0  0  0  0  0  0
  191.6876  155.9192  124.0728 C   0  0  1  0  0  0  0  0  0  0  0  0
  192.0569  157.1320  123.4446 N   0  0  0  0  0  0  0  0  0  0  0  0
  193.1491  157.4724  122.6415 C   0  0  0  0  0  0  0  0  0  0  0  0
  193.9093  158.4491  123.0060 O   0  0  0  0  0  0  0  0  0  0  0  0
  193.5471  156.8761  121.4492 O   0  0  0  0  0  0  0  0  0  0  0  0
  192.7062  156.5329  120.3748 C   0  0  0  0  0  0  0  0  0  0  0  0
  192.8844  157.4269  119.1773 C   0  0  0  0  0  0  0  0  0  0  0  0
  192.5078  156.6194  117.9520 C   0  0  0  0  0  0  0  0  0  0  0  0
  194.3488  157.7827  119.0657 C   0  0  0  0  0  0  0  0  0  0  0  0
  192.0399  158.6584  119.2186 C   0  0  0  0  0  0  0  0  0  0  0  0
  190.6638  158.4303  118.6021 C   0  0  0  0  0  0  0  0  0  0  0  0
  189.8028  159.6295  118.8649 C   0  0  0  0  0  0  0  0  0  0  0  0
  188.3422  159.2212  119.0064 C   0  0  0  0  0  0  0  0  0  0  0  0
  187.5346  160.2883  119.6308 C   0  0  0  0  0  0  0  0  0  0  0  0
  187.0181  160.2603  120.8796 C   0  0  0  0  0  0  0  0  0  0  0  0
  187.1248  159.2099  121.8845 C   0  0  0  0  0  0  0  0  0  0  0  0
  186.9304  159.9380  123.1242 N   0  0  0  0  0  0  0  0  0  0  0  0
  185.8675  160.8956  122.8275 C   0  0  0  0  0  0  0  0  0  0  0  0
  186.2676  161.2805  121.4255 C   0  0  0  0  0  0  0  0  0  0  0  0
  186.0405  162.3884  120.6349 C   0  0  0  0  0  0  0  0  0  0  0  0
  186.5433  162.4744  119.3491 C   0  0  0  0  0  0  0  0  0  0  0  0
  187.2871  161.4220  118.8575 C   0  0  0  0  0  0  0  0  0  0  0  0
  187.6731  159.6917  124.3164 C   0  0  0  0  0  0  0  0  0  0  0  0
  187.7778  160.6001  125.2154 O   0  0  0  0  0  0  0  0  0  0  0  0
  188.2595  158.4538  124.4487 O   0  0  0  0  0  0  0  0  0  0  0  0
  192.7822  154.9717  124.4271 C   0  0  0  0  0  0  0  0  0  0  0  0
  194.1593  155.5030  124.2011 C   0  0  0  0  0  0  0  0  0  0  0  0
  192.5396  153.6001  123.8666 C   0  0  0  0  0  0  0  0  0  0  0  0
  192.6679  154.7887  125.9590 C   0  0  0  0  0  0  0  0  0  0  0  0
  188.6067  155.5188  127.4535 C   0  0  0  0  0  0  0  0  0  0  0  0
  188.4211  155.8743  128.6640 O   0  0  0  0  0  0  0  0  0  0  0  0
  188.8625  154.1706  127.1916 N   0  0  0  0  0  0  0  0  0  0  0  0
  187.6897  153.2659  126.9291 C   0  0  2  0  0  0  0  0  0  0  0  0
  187.1510  153.4990  125.5824 C   0  0  0  0  0  0  0  0  0  0  0  0
  186.3802  153.9124  126.8571 C   0  0  1  0  0  0  0  0  0  0  0  0
  185.0439  153.2511  126.8777 C   0  0  0  0  0  0  0  0  0  0  0  0
  184.8125  152.2757  127.9826 C   0  0  0  0  0  0  0  0  0  0  0  0
  187.8257  151.9848  127.6031 C   0  0  0  0  0  0  0  0  0  0  0  0
  187.6561  150.8499  127.0790 O   0  0  0  0  0  0  0  0  0  0  0  0
  188.1898  151.9692  129.0106 N   0  0  0  0  0  0  0  0  0  0  0  0
  186.9583  152.0813  130.2138 S   0  0  0  0  0  6  0  0  0  0  0  0
  185.7925  151.1714  129.8711 O   0  0  0  0  0  0  0  0  0  0  0  0
  187.4943  151.7095  131.5644 O   0  0  0  0  0  0  0  0  0  0  0  0
  186.4155  153.7675  130.3032 C   0  0  0  0  0  0  0  0  0  0  0  0
  185.0695  153.9503  131.0398 C   0  0  0  0  0  0  0  0  0  0  0  0
  186.3629  154.4913  131.5768 C   0  0  0  0  0  0  0  0  0  0  0  0
  1  2  1  0
  3  2  1  1
  3  4  1  0
  4  5  1  0
  5  6  1  0
  6  7  2  0
  6  8  1  0
  8  9  1  0
  9 10  1  0
 10 11  2  0
 10 12  1  0
 12 13  1  0
 13 14  1  0
 14 15  1  0
 14 16  1  0
 14 17  1  0
 17 18  1  0
 18 19  1  0
 19 20  1  0
 20 21  1  0
 21 22  2  0
 22 23  1  0
 23 24  1  0
 24 25  1  0
 25 26  1  0
 26 27  2  0
 27 28  1  0
 28 29  2  0
 24 30  1  0
 30 31  2  0
 30 32  1  0
  8 33  1  1
 33 34  1  0
 33 35  1  0
 33 36  1  0
  1 37  1  1
 37 38  2  0
 37 39  1  0
 40 39  1  6
 40 41  1  0
 41 42  1  0
 42 43  1  1
 43 44  1  0
 40 45  1  0
 45 46  2  0
 45 47  1  0
 47 48  1  0
 48 49  2  0
 48 50  2  0
 48 51  1  0
 51 52  1  0
 52 53  1  0
  5  1  1  0
 29 21  1  0
 42 40  1  0
 53 51  1  0
 32  3  1  0
 26 22  1  0
M  END
$$$$
