
     RDKit          3D

 53 58  0  0  0  0  0  0  0  0999 V2000
  191.2117  160.6805  120.3246 C   0  0  2  0  0  0  0  0  0  0  0  0
  190.8717  159.5638  119.4036 C   0  0  0  0  0  0  0  0  0  0  0  0
  190.7479  158.3966  120.3996 C   0  0  2  0  0  0  0  0  0  0  0  0
  189.8747  159.1026  121.4502 C   0  0  0  0  0  0  0  0  0  0  0  0
  190.6756  160.3244  121.6295 N   0  0  0  0  0  0  0  0  0  0  0  0
  190.7761  160.8851  122.9102 C   0  0  0  0  0  0  0  0  0  0  0  0
  191.5198  161.8817  123.0758 O   0  0  0  0  0  0  0  0  0  0  0  0
  190.0369  160.3594  124.1178 C   0  0  1  0  0  0  0  0  0  0  0  0
  190.8832  159.4483  124.7928 N   0  0  0  0  0  0  0  0  0  0  0  0
  190.9800  159.0865  126.1394 C   0  0  0  0  0  0  0  0  0  0  0  0
  192.1123  159.2274  126.7419 O   0  0  0  0  0  0  0  0  0  0  0  0
  189.9784  158.5717  126.9564 O   0  0  0  0  0  0  0  0  0  0  0  0
  189.0807  157.5433  126.6166 C   0  0  0  0  0  0  0  0  0  0  0  0
  189.3654  156.2510  127.3335 C   0  0  0  0  0  0  0  0  0  0  0  0
  188.0543  155.5004  127.4474 C   0  0  0  0  0  0  0  0  0  0  0  0
  189.8347  156.5788  128.7321 C   0  0  0  0  0  0  0  0  0  0  0  0
  190.3563  155.3820  126.6305 C   0  0  0  0  0  0  0  0  0  0  0  0
  189.6892  154.4521  125.6225 C   0  0  0  0  0  0  0  0  0  0  0  0
  190.7475  153.7673  124.8104 C   0  0  0  0  0  0  0  0  0  0  0  0
  190.2456  153.4889  123.3995 C   0  0  0  0  0  0  0  0  0  0  0  0
  191.3549  153.1734  122.4773 C   0  0  0  0  0  0  0  0  0  0  0  0
  191.8125  153.9735  121.4885 C   0  0  0  0  0  0  0  0  0  0  0  0
  191.3435  155.2977  121.0998 C   0  0  0  0  0  0  0  0  0  0  0  0
  192.5112  155.8699  120.4566 N   0  0  0  0  0  0  0  0  0  0  0  0
  193.0793  154.7721  119.6777 C   0  0  0  0  0  0  0  0  0  0  0  0
  192.8534  153.6398  120.6475 C   0  0  0  0  0  0  0  0  0  0  0  0
  193.4517  152.4117  120.8419 C   0  0  0  0  0  0  0  0  0  0  0  0
  193.0271  151.5500  121.8372 C   0  0  0  0  0  0  0  0  0  0  0  0
  191.9809  151.9390  122.6475 C   0  0  0  0  0  0  0  0  0  0  0  0
  192.9257  157.2247  120.6199 C   0  0  0  0  0  0  0  0  0  0  0  0
  194.1434  157.5619  120.4012 O   0  0  0  0  0  0  0  0  0  0  0  0
  191.9703  158.1322  121.0163 O   0  0  0  0  0  0  0  0  0  0  0  0
  189.5078  161.5110  124.9023 C   0  0  0  0  0  0  0  0  0  0  0  0
  190.5067  162.1575  125.8046 C   0  0  0  0  0  0  0  0  0  0  0  0
  188.1923  161.1901  125.5510 C   0  0  0  0  0  0  0  0  0  0  0  0
  189.1649  162.5870  123.8450 C   0  0  0  0  0  0  0  0  0  0  0  0
  190.7541  162.0082  119.8930 C   0  0  0  0  0  0  0  0  0  0  0  0
  190.9382  162.9823  120.6950 O   0  0  0  0  0  0  0  0  0  0  0  0
  190.1346  162.2676  118.6679 N   0  0  0  0  0  0  0  0  0  0  0  0
  189.1298  161.2710  118.1582 C   0  0  2  0  0  0  0  0  0  0  0  0
  189.3681  159.9493  118.7535 C   0  0  0  0  0  0  0  0  0  0  0  0
  189.6443  160.2383  117.2601 C   0  0  1  0  0  0  0  0  0  0  0  0
  188.8522  159.3050  116.4087 C   0  0  0  0  0  0  0  0  0  0  0  0
  189.0629  159.4225  114.9364 C   0  0  0  0  0  0  0  0  0  0  0  0
  187.8396  161.8846  117.8880 C   0  0  0  0  0  0  0  0  0  0  0  0
  186.7408  161.2770  117.7660 O   0  0  0  0  0  0  0  0  0  0  0  0
  187.7688  163.3292  117.7386 N   0  0  0  0  0  0  0  0  0  0  0  0
  187.9270  164.3413  119.1269 S   0  0  0  0  0  6  0  0  0  0  0  0
  187.2508  165.6799  118.8917 O   0  0  0  0  0  0  0  0  0  0  0  0
  187.3245  163.6895  120.3359 O   0  0  0  0  0  0  0  0  0  0  0  0
  189.6543  164.5752  119.4547 C   0  0  0  0  0  0  0  0  0  0  0  0
  190.5669  163.5451  118.7518 C   0  0  0  0  0  0  0  0  0  0  0  0
  190.5839  165.0061  118.4064 C   0  0  0  0  0  0  0  0  0  0  0  0
  1  2  1  0
  3  2  1  6
  3  4  1  0
  4  5  1  0
  5  6  1  0
  6  7  2  0
  6  8  1  0
  8  9  1  0
  9 10  1  0
 10 11  2  0
 10 12  1  0
 12 13  1  0
 13 14  1  0
 14 15  1  0
 14 16  1  0
 14 17  1  0
 17 18  1  0
 18 19  1  0
 19 20  1  0
 20 21  1  0
 21 22  2  0
 22 23  1  0
 23 24  1  0
 24 25  1  0
 25 26  1  0
 26 27  2  0
 27 28  1  0
 28 29  2  0
 24 30  1  0
 30 31  2  0
 30 32  1  0
  8 33  1  1
 33 34  1  0
 33 35  1  0
 33 36  1  0
  1 37  1  6
 37 38  2  0
 37 39  1  0
 40 39  1  1
 40 41  1  0
 41 42  1  0
 42 43  1  6
 43 44  1  0
 40 45  1  0
 45 46  2  0
 45 47  1  0
 47 48  1  0
 48 49  2  0
 48 50  2  0
 48 51  1  0
 51 52  1  0
 52 53  1  0
  5  1  1  0
 29 21  1  0
 42 40  1  0
 53 51  1  0
 32  3  1  0
 26 22  1  0
M  END
$$$$
