
     RDKit          3D

 53 58  0  0  0  0  0  0  0  0999 V2000
  128.9119  145.4386  132.2521 C   0  0  2  0  0  0  0  0  0  0  0  0
  128.1410  145.2110  131.0012 C   0  0  0  0  0  0  0  0  0  0  0  0
  128.5296  143.7556  130.6842 C   0  0  2  0  0  0  0  0  0  0  0  0
  128.3175  143.1661  132.0886 C   0  0  0  0  0  0  0  0  0  0  0  0
  129.1096  144.1339  132.8648 N   0  0  0  0  0  0  0  0  0  0  0  0
  129.8517  143.6750  133.9618 C   0  0  0  0  0  0  0  0  0  0  0  0
  130.5856  144.4864  134.5756 O   0  0  0  0  0  0  0  0  0  0  0  0
  129.8236  142.2487  134.4576 C   0  0  1  0  0  0  0  0  0  0  0  0
  130.8870  141.5456  133.8439 N   0  0  0  0  0  0  0  0  0  0  0  0
  131.6511  140.4541  134.2663 C   0  0  0  0  0  0  0  0  0  0  0  0
  132.9337  140.5796  134.3303 O   0  0  0  0  0  0  0  0  0  0  0  0
  131.1986  139.1939  134.6443 O   0  0  0  0  0  0  0  0  0  0  0  0
  130.2433  138.4189  133.9617 C   0  0  0  0  0  0  0  0  0  0  0  0
  130.8409  137.2281  133.2618 C   0  0  0  0  0  0  0  0  0  0  0  0
  129.7625  136.1673  133.1768 C   0  0  0  0  0  0  0  0  0  0  0  0
  131.9585  136.6849  134.1219 C   0  0  0  0  0  0  0  0  0  0  0  0
  131.3294  137.5274  131.8823 C   0  0  0  0  0  0  0  0  0  0  0  0
  130.2343  137.3501  130.8358 C   0  0  0  0  0  0  0  0  0  0  0  0
  130.7272  137.8655  129.5167 C   0  0  0  0  0  0  0  0  0  0  0  0
  129.5757  138.4357  128.6988 C   0  0  0  0  0  0  0  0  0  0  0  0
  130.0600  139.2794  127.5877 C   0  0  0  0  0  0  0  0  0  0  0  0
  129.9592  140.6254  127.5155 C   0  0  0  0  0  0  0  0  0  0  0  0
  129.3699  141.5462  128.4795 C   0  0  0  0  0  0  0  0  0  0  0  0
  130.0543  142.7913  128.1859 N   0  0  0  0  0  0  0  0  0  0  0  0
  130.1380  142.8321  126.7278 C   0  0  0  0  0  0  0  0  0  0  0  0
  130.4257  141.3768  126.4572 C   0  0  0  0  0  0  0  0  0  0  0  0
  131.0284  140.6968  125.4188 C   0  0  0  0  0  0  0  0  0  0  0  0
  131.1604  139.3200  125.4363 C   0  0  0  0  0  0  0  0  0  0  0  0
  130.6743  138.6221  126.5222 C   0  0  0  0  0  0  0  0  0  0  0  0
  130.5066  143.7049  129.1831 C   0  0  0  0  0  0  0  0  0  0  0  0
  131.4475  144.5364  128.9230 O   0  0  0  0  0  0  0  0  0  0  0  0
  129.8933  143.6485  130.4137 O   0  0  0  0  0  0  0  0  0  0  0  0
  129.7768  142.2535  135.9473 C   0  0  0  0  0  0  0  0  0  0  0  0
  128.5663  142.9077  136.5273 C   0  0  0  0  0  0  0  0  0  0  0  0
  131.0787  142.6997  136.5475 C   0  0  0  0  0  0  0  0  0  0  0  0
  129.6586  140.7633  136.3452 C   0  0  0  0  0  0  0  0  0  0  0  0
  128.3106  146.3948  133.1916 C   0  0  0  0  0  0  0  0  0  0  0  0
  128.9861  147.4366  133.4821 O   0  0  0  0  0  0  0  0  0  0  0  0
  127.0545  146.2346  133.7818 N   0  0  0  0  0  0  0  0  0  0  0  0
  126.0422  147.3323  133.5999 C   0  0  2  0  0  0  0  0  0  0  0  0
  124.7085  146.8765  134.0146 C   0  0  0  0  0  0  0  0  0  0  0  0
  125.0628  147.1356  132.5323 C   0  0  1  0  0  0  0  0  0  0  0  0
  124.1340  148.1521  131.9598 C   0  0  0  0  0  0  0  0  0  0  0  0
  123.9071  148.0765  130.4872 C   0  0  0  0  0  0  0  0  0  0  0  0
  126.6188  148.6493  133.8165 C   0  0  0  0  0  0  0  0  0  0  0  0
  127.3750  149.2678  133.0182 O   0  0  0  0  0  0  0  0  0  0  0  0
  126.3191  149.3499  135.0548 N   0  0  0  0  0  0  0  0  0  0  0  0
  126.9992  150.9095  135.3411 S   0  0  0  0  0  6  0  0  0  0  0  0
  126.7829  151.8148  134.1418 O   0  0  0  0  0  0  0  0  0  0  0  0
  126.3894  151.5445  136.5555 O   0  0  0  0  0  0  0  0  0  0  0  0
  128.7333  150.7139  135.6579 C   0  0  0  0  0  0  0  0  0  0  0  0
  129.3400  151.8427  136.5214 C   0  0  0  0  0  0  0  0  0  0  0  0
  129.2409  150.4238  137.0021 C   0  0  0  0  0  0  0  0  0  0  0  0
  1  2  1  0
  3  2  1  1
  3  4  1  0
  4  5  1  0
  5  6  1  0
  6  7  2  0
  6  8  1  0
  8  9  1  0
  9 10  1  0
 10 11  2  0
 10 12  1  0
 12 13  1  0
 13 14  1  0
 14 15  1  0
 14 16  1  0
 14 17  1  0
 17 18  1  0
 18 19  1  0
 19 20  1  0
 20 21  1  0
 21 22  2  0
 22 23  1  0
 23 24  1  0
 24 25  1  0
 25 26  1  0
 26 27  2  0
 27 28  1  0
 28 29  2  0
 24 30  1  0
 30 31  2  0
 30 32  1  0
  8 33  1  1
 33 34  1  0
 33 35  1  0
 33 36  1  0
  1 37  1  1
 37 38  2  0
 37 39  1  0
 40 39  1  6
 40 41  1  0
 41 42  1  0
 42 43  1  1
 43 44  1  0
 40 45  1  0
 45 46  2  0
 45 47  1  0
 47 48  1  0
 48 49  2  0
 48 50  2  0
 48 51  1  0
 51 52  1  0
 52 53  1  0
  5  1  1  0
 29 21  1  0
 42 40  1  0
 53 51  1  0
 32  3  1  0
 26 22  1  0
M  END
$$$$
