
     RDKit          3D

 53 58  0  0  0  0  0  0  0  0999 V2000
  103.8712  166.3907  154.9409 C   0  0  2  0  0  0  0  0  0  0  0  0
  103.9501  167.6373  155.7475 C   0  0  0  0  0  0  0  0  0  0  0  0
  104.7755  167.1493  156.9518 C   0  0  2  0  0  0  0  0  0  0  0  0
  105.8780  166.4133  156.1723 C   0  0  0  0  0  0  0  0  0  0  0  0
  105.0283  165.5855  155.3010 N   0  0  0  0  0  0  0  0  0  0  0  0
  105.4414  164.2816  154.9949 C   0  0  0  0  0  0  0  0  0  0  0  0
  104.6806  163.5516  154.3153 O   0  0  0  0  0  0  0  0  0  0  0  0
  106.7601  163.6926  155.4367 C   0  0  1  0  0  0  0  0  0  0  0  0
  106.5515  163.0041  156.6551 N   0  0  0  0  0  0  0  0  0  0  0  0
  107.1903  161.8987  157.2237 C   0  0  0  0  0  0  0  0  0  0  0  0
  106.4852  160.8632  157.5327 O   0  0  0  0  0  0  0  0  0  0  0  0
  108.5429  161.7547  157.5159 O   0  0  0  0  0  0  0  0  0  0  0  0
  109.3580  162.7087  158.1518 C   0  0  0  0  0  0  0  0  0  0  0  0
  109.7271  162.3249  159.5594 C   0  0  0  0  0  0  0  0  0  0  0  0
  111.0549  162.9838  159.8729 C   0  0  0  0  0  0  0  0  0  0  0  0
  109.9305  160.8281  159.6042 C   0  0  0  0  0  0  0  0  0  0  0  0
  108.7249  162.7557  160.5799 C   0  0  0  0  0  0  0  0  0  0  0  0
  109.0022  164.1635  161.0965 C   0  0  0  0  0  0  0  0  0  0  0  0
  107.8520  164.6096  161.9488 C   0  0  0  0  0  0  0  0  0  0  0  0
  107.6602  166.1171  161.8456 C   0  0  0  0  0  0  0  0  0  0  0  0
  106.3371  166.5354  162.3510 C   0  0  0  0  0  0  0  0  0  0  0  0
  105.3067  166.9779  161.5963 C   0  0  0  0  0  0  0  0  0  0  0  0
  105.2457  167.1466  160.1497 C   0  0  0  0  0  0  0  0  0  0  0  0
  103.8230  167.0547  159.8810 N   0  0  0  0  0  0  0  0  0  0  0  0
  103.1921  167.7917  160.9734 C   0  0  0  0  0  0  0  0  0  0  0  0
  104.0848  167.3596  162.1093 C   0  0  0  0  0  0  0  0  0  0  0  0
  103.9224  167.2783  163.4772 C   0  0  0  0  0  0  0  0  0  0  0  0
  104.9406  166.8332  164.3009 C   0  0  0  0  0  0  0  0  0  0  0  0
  106.1409  166.4650  163.7298 C   0  0  0  0  0  0  0  0  0  0  0  0
  103.2675  166.3665  158.7622 C   0  0  0  0  0  0  0  0  0  0  0  0
  102.0546  165.9512  158.7923 O   0  0  0  0  0  0  0  0  0  0  0  0
  104.0843  166.1752  157.6714 O   0  0  0  0  0  0  0  0  0  0  0  0
  107.3492  162.9196  154.3067 C   0  0  0  0  0  0  0  0  0  0  0  0
  106.3666  162.0984  153.5386 C   0  0  0  0  0  0  0  0  0  0  0  0
  108.5934  162.1864  154.7177 C   0  0  0  0  0  0  0  0  0  0  0  0
  107.8450  163.9921  153.3083 C   0  0  0  0  0  0  0  0  0  0  0  0
  103.7791  166.5907  153.4883 C   0  0  0  0  0  0  0  0  0  0  0  0
  104.1846  167.7063  153.0222 O   0  0  0  0  0  0  0  0  0  0  0  0
  103.2788  165.6421  152.5931 N   0  0  0  0  0  0  0  0  0  0  0  0
  103.3553  164.1914  152.9835 C   0  0  2  0  0  0  0  0  0  0  0  0
  102.0484  163.7164  153.4575 C   0  0  0  0  0  0  0  0  0  0  0  0
  103.2495  163.9020  154.4128 C   0  0  1  0  0  0  0  0  0  0  0  0
  103.5549  162.6137  155.0988 C   0  0  0  0  0  0  0  0  0  0  0  0
  104.6282  161.7813  154.4816 C   0  0  0  0  0  0  0  0  0  0  0  0
  104.3059  163.4546  152.1666 C   0  0  0  0  0  0  0  0  0  0  0  0
  104.4650  162.2031  152.1613 O   0  0  0  0  0  0  0  0  0  0  0  0
  105.1699  164.1929  151.2598 N   0  0  0  0  0  0  0  0  0  0  0  0
  105.4341  163.6030  149.6601 S   0  0  0  0  0  6  0  0  0  0  0  0
  106.2977  164.5699  148.8702 O   0  0  0  0  0  0  0  0  0  0  0  0
  106.0977  162.2582  149.6884 O   0  0  0  0  0  0  0  0  0  0  0  0
  103.8586  163.4015  148.8709 C   0  0  0  0  0  0  0  0  0  0  0  0
  103.4672  161.9263  148.6289 C   0  0  0  0  0  0  0  0  0  0  0  0
  102.7151  162.8155  149.5765 C   0  0  0  0  0  0  0  0  0  0  0  0
  1  2  1  0
  3  2  1  6
  3  4  1  0
  4  5  1  0
  5  6  1  0
  6  7  2  0
  6  8  1  0
  8  9  1  0
  9 10  1  0
 10 11  2  0
 10 12  1  0
 12 13  1  0
 13 14  1  0
 14 15  1  0
 14 16  1  0
 14 17  1  0
 17 18  1  0
 18 19  1  0
 19 20  1  0
 20 21  1  0
 21 22  2  0
 22 23  1  0
 23 24  1  0
 24 25  1  0
 25 26  1  0
 26 27  2  0
 27 28  1  0
 28 29  2  0
 24 30  1  0
 30 31  2  0
 30 32  1  0
  8 33  1  6
 33 34  1  0
 33 35  1  0
 33 36  1  0
  1 37  1  6
 37 38  2  0
 37 39  1  0
 40 39  1  1
 40 41  1  0
 41 42  1  0
 42 43  1  6
 43 44  1  0
 40 45  1  0
 45 46  2  0
 45 47  1  0
 47 48  1  0
 48 49  2  0
 48 50  2  0
 48 51  1  0
 51 52  1  0
 52 53  1  0
  5  1  1  0
 29 21  1  0
 42 40  1  0
 53 51  1  0
 32  3  1  0
 26 22  1  0
M  END
$$$$
