
     RDKit          3D

 53 58  0  0  0  0  0  0  0  0999 V2000
  188.9825  159.8254  120.6779 C   0  0  2  0  0  0  0  0  0  0  0  0
  187.6340  160.0458  120.0916 C   0  0  0  0  0  0  0  0  0  0  0  0
  187.9908  160.2130  118.6035 C   0  0  2  0  0  0  0  0  0  0  0  0
  188.9327  159.0047  118.4715 C   0  0  0  0  0  0  0  0  0  0  0  0
  189.8145  159.2758  119.6184 N   0  0  0  0  0  0  0  0  0  0  0  0
  191.1809  158.9848  119.5042 C   0  0  0  0  0  0  0  0  0  0  0  0
  191.9433  159.2866  120.4536 O   0  0  0  0  0  0  0  0  0  0  0  0
  191.8009  158.3232  118.2965 C   0  0  1  0  0  0  0  0  0  0  0  0
  192.2651  159.3371  117.4257 N   0  0  0  0  0  0  0  0  0  0  0  0
  193.3153  159.3671  116.5038 C   0  0  0  0  0  0  0  0  0  0  0  0
  194.2245  160.2745  116.6252 O   0  0  0  0  0  0  0  0  0  0  0  0
  193.5245  158.5147  115.4243 O   0  0  0  0  0  0  0  0  0  0  0  0
  192.5533  158.1071  114.4917 C   0  0  0  0  0  0  0  0  0  0  0  0
  192.7365  158.7355  113.1365 C   0  0  0  0  0  0  0  0  0  0  0  0
  192.1506  157.7824  112.1148 C   0  0  0  0  0  0  0  0  0  0  0  0
  194.2186  158.8520  112.8650 C   0  0  0  0  0  0  0  0  0  0  0  0
  192.0646  160.0621  112.9958 C   0  0  0  0  0  0  0  0  0  0  0  0
  190.6208  159.9258  112.5241 C   0  0  0  0  0  0  0  0  0  0  0  0
  189.9482  161.2634  112.6076 C   0  0  0  0  0  0  0  0  0  0  0  0
  188.4659  161.1007  112.9181 C   0  0  0  0  0  0  0  0  0  0  0  0
  187.8617  162.3674  113.3777 C   0  0  0  0  0  0  0  0  0  0  0  0
  187.4602  162.6394  114.6394 C   0  0  0  0  0  0  0  0  0  0  0  0
  187.5209  161.7833  115.8176 C   0  0  0  0  0  0  0  0  0  0  0  0
  187.5340  162.7435  116.9051 N   0  0  0  0  0  0  0  0  0  0  0  0
  186.5807  163.7739  116.4999 C   0  0  0  0  0  0  0  0  0  0  0  0
  186.8993  163.8381  115.0274 C   0  0  0  0  0  0  0  0  0  0  0  0
  186.7464  164.8060  114.0559 C   0  0  0  0  0  0  0  0  0  0  0  0
  187.1383  164.5857  112.7478 C   0  0  0  0  0  0  0  0  0  0  0  0
  187.6934  163.3665  112.4195 C   0  0  0  0  0  0  0  0  0  0  0  0
  188.3431  162.6126  118.0722 C   0  0  0  0  0  0  0  0  0  0  0  0
  188.6441  163.6439  118.7724 O   0  0  0  0  0  0  0  0  0  0  0  0
  188.7750  161.3481  118.4006 O   0  0  0  0  0  0  0  0  0  0  0  0
  192.7920  157.3084  118.7542 C   0  0  0  0  0  0  0  0  0  0  0  0
  193.3301  156.4342  117.6698 C   0  0  0  0  0  0  0  0  0  0  0  0
  192.3187  156.5735  119.9750 C   0  0  0  0  0  0  0  0  0  0  0  0
  194.0053  158.1327  119.2458 C   0  0  0  0  0  0  0  0  0  0  0  0
  189.0107  158.9846  121.8824 C   0  0  0  0  0  0  0  0  0  0  0  0
  188.6751  157.7612  121.7526 O   0  0  0  0  0  0  0  0  0  0  0  0
  189.3794  159.4387  123.1510 N   0  0  0  0  0  0  0  0  0  0  0  0
  190.3257  160.6047  123.2377 C   0  0  2  0  0  0  0  0  0  0  0  0
  190.4855  161.2370  121.9213 C   0  0  0  0  0  0  0  0  0  0  0  0
  191.6240  160.4312  122.5878 C   0  0  1  0  0  0  0  0  0  0  0  0
  192.8323  161.2918  122.7391 C   0  0  0  0  0  0  0  0  0  0  0  0
  193.3680  161.4312  124.1245 C   0  0  0  0  0  0  0  0  0  0  0  0
  190.2470  161.2785  124.5237 C   0  0  0  0  0  0  0  0  0  0  0  0
  190.9713  162.2394  124.9026 O   0  0  0  0  0  0  0  0  0  0  0  0
  189.2546  160.8326  125.4882 N   0  0  0  0  0  0  0  0  0  0  0  0
  189.7610  160.2734  127.0399 S   0  0  0  0  0  6  0  0  0  0  0  0
  188.5743  159.7627  127.8369 O   0  0  0  0  0  0  0  0  0  0  0  0
  190.7761  159.1771  126.9085 O   0  0  0  0  0  0  0  0  0  0  0  0
  190.5399  161.6195  127.8926 C   0  0  0  0  0  0  0  0  0  0  0  0
  189.6266  162.8524  128.0763 C   0  0  0  0  0  0  0  0  0  0  0  0
  190.1131  162.0292  129.2338 C   0  0  0  0  0  0  0  0  0  0  0  0
  1  2  1  0
  3  2  1  1
  3  4  1  0
  4  5  1  0
  5  6  1  0
  6  7  2  0
  6  8  1  0
  8  9  1  0
  9 10  1  0
 10 11  2  0
 10 12  1  0
 12 13  1  0
 13 14  1  0
 14 15  1  0
 14 16  1  0
 14 17  1  0
 17 18  1  0
 18 19  1  0
 19 20  1  0
 20 21  1  0
 21 22  2  0
 22 23  1  0
 23 24  1  0
 24 25  1  0
 25 26  1  0
 26 27  2  0
 27 28  1  0
 28 29  2  0
 24 30  1  0
 30 31  2  0
 30 32  1  0
  8 33  1  1
 33 34  1  0
 33 35  1  0
 33 36  1  0
  1 37  1  1
 37 38  2  0
 37 39  1  0
 40 39  1  6
 40 41  1  0
 41 42  1  0
 42 43  1  1
 43 44  1  0
 40 45  1  0
 45 46  2  0
 45 47  1  0
 47 48  1  0
 48 49  2  0
 48 50  2  0
 48 51  1  0
 51 52  1  0
 52 53  1  0
  5  1  1  0
 29 21  1  0
 42 40  1  0
 53 51  1  0
 32  3  1  0
 26 22  1  0
M  END
$$$$
