
     RDKit          3D

 53 58  0  0  0  0  0  0  0  0999 V2000
  192.1875  158.1965  122.7064 C   0  0  2  0  0  0  0  0  0  0  0  0
  190.9955  157.4872  122.1711 C   0  0  0  0  0  0  0  0  0  0  0  0
  190.1125  157.4172  123.4301 C   0  0  2  0  0  0  0  0  0  0  0  0
  190.2641  158.8798  123.8802 C   0  0  0  0  0  0  0  0  0  0  0  0
  191.7323  158.9787  123.8456 N   0  0  0  0  0  0  0  0  0  0  0  0
  192.3819  159.7401  124.8269 C   0  0  0  0  0  0  0  0  0  0  0  0
  193.6361  159.7616  124.8416 O   0  0  0  0  0  0  0  0  0  0  0  0
  191.6592  160.5458  125.8801 C   0  0  1  0  0  0  0  0  0  0  0  0
  191.5264  159.7433  127.0378 N   0  0  0  0  0  0  0  0  0  0  0  0
  191.4526  160.0680  128.3952 C   0  0  0  0  0  0  0  0  0  0  0  0
  192.3148  159.5540  129.2060 O   0  0  0  0  0  0  0  0  0  0  0  0
  190.5358  160.9069  129.0210 O   0  0  0  0  0  0  0  0  0  0  0  0
  189.1438  160.9091  128.8178 C   0  0  0  0  0  0  0  0  0  0  0  0
  188.3763  160.3505  129.9857 C   0  0  0  0  0  0  0  0  0  0  0  0
  187.0065  160.9977  129.9760 C   0  0  0  0  0  0  0  0  0  0  0  0
  189.0777  160.7692  131.2571 C   0  0  0  0  0  0  0  0  0  0  0  0
  188.2066  158.8672  129.9362 C   0  0  0  0  0  0  0  0  0  0  0  0
  186.9550  158.4592  129.1663 C   0  0  0  0  0  0  0  0  0  0  0  0
  186.9590  156.9720  128.9747 C   0  0  0  0  0  0  0  0  0  0  0  0
  186.2756  156.5973  127.6660 C   0  0  0  0  0  0  0  0  0  0  0  0
  186.5894  155.2117  127.2630 C   0  0  0  0  0  0  0  0  0  0  0  0
  187.3842  154.8496  126.2313 C   0  0  0  0  0  0  0  0  0  0  0  0
  188.1034  155.7035  125.2941 C   0  0  0  0  0  0  0  0  0  0  0  0
  189.1855  154.8446  124.8511 N   0  0  0  0  0  0  0  0  0  0  0  0
  188.5716  153.5282  124.6931 C   0  0  0  0  0  0  0  0  0  0  0  0
  187.6517  153.5409  125.8879 C   0  0  0  0  0  0  0  0  0  0  0  0
  187.0642  152.5555  126.6545 C   0  0  0  0  0  0  0  0  0  0  0  0
  186.2414  152.8647  127.7226 C   0  0  0  0  0  0  0  0  0  0  0  0
  186.0108  154.1921  128.0180 C   0  0  0  0  0  0  0  0  0  0  0  0
  190.5240  155.2925  124.6471 C   0  0  0  0  0  0  0  0  0  0  0  0
  191.4990  154.4602  124.6792 O   0  0  0  0  0  0  0  0  0  0  0  0
  190.7105  156.6366  124.4188 O   0  0  0  0  0  0  0  0  0  0  0  0
  192.3397  161.8628  126.0356 C   0  0  0  0  0  0  0  0  0  0  0  0
  193.7916  161.7742  126.3732 C   0  0  0  0  0  0  0  0  0  0  0  0
  191.5509  162.8026  126.9010 C   0  0  0  0  0  0  0  0  0  0  0  0
  192.2922  162.5023  124.6278 C   0  0  0  0  0  0  0  0  0  0  0  0
  192.9113  159.0252  121.7327 C   0  0  0  0  0  0  0  0  0  0  0  0
  193.6163  158.4224  120.8575 O   0  0  0  0  0  0  0  0  0  0  0  0
  192.8754  160.4215  121.7063 N   0  0  0  0  0  0  0  0  0  0  0  0
  191.7435  161.0864  120.9720 C   0  0  2  0  0  0  0  0  0  0  0  0
  190.9547  161.9205  121.8886 C   0  0  0  0  0  0  0  0  0  0  0  0
  190.3991  160.6078  121.2903 C   0  0  1  0  0  0  0  0  0  0  0  0
  189.1401  160.8856  120.5411 C   0  0  0  0  0  0  0  0  0  0  0  0
  188.3150  159.6956  120.1824 C   0  0  0  0  0  0  0  0  0  0  0  0
  192.0919  161.3956  119.5947 C   0  0  0  0  0  0  0  0  0  0  0  0
  193.2604  161.5166  119.1349 O   0  0  0  0  0  0  0  0  0  0  0  0
  191.0227  161.5899  118.6287 N   0  0  0  0  0  0  0  0  0  0  0  0
  191.3991  162.1270  117.0328 S   0  0  0  0  0  6  0  0  0  0  0  0
  190.1294  162.4312  116.2583 O   0  0  0  0  0  0  0  0  0  0  0  0
  192.2604  163.3543  117.0705 O   0  0  0  0  0  0  0  0  0  0  0  0
  192.3252  160.8527  116.2177 C   0  0  0  0  0  0  0  0  0  0  0  0
  191.4977  160.0350  115.2006 C   0  0  0  0  0  0  0  0  0  0  0  0
  192.6348  160.9237  114.7867 C   0  0  0  0  0  0  0  0  0  0  0  0
  1  2  1  0
  3  2  1  6
  3  4  1  0
  4  5  1  0
  5  6  1  0
  6  7  2  0
  6  8  1  0
  8  9  1  0
  9 10  1  0
 10 11  2  0
 10 12  1  0
 12 13  1  0
 13 14  1  0
 14 15  1  0
 14 16  1  0
 14 17  1  0
 17 18  1  0
 18 19  1  0
 19 20  1  0
 20 21  1  0
 21 22  2  0
 22 23  1  0
 23 24  1  0
 24 25  1  0
 25 26  1  0
 26 27  2  0
 27 28  1  0
 28 29  2  0
 24 30  1  0
 30 31  2  0
 30 32  1  0
  8 33  1  1
 33 34  1  0
 33 35  1  0
 33 36  1  0
  1 37  1  6
 37 38  2  0
 37 39  1  0
 40 39  1  1
 40 41  1  0
 41 42  1  0
 42 43  1  6
 43 44  1  0
 40 45  1  0
 45 46  2  0
 45 47  1  0
 47 48  1  0
 48 49  2  0
 48 50  2  0
 48 51  1  0
 51 52  1  0
 52 53  1  0
  5  1  1  0
 29 21  1  0
 42 40  1  0
 53 51  1  0
 32  3  1  0
 26 22  1  0
M  END
$$$$
