
     RDKit          3D

 53 58  0  0  0  0  0  0  0  0999 V2000
  191.3836  163.8411  120.0251 C   0  0  2  0  0  0  0  0  0  0  0  0
  192.4370  163.7314  118.9816 C   0  0  0  0  0  0  0  0  0  0  0  0
  193.0275  162.3488  119.3126 C   0  0  2  0  0  0  0  0  0  0  0  0
  191.7040  161.5789  119.4559 C   0  0  0  0  0  0  0  0  0  0  0  0
  191.0140  162.4823  120.3909 N   0  0  0  0  0  0  0  0  0  0  0  0
  190.1935  161.9294  121.3838 C   0  0  0  0  0  0  0  0  0  0  0  0
  189.6669  162.6950  122.2266 O   0  0  0  0  0  0  0  0  0  0  0  0
  189.8996  160.4530  121.5048 C   0  0  1  0  0  0  0  0  0  0  0  0
  190.8342  159.8878  122.4042 N   0  0  0  0  0  0  0  0  0  0  0  0
  190.7525  158.7933  123.2696 C   0  0  0  0  0  0  0  0  0  0  0  0
  190.9758  158.9761  124.5272 O   0  0  0  0  0  0  0  0  0  0  0  0
  190.4501  157.4741  122.9470 O   0  0  0  0  0  0  0  0  0  0  0  0
  190.9860  156.7417  121.8721 C   0  0  0  0  0  0  0  0  0  0  0  0
  191.9590  155.6798  122.3087 C   0  0  0  0  0  0  0  0  0  0  0  0
  191.9286  154.5834  121.2635 C   0  0  0  0  0  0  0  0  0  0  0  0
  191.4661  155.0924  123.6109 C   0  0  0  0  0  0  0  0  0  0  0  0
  193.3622  156.1734  122.4457 C   0  0  0  0  0  0  0  0  0  0  0  0
  194.1358  156.0713  121.1355 C   0  0  0  0  0  0  0  0  0  0  0  0
  195.4531  156.7717  121.2868 C   0  0  0  0  0  0  0  0  0  0  0  0
  195.8938  157.3789  119.9612 C   0  0  0  0  0  0  0  0  0  0  0  0
  196.9650  158.3782  120.1473 C   0  0  0  0  0  0  0  0  0  0  0  0
  196.8315  159.7157  120.0045 C   0  0  0  0  0  0  0  0  0  0  0  0
  195.6421  160.4776  119.6448 C   0  0  0  0  0  0  0  0  0  0  0  0
  195.9199  161.7833  120.2130 N   0  0  0  0  0  0  0  0  0  0  0  0
  197.3379  162.0096  119.9436 C   0  0  0  0  0  0  0  0  0  0  0  0
  197.8599  160.6161  120.1879 C   0  0  0  0  0  0  0  0  0  0  0  0
  199.0920  160.1028  120.5378 C   0  0  0  0  0  0  0  0  0  0  0  0
  199.2897  158.7432  120.6984 C   0  0  0  0  0  0  0  0  0  0  0  0
  198.2229  157.8914  120.5015 C   0  0  0  0  0  0  0  0  0  0  0  0
  194.9443  162.5879  120.8724 C   0  0  0  0  0  0  0  0  0  0  0  0
  195.3052  163.4929  121.7061 O   0  0  0  0  0  0  0  0  0  0  0  0
  193.6228  162.3470  120.5735 O   0  0  0  0  0  0  0  0  0  0  0  0
  188.4536  160.2699  121.8167 C   0  0  0  0  0  0  0  0  0  0  0  0
  187.9943  158.8491  121.8153 C   0  0  0  0  0  0  0  0  0  0  0  0
  187.5871  161.2097  121.0292 C   0  0  0  0  0  0  0  0  0  0  0  0
  188.3014  160.7406  123.2824 C   0  0  0  0  0  0  0  0  0  0  0  0
  190.2102  164.6404  119.6472 C   0  0  0  0  0  0  0  0  0  0  0  0
  189.8421  165.5596  120.4508 O   0  0  0  0  0  0  0  0  0  0  0  0
  189.4785  164.4574  118.4713 N   0  0  0  0  0  0  0  0  0  0  0  0
  188.6456  163.2114  118.3430 C   0  0  2  0  0  0  0  0  0  0  0  0
  187.2149  163.5447  118.3589 C   0  0  0  0  0  0  0  0  0  0  0  0
  187.8990  162.8095  119.5342 C   0  0  1  0  0  0  0  0  0  0  0  0
  187.2215  161.5036  119.7779 C   0  0  0  0  0  0  0  0  0  0  0  0
  187.1920  161.0352  121.1941 C   0  0  0  0  0  0  0  0  0  0  0  0
  189.2954  162.2011  117.5238 C   0  0  0  0  0  0  0  0  0  0  0  0
  190.3487  161.5727  117.8187 O   0  0  0  0  0  0  0  0  0  0  0  0
  188.7068  161.8560  116.2399 N   0  0  0  0  0  0  0  0  0  0  0  0
  189.6650  161.9459  114.8080 S   0  0  0  0  0  6  0  0  0  0  0  0
  188.8130  161.6886  113.5781 O   0  0  0  0  0  0  0  0  0  0  0  0
  190.3173  163.2908  114.6841 O   0  0  0  0  0  0  0  0  0  0  0  0
  190.9577  160.7370  114.9232 C   0  0  0  0  0  0  0  0  0  0  0  0
  192.3800  161.3392  114.8738 C   0  0  0  0  0  0  0  0  0  0  0  0
  191.8341  160.6586  116.0956 C   0  0  0  0  0  0  0  0  0  0  0  0
  1  2  1  0
  3  2  1  1
  3  4  1  0
  4  5  1  0
  5  6  1  0
  6  7  2  0
  6  8  1  0
  8  9  1  0
  9 10  1  0
 10 11  2  0
 10 12  1  0
 12 13  1  0
 13 14  1  0
 14 15  1  0
 14 16  1  0
 14 17  1  0
 17 18  1  0
 18 19  1  0
 19 20  1  0
 20 21  1  0
 21 22  2  0
 22 23  1  0
 23 24  1  0
 24 25  1  0
 25 26  1  0
 26 27  2  0
 27 28  1  0
 28 29  2  0
 24 30  1  0
 30 31  2  0
 30 32  1  0
  8 33  1  1
 33 34  1  0
 33 35  1  0
 33 36  1  0
  1 37  1  6
 37 38  2  0
 37 39  1  0
 40 39  1  1
 40 41  1  0
 41 42  1  0
 42 43  1  6
 43 44  1  0
 40 45  1  0
 45 46  2  0
 45 47  1  0
 47 48  1  0
 48 49  2  0
 48 50  2  0
 48 51  1  0
 51 52  1  0
 52 53  1  0
  5  1  1  0
 29 21  1  0
 42 40  1  0
 53 51  1  0
 32  3  1  0
 26 22  1  0
M  END
$$$$
