
     RDKit          3D

 53 58  0  0  0  0  0  0  0  0999 V2000
  149.8185  170.0930  129.5166 C   0  0  2  0  0  0  0  0  0  0  0  0
  150.6730  169.0168  130.0843 C   0  0  0  0  0  0  0  0  0  0  0  0
  149.9723  168.7741  131.4333 C   0  0  2  0  0  0  0  0  0  0  0  0
  148.5260  168.7082  130.9151 C   0  0  0  0  0  0  0  0  0  0  0  0
  148.5070  169.9537  130.1310 N   0  0  0  0  0  0  0  0  0  0  0  0
  147.3354  170.7229  130.1119 C   0  0  0  0  0  0  0  0  0  0  0  0
  147.3447  171.8213  129.5060 O   0  0  0  0  0  0  0  0  0  0  0  0
  146.0473  170.3082  130.7824 C   0  0  1  0  0  0  0  0  0  0  0  0
  146.0220  170.8722  132.0798 N   0  0  0  0  0  0  0  0  0  0  0  0
  144.9660  171.2750  132.9021 C   0  0  0  0  0  0  0  0  0  0  0  0
  144.9361  172.4938  133.3248 O   0  0  0  0  0  0  0  0  0  0  0  0
  143.8943  170.5080  133.3480 O   0  0  0  0  0  0  0  0  0  0  0  0
  143.9716  169.2061  133.8753 C   0  0  0  0  0  0  0  0  0  0  0  0
  143.7243  169.1550  135.3590 C   0  0  0  0  0  0  0  0  0  0  0  0
  143.1654  167.7829  135.6758 C   0  0  0  0  0  0  0  0  0  0  0  0
  142.6637  170.1768  135.6977 C   0  0  0  0  0  0  0  0  0  0  0  0
  144.9537  169.3734  136.1788 C   0  0  0  0  0  0  0  0  0  0  0  0
  145.6982  168.0709  136.4529 C   0  0  0  0  0  0  0  0  0  0  0  0
  147.0185  168.3846  137.0909 C   0  0  0  0  0  0  0  0  0  0  0  0
  148.0654  167.3518  136.6943 C   0  0  0  0  0  0  0  0  0  0  0  0
  149.4349  167.8242  136.9809 C   0  0  0  0  0  0  0  0  0  0  0  0
  150.3520  168.1950  136.0596 C   0  0  0  0  0  0  0  0  0  0  0  0
  150.2237  168.2205  134.6079 C   0  0  0  0  0  0  0  0  0  0  0  0
  151.2100  169.2118  134.2213 N   0  0  0  0  0  0  0  0  0  0  0  0
  152.3545  168.9536  135.0920 C   0  0  0  0  0  0  0  0  0  0  0  0
  151.6229  168.6310  136.3705 C   0  0  0  0  0  0  0  0  0  0  0  0
  151.9611  168.6856  137.7072 C   0  0  0  0  0  0  0  0  0  0  0  0
  151.0650  168.3190  138.6952 C   0  0  0  0  0  0  0  0  0  0  0  0
  149.8078  167.8908  138.3229 C   0  0  0  0  0  0  0  0  0  0  0  0
  151.0024  170.1838  133.1986 C   0  0  0  0  0  0  0  0  0  0  0  0
  151.6875  171.2677  133.1845 O   0  0  0  0  0  0  0  0  0  0  0  0
  150.0480  169.9035  132.2477 O   0  0  0  0  0  0  0  0  0  0  0  0
  144.9057  170.6235  129.8775 C   0  0  0  0  0  0  0  0  0  0  0  0
  143.5657  170.2398  130.4132 C   0  0  0  0  0  0  0  0  0  0  0  0
  145.1682  170.1781  128.4679 C   0  0  0  0  0  0  0  0  0  0  0  0
  144.8791  172.1681  129.7959 C   0  0  0  0  0  0  0  0  0  0  0  0
  149.7321  170.1144  128.0500 C   0  0  0  0  0  0  0  0  0  0  0  0
  150.6974  170.6511  127.4126 O   0  0  0  0  0  0  0  0  0  0  0  0
  148.6664  169.5874  127.3164 N   0  0  0  0  0  0  0  0  0  0  0  0
  148.0327  168.3136  127.8047 C   0  0  2  0  0  0  0  0  0  0  0  0
  146.9514  167.8974  126.9015 C   0  0  0  0  0  0  0  0  0  0  0  0
  146.6716  168.4291  128.3259 C   0  0  1  0  0  0  0  0  0  0  0  0
  145.9137  167.4099  129.1072 C   0  0  0  0  0  0  0  0  0  0  0  0
  144.4857  167.7330  129.3938 C   0  0  0  0  0  0  0  0  0  0  0  0
  148.9904  167.4478  128.4737 C   0  0  0  0  0  0  0  0  0  0  0  0
  148.7526  166.2998  128.9393 O   0  0  0  0  0  0  0  0  0  0  0  0
  150.3578  167.9130  128.6400 N   0  0  0  0  0  0  0  0  0  0  0  0
  151.3032  167.3343  129.9622 S   0  0  0  0  0  6  0  0  0  0  0  0
  152.7403  167.1040  129.5307 O   0  0  0  0  0  0  0  0  0  0  0  0
  151.2802  168.3078  131.1030 O   0  0  0  0  0  0  0  0  0  0  0  0
  150.5858  165.8194  130.5419 C   0  0  0  0  0  0  0  0  0  0  0  0
  151.6132  164.8330  131.1415 C   0  0  0  0  0  0  0  0  0  0  0  0
  150.5436  165.4857  131.9686 C   0  0  0  0  0  0  0  0  0  0  0  0
  1  2  1  0
  3  2  1  6
  3  4  1  0
  4  5  1  0
  5  6  1  0
  6  7  2  0
  6  8  1  0
  8  9  1  0
  9 10  1  0
 10 11  2  0
 10 12  1  0
 12 13  1  0
 13 14  1  0
 14 15  1  0
 14 16  1  0
 14 17  1  0
 17 18  1  0
 18 19  1  0
 19 20  1  0
 20 21  1  0
 21 22  2  0
 22 23  1  0
 23 24  1  0
 24 25  1  0
 25 26  1  0
 26 27  2  0
 27 28  1  0
 28 29  2  0
 24 30  1  0
 30 31  2  0
 30 32  1  0
  8 33  1  6
 33 34  1  0
 33 35  1  0
 33 36  1  0
  1 37  1  6
 37 38  2  0
 37 39  1  0
 40 39  1  6
 40 41  1  0
 41 42  1  0
 42 43  1  1
 43 44  1  0
 40 45  1  0
 45 46  2  0
 45 47  1  0
 47 48  1  0
 48 49  2  0
 48 50  2  0
 48 51  1  0
 51 52  1  0
 52 53  1  0
  5  1  1  0
 29 21  1  0
 42 40  1  0
 53 51  1  0
 32  3  1  0
 26 22  1  0
M  END
$$$$
