
     RDKit          3D

 53 58  0  0  0  0  0  0  0  0999 V2000
  129.4033  145.0899  133.3105 C   0  0  2  0  0  0  0  0  0  0  0  0
  128.1048  144.7693  132.6609 C   0  0  0  0  0  0  0  0  0  0  0  0
  128.4341  143.4121  132.0134 C   0  0  2  0  0  0  0  0  0  0  0  0
  129.1134  142.7548  133.2263 C   0  0  0  0  0  0  0  0  0  0  0  0
  130.0718  143.8216  133.5576 N   0  0  0  0  0  0  0  0  0  0  0  0
  131.3488  143.4657  134.0131 C   0  0  0  0  0  0  0  0  0  0  0  0
  132.1893  144.3731  134.2223 O   0  0  0  0  0  0  0  0  0  0  0  0
  131.7822  142.0421  134.2710 C   0  0  1  0  0  0  0  0  0  0  0  0
  132.4062  141.5503  133.1002 N   0  0  0  0  0  0  0  0  0  0  0  0
  133.4079  140.5948  132.9075 C   0  0  0  0  0  0  0  0  0  0  0  0
  134.4822  140.9371  132.2802 O   0  0  0  0  0  0  0  0  0  0  0  0
  133.4058  139.2652  133.3172 O   0  0  0  0  0  0  0  0  0  0  0  0
  132.3405  138.3575  133.1752 C   0  0  0  0  0  0  0  0  0  0  0  0
  132.5957  137.3078  132.1273 C   0  0  0  0  0  0  0  0  0  0  0  0
  131.7968  136.0802  132.5151 C   0  0  0  0  0  0  0  0  0  0  0  0
  134.0609  136.9403  132.1721 C   0  0  0  0  0  0  0  0  0  0  0  0
  132.1946  137.7262  130.7506 C   0  0  0  0  0  0  0  0  0  0  0  0
  130.7364  137.3935  130.4528 C   0  0  0  0  0  0  0  0  0  0  0  0
  130.3448  138.0237  129.1497 C   0  0  0  0  0  0  0  0  0  0  0  0
  128.8717  138.4108  129.1616 C   0  0  0  0  0  0  0  0  0  0  0  0
  128.5465  139.3568  128.0753 C   0  0  0  0  0  0  0  0  0  0  0  0
  128.2522  140.6669  128.2300 C   0  0  0  0  0  0  0  0  0  0  0  0
  128.1846  141.4446  129.4610 C   0  0  0  0  0  0  0  0  0  0  0  0
  128.4260  142.7967  128.9938 N   0  0  0  0  0  0  0  0  0  0  0  0
  127.6813  142.8932  127.7405 C   0  0  0  0  0  0  0  0  0  0  0  0
  127.9534  141.5175  127.1863 C   0  0  0  0  0  0  0  0  0  0  0  0
  127.9601  140.9815  125.9148 C   0  0  0  0  0  0  0  0  0  0  0  0
  128.2538  139.6479  125.6940 C   0  0  0  0  0  0  0  0  0  0  0  0
  128.5449  138.8459  126.7777 C   0  0  0  0  0  0  0  0  0  0  0  0
  129.2345  143.7454  129.6868 C   0  0  0  0  0  0  0  0  0  0  0  0
  129.7582  144.7334  129.0592 O   0  0  0  0  0  0  0  0  0  0  0  0
  129.4194  143.5489  131.0362 O   0  0  0  0  0  0  0  0  0  0  0  0
  132.5690  141.9959  135.5361 C   0  0  0  0  0  0  0  0  0  0  0  0
  133.8153  142.8183  135.5212 C   0  0  0  0  0  0  0  0  0  0  0  0
  132.7512  140.5904  136.0318 C   0  0  0  0  0  0  0  0  0  0  0  0
  131.6588  142.6637  136.5938 C   0  0  0  0  0  0  0  0  0  0  0  0
  129.3078  145.9010  134.5318 C   0  0  0  0  0  0  0  0  0  0  0  0
  130.3990  146.2827  135.0702 O   0  0  0  0  0  0  0  0  0  0  0  0
  128.1052  146.2770  135.1351 N   0  0  0  0  0  0  0  0  0  0  0  0
  126.8339  145.6530  134.6282 C   0  0  2  0  0  0  0  0  0  0  0  0
  126.7420  144.2509  135.0572 C   0  0  0  0  0  0  0  0  0  0  0  0
  126.9841  144.6431  133.5816 C   0  0  1  0  0  0  0  0  0  0  0  0
  125.9109  144.0665  132.7217 C   0  0  0  0  0  0  0  0  0  0  0  0
  126.2810  143.8022  131.3008 C   0  0  0  0  0  0  0  0  0  0  0  0
  125.7452  146.6137  134.5528 C   0  0  0  0  0  0  0  0  0  0  0  0
  124.5135  146.3417  134.5761 O   0  0  0  0  0  0  0  0  0  0  0  0
  126.0656  148.0275  134.4398 N   0  0  0  0  0  0  0  0  0  0  0  0
  124.8381  149.1482  133.9770 S   0  0  0  0  0  6  0  0  0  0  0  0
  124.2729  148.7888  132.6146 O   0  0  0  0  0  0  0  0  0  0  0  0
  123.7258  149.1692  134.9830 O   0  0  0  0  0  0  0  0  0  0  0  0
  125.5496  150.7723  133.9376 C   0  0  0  0  0  0  0  0  0  0  0  0
  125.6174  151.3886  132.5221 C   0  0  0  0  0  0  0  0  0  0  0  0
  124.7482  151.9545  133.6077 C   0  0  0  0  0  0  0  0  0  0  0  0
  1  2  1  0
  3  2  1  1
  3  4  1  0
  4  5  1  0
  5  6  1  0
  6  7  2  0
  6  8  1  0
  8  9  1  0
  9 10  1  0
 10 11  2  0
 10 12  1  0
 12 13  1  0
 13 14  1  0
 14 15  1  0
 14 16  1  0
 14 17  1  0
 17 18  1  0
 18 19  1  0
 19 20  1  0
 20 21  1  0
 21 22  2  0
 22 23  1  0
 23 24  1  0
 24 25  1  0
 25 26  1  0
 26 27  2  0
 27 28  1  0
 28 29  2  0
 24 30  1  0
 30 31  2  0
 30 32  1  0
  8 33  1  1
 33 34  1  0
 33 35  1  0
 33 36  1  0
  1 37  1  1
 37 38  2  0
 37 39  1  0
 40 39  1  1
 40 41  1  0
 41 42  1  0
 42 43  1  6
 43 44  1  0
 40 45  1  0
 45 46  2  0
 45 47  1  0
 47 48  1  0
 48 49  2  0
 48 50  2  0
 48 51  1  0
 51 52  1  0
 52 53  1  0
  5  1  1  0
 29 21  1  0
 42 40  1  0
 53 51  1  0
 32  3  1  0
 26 22  1  0
M  END
$$$$
