
     RDKit          3D

 53 58  0  0  0  0  0  0  0  0999 V2000
  115.5919  170.9616  142.5758 C   0  0  2  0  0  0  0  0  0  0  0  0
  114.1898  170.7533  142.1271 C   0  0  0  0  0  0  0  0  0  0  0  0
  114.1196  169.2156  142.1059 C   0  0  2  0  0  0  0  0  0  0  0  0
  114.7599  168.9526  143.4790 C   0  0  0  0  0  0  0  0  0  0  0  0
  115.9710  169.7752  143.3280 N   0  0  0  0  0  0  0  0  0  0  0  0
  117.1733  169.3169  143.8839 C   0  0  0  0  0  0  0  0  0  0  0  0
  118.2197  169.9809  143.6893 O   0  0  0  0  0  0  0  0  0  0  0  0
  117.2904  168.0593  144.7120 C   0  0  1  0  0  0  0  0  0  0  0  0
  117.6470  166.9942  143.8516 N   0  0  0  0  0  0  0  0  0  0  0  0
  118.3710  165.8191  144.0715 C   0  0  0  0  0  0  0  0  0  0  0  0
  119.4176  165.5891  143.3529 O   0  0  0  0  0  0  0  0  0  0  0  0
  118.1063  164.8177  145.0005 O   0  0  0  0  0  0  0  0  0  0  0  0
  116.8502  164.2386  145.2573 C   0  0  0  0  0  0  0  0  0  0  0  0
  116.7346  162.8286  144.7442 C   0  0  0  0  0  0  0  0  0  0  0  0
  115.7215  162.1137  145.6146 C   0  0  0  0  0  0  0  0  0  0  0  0
  118.0698  162.1458  144.9310 C   0  0  0  0  0  0  0  0  0  0  0  0
  116.2891  162.7440  143.3209 C   0  0  0  0  0  0  0  0  0  0  0  0
  114.7695  162.7084  143.1975 C   0  0  0  0  0  0  0  0  0  0  0  0
  114.3907  162.8370  141.7524 C   0  0  0  0  0  0  0  0  0  0  0  0
  113.0588  163.5619  141.6089 C   0  0  0  0  0  0  0  0  0  0  0  0
  112.8419  164.0380  140.2279 C   0  0  0  0  0  0  0  0  0  0  0  0
  112.8793  165.3266  139.8212 C   0  0  0  0  0  0  0  0  0  0  0  0
  113.1335  166.5233  140.6136 C   0  0  0  0  0  0  0  0  0  0  0  0
  113.6282  167.4594  139.6218 N   0  0  0  0  0  0  0  0  0  0  0  0
  112.7899  167.2308  138.4472 C   0  0  0  0  0  0  0  0  0  0  0  0
  112.6706  165.7293  138.5188 C   0  0  0  0  0  0  0  0  0  0  0  0
  112.4092  164.7442  137.5887 C   0  0  0  0  0  0  0  0  0  0  0  0
  112.3582  163.4086  137.9452 C   0  0  0  0  0  0  0  0  0  0  0  0
  112.5753  163.0666  139.2636 C   0  0  0  0  0  0  0  0  0  0  0  0
  114.7078  168.3630  139.8495 C   0  0  0  0  0  0  0  0  0  0  0  0
  115.3725  168.8420  138.8630 O   0  0  0  0  0  0  0  0  0  0  0  0
  114.9930  168.6872  141.1561 O   0  0  0  0  0  0  0  0  0  0  0  0
  118.1824  168.3260  145.8759 C   0  0  0  0  0  0  0  0  0  0  0  0
  119.3291  169.2365  145.5824 C   0  0  0  0  0  0  0  0  0  0  0  0
  118.5537  167.0633  146.5985 C   0  0  0  0  0  0  0  0  0  0  0  0
  117.3001  169.1017  146.8823 C   0  0  0  0  0  0  0  0  0  0  0  0
  115.8258  172.1909  143.3457 C   0  0  0  0  0  0  0  0  0  0  0  0
  115.1932  173.2382  142.9863 O   0  0  0  0  0  0  0  0  0  0  0  0
  116.6914  172.2829  144.4384 N   0  0  0  0  0  0  0  0  0  0  0  0
  116.4880  171.3298  145.5842 C   0  0  2  0  0  0  0  0  0  0  0  0
  117.0805  170.0211  145.2766 C   0  0  0  0  0  0  0  0  0  0  0  0
  115.5508  170.2319  145.3511 C   0  0  1  0  0  0  0  0  0  0  0  0
  114.9622  169.3150  146.3691 C   0  0  0  0  0  0  0  0  0  0  0  0
  114.4390  168.0156  145.8559 C   0  0  0  0  0  0  0  0  0  0  0  0
  116.4975  172.0097  146.8694 C   0  0  0  0  0  0  0  0  0  0  0  0
  117.4589  172.0385  147.6856 O   0  0  0  0  0  0  0  0  0  0  0  0
  115.3080  172.7340  147.2871 N   0  0  0  0  0  0  0  0  0  0  0  0
  114.9160  174.2383  146.5386 S   0  0  0  0  0  6  0  0  0  0  0  0
  113.4650  174.6017  146.7979 O   0  0  0  0  0  0  0  0  0  0  0  0
  115.7991  175.3371  147.0508 O   0  0  0  0  0  0  0  0  0  0  0  0
  115.2096  174.0892  144.7959 C   0  0  0  0  0  0  0  0  0  0  0  0
  116.6425  173.6310  144.4425 C   0  0  0  0  0  0  0  0  0  0  0  0
  115.4333  172.7862  144.1631 C   0  0  0  0  0  0  0  0  0  0  0  0
  1  2  1  0
  3  2  1  6
  3  4  1  0
  4  5  1  0
  5  6  1  0
  6  7  2  0
  6  8  1  0
  8  9  1  0
  9 10  1  0
 10 11  2  0
 10 12  1  0
 12 13  1  0
 13 14  1  0
 14 15  1  0
 14 16  1  0
 14 17  1  0
 17 18  1  0
 18 19  1  0
 19 20  1  0
 20 21  1  0
 21 22  2  0
 22 23  1  0
 23 24  1  0
 24 25  1  0
 25 26  1  0
 26 27  2  0
 27 28  1  0
 28 29  2  0
 24 30  1  0
 30 31  2  0
 30 32  1  0
  8 33  1  1
 33 34  1  0
 33 35  1  0
 33 36  1  0
  1 37  1  1
 37 38  2  0
 37 39  1  0
 40 39  1  6
 40 41  1  0
 41 42  1  0
 42 43  1  1
 43 44  1  0
 40 45  1  0
 45 46  2  0
 45 47  1  0
 47 48  1  0
 48 49  2  0
 48 50  2  0
 48 51  1  0
 51 52  1  0
 52 53  1  0
  5  1  1  0
 29 21  1  0
 42 40  1  0
 53 51  1  0
 32  3  1  0
 26 22  1  0
M  END
$$$$
