
     RDKit          3D

 53 58  0  0  0  0  0  0  0  0999 V2000
  170.7318  145.4694  125.8587 C   0  0  2  0  0  0  0  0  0  0  0  0
  171.4046  146.7543  126.1858 C   0  0  0  0  0  0  0  0  0  0  0  0
  170.2032  147.7167  126.1859 C   0  0  2  0  0  0  0  0  0  0  0  0
  169.2464  146.8654  127.0372 C   0  0  0  0  0  0  0  0  0  0  0  0
  169.3508  145.5965  126.2987 N   0  0  0  0  0  0  0  0  0  0  0  0
  168.2061  144.7998  126.1582 C   0  0  0  0  0  0  0  0  0  0  0  0
  168.2783  143.7571  125.4646 O   0  0  0  0  0  0  0  0  0  0  0  0
  166.8756  145.1210  126.7964 C   0  0  1  0  0  0  0  0  0  0  0  0
  166.1007  145.8486  125.8625 N   0  0  0  0  0  0  0  0  0  0  0  0
  164.7198  145.9446  125.6689 C   0  0  0  0  0  0  0  0  0  0  0  0
  164.2305  145.6409  124.5143 O   0  0  0  0  0  0  0  0  0  0  0  0
  163.7567  146.3408  126.5915 O   0  0  0  0  0  0  0  0  0  0  0  0
  163.8392  147.4548  127.4467 C   0  0  0  0  0  0  0  0  0  0  0  0
  162.9152  148.5740  127.0483 C   0  0  0  0  0  0  0  0  0  0  0  0
  162.5770  149.3485  128.3057 C   0  0  0  0  0  0  0  0  0  0  0  0
  161.6361  147.9667  126.5200 C   0  0  0  0  0  0  0  0  0  0  0  0
  163.5087  149.5140  126.0507 C   0  0  0  0  0  0  0  0  0  0  0  0
  164.2798  150.6471  126.7195 C   0  0  0  0  0  0  0  0  0  0  0  0
  165.0190  151.4240  125.6714 C   0  0  0  0  0  0  0  0  0  0  0  0
  166.3171  151.9866  126.2357 C   0  0  0  0  0  0  0  0  0  0  0  0
  167.2362  152.4199  125.1641 C   0  0  0  0  0  0  0  0  0  0  0  0
  168.3846  151.8010  124.8098 C   0  0  0  0  0  0  0  0  0  0  0  0
  168.9805  150.5969  125.3752 C   0  0  0  0  0  0  0  0  0  0  0  0
  169.7950  150.1039  124.2804 N   0  0  0  0  0  0  0  0  0  0  0  0
  170.3923  151.3020  123.6955 C   0  0  0  0  0  0  0  0  0  0  0  0
  169.2161  152.2397  123.8008 C   0  0  0  0  0  0  0  0  0  0  0  0
  168.8372  153.3804  123.1232 C   0  0  0  0  0  0  0  0  0  0  0  0
  167.6732  154.0569  123.4406 C   0  0  0  0  0  0  0  0  0  0  0  0
  166.8816  153.5700  124.4598 C   0  0  0  0  0  0  0  0  0  0  0  0
  169.9141  148.7252  123.9357 C   0  0  0  0  0  0  0  0  0  0  0  0
  170.2720  148.3802  122.7536 O   0  0  0  0  0  0  0  0  0  0  0  0
  169.6306  147.8036  124.9175 O   0  0  0  0  0  0  0  0  0  0  0  0
  166.2853  143.8673  127.3453 C   0  0  0  0  0  0  0  0  0  0  0  0
  164.8175  143.9375  127.6105 C   0  0  0  0  0  0  0  0  0  0  0  0
  167.1010  143.3125  128.4772 C   0  0  0  0  0  0  0  0  0  0  0  0
  166.4400  142.8265  126.2113 C   0  0  0  0  0  0  0  0  0  0  0  0
  171.3713  144.2694  126.4154 C   0  0  0  0  0  0  0  0  0  0  0  0
  172.2080  143.6533  125.6761 O   0  0  0  0  0  0  0  0  0  0  0  0
  171.1215  143.7656  127.6942 N   0  0  0  0  0  0  0  0  0  0  0  0
  170.1696  144.5226  128.5794 C   0  0  2  0  0  0  0  0  0  0  0  0
  169.0683  143.6528  129.0137 C   0  0  0  0  0  0  0  0  0  0  0  0
  168.8530  144.8110  128.0127 C   0  0  1  0  0  0  0  0  0  0  0  0
  167.8281  145.7552  128.5433 C   0  0  0  0  0  0  0  0  0  0  0  0
  166.5043  145.1594  128.8875 C   0  0  0  0  0  0  0  0  0  0  0  0
  170.8488  145.5315  129.3763 C   0  0  0  0  0  0  0  0  0  0  0  0
  170.8470  145.6062  130.6356 O   0  0  0  0  0  0  0  0  0  0  0  0
  171.6105  146.5658  128.6952 N   0  0  0  0  0  0  0  0  0  0  0  0
  173.0123  147.2319  129.4489 S   0  0  0  0  0  6  0  0  0  0  0  0
  174.1567  147.3301  128.4561 O   0  0  0  0  0  0  0  0  0  0  0  0
  172.7240  148.5942  130.0062 O   0  0  0  0  0  0  0  0  0  0  0  0
  173.4666  146.1868  130.8080 C   0  0  0  0  0  0  0  0  0  0  0  0
  174.4943  146.8260  131.7689 C   0  0  0  0  0  0  0  0  0  0  0  0
  173.0871  146.5106  132.1864 C   0  0  0  0  0  0  0  0  0  0  0  0
  1  2  1  0
  3  2  1  6
  3  4  1  0
  4  5  1  0
  5  6  1  0
  6  7  2  0
  6  8  1  0
  8  9  1  0
  9 10  1  0
 10 11  2  0
 10 12  1  0
 12 13  1  0
 13 14  1  0
 14 15  1  0
 14 16  1  0
 14 17  1  0
 17 18  1  0
 18 19  1  0
 19 20  1  0
 20 21  1  0
 21 22  2  0
 22 23  1  0
 23 24  1  0
 24 25  1  0
 25 26  1  0
 26 27  2  0
 27 28  1  0
 28 29  2  0
 24 30  1  0
 30 31  2  0
 30 32  1  0
  8 33  1  6
 33 34  1  0
 33 35  1  0
 33 36  1  0
  1 37  1  1
 37 38  2  0
 37 39  1  0
 40 39  1  6
 40 41  1  0
 41 42  1  0
 42 43  1  1
 43 44  1  0
 40 45  1  0
 45 46  2  0
 45 47  1  0
 47 48  1  0
 48 49  2  0
 48 50  2  0
 48 51  1  0
 51 52  1  0
 52 53  1  0
  5  1  1  0
 29 21  1  0
 42 40  1  0
 53 51  1  0
 32  3  1  0
 26 22  1  0
M  END
$$$$
