
     RDKit          3D

 53 58  0  0  0  0  0  0  0  0999 V2000
  126.9136  144.9992  133.0064 C   0  0  2  0  0  0  0  0  0  0  0  0
  125.8108  144.0862  132.6055 C   0  0  0  0  0  0  0  0  0  0  0  0
  126.5615  142.7444  132.5283 C   0  0  2  0  0  0  0  0  0  0  0  0
  127.3167  142.8438  133.8641 C   0  0  0  0  0  0  0  0  0  0  0  0
  127.9013  144.1842  133.6972 N   0  0  0  0  0  0  0  0  0  0  0  0
  129.1922  144.4247  134.1875 C   0  0  0  0  0  0  0  0  0  0  0  0
  129.7185  145.5439  133.9775 O   0  0  0  0  0  0  0  0  0  0  0  0
  129.9993  143.4098  134.9617 C   0  0  1  0  0  0  0  0  0  0  0  0
  130.8176  142.7046  134.0479 N   0  0  0  0  0  0  0  0  0  0  0  0
  132.0632  142.0877  134.1940 C   0  0  0  0  0  0  0  0  0  0  0  0
  133.0334  142.4545  133.4266 O   0  0  0  0  0  0  0  0  0  0  0  0
  132.4169  141.0871  135.0937 O   0  0  0  0  0  0  0  0  0  0  0  0
  131.6714  139.9283  135.3774 C   0  0  0  0  0  0  0  0  0  0  0  0
  132.2900  138.6767  134.8156 C   0  0  0  0  0  0  0  0  0  0  0  0
  131.8549  137.5239  135.6972 C   0  0  0  0  0  0  0  0  0  0  0  0
  133.7922  138.8013  134.9235 C   0  0  0  0  0  0  0  0  0  0  0  0
  131.8806  138.3859  133.4087 C   0  0  0  0  0  0  0  0  0  0  0  0
  130.6046  137.5533  133.3439 C   0  0  0  0  0  0  0  0  0  0  0  0
  130.1381  137.4790  131.9207 C   0  0  0  0  0  0  0  0  0  0  0  0
  128.6188  137.3914  131.8574 C   0  0  0  0  0  0  0  0  0  0  0  0
  128.1097  137.6969  130.5052 C   0  0  0  0  0  0  0  0  0  0  0  0
  127.4398  138.8149  130.1470 C   0  0  0  0  0  0  0  0  0  0  0  0
  127.0663  139.9556  130.9740 C   0  0  0  0  0  0  0  0  0  0  0  0
  126.9386  141.0233  130.0000 N   0  0  0  0  0  0  0  0  0  0  0  0
  126.2855  140.3996  128.8514 C   0  0  0  0  0  0  0  0  0  0  0  0
  126.9805  139.0615  128.8701 C   0  0  0  0  0  0  0  0  0  0  0  0
  127.2289  138.0981  127.9141 C   0  0  0  0  0  0  0  0  0  0  0  0
  127.9095  136.9336  128.2209 C   0  0  0  0  0  0  0  0  0  0  0  0
  128.3446  136.7428  129.5158 C   0  0  0  0  0  0  0  0  0  0  0  0
  127.3892  142.3584  130.2195 C   0  0  0  0  0  0  0  0  0  0  0  0
  127.6472  143.1279  129.2267 O   0  0  0  0  0  0  0  0  0  0  0  0
  127.5299  142.7690  131.5253 O   0  0  0  0  0  0  0  0  0  0  0  0
  130.6772  144.0943  136.0990 C   0  0  0  0  0  0  0  0  0  0  0  0
  130.1313  143.7481  137.4451 C   0  0  0  0  0  0  0  0  0  0  0  0
  130.8431  145.5655  135.8493 C   0  0  0  0  0  0  0  0  0  0  0  0
  132.1201  143.5366  136.0944 C   0  0  0  0  0  0  0  0  0  0  0  0
  126.5045  146.1572  133.8129 C   0  0  0  0  0  0  0  0  0  0  0  0
  126.1982  145.9447  135.0325 O   0  0  0  0  0  0  0  0  0  0  0  0
  126.4308  147.4661  133.3304 N   0  0  0  0  0  0  0  0  0  0  0  0
  127.3884  148.4818  133.8910 C   0  0  2  0  0  0  0  0  0  0  0  0
  128.6962  148.3759  133.2302 C   0  0  0  0  0  0  0  0  0  0  0  0
  128.4846  147.9551  134.7027 C   0  0  1  0  0  0  0  0  0  0  0  0
  129.4052  148.7259  135.5869 C   0  0  0  0  0  0  0  0  0  0  0  0
  130.8639  148.5015  135.3686 C   0  0  0  0  0  0  0  0  0  0  0  0
  126.7136  149.7044  134.2960 C   0  0  0  0  0  0  0  0  0  0  0  0
  127.1165  150.8800  134.0791 O   0  0  0  0  0  0  0  0  0  0  0  0
  125.4563  149.6037  135.0191 N   0  0  0  0  0  0  0  0  0  0  0  0
  124.6308  151.0393  135.5032 S   0  0  0  0  0  6  0  0  0  0  0  0
  124.3839  151.9421  134.3080 O   0  0  0  0  0  0  0  0  0  0  0  0
  123.3194  150.7095  136.1521 O   0  0  0  0  0  0  0  0  0  0  0  0
  125.6252  151.8764  136.7100 C   0  0  0  0  0  0  0  0  0  0  0  0
  127.0825  151.3671  136.7780 C   0  0  0  0  0  0  0  0  0  0  0  0
  126.7328  152.7530  136.3185 C   0  0  0  0  0  0  0  0  0  0  0  0
  1  2  1  0
  3  2  1  6
  3  4  1  0
  4  5  1  0
  5  6  1  0
  6  7  2  0
  6  8  1  0
  8  9  1  0
  9 10  1  0
 10 11  2  0
 10 12  1  0
 12 13  1  0
 13 14  1  0
 14 15  1  0
 14 16  1  0
 14 17  1  0
 17 18  1  0
 18 19  1  0
 19 20  1  0
 20 21  1  0
 21 22  2  0
 22 23  1  0
 23 24  1  0
 24 25  1  0
 25 26  1  0
 26 27  2  0
 27 28  1  0
 28 29  2  0
 24 30  1  0
 30 31  2  0
 30 32  1  0
  8 33  1  1
 33 34  1  0
 33 35  1  0
 33 36  1  0
  1 37  1  1
 37 38  2  0
 37 39  1  0
 40 39  1  6
 40 41  1  0
 41 42  1  0
 42 43  1  1
 43 44  1  0
 40 45  1  0
 45 46  2  0
 45 47  1  0
 47 48  1  0
 48 49  2  0
 48 50  2  0
 48 51  1  0
 51 52  1  0
 52 53  1  0
  5  1  1  0
 29 21  1  0
 42 40  1  0
 53 51  1  0
 32  3  1  0
 26 22  1  0
M  END
$$$$
