
     RDKit          3D

 53 58  0  0  0  0  0  0  0  0999 V2000
  173.0398  166.5136  110.2154 C   0  0  2  0  0  0  0  0  0  0  0  0
  172.5464  166.4900  111.6178 C   0  0  0  0  0  0  0  0  0  0  0  0
  173.1383  165.1564  112.1089 C   0  0  2  0  0  0  0  0  0  0  0  0
  174.5676  165.3462  111.5744 C   0  0  0  0  0  0  0  0  0  0  0  0
  174.2461  165.7009  110.1825 N   0  0  0  0  0  0  0  0  0  0  0  0
  175.0810  165.2373  109.1565 C   0  0  0  0  0  0  0  0  0  0  0  0
  174.7640  165.4761  107.9665 O   0  0  0  0  0  0  0  0  0  0  0  0
  176.3532  164.4593  109.3956 C   0  0  1  0  0  0  0  0  0  0  0  0
  176.0451  163.0794  109.3410 N   0  0  0  0  0  0  0  0  0  0  0  0
  176.8060  161.9672  108.9702 C   0  0  0  0  0  0  0  0  0  0  0  0
  176.3738  161.2051  108.0229 O   0  0  0  0  0  0  0  0  0  0  0  0
  178.0201  161.5496  109.5063 O   0  0  0  0  0  0  0  0  0  0  0  0
  178.3339  161.4631  110.8749 C   0  0  0  0  0  0  0  0  0  0  0  0
  178.4225  160.0451  111.3712 C   0  0  0  0  0  0  0  0  0  0  0  0
  179.3773  160.0381  112.5476 C   0  0  0  0  0  0  0  0  0  0  0  0
  179.0292  159.1974  110.2771 C   0  0  0  0  0  0  0  0  0  0  0  0
  177.1114  159.4826  111.8140 C   0  0  0  0  0  0  0  0  0  0  0  0
  176.8295  159.7756  113.2838 C   0  0  0  0  0  0  0  0  0  0  0  0
  175.4207  159.3735  113.6035 C   0  0  0  0  0  0  0  0  0  0  0  0
  174.8368  160.2753  114.6832 C   0  0  0  0  0  0  0  0  0  0  0  0
  173.3658  160.1635  114.7519 C   0  0  0  0  0  0  0  0  0  0  0  0
  172.4823  161.1077  114.3583 C   0  0  0  0  0  0  0  0  0  0  0  0
  172.7498  162.4227  113.7892 C   0  0  0  0  0  0  0  0  0  0  0  0
  171.5329  162.7000  113.0496 N   0  0  0  0  0  0  0  0  0  0  0  0
  170.4577  162.2136  113.9111 C   0  0  0  0  0  0  0  0  0  0  0  0
  171.1132  160.9628  114.4400 C   0  0  0  0  0  0  0  0  0  0  0  0
  170.6347  159.7763  114.9569 C   0  0  0  0  0  0  0  0  0  0  0  0
  171.4900  158.7733  115.3761 C   0  0  0  0  0  0  0  0  0  0  0  0
  172.8502  158.9758  115.2698 C   0  0  0  0  0  0  0  0  0  0  0  0
  171.5063  163.3172  111.7643 C   0  0  0  0  0  0  0  0  0  0  0  0
  170.4991  163.1557  110.9872 O   0  0  0  0  0  0  0  0  0  0  0  0
  172.5956  164.0794  111.4089 O   0  0  0  0  0  0  0  0  0  0  0  0
  177.4098  164.9610  108.4719 C   0  0  0  0  0  0  0  0  0  0  0  0
  177.3922  166.4382  108.2540 C   0  0  0  0  0  0  0  0  0  0  0  0
  177.4906  164.1430  107.2155 C   0  0  0  0  0  0  0  0  0  0  0  0
  178.7432  164.6781  109.2035 C   0  0  0  0  0  0  0  0  0  0  0  0
  173.2711  167.8526  109.6567 C   0  0  0  0  0  0  0  0  0  0  0  0
  173.7012  167.9226  108.4582 O   0  0  0  0  0  0  0  0  0  0  0  0
  173.0508  169.0444  110.3514 N   0  0  0  0  0  0  0  0  0  0  0  0
  171.8027  169.8243  110.0404 C   0  0  2  0  0  0  0  0  0  0  0  0
  171.3405  170.5518  111.2300 C   0  0  0  0  0  0  0  0  0  0  0  0
  170.5692  169.3402  110.6584 C   0  0  1  0  0  0  0  0  0  0  0  0
  169.1727  169.7412  110.3228 C   0  0  0  0  0  0  0  0  0  0  0  0
  168.0892  168.9450  110.9692 C   0  0  0  0  0  0  0  0  0  0  0  0
  171.7830  170.2997  108.6665 C   0  0  0  0  0  0  0  0  0  0  0  0
  171.0280  171.1983  108.2039 O   0  0  0  0  0  0  0  0  0  0  0  0
  172.7035  169.7096  107.7081 N   0  0  0  0  0  0  0  0  0  0  0  0
  172.9262  170.4528  106.1671 S   0  0  0  0  0  6  0  0  0  0  0  0
  171.6905  171.2403  105.7704 O   0  0  0  0  0  0  0  0  0  0  0  0
  174.1126  171.3704  106.1819 O   0  0  0  0  0  0  0  0  0  0  0  0
  173.2529  169.1811  104.9748 C   0  0  0  0  0  0  0  0  0  0  0  0
  172.1208  168.9915  103.9401 C   0  0  0  0  0  0  0  0  0  0  0  0
  173.4841  169.4939  103.5615 C   0  0  0  0  0  0  0  0  0  0  0  0
  1  2  1  0
  3  2  1  6
  3  4  1  0
  4  5  1  0
  5  6  1  0
  6  7  2  0
  6  8  1  0
  8  9  1  0
  9 10  1  0
 10 11  2  0
 10 12  1  0
 12 13  1  0
 13 14  1  0
 14 15  1  0
 14 16  1  0
 14 17  1  0
 17 18  1  0
 18 19  1  0
 19 20  1  0
 20 21  1  0
 21 22  2  0
 22 23  1  0
 23 24  1  0
 24 25  1  0
 25 26  1  0
 26 27  2  0
 27 28  1  0
 28 29  2  0
 24 30  1  0
 30 31  2  0
 30 32  1  0
  8 33  1  6
 33 34  1  0
 33 35  1  0
 33 36  1  0
  1 37  1  1
 37 38  2  0
 37 39  1  0
 40 39  1  1
 40 41  1  0
 41 42  1  0
 42 43  1  6
 43 44  1  0
 40 45  1  0
 45 46  2  0
 45 47  1  0
 47 48  1  0
 48 49  2  0
 48 50  2  0
 48 51  1  0
 51 52  1  0
 52 53  1  0
  5  1  1  0
 29 21  1  0
 42 40  1  0
 53 51  1  0
 32  3  1  0
 26 22  1  0
M  END
$$$$
