
     RDKit          3D

 53 58  0  0  0  0  0  0  0  0999 V2000
  205.2175  136.4252  132.2247 C   0  0  2  0  0  0  0  0  0  0  0  0
  205.9083  137.7406  132.1683 C   0  0  0  0  0  0  0  0  0  0  0  0
  204.7199  138.6782  131.8881 C   0  0  2  0  0  0  0  0  0  0  0  0
  203.7533  138.1219  132.9469 C   0  0  0  0  0  0  0  0  0  0  0  0
  203.8392  136.6925  132.6064 N   0  0  0  0  0  0  0  0  0  0  0  0
  202.6836  135.9047  132.6995 C   0  0  0  0  0  0  0  0  0  0  0  0
  202.7403  134.7052  132.3366 O   0  0  0  0  0  0  0  0  0  0  0  0
  201.3587  136.4144  133.2151 C   0  0  1  0  0  0  0  0  0  0  0  0
  200.5919  136.8517  132.1093 N   0  0  0  0  0  0  0  0  0  0  0  0
  199.2121  136.9064  131.8935 C   0  0  0  0  0  0  0  0  0  0  0  0
  198.7165  136.2888  130.8747 O   0  0  0  0  0  0  0  0  0  0  0  0
  198.2562  137.5650  132.6604 O   0  0  0  0  0  0  0  0  0  0  0  0
  198.3554  138.8772  133.1577 C   0  0  0  0  0  0  0  0  0  0  0  0
  197.4458  139.8460  132.4513 C   0  0  0  0  0  0  0  0  0  0  0  0
  197.1205  140.9551  133.4309 C   0  0  0  0  0  0  0  0  0  0  0  0
  196.1576  139.1294  132.1182 C   0  0  0  0  0  0  0  0  0  0  0  0
  198.0500  140.4500  131.2260 C   0  0  0  0  0  0  0  0  0  0  0  0
  198.8376  141.7174  131.5408 C   0  0  0  0  0  0  0  0  0  0  0  0
  199.5852  142.1486  130.3145 C   0  0  0  0  0  0  0  0  0  0  0  0
  200.8919  142.8327  130.6950 C   0  0  0  0  0  0  0  0  0  0  0  0
  201.8147  142.9256  129.5459 C   0  0  0  0  0  0  0  0  0  0  0  0
  202.9539  142.2154  129.3877 C   0  0  0  0  0  0  0  0  0  0  0  0
  203.5347  141.2179  130.2779 C   0  0  0  0  0  0  0  0  0  0  0  0
  204.3403  140.4189  129.3737 N   0  0  0  0  0  0  0  0  0  0  0  0
  204.9526  141.3890  128.4690 C   0  0  0  0  0  0  0  0  0  0  0  0
  203.7894  142.3329  128.2967 C   0  0  0  0  0  0  0  0  0  0  0  0
  203.4245  143.2344  127.3179 C   0  0  0  0  0  0  0  0  0  0  0  0
  202.2704  143.9893  127.4241 C   0  0  0  0  0  0  0  0  0  0  0  0
  201.4742  143.8281  128.5389 C   0  0  0  0  0  0  0  0  0  0  0  0
  204.4401  138.9979  129.4419 C   0  0  0  0  0  0  0  0  0  0  0  0
  204.7910  138.3216  128.4105 O   0  0  0  0  0  0  0  0  0  0  0  0
  204.1461  138.4029  130.6474 O   0  0  0  0  0  0  0  0  0  0  0  0
  200.7527  135.3806  134.1014 C   0  0  0  0  0  0  0  0  0  0  0  0
  200.3793  134.1116  133.4083 C   0  0  0  0  0  0  0  0  0  0  0  0
  199.6786  135.9548  134.9794 C   0  0  0  0  0  0  0  0  0  0  0  0
  201.8829  134.9863  135.0813 C   0  0  0  0  0  0  0  0  0  0  0  0
  205.8418  135.4285  133.1054 C   0  0  0  0  0  0  0  0  0  0  0  0
  206.6144  135.8586  134.0242 O   0  0  0  0  0  0  0  0  0  0  0  0
  205.6430  134.0498  132.9994 N   0  0  0  0  0  0  0  0  0  0  0  0
  205.5021  133.2557  134.2692 C   0  0  2  0  0  0  0  0  0  0  0  0
  204.2487  133.5986  134.9544 C   0  0  0  0  0  0  0  0  0  0  0  0
  205.6294  134.0070  135.5170 C   0  0  1  0  0  0  0  0  0  0  0  0
  205.8002  133.4539  136.8913 C   0  0  0  0  0  0  0  0  0  0  0  0
  204.9081  134.0240  137.9424 C   0  0  0  0  0  0  0  0  0  0  0  0
  206.1007  131.9353  134.1577 C   0  0  0  0  0  0  0  0  0  0  0  0
  206.9337  131.4291  134.9585 O   0  0  0  0  0  0  0  0  0  0  0  0
  205.7297  131.0911  133.0336 N   0  0  0  0  0  0  0  0  0  0  0  0
  204.3699  130.0375  133.1675 S   0  0  0  0  0  6  0  0  0  0  0  0
  203.5499  130.0591  131.8902 O   0  0  0  0  0  0  0  0  0  0  0  0
  204.8083  128.6311  133.4491 O   0  0  0  0  0  0  0  0  0  0  0  0
  203.3820  130.5711  134.5405 C   0  0  0  0  0  0  0  0  0  0  0  0
  202.9335  129.4206  135.4696 C   0  0  0  0  0  0  0  0  0  0  0  0
  203.8778  130.4983  135.9180 C   0  0  0  0  0  0  0  0  0  0  0  0
  1  2  1  0
  3  2  1  6
  3  4  1  0
  4  5  1  0
  5  6  1  0
  6  7  2  0
  6  8  1  0
  8  9  1  0
  9 10  1  0
 10 11  2  0
 10 12  1  0
 12 13  1  0
 13 14  1  0
 14 15  1  0
 14 16  1  0
 14 17  1  0
 17 18  1  0
 18 19  1  0
 19 20  1  0
 20 21  1  0
 21 22  2  0
 22 23  1  0
 23 24  1  0
 24 25  1  0
 25 26  1  0
 26 27  2  0
 27 28  1  0
 28 29  2  0
 24 30  1  0
 30 31  2  0
 30 32  1  0
  8 33  1  6
 33 34  1  0
 33 35  1  0
 33 36  1  0
  1 37  1  1
 37 38  2  0
 37 39  1  0
 40 39  1  6
 40 41  1  0
 41 42  1  0
 42 43  1  1
 43 44  1  0
 40 45  1  0
 45 46  2  0
 45 47  1  0
 47 48  1  0
 48 49  2  0
 48 50  2  0
 48 51  1  0
 51 52  1  0
 52 53  1  0
  5  1  1  0
 29 21  1  0
 42 40  1  0
 53 51  1  0
 32  3  1  0
 26 22  1  0
M  END
$$$$
