
     RDKit          3D

 53 58  0  0  0  0  0  0  0  0999 V2000
  147.5118  173.0379  155.6926 C   0  0  2  0  0  0  0  0  0  0  0  0
  147.3378  172.5441  157.0843 C   0  0  0  0  0  0  0  0  0  0  0  0
  147.7786  173.7819  157.8863 C   0  0  2  0  0  0  0  0  0  0  0  0
  146.9725  174.8378  157.1116 C   0  0  0  0  0  0  0  0  0  0  0  0
  147.3903  174.4868  155.7446 N   0  0  0  0  0  0  0  0  0  0  0  0
  147.5822  175.5148  154.8113 C   0  0  0  0  0  0  0  0  0  0  0  0
  148.0112  175.2208  153.6697 O   0  0  0  0  0  0  0  0  0  0  0  0
  147.3020  176.9712  155.0962 C   0  0  1  0  0  0  0  0  0  0  0  0
  148.5029  177.5749  155.5381 N   0  0  0  0  0  0  0  0  0  0  0  0
  148.9812  178.8844  155.4381 C   0  0  0  0  0  0  0  0  0  0  0  0
  150.1187  179.0895  154.8646 O   0  0  0  0  0  0  0  0  0  0  0  0
  148.3721  180.0498  155.8924 O   0  0  0  0  0  0  0  0  0  0  0  0
  147.7730  180.2332  157.1520 C   0  0  0  0  0  0  0  0  0  0  0  0
  148.5737  181.1257  158.0617 C   0  0  0  0  0  0  0  0  0  0  0  0
  147.6008  181.7818  159.0200 C   0  0  0  0  0  0  0  0  0  0  0  0
  149.2034  182.2140  157.2232 C   0  0  0  0  0  0  0  0  0  0  0  0
  149.6104  180.3981  158.8536 C   0  0  0  0  0  0  0  0  0  0  0  0
  149.0578  179.8720  160.1741 C   0  0  0  0  0  0  0  0  0  0  0  0
  150.0795  178.9801  160.8138 C   0  0  0  0  0  0  0  0  0  0  0  0
  149.4021  177.8779  161.6178 C   0  0  0  0  0  0  0  0  0  0  0  0
  150.3380  176.7815  161.9383 C   0  0  0  0  0  0  0  0  0  0  0  0
  150.3193  175.5430  161.3971 C   0  0  0  0  0  0  0  0  0  0  0  0
  149.4056  175.0002  160.3996 C   0  0  0  0  0  0  0  0  0  0  0  0
  150.1884  173.9353  159.8009 N   0  0  0  0  0  0  0  0  0  0  0  0
  150.8839  173.3116  160.9242 C   0  0  0  0  0  0  0  0  0  0  0  0
  151.2138  174.5458  161.7252 C   0  0  0  0  0  0  0  0  0  0  0  0
  152.1786  174.8486  162.6640 C   0  0  0  0  0  0  0  0  0  0  0  0
  152.2478  176.0985  163.2525 C   0  0  0  0  0  0  0  0  0  0  0  0
  151.3255  177.0556  162.8840 C   0  0  0  0  0  0  0  0  0  0  0  0
  150.2031  173.6475  158.4043 C   0  0  0  0  0  0  0  0  0  0  0  0
  151.1909  173.0188  157.8814 O   0  0  0  0  0  0  0  0  0  0  0  0
  149.1242  174.0710  157.6624 O   0  0  0  0  0  0  0  0  0  0  0  0
  146.6278  177.5763  153.9126 C   0  0  0  0  0  0  0  0  0  0  0  0
  146.1479  178.9750  154.1205 C   0  0  0  0  0  0  0  0  0  0  0  0
  145.6127  176.6482  153.3105 C   0  0  0  0  0  0  0  0  0  0  0  0
  147.7356  177.6865  152.8385 C   0  0  0  0  0  0  0  0  0  0  0  0
  146.5988  172.4510  154.7024 C   0  0  0  0  0  0  0  0  0  0  0  0
  145.3744  172.8040  154.7508 O   0  0  0  0  0  0  0  0  0  0  0  0
  146.9858  171.5376  153.7188 N   0  0  0  0  0  0  0  0  0  0  0  0
  147.4756  172.0791  152.4037 C   0  0  2  0  0  0  0  0  0  0  0  0
  147.3439  173.5419  152.3682 C   0  0  0  0  0  0  0  0  0  0  0  0
  146.4535  172.6170  151.5071 C   0  0  1  0  0  0  0  0  0  0  0  0
  146.6084  172.9638  150.0651 C   0  0  0  0  0  0  0  0  0  0  0  0
  145.3486  173.0341  149.2691 C   0  0  0  0  0  0  0  0  0  0  0  0
  148.5690  171.2898  151.8602 C   0  0  0  0  0  0  0  0  0  0  0  0
  149.6267  171.7446  151.3446 O   0  0  0  0  0  0  0  0  0  0  0  0
  148.4711  169.8396  151.8966 N   0  0  0  0  0  0  0  0  0  0  0  0
  149.7103  168.9178  152.6658 S   0  0  0  0  0  6  0  0  0  0  0  0
  150.0185  169.4807  154.0416 O   0  0  0  0  0  0  0  0  0  0  0  0
  149.3027  167.4806  152.8004 O   0  0  0  0  0  0  0  0  0  0  0  0
  151.1591  168.9658  151.6440 C   0  0  0  0  0  0  0  0  0  0  0  0
  150.8805  169.4034  150.1883 C   0  0  0  0  0  0  0  0  0  0  0  0
  151.6999  170.2302  151.1365 C   0  0  0  0  0  0  0  0  0  0  0  0
  1  2  1  0
  3  2  1  6
  3  4  1  0
  4  5  1  0
  5  6  1  0
  6  7  2  0
  6  8  1  0
  8  9  1  0
  9 10  1  0
 10 11  2  0
 10 12  1  0
 12 13  1  0
 13 14  1  0
 14 15  1  0
 14 16  1  0
 14 17  1  0
 17 18  1  0
 18 19  1  0
 19 20  1  0
 20 21  1  0
 21 22  2  0
 22 23  1  0
 23 24  1  0
 24 25  1  0
 25 26  1  0
 26 27  2  0
 27 28  1  0
 28 29  2  0
 24 30  1  0
 30 31  2  0
 30 32  1  0
  8 33  1  6
 33 34  1  0
 33 35  1  0
 33 36  1  0
  1 37  1  6
 37 38  2  0
 37 39  1  0
 40 39  1  1
 40 41  1  0
 41 42  1  0
 42 43  1  6
 43 44  1  0
 40 45  1  0
 45 46  2  0
 45 47  1  0
 47 48  1  0
 48 49  2  0
 48 50  2  0
 48 51  1  0
 51 52  1  0
 52 53  1  0
  5  1  1  0
 29 21  1  0
 42 40  1  0
 53 51  1  0
 32  3  1  0
 26 22  1  0
M  END
$$$$
