
     RDKit          3D

 53 58  0  0  0  0  0  0  0  0999 V2000
  190.1951  157.4143  120.8664 C   0  0  2  0  0  0  0  0  0  0  0  0
  190.5080  158.4252  119.8220 C   0  0  0  0  0  0  0  0  0  0  0  0
  190.2964  159.7298  120.6112 C   0  0  2  0  0  0  0  0  0  0  0  0
  191.0857  159.3470  121.8742 C   0  0  0  0  0  0  0  0  0  0  0  0
  190.4570  158.0452  122.1510 N   0  0  0  0  0  0  0  0  0  0  0  0
  190.2378  157.6700  123.4836 C   0  0  0  0  0  0  0  0  0  0  0  0
  189.6336  156.5955  123.7162 O   0  0  0  0  0  0  0  0  0  0  0  0
  190.6882  158.4869  124.6714 C   0  0  1  0  0  0  0  0  0  0  0  0
  189.6192  159.3277  125.0614 N   0  0  0  0  0  0  0  0  0  0  0  0
  189.2559  159.8613  126.3011 C   0  0  0  0  0  0  0  0  0  0  0  0
  188.0756  159.6175  126.7620 O   0  0  0  0  0  0  0  0  0  0  0  0
  190.0264  160.6554  127.1446 O   0  0  0  0  0  0  0  0  0  0  0  0
  190.8040  161.7619  126.7571 C   0  0  0  0  0  0  0  0  0  0  0  0
  190.2197  163.0768  127.1979 C   0  0  0  0  0  0  0  0  0  0  0  0
  191.3695  164.0506  127.3561 C   0  0  0  0  0  0  0  0  0  0  0  0
  189.5871  162.8822  128.5565 C   0  0  0  0  0  0  0  0  0  0  0  0
  189.2358  163.6492  126.2307 C   0  0  0  0  0  0  0  0  0  0  0  0
  189.9096  164.5218  125.1770 C   0  0  0  0  0  0  0  0  0  0  0  0
  188.9047  164.8870  124.1257 C   0  0  0  0  0  0  0  0  0  0  0  0
  189.5784  165.0373  122.7679 C   0  0  0  0  0  0  0  0  0  0  0  0
  188.5962  165.0180  121.6654 C   0  0  0  0  0  0  0  0  0  0  0  0
  188.4264  164.0145  120.7758 C   0  0  0  0  0  0  0  0  0  0  0  0
  189.1429  162.7484  120.6854 C   0  0  0  0  0  0  0  0  0  0  0  0
  188.1910  161.8953  119.9992 N   0  0  0  0  0  0  0  0  0  0  0  0
  187.5979  162.7522  118.9753 C   0  0  0  0  0  0  0  0  0  0  0  0
  187.4952  164.0365  119.7587 C   0  0  0  0  0  0  0  0  0  0  0  0
  186.6979  165.1582  119.6584 C   0  0  0  0  0  0  0  0  0  0  0  0
  186.8253  166.2169  120.5395 C   0  0  0  0  0  0  0  0  0  0  0  0
  187.7747  166.1375  121.5369 C   0  0  0  0  0  0  0  0  0  0  0  0
  187.9618  160.5283  120.3348 C   0  0  0  0  0  0  0  0  0  0  0  0
  186.8584  159.9578  120.0162 O   0  0  0  0  0  0  0  0  0  0  0  0
  188.9657  159.8672  121.0047 O   0  0  0  0  0  0  0  0  0  0  0  0
  191.2504  157.5717  125.7047 C   0  0  0  0  0  0  0  0  0  0  0  0
  192.4150  156.7581  125.2447 C   0  0  0  0  0  0  0  0  0  0  0  0
  190.1767  156.7896  126.4047 C   0  0  0  0  0  0  0  0  0  0  0  0
  191.8199  158.5082  126.7964 C   0  0  0  0  0  0  0  0  0  0  0  0
  190.9079  156.1365  120.7332 C   0  0  0  0  0  0  0  0  0  0  0  0
  190.2253  155.1165  120.3868 O   0  0  0  0  0  0  0  0  0  0  0  0
  192.2763  155.9709  120.9605 N   0  0  0  0  0  0  0  0  0  0  0  0
  193.2253  156.9288  120.2936 C   0  0  2  0  0  0  0  0  0  0  0  0
  194.6031  156.4247  120.3692 C   0  0  0  0  0  0  0  0  0  0  0  0
  194.1346  157.6561  121.1779 C   0  0  1  0  0  0  0  0  0  0  0  0
  194.9763  158.8380  120.8342 C   0  0  0  0  0  0  0  0  0  0  0  0
  196.4068  158.7673  121.2517 C   0  0  0  0  0  0  0  0  0  0  0  0
  192.6093  157.6151  119.1695 C   0  0  0  0  0  0  0  0  0  0  0  0
  192.6127  157.2240  117.9701 O   0  0  0  0  0  0  0  0  0  0  0  0
  191.9164  158.8705  119.4100 N   0  0  0  0  0  0  0  0  0  0  0  0
  191.8767  160.0755  118.1759 S   0  0  0  0  0  6  0  0  0  0  0  0
  190.5100  160.7336  118.1157 O   0  0  0  0  0  0  0  0  0  0  0  0
  192.9199  161.1254  118.4192 O   0  0  0  0  0  0  0  0  0  0  0  0
  192.2539  159.3009  116.6256 C   0  0  0  0  0  0  0  0  0  0  0  0
  192.1737  157.7582  116.6642 C   0  0  0  0  0  0  0  0  0  0  0  0
  191.2298  158.5950  115.8500 C   0  0  0  0  0  0  0  0  0  0  0  0
  1  2  1  0
  3  2  1  6
  3  4  1  0
  4  5  1  0
  5  6  1  0
  6  7  2  0
  6  8  1  0
  8  9  1  0
  9 10  1  0
 10 11  2  0
 10 12  1  0
 12 13  1  0
 13 14  1  0
 14 15  1  0
 14 16  1  0
 14 17  1  0
 17 18  1  0
 18 19  1  0
 19 20  1  0
 20 21  1  0
 21 22  2  0
 22 23  1  0
 23 24  1  0
 24 25  1  0
 25 26  1  0
 26 27  2  0
 27 28  1  0
 28 29  2  0
 24 30  1  0
 30 31  2  0
 30 32  1  0
  8 33  1  1
 33 34  1  0
 33 35  1  0
 33 36  1  0
  1 37  1  6
 37 38  2  0
 37 39  1  0
 40 39  1  1
 40 41  1  0
 41 42  1  0
 42 43  1  6
 43 44  1  0
 40 45  1  0
 45 46  2  0
 45 47  1  0
 47 48  1  0
 48 49  2  0
 48 50  2  0
 48 51  1  0
 51 52  1  0
 52 53  1  0
  5  1  1  0
 29 21  1  0
 42 40  1  0
 53 51  1  0
 32  3  1  0
 26 22  1  0
M  END
$$$$
