
     RDKit          3D

 43 48  0  0  0  0  0  0  0  0999 V2000
  199.7952  181.2984  141.3698 C   0  0  0  0  0  0  0  0  0  0  0  0
  199.2479  180.1183  140.8757 O   0  0  0  0  0  0  0  0  0  0  0  0
  198.5697  179.1870  141.6401 C   0  0  0  0  0  0  0  0  0  0  0  0
  198.9305  177.8331  141.6374 C   0  0  0  0  0  0  0  0  0  0  0  0
  198.2574  176.9103  142.3982 C   0  0  0  0  0  0  0  0  0  0  0  0
  197.2173  177.3711  143.1642 C   0  0  0  0  0  0  0  0  0  0  0  0
  196.5874  176.3205  143.9787 C   0  0  0  0  0  0  0  0  0  0  0  0
  197.3336  175.3196  144.5147 C   0  0  0  0  0  0  0  0  0  0  0  0
  198.7772  175.2255  144.5902 C   0  0  0  0  0  0  0  0  0  0  0  0
  199.2583  174.6076  143.2216 C   0  0  0  0  0  0  0  0  0  0  0  0
  200.7380  174.7985  143.1910 C   0  0  0  0  0  0  0  0  0  0  0  0
  201.3937  174.8551  144.5526 C   0  0  0  0  0  0  0  0  0  0  0  0
  200.8842  175.9821  145.4230 C   0  0  0  0  0  0  0  0  0  0  0  0
  199.5869  176.4494  144.7053 C   0  0  0  0  0  0  0  0  0  0  0  0
  196.3746  174.5016  145.1096 C   0  0  0  0  0  0  0  0  0  0  0  0
  196.6361  173.3316  145.7824 C   0  0  0  0  0  0  0  0  0  0  0  0
  195.5398  172.6851  146.2903 C   0  0  0  0  0  0  0  0  0  0  0  0
  194.2127  173.1787  146.1397 C   0  0  0  0  0  0  0  0  0  0  0  0
  193.9752  174.3573  145.4531 C   0  0  0  0  0  0  0  0  0  0  0  0
  195.0799  175.0201  144.9366 C   0  0  0  0  0  0  0  0  0  0  0  0
  195.2462  176.1374  144.2409 N   0  0  0  0  0  0  0  0  0  0  0  0
  194.2944  177.1451  143.7898 C   0  0  0  0  0  0  0  0  0  0  0  0
  194.5608  178.5533  144.1597 C   0  0  0  0  0  0  0  0  0  0  0  0
  195.6693  179.2783  143.8783 C   0  0  0  0  0  0  0  0  0  0  0  0
  196.8256  178.7112  143.1883 C   0  0  0  0  0  0  0  0  0  0  0  0
  197.5172  179.6240  142.4151 C   0  0  0  0  0  0  0  0  0  0  0  0
  193.6445  179.4588  144.8366 C   0  0  0  0  0  0  0  0  0  0  0  0
  193.5465  180.6170  144.2162 O   0  0  0  0  0  0  0  0  0  0  0  0
  192.8689  179.3506  145.9787 N   0  0  0  0  0  0  0  0  0  0  0  0
  191.4009  179.4954  145.8295 C   0  0  0  0  0  0  0  0  0  0  0  0
  193.2817  179.1404  147.3525 C   0  0  0  0  0  0  0  0  0  0  0  0
  192.9247  177.7734  147.8044 C   0  0  0  0  0  0  0  0  0  0  0  0
  191.7314  177.5937  148.4375 O   0  0  0  0  0  0  0  0  0  0  0  0
  191.9195  176.9380  149.6385 C   0  0  0  0  0  0  0  0  0  0  0  0
  190.9150  175.8839  149.9724 C   0  0  0  0  0  0  0  0  0  0  0  0
  191.4225  174.5142  149.8193 N   0  0  0  0  0  0  0  0  0  0  0  0
  190.3260  173.5730  149.9527 C   0  0  0  0  0  0  0  0  0  0  0  0
  192.0916  174.3014  148.2489 S   0  0  0  0  0  6  0  0  0  0  0  0
  191.2278  175.0472  147.3099 O   0  0  0  0  0  0  0  0  0  0  0  0
  193.5473  174.7753  148.2415 O   0  0  0  0  0  0  0  0  0  0  0  0
  192.2500  172.6257  147.7869 N   0  0  0  0  0  0  0  0  0  0  0  0
  193.2931  172.2740  146.8581 C   0  0  0  0  0  0  0  0  0  0  0  0
  193.3784  171.0022  146.6863 O   0  0  0  0  0  0  0  0  0  0  0  0
  1  2  1  0
  2  3  1  0
  3  4  2  0
  4  5  1  0
  5  6  2  0
  6  7  1  0
  7  8  2  0
  8  9  1  0
  9 10  1  0
 10 11  1  0
 11 12  1  0
 12 13  1  0
 13 14  1  0
  8 15  1  0
 15 16  2  0
 16 17  1  0
 17 18  2  0
 18 19  1  0
 19 20  2  0
 20 21  1  0
 21 22  1  0
 22 23  1  0
 23 24  2  0
 24 25  1  0
 25 26  2  0
 23 27  1  0
 27 28  2  0
 27 29  1  0
 29 30  1  0
 29 31  1  0
 31 32  1  0
 32 33  1  0
 33 34  1  0
 34 35  1  0
 35 36  1  0
 36 37  1  0
 36 38  1  0
 38 39  2  0
 38 40  2  0
 38 41  1  0
 41 42  1  0
 42 43  2  0
 26  3  1  0
 25  6  1  0
 21  7  1  0
 14  9  1  0
 20 15  1  0
 42 18  1  0
M  END
$$$$
