
     RDKit          3D

 43 48  0  0  0  0  0  0  0  0999 V2000
  137.7731  135.1019  132.5249 C   0  0  0  0  0  0  0  0  0  0  0  0
  137.4070  136.3356  131.9952 O   0  0  0  0  0  0  0  0  0  0  0  0
  136.1717  136.9308  132.1725 C   0  0  0  0  0  0  0  0  0  0  0  0
  136.0280  138.3239  132.2141 C   0  0  0  0  0  0  0  0  0  0  0  0
  134.8008  138.9130  132.3882 C   0  0  0  0  0  0  0  0  0  0  0  0
  133.7197  138.0790  132.5170 C   0  0  0  0  0  0  0  0  0  0  0  0
  132.4445  138.7997  132.6526 C   0  0  0  0  0  0  0  0  0  0  0  0
  132.2322  139.9626  131.9831 C   0  0  0  0  0  0  0  0  0  0  0  0
  133.0345  140.5421  130.9253 C   0  0  0  0  0  0  0  0  0  0  0  0
  132.4748  141.9964  130.6837 C   0  0  0  0  0  0  0  0  0  0  0  0
  133.4857  142.6799  129.8247 C   0  0  0  0  0  0  0  0  0  0  0  0
  134.2892  141.7535  128.9397 C   0  0  0  0  0  0  0  0  0  0  0  0
  135.0819  140.7196  129.7078 C   0  0  0  0  0  0  0  0  0  0  0  0
  134.4731  140.7706  131.1373 C   0  0  0  0  0  0  0  0  0  0  0  0
  130.9815  140.3651  132.4485 C   0  0  0  0  0  0  0  0  0  0  0  0
  130.3250  141.5121  132.0700 C   0  0  0  0  0  0  0  0  0  0  0  0
  129.1014  141.7119  132.6537 C   0  0  0  0  0  0  0  0  0  0  0  0
  128.5344  140.8023  133.5911 C   0  0  0  0  0  0  0  0  0  0  0  0
  129.2181  139.6562  133.9598 C   0  0  0  0  0  0  0  0  0  0  0  0
  130.4577  139.4447  133.3724 C   0  0  0  0  0  0  0  0  0  0  0  0
  131.3789  138.4953  133.4730 N   0  0  0  0  0  0  0  0  0  0  0  0
  131.4041  137.2503  134.2309 C   0  0  0  0  0  0  0  0  0  0  0  0
  131.6739  136.0001  133.4859 C   0  0  0  0  0  0  0  0  0  0  0  0
  132.7580  135.7178  132.7252 C   0  0  0  0  0  0  0  0  0  0  0  0
  133.8250  136.6869  132.4862 C   0  0  0  0  0  0  0  0  0  0  0  0
  135.0699  136.1142  132.3093 C   0  0  0  0  0  0  0  0  0  0  0  0
  130.8553  134.7970  133.4885 C   0  0  0  0  0  0  0  0  0  0  0  0
  131.5698  133.7141  133.7182 O   0  0  0  0  0  0  0  0  0  0  0  0
  129.5028  134.5650  133.3027 N   0  0  0  0  0  0  0  0  0  0  0  0
  128.7539  133.9339  134.4160 C   0  0  0  0  0  0  0  0  0  0  0  0
  128.6782  134.8232  132.1386 C   0  0  0  0  0  0  0  0  0  0  0  0
  127.7536  135.9554  132.3910 C   0  0  0  0  0  0  0  0  0  0  0  0
  126.5040  135.6769  132.8579 O   0  0  0  0  0  0  0  0  0  0  0  0
  125.5496  136.2856  132.0667 C   0  0  0  0  0  0  0  0  0  0  0  0
  124.4010  136.9091  132.7903 C   0  0  0  0  0  0  0  0  0  0  0  0
  124.4545  138.3763  132.8313 N   0  0  0  0  0  0  0  0  0  0  0  0
  123.4291  138.8741  133.7294 C   0  0  0  0  0  0  0  0  0  0  0  0
  125.9729  138.8976  133.4487 S   0  0  0  0  0  6  0  0  0  0  0  0
  126.3435  137.9570  134.5267 O   0  0  0  0  0  0  0  0  0  0  0  0
  126.9981  138.9539  132.3131 O   0  0  0  0  0  0  0  0  0  0  0  0
  125.9593  140.5499  134.0113 N   0  0  0  0  0  0  0  0  0  0  0  0
  127.1927  141.2923  133.9650 C   0  0  0  0  0  0  0  0  0  0  0  0
  127.0280  142.5238  134.2976 O   0  0  0  0  0  0  0  0  0  0  0  0
  1  2  1  0
  2  3  1  0
  3  4  2  0
  4  5  1  0
  5  6  2  0
  6  7  1  0
  7  8  2  0
  8  9  1  0
  9 10  1  0
 10 11  1  0
 11 12  1  0
 12 13  1  0
 13 14  1  0
  8 15  1  0
 15 16  2  0
 16 17  1  0
 17 18  2  0
 18 19  1  0
 19 20  2  0
 20 21  1  0
 21 22  1  0
 22 23  1  0
 23 24  2  0
 24 25  1  0
 25 26  2  0
 23 27  1  0
 27 28  2  0
 27 29  1  0
 29 30  1  0
 29 31  1  0
 31 32  1  0
 32 33  1  0
 33 34  1  0
 34 35  1  0
 35 36  1  0
 36 37  1  0
 36 38  1  0
 38 39  2  0
 38 40  2  0
 38 41  1  0
 41 42  1  0
 42 43  2  0
 26  3  1  0
 25  6  1  0
 21  7  1  0
 14  9  1  0
 20 15  1  0
 42 18  1  0
M  END
$$$$
