
     RDKit          3D

 43 48  0  0  0  0  0  0  0  0999 V2000
  114.5765  168.6095  136.0296 C   0  0  0  0  0  0  0  0  0  0  0  0
  114.8330  167.3210  136.4883 O   0  0  0  0  0  0  0  0  0  0  0  0
  115.5357  167.0233  137.6412 C   0  0  0  0  0  0  0  0  0  0  0  0
  116.8659  166.5858  137.5971 C   0  0  0  0  0  0  0  0  0  0  0  0
  117.5625  166.2926  138.7426 C   0  0  0  0  0  0  0  0  0  0  0  0
  116.9009  166.4491  139.9337 C   0  0  0  0  0  0  0  0  0  0  0  0
  117.7403  166.1564  141.1058 C   0  0  0  0  0  0  0  0  0  0  0  0
  119.0626  166.4682  141.1053 C   0  0  0  0  0  0  0  0  0  0  0  0
  119.7863  167.2840  140.1517 C   0  0  0  0  0  0  0  0  0  0  0  0
  119.5751  168.7831  140.5929 C   0  0  0  0  0  0  0  0  0  0  0  0
  120.5583  169.5787  139.8009 C   0  0  0  0  0  0  0  0  0  0  0  0
  120.9364  168.9676  138.4703 C   0  0  0  0  0  0  0  0  0  0  0  0
  121.5669  167.5982  138.5908 C   0  0  0  0  0  0  0  0  0  0  0  0
  121.2504  167.1701  140.0514 C   0  0  0  0  0  0  0  0  0  0  0  0
  119.5041  165.9512  142.3220 C   0  0  0  0  0  0  0  0  0  0  0  0
  120.7974  166.0050  142.7850 C   0  0  0  0  0  0  0  0  0  0  0  0
  121.0095  165.4325  144.0119 C   0  0  0  0  0  0  0  0  0  0  0  0
  119.9709  164.8190  144.7685 C   0  0  0  0  0  0  0  0  0  0  0  0
  118.6771  164.7733  144.2777 C   0  0  0  0  0  0  0  0  0  0  0  0
  118.4525  165.3522  143.0364 C   0  0  0  0  0  0  0  0  0  0  0  0
  117.3841  165.4976  142.2635 N   0  0  0  0  0  0  0  0  0  0  0  0
  115.9877  165.1317  142.4668 C   0  0  0  0  0  0  0  0  0  0  0  0
  114.9711  166.1963  142.3122 C   0  0  0  0  0  0  0  0  0  0  0  0
  114.7517  166.9670  141.2207 C   0  0  0  0  0  0  0  0  0  0  0  0
  115.5744  166.8773  140.0166 C   0  0  0  0  0  0  0  0  0  0  0  0
  114.8915  167.1678  138.8510 C   0  0  0  0  0  0  0  0  0  0  0  0
  113.9552  166.5709  143.2845 C   0  0  0  0  0  0  0  0  0  0  0  0
  112.7556  166.6388  142.7439 O   0  0  0  0  0  0  0  0  0  0  0  0
  113.9938  166.8638  144.6373 N   0  0  0  0  0  0  0  0  0  0  0  0
  113.1974  166.0080  145.5494 C   0  0  0  0  0  0  0  0  0  0  0  0
  114.6910  167.9322  145.3260 C   0  0  0  0  0  0  0  0  0  0  0  0
  115.8340  167.3963  146.1049 C   0  0  0  0  0  0  0  0  0  0  0  0
  115.6297  167.0747  147.4133 O   0  0  0  0  0  0  0  0  0  0  0  0
  116.5743  167.6896  148.2117 C   0  0  0  0  0  0  0  0  0  0  0  0
  117.1371  166.8579  149.3177 C   0  0  0  0  0  0  0  0  0  0  0  0
  118.5077  166.3927  149.0686 N   0  0  0  0  0  0  0  0  0  0  0  0
  118.8837  165.4261  150.0836 C   0  0  0  0  0  0  0  0  0  0  0  0
  118.5968  165.5971  147.5461 S   0  0  0  0  0  6  0  0  0  0  0  0
  117.3463  164.8247  147.3919 O   0  0  0  0  0  0  0  0  0  0  0  0
  118.8125  166.6307  146.4375 O   0  0  0  0  0  0  0  0  0  0  0  0
  120.0066  164.5817  147.3788 N   0  0  0  0  0  0  0  0  0  0  0  0
  120.5349  164.3674  146.0562 C   0  0  0  0  0  0  0  0  0  0  0  0
  121.6336  163.6990  146.0773 O   0  0  0  0  0  0  0  0  0  0  0  0
  1  2  1  0
  2  3  1  0
  3  4  2  0
  4  5  1  0
  5  6  2  0
  6  7  1  0
  7  8  2  0
  8  9  1  0
  9 10  1  0
 10 11  1  0
 11 12  1  0
 12 13  1  0
 13 14  1  0
  8 15  1  0
 15 16  2  0
 16 17  1  0
 17 18  2  0
 18 19  1  0
 19 20  2  0
 20 21  1  0
 21 22  1  0
 22 23  1  0
 23 24  2  0
 24 25  1  0
 25 26  2  0
 23 27  1  0
 27 28  2  0
 27 29  1  0
 29 30  1  0
 29 31  1  0
 31 32  1  0
 32 33  1  0
 33 34  1  0
 34 35  1  0
 35 36  1  0
 36 37  1  0
 36 38  1  0
 38 39  2  0
 38 40  2  0
 38 41  1  0
 41 42  1  0
 42 43  2  0
 26  3  1  0
 25  6  1  0
 21  7  1  0
 14  9  1  0
 20 15  1  0
 42 18  1  0
M  END
$$$$
