
     RDKit          3D

 43 48  0  0  0  0  0  0  0  0999 V2000
  176.4433  155.9326  111.7258 C   0  0  0  0  0  0  0  0  0  0  0  0
  176.5807  157.0302  112.5702 O   0  0  0  0  0  0  0  0  0  0  0  0
  176.0198  158.2728  112.3402 C   0  0  0  0  0  0  0  0  0  0  0  0
  175.0346  158.8006  113.1851 C   0  0  0  0  0  0  0  0  0  0  0  0
  174.4804  160.0351  112.9565 C   0  0  0  0  0  0  0  0  0  0  0  0
  174.9347  160.7318  111.8661 C   0  0  0  0  0  0  0  0  0  0  0  0
  174.3177  162.0602  111.7287 C   0  0  0  0  0  0  0  0  0  0  0  0
  174.0075  162.7961  112.8279 C   0  0  0  0  0  0  0  0  0  0  0  0
  174.3995  162.5564  114.2016 C   0  0  0  0  0  0  0  0  0  0  0  0
  175.5157  161.4432  114.1615 C   0  0  0  0  0  0  0  0  0  0  0  0
  176.1176  161.4264  115.5269 C   0  0  0  0  0  0  0  0  0  0  0  0
  175.1864  161.8751  116.6309 C   0  0  0  0  0  0  0  0  0  0  0  0
  174.6800  163.2896  116.4575 C   0  0  0  0  0  0  0  0  0  0  0  0
  175.0311  163.6325  114.9825 C   0  0  0  0  0  0  0  0  0  0  0  0
  173.3677  163.9094  112.2857 C   0  0  0  0  0  0  0  0  0  0  0  0
  172.8470  164.9563  113.0089 C   0  0  0  0  0  0  0  0  0  0  0  0
  172.2601  165.9500  112.2700 C   0  0  0  0  0  0  0  0  0  0  0  0
  172.1861  165.9152  110.8484 C   0  0  0  0  0  0  0  0  0  0  0  0
  172.7138  164.8469  110.1433 C   0  0  0  0  0  0  0  0  0  0  0  0
  173.3120  163.8364  110.8833 C   0  0  0  0  0  0  0  0  0  0  0  0
  173.9057  162.6911  110.5740 N   0  0  0  0  0  0  0  0  0  0  0  0
  174.2038  162.0742  109.2873 C   0  0  0  0  0  0  0  0  0  0  0  0
  175.6073  161.6854  109.0228 C   0  0  0  0  0  0  0  0  0  0  0  0
  176.3770  160.8472  109.7566 C   0  0  0  0  0  0  0  0  0  0  0  0
  175.9106  160.2360  110.9990 C   0  0  0  0  0  0  0  0  0  0  0  0
  176.4559  158.9911  111.2479 C   0  0  0  0  0  0  0  0  0  0  0  0
  176.4111  162.0733  107.8735 C   0  0  0  0  0  0  0  0  0  0  0  0
  176.9977  161.0375  107.3089 O   0  0  0  0  0  0  0  0  0  0  0  0
  176.6781  163.2880  107.2645 N   0  0  0  0  0  0  0  0  0  0  0  0
  176.2820  163.4474  105.8446 C   0  0  0  0  0  0  0  0  0  0  0  0
  177.3348  164.4618  107.8056 C   0  0  0  0  0  0  0  0  0  0  0  0
  176.3584  165.5580  108.0188 C   0  0  0  0  0  0  0  0  0  0  0  0
  176.1830  166.4696  107.0211 O   0  0  0  0  0  0  0  0  0  0  0  0
  176.3253  167.7523  107.5130 C   0  0  0  0  0  0  0  0  0  0  0  0
  175.3482  168.7605  107.0028 C   0  0  0  0  0  0  0  0  0  0  0  0
  174.3168  169.1314  107.9805 N   0  0  0  0  0  0  0  0  0  0  0  0
  173.3006  169.9385  107.3309 C   0  0  0  0  0  0  0  0  0  0  0  0
  173.5403  167.7216  108.5874 S   0  0  0  0  0  6  0  0  0  0  0  0
  173.4037  166.7848  107.4525 O   0  0  0  0  0  0  0  0  0  0  0  0
  174.3512  167.1491  109.7529 O   0  0  0  0  0  0  0  0  0  0  0  0
  172.0003  168.0511  109.3402 N   0  0  0  0  0  0  0  0  0  0  0  0
  171.5515  167.1644  110.3826 C   0  0  0  0  0  0  0  0  0  0  0  0
  170.4640  167.5762  110.9321 O   0  0  0  0  0  0  0  0  0  0  0  0
  1  2  1  0
  2  3  1  0
  3  4  2  0
  4  5  1  0
  5  6  2  0
  6  7  1  0
  7  8  2  0
  8  9  1  0
  9 10  1  0
 10 11  1  0
 11 12  1  0
 12 13  1  0
 13 14  1  0
  8 15  1  0
 15 16  2  0
 16 17  1  0
 17 18  2  0
 18 19  1  0
 19 20  2  0
 20 21  1  0
 21 22  1  0
 22 23  1  0
 23 24  2  0
 24 25  1  0
 25 26  2  0
 23 27  1  0
 27 28  2  0
 27 29  1  0
 29 30  1  0
 29 31  1  0
 31 32  1  0
 32 33  1  0
 33 34  1  0
 34 35  1  0
 35 36  1  0
 36 37  1  0
 36 38  1  0
 38 39  2  0
 38 40  2  0
 38 41  1  0
 41 42  1  0
 42 43  2  0
 26  3  1  0
 25  6  1  0
 21  7  1  0
 14  9  1  0
 20 15  1  0
 42 18  1  0
M  END
$$$$
