
     RDKit          3D

 43 48  0  0  0  0  0  0  0  0999 V2000
  123.8537  161.4291  144.4698 C   0  0  0  0  0  0  0  0  0  0  0  0
  122.5418  161.1598  144.0921 O   0  0  0  0  0  0  0  0  0  0  0  0
  121.6182  162.1200  143.7226 C   0  0  0  0  0  0  0  0  0  0  0  0
  121.1153  162.1901  142.4168 C   0  0  0  0  0  0  0  0  0  0  0  0
  120.1972  163.1427  142.0523 C   0  0  0  0  0  0  0  0  0  0  0  0
  119.7904  164.0223  143.0228 C   0  0  0  0  0  0  0  0  0  0  0  0
  118.7731  164.9750  142.5522 C   0  0  0  0  0  0  0  0  0  0  0  0
  117.8302  164.5922  141.6520 C   0  0  0  0  0  0  0  0  0  0  0  0
  117.5170  163.2506  141.2044 C   0  0  0  0  0  0  0  0  0  0  0  0
  116.7136  162.5638  142.3746 C   0  0  0  0  0  0  0  0  0  0  0  0
  116.1414  161.3147  141.7920 C   0  0  0  0  0  0  0  0  0  0  0  0
  116.9366  160.7338  140.6442 C   0  0  0  0  0  0  0  0  0  0  0  0
  117.0733  161.6730  139.4667 C   0  0  0  0  0  0  0  0  0  0  0  0
  116.6407  163.0523  140.0385 C   0  0  0  0  0  0  0  0  0  0  0  0
  117.1434  165.7782  141.3983 C   0  0  0  0  0  0  0  0  0  0  0  0
  116.0876  165.9137  140.5283 C   0  0  0  0  0  0  0  0  0  0  0  0
  115.5593  167.1745  140.4330 C   0  0  0  0  0  0  0  0  0  0  0  0
  116.0589  168.2803  141.1780 C   0  0  0  0  0  0  0  0  0  0  0  0
  117.1269  168.1189  142.0442 C   0  0  0  0  0  0  0  0  0  0  0  0
  117.6675  166.8448  142.1485 C   0  0  0  0  0  0  0  0  0  0  0  0
  118.6643  166.3175  142.8474 N   0  0  0  0  0  0  0  0  0  0  0  0
  119.5605  166.8972  143.8402 C   0  0  0  0  0  0  0  0  0  0  0  0
  119.6479  166.2285  145.1577 C   0  0  0  0  0  0  0  0  0  0  0  0
  119.9897  164.9413  145.4018 C   0  0  0  0  0  0  0  0  0  0  0  0
  120.2732  163.9866  144.3326 C   0  0  0  0  0  0  0  0  0  0  0  0
  121.1968  163.0190  144.6786 C   0  0  0  0  0  0  0  0  0  0  0  0
  119.4545  166.8509  146.4589 C   0  0  0  0  0  0  0  0  0  0  0  0
  120.4336  166.5656  147.2931 O   0  0  0  0  0  0  0  0  0  0  0  0
  118.4687  167.6675  146.9868 N   0  0  0  0  0  0  0  0  0  0  0  0
  118.8710  169.0140  147.4595 C   0  0  0  0  0  0  0  0  0  0  0  0
  117.0589  167.3940  147.1859 C   0  0  0  0  0  0  0  0  0  0  0  0
  116.2335  168.1693  146.2277 C   0  0  0  0  0  0  0  0  0  0  0  0
  115.7588  169.3848  146.6204 O   0  0  0  0  0  0  0  0  0  0  0  0
  114.3939  169.4542  146.4204 C   0  0  0  0  0  0  0  0  0  0  0  0
  113.8779  170.7451  145.8738 C   0  0  0  0  0  0  0  0  0  0  0  0
  113.4883  170.6745  144.4595 N   0  0  0  0  0  0  0  0  0  0  0  0
  113.2101  172.0104  143.9657 C   0  0  0  0  0  0  0  0  0  0  0  0
  114.7811  170.0400  143.5189 S   0  0  0  0  0  6  0  0  0  0  0  0
  116.0312  170.5964  144.0773 O   0  0  0  0  0  0  0  0  0  0  0  0
  114.7332  168.5100  143.5443 O   0  0  0  0  0  0  0  0  0  0  0  0
  114.6280  170.3824  141.8142 N   0  0  0  0  0  0  0  0  0  0  0  0
  115.2224  169.4602  140.8811 C   0  0  0  0  0  0  0  0  0  0  0  0
  114.9448  169.7606  139.6617 O   0  0  0  0  0  0  0  0  0  0  0  0
  1  2  1  0
  2  3  1  0
  3  4  2  0
  4  5  1  0
  5  6  2  0
  6  7  1  0
  7  8  2  0
  8  9  1  0
  9 10  1  0
 10 11  1  0
 11 12  1  0
 12 13  1  0
 13 14  1  0
  8 15  1  0
 15 16  2  0
 16 17  1  0
 17 18  2  0
 18 19  1  0
 19 20  2  0
 20 21  1  0
 21 22  1  0
 22 23  1  0
 23 24  2  0
 24 25  1  0
 25 26  2  0
 23 27  1  0
 27 28  2  0
 27 29  1  0
 29 30  1  0
 29 31  1  0
 31 32  1  0
 32 33  1  0
 33 34  1  0
 34 35  1  0
 35 36  1  0
 36 37  1  0
 36 38  1  0
 38 39  2  0
 38 40  2  0
 38 41  1  0
 41 42  1  0
 42 43  2  0
 26  3  1  0
 25  6  1  0
 21  7  1  0
 14  9  1  0
 20 15  1  0
 42 18  1  0
M  END
$$$$
