
     RDKit          3D

 43 48  0  0  0  0  0  0  0  0999 V2000
  129.3616  169.5422  154.0999 C   0  0  0  0  0  0  0  0  0  0  0  0
  129.8153  168.6629  153.1213 O   0  0  0  0  0  0  0  0  0  0  0  0
  130.4597  167.4669  153.3781 C   0  0  0  0  0  0  0  0  0  0  0  0
  130.3377  166.3684  152.5172 C   0  0  0  0  0  0  0  0  0  0  0  0
  130.9796  165.1826  152.7726 C   0  0  0  0  0  0  0  0  0  0  0  0
  131.7487  165.1199  153.9065 C   0  0  0  0  0  0  0  0  0  0  0  0
  132.4331  163.8283  154.0720 C   0  0  0  0  0  0  0  0  0  0  0  0
  132.8954  163.1466  152.9916 C   0  0  0  0  0  0  0  0  0  0  0  0
  133.0139  163.6141  151.6256 C   0  0  0  0  0  0  0  0  0  0  0  0
  134.4145  164.3302  151.5168 C   0  0  0  0  0  0  0  0  0  0  0  0
  134.6521  164.5316  150.0574 C   0  0  0  0  0  0  0  0  0  0  0  0
  133.3948  164.6538  149.2259 C   0  0  0  0  0  0  0  0  0  0  0  0
  132.5001  163.4367  149.2997 C   0  0  0  0  0  0  0  0  0  0  0  0
  133.0495  162.6442  150.5190 C   0  0  0  0  0  0  0  0  0  0  0  0
  133.3722  161.9628  153.5520 C   0  0  0  0  0  0  0  0  0  0  0  0
  133.9364  160.9235  152.8510 C   0  0  0  0  0  0  0  0  0  0  0  0
  134.3384  159.8523  153.6052 C   0  0  0  0  0  0  0  0  0  0  0  0
  134.1885  159.8035  155.0204 C   0  0  0  0  0  0  0  0  0  0  0  0
  133.6124  160.8615  155.7027 C   0  0  0  0  0  0  0  0  0  0  0  0
  133.2037  161.9517  154.9472 C   0  0  0  0  0  0  0  0  0  0  0  0
  132.6272  163.1116  155.2339 N   0  0  0  0  0  0  0  0  0  0  0  0
  132.2424  163.7108  156.5059 C   0  0  0  0  0  0  0  0  0  0  0  0
  132.7577  165.0649  156.8090 C   0  0  0  0  0  0  0  0  0  0  0  0
  132.5891  166.1890  156.0731 C   0  0  0  0  0  0  0  0  0  0  0  0
  131.8895  166.1917  154.7905 C   0  0  0  0  0  0  0  0  0  0  0  0
  131.2350  167.3767  154.5140 C   0  0  0  0  0  0  0  0  0  0  0  0
  133.4861  165.4667  158.0030 C   0  0  0  0  0  0  0  0  0  0  0  0
  132.9788  166.5533  158.5486 O   0  0  0  0  0  0  0  0  0  0  0  0
  134.5832  164.9469  158.6692 N   0  0  0  0  0  0  0  0  0  0  0  0
  134.3956  164.5240  160.0779 C   0  0  0  0  0  0  0  0  0  0  0  0
  135.9439  164.7719  158.2006 C   0  0  0  0  0  0  0  0  0  0  0  0
  136.2467  163.3347  157.9931 C   0  0  0  0  0  0  0  0  0  0  0  0
  136.8154  162.6400  159.0184 O   0  0  0  0  0  0  0  0  0  0  0  0
  137.9525  161.9877  158.5833 C   0  0  0  0  0  0  0  0  0  0  0  0
  138.1449  160.5974  159.0946 C   0  0  0  0  0  0  0  0  0  0  0  0
  137.8772  159.5570  158.0931 N   0  0  0  0  0  0  0  0  0  0  0  0
  137.8779  158.2551  158.7341 C   0  0  0  0  0  0  0  0  0  0  0  0
  136.3190  159.7862  157.4015 S   0  0  0  0  0  6  0  0  0  0  0  0
  135.4266  160.2307  158.4925 O   0  0  0  0  0  0  0  0  0  0  0  0
  136.4109  160.7870  156.2466 O   0  0  0  0  0  0  0  0  0  0  0  0
  135.7013  158.3622  156.6032 N   0  0  0  0  0  0  0  0  0  0  0  0
  134.7811  158.5429  155.5100 C   0  0  0  0  0  0  0  0  0  0  0  0
  134.4890  157.4298  154.9355 O   0  0  0  0  0  0  0  0  0  0  0  0
  1  2  1  0
  2  3  1  0
  3  4  2  0
  4  5  1  0
  5  6  2  0
  6  7  1  0
  7  8  2  0
  8  9  1  0
  9 10  1  0
 10 11  1  0
 11 12  1  0
 12 13  1  0
 13 14  1  0
  8 15  1  0
 15 16  2  0
 16 17  1  0
 17 18  2  0
 18 19  1  0
 19 20  2  0
 20 21  1  0
 21 22  1  0
 22 23  1  0
 23 24  2  0
 24 25  1  0
 25 26  2  0
 23 27  1  0
 27 28  2  0
 27 29  1  0
 29 30  1  0
 29 31  1  0
 31 32  1  0
 32 33  1  0
 33 34  1  0
 34 35  1  0
 35 36  1  0
 36 37  1  0
 36 38  1  0
 38 39  2  0
 38 40  2  0
 38 41  1  0
 41 42  1  0
 42 43  2  0
 26  3  1  0
 25  6  1  0
 21  7  1  0
 14  9  1  0
 20 15  1  0
 42 18  1  0
M  END
$$$$
