
     RDKit          3D

 43 48  0  0  0  0  0  0  0  0999 V2000
  110.2571  165.0660  139.6218 C   0  0  0  0  0  0  0  0  0  0  0  0
  111.4884  165.1459  138.9783 O   0  0  0  0  0  0  0  0  0  0  0  0
  112.6388  165.6620  139.5457 C   0  0  0  0  0  0  0  0  0  0  0  0
  113.3680  166.6843  138.9245 C   0  0  0  0  0  0  0  0  0  0  0  0
  114.5086  167.1967  139.4900 C   0  0  0  0  0  0  0  0  0  0  0  0
  114.9029  166.6665  140.6918 C   0  0  0  0  0  0  0  0  0  0  0  0
  116.1067  167.3087  141.2418 C   0  0  0  0  0  0  0  0  0  0  0  0
  116.3206  168.6395  141.0708 C   0  0  0  0  0  0  0  0  0  0  0  0
  115.3920  169.6360  140.5778 C   0  0  0  0  0  0  0  0  0  0  0  0
  116.2555  170.7198  139.8252 C   0  0  0  0  0  0  0  0  0  0  0  0
  115.2797  171.5612  139.0724 C   0  0  0  0  0  0  0  0  0  0  0  0
  113.8995  171.6270  139.6872 C   0  0  0  0  0  0  0  0  0  0  0  0
  113.2250  170.2785  139.8053 C   0  0  0  0  0  0  0  0  0  0  0  0
  114.3798  169.2634  139.5762 C   0  0  0  0  0  0  0  0  0  0  0  0
  117.5812  168.8265  141.6353 C   0  0  0  0  0  0  0  0  0  0  0  0
  118.2538  170.0239  141.6969 C   0  0  0  0  0  0  0  0  0  0  0  0
  119.4843  169.9794  142.2982 C   0  0  0  0  0  0  0  0  0  0  0  0
  120.0428  168.7817  142.8284 C   0  0  0  0  0  0  0  0  0  0  0  0
  119.3473  167.5872  142.7494 C   0  0  0  0  0  0  0  0  0  0  0  0
  118.0991  167.6229  142.1434 C   0  0  0  0  0  0  0  0  0  0  0  0
  117.1687  166.7123  141.8880 N   0  0  0  0  0  0  0  0  0  0  0  0
  117.0929  165.2924  142.2090 C   0  0  0  0  0  0  0  0  0  0  0  0
  115.8951  164.8178  142.9376 C   0  0  0  0  0  0  0  0  0  0  0  0
  114.6020  164.9394  142.5547 C   0  0  0  0  0  0  0  0  0  0  0  0
  114.2051  165.6438  141.3377 C   0  0  0  0  0  0  0  0  0  0  0  0
  113.0588  165.1427  140.7512 C   0  0  0  0  0  0  0  0  0  0  0  0
  115.8813  164.0572  144.1781 C   0  0  0  0  0  0  0  0  0  0  0  0
  115.1049  162.9958  144.0980 O   0  0  0  0  0  0  0  0  0  0  0  0
  116.5083  164.2202  145.4020 N   0  0  0  0  0  0  0  0  0  0  0  0
  117.4163  163.1407  145.8589 C   0  0  0  0  0  0  0  0  0  0  0  0
  116.3904  165.3047  146.3569 C   0  0  0  0  0  0  0  0  0  0  0  0
  117.6303  166.1186  146.3823 C   0  0  0  0  0  0  0  0  0  0  0  0
  118.5919  165.8024  147.2947 O   0  0  0  0  0  0  0  0  0  0  0  0
  118.9494  166.9207  148.0220 C   0  0  0  0  0  0  0  0  0  0  0  0
  120.4091  167.0850  148.2937 C   0  0  0  0  0  0  0  0  0  0  0  0
  121.0468  168.1316  147.4843 N   0  0  0  0  0  0  0  0  0  0  0  0
  122.4862  168.0693  147.6578 C   0  0  0  0  0  0  0  0  0  0  0  0
  120.7206  167.8723  145.8154 S   0  0  0  0  0  6  0  0  0  0  0  0
  120.7678  166.4124  145.5909 O   0  0  0  0  0  0  0  0  0  0  0  0
  119.3722  168.4992  145.4514 O   0  0  0  0  0  0  0  0  0  0  0  0
  121.8172  168.7232  144.7570 N   0  0  0  0  0  0  0  0  0  0  0  0
  121.3402  169.1076  143.4535 C   0  0  0  0  0  0  0  0  0  0  0  0
  122.1986  169.8230  142.8166 O   0  0  0  0  0  0  0  0  0  0  0  0
  1  2  1  0
  2  3  1  0
  3  4  2  0
  4  5  1  0
  5  6  2  0
  6  7  1  0
  7  8  2  0
  8  9  1  0
  9 10  1  0
 10 11  1  0
 11 12  1  0
 12 13  1  0
 13 14  1  0
  8 15  1  0
 15 16  2  0
 16 17  1  0
 17 18  2  0
 18 19  1  0
 19 20  2  0
 20 21  1  0
 21 22  1  0
 22 23  1  0
 23 24  2  0
 24 25  1  0
 25 26  2  0
 23 27  1  0
 27 28  2  0
 27 29  1  0
 29 30  1  0
 29 31  1  0
 31 32  1  0
 32 33  1  0
 33 34  1  0
 34 35  1  0
 35 36  1  0
 36 37  1  0
 36 38  1  0
 38 39  2  0
 38 40  2  0
 38 41  1  0
 41 42  1  0
 42 43  2  0
 26  3  1  0
 25  6  1  0
 21  7  1  0
 14  9  1  0
 20 15  1  0
 42 18  1  0
M  END
$$$$
