
     RDKit          3D

 43 48  0  0  0  0  0  0  0  0999 V2000
  136.6309  133.8804  132.4533 C   0  0  0  0  0  0  0  0  0  0  0  0
  136.3452  135.0193  131.7063 O   0  0  0  0  0  0  0  0  0  0  0  0
  135.3688  135.9441  132.0270 C   0  0  0  0  0  0  0  0  0  0  0  0
  135.6628  137.3083  132.1507 C   0  0  0  0  0  0  0  0  0  0  0  0
  134.6920  138.2251  132.4672 C   0  0  0  0  0  0  0  0  0  0  0  0
  133.4197  137.7486  132.6546 C   0  0  0  0  0  0  0  0  0  0  0  0
  132.4407  138.8079  132.9438 C   0  0  0  0  0  0  0  0  0  0  0  0
  132.5469  140.0278  132.3552 C   0  0  0  0  0  0  0  0  0  0  0  0
  133.4082  140.4165  131.2574 C   0  0  0  0  0  0  0  0  0  0  0  0
  134.6575  141.1330  131.8998 C   0  0  0  0  0  0  0  0  0  0  0  0
  135.6626  141.2513  130.8032 C   0  0  0  0  0  0  0  0  0  0  0  0
  135.0720  141.3185  129.4126 C   0  0  0  0  0  0  0  0  0  0  0  0
  134.2511  140.1027  129.0446 C   0  0  0  0  0  0  0  0  0  0  0  0
  134.0194  139.3848  130.4038 C   0  0  0  0  0  0  0  0  0  0  0  0
  131.5178  140.7523  132.9543 C   0  0  0  0  0  0  0  0  0  0  0  0
  131.2190  142.0690  132.6958 C   0  0  0  0  0  0  0  0  0  0  0  0
  130.1621  142.5837  133.3999 C   0  0  0  0  0  0  0  0  0  0  0  0
  129.4138  141.8194  134.3399 C   0  0  0  0  0  0  0  0  0  0  0  0
  129.7381  140.4961  134.5862 C   0  0  0  0  0  0  0  0  0  0  0  0
  130.8062  139.9656  133.8762 C   0  0  0  0  0  0  0  0  0  0  0  0
  131.3964  138.7779  133.8437 N   0  0  0  0  0  0  0  0  0  0  0  0
  131.0940  137.5298  134.5333 C   0  0  0  0  0  0  0  0  0  0  0  0
  130.9117  136.3164  133.7055 C   0  0  0  0  0  0  0  0  0  0  0  0
  131.7978  135.7786  132.8343 C   0  0  0  0  0  0  0  0  0  0  0  0
  133.0901  136.3961  132.5453 C   0  0  0  0  0  0  0  0  0  0  0  0
  134.0827  135.4898  132.2252 C   0  0  0  0  0  0  0  0  0  0  0  0
  129.7659  135.4195  133.7247 C   0  0  0  0  0  0  0  0  0  0  0  0
  130.1285  134.1575  133.8331 O   0  0  0  0  0  0  0  0  0  0  0  0
  128.3976  135.6208  133.6544 N   0  0  0  0  0  0  0  0  0  0  0  0
  127.5752  135.1627  134.7999 C   0  0  0  0  0  0  0  0  0  0  0  0
  127.6088  136.2027  132.5862 C   0  0  0  0  0  0  0  0  0  0  0  0
  127.0975  137.5385  132.9793 C   0  0  0  0  0  0  0  0  0  0  0  0
  125.8605  137.6153  133.5461 O   0  0  0  0  0  0  0  0  0  0  0  0
  125.0835  138.5415  132.8782 C   0  0  0  0  0  0  0  0  0  0  0  0
  124.2381  139.4257  133.7355 C   0  0  0  0  0  0  0  0  0  0  0  0
  124.7421  140.8010  133.8438 N   0  0  0  0  0  0  0  0  0  0  0  0
  123.9878  141.5155  134.8570 C   0  0  0  0  0  0  0  0  0  0  0  0
  126.3883  140.7921  134.3424 S   0  0  0  0  0  6  0  0  0  0  0  0
  126.5306  139.7050  135.3334 O   0  0  0  0  0  0  0  0  0  0  0  0
  127.2949  140.6222  133.1205 O   0  0  0  0  0  0  0  0  0  0  0  0
  126.9238  142.3242  134.9848 N   0  0  0  0  0  0  0  0  0  0  0  0
  128.3185  142.6614  134.8608 C   0  0  0  0  0  0  0  0  0  0  0  0
  128.5646  143.8564  135.2678 O   0  0  0  0  0  0  0  0  0  0  0  0
  1  2  1  0
  2  3  1  0
  3  4  2  0
  4  5  1  0
  5  6  2  0
  6  7  1  0
  7  8  2  0
  8  9  1  0
  9 10  1  0
 10 11  1  0
 11 12  1  0
 12 13  1  0
 13 14  1  0
  8 15  1  0
 15 16  2  0
 16 17  1  0
 17 18  2  0
 18 19  1  0
 19 20  2  0
 20 21  1  0
 21 22  1  0
 22 23  1  0
 23 24  2  0
 24 25  1  0
 25 26  2  0
 23 27  1  0
 27 28  2  0
 27 29  1  0
 29 30  1  0
 29 31  1  0
 31 32  1  0
 32 33  1  0
 33 34  1  0
 34 35  1  0
 35 36  1  0
 36 37  1  0
 36 38  1  0
 38 39  2  0
 38 40  2  0
 38 41  1  0
 41 42  1  0
 42 43  2  0
 26  3  1  0
 25  6  1  0
 21  7  1  0
 14  9  1  0
 20 15  1  0
 42 18  1  0
M  END
$$$$
