
     RDKit          3D

 43 48  0  0  0  0  0  0  0  0999 V2000
  207.8677  140.6154  133.0386 C   0  0  0  0  0  0  0  0  0  0  0  0
  206.7297  140.6009  132.2379 O   0  0  0  0  0  0  0  0  0  0  0  0
  205.7273  139.6518  132.3152 C   0  0  0  0  0  0  0  0  0  0  0  0
  204.3754  140.0020  132.2028 C   0  0  0  0  0  0  0  0  0  0  0  0
  203.3818  139.0583  132.2777 C   0  0  0  0  0  0  0  0  0  0  0  0
  203.7695  137.7561  132.4647 C   0  0  0  0  0  0  0  0  0  0  0  0
  202.6410  136.8127  132.4859 C   0  0  0  0  0  0  0  0  0  0  0  0
  201.5582  137.0108  131.6895 C   0  0  0  0  0  0  0  0  0  0  0  0
  201.4137  137.9530  130.5988 C   0  0  0  0  0  0  0  0  0  0  0  0
  199.8873  138.3452  130.5446 C   0  0  0  0  0  0  0  0  0  0  0  0
  199.8064  139.5258  129.6355 C   0  0  0  0  0  0  0  0  0  0  0  0
  200.8975  139.5914  128.5903 C   0  0  0  0  0  0  0  0  0  0  0  0
  202.2911  139.6576  129.1740 C   0  0  0  0  0  0  0  0  0  0  0  0
  202.0902  139.2587  130.6630 C   0  0  0  0  0  0  0  0  0  0  0  0
  200.6982  135.9833  132.0734 C   0  0  0  0  0  0  0  0  0  0  0  0
  199.4440  135.7626  131.5554 C   0  0  0  0  0  0  0  0  0  0  0  0
  198.7691  134.6913  132.0793 C   0  0  0  0  0  0  0  0  0  0  0  0
  199.3159  133.8535  133.0926 C   0  0  0  0  0  0  0  0  0  0  0  0
  200.5797  134.1000  133.6015 C   0  0  0  0  0  0  0  0  0  0  0  0
  201.2716  135.1822  133.0756 C   0  0  0  0  0  0  0  0  0  0  0  0
  202.4642  135.7167  133.3037 N   0  0  0  0  0  0  0  0  0  0  0  0
  203.5488  135.3156  134.1913 C   0  0  0  0  0  0  0  0  0  0  0  0
  204.8891  135.1257  133.5929 C   0  0  0  0  0  0  0  0  0  0  0  0
  205.6121  136.0355  132.8980 C   0  0  0  0  0  0  0  0  0  0  0  0
  205.1059  137.3703  132.5866 C   0  0  0  0  0  0  0  0  0  0  0  0
  206.0906  138.3364  132.5076 C   0  0  0  0  0  0  0  0  0  0  0  0
  205.7255  133.9398  133.7015 C   0  0  0  0  0  0  0  0  0  0  0  0
  206.9565  134.2355  134.0664 O   0  0  0  0  0  0  0  0  0  0  0  0
  205.4931  132.5891  133.5035 N   0  0  0  0  0  0  0  0  0  0  0  0
  205.6981  131.6796  134.6564 C   0  0  0  0  0  0  0  0  0  0  0  0
  205.0954  131.8932  132.2955 C   0  0  0  0  0  0  0  0  0  0  0  0
  203.6923  131.4229  132.3985 C   0  0  0  0  0  0  0  0  0  0  0  0
  203.4667  130.1596  132.8570 O   0  0  0  0  0  0  0  0  0  0  0  0
  202.6562  129.4679  131.9782 C   0  0  0  0  0  0  0  0  0  0  0  0
  201.5972  128.6158  132.5979 C   0  0  0  0  0  0  0  0  0  0  0  0
  200.2447  129.1766  132.4824 N   0  0  0  0  0  0  0  0  0  0  0  0
  199.3261  128.3982  133.2924 C   0  0  0  0  0  0  0  0  0  0  0  0
  200.2174  130.7882  133.0831 S   0  0  0  0  0  6  0  0  0  0  0  0
  201.1028  130.8202  134.2660 O   0  0  0  0  0  0  0  0  0  0  0  0
  200.6461  131.7566  131.9776 O   0  0  0  0  0  0  0  0  0  0  0  0
  198.6115  131.3562  133.4643 N   0  0  0  0  0  0  0  0  0  0  0  0
  198.3529  132.7702  133.3736 C   0  0  0  0  0  0  0  0  0  0  0  0
  197.1120  133.0477  133.5671 O   0  0  0  0  0  0  0  0  0  0  0  0
  1  2  1  0
  2  3  1  0
  3  4  2  0
  4  5  1  0
  5  6  2  0
  6  7  1  0
  7  8  2  0
  8  9  1  0
  9 10  1  0
 10 11  1  0
 11 12  1  0
 12 13  1  0
 13 14  1  0
  8 15  1  0
 15 16  2  0
 16 17  1  0
 17 18  2  0
 18 19  1  0
 19 20  2  0
 20 21  1  0
 21 22  1  0
 22 23  1  0
 23 24  2  0
 24 25  1  0
 25 26  2  0
 23 27  1  0
 27 28  2  0
 27 29  1  0
 29 30  1  0
 29 31  1  0
 31 32  1  0
 32 33  1  0
 33 34  1  0
 34 35  1  0
 35 36  1  0
 36 37  1  0
 36 38  1  0
 38 39  2  0
 38 40  2  0
 38 41  1  0
 41 42  1  0
 42 43  2  0
 26  3  1  0
 25  6  1  0
 21  7  1  0
 14  9  1  0
 20 15  1  0
 42 18  1  0
M  END
$$$$
