
     RDKit          3D

 43 48  0  0  0  0  0  0  0  0999 V2000
  207.7378  141.6941  132.8359 C   0  0  0  0  0  0  0  0  0  0  0  0
  206.3582  141.8512  132.9281 O   0  0  0  0  0  0  0  0  0  0  0  0
  205.4372  140.8419  132.7169 C   0  0  0  0  0  0  0  0  0  0  0  0
  204.1104  141.1215  132.3640 C   0  0  0  0  0  0  0  0  0  0  0  0
  203.1981  140.1184  132.1528 C   0  0  0  0  0  0  0  0  0  0  0  0
  203.6418  138.8290  132.2994 C   0  0  0  0  0  0  0  0  0  0  0  0
  202.6081  137.8235  132.0084 C   0  0  0  0  0  0  0  0  0  0  0  0
  201.6905  138.0377  131.0297 C   0  0  0  0  0  0  0  0  0  0  0  0
  201.6897  139.0758  130.0194 C   0  0  0  0  0  0  0  0  0  0  0  0
  202.5061  138.5101  128.7947 C   0  0  0  0  0  0  0  0  0  0  0  0
  202.2412  139.4488  127.6653 C   0  0  0  0  0  0  0  0  0  0  0  0
  201.9148  140.8641  128.0865 C   0  0  0  0  0  0  0  0  0  0  0  0
  200.6849  140.9667  128.9608 C   0  0  0  0  0  0  0  0  0  0  0  0
  200.4211  139.5007  129.4054 C   0  0  0  0  0  0  0  0  0  0  0  0
  200.8546  136.9277  131.1395 C   0  0  0  0  0  0  0  0  0  0  0  0
  199.7475  136.6875  130.3607 C   0  0  0  0  0  0  0  0  0  0  0  0
  199.0685  135.5307  130.6407 C   0  0  0  0  0  0  0  0  0  0  0  0
  199.4697  134.6278  131.6662 C   0  0  0  0  0  0  0  0  0  0  0  0
  200.5860  134.8951  132.4404 C   0  0  0  0  0  0  0  0  0  0  0  0
  201.2811  136.0639  132.1627 C   0  0  0  0  0  0  0  0  0  0  0  0
  202.3604  136.6416  132.6739 N   0  0  0  0  0  0  0  0  0  0  0  0
  203.2777  136.2168  133.7242 C   0  0  0  0  0  0  0  0  0  0  0  0
  204.7200  136.1678  133.3955 C   0  0  0  0  0  0  0  0  0  0  0  0
  205.4922  137.1845  132.9442 C   0  0  0  0  0  0  0  0  0  0  0  0
  204.9544  138.5120  132.6552 C   0  0  0  0  0  0  0  0  0  0  0  0
  205.8571  139.5373  132.8626 C   0  0  0  0  0  0  0  0  0  0  0  0
  205.6087  135.0283  133.5668 C   0  0  0  0  0  0  0  0  0  0  0  0
  206.7174  135.3572  134.1981 O   0  0  0  0  0  0  0  0  0  0  0  0
  205.5256  133.6934  133.2079 N   0  0  0  0  0  0  0  0  0  0  0  0
  205.5708  132.6850  134.2939 C   0  0  0  0  0  0  0  0  0  0  0  0
  205.4280  133.1018  131.8879 C   0  0  0  0  0  0  0  0  0  0  0  0
  204.0730  132.5418  131.6627 C   0  0  0  0  0  0  0  0  0  0  0  0
  203.8610  131.2273  131.9532 O   0  0  0  0  0  0  0  0  0  0  0  0
  203.2950  130.5821  130.8710 C   0  0  0  0  0  0  0  0  0  0  0  0
  202.2047  129.6107  131.1859 C   0  0  0  0  0  0  0  0  0  0  0  0
  200.8616  130.0999  130.8484 N   0  0  0  0  0  0  0  0  0  0  0  0
  199.8655  129.1904  131.3839 C   0  0  0  0  0  0  0  0  0  0  0  0
  200.5915  131.6376  131.5704 S   0  0  0  0  0  6  0  0  0  0  0  0
  201.2225  131.6012  132.9062 O   0  0  0  0  0  0  0  0  0  0  0  0
  201.1520  132.7369  130.6641 O   0  0  0  0  0  0  0  0  0  0  0  0
  198.9028  132.0685  131.6665 N   0  0  0  0  0  0  0  0  0  0  0  0
  198.5576  133.4668  131.6499 C   0  0  0  0  0  0  0  0  0  0  0  0
  197.2851  133.6497  131.6115 O   0  0  0  0  0  0  0  0  0  0  0  0
  1  2  1  0
  2  3  1  0
  3  4  2  0
  4  5  1  0
  5  6  2  0
  6  7  1  0
  7  8  2  0
  8  9  1  0
  9 10  1  0
 10 11  1  0
 11 12  1  0
 12 13  1  0
 13 14  1  0
  8 15  1  0
 15 16  2  0
 16 17  1  0
 17 18  2  0
 18 19  1  0
 19 20  2  0
 20 21  1  0
 21 22  1  0
 22 23  1  0
 23 24  2  0
 24 25  1  0
 25 26  2  0
 23 27  1  0
 27 28  2  0
 27 29  1  0
 29 30  1  0
 29 31  1  0
 31 32  1  0
 32 33  1  0
 33 34  1  0
 34 35  1  0
 35 36  1  0
 36 37  1  0
 36 38  1  0
 38 39  2  0
 38 40  2  0
 38 41  1  0
 41 42  1  0
 42 43  2  0
 26  3  1  0
 25  6  1  0
 21  7  1  0
 14  9  1  0
 20 15  1  0
 42 18  1  0
M  END
$$$$
