
     RDKit          3D

 43 48  0  0  0  0  0  0  0  0999 V2000
  195.0683  157.4027  114.7115 C   0  0  0  0  0  0  0  0  0  0  0  0
  195.4619  157.2723  116.0399 O   0  0  0  0  0  0  0  0  0  0  0  0
  194.9055  157.9701  117.0958 C   0  0  0  0  0  0  0  0  0  0  0  0
  195.6179  158.9700  117.7709 C   0  0  0  0  0  0  0  0  0  0  0  0
  195.0634  159.6631  118.8175 C   0  0  0  0  0  0  0  0  0  0  0  0
  193.7796  159.3366  119.1729 C   0  0  0  0  0  0  0  0  0  0  0  0
  193.2546  160.1619  120.2717 C   0  0  0  0  0  0  0  0  0  0  0  0
  193.5937  161.4735  120.3750 C   0  0  0  0  0  0  0  0  0  0  0  0
  194.2710  162.2995  119.3966 C   0  0  0  0  0  0  0  0  0  0  0  0
  193.7696  163.7758  119.6322 C   0  0  0  0  0  0  0  0  0  0  0  0
  194.6873  164.6447  118.8387 C   0  0  0  0  0  0  0  0  0  0  0  0
  195.3014  163.9738  117.6304 C   0  0  0  0  0  0  0  0  0  0  0  0
  196.1324  162.7570  117.9713 C   0  0  0  0  0  0  0  0  0  0  0  0
  195.7361  162.4351  119.4396 C   0  0  0  0  0  0  0  0  0  0  0  0
  192.9886  161.8574  121.5706 C   0  0  0  0  0  0  0  0  0  0  0  0
  193.0531  163.1135  122.1254 C   0  0  0  0  0  0  0  0  0  0  0  0
  192.3817  163.2710  123.3095 C   0  0  0  0  0  0  0  0  0  0  0  0
  191.6613  162.2145  123.9361 C   0  0  0  0  0  0  0  0  0  0  0  0
  191.6157  160.9567  123.3594 C   0  0  0  0  0  0  0  0  0  0  0  0
  192.2916  160.7882  122.1589 C   0  0  0  0  0  0  0  0  0  0  0  0
  192.4729  159.7639  121.3355 N   0  0  0  0  0  0  0  0  0  0  0  0
  191.9653  158.3978  121.3668 C   0  0  0  0  0  0  0  0  0  0  0  0
  191.2486  157.9056  120.1690 C   0  0  0  0  0  0  0  0  0  0  0  0
  191.7182  157.8467  118.9003 C   0  0  0  0  0  0  0  0  0  0  0  0
  193.0409  158.3427  118.5275 C   0  0  0  0  0  0  0  0  0  0  0  0
  193.6181  157.6575  117.4756 C   0  0  0  0  0  0  0  0  0  0  0  0
  189.9184  157.3163  120.1373 C   0  0  0  0  0  0  0  0  0  0  0  0
  189.8969  156.1815  119.4683 O   0  0  0  0  0  0  0  0  0  0  0  0
  188.6944  157.6997  120.6592 N   0  0  0  0  0  0  0  0  0  0  0  0
  188.0426  156.7851  121.6273 C   0  0  0  0  0  0  0  0  0  0  0  0
  187.9054  158.8826  120.3764 C   0  0  0  0  0  0  0  0  0  0  0  0
  187.9206  159.8123  121.5322 C   0  0  0  0  0  0  0  0  0  0  0  0
  186.9198  159.7155  122.4520 O   0  0  0  0  0  0  0  0  0  0  0  0
  186.3332  160.9494  122.6542 C   0  0  0  0  0  0  0  0  0  0  0  0
  186.0031  161.2924  124.0702 C   0  0  0  0  0  0  0  0  0  0  0  0
  186.9103  162.2824  124.6653 N   0  0  0  0  0  0  0  0  0  0  0  0
  186.6475  162.3871  126.0887 C   0  0  0  0  0  0  0  0  0  0  0  0
  188.5439  161.7758  124.4822 S   0  0  0  0  0  6  0  0  0  0  0  0
  188.5633  160.3111  124.6777 O   0  0  0  0  0  0  0  0  0  0  0  0
  189.0672  162.2122  123.1112 O   0  0  0  0  0  0  0  0  0  0  0  0
  189.6442  162.5859  125.5684 N   0  0  0  0  0  0  0  0  0  0  0  0
  191.0132  162.7471  125.1512 C   0  0  0  0  0  0  0  0  0  0  0  0
  191.6917  163.4549  125.9836 O   0  0  0  0  0  0  0  0  0  0  0  0
  1  2  1  0
  2  3  1  0
  3  4  2  0
  4  5  1  0
  5  6  2  0
  6  7  1  0
  7  8  2  0
  8  9  1  0
  9 10  1  0
 10 11  1  0
 11 12  1  0
 12 13  1  0
 13 14  1  0
  8 15  1  0
 15 16  2  0
 16 17  1  0
 17 18  2  0
 18 19  1  0
 19 20  2  0
 20 21  1  0
 21 22  1  0
 22 23  1  0
 23 24  2  0
 24 25  1  0
 25 26  2  0
 23 27  1  0
 27 28  2  0
 27 29  1  0
 29 30  1  0
 29 31  1  0
 31 32  1  0
 32 33  1  0
 33 34  1  0
 34 35  1  0
 35 36  1  0
 36 37  1  0
 36 38  1  0
 38 39  2  0
 38 40  2  0
 38 41  1  0
 41 42  1  0
 42 43  2  0
 26  3  1  0
 25  6  1  0
 21  7  1  0
 14  9  1  0
 20 15  1  0
 42 18  1  0
M  END
$$$$
