
     RDKit          3D

 43 48  0  0  0  0  0  0  0  0999 V2000
  144.1506  164.8078  137.0399 C   0  0  0  0  0  0  0  0  0  0  0  0
  144.6453  163.9680  136.0467 O   0  0  0  0  0  0  0  0  0  0  0  0
  145.3925  164.3894  134.9624 C   0  0  0  0  0  0  0  0  0  0  0  0
  146.0529  163.4781  134.1279 C   0  0  0  0  0  0  0  0  0  0  0  0
  146.7926  163.8980  133.0509 C   0  0  0  0  0  0  0  0  0  0  0  0
  146.8553  165.2493  132.8246 C   0  0  0  0  0  0  0  0  0  0  0  0
  147.6303  165.6006  131.6246 C   0  0  0  0  0  0  0  0  0  0  0  0
  147.5989  164.8058  130.5232 C   0  0  0  0  0  0  0  0  0  0  0  0
  146.7045  163.7005  130.2461 C   0  0  0  0  0  0  0  0  0  0  0  0
  147.5714  162.5887  129.5397 C   0  0  0  0  0  0  0  0  0  0  0  0
  146.7262  161.3588  129.5381 C   0  0  0  0  0  0  0  0  0  0  0  0
  145.2364  161.6189  129.5416 C   0  0  0  0  0  0  0  0  0  0  0  0
  144.7621  162.4029  130.7448 C   0  0  0  0  0  0  0  0  0  0  0  0
  146.0721  162.9722  131.3581 C   0  0  0  0  0  0  0  0  0  0  0  0
  148.5184  165.4171  129.6727 C   0  0  0  0  0  0  0  0  0  0  0  0
  148.8556  164.9722  128.4164 C   0  0  0  0  0  0  0  0  0  0  0  0
  149.7847  165.7290  127.7518 C   0  0  0  0  0  0  0  0  0  0  0  0
  150.3711  166.8999  128.3110 C   0  0  0  0  0  0  0  0  0  0  0  0
  150.0183  167.3245  129.5807 C   0  0  0  0  0  0  0  0  0  0  0  0
  149.0765  166.5650  130.2609 C   0  0  0  0  0  0  0  0  0  0  0  0
  148.5084  166.6504  131.4567 N   0  0  0  0  0  0  0  0  0  0  0  0
  148.6338  167.6427  132.5171 C   0  0  0  0  0  0  0  0  0  0  0  0
  147.3905  168.2694  133.0194 C   0  0  0  0  0  0  0  0  0  0  0  0
  146.3128  167.6424  133.5474 C   0  0  0  0  0  0  0  0  0  0  0  0
  146.2154  166.1873  133.6373 C   0  0  0  0  0  0  0  0  0  0  0  0
  145.4753  165.7430  134.7162 C   0  0  0  0  0  0  0  0  0  0  0  0
  147.1163  169.6955  133.1122 C   0  0  0  0  0  0  0  0  0  0  0  0
  146.6613  170.0345  134.3013 O   0  0  0  0  0  0  0  0  0  0  0  0
  147.2356  170.7482  132.2204 N   0  0  0  0  0  0  0  0  0  0  0  0
  148.1413  171.8627  132.5891 C   0  0  0  0  0  0  0  0  0  0  0  0
  146.5680  170.9559  130.9504 C   0  0  0  0  0  0  0  0  0  0  0  0
  147.5188  170.7880  129.8242 C   0  0  0  0  0  0  0  0  0  0  0  0
  148.1537  171.8944  129.3446 O   0  0  0  0  0  0  0  0  0  0  0  0
  147.9916  171.9850  127.9760 C   0  0  0  0  0  0  0  0  0  0  0  0
  149.1984  172.4022  127.2008 C   0  0  0  0  0  0  0  0  0  0  0  0
  149.8343  171.3042  126.4610 N   0  0  0  0  0  0  0  0  0  0  0  0
  151.1049  171.7538  125.9230 C   0  0  0  0  0  0  0  0  0  0  0  0
  150.1632  169.9883  127.5189 S   0  0  0  0  0  6  0  0  0  0  0  0
  150.5966  170.5707  128.8062 O   0  0  0  0  0  0  0  0  0  0  0  0
  148.9199  169.1033  127.6409 O   0  0  0  0  0  0  0  0  0  0  0  0
  151.3461  168.8719  126.8856 N   0  0  0  0  0  0  0  0  0  0  0  0
  151.2737  167.4963  127.3062 C   0  0  0  0  0  0  0  0  0  0  0  0
  152.1235  166.7563  126.6861 O   0  0  0  0  0  0  0  0  0  0  0  0
  1  2  1  0
  2  3  1  0
  3  4  2  0
  4  5  1  0
  5  6  2  0
  6  7  1  0
  7  8  2  0
  8  9  1  0
  9 10  1  0
 10 11  1  0
 11 12  1  0
 12 13  1  0
 13 14  1  0
  8 15  1  0
 15 16  2  0
 16 17  1  0
 17 18  2  0
 18 19  1  0
 19 20  2  0
 20 21  1  0
 21 22  1  0
 22 23  1  0
 23 24  2  0
 24 25  1  0
 25 26  2  0
 23 27  1  0
 27 28  2  0
 27 29  1  0
 29 30  1  0
 29 31  1  0
 31 32  1  0
 32 33  1  0
 33 34  1  0
 34 35  1  0
 35 36  1  0
 36 37  1  0
 36 38  1  0
 38 39  2  0
 38 40  2  0
 38 41  1  0
 41 42  1  0
 42 43  2  0
 26  3  1  0
 25  6  1  0
 21  7  1  0
 14  9  1  0
 20 15  1  0
 42 18  1  0
M  END
$$$$
