
     RDKit          3D

 43 48  0  0  0  0  0  0  0  0999 V2000
  131.4568  173.7140  143.8132 C   0  0  0  0  0  0  0  0  0  0  0  0
  132.1260  172.5109  144.0155 O   0  0  0  0  0  0  0  0  0  0  0  0
  131.5217  171.3343  144.4180 C   0  0  0  0  0  0  0  0  0  0  0  0
  132.2628  170.1646  144.6315 C   0  0  0  0  0  0  0  0  0  0  0  0
  131.6615  168.9981  145.0328 C   0  0  0  0  0  0  0  0  0  0  0  0
  130.3030  169.0272  145.2189 C   0  0  0  0  0  0  0  0  0  0  0  0
  129.7553  167.7466  145.6925 C   0  0  0  0  0  0  0  0  0  0  0  0
  130.4644  166.9646  146.5478 C   0  0  0  0  0  0  0  0  0  0  0  0
  131.6666  167.3062  147.2802 C   0  0  0  0  0  0  0  0  0  0  0  0
  132.4652  165.9616  147.4828 C   0  0  0  0  0  0  0  0  0  0  0  0
  133.8210  166.3656  147.9576 C   0  0  0  0  0  0  0  0  0  0  0  0
  133.8603  167.6791  148.7061 C   0  0  0  0  0  0  0  0  0  0  0  0
  133.3793  168.8564  147.8877 C   0  0  0  0  0  0  0  0  0  0  0  0
  132.6670  168.1987  146.6725 C   0  0  0  0  0  0  0  0  0  0  0  0
  129.6641  165.8297  146.6668 C   0  0  0  0  0  0  0  0  0  0  0  0
  129.9624  164.7242  147.4277 C   0  0  0  0  0  0  0  0  0  0  0  0
  129.0307  163.7197  147.4001 C   0  0  0  0  0  0  0  0  0  0  0  0
  127.8296  163.8001  146.6395 C   0  0  0  0  0  0  0  0  0  0  0  0
  127.5547  164.9226  145.8771 C   0  0  0  0  0  0  0  0  0  0  0  0
  128.4920  165.9460  145.9003 C   0  0  0  0  0  0  0  0  0  0  0  0
  128.5781  167.1346  145.3172 N   0  0  0  0  0  0  0  0  0  0  0  0
  127.6575  167.8505  144.4427 C   0  0  0  0  0  0  0  0  0  0  0  0
  127.2591  169.2193  144.8408 C   0  0  0  0  0  0  0  0  0  0  0  0
  128.0748  170.2750  145.0722 C   0  0  0  0  0  0  0  0  0  0  0  0
  129.5310  170.1719  145.0108 C   0  0  0  0  0  0  0  0  0  0  0  0
  130.1565  171.3360  144.6074 C   0  0  0  0  0  0  0  0  0  0  0  0
  125.8995  169.7169  144.9880 C   0  0  0  0  0  0  0  0  0  0  0  0
  125.7182  170.8547  144.3491 O   0  0  0  0  0  0  0  0  0  0  0  0
  124.7791  169.2444  145.6505 N   0  0  0  0  0  0  0  0  0  0  0  0
  123.5727  168.9520  144.8396 C   0  0  0  0  0  0  0  0  0  0  0  0
  124.5809  169.0100  147.0674 C   0  0  0  0  0  0  0  0  0  0  0  0
  124.5247  167.5560  147.3560 C   0  0  0  0  0  0  0  0  0  0  0  0
  123.3050  166.9485  147.3777 O   0  0  0  0  0  0  0  0  0  0  0  0
  123.1405  166.2449  148.5548 C   0  0  0  0  0  0  0  0  0  0  0  0
  122.4949  164.9035  148.4300 C   0  0  0  0  0  0  0  0  0  0  0  0
  123.4306  163.7812  148.5777 N   0  0  0  0  0  0  0  0  0  0  0  0
  122.7608  162.5421  148.2285 C   0  0  0  0  0  0  0  0  0  0  0  0
  124.7566  163.9681  147.4981 S   0  0  0  0  0  6  0  0  0  0  0  0
  124.2113  164.5206  146.2405 O   0  0  0  0  0  0  0  0  0  0  0  0
  125.8218  164.8600  148.1413 O   0  0  0  0  0  0  0  0  0  0  0  0
  125.6375  162.4866  147.2229 N   0  0  0  0  0  0  0  0  0  0  0  0
  127.0355  162.5807  146.8895 C   0  0  0  0  0  0  0  0  0  0  0  0
  127.5953  161.4246  146.8235 O   0  0  0  0  0  0  0  0  0  0  0  0
  1  2  1  0
  2  3  1  0
  3  4  2  0
  4  5  1  0
  5  6  2  0
  6  7  1  0
  7  8  2  0
  8  9  1  0
  9 10  1  0
 10 11  1  0
 11 12  1  0
 12 13  1  0
 13 14  1  0
  8 15  1  0
 15 16  2  0
 16 17  1  0
 17 18  2  0
 18 19  1  0
 19 20  2  0
 20 21  1  0
 21 22  1  0
 22 23  1  0
 23 24  2  0
 24 25  1  0
 25 26  2  0
 23 27  1  0
 27 28  2  0
 27 29  1  0
 29 30  1  0
 29 31  1  0
 31 32  1  0
 32 33  1  0
 33 34  1  0
 34 35  1  0
 35 36  1  0
 36 37  1  0
 36 38  1  0
 38 39  2  0
 38 40  2  0
 38 41  1  0
 41 42  1  0
 42 43  2  0
 26  3  1  0
 25  6  1  0
 21  7  1  0
 14  9  1  0
 20 15  1  0
 42 18  1  0
M  END
$$$$
