
     RDKit          3D

 43 48  0  0  0  0  0  0  0  0999 V2000
  132.8957  138.7982  127.3438 C   0  0  0  0  0  0  0  0  0  0  0  0
  132.6305  138.0826  128.5074 O   0  0  0  0  0  0  0  0  0  0  0  0
  132.0263  138.6105  129.6334 C   0  0  0  0  0  0  0  0  0  0  0  0
  131.7615  137.8228  130.7614 C   0  0  0  0  0  0  0  0  0  0  0  0
  131.1635  138.3488  131.8789 C   0  0  0  0  0  0  0  0  0  0  0  0
  130.8384  139.6808  131.8453 C   0  0  0  0  0  0  0  0  0  0  0  0
  130.2456  140.1647  133.1016 C   0  0  0  0  0  0  0  0  0  0  0  0
  130.6655  139.6767  134.2980 C   0  0  0  0  0  0  0  0  0  0  0  0
  131.8242  138.8499  134.5670 C   0  0  0  0  0  0  0  0  0  0  0  0
  131.3147  137.6305  135.4273 C   0  0  0  0  0  0  0  0  0  0  0  0
  132.4366  136.6466  135.4360 C   0  0  0  0  0  0  0  0  0  0  0  0
  133.8107  137.2572  135.2753 C   0  0  0  0  0  0  0  0  0  0  0  0
  133.9861  138.0202  133.9813 C   0  0  0  0  0  0  0  0  0  0  0  0
  132.5344  138.1982  133.4546 C   0  0  0  0  0  0  0  0  0  0  0  0
  129.8091  140.2987  135.2050 C   0  0  0  0  0  0  0  0  0  0  0  0
  129.8266  140.1153  136.5673 C   0  0  0  0  0  0  0  0  0  0  0  0
  128.8927  140.8296  137.2711 C   0  0  0  0  0  0  0  0  0  0  0  0
  127.9598  141.7067  136.6481 C   0  0  0  0  0  0  0  0  0  0  0  0
  127.9594  141.8702  135.2733 C   0  0  0  0  0  0  0  0  0  0  0  0
  128.9030  141.1519  134.5522 C   0  0  0  0  0  0  0  0  0  0  0  0
  129.1995  141.0483  133.2633 N   0  0  0  0  0  0  0  0  0  0  0  0
  128.6525  141.7176  132.0895 C   0  0  0  0  0  0  0  0  0  0  0  0
  129.6019  142.4186  131.1960 C   0  0  0  0  0  0  0  0  0  0  0  0
  130.6741  141.8876  130.5620 C   0  0  0  0  0  0  0  0  0  0  0  0
  131.0817  140.4956  130.7376 C   0  0  0  0  0  0  0  0  0  0  0  0
  131.6854  139.9458  129.6229 C   0  0  0  0  0  0  0  0  0  0  0  0
  129.5211  143.8060  130.7646 C   0  0  0  0  0  0  0  0  0  0  0  0
  129.6530  143.9257  129.4592 O   0  0  0  0  0  0  0  0  0  0  0  0
  129.3362  145.0028  131.4361 N   0  0  0  0  0  0  0  0  0  0  0  0
  128.1473  145.8144  131.0808 C   0  0  0  0  0  0  0  0  0  0  0  0
  130.1671  145.6262  132.4475 C   0  0  0  0  0  0  0  0  0  0  0  0
  129.5108  145.5654  133.7764 C   0  0  0  0  0  0  0  0  0  0  0  0
  128.7431  146.6216  134.1664 O   0  0  0  0  0  0  0  0  0  0  0  0
  129.1366  147.0661  135.4135 C   0  0  0  0  0  0  0  0  0  0  0  0
  128.0358  147.4330  136.3544 C   0  0  0  0  0  0  0  0  0  0  0  0
  127.8190  146.4488  137.4228 N   0  0  0  0  0  0  0  0  0  0  0  0
  126.6050  146.7782  138.1465 C   0  0  0  0  0  0  0  0  0  0  0  0
  127.6044  144.8803  136.7502 S   0  0  0  0  0  6  0  0  0  0  0  0
  126.8138  145.0486  135.5129 O   0  0  0  0  0  0  0  0  0  0  0  0
  128.9704  144.2306  136.5139 O   0  0  0  0  0  0  0  0  0  0  0  0
  126.8492  143.7546  137.8497 N   0  0  0  0  0  0  0  0  0  0  0  0
  127.1522  142.3544  137.7009 C   0  0  0  0  0  0  0  0  0  0  0  0
  126.6268  141.6445  138.6359 O   0  0  0  0  0  0  0  0  0  0  0  0
  1  2  1  0
  2  3  1  0
  3  4  2  0
  4  5  1  0
  5  6  2  0
  6  7  1  0
  7  8  2  0
  8  9  1  0
  9 10  1  0
 10 11  1  0
 11 12  1  0
 12 13  1  0
 13 14  1  0
  8 15  1  0
 15 16  2  0
 16 17  1  0
 17 18  2  0
 18 19  1  0
 19 20  2  0
 20 21  1  0
 21 22  1  0
 22 23  1  0
 23 24  2  0
 24 25  1  0
 25 26  2  0
 23 27  1  0
 27 28  2  0
 27 29  1  0
 29 30  1  0
 29 31  1  0
 31 32  1  0
 32 33  1  0
 33 34  1  0
 34 35  1  0
 35 36  1  0
 36 37  1  0
 36 38  1  0
 38 39  2  0
 38 40  2  0
 38 41  1  0
 41 42  1  0
 42 43  2  0
 26  3  1  0
 25  6  1  0
 21  7  1  0
 14  9  1  0
 20 15  1  0
 42 18  1  0
M  END
$$$$
