
     RDKit          3D

 43 48  0  0  0  0  0  0  0  0999 V2000
  196.3272  156.0034  116.6112 C   0  0  0  0  0  0  0  0  0  0  0  0
  195.1013  155.6347  117.1567 O   0  0  0  0  0  0  0  0  0  0  0  0
  194.1973  156.5145  117.7227 C   0  0  0  0  0  0  0  0  0  0  0  0
  193.6815  156.3096  119.0091 C   0  0  0  0  0  0  0  0  0  0  0  0
  192.7857  157.1849  119.5702 C   0  0  0  0  0  0  0  0  0  0  0  0
  192.4189  158.2714  118.8180 C   0  0  0  0  0  0  0  0  0  0  0  0
  191.4935  159.1755  119.5182 C   0  0  0  0  0  0  0  0  0  0  0  0
  191.6052  159.3791  120.8569 C   0  0  0  0  0  0  0  0  0  0  0  0
  192.6893  158.9824  121.7320 C   0  0  0  0  0  0  0  0  0  0  0  0
  192.2795  157.5911  122.3509 C   0  0  0  0  0  0  0  0  0  0  0  0
  193.5143  157.0579  122.9971 C   0  0  0  0  0  0  0  0  0  0  0  0
  194.4879  158.1167  123.4642 C   0  0  0  0  0  0  0  0  0  0  0  0
  194.9964  159.0045  122.3503 C   0  0  0  0  0  0  0  0  0  0  0  0
  194.0243  158.7167  121.1719 C   0  0  0  0  0  0  0  0  0  0  0  0
  190.5116  160.1958  121.1391 C   0  0  0  0  0  0  0  0  0  0  0  0
  190.1776  160.6730  122.3844 C   0  0  0  0  0  0  0  0  0  0  0  0
  189.0586  161.4624  122.4334 C   0  0  0  0  0  0  0  0  0  0  0  0
  188.2831  161.7765  121.2812 C   0  0  0  0  0  0  0  0  0  0  0  0
  188.6377  161.2792  120.0387 C   0  0  0  0  0  0  0  0  0  0  0  0
  189.7709  160.4799  119.9791 C   0  0  0  0  0  0  0  0  0  0  0  0
  190.4015  159.8409  119.0024 N   0  0  0  0  0  0  0  0  0  0  0  0
  190.1530  159.7838  117.5672 C   0  0  0  0  0  0  0  0  0  0  0  0
  191.2704  160.1385  116.6637 C   0  0  0  0  0  0  0  0  0  0  0  0
  192.4956  159.5643  116.6120 C   0  0  0  0  0  0  0  0  0  0  0  0
  192.9073  158.5056  117.5309 C   0  0  0  0  0  0  0  0  0  0  0  0
  193.8089  157.6120  116.9851 C   0  0  0  0  0  0  0  0  0  0  0  0
  191.2414  161.1297  115.5987 C   0  0  0  0  0  0  0  0  0  0  0  0
  191.7073  160.6490  114.4639 O   0  0  0  0  0  0  0  0  0  0  0  0
  190.8298  162.4505  115.5380 N   0  0  0  0  0  0  0  0  0  0  0  0
  189.7401  162.7887  114.5912 C   0  0  0  0  0  0  0  0  0  0  0  0
  191.3342  163.6035  116.2579 C   0  0  0  0  0  0  0  0  0  0  0  0
  190.3541  164.0572  117.2747 C   0  0  0  0  0  0  0  0  0  0  0  0
  189.4620  165.0260  116.9246 O   0  0  0  0  0  0  0  0  0  0  0  0
  189.4911  166.0589  117.8411 C   0  0  0  0  0  0  0  0  0  0  0  0
  188.1651  166.6284  118.2270 C   0  0  0  0  0  0  0  0  0  0  0  0
  187.7205  166.2333  119.5699 N   0  0  0  0  0  0  0  0  0  0  0  0
  186.3445  166.6500  119.7673 C   0  0  0  0  0  0  0  0  0  0  0  0
  187.7648  164.5212  119.7298 S   0  0  0  0  0  6  0  0  0  0  0  0
  187.3217  163.9580  118.4373 O   0  0  0  0  0  0  0  0  0  0  0  0
  189.1737  164.0787  120.1338 O   0  0  0  0  0  0  0  0  0  0  0  0
  186.7999  163.9262  121.0571 N   0  0  0  0  0  0  0  0  0  0  0  0
  187.1968  162.6918  121.6841 C   0  0  0  0  0  0  0  0  0  0  0  0
  186.4772  162.4205  122.7151 O   0  0  0  0  0  0  0  0  0  0  0  0
  1  2  1  0
  2  3  1  0
  3  4  2  0
  4  5  1  0
  5  6  2  0
  6  7  1  0
  7  8  2  0
  8  9  1  0
  9 10  1  0
 10 11  1  0
 11 12  1  0
 12 13  1  0
 13 14  1  0
  8 15  1  0
 15 16  2  0
 16 17  1  0
 17 18  2  0
 18 19  1  0
 19 20  2  0
 20 21  1  0
 21 22  1  0
 22 23  1  0
 23 24  2  0
 24 25  1  0
 25 26  2  0
 23 27  1  0
 27 28  2  0
 27 29  1  0
 29 30  1  0
 29 31  1  0
 31 32  1  0
 32 33  1  0
 33 34  1  0
 34 35  1  0
 35 36  1  0
 36 37  1  0
 36 38  1  0
 38 39  2  0
 38 40  2  0
 38 41  1  0
 41 42  1  0
 42 43  2  0
 26  3  1  0
 25  6  1  0
 21  7  1  0
 14  9  1  0
 20 15  1  0
 42 18  1  0
M  END
$$$$
