
     RDKit          3D

 43 48  0  0  0  0  0  0  0  0999 V2000
  125.8540  161.0535  144.6904 C   0  0  0  0  0  0  0  0  0  0  0  0
  125.3790  160.1050  143.7896 O   0  0  0  0  0  0  0  0  0  0  0  0
  125.0704  158.7975  144.1161 C   0  0  0  0  0  0  0  0  0  0  0  0
  124.6973  157.8658  143.1385 C   0  0  0  0  0  0  0  0  0  0  0  0
  124.3931  156.5678  143.4642 C   0  0  0  0  0  0  0  0  0  0  0  0
  124.4729  156.2207  144.7886 C   0  0  0  0  0  0  0  0  0  0  0  0
  124.1749  154.8013  145.0348 C   0  0  0  0  0  0  0  0  0  0  0  0
  124.5477  153.8504  144.1388 C   0  0  0  0  0  0  0  0  0  0  0  0
  125.4321  153.9950  143.0007 C   0  0  0  0  0  0  0  0  0  0  0  0
  126.8368  153.4374  143.4509 C   0  0  0  0  0  0  0  0  0  0  0  0
  127.6396  153.3094  142.1996 C   0  0  0  0  0  0  0  0  0  0  0  0
  127.2462  154.2683  141.0984 C   0  0  0  0  0  0  0  0  0  0  0  0
  125.8116  154.1137  140.6454 C   0  0  0  0  0  0  0  0  0  0  0  0
  125.1602  153.2492  141.7612 C   0  0  0  0  0  0  0  0  0  0  0  0
  124.0055  152.6854  144.6788 C   0  0  0  0  0  0  0  0  0  0  0  0
  124.1017  151.4324  144.1213 C   0  0  0  0  0  0  0  0  0  0  0  0
  123.4931  150.4255  144.8238 C   0  0  0  0  0  0  0  0  0  0  0  0
  122.8033  150.6457  146.0499 C   0  0  0  0  0  0  0  0  0  0  0  0
  122.7163  151.9184  146.5882 C   0  0  0  0  0  0  0  0  0  0  0  0
  123.3313  152.9444  145.8844 C   0  0  0  0  0  0  0  0  0  0  0  0
  123.4564  154.2513  146.0752 N   0  0  0  0  0  0  0  0  0  0  0  0
  123.0184  155.1147  147.1650 C   0  0  0  0  0  0  0  0  0  0  0  0
  124.0397  155.9623  147.8203 C   0  0  0  0  0  0  0  0  0  0  0  0
  124.8405  156.8822  147.2321 C   0  0  0  0  0  0  0  0  0  0  0  0
  124.8355  157.1227  145.7910 C   0  0  0  0  0  0  0  0  0  0  0  0
  125.1383  158.4247  145.4412 C   0  0  0  0  0  0  0  0  0  0  0  0
  124.3290  156.0238  149.2451 C   0  0  0  0  0  0  0  0  0  0  0  0
  124.3617  157.2637  149.6893 O   0  0  0  0  0  0  0  0  0  0  0  0
  124.5714  155.0606  150.2101 N   0  0  0  0  0  0  0  0  0  0  0  0
  123.6452  154.9968  151.3662 C   0  0  0  0  0  0  0  0  0  0  0  0
  125.6439  154.0882  150.2879 C   0  0  0  0  0  0  0  0  0  0  0  0
  125.1323  152.7206  150.0265 C   0  0  0  0  0  0  0  0  0  0  0  0
  124.7516  151.9592  151.0906 O   0  0  0  0  0  0  0  0  0  0  0  0
  125.3788  150.7293  151.0492 C   0  0  0  0  0  0  0  0  0  0  0  0
  124.5325  149.5513  151.4067 C   0  0  0  0  0  0  0  0  0  0  0  0
  124.1414  148.7324  150.2519 N   0  0  0  0  0  0  0  0  0  0  0  0
  123.1552  147.7512  150.6650 C   0  0  0  0  0  0  0  0  0  0  0  0
  123.4097  149.7175  149.0465 S   0  0  0  0  0  6  0  0  0  0  0  0
  122.5864  150.7205  149.7537 O   0  0  0  0  0  0  0  0  0  0  0  0
  124.4939  150.3373  148.1610 O   0  0  0  0  0  0  0  0  0  0  0  0
  122.4682  148.8097  147.8905 N   0  0  0  0  0  0  0  0  0  0  0  0
  122.3295  149.3438  146.5601 C   0  0  0  0  0  0  0  0  0  0  0  0
  121.7126  148.5322  145.7757 O   0  0  0  0  0  0  0  0  0  0  0  0
  1  2  1  0
  2  3  1  0
  3  4  2  0
  4  5  1  0
  5  6  2  0
  6  7  1  0
  7  8  2  0
  8  9  1  0
  9 10  1  0
 10 11  1  0
 11 12  1  0
 12 13  1  0
 13 14  1  0
  8 15  1  0
 15 16  2  0
 16 17  1  0
 17 18  2  0
 18 19  1  0
 19 20  2  0
 20 21  1  0
 21 22  1  0
 22 23  1  0
 23 24  2  0
 24 25  1  0
 25 26  2  0
 23 27  1  0
 27 28  2  0
 27 29  1  0
 29 30  1  0
 29 31  1  0
 31 32  1  0
 32 33  1  0
 33 34  1  0
 34 35  1  0
 35 36  1  0
 36 37  1  0
 36 38  1  0
 38 39  2  0
 38 40  2  0
 38 41  1  0
 41 42  1  0
 42 43  2  0
 26  3  1  0
 25  6  1  0
 21  7  1  0
 14  9  1  0
 20 15  1  0
 42 18  1  0
M  END
$$$$
