
     RDKit          3D

 43 48  0  0  0  0  0  0  0  0999 V2000
  129.0903  144.3802  128.2964 C   0  0  0  0  0  0  0  0  0  0  0  0
  129.2558  145.5610  129.0138 O   0  0  0  0  0  0  0  0  0  0  0  0
  128.9848  145.7054  130.3618 C   0  0  0  0  0  0  0  0  0  0  0  0
  128.9100  146.9682  130.9639 C   0  0  0  0  0  0  0  0  0  0  0  0
  128.6390  147.1097  132.3018 C   0  0  0  0  0  0  0  0  0  0  0  0
  128.4415  145.9608  133.0243 C   0  0  0  0  0  0  0  0  0  0  0  0
  128.1120  146.2130  134.4357 C   0  0  0  0  0  0  0  0  0  0  0  0
  127.3554  147.2847  134.7888 C   0  0  0  0  0  0  0  0  0  0  0  0
  126.5973  148.1653  133.9238 C   0  0  0  0  0  0  0  0  0  0  0  0
  125.2337  147.4328  133.6225 C   0  0  0  0  0  0  0  0  0  0  0  0
  124.3532  148.4617  132.9958 C   0  0  0  0  0  0  0  0  0  0  0  0
  125.0907  149.5547  132.2551 C   0  0  0  0  0  0  0  0  0  0  0  0
  126.0358  150.3472  133.1304 C   0  0  0  0  0  0  0  0  0  0  0  0
  126.1648  149.4833  134.4163 C   0  0  0  0  0  0  0  0  0  0  0  0
  127.3600  147.2228  136.1813 C   0  0  0  0  0  0  0  0  0  0  0  0
  126.7310  148.1143  137.0177 C   0  0  0  0  0  0  0  0  0  0  0  0
  126.8655  147.8622  138.3579 C   0  0  0  0  0  0  0  0  0  0  0  0
  127.6040  146.7558  138.8660 C   0  0  0  0  0  0  0  0  0  0  0  0
  128.2328  145.8748  138.0026 C   0  0  0  0  0  0  0  0  0  0  0  0
  128.1005  146.1213  136.6431 C   0  0  0  0  0  0  0  0  0  0  0  0
  128.5461  145.5215  135.5468 N   0  0  0  0  0  0  0  0  0  0  0  0
  129.3278  144.3052  135.3610 C   0  0  0  0  0  0  0  0  0  0  0  0
  128.7748  143.2659  134.4639 C   0  0  0  0  0  0  0  0  0  0  0  0
  128.4311  143.4064  133.1617 C   0  0  0  0  0  0  0  0  0  0  0  0
  128.5137  144.6854  132.4602 C   0  0  0  0  0  0  0  0  0  0  0  0
  128.7872  144.5656  131.1111 C   0  0  0  0  0  0  0  0  0  0  0  0
  128.5631  141.8637  134.7906 C   0  0  0  0  0  0  0  0  0  0  0  0
  129.0680  141.0617  133.8753 O   0  0  0  0  0  0  0  0  0  0  0  0
  127.9506  141.2146  135.8494 N   0  0  0  0  0  0  0  0  0  0  0  0
  128.7811  140.2992  136.6682 C   0  0  0  0  0  0  0  0  0  0  0  0
  126.5679  141.2666  136.2823 C   0  0  0  0  0  0  0  0  0  0  0  0
  126.4452  142.0135  137.5580 C   0  0  0  0  0  0  0  0  0  0  0  0
  126.4840  141.3101  138.7245 O   0  0  0  0  0  0  0  0  0  0  0  0
  125.3929  141.6247  139.5109 C   0  0  0  0  0  0  0  0  0  0  0  0
  125.6641  141.7870  140.9709 C   0  0  0  0  0  0  0  0  0  0  0  0
  125.6505  143.1844  141.4228 N   0  0  0  0  0  0  0  0  0  0  0  0
  126.1329  143.2569  142.7895 C   0  0  0  0  0  0  0  0  0  0  0  0
  126.7111  144.1314  140.4547 S   0  0  0  0  0  6  0  0  0  0  0  0
  127.8945  143.2934  140.1691 O   0  0  0  0  0  0  0  0  0  0  0  0
  125.9785  144.5971  139.1937 O   0  0  0  0  0  0  0  0  0  0  0  0
  127.1579  145.6460  141.1984 N   0  0  0  0  0  0  0  0  0  0  0  0
  127.4881  146.7527  140.3379 C   0  0  0  0  0  0  0  0  0  0  0  0
  127.6881  147.8368  141.0005 O   0  0  0  0  0  0  0  0  0  0  0  0
  1  2  1  0
  2  3  1  0
  3  4  2  0
  4  5  1  0
  5  6  2  0
  6  7  1  0
  7  8  2  0
  8  9  1  0
  9 10  1  0
 10 11  1  0
 11 12  1  0
 12 13  1  0
 13 14  1  0
  8 15  1  0
 15 16  2  0
 16 17  1  0
 17 18  2  0
 18 19  1  0
 19 20  2  0
 20 21  1  0
 21 22  1  0
 22 23  1  0
 23 24  2  0
 24 25  1  0
 25 26  2  0
 23 27  1  0
 27 28  2  0
 27 29  1  0
 29 30  1  0
 29 31  1  0
 31 32  1  0
 32 33  1  0
 33 34  1  0
 34 35  1  0
 35 36  1  0
 36 37  1  0
 36 38  1  0
 38 39  2  0
 38 40  2  0
 38 41  1  0
 41 42  1  0
 42 43  2  0
 26  3  1  0
 25  6  1  0
 21  7  1  0
 14  9  1  0
 20 15  1  0
 42 18  1  0
M  END
$$$$
