
     RDKit          3D

 43 48  0  0  0  0  0  0  0  0999 V2000
  189.8110  153.5891  123.7182 C   0  0  0  0  0  0  0  0  0  0  0  0
  191.0774  154.1607  123.6418 O   0  0  0  0  0  0  0  0  0  0  0  0
  191.3672  155.3423  122.9851 C   0  0  0  0  0  0  0  0  0  0  0  0
  192.5874  155.5337  122.3236 C   0  0  0  0  0  0  0  0  0  0  0  0
  192.8726  156.7065  121.6706 C   0  0  0  0  0  0  0  0  0  0  0  0
  191.9099  157.6832  121.6909 C   0  0  0  0  0  0  0  0  0  0  0  0
  192.2855  158.8833  120.9276 C   0  0  0  0  0  0  0  0  0  0  0  0
  193.0126  158.7771  119.7848 C   0  0  0  0  0  0  0  0  0  0  0  0
  193.3249  157.5781  119.0344 C   0  0  0  0  0  0  0  0  0  0  0  0
  192.3447  157.5541  117.7993 C   0  0  0  0  0  0  0  0  0  0  0  0
  192.8728  156.4988  116.8860 C   0  0  0  0  0  0  0  0  0  0  0  0
  193.6443  155.3967  117.5769 C   0  0  0  0  0  0  0  0  0  0  0  0
  194.8602  155.8895  118.3294 C   0  0  0  0  0  0  0  0  0  0  0  0
  194.6495  157.4275  118.4105 C   0  0  0  0  0  0  0  0  0  0  0  0
  193.2368  160.1075  119.4347 C   0  0  0  0  0  0  0  0  0  0  0  0
  193.9500  160.5305  118.3381 C   0  0  0  0  0  0  0  0  0  0  0  0
  194.0456  161.8888  118.1842 C   0  0  0  0  0  0  0  0  0  0  0  0
  193.4522  162.8131  119.0903 C   0  0  0  0  0  0  0  0  0  0  0  0
  192.7429  162.3617  120.1903 C   0  0  0  0  0  0  0  0  0  0  0  0
  192.6393  160.9872  120.3534 C   0  0  0  0  0  0  0  0  0  0  0  0
  192.0620  160.2039  121.2551 N   0  0  0  0  0  0  0  0  0  0  0  0
  191.2490  160.5135  122.4248 C   0  0  0  0  0  0  0  0  0  0  0  0
  189.9191  159.8714  122.5243 C   0  0  0  0  0  0  0  0  0  0  0  0
  189.6478  158.5448  122.5179 C   0  0  0  0  0  0  0  0  0  0  0  0
  190.6851  157.5307  122.3440 C   0  0  0  0  0  0  0  0  0  0  0  0
  190.4180  156.3415  122.9949 C   0  0  0  0  0  0  0  0  0  0  0  0
  188.6452  160.5454  122.7250 C   0  0  0  0  0  0  0  0  0  0  0  0
  187.9468  160.0010  123.7005 O   0  0  0  0  0  0  0  0  0  0  0  0
  188.0309  161.6235  122.1101 N   0  0  0  0  0  0  0  0  0  0  0  0
  187.7071  162.8016  122.9500 C   0  0  0  0  0  0  0  0  0  0  0  0
  187.6113  161.7772  120.7309 C   0  0  0  0  0  0  0  0  0  0  0  0
  188.4852  162.7431  120.0211 C   0  0  0  0  0  0  0  0  0  0  0  0
  188.1041  164.0509  119.9820 O   0  0  0  0  0  0  0  0  0  0  0  0
  188.1065  164.5126  118.6803 C   0  0  0  0  0  0  0  0  0  0  0  0
  188.6514  165.8883  118.4753 C   0  0  0  0  0  0  0  0  0  0  0  0
  189.9864  165.9101  117.8634 N   0  0  0  0  0  0  0  0  0  0  0  0
  190.5167  167.2603  117.9045 C   0  0  0  0  0  0  0  0  0  0  0  0
  191.0643  164.9095  118.7554 S   0  0  0  0  0  6  0  0  0  0  0  0
  190.7304  165.0860  120.1842 O   0  0  0  0  0  0  0  0  0  0  0  0
  190.9366  163.4609  118.2766 O   0  0  0  0  0  0  0  0  0  0  0  0
  192.7464  165.2522  118.4393 N   0  0  0  0  0  0  0  0  0  0  0  0
  193.6968  164.1806  118.5901 C   0  0  0  0  0  0  0  0  0  0  0  0
  194.8789  164.5279  118.2209 O   0  0  0  0  0  0  0  0  0  0  0  0
  1  2  1  0
  2  3  1  0
  3  4  2  0
  4  5  1  0
  5  6  2  0
  6  7  1  0
  7  8  2  0
  8  9  1  0
  9 10  1  0
 10 11  1  0
 11 12  1  0
 12 13  1  0
 13 14  1  0
  8 15  1  0
 15 16  2  0
 16 17  1  0
 17 18  2  0
 18 19  1  0
 19 20  2  0
 20 21  1  0
 21 22  1  0
 22 23  1  0
 23 24  2  0
 24 25  1  0
 25 26  2  0
 23 27  1  0
 27 28  2  0
 27 29  1  0
 29 30  1  0
 29 31  1  0
 31 32  1  0
 32 33  1  0
 33 34  1  0
 34 35  1  0
 35 36  1  0
 36 37  1  0
 36 38  1  0
 38 39  2  0
 38 40  2  0
 38 41  1  0
 41 42  1  0
 42 43  2  0
 26  3  1  0
 25  6  1  0
 21  7  1  0
 14  9  1  0
 20 15  1  0
 42 18  1  0
M  END
$$$$
