
     RDKit          3D

 43 48  0  0  0  0  0  0  0  0999 V2000
  130.6806  131.2624  133.5096 C   0  0  0  0  0  0  0  0  0  0  0  0
  130.7968  132.3105  134.4176 O   0  0  0  0  0  0  0  0  0  0  0  0
  130.6614  133.6480  134.0945 C   0  0  0  0  0  0  0  0  0  0  0  0
  130.5489  134.6339  135.0835 C   0  0  0  0  0  0  0  0  0  0  0  0
  130.4165  135.9612  134.7610 C   0  0  0  0  0  0  0  0  0  0  0  0
  130.4019  136.2818  133.4276 C   0  0  0  0  0  0  0  0  0  0  0  0
  130.3033  137.7286  133.1803 C   0  0  0  0  0  0  0  0  0  0  0  0
  130.9169  138.6153  134.0069 C   0  0  0  0  0  0  0  0  0  0  0  0
  131.8887  138.3414  135.0456 C   0  0  0  0  0  0  0  0  0  0  0  0
  133.2699  138.1161  134.3190 C   0  0  0  0  0  0  0  0  0  0  0  0
  134.3013  138.1400  135.3972 C   0  0  0  0  0  0  0  0  0  0  0  0
  133.8003  137.7084  136.7572 C   0  0  0  0  0  0  0  0  0  0  0  0
  132.6763  138.5694  137.2890 C   0  0  0  0  0  0  0  0  0  0  0  0
  132.2039  139.3743  136.0459 C   0  0  0  0  0  0  0  0  0  0  0  0
  130.5063  139.8473  133.5004 C   0  0  0  0  0  0  0  0  0  0  0  0
  130.8578  141.0734  134.0132 C   0  0  0  0  0  0  0  0  0  0  0  0
  130.3395  142.1586  133.3563 C   0  0  0  0  0  0  0  0  0  0  0  0
  129.4921  142.0409  132.2180 C   0  0  0  0  0  0  0  0  0  0  0  0
  129.1487  140.7941  131.7237 C   0  0  0  0  0  0  0  0  0  0  0  0
  129.6705  139.6890  132.3818 C   0  0  0  0  0  0  0  0  0  0  0  0
  129.5684  138.3774  132.2107 N   0  0  0  0  0  0  0  0  0  0  0  0
  128.8830  137.5860  131.1964 C   0  0  0  0  0  0  0  0  0  0  0  0
  129.6806  136.5833  130.4553 C   0  0  0  0  0  0  0  0  0  0  0  0
  130.3886  135.5530  130.9756 C   0  0  0  0  0  0  0  0  0  0  0  0
  130.5061  135.3267  132.4143 C   0  0  0  0  0  0  0  0  0  0  0  0
  130.6392  133.9958  132.7610 C   0  0  0  0  0  0  0  0  0  0  0  0
  129.7970  136.4666  129.0094 C   0  0  0  0  0  0  0  0  0  0  0  0
  129.5865  135.2338  128.5950 O   0  0  0  0  0  0  0  0  0  0  0  0
  130.0779  137.3725  128.0005 N   0  0  0  0  0  0  0  0  0  0  0  0
  129.0505  137.5731  126.9504 C   0  0  0  0  0  0  0  0  0  0  0  0
  131.2736  138.1631  127.7829 C   0  0  0  0  0  0  0  0  0  0  0  0
  131.0136  139.5961  128.0646 C   0  0  0  0  0  0  0  0  0  0  0  0
  130.6405  140.4003  127.0296 O   0  0  0  0  0  0  0  0  0  0  0  0
  131.4523  141.5163  126.9725 C   0  0  0  0  0  0  0  0  0  0  0  0
  130.7656  142.8102  126.6800 C   0  0  0  0  0  0  0  0  0  0  0  0
  130.6375  143.6890  127.8499 N   0  0  0  0  0  0  0  0  0  0  0  0
  129.7766  144.8103  127.5221 C   0  0  0  0  0  0  0  0  0  0  0  0
  129.8995  142.8403  129.1514 S   0  0  0  0  0  6  0  0  0  0  0  0
  128.8566  141.9744  128.5625 O   0  0  0  0  0  0  0  0  0  0  0  0
  130.9653  142.0637  129.9291 O   0  0  0  0  0  0  0  0  0  0  0  0
  129.2451  143.8934  130.3799 N   0  0  0  0  0  0  0  0  0  0  0  0
  129.1733  143.3976  131.7303 C   0  0  0  0  0  0  0  0  0  0  0  0
  128.7813  144.3018  132.5567 O   0  0  0  0  0  0  0  0  0  0  0  0
  1  2  1  0
  2  3  1  0
  3  4  2  0
  4  5  1  0
  5  6  2  0
  6  7  1  0
  7  8  2  0
  8  9  1  0
  9 10  1  0
 10 11  1  0
 11 12  1  0
 12 13  1  0
 13 14  1  0
  8 15  1  0
 15 16  2  0
 16 17  1  0
 17 18  2  0
 18 19  1  0
 19 20  2  0
 20 21  1  0
 21 22  1  0
 22 23  1  0
 23 24  2  0
 24 25  1  0
 25 26  2  0
 23 27  1  0
 27 28  2  0
 27 29  1  0
 29 30  1  0
 29 31  1  0
 31 32  1  0
 32 33  1  0
 33 34  1  0
 34 35  1  0
 35 36  1  0
 36 37  1  0
 36 38  1  0
 38 39  2  0
 38 40  2  0
 38 41  1  0
 41 42  1  0
 42 43  2  0
 26  3  1  0
 25  6  1  0
 21  7  1  0
 14  9  1  0
 20 15  1  0
 42 18  1  0
M  END
$$$$
