
     RDKit          3D

 43 48  0  0  0  0  0  0  0  0999 V2000
  166.1351  158.1084  131.3920 C   0  0  0  0  0  0  0  0  0  0  0  0
  166.2029  157.7450  130.0505 O   0  0  0  0  0  0  0  0  0  0  0  0
  165.9428  156.4763  129.5665 C   0  0  0  0  0  0  0  0  0  0  0  0
  165.2644  156.2774  128.3569 C   0  0  0  0  0  0  0  0  0  0  0  0
  165.0087  155.0173  127.8771 C   0  0  0  0  0  0  0  0  0  0  0  0
  165.4488  153.9600  128.6317 C   0  0  0  0  0  0  0  0  0  0  0  0
  165.1709  152.6531  128.0163 C   0  0  0  0  0  0  0  0  0  0  0  0
  165.2289  152.4968  126.6679 C   0  0  0  0  0  0  0  0  0  0  0  0
  165.7560  153.4208  125.6847 C   0  0  0  0  0  0  0  0  0  0  0  0
  165.3306  152.8633  124.2723 C   0  0  0  0  0  0  0  0  0  0  0  0
  165.6082  153.9643  123.3040 C   0  0  0  0  0  0  0  0  0  0  0  0
  166.7183  154.9034  123.7198 C   0  0  0  0  0  0  0  0  0  0  0  0
  166.4539  155.6096  125.0308 C   0  0  0  0  0  0  0  0  0  0  0  0
  165.2737  154.8112  125.6522 C   0  0  0  0  0  0  0  0  0  0  0  0
  164.8127  151.1785  126.4899 C   0  0  0  0  0  0  0  0  0  0  0  0
  164.6894  150.5417  125.2778 C   0  0  0  0  0  0  0  0  0  0  0  0
  164.2632  149.2406  125.3352 C   0  0  0  0  0  0  0  0  0  0  0  0
  163.9639  148.5786  126.5598 C   0  0  0  0  0  0  0  0  0  0  0  0
  164.0913  149.2437  127.7674 C   0  0  0  0  0  0  0  0  0  0  0  0
  164.5241  150.5616  127.7192 C   0  0  0  0  0  0  0  0  0  0  0  0
  164.7566  151.4927  128.6351 N   0  0  0  0  0  0  0  0  0  0  0  0
  164.6878  151.4543  130.0907 C   0  0  0  0  0  0  0  0  0  0  0  0
  165.8906  151.8735  130.8446 C   0  0  0  0  0  0  0  0  0  0  0  0
  166.5297  153.0650  130.7705 C   0  0  0  0  0  0  0  0  0  0  0  0
  166.1229  154.1192  129.8442 C   0  0  0  0  0  0  0  0  0  0  0  0
  166.3706  155.3967  130.3088 C   0  0  0  0  0  0  0  0  0  0  0  0
  166.5782  151.1074  131.8732 C   0  0  0  0  0  0  0  0  0  0  0  0
  166.7918  151.8205  132.9602 O   0  0  0  0  0  0  0  0  0  0  0  0
  167.0435  149.8048  131.9391 N   0  0  0  0  0  0  0  0  0  0  0  0
  166.4852  148.9276  132.9960 C   0  0  0  0  0  0  0  0  0  0  0  0
  168.0491  149.1468  131.1281 C   0  0  0  0  0  0  0  0  0  0  0  0
  167.4237  148.1549  130.2194 C   0  0  0  0  0  0  0  0  0  0  0  0
  167.3302  146.8623  130.6405 O   0  0  0  0  0  0  0  0  0  0  0  0
  167.8638  146.0096  129.6941 C   0  0  0  0  0  0  0  0  0  0  0  0
  167.1038  144.7472  129.4486 C   0  0  0  0  0  0  0  0  0  0  0  0
  166.3624  144.7408  128.1807 N   0  0  0  0  0  0  0  0  0  0  0  0
  165.4931  143.5798  128.1331 C   0  0  0  0  0  0  0  0  0  0  0  0
  165.3608  146.1351  128.0720 S   0  0  0  0  0  6  0  0  0  0  0  0
  164.8199  146.3813  129.4251 O   0  0  0  0  0  0  0  0  0  0  0  0
  166.1726  147.3097  127.5197 O   0  0  0  0  0  0  0  0  0  0  0  0
  164.0883  145.9808  126.8873 N   0  0  0  0  0  0  0  0  0  0  0  0
  163.5984  147.1802  126.2581 C   0  0  0  0  0  0  0  0  0  0  0  0
  162.7474  146.9248  125.3281 O   0  0  0  0  0  0  0  0  0  0  0  0
  1  2  1  0
  2  3  1  0
  3  4  2  0
  4  5  1  0
  5  6  2  0
  6  7  1  0
  7  8  2  0
  8  9  1  0
  9 10  1  0
 10 11  1  0
 11 12  1  0
 12 13  1  0
 13 14  1  0
  8 15  1  0
 15 16  2  0
 16 17  1  0
 17 18  2  0
 18 19  1  0
 19 20  2  0
 20 21  1  0
 21 22  1  0
 22 23  1  0
 23 24  2  0
 24 25  1  0
 25 26  2  0
 23 27  1  0
 27 28  2  0
 27 29  1  0
 29 30  1  0
 29 31  1  0
 31 32  1  0
 32 33  1  0
 33 34  1  0
 34 35  1  0
 35 36  1  0
 36 37  1  0
 36 38  1  0
 38 39  2  0
 38 40  2  0
 38 41  1  0
 41 42  1  0
 42 43  2  0
 26  3  1  0
 25  6  1  0
 21  7  1  0
 14  9  1  0
 20 15  1  0
 42 18  1  0
M  END
$$$$
