
     RDKit          3D

 43 48  0  0  0  0  0  0  0  0999 V2000
  125.9393  147.5328  127.4113 C   0  0  0  0  0  0  0  0  0  0  0  0
  126.1282  146.4076  128.2079 O   0  0  0  0  0  0  0  0  0  0  0  0
  126.4027  146.4416  129.5626 C   0  0  0  0  0  0  0  0  0  0  0  0
  126.4005  147.6441  130.2814 C   0  0  0  0  0  0  0  0  0  0  0  0
  126.6713  147.6758  131.6264 C   0  0  0  0  0  0  0  0  0  0  0  0
  126.9416  146.4783  132.2379 C   0  0  0  0  0  0  0  0  0  0  0  0
  127.1734  146.6057  133.6850 C   0  0  0  0  0  0  0  0  0  0  0  0
  126.4806  147.5147  134.4195 C   0  0  0  0  0  0  0  0  0  0  0  0
  125.3251  148.2910  134.0187 C   0  0  0  0  0  0  0  0  0  0  0  0
  124.7931  149.0069  135.3191 C   0  0  0  0  0  0  0  0  0  0  0  0
  123.8105  150.0253  134.8454 C   0  0  0  0  0  0  0  0  0  0  0  0
  123.1313  149.6842  133.5380 C   0  0  0  0  0  0  0  0  0  0  0  0
  124.0925  149.5188  132.3821 C   0  0  0  0  0  0  0  0  0  0  0  0
  125.4828  149.4034  133.0677 C   0  0  0  0  0  0  0  0  0  0  0  0
  127.0511  147.3909  135.6852 C   0  0  0  0  0  0  0  0  0  0  0  0
  126.6924  148.1224  136.7926 C   0  0  0  0  0  0  0  0  0  0  0  0
  127.3862  147.8361  137.9391 C   0  0  0  0  0  0  0  0  0  0  0  0
  128.4123  146.8505  137.9960 C   0  0  0  0  0  0  0  0  0  0  0  0
  128.7584  146.1306  136.8652 C   0  0  0  0  0  0  0  0  0  0  0  0
  128.0598  146.4126  135.6995 C   0  0  0  0  0  0  0  0  0  0  0  0
  128.1076  145.9487  134.4575 N   0  0  0  0  0  0  0  0  0  0  0  0
  128.9102  144.8940  133.8505 C   0  0  0  0  0  0  0  0  0  0  0  0
  128.1946  143.8174  133.1297 C   0  0  0  0  0  0  0  0  0  0  0  0
  127.3422  143.9564  132.0867 C   0  0  0  0  0  0  0  0  0  0  0  0
  126.9582  145.2613  131.5534 C   0  0  0  0  0  0  0  0  0  0  0  0
  126.6823  145.2518  130.1996 C   0  0  0  0  0  0  0  0  0  0  0  0
  128.3286  142.3863  133.3566 C   0  0  0  0  0  0  0  0  0  0  0  0
  128.5308  141.7253  132.2350 O   0  0  0  0  0  0  0  0  0  0  0  0
  128.2882  141.5942  134.4917 N   0  0  0  0  0  0  0  0  0  0  0  0
  129.4957  140.7981  134.8183 C   0  0  0  0  0  0  0  0  0  0  0  0
  127.2022  141.3887  135.4299 C   0  0  0  0  0  0  0  0  0  0  0  0
  127.4981  142.0446  136.7271 C   0  0  0  0  0  0  0  0  0  0  0  0
  128.0983  141.3057  137.7023 O   0  0  0  0  0  0  0  0  0  0  0  0
  127.3813  141.3925  138.8796 C   0  0  0  0  0  0  0  0  0  0  0  0
  128.1892  141.5320  140.1284 C   0  0  0  0  0  0  0  0  0  0  0  0
  128.1636  142.8843  140.7009 N   0  0  0  0  0  0  0  0  0  0  0  0
  129.1379  142.9758  141.7725 C   0  0  0  0  0  0  0  0  0  0  0  0
  128.6048  144.0421  139.5077 S   0  0  0  0  0  6  0  0  0  0  0  0
  129.6786  143.4332  138.6953 O   0  0  0  0  0  0  0  0  0  0  0  0
  127.3714  144.4326  138.6890 O   0  0  0  0  0  0  0  0  0  0  0  0
  129.0968  145.5753  140.1816 N   0  0  0  0  0  0  0  0  0  0  0  0
  128.8973  146.7603  139.3877 C   0  0  0  0  0  0  0  0  0  0  0  0
  129.1932  147.8313  140.0357 O   0  0  0  0  0  0  0  0  0  0  0  0
  1  2  1  0
  2  3  1  0
  3  4  2  0
  4  5  1  0
  5  6  2  0
  6  7  1  0
  7  8  2  0
  8  9  1  0
  9 10  1  0
 10 11  1  0
 11 12  1  0
 12 13  1  0
 13 14  1  0
  8 15  1  0
 15 16  2  0
 16 17  1  0
 17 18  2  0
 18 19  1  0
 19 20  2  0
 20 21  1  0
 21 22  1  0
 22 23  1  0
 23 24  2  0
 24 25  1  0
 25 26  2  0
 23 27  1  0
 27 28  2  0
 27 29  1  0
 29 30  1  0
 29 31  1  0
 31 32  1  0
 32 33  1  0
 33 34  1  0
 34 35  1  0
 35 36  1  0
 36 37  1  0
 36 38  1  0
 38 39  2  0
 38 40  2  0
 38 41  1  0
 41 42  1  0
 42 43  2  0
 26  3  1  0
 25  6  1  0
 21  7  1  0
 14  9  1  0
 20 15  1  0
 42 18  1  0
M  END
$$$$
