
     RDKit          3D

 43 48  0  0  0  0  0  0  0  0999 V2000
  132.7011  142.8772  129.0765 C   0  0  0  0  0  0  0  0  0  0  0  0
  132.4034  141.7358  129.8147 O   0  0  0  0  0  0  0  0  0  0  0  0
  131.5121  141.6942  130.8709 C   0  0  0  0  0  0  0  0  0  0  0  0
  131.0681  140.4789  131.4085 C   0  0  0  0  0  0  0  0  0  0  0  0
  130.1849  140.4394  132.4582 C   0  0  0  0  0  0  0  0  0  0  0  0
  129.7573  141.6418  132.9607 C   0  0  0  0  0  0  0  0  0  0  0  0
  128.8512  141.5000  134.1109 C   0  0  0  0  0  0  0  0  0  0  0  0
  129.0281  140.4987  135.0119 C   0  0  0  0  0  0  0  0  0  0  0  0
  130.1640  139.6098  135.1461 C   0  0  0  0  0  0  0  0  0  0  0  0
  129.6026  138.1421  135.0152 C   0  0  0  0  0  0  0  0  0  0  0  0
  130.7992  137.2660  134.8495 C   0  0  0  0  0  0  0  0  0  0  0  0
  132.0653  137.8043  135.4774 C   0  0  0  0  0  0  0  0  0  0  0  0
  132.4955  139.1426  134.9197 C   0  0  0  0  0  0  0  0  0  0  0  0
  131.2436  139.6432  134.1461 C   0  0  0  0  0  0  0  0  0  0  0  0
  127.9341  140.6494  135.8624 C   0  0  0  0  0  0  0  0  0  0  0  0
  127.6554  139.8512  136.9465 C   0  0  0  0  0  0  0  0  0  0  0  0
  126.5245  140.1805  137.6467 C   0  0  0  0  0  0  0  0  0  0  0  0
  125.6840  141.2726  137.2884 C   0  0  0  0  0  0  0  0  0  0  0  0
  125.9838  142.0585  136.1888 C   0  0  0  0  0  0  0  0  0  0  0  0
  127.1285  141.7335  135.4743 C   0  0  0  0  0  0  0  0  0  0  0  0
  127.7205  142.2350  134.3982 N   0  0  0  0  0  0  0  0  0  0  0  0
  127.3990  143.3896  133.5685 C   0  0  0  0  0  0  0  0  0  0  0  0
  128.4605  144.3995  133.3589 C   0  0  0  0  0  0  0  0  0  0  0  0
  129.6929  144.1960  132.8361 C   0  0  0  0  0  0  0  0  0  0  0  0
  130.1734  142.8720  132.4475 C   0  0  0  0  0  0  0  0  0  0  0  0
  131.0635  142.8891  131.3909 C   0  0  0  0  0  0  0  0  0  0  0  0
  128.3559  145.8297  133.6068 C   0  0  0  0  0  0  0  0  0  0  0  0
  128.7720  146.5408  132.5787 O   0  0  0  0  0  0  0  0  0  0  0  0
  127.9147  146.5796  134.6840 N   0  0  0  0  0  0  0  0  0  0  0  0
  126.7706  147.4961  134.4617 C   0  0  0  0  0  0  0  0  0  0  0  0
  128.4320  146.6357  136.0372 C   0  0  0  0  0  0  0  0  0  0  0  0
  127.4969  145.9803  136.9841 C   0  0  0  0  0  0  0  0  0  0  0  0
  126.5681  146.7536  137.6138 O   0  0  0  0  0  0  0  0  0  0  0  0
  126.6237  146.5537  138.9792 C   0  0  0  0  0  0  0  0  0  0  0  0
  125.3080  146.4699  139.6819 C   0  0  0  0  0  0  0  0  0  0  0  0
  124.9419  145.1075  140.0904 N   0  0  0  0  0  0  0  0  0  0  0  0
  123.5698  145.0950  140.5626 C   0  0  0  0  0  0  0  0  0  0  0  0
  125.0297  144.0406  138.7439 S   0  0  0  0  0  6  0  0  0  0  0  0
  124.5317  144.7887  137.5707 O   0  0  0  0  0  0  0  0  0  0  0  0
  126.4664  143.5383  138.5785 O   0  0  0  0  0  0  0  0  0  0  0  0
  124.1474  142.5535  138.9823 N   0  0  0  0  0  0  0  0  0  0  0  0
  124.6016  141.3767  138.2872 C   0  0  0  0  0  0  0  0  0  0  0  0
  123.9422  140.3275  138.6319 O   0  0  0  0  0  0  0  0  0  0  0  0
  1  2  1  0
  2  3  1  0
  3  4  2  0
  4  5  1  0
  5  6  2  0
  6  7  1  0
  7  8  2  0
  8  9  1  0
  9 10  1  0
 10 11  1  0
 11 12  1  0
 12 13  1  0
 13 14  1  0
  8 15  1  0
 15 16  2  0
 16 17  1  0
 17 18  2  0
 18 19  1  0
 19 20  2  0
 20 21  1  0
 21 22  1  0
 22 23  1  0
 23 24  2  0
 24 25  1  0
 25 26  2  0
 23 27  1  0
 27 28  2  0
 27 29  1  0
 29 30  1  0
 29 31  1  0
 31 32  1  0
 32 33  1  0
 33 34  1  0
 34 35  1  0
 35 36  1  0
 36 37  1  0
 36 38  1  0
 38 39  2  0
 38 40  2  0
 38 41  1  0
 41 42  1  0
 42 43  2  0
 26  3  1  0
 25  6  1  0
 21  7  1  0
 14  9  1  0
 20 15  1  0
 42 18  1  0
M  END
$$$$
