
     RDKit          3D

 43 48  0  0  0  0  0  0  0  0999 V2000
  126.6629  165.2642  150.0620 C   0  0  0  0  0  0  0  0  0  0  0  0
  126.4505  166.3145  149.1743 O   0  0  0  0  0  0  0  0  0  0  0  0
  125.3090  166.4795  148.4118 C   0  0  0  0  0  0  0  0  0  0  0  0
  124.7352  167.7423  148.2140 C   0  0  0  0  0  0  0  0  0  0  0  0
  123.6032  167.9045  147.4553 C   0  0  0  0  0  0  0  0  0  0  0  0
  123.0587  166.7767  146.8962 C   0  0  0  0  0  0  0  0  0  0  0  0
  121.8776  167.0544  146.0645 C   0  0  0  0  0  0  0  0  0  0  0  0
  121.8051  168.1903  145.3225 C   0  0  0  0  0  0  0  0  0  0  0  0
  122.8622  169.1392  145.0387 C   0  0  0  0  0  0  0  0  0  0  0  0
  124.2042  168.4773  145.5361 C   0  0  0  0  0  0  0  0  0  0  0  0
  125.3013  169.3154  144.9695 C   0  0  0  0  0  0  0  0  0  0  0  0
  124.9260  170.7590  144.7204 C   0  0  0  0  0  0  0  0  0  0  0  0
  123.7801  170.9270  143.7477 C   0  0  0  0  0  0  0  0  0  0  0  0
  123.1671  169.5022  143.6451 C   0  0  0  0  0  0  0  0  0  0  0  0
  120.5236  168.1245  144.7782 C   0  0  0  0  0  0  0  0  0  0  0  0
  119.9636  169.0679  143.9497 C   0  0  0  0  0  0  0  0  0  0  0  0
  118.6871  168.8008  143.5291 C   0  0  0  0  0  0  0  0  0  0  0  0
  117.9749  167.6298  143.9154 C   0  0  0  0  0  0  0  0  0  0  0  0
  118.5595  166.6970  144.7551 C   0  0  0  0  0  0  0  0  0  0  0  0
  119.8531  166.9583  145.1848 C   0  0  0  0  0  0  0  0  0  0  0  0
  120.7125  166.3230  145.9710 N   0  0  0  0  0  0  0  0  0  0  0  0
  120.6267  165.0404  146.6584 C   0  0  0  0  0  0  0  0  0  0  0  0
  121.7073  164.0588  146.4145 C   0  0  0  0  0  0  0  0  0  0  0  0
  123.0343  164.2338  146.6192 C   0  0  0  0  0  0  0  0  0  0  0  0
  123.5991  165.5017  147.0757 C   0  0  0  0  0  0  0  0  0  0  0  0
  124.7396  165.3608  147.8429 C   0  0  0  0  0  0  0  0  0  0  0  0
  121.5425  162.6812  145.9756 C   0  0  0  0  0  0  0  0  0  0  0  0
  122.2199  161.8386  146.7286 O   0  0  0  0  0  0  0  0  0  0  0  0
  120.8304  162.0883  144.9464 N   0  0  0  0  0  0  0  0  0  0  0  0
  119.7890  161.0982  145.3119 C   0  0  0  0  0  0  0  0  0  0  0  0
  120.9666  162.2661  143.5141 C   0  0  0  0  0  0  0  0  0  0  0  0
  119.8111  163.0179  142.9663 C   0  0  0  0  0  0  0  0  0  0  0  0
  118.7490  162.3107  142.4878 O   0  0  0  0  0  0  0  0  0  0  0  0
  118.4366  162.7223  141.2069 C   0  0  0  0  0  0  0  0  0  0  0  0
  116.9808  162.8550  140.8994 C   0  0  0  0  0  0  0  0  0  0  0  0
  116.5164  164.2465  140.8276 N   0  0  0  0  0  0  0  0  0  0  0  0
  115.0679  164.2706  140.7427 C   0  0  0  0  0  0  0  0  0  0  0  0
  116.9595  165.0945  142.2570 S   0  0  0  0  0  6  0  0  0  0  0  0
  116.7951  164.1519  143.3834 O   0  0  0  0  0  0  0  0  0  0  0  0
  118.3873  165.6290  142.1163 O   0  0  0  0  0  0  0  0  0  0  0  0
  116.0432  166.5595  142.5033 N   0  0  0  0  0  0  0  0  0  0  0  0
  116.6648  167.6335  143.2344 C   0  0  0  0  0  0  0  0  0  0  0  0
  115.9355  168.6928  143.2501 O   0  0  0  0  0  0  0  0  0  0  0  0
  1  2  1  0
  2  3  1  0
  3  4  2  0
  4  5  1  0
  5  6  2  0
  6  7  1  0
  7  8  2  0
  8  9  1  0
  9 10  1  0
 10 11  1  0
 11 12  1  0
 12 13  1  0
 13 14  1  0
  8 15  1  0
 15 16  2  0
 16 17  1  0
 17 18  2  0
 18 19  1  0
 19 20  2  0
 20 21  1  0
 21 22  1  0
 22 23  1  0
 23 24  2  0
 24 25  1  0
 25 26  2  0
 23 27  1  0
 27 28  2  0
 27 29  1  0
 29 30  1  0
 29 31  1  0
 31 32  1  0
 32 33  1  0
 33 34  1  0
 34 35  1  0
 35 36  1  0
 36 37  1  0
 36 38  1  0
 38 39  2  0
 38 40  2  0
 38 41  1  0
 41 42  1  0
 42 43  2  0
 26  3  1  0
 25  6  1  0
 21  7  1  0
 14  9  1  0
 20 15  1  0
 42 18  1  0
M  END
$$$$
