
     RDKit          3D

 43 48  0  0  0  0  0  0  0  0999 V2000
  209.4670  127.2549  132.2166 C   0  0  0  0  0  0  0  0  0  0  0  0
  209.1235  128.1956  131.2503 O   0  0  0  0  0  0  0  0  0  0  0  0
  208.1334  129.1491  131.3997 C   0  0  0  0  0  0  0  0  0  0  0  0
  207.5148  129.7439  130.2922 C   0  0  0  0  0  0  0  0  0  0  0  0
  206.5309  130.6887  130.4423 C   0  0  0  0  0  0  0  0  0  0  0  0
  206.1767  131.0239  131.7242 C   0  0  0  0  0  0  0  0  0  0  0  0
  205.0848  132.0078  131.7853 C   0  0  0  0  0  0  0  0  0  0  0  0
  204.0821  131.9868  130.8688 C   0  0  0  0  0  0  0  0  0  0  0  0
  203.7842  130.9554  129.8962 C   0  0  0  0  0  0  0  0  0  0  0  0
  205.1335  130.6497  129.1395 C   0  0  0  0  0  0  0  0  0  0  0  0
  204.8886  129.3950  128.3696 C   0  0  0  0  0  0  0  0  0  0  0  0
  203.4453  129.1671  127.9800 C   0  0  0  0  0  0  0  0  0  0  0  0
  202.5068  129.0752  129.1624 C   0  0  0  0  0  0  0  0  0  0  0  0
  203.3479  129.6245  130.3488 C   0  0  0  0  0  0  0  0  0  0  0  0
  203.3289  133.1098  131.2066 C   0  0  0  0  0  0  0  0  0  0  0  0
  202.1959  133.5321  130.5524 C   0  0  0  0  0  0  0  0  0  0  0  0
  201.6114  134.6649  131.0554 C   0  0  0  0  0  0  0  0  0  0  0  0
  202.1305  135.3690  132.1790 C   0  0  0  0  0  0  0  0  0  0  0  0
  203.2763  134.9260  132.8175 C   0  0  0  0  0  0  0  0  0  0  0  0
  203.8743  133.7782  132.3161 C   0  0  0  0  0  0  0  0  0  0  0  0
  204.9491  133.0748  132.6480 N   0  0  0  0  0  0  0  0  0  0  0  0
  205.9057  133.2286  133.7371 C   0  0  0  0  0  0  0  0  0  0  0  0
  206.1355  132.0608  134.6171 C   0  0  0  0  0  0  0  0  0  0  0  0
  206.5486  130.8255  134.2472 C   0  0  0  0  0  0  0  0  0  0  0  0
  206.7743  130.4568  132.8516 C   0  0  0  0  0  0  0  0  0  0  0  0
  207.7626  129.5069  132.6779 C   0  0  0  0  0  0  0  0  0  0  0  0
  206.0332  132.0371  136.0685 C   0  0  0  0  0  0  0  0  0  0  0  0
  207.0927  131.4904  136.6293 O   0  0  0  0  0  0  0  0  0  0  0  0
  205.0661  132.4658  136.9621 N   0  0  0  0  0  0  0  0  0  0  0  0
  205.4547  133.4971  137.9539 C   0  0  0  0  0  0  0  0  0  0  0  0
  203.6914  132.0285  137.1070 C   0  0  0  0  0  0  0  0  0  0  0  0
  202.7544  133.0802  136.6415 C   0  0  0  0  0  0  0  0  0  0  0  0
  202.2682  133.9636  137.5581 O   0  0  0  0  0  0  0  0  0  0  0  0
  200.8894  134.0113  137.4939 C   0  0  0  0  0  0  0  0  0  0  0  0
  200.2761  135.3689  137.6052 C   0  0  0  0  0  0  0  0  0  0  0  0
  199.7663  135.8933  136.3315 N   0  0  0  0  0  0  0  0  0  0  0  0
  199.3926  137.2860  136.4952 C   0  0  0  0  0  0  0  0  0  0  0  0
  200.9953  135.8309  135.1297 S   0  0  0  0  0  6  0  0  0  0  0  0
  202.2667  136.1796  135.7977 O   0  0  0  0  0  0  0  0  0  0  0  0
  201.0107  134.4442  134.4812 O   0  0  0  0  0  0  0  0  0  0  0  0
  200.6787  136.8700  133.7634 N   0  0  0  0  0  0  0  0  0  0  0  0
  201.2247  136.4942  132.4847 C   0  0  0  0  0  0  0  0  0  0  0  0
  200.8288  137.2747  131.5422 O   0  0  0  0  0  0  0  0  0  0  0  0
  1  2  1  0
  2  3  1  0
  3  4  2  0
  4  5  1  0
  5  6  2  0
  6  7  1  0
  7  8  2  0
  8  9  1  0
  9 10  1  0
 10 11  1  0
 11 12  1  0
 12 13  1  0
 13 14  1  0
  8 15  1  0
 15 16  2  0
 16 17  1  0
 17 18  2  0
 18 19  1  0
 19 20  2  0
 20 21  1  0
 21 22  1  0
 22 23  1  0
 23 24  2  0
 24 25  1  0
 25 26  2  0
 23 27  1  0
 27 28  2  0
 27 29  1  0
 29 30  1  0
 29 31  1  0
 31 32  1  0
 32 33  1  0
 33 34  1  0
 34 35  1  0
 35 36  1  0
 36 37  1  0
 36 38  1  0
 38 39  2  0
 38 40  2  0
 38 41  1  0
 41 42  1  0
 42 43  2  0
 26  3  1  0
 25  6  1  0
 21  7  1  0
 14  9  1  0
 20 15  1  0
 42 18  1  0
M  END
$$$$
