
     RDKit          3D

 43 48  0  0  0  0  0  0  0  0999 V2000
  207.4303  141.9861  132.6019 C   0  0  0  0  0  0  0  0  0  0  0  0
  206.5017  141.9024  131.5688 O   0  0  0  0  0  0  0  0  0  0  0  0
  205.4178  141.0441  131.5549 C   0  0  0  0  0  0  0  0  0  0  0  0
  204.1172  141.5087  131.3197 C   0  0  0  0  0  0  0  0  0  0  0  0
  203.0428  140.6551  131.3043 C   0  0  0  0  0  0  0  0  0  0  0  0
  203.2975  139.3259  131.5264 C   0  0  0  0  0  0  0  0  0  0  0  0
  202.0941  138.4836  131.4451 C   0  0  0  0  0  0  0  0  0  0  0  0
  201.1093  138.7679  130.5534 C   0  0  0  0  0  0  0  0  0  0  0  0
  201.1465  139.7101  129.4537 C   0  0  0  0  0  0  0  0  0  0  0  0
  201.8616  138.9737  128.2566 C   0  0  0  0  0  0  0  0  0  0  0  0
  201.6228  139.8285  127.0570 C   0  0  0  0  0  0  0  0  0  0  0  0
  201.4279  141.2974  127.3594 C   0  0  0  0  0  0  0  0  0  0  0  0
  200.2492  141.5774  128.2648 C   0  0  0  0  0  0  0  0  0  0  0  0
  199.8900  140.1828  128.8501 C   0  0  0  0  0  0  0  0  0  0  0  0
  200.1320  137.8218  130.8578 C   0  0  0  0  0  0  0  0  0  0  0  0
  198.9156  137.7060  130.2279 C   0  0  0  0  0  0  0  0  0  0  0  0
  198.1056  136.7013  130.6886 C   0  0  0  0  0  0  0  0  0  0  0  0
  198.4836  135.8279  131.7478 C   0  0  0  0  0  0  0  0  0  0  0  0
  199.7126  135.9685  132.3696 C   0  0  0  0  0  0  0  0  0  0  0  0
  200.5406  136.9825  131.9084 C   0  0  0  0  0  0  0  0  0  0  0  0
  201.7495  137.4138  132.2439 N   0  0  0  0  0  0  0  0  0  0  0  0
  202.7102  136.9279  133.2267 C   0  0  0  0  0  0  0  0  0  0  0  0
  204.0777  136.6180  132.7529 C   0  0  0  0  0  0  0  0  0  0  0  0
  204.9370  137.4562  132.1263 C   0  0  0  0  0  0  0  0  0  0  0  0
  204.5788  138.8271  131.7696 C   0  0  0  0  0  0  0  0  0  0  0  0
  205.6467  139.7038  131.7802 C   0  0  0  0  0  0  0  0  0  0  0  0
  204.7947  135.3652  132.9377 C   0  0  0  0  0  0  0  0  0  0  0  0
  206.0085  135.5566  133.4130 O   0  0  0  0  0  0  0  0  0  0  0  0
  204.4648  134.0381  132.7199 N   0  0  0  0  0  0  0  0  0  0  0  0
  204.4848  133.1239  133.8871 C   0  0  0  0  0  0  0  0  0  0  0  0
  204.1195  133.3691  131.4810 C   0  0  0  0  0  0  0  0  0  0  0  0
  202.6773  133.0226  131.4560 C   0  0  0  0  0  0  0  0  0  0  0  0
  202.3023  131.7874  131.8926 O   0  0  0  0  0  0  0  0  0  0  0  0
  201.5178  131.1610  130.9440 C   0  0  0  0  0  0  0  0  0  0  0  0
  200.3371  130.4088  131.4650 C   0  0  0  0  0  0  0  0  0  0  0  0
  199.0544  131.0834  131.2267 N   0  0  0  0  0  0  0  0  0  0  0  0
  198.0021  130.3939  131.9500 C   0  0  0  0  0  0  0  0  0  0  0  0
  199.1127  132.6962  131.8217 S   0  0  0  0  0  6  0  0  0  0  0  0
  199.8867  132.6614  133.0803 O   0  0  0  0  0  0  0  0  0  0  0  0
  199.7223  133.6147  130.7594 O   0  0  0  0  0  0  0  0  0  0  0  0
  197.5343  133.4039  132.0549 N   0  0  0  0  0  0  0  0  0  0  0  0
  197.4087  134.8342  131.9404 C   0  0  0  0  0  0  0  0  0  0  0  0
  196.1841  135.2194  132.0201 O   0  0  0  0  0  0  0  0  0  0  0  0
  1  2  1  0
  2  3  1  0
  3  4  2  0
  4  5  1  0
  5  6  2  0
  6  7  1  0
  7  8  2  0
  8  9  1  0
  9 10  1  0
 10 11  1  0
 11 12  1  0
 12 13  1  0
 13 14  1  0
  8 15  1  0
 15 16  2  0
 16 17  1  0
 17 18  2  0
 18 19  1  0
 19 20  2  0
 20 21  1  0
 21 22  1  0
 22 23  1  0
 23 24  2  0
 24 25  1  0
 25 26  2  0
 23 27  1  0
 27 28  2  0
 27 29  1  0
 29 30  1  0
 29 31  1  0
 31 32  1  0
 32 33  1  0
 33 34  1  0
 34 35  1  0
 35 36  1  0
 36 37  1  0
 36 38  1  0
 38 39  2  0
 38 40  2  0
 38 41  1  0
 41 42  1  0
 42 43  2  0
 26  3  1  0
 25  6  1  0
 21  7  1  0
 14  9  1  0
 20 15  1  0
 42 18  1  0
M  END
$$$$
