
     RDKit          3D

 43 48  0  0  0  0  0  0  0  0999 V2000
  119.8670  160.8582  147.9856 C   0  0  0  0  0  0  0  0  0  0  0  0
  118.5852  160.9897  147.4602 O   0  0  0  0  0  0  0  0  0  0  0  0
  118.1917  161.9906  146.5912 C   0  0  0  0  0  0  0  0  0  0  0  0
  117.1325  161.8073  145.6926 C   0  0  0  0  0  0  0  0  0  0  0  0
  116.7420  162.8025  144.8321 C   0  0  0  0  0  0  0  0  0  0  0  0
  117.4319  163.9863  144.8916 C   0  0  0  0  0  0  0  0  0  0  0  0
  116.9135  165.0064  143.9670 C   0  0  0  0  0  0  0  0  0  0  0  0
  115.5820  165.0968  143.7122 C   0  0  0  0  0  0  0  0  0  0  0  0
  114.4942  164.4398  144.4074 C   0  0  0  0  0  0  0  0  0  0  0  0
  115.1377  163.6799  145.6301 C   0  0  0  0  0  0  0  0  0  0  0  0
  113.9943  163.2702  146.4972 C   0  0  0  0  0  0  0  0  0  0  0  0
  112.6887  163.0651  145.7621 C   0  0  0  0  0  0  0  0  0  0  0  0
  112.1966  164.3030  145.0461 C   0  0  0  0  0  0  0  0  0  0  0  0
  113.4339  165.2440  145.0365 C   0  0  0  0  0  0  0  0  0  0  0  0
  115.5192  166.0915  142.7378 C   0  0  0  0  0  0  0  0  0  0  0  0
  114.3679  166.5428  142.1372 C   0  0  0  0  0  0  0  0  0  0  0  0
  114.5377  167.5309  141.2030 C   0  0  0  0  0  0  0  0  0  0  0  0
  115.8140  168.0647  140.8658 C   0  0  0  0  0  0  0  0  0  0  0  0
  116.9593  167.5895  141.4816 C   0  0  0  0  0  0  0  0  0  0  0  0
  116.7968  166.5897  142.4305 C   0  0  0  0  0  0  0  0  0  0  0  0
  117.6291  165.9045  143.2038 N   0  0  0  0  0  0  0  0  0  0  0  0
  119.0732  165.9905  143.3831 C   0  0  0  0  0  0  0  0  0  0  0  0
  119.5826  166.1779  144.7601 C   0  0  0  0  0  0  0  0  0  0  0  0
  119.3604  165.3798  145.8311 C   0  0  0  0  0  0  0  0  0  0  0  0
  118.4958  164.2036  145.7695 C   0  0  0  0  0  0  0  0  0  0  0  0
  118.8723  163.1884  146.6279 C   0  0  0  0  0  0  0  0  0  0  0  0
  120.4885  167.2227  145.2133 C   0  0  0  0  0  0  0  0  0  0  0  0
  121.4983  166.7350  145.9048 O   0  0  0  0  0  0  0  0  0  0  0  0
  120.5036  168.5996  145.0664 N   0  0  0  0  0  0  0  0  0  0  0  0
  121.6684  169.2051  144.3771 C   0  0  0  0  0  0  0  0  0  0  0  0
  119.5405  169.5824  145.5230 C   0  0  0  0  0  0  0  0  0  0  0  0
  118.7889  170.1520  144.3779 C   0  0  0  0  0  0  0  0  0  0  0  0
  119.2551  171.2972  143.8050 O   0  0  0  0  0  0  0  0  0  0  0  0
  118.2506  172.2426  143.7364 C   0  0  0  0  0  0  0  0  0  0  0  0
  118.1827  173.0340  142.4713 C   0  0  0  0  0  0  0  0  0  0  0  0
  117.0725  172.6471  141.5909 N   0  0  0  0  0  0  0  0  0  0  0  0
  117.2164  173.3110  140.3086 C   0  0  0  0  0  0  0  0  0  0  0  0
  117.1110  170.9527  141.2973 S   0  0  0  0  0  6  0  0  0  0  0  0
  118.5330  170.5721  141.1663 O   0  0  0  0  0  0  0  0  0  0  0  0
  116.3878  170.2180  142.4291 O   0  0  0  0  0  0  0  0  0  0  0  0
  116.1837  170.4728  139.8985 N   0  0  0  0  0  0  0  0  0  0  0  0
  115.6223  169.1466  139.8794 C   0  0  0  0  0  0  0  0  0  0  0  0
  114.8711  168.9548  138.8532 O   0  0  0  0  0  0  0  0  0  0  0  0
  1  2  1  0
  2  3  1  0
  3  4  2  0
  4  5  1  0
  5  6  2  0
  6  7  1  0
  7  8  2  0
  8  9  1  0
  9 10  1  0
 10 11  1  0
 11 12  1  0
 12 13  1  0
 13 14  1  0
  8 15  1  0
 15 16  2  0
 16 17  1  0
 17 18  2  0
 18 19  1  0
 19 20  2  0
 20 21  1  0
 21 22  1  0
 22 23  1  0
 23 24  2  0
 24 25  1  0
 25 26  2  0
 23 27  1  0
 27 28  2  0
 27 29  1  0
 29 30  1  0
 29 31  1  0
 31 32  1  0
 32 33  1  0
 33 34  1  0
 34 35  1  0
 35 36  1  0
 36 37  1  0
 36 38  1  0
 38 39  2  0
 38 40  2  0
 38 41  1  0
 41 42  1  0
 42 43  2  0
 26  3  1  0
 25  6  1  0
 21  7  1  0
 14  9  1  0
 20 15  1  0
 42 18  1  0
M  END
$$$$
