
     RDKit          3D

 43 48  0  0  0  0  0  0  0  0999 V2000
  208.8499  138.9781  133.4059 C   0  0  0  0  0  0  0  0  0  0  0  0
  207.5372  139.4012  133.5903 O   0  0  0  0  0  0  0  0  0  0  0  0
  206.4193  138.6373  133.3105 C   0  0  0  0  0  0  0  0  0  0  0  0
  205.1588  139.2210  133.1278 C   0  0  0  0  0  0  0  0  0  0  0  0
  204.0506  138.4614  132.8482 C   0  0  0  0  0  0  0  0  0  0  0  0
  204.2306  137.1051  132.7524 C   0  0  0  0  0  0  0  0  0  0  0  0
  202.9987  136.3800  132.4050 C   0  0  0  0  0  0  0  0  0  0  0  0
  202.0880  136.9285  131.5591 C   0  0  0  0  0  0  0  0  0  0  0  0
  202.2391  138.1038  130.7260 C   0  0  0  0  0  0  0  0  0  0  0  0
  201.9660  137.6405  129.2436 C   0  0  0  0  0  0  0  0  0  0  0  0
  201.8238  138.8954  128.4487 C   0  0  0  0  0  0  0  0  0  0  0  0
  202.5757  140.0829  129.0070 C   0  0  0  0  0  0  0  0  0  0  0  0
  202.1452  140.4689  130.4045 C   0  0  0  0  0  0  0  0  0  0  0  0
  201.3223  139.2434  130.8922 C   0  0  0  0  0  0  0  0  0  0  0  0
  201.0517  135.9965  131.5718 C   0  0  0  0  0  0  0  0  0  0  0  0
  199.8750  136.1080  130.8696 C   0  0  0  0  0  0  0  0  0  0  0  0
  198.9925  135.0717  131.0281 C   0  0  0  0  0  0  0  0  0  0  0  0
  199.2611  133.9482  131.8606 C   0  0  0  0  0  0  0  0  0  0  0  0
  200.4519  133.8618  132.5616 C   0  0  0  0  0  0  0  0  0  0  0  0
  201.3528  134.9062  132.4058 C   0  0  0  0  0  0  0  0  0  0  0  0
  202.5552  135.1717  132.8994 N   0  0  0  0  0  0  0  0  0  0  0  0
  203.4270  134.4074  133.7831 C   0  0  0  0  0  0  0  0  0  0  0  0
  204.8073  134.1403  133.3205 C   0  0  0  0  0  0  0  0  0  0  0  0
  205.7423  135.0523  132.9634 C   0  0  0  0  0  0  0  0  0  0  0  0
  205.4698  136.4875  132.9335 C   0  0  0  0  0  0  0  0  0  0  0  0
  206.5728  137.2710  133.2137 C   0  0  0  0  0  0  0  0  0  0  0  0
  205.4541  132.8397  133.2316 C   0  0  0  0  0  0  0  0  0  0  0  0
  206.6416  132.8387  133.8022 O   0  0  0  0  0  0  0  0  0  0  0  0
  205.0801  131.6260  132.6796 N   0  0  0  0  0  0  0  0  0  0  0  0
  204.9830  130.4581  133.5879 C   0  0  0  0  0  0  0  0  0  0  0  0
  204.7869  131.2967  131.2985 C   0  0  0  0  0  0  0  0  0  0  0  0
  203.3354  131.0525  131.1140 C   0  0  0  0  0  0  0  0  0  0  0  0
  202.8779  129.7729  131.2158 O   0  0  0  0  0  0  0  0  0  0  0  0
  202.1299  129.4410  130.1032 C   0  0  0  0  0  0  0  0  0  0  0  0
  200.8852  128.6566  130.3622 C   0  0  0  0  0  0  0  0  0  0  0  0
  199.6522  129.4435  130.2285 N   0  0  0  0  0  0  0  0  0  0  0  0
  198.5251  128.6637  130.7055 C   0  0  0  0  0  0  0  0  0  0  0  0
  199.7435  130.8592  131.2013 S   0  0  0  0  0  6  0  0  0  0  0  0
  200.4312  130.4766  132.4522 O   0  0  0  0  0  0  0  0  0  0  0  0
  200.4617  131.9688  130.4286 O   0  0  0  0  0  0  0  0  0  0  0  0
  198.1864  131.5821  131.5168 N   0  0  0  0  0  0  0  0  0  0  0  0
  198.1326  133.0027  131.7482 C   0  0  0  0  0  0  0  0  0  0  0  0
  196.9239  133.4292  131.8550 O   0  0  0  0  0  0  0  0  0  0  0  0
  1  2  1  0
  2  3  1  0
  3  4  2  0
  4  5  1  0
  5  6  2  0
  6  7  1  0
  7  8  2  0
  8  9  1  0
  9 10  1  0
 10 11  1  0
 11 12  1  0
 12 13  1  0
 13 14  1  0
  8 15  1  0
 15 16  2  0
 16 17  1  0
 17 18  2  0
 18 19  1  0
 19 20  2  0
 20 21  1  0
 21 22  1  0
 22 23  1  0
 23 24  2  0
 24 25  1  0
 25 26  2  0
 23 27  1  0
 27 28  2  0
 27 29  1  0
 29 30  1  0
 29 31  1  0
 31 32  1  0
 32 33  1  0
 33 34  1  0
 34 35  1  0
 35 36  1  0
 36 37  1  0
 36 38  1  0
 38 39  2  0
 38 40  2  0
 38 41  1  0
 41 42  1  0
 42 43  2  0
 26  3  1  0
 25  6  1  0
 21  7  1  0
 14  9  1  0
 20 15  1  0
 42 18  1  0
M  END
$$$$
