
     RDKit          3D

 43 48  0  0  0  0  0  0  0  0999 V2000
  127.6402  144.5395  127.9306 C   0  0  0  0  0  0  0  0  0  0  0  0
  127.7198  145.0928  129.2050 O   0  0  0  0  0  0  0  0  0  0  0  0
  127.9850  144.3760  130.3571 C   0  0  0  0  0  0  0  0  0  0  0  0
  129.0005  144.7601  131.2426 C   0  0  0  0  0  0  0  0  0  0  0  0
  129.2611  144.0485  132.3867 C   0  0  0  0  0  0  0  0  0  0  0  0
  128.4823  142.9456  132.6278 C   0  0  0  0  0  0  0  0  0  0  0  0
  128.8036  142.2753  133.8972 C   0  0  0  0  0  0  0  0  0  0  0  0
  129.1800  142.9970  134.9850 C   0  0  0  0  0  0  0  0  0  0  0  0
  129.1140  144.4322  135.1697 C   0  0  0  0  0  0  0  0  0  0  0  0
  130.5259  145.0022  134.7596 C   0  0  0  0  0  0  0  0  0  0  0  0
  130.3507  146.4809  134.6615 C   0  0  0  0  0  0  0  0  0  0  0  0
  129.2572  147.0450  135.5407 C   0  0  0  0  0  0  0  0  0  0  0  0
  127.8869  146.4803  135.2392 C   0  0  0  0  0  0  0  0  0  0  0  0
  128.1835  145.2340  134.3586 C   0  0  0  0  0  0  0  0  0  0  0  0
  129.4844  142.0108  135.9218 C   0  0  0  0  0  0  0  0  0  0  0  0
  129.9326  142.2419  137.2007 C   0  0  0  0  0  0  0  0  0  0  0  0
  130.1701  141.1223  137.9544 C   0  0  0  0  0  0  0  0  0  0  0  0
  129.9712  139.8016  137.4606 C   0  0  0  0  0  0  0  0  0  0  0  0
  129.5237  139.5953  136.1668 C   0  0  0  0  0  0  0  0  0  0  0  0
  129.2788  140.7236  135.3965 C   0  0  0  0  0  0  0  0  0  0  0  0
  128.8590  140.9216  134.1537 N   0  0  0  0  0  0  0  0  0  0  0  0
  128.4358  139.9885  133.1168 C   0  0  0  0  0  0  0  0  0  0  0  0
  127.1046  140.2011  132.5057 C   0  0  0  0  0  0  0  0  0  0  0  0
  126.6612  141.3144  131.8752 C   0  0  0  0  0  0  0  0  0  0  0  0
  127.4655  142.5293  131.7660 C   0  0  0  0  0  0  0  0  0  0  0  0
  127.2193  143.2605  130.6198 C   0  0  0  0  0  0  0  0  0  0  0  0
  126.0348  139.2204  132.3982 C   0  0  0  0  0  0  0  0  0  0  0  0
  125.5519  139.1485  131.1745 O   0  0  0  0  0  0  0  0  0  0  0  0
  125.4341  138.3633  133.3049 N   0  0  0  0  0  0  0  0  0  0  0  0
  125.5099  136.9083  133.0302 C   0  0  0  0  0  0  0  0  0  0  0  0
  124.6892  138.6754  134.5089 C   0  0  0  0  0  0  0  0  0  0  0  0
  125.4680  138.3100  135.7173 C   0  0  0  0  0  0  0  0  0  0  0  0
  125.2740  137.0759  136.2619 O   0  0  0  0  0  0  0  0  0  0  0  0
  124.9949  137.1850  137.6101 C   0  0  0  0  0  0  0  0  0  0  0  0
  125.6500  136.1774  138.4972 C   0  0  0  0  0  0  0  0  0  0  0  0
  126.7649  136.7194  139.2849 N   0  0  0  0  0  0  0  0  0  0  0  0
  127.4678  135.6330  139.9419 C   0  0  0  0  0  0  0  0  0  0  0  0
  127.8922  137.5082  138.2525 S   0  0  0  0  0  6  0  0  0  0  0  0
  127.9766  136.7042  137.0154 O   0  0  0  0  0  0  0  0  0  0  0  0
  127.4440  138.9517  138.0090 O   0  0  0  0  0  0  0  0  0  0  0  0
  129.4609  137.7310  138.9849 N   0  0  0  0  0  0  0  0  0  0  0  0
  130.2603  138.8471  138.5493 C   0  0  0  0  0  0  0  0  0  0  0  0
  131.3385  138.9678  139.2402 O   0  0  0  0  0  0  0  0  0  0  0  0
  1  2  1  0
  2  3  1  0
  3  4  2  0
  4  5  1  0
  5  6  2  0
  6  7  1  0
  7  8  2  0
  8  9  1  0
  9 10  1  0
 10 11  1  0
 11 12  1  0
 12 13  1  0
 13 14  1  0
  8 15  1  0
 15 16  2  0
 16 17  1  0
 17 18  2  0
 18 19  1  0
 19 20  2  0
 20 21  1  0
 21 22  1  0
 22 23  1  0
 23 24  2  0
 24 25  1  0
 25 26  2  0
 23 27  1  0
 27 28  2  0
 27 29  1  0
 29 30  1  0
 29 31  1  0
 31 32  1  0
 32 33  1  0
 33 34  1  0
 34 35  1  0
 35 36  1  0
 36 37  1  0
 36 38  1  0
 38 39  2  0
 38 40  2  0
 38 41  1  0
 41 42  1  0
 42 43  2  0
 26  3  1  0
 25  6  1  0
 21  7  1  0
 14  9  1  0
 20 15  1  0
 42 18  1  0
M  END
$$$$
