
 OpenBabel01122422453D

 42 45  0  0  0  0  0  0  0  0999 V2000
    0.9424   -0.0566   -0.0590 N   0  0  0  0  0  0  0  0  0  0  0  0
    2.2034   -0.0566   -0.0590 C   0  0  0  0  0  0  0  0  0  0  0  0
    3.7234   -0.0566   -0.0590 C   0  0  0  0  0  0  0  0  0  0  0  0
    4.4162    1.1179   -0.0763 C   0  0  0  0  0  0  0  0  0  0  0  0
    3.8153    2.3872   -0.2202 N   0  0  0  0  0  0  0  0  0  0  0  0
    4.4415    3.6376   -0.2451 C   0  0  0  0  0  0  0  0  0  0  0  0
    5.6455    3.8377   -0.1144 O   0  0  0  0  0  0  0  0  0  0  0  0
    3.5233    4.8269   -0.4214 C   0  0  0  0  0  0  0  0  0  0  0  0
    4.0944    6.0446   -0.4194 C   0  0  0  0  0  0  0  0  0  0  0  0
    3.2495    7.2485   -0.4667 C   0  0  0  0  0  0  0  0  0  0  0  0
    3.7347    8.3682   -0.5255 O   0  0  0  0  0  0  0  0  0  0  0  0
    1.8009    7.0220   -0.3953 C   0  0  0  0  0  0  0  0  0  0  0  0
    0.9203    8.0945   -0.2232 C   0  0  0  0  0  0  0  0  0  0  0  0
   -0.4404    7.8318   -0.1410 C   0  0  0  0  0  0  0  0  0  0  0  0
   -1.2952    8.8388    0.0752 F   0  0  0  0  0  0  0  0  0  0  0  0
   -0.9276    6.5333   -0.2588 C   0  0  0  0  0  0  0  0  0  0  0  0
   -0.0411    5.4675   -0.4348 C   0  0  0  0  0  0  0  0  0  0  0  0
    1.3273    5.7054   -0.4710 C   0  0  0  0  0  0  0  0  0  0  0  0
    2.1590    4.6111   -0.5450 O   0  0  0  0  0  0  0  0  0  0  0  0
    5.8568    1.0270    0.0774 C   0  0  0  0  0  0  0  0  0  0  0  0
    6.4842   -0.1491    0.1234 C   0  0  0  0  0  0  0  0  0  0  0  0
    5.8012   -1.3481    0.0671 N   0  0  0  0  0  0  0  0  0  0  0  0
    6.5171   -2.5783   -0.0127 C   0  0  0  0  0  0  0  0  0  0  0  0
    7.5769   -2.7042   -0.9211 C   0  0  0  0  0  0  0  0  0  0  0  0
    8.2115   -3.9330   -1.0910 C   0  0  0  0  0  0  0  0  0  0  0  0
    7.8219   -5.0283   -0.3224 C   0  0  0  0  0  0  0  0  0  0  0  0
    6.8017   -4.8975    0.6180 C   0  0  0  0  0  0  0  0  0  0  0  0
    6.1433   -3.6782    0.7660 C   0  0  0  0  0  0  0  0  0  0  0  0
    4.3981   -1.3820    0.0072 C   0  0  0  0  0  0  0  0  0  0  0  0
    3.7089   -2.3985   -0.0595 O   0  0  0  0  0  0  0  0  0  0  0  0
    2.8067    2.4180   -0.3500 H   0  0  0  0  0  0  0  0  0  0  0  0
    5.1626    6.2153   -0.3447 H   0  0  0  0  0  0  0  0  0  0  0  0
    1.2801    9.1141   -0.1358 H   0  0  0  0  0  0  0  0  0  0  0  0
   -1.9979    6.3575   -0.1960 H   0  0  0  0  0  0  0  0  0  0  0  0
   -0.4237    4.4537   -0.5191 H   0  0  0  0  0  0  0  0  0  0  0  0
    6.4730    1.9086    0.1946 H   0  0  0  0  0  0  0  0  0  0  0  0
    7.5629   -0.1898    0.2578 H   0  0  0  0  0  0  0  0  0  0  0  0
    7.8660   -1.8726   -1.5591 H   0  0  0  0  0  0  0  0  0  0  0  0
    8.9901   -4.0413   -1.8411 H   0  0  0  0  0  0  0  0  0  0  0  0
    8.3053   -5.9903   -0.4655 H   0  0  0  0  0  0  0  0  0  0  0  0
    6.5015   -5.7483    1.2231 H   0  0  0  0  0  0  0  0  0  0  0  0
    5.3437   -3.5943    1.4982 H   0  0  0  0  0  0  0  0  0  0  0  0
  1  2  3  0  0  0  0
  2  3  1  0  0  0  0
  3  4  2  0  0  0  0
  3 29  1  0  0  0  0
  4  5  1  0  0  0  0
  4 20  1  0  0  0  0
  5  6  1  0  0  0  0
  5 31  1  0  0  0  0
  6  7  2  0  0  0  0
  6  8  1  0  0  0  0
  8  9  2  0  0  0  0
  8 19  1  0  0  0  0
  9 10  1  0  0  0  0
  9 32  1  0  0  0  0
 10 11  2  0  0  0  0
 10 12  1  0  0  0  0
 12 13  2  0  0  0  0
 12 18  1  0  0  0  0
 13 14  1  0  0  0  0
 13 33  1  0  0  0  0
 14 15  1  0  0  0  0
 14 16  2  0  0  0  0
 16 17  1  0  0  0  0
 16 34  1  0  0  0  0
 17 18  2  0  0  0  0
 17 35  1  0  0  0  0
 18 19  1  0  0  0  0
 20 21  2  0  0  0  0
 20 36  1  0  0  0  0
 21 22  1  0  0  0  0
 21 37  1  0  0  0  0
 22 23  1  0  0  0  0
 22 29  1  0  0  0  0
 23 24  2  0  0  0  0
 23 28  1  0  0  0  0
 24 25  1  0  0  0  0
 24 38  1  0  0  0  0
 25 26  2  0  0  0  0
 25 39  1  0  0  0  0
 26 27  1  0  0  0  0
 26 40  1  0  0  0  0
 27 28  2  0  0  0  0
 27 41  1  0  0  0  0
 28 42  1  0  0  0  0
 29 30  2  0  0  0  0
M  END
$$$$
