
 OpenBabel01122422453D

 47 50  0  0  0  0  0  0  0  0999 V2000
    1.0404    0.0672   -0.0062 O   0  0  0  0  0  0  0  0  0  0  0  0
    2.2552   -0.0996   -0.0002 C   0  0  0  0  0  0  0  0  0  0  0  0
    2.9428   -1.1512    0.5855 N   0  0  0  0  0  0  0  0  0  0  0  0
    2.3251   -2.2394    1.2444 C   0  0  0  0  0  0  0  0  0  0  0  0
    0.9723   -2.5418    1.0866 C   0  0  0  0  0  0  0  0  0  0  0  0
    0.3746   -3.5744    1.8103 C   0  0  0  0  0  0  0  0  0  0  0  0
    1.1204   -4.3471    2.7061 C   0  0  0  0  0  0  0  0  0  0  0  0
    0.4483   -5.3736    3.5007 C   0  0  0  0  0  0  0  0  0  0  0  0
   -0.6330   -6.1079    3.1800 C   0  0  0  0  0  0  0  0  0  0  0  0
   -0.9603   -6.9043    4.2460 N   0  0  0  0  0  0  0  0  0  0  0  0
   -0.0596   -6.6659    5.2906 C   0  0  0  0  0  0  0  0  0  0  0  0
   -0.0560   -7.1695    6.3977 O   0  0  0  0  0  0  0  0  0  0  0  0
    0.8229   -5.7085    4.7810 N   0  0  0  0  0  0  0  0  0  0  0  0
    2.4898   -4.0740    2.8341 C   0  0  0  0  0  0  0  0  0  0  0  0
    3.0911   -3.0373    2.0996 C   0  0  0  0  0  0  0  0  0  0  0  0
    3.0693    0.9569   -0.6465 C   0  0  0  0  0  0  0  0  0  0  0  0
    2.5886    2.2732   -0.5817 C   0  0  0  0  0  0  0  0  0  0  0  0
    3.2236    3.2923   -1.2895 C   0  0  0  0  0  0  0  0  0  0  0  0
    4.3406    2.9995   -2.0769 C   0  0  0  0  0  0  0  0  0  0  0  0
    4.9328    4.0983   -2.8884 C   0  0  0  0  0  0  0  0  0  0  0  0
    4.8409    5.2559   -2.4895 O   0  0  0  0  0  0  0  0  0  0  0  0
    5.6337    3.8236   -4.1701 C   0  0  0  0  0  0  0  0  0  0  0  0
    5.2486    2.7692   -5.0094 C   0  0  0  0  0  0  0  0  0  0  0  0
    5.9942    2.5013   -6.1520 C   0  0  0  0  0  0  0  0  0  0  0  0
    5.6956    1.4457   -6.9615 O   0  0  0  0  0  0  0  0  0  0  0  0
    7.0803    3.2969   -6.4983 C   0  0  0  0  0  0  0  0  0  0  0  0
    7.4262    4.3851   -5.6974 C   0  0  0  0  0  0  0  0  0  0  0  0
    6.7038    4.6503   -4.5332 C   0  0  0  0  0  0  0  0  0  0  0  0
    4.8586    1.6937   -2.0906 C   0  0  0  0  0  0  0  0  0  0  0  0
    4.2129    0.6662   -1.3941 C   0  0  0  0  0  0  0  0  0  0  0  0
    3.9445   -1.0597    0.6950 H   0  0  0  0  0  0  0  0  0  0  0  0
    0.3370   -1.9866    0.4040 H   0  0  0  0  0  0  0  0  0  0  0  0
   -0.6906   -3.7363    1.6784 H   0  0  0  0  0  0  0  0  0  0  0  0
   -1.2134   -6.1135    2.2700 H   0  0  0  0  0  0  0  0  0  0  0  0
   -1.7390   -7.5409    4.3151 H   0  0  0  0  0  0  0  0  0  0  0  0
    1.5619   -5.2936    5.3234 H   0  0  0  0  0  0  0  0  0  0  0  0
    3.1067   -4.6630    3.5091 H   0  0  0  0  0  0  0  0  0  0  0  0
    4.1521   -2.8476    2.2401 H   0  0  0  0  0  0  0  0  0  0  0  0
    1.6953    2.4997   -0.0010 H   0  0  0  0  0  0  0  0  0  0  0  0
    2.8239    4.3042   -1.2475 H   0  0  0  0  0  0  0  0  0  0  0  0
    4.3823    2.1609   -4.7716 H   0  0  0  0  0  0  0  0  0  0  0  0
    4.9116    0.9870   -6.6171 H   0  0  0  0  0  0  0  0  0  0  0  0
    7.6511    3.0749   -7.3960 H   0  0  0  0  0  0  0  0  0  0  0  0
    8.2623    5.0214   -5.9758 H   0  0  0  0  0  0  0  0  0  0  0  0
    6.9814    5.4953   -3.9054 H   0  0  0  0  0  0  0  0  0  0  0  0
    5.7518    1.4534   -2.6626 H   0  0  0  0  0  0  0  0  0  0  0  0
    4.5809   -0.3520   -1.4895 H   0  0  0  0  0  0  0  0  0  0  0  0
  1  2  2  0  0  0  0
  2  3  1  0  0  0  0
  2 16  1  0  0  0  0
  3  4  1  0  0  0  0
  3 31  1  0  0  0  0
  4  5  2  0  0  0  0
  4 15  1  0  0  0  0
  5  6  1  0  0  0  0
  5 32  1  0  0  0  0
  6  7  2  0  0  0  0
  6 33  1  0  0  0  0
  7  8  1  0  0  0  0
  7 14  1  0  0  0  0
  8  9  2  0  0  0  0
  8 13  1  0  0  0  0
  9 10  1  0  0  0  0
  9 34  1  0  0  0  0
 10 11  1  0  0  0  0
 10 35  1  0  0  0  0
 11 12  2  0  0  0  0
 11 13  1  0  0  0  0
 13 36  1  0  0  0  0
 14 15  2  0  0  0  0
 14 37  1  0  0  0  0
 15 38  1  0  0  0  0
 16 17  2  0  0  0  0
 16 30  1  0  0  0  0
 17 18  1  0  0  0  0
 17 39  1  0  0  0  0
 18 19  2  0  0  0  0
 18 40  1  0  0  0  0
 19 20  1  0  0  0  0
 19 29  1  0  0  0  0
 20 21  2  0  0  0  0
 20 22  1  0  0  0  0
 22 23  2  0  0  0  0
 22 28  1  0  0  0  0
 23 24  1  0  0  0  0
 23 41  1  0  0  0  0
 24 25  1  0  0  0  0
 24 26  2  0  0  0  0
 25 42  1  0  0  0  0
 26 27  1  0  0  0  0
 26 43  1  0  0  0  0
 27 28  2  0  0  0  0
 27 44  1  0  0  0  0
 28 45  1  0  0  0  0
 29 30  2  0  0  0  0
 29 46  1  0  0  0  0
 30 47  1  0  0  0  0
M  END
$$$$
