
 OpenBabel01122422463D

 50 53  0  0  0  0  0  0  0  0999 V2000
    3.1258    3.4083    0.3136 N   0  0  0  0  0  0  0  0  0  0  0  0
    2.6110    2.1600    0.4947 C   0  0  0  0  0  0  0  0  0  0  0  0
    1.3902    2.0084    0.5256 O   0  0  0  0  0  0  0  0  0  0  0  0
    3.5840    1.0198    0.8479 C   0  0  0  0  0  0  0  0  0  0  0  0
    4.9644    1.0399    0.3231 N   0  0  0  0  0  0  0  0  0  0  0  0
    5.3457   -0.0882   -0.5181 C   0  0  0  0  0  0  0  0  0  0  0  0
    5.1707    0.0982   -2.0043 C   0  0  0  0  0  0  0  0  0  0  0  0
    6.1735    0.6836   -2.7849 C   0  0  0  0  0  0  0  0  0  0  0  0
    6.0998    0.6614   -4.1869 C   0  0  0  0  0  0  0  0  0  0  0  0
    5.0270    0.0534   -4.8623 C   0  0  0  0  0  0  0  0  0  0  0  0
    4.9954   -0.0681   -6.3450 C   0  0  0  0  0  0  0  0  0  0  0  0
    6.1741   -0.2218   -7.1015 C   0  0  0  0  0  0  0  0  0  0  0  0
    6.1411   -0.3646   -8.4948 C   0  0  0  0  0  0  0  0  0  0  0  0
    4.9256   -0.3714   -9.1679 C   0  0  0  0  0  0  0  0  0  0  0  0
    3.7427   -0.2241   -8.4498 C   0  0  0  0  0  0  0  0  0  0  0  0
    3.7815   -0.0683   -7.0593 C   0  0  0  0  0  0  0  0  0  0  0  0
    3.9973   -0.4708   -4.0599 C   0  0  0  0  0  0  0  0  0  0  0  0
    4.0584   -0.4395   -2.6588 C   0  0  0  0  0  0  0  0  0  0  0  0
    5.8344    1.9743    0.8865 C   0  0  0  0  0  0  0  0  0  0  0  0
    5.3736    2.8482    1.6290 O   0  0  0  0  0  0  0  0  0  0  0  0
    7.2512    2.0359    0.5757 C   0  0  0  0  0  0  0  0  0  0  0  0
    8.2733    1.1190    0.3857 C   0  0  0  0  0  0  0  0  0  0  0  0
    9.5090    1.8258    0.2574 C   0  0  0  0  0  0  0  0  0  0  0  0
   10.8519    1.4410    0.0834 C   0  0  0  0  0  0  0  0  0  0  0  0
   11.8351    2.4331    0.0724 C   0  0  0  0  0  0  0  0  0  0  0  0
   13.1194    2.0773   -0.0699 F   0  0  0  0  0  0  0  0  0  0  0  0
   11.5210    3.7787    0.2193 C   0  0  0  0  0  0  0  0  0  0  0  0
   10.1939    4.1818    0.3747 C   0  0  0  0  0  0  0  0  0  0  0  0
    9.2174    3.1793    0.3904 C   0  0  0  0  0  0  0  0  0  0  0  0
    7.8618    3.2770    0.5596 N   0  0  0  0  0  0  0  0  0  0  0  0
    2.4449    4.1562    0.2980 H   0  0  0  0  0  0  0  0  0  0  0  0
    4.0018    3.6154    0.7899 H   0  0  0  0  0  0  0  0  0  0  0  0
    3.0925    0.0997    0.5110 H   0  0  0  0  0  0  0  0  0  0  0  0
    3.6440    0.9745    1.9426 H   0  0  0  0  0  0  0  0  0  0  0  0
    4.7778   -0.9693   -0.1921 H   0  0  0  0  0  0  0  0  0  0  0  0
    6.3756   -0.3828   -0.3349 H   0  0  0  0  0  0  0  0  0  0  0  0
    7.0529    1.1216   -2.3190 H   0  0  0  0  0  0  0  0  0  0  0  0
    6.9174    1.1122   -4.7461 H   0  0  0  0  0  0  0  0  0  0  0  0
    7.1457   -0.2525   -6.6128 H   0  0  0  0  0  0  0  0  0  0  0  0
    7.0692   -0.4807   -9.0505 H   0  0  0  0  0  0  0  0  0  0  0  0
    4.8977   -0.4902  -10.2474 H   0  0  0  0  0  0  0  0  0  0  0  0
    2.7880   -0.2331   -8.9678 H   0  0  0  0  0  0  0  0  0  0  0  0
    2.8353    0.0583   -6.5387 H   0  0  0  0  0  0  0  0  0  0  0  0
    3.1401   -0.9618   -4.5160 H   0  0  0  0  0  0  0  0  0  0  0  0
    3.2481   -0.8941   -2.0925 H   0  0  0  0  0  0  0  0  0  0  0  0
    8.1967    0.0413    0.4048 H   0  0  0  0  0  0  0  0  0  0  0  0
   11.1372    0.3998   -0.0210 H   0  0  0  0  0  0  0  0  0  0  0  0
   12.3186    4.5158    0.2208 H   0  0  0  0  0  0  0  0  0  0  0  0
    9.9369    5.2290    0.4983 H   0  0  0  0  0  0  0  0  0  0  0  0
    7.3610    4.1400    0.7219 H   0  0  0  0  0  0  0  0  0  0  0  0
  1  2  1  0  0  0  0
  1 31  1  0  0  0  0
  1 32  1  0  0  0  0
  2  3  2  0  0  0  0
  2  4  1  0  0  0  0
  4  5  1  0  0  0  0
  4 33  1  0  0  0  0
  4 34  1  0  0  0  0
  5  6  1  0  0  0  0
  5 19  1  0  0  0  0
  6  7  1  0  0  0  0
  6 35  1  0  0  0  0
  6 36  1  0  0  0  0
  7  8  2  0  0  0  0
  7 18  1  0  0  0  0
  8  9  1  0  0  0  0
  8 37  1  0  0  0  0
  9 10  2  0  0  0  0
  9 38  1  0  0  0  0
 10 11  1  0  0  0  0
 10 17  1  0  0  0  0
 11 12  2  0  0  0  0
 11 16  1  0  0  0  0
 12 13  1  0  0  0  0
 12 39  1  0  0  0  0
 13 14  2  0  0  0  0
 13 40  1  0  0  0  0
 14 15  1  0  0  0  0
 14 41  1  0  0  0  0
 15 16  2  0  0  0  0
 15 42  1  0  0  0  0
 16 43  1  0  0  0  0
 17 18  2  0  0  0  0
 17 44  1  0  0  0  0
 18 45  1  0  0  0  0
 19 20  2  0  0  0  0
 19 21  1  0  0  0  0
 21 22  2  0  0  0  0
 21 30  1  0  0  0  0
 22 23  1  0  0  0  0
 22 46  1  0  0  0  0
 23 24  2  0  0  0  0
 23 29  1  0  0  0  0
 24 25  1  0  0  0  0
 24 47  1  0  0  0  0
 25 26  1  0  0  0  0
 25 27  2  0  0  0  0
 27 28  1  0  0  0  0
 27 48  1  0  0  0  0
 28 29  2  0  0  0  0
 28 49  1  0  0  0  0
 29 30  1  0  0  0  0
 30 50  1  0  0  0  0
M  END
$$$$
