
 OpenBabel01122422463D

 44 47  0  0  0  0  0  0  0  0999 V2000
    5.4084   -1.7523   -1.1731 O   0  0  0  0  0  0  0  0  0  0  0  0
    4.3825   -1.4473   -1.7630 C   0  0  0  0  0  0  0  0  0  0  0  0
    3.7914   -0.2327   -1.7660 O   0  0  0  0  0  0  0  0  0  0  0  0
    4.4267    0.7749   -0.9813 C   0  0  0  0  0  0  0  0  0  0  0  0
    4.7732    1.9616   -1.8437 C   0  0  0  0  0  0  0  0  0  0  0  0
    4.0932    3.1589   -1.6551 C   0  0  0  0  0  0  0  0  0  0  0  0
    4.4579    4.2832   -2.3854 C   0  0  0  0  0  0  0  0  0  0  0  0
    5.5465    4.2890   -3.2877 C   0  0  0  0  0  0  0  0  0  0  0  0
    5.9726    5.6046   -3.8270 C   0  0  0  0  0  0  0  0  0  0  0  0
    5.8994    6.7005   -2.9348 C   0  0  0  0  0  0  0  0  0  0  0  0
    5.9965    8.0136   -3.3582 C   0  0  0  0  0  0  0  0  0  0  0  0
    6.3125    8.2561   -4.6774 C   0  0  0  0  0  0  0  0  0  0  0  0
    6.3841    9.6015   -5.0368 O   0  0  0  0  0  0  0  0  0  0  0  0
    7.0492    9.9484   -6.2022 C   0  0  0  0  0  0  0  0  0  0  0  0
    7.2997   11.1154   -6.4673 O   0  0  0  0  0  0  0  0  0  0  0  0
    7.4069    8.9190   -7.0324 N   0  0  0  0  0  0  0  0  0  0  0  0
    7.1376    7.5804   -6.8596 C   0  0  0  0  0  0  0  0  0  0  0  0
    7.3933    6.7454   -7.7150 O   0  0  0  0  0  0  0  0  0  0  0  0
    6.5745    7.2106   -5.5531 C   0  0  0  0  0  0  0  0  0  0  0  0
    6.3750    5.8726   -5.1484 C   0  0  0  0  0  0  0  0  0  0  0  0
    6.1798    3.0652   -3.5258 C   0  0  0  0  0  0  0  0  0  0  0  0
    5.7914    1.9114   -2.8113 C   0  0  0  0  0  0  0  0  0  0  0  0
    3.5290   -2.4432   -2.4538 C   0  0  0  0  0  0  0  0  0  0  0  0
    3.5357   -3.7489   -1.9376 C   0  0  0  0  0  0  0  0  0  0  0  0
    2.7214   -4.7344   -2.4966 C   0  0  0  0  0  0  0  0  0  0  0  0
    1.8940   -4.4219   -3.5732 C   0  0  0  0  0  0  0  0  0  0  0  0
    1.9036   -3.1349   -4.1148 C   0  0  0  0  0  0  0  0  0  0  0  0
    2.7324   -2.1518   -3.5675 C   0  0  0  0  0  0  0  0  0  0  0  0
    2.7784   -0.9207   -4.1579 O   0  0  0  0  0  0  0  0  0  0  0  0
    5.3203    0.4363   -0.4453 H   0  0  0  0  0  0  0  0  0  0  0  0
    3.7031    1.0708   -0.2107 H   0  0  0  0  0  0  0  0  0  0  0  0
    3.2944    3.2451   -0.9229 H   0  0  0  0  0  0  0  0  0  0  0  0
    3.8939    5.1967   -2.2026 H   0  0  0  0  0  0  0  0  0  0  0  0
    5.7161    6.5278   -1.8750 H   0  0  0  0  0  0  0  0  0  0  0  0
    5.8403    8.8290   -2.6601 H   0  0  0  0  0  0  0  0  0  0  0  0
    7.8842    9.1966   -7.8784 H   0  0  0  0  0  0  0  0  0  0  0  0
    6.5197    5.0653   -5.8661 H   0  0  0  0  0  0  0  0  0  0  0  0
    7.0062    2.9881   -4.2289 H   0  0  0  0  0  0  0  0  0  0  0  0
    6.3129    0.9714   -2.9877 H   0  0  0  0  0  0  0  0  0  0  0  0
    4.1731   -3.9984   -1.0909 H   0  0  0  0  0  0  0  0  0  0  0  0
    2.7302   -5.7421   -2.0881 H   0  0  0  0  0  0  0  0  0  0  0  0
    1.2474   -5.1858   -3.9988 H   0  0  0  0  0  0  0  0  0  0  0  0
    1.2619   -2.9182   -4.9639 H   0  0  0  0  0  0  0  0  0  0  0  0
    2.2177   -0.9135   -4.9502 H   0  0  0  0  0  0  0  0  0  0  0  0
  1  2  2  0  0  0  0
  2  3  1  0  0  0  0
  2 23  1  0  0  0  0
  3  4  1  0  0  0  0
  4  5  1  0  0  0  0
  4 30  1  0  0  0  0
  4 31  1  0  0  0  0
  5  6  2  0  0  0  0
  5 22  1  0  0  0  0
  6  7  1  0  0  0  0
  6 32  1  0  0  0  0
  7  8  2  0  0  0  0
  7 33  1  0  0  0  0
  8  9  1  0  0  0  0
  8 21  1  0  0  0  0
  9 10  2  0  0  0  0
  9 20  1  0  0  0  0
 10 11  1  0  0  0  0
 10 34  1  0  0  0  0
 11 12  2  0  0  0  0
 11 35  1  0  0  0  0
 12 13  1  0  0  0  0
 12 19  1  0  0  0  0
 13 14  1  0  0  0  0
 14 15  2  0  0  0  0
 14 16  1  0  0  0  0
 16 17  1  0  0  0  0
 16 36  1  0  0  0  0
 17 18  2  0  0  0  0
 17 19  1  0  0  0  0
 19 20  2  0  0  0  0
 20 37  1  0  0  0  0
 21 22  2  0  0  0  0
 21 38  1  0  0  0  0
 22 39  1  0  0  0  0
 23 24  2  0  0  0  0
 23 28  1  0  0  0  0
 24 25  1  0  0  0  0
 24 40  1  0  0  0  0
 25 26  2  0  0  0  0
 25 41  1  0  0  0  0
 26 27  1  0  0  0  0
 26 42  1  0  0  0  0
 27 28  2  0  0  0  0
 27 43  1  0  0  0  0
 28 29  1  0  0  0  0
 29 44  1  0  0  0  0
M  END
$$$$
