
 OpenBabel01122422463D

 57 60  0  0  1  0  0  0  0  0999 V2000
    4.6189    3.7197    0.7125 C   0  0  0  0  0  0  0  0  0  0  0  0
    5.2940    2.5240    1.1069 O   0  0  0  0  0  0  0  0  0  0  0  0
    6.5804    2.7159    1.4976 C   0  0  0  0  0  0  0  0  0  0  0  0
    7.1351    3.7919    1.5978 O   0  0  0  0  0  0  0  0  0  0  0  0
    7.2403    1.4080    1.7351 C   0  0  0  0  0  0  0  0  0  0  0  0
    6.9241    0.3610    0.8419 C   0  0  0  0  0  0  0  0  0  0  0  0
    7.6640   -0.8290    0.8074 C   0  0  0  0  0  0  0  0  0  0  0  0
    7.3763   -1.9471   -0.1817 C   0  0  2  0  0  0  0  0  0  0  0  0
    6.8061   -1.4840   -1.5259 C   0  0  0  0  0  0  0  0  0  0  0  0
    6.4751   -2.9055    0.4283 N   0  0  0  0  0  0  0  0  0  0  0  0
    6.8302   -4.2231    0.6079 C   0  0  0  0  0  0  0  0  0  0  0  0
    7.8968   -4.7017    0.2413 O   0  0  0  0  0  0  0  0  0  0  0  0
    5.8342   -5.0908    1.2862 C   0  0  0  0  0  0  0  0  0  0  0  0
    5.7971   -6.4522    0.9720 C   0  0  0  0  0  0  0  0  0  0  0  0
    4.8709   -7.2973    1.5985 C   0  0  0  0  0  0  0  0  0  0  0  0
    3.9933   -6.8193    2.5889 C   0  0  0  0  0  0  0  0  0  0  0  0
    3.0128   -7.7141    3.2739 C   0  0  0  0  0  0  0  0  0  0  0  0
    3.4056   -9.0355    3.5966 C   0  0  0  0  0  0  0  0  0  0  0  0
    2.5856   -9.9005    4.3271 C   0  0  0  0  0  0  0  0  0  0  0  0
    1.3546   -9.4607    4.7892 C   0  0  0  0  0  0  0  0  0  0  0  0
    0.9216   -8.1755    4.4711 C   0  0  0  0  0  0  0  0  0  0  0  0
    1.7123   -7.3094    3.6851 C   0  0  0  0  0  0  0  0  0  0  0  0
    1.1257   -6.0229    3.3157 C   0  0  0  0  0  0  0  0  0  0  0  0
    0.3940   -5.2550    4.1459 N   0  0  0  0  0  0  0  0  0  0  0  0
    0.1862   -4.1882    3.3601 N   0  0  0  0  0  0  0  0  0  0  0  0
    0.7108   -4.2483    2.1331 N   0  0  0  0  0  0  0  0  0  0  0  0
    1.2922   -5.4378    2.0795 N   0  0  0  0  0  0  0  0  0  0  0  0
    4.1131   -5.4590    2.9367 C   0  0  0  0  0  0  0  0  0  0  0  0
    4.9842   -4.5930    2.2698 C   0  0  0  0  0  0  0  0  0  0  0  0
    8.7124   -0.9714    1.7254 C   0  0  0  0  0  0  0  0  0  0  0  0
    9.0076    0.0436    2.6419 C   0  0  0  0  0  0  0  0  0  0  0  0
    8.2670    1.2331    2.6729 C   0  0  0  0  0  0  0  0  0  0  0  0
    8.7121    2.1253    3.6105 O   0  0  0  0  0  0  0  0  0  0  0  0
    7.7200    2.8368    4.3450 C   0  0  0  0  0  0  0  0  0  0  0  0
    3.8032    3.4440    0.0378 H   0  0  0  0  0  0  0  0  0  0  0  0
    5.2779    4.4098    0.1742 H   0  0  0  0  0  0  0  0  0  0  0  0
    4.1980    4.2035    1.5975 H   0  0  0  0  0  0  0  0  0  0  0  0
    6.1190    0.5087    0.1263 H   0  0  0  0  0  0  0  0  0  0  0  0
    8.3310   -2.4372   -0.4093 H   0  0  0  0  0  0  0  0  0  0  0  0
    5.8084   -1.0429   -1.4205 H   0  0  0  0  0  0  0  0  0  0  0  0
    6.7025   -2.3335   -2.2096 H   0  0  0  0  0  0  0  0  0  0  0  0
    7.4601   -0.7432   -1.9986 H   0  0  0  0  0  0  0  0  0  0  0  0
    5.5424   -2.5972    0.6625 H   0  0  0  0  0  0  0  0  0  0  0  0
    6.4855   -6.8592    0.2337 H   0  0  0  0  0  0  0  0  0  0  0  0
    4.8542   -8.3425    1.2968 H   0  0  0  0  0  0  0  0  0  0  0  0
    4.3847   -9.4082    3.2992 H   0  0  0  0  0  0  0  0  0  0  0  0
    2.9237  -10.9097    4.5504 H   0  0  0  0  0  0  0  0  0  0  0  0
    0.7278  -10.1162    5.3883 H   0  0  0  0  0  0  0  0  0  0  0  0
   -0.0522   -7.8474    4.8326 H   0  0  0  0  0  0  0  0  0  0  0  0
   -0.3304   -3.3729    3.6775 H   0  0  0  0  0  0  0  0  0  0  0  0
    3.5102   -5.0367    3.7372 H   0  0  0  0  0  0  0  0  0  0  0  0
    5.0023   -3.5479    2.5619 H   0  0  0  0  0  0  0  0  0  0  0  0
    9.3218   -1.8752    1.7230 H   0  0  0  0  0  0  0  0  0  0  0  0
    9.8375   -0.0900    3.3336 H   0  0  0  0  0  0  0  0  0  0  0  0
    8.0989    2.9844    5.3623 H   0  0  0  0  0  0  0  0  0  0  0  0
    6.7682    2.3004    4.4183 H   0  0  0  0  0  0  0  0  0  0  0  0
    7.5772    3.8331    3.9206 H   0  0  0  0  0  0  0  0  0  0  0  0
  1  2  1  0  0  0  0
  1 35  1  0  0  0  0
  1 36  1  0  0  0  0
  1 37  1  0  0  0  0
  2  3  1  0  0  0  0
  3  4  2  0  0  0  0
  3  5  1  0  0  0  0
  5  6  2  0  0  0  0
  5 32  1  0  0  0  0
  6  7  1  0  0  0  0
  6 38  1  0  0  0  0
  7 30  2  0  0  0  0
  8 10  1  0  0  0  0
  8  9  1  0  0  0  0
  8  7  1  0  0  0  0
  8 39  1  6  0  0  0
  9 40  1  0  0  0  0
  9 41  1  0  0  0  0
  9 42  1  0  0  0  0
 10 11  1  0  0  0  0
 10 43  1  0  0  0  0
 11 12  2  0  0  0  0
 11 13  1  0  0  0  0
 13 14  2  0  0  0  0
 13 29  1  0  0  0  0
 14 15  1  0  0  0  0
 14 44  1  0  0  0  0
 15 16  2  0  0  0  0
 15 45  1  0  0  0  0
 16 17  1  0  0  0  0
 16 28  1  0  0  0  0
 17 18  2  0  0  0  0
 17 22  1  0  0  0  0
 18 19  1  0  0  0  0
 18 46  1  0  0  0  0
 19 20  2  0  0  0  0
 19 47  1  0  0  0  0
 20 21  1  0  0  0  0
 20 48  1  0  0  0  0
 21 22  2  0  0  0  0
 21 49  1  0  0  0  0
 22 23  1  0  0  0  0
 23 24  2  0  0  0  0
 23 27  1  0  0  0  0
 24 25  1  0  0  0  0
 25 26  1  0  0  0  0
 25 50  1  0  0  0  0
 26 27  2  0  0  0  0
 28 29  2  0  0  0  0
 28 51  1  0  0  0  0
 29 52  1  0  0  0  0
 30 31  1  0  0  0  0
 30 53  1  0  0  0  0
 31 32  2  0  0  0  0
 31 54  1  0  0  0  0
 32 33  1  0  0  0  0
 33 34  1  0  0  0  0
 34 55  1  0  0  0  0
 34 56  1  0  0  0  0
 34 57  1  0  0  0  0
M  END
$$$$
