
 OpenBabel01122422463D

 41 44  0  0  0  0  0  0  0  0999 V2000
    0.9957   -0.0442   -0.1345 O   0  0  0  0  0  0  0  0  0  0  0  0
    2.2133    0.0980   -0.0904 C   0  0  0  0  0  0  0  0  0  0  0  0
    2.9075    0.9442    0.7402 N   0  0  0  0  0  0  0  0  0  0  0  0
    2.2655    1.7365    1.6767 C   0  0  0  0  0  0  0  0  0  0  0  0
    0.9373    1.7580    1.8436 N   0  0  0  0  0  0  0  0  0  0  0  0
    0.6709    2.6470    2.8499 O   0  0  0  0  0  0  0  0  0  0  0  0
    1.8295    3.1697    3.2948 C   0  0  0  0  0  0  0  0  0  0  0  0
    2.8883    2.6499    2.5819 C   0  0  0  0  0  0  0  0  0  0  0  0
    4.2701    3.0263    2.8292 C   0  0  0  0  0  0  0  0  0  0  0  0
    4.5856    4.3494    3.1848 C   0  0  0  0  0  0  0  0  0  0  0  0
    5.9037    4.7130    3.4684 C   0  0  0  0  0  0  0  0  0  0  0  0
    6.9106    3.7585    3.3939 C   0  0  0  0  0  0  0  0  0  0  0  0
    8.1697    4.1067    3.6847 F   0  0  0  0  0  0  0  0  0  0  0  0
    6.6301    2.4505    3.0273 C   0  0  0  0  0  0  0  0  0  0  0  0
    5.3147    2.0944    2.7460 C   0  0  0  0  0  0  0  0  0  0  0  0
    5.0699    0.8235    2.3906 F   0  0  0  0  0  0  0  0  0  0  0  0
    3.0423   -0.6695   -1.0415 C   0  0  0  0  0  0  0  0  0  0  0  0
    2.4532   -0.9945   -2.1912 C   0  0  0  0  0  0  0  0  0  0  0  0
    3.1478   -1.7755   -3.2149 C   0  0  0  0  0  0  0  0  0  0  0  0
    2.4923   -2.0325   -4.2258 O   0  0  0  0  0  0  0  0  0  0  0  0
    4.4582   -2.1626   -2.9109 N   0  0  0  0  0  0  0  0  0  0  0  0
    5.2234   -2.9687   -3.8128 C   0  0  0  0  0  0  0  0  0  0  0  0
    4.9261   -2.9900   -5.1842 C   0  0  0  0  0  0  0  0  0  0  0  0
    5.5634   -3.8720   -6.0539 C   0  0  0  0  0  0  0  0  0  0  0  0
    6.5297   -4.7428   -5.5637 C   0  0  0  0  0  0  0  0  0  0  0  0
    6.8871   -4.6981   -4.2184 C   0  0  0  0  0  0  0  0  0  0  0  0
    6.2524   -3.8018   -3.3503 C   0  0  0  0  0  0  0  0  0  0  0  0
    5.0699   -1.8906   -1.6919 N   0  0  0  0  0  0  0  0  0  0  0  0
    4.3960   -1.1862   -0.8397 C   0  0  0  0  0  0  0  0  0  0  0  0
    3.9136    1.0273    0.6947 H   0  0  0  0  0  0  0  0  0  0  0  0
    1.7278    3.8733    4.1069 H   0  0  0  0  0  0  0  0  0  0  0  0
    3.8130    5.1144    3.2434 H   0  0  0  0  0  0  0  0  0  0  0  0
    6.1478    5.7328    3.7525 H   0  0  0  0  0  0  0  0  0  0  0  0
    7.4248    1.7155    2.9711 H   0  0  0  0  0  0  0  0  0  0  0  0
    1.4324   -0.7183   -2.4356 H   0  0  0  0  0  0  0  0  0  0  0  0
    4.1919   -2.3188   -5.6161 H   0  0  0  0  0  0  0  0  0  0  0  0
    5.2806   -3.8851   -7.1017 H   0  0  0  0  0  0  0  0  0  0  0  0
    6.9978   -5.4563   -6.2370 H   0  0  0  0  0  0  0  0  0  0  0  0
    7.6413   -5.3813   -3.8392 H   0  0  0  0  0  0  0  0  0  0  0  0
    6.5300   -3.8101   -2.2998 H   0  0  0  0  0  0  0  0  0  0  0  0
    4.8614   -0.9669    0.1356 H   0  0  0  0  0  0  0  0  0  0  0  0
  1  2  2  0  0  0  0
  2  3  1  0  0  0  0
  2 17  1  0  0  0  0
  3  4  1  0  0  0  0
  3 30  1  0  0  0  0
  4  5  2  0  0  0  0
  4  8  1  0  0  0  0
  5  6  1  0  0  0  0
  6  7  1  0  0  0  0
  7  8  2  0  0  0  0
  7 31  1  0  0  0  0
  8  9  1  0  0  0  0
  9 10  2  0  0  0  0
  9 15  1  0  0  0  0
 10 11  1  0  0  0  0
 10 32  1  0  0  0  0
 11 12  2  0  0  0  0
 11 33  1  0  0  0  0
 12 13  1  0  0  0  0
 12 14  1  0  0  0  0
 14 15  2  0  0  0  0
 14 34  1  0  0  0  0
 15 16  1  0  0  0  0
 17 18  2  0  0  0  0
 17 29  1  0  0  0  0
 18 19  1  0  0  0  0
 18 35  1  0  0  0  0
 19 20  2  0  0  0  0
 19 21  1  0  0  0  0
 21 22  1  0  0  0  0
 21 28  1  0  0  0  0
 22 23  2  0  0  0  0
 22 27  1  0  0  0  0
 23 24  1  0  0  0  0
 23 36  1  0  0  0  0
 24 25  2  0  0  0  0
 24 37  1  0  0  0  0
 25 26  1  0  0  0  0
 25 38  1  0  0  0  0
 26 27  2  0  0  0  0
 26 39  1  0  0  0  0
 27 40  1  0  0  0  0
 28 29  2  0  0  0  0
 29 41  1  0  0  0  0
M  END
$$$$
