
 OpenBabel01122422463D

 49 52  0  0  0  0  0  0  0  0999 V2000
    1.7102    0.3530    0.1771 C   0  0  0  0  0  0  0  0  0  0  0  0
    3.0370    0.0394   -0.4141 C   0  0  0  0  0  0  0  0  0  0  0  0
    3.9614    0.9131   -0.8449 C   0  0  0  0  0  0  0  0  0  0  0  0
    5.0947    0.2296   -1.1916 N   0  0  0  0  0  0  0  0  0  0  0  0
    4.9119   -1.1441   -0.9602 C   0  0  0  0  0  0  0  0  0  0  0  0
    5.7329   -2.0188   -1.1890 O   0  0  0  0  0  0  0  0  0  0  0  0
    3.5728   -1.2448   -0.4714 N   0  0  0  0  0  0  0  0  0  0  0  0
    2.9564   -2.4846   -0.2260 C   0  0  0  0  0  0  0  0  0  0  0  0
    1.7404   -2.8036   -0.8404 C   0  0  0  0  0  0  0  0  0  0  0  0
    1.1529   -4.0551   -0.6384 C   0  0  0  0  0  0  0  0  0  0  0  0
    1.7608   -4.9849    0.2071 C   0  0  0  0  0  0  0  0  0  0  0  0
    2.9729   -4.6689    0.8319 C   0  0  0  0  0  0  0  0  0  0  0  0
    3.6281   -5.6009    1.7877 C   0  0  0  0  0  0  0  0  0  0  0  0
    4.2453   -5.1544    2.7471 O   0  0  0  0  0  0  0  0  0  0  0  0
    3.5092   -6.9453    1.5113 N   0  0  0  0  0  0  0  0  0  0  0  0
    4.1669   -7.9429    2.3233 C   0  0  0  0  0  0  0  0  0  0  0  0
    3.1715   -8.8520    2.9949 C   0  0  0  0  0  0  0  0  0  0  0  0
    2.6657   -8.5340    4.2592 C   0  0  0  0  0  0  0  0  0  0  0  0
    1.7722   -9.3942    4.9121 C   0  0  0  0  0  0  0  0  0  0  0  0
    1.3298  -10.5932    4.3199 C   0  0  0  0  0  0  0  0  0  0  0  0
    0.4021  -11.5028    5.0332 C   0  0  0  0  0  0  0  0  0  0  0  0
   -0.5682  -11.0300    5.9327 C   0  0  0  0  0  0  0  0  0  0  0  0
   -1.4057  -11.9120    6.6172 C   0  0  0  0  0  0  0  0  0  0  0  0
   -1.2659  -13.2659    6.3809 C   0  0  0  0  0  0  0  0  0  0  0  0
   -0.3613  -13.7792    5.5260 N   0  0  0  0  0  0  0  0  0  0  0  0
    0.4424  -12.8929    4.8818 C   0  0  0  0  0  0  0  0  0  0  0  0
    1.8294  -10.8726    3.0357 C   0  0  0  0  0  0  0  0  0  0  0  0
    1.4473  -11.9811    2.3825 F   0  0  0  0  0  0  0  0  0  0  0  0
    2.7312  -10.0276    2.3812 C   0  0  0  0  0  0  0  0  0  0  0  0
    3.5760   -3.4255    0.6016 C   0  0  0  0  0  0  0  0  0  0  0  0
    1.5727    1.4352    0.2808 H   0  0  0  0  0  0  0  0  0  0  0  0
    1.6238   -0.0800    1.1797 H   0  0  0  0  0  0  0  0  0  0  0  0
    0.8933   -0.0247   -0.4422 H   0  0  0  0  0  0  0  0  0  0  0  0
    3.9054    1.9892   -0.9065 H   0  0  0  0  0  0  0  0  0  0  0  0
    5.9522    0.6143   -1.5583 H   0  0  0  0  0  0  0  0  0  0  0  0
    1.2737   -2.1061   -1.5310 H   0  0  0  0  0  0  0  0  0  0  0  0
    0.2222   -4.3030   -1.1436 H   0  0  0  0  0  0  0  0  0  0  0  0
    1.2664   -5.9351    0.3894 H   0  0  0  0  0  0  0  0  0  0  0  0
    3.1073   -7.2421    0.6335 H   0  0  0  0  0  0  0  0  0  0  0  0
    4.8120   -7.4773    3.0763 H   0  0  0  0  0  0  0  0  0  0  0  0
    4.8221   -8.5217    1.6635 H   0  0  0  0  0  0  0  0  0  0  0  0
    2.9810   -7.6161    4.7556 H   0  0  0  0  0  0  0  0  0  0  0  0
    1.4441   -9.1147    5.9116 H   0  0  0  0  0  0  0  0  0  0  0  0
   -0.6917   -9.9646    6.1106 H   0  0  0  0  0  0  0  0  0  0  0  0
   -2.1483  -11.5468    7.3175 H   0  0  0  0  0  0  0  0  0  0  0  0
   -1.8939  -13.9934    6.8866 H   0  0  0  0  0  0  0  0  0  0  0  0
    1.1617  -13.3703    4.2209 H   0  0  0  0  0  0  0  0  0  0  0  0
    3.0897  -10.3130    1.3959 H   0  0  0  0  0  0  0  0  0  0  0  0
    4.5140   -3.1825    1.0978 H   0  0  0  0  0  0  0  0  0  0  0  0
  1  2  1  0  0  0  0
  1 31  1  0  0  0  0
  1 32  1  0  0  0  0
  1 33  1  0  0  0  0
  2  3  2  0  0  0  0
  2  7  1  0  0  0  0
  3  4  1  0  0  0  0
  3 34  1  0  0  0  0
  4  5  1  0  0  0  0
  4 35  1  0  0  0  0
  5  6  2  0  0  0  0
  5  7  1  0  0  0  0
  7  8  1  0  0  0  0
  8  9  2  0  0  0  0
  8 30  1  0  0  0  0
  9 10  1  0  0  0  0
  9 36  1  0  0  0  0
 10 11  2  0  0  0  0
 10 37  1  0  0  0  0
 11 12  1  0  0  0  0
 11 38  1  0  0  0  0
 12 13  1  0  0  0  0
 12 30  2  0  0  0  0
 13 14  2  0  0  0  0
 13 15  1  0  0  0  0
 15 16  1  0  0  0  0
 15 39  1  0  0  0  0
 16 17  1  0  0  0  0
 16 40  1  0  0  0  0
 16 41  1  0  0  0  0
 17 18  2  0  0  0  0
 17 29  1  0  0  0  0
 18 19  1  0  0  0  0
 18 42  1  0  0  0  0
 19 20  2  0  0  0  0
 19 43  1  0  0  0  0
 20 21  1  0  0  0  0
 20 27  1  0  0  0  0
 21 22  2  0  0  0  0
 21 26  1  0  0  0  0
 22 23  1  0  0  0  0
 22 44  1  0  0  0  0
 23 24  2  0  0  0  0
 23 45  1  0  0  0  0
 24 25  1  0  0  0  0
 24 46  1  0  0  0  0
 25 26  2  0  0  0  0
 26 47  1  0  0  0  0
 27 28  1  0  0  0  0
 27 29  2  0  0  0  0
 29 48  1  0  0  0  0
 30 49  1  0  0  0  0
M  END
$$$$
