
 OpenBabel01122422463D

 53 56  0  0  1  0  0  0  0  0999 V2000
    1.5113    0.1105   -0.6870 C   0  0  0  0  0  0  0  0  0  0  0  0
    2.8766   -0.1389   -0.9946 O   0  0  0  0  0  0  0  0  0  0  0  0
    3.3880   -1.3526   -0.6284 C   0  0  0  0  0  0  0  0  0  0  0  0
    2.7106   -2.3597    0.0621 C   0  0  0  0  0  0  0  0  0  0  0  0
    3.3561   -3.5678    0.3677 C   0  0  0  0  0  0  0  0  0  0  0  0
    4.6884   -3.7707   -0.0111 C   0  0  0  0  0  0  0  0  0  0  0  0
    5.4159   -5.0398    0.2711 C   0  0  0  0  0  0  0  0  0  0  0  0
    6.3177   -5.4027   -0.4746 O   0  0  0  0  0  0  0  0  0  0  0  0
    5.0437   -5.7309    1.4060 N   0  0  0  0  0  0  0  0  0  0  0  0
    5.8231   -6.8834    1.8548 C   0  0  3  0  0  0  0  0  0  0  0  0
    5.9554   -6.8333    3.4054 C   0  0  0  0  0  0  0  0  0  0  0  0
    6.8250   -6.1331    3.9252 O   0  0  0  0  0  0  0  0  0  0  0  0
    4.9612   -7.5116    4.1053 N   0  0  0  0  0  0  0  0  0  0  0  0
    4.8047   -7.5862    5.5034 C   0  0  0  0  0  0  0  0  0  0  0  0
    5.4805   -6.7575    6.3957 C   0  0  0  0  0  0  0  0  0  0  0  0
    5.3299   -6.9249    7.7743 C   0  0  0  0  0  0  0  0  0  0  0  0
    4.4934   -7.9229    8.2875 C   0  0  0  0  0  0  0  0  0  0  0  0
    4.3983   -8.1331    9.7262 C   0  0  0  0  0  0  0  0  0  0  0  0
    3.3169   -8.6597   10.3265 N   0  0  0  0  0  0  0  0  0  0  0  0
    3.6809   -8.6492   11.6194 N   0  0  0  0  0  0  0  0  0  0  0  0
    4.9018   -8.1913   11.9324 N   0  0  0  0  0  0  0  0  0  0  0  0
    5.3669   -7.8636   10.7254 C   0  0  0  0  0  0  0  0  0  0  0  0
    3.7734   -8.7218    7.3919 C   0  0  0  0  0  0  0  0  0  0  0  0
    3.9258   -8.5523    6.0096 C   0  0  0  0  0  0  0  0  0  0  0  0
    5.2773   -8.2131    1.3554 C   0  0  0  0  0  0  0  0  0  0  0  0
    6.1617   -9.2932    1.2051 C   0  0  0  0  0  0  0  0  0  0  0  0
    5.6835  -10.5671    0.9034 C   0  0  0  0  0  0  0  0  0  0  0  0
    4.3155  -10.7801    0.7546 C   0  0  0  0  0  0  0  0  0  0  0  0
    3.4252   -9.7146    0.8786 C   0  0  0  0  0  0  0  0  0  0  0  0
    3.9033   -8.4359    1.1664 C   0  0  0  0  0  0  0  0  0  0  0  0
    5.3620   -2.7635   -0.7106 C   0  0  0  0  0  0  0  0  0  0  0  0
    4.7150   -1.5617   -1.0102 C   0  0  0  0  0  0  0  0  0  0  0  0
    1.2477    1.0880   -1.1029 H   0  0  0  0  0  0  0  0  0  0  0  0
    1.3562    0.1550    0.3958 H   0  0  0  0  0  0  0  0  0  0  0  0
    0.8563   -0.6341   -1.1510 H   0  0  0  0  0  0  0  0  0  0  0  0
    1.6763   -2.2405    0.3683 H   0  0  0  0  0  0  0  0  0  0  0  0
    2.7933   -4.3473    0.8721 H   0  0  0  0  0  0  0  0  0  0  0  0
    4.4564   -5.2717    2.0879 H   0  0  0  0  0  0  0  0  0  0  0  0
    6.8446   -6.7749    1.4645 H   0  0  0  0  0  0  0  0  0  0  0  0
    4.3824   -8.1524    3.5757 H   0  0  0  0  0  0  0  0  0  0  0  0
    6.1359   -5.9629    6.0535 H   0  0  0  0  0  0  0  0  0  0  0  0
    5.8773   -6.2555    8.4336 H   0  0  0  0  0  0  0  0  0  0  0  0
    3.0485   -8.9813   12.3436 H   0  0  0  0  0  0  0  0  0  0  0  0
    6.3666   -7.4626   10.6215 H   0  0  0  0  0  0  0  0  0  0  0  0
    3.1069   -9.4983    7.7652 H   0  0  0  0  0  0  0  0  0  0  0  0
    3.3707   -9.2092    5.3437 H   0  0  0  0  0  0  0  0  0  0  0  0
    7.2347   -9.1503    1.3339 H   0  0  0  0  0  0  0  0  0  0  0  0
    6.3801  -11.3946    0.7933 H   0  0  0  0  0  0  0  0  0  0  0  0
    3.9448  -11.7786    0.5405 H   0  0  0  0  0  0  0  0  0  0  0  0
    2.3599   -9.8853    0.7663 H   0  0  0  0  0  0  0  0  0  0  0  0
    3.1907   -7.6213    1.2728 H   0  0  0  0  0  0  0  0  0  0  0  0
    6.3937   -2.9091   -1.0252 H   0  0  0  0  0  0  0  0  0  0  0  0
    5.2489   -0.7846   -1.5527 H   0  0  0  0  0  0  0  0  0  0  0  0
  1  2  1  0  0  0  0
  1 33  1  0  0  0  0
  1 34  1  0  0  0  0
  1 35  1  0  0  0  0
  2  3  1  0  0  0  0
  3  4  2  0  0  0  0
  3 32  1  0  0  0  0
  4  5  1  0  0  0  0
  4 36  1  0  0  0  0
  5  6  2  0  0  0  0
  5 37  1  0  0  0  0
  6  7  1  0  0  0  0
  6 31  1  0  0  0  0
  7  8  2  0  0  0  0
  7  9  1  0  0  0  0
  9 10  1  0  0  0  0
  9 38  1  0  0  0  0
 10 11  1  0  0  0  0
 10 25  1  0  0  0  0
 10 39  1  0  0  0  0
 11 12  2  0  0  0  0
 11 13  1  0  0  0  0
 13 14  1  0  0  0  0
 13 40  1  0  0  0  0
 14 15  2  0  0  0  0
 14 24  1  0  0  0  0
 15 16  1  0  0  0  0
 15 41  1  0  0  0  0
 16 17  2  0  0  0  0
 16 42  1  0  0  0  0
 17 18  1  0  0  0  0
 17 23  1  0  0  0  0
 18 19  2  0  0  0  0
 18 22  1  0  0  0  0
 19 20  1  0  0  0  0
 20 21  1  0  0  0  0
 20 43  1  0  0  0  0
 21 22  2  0  0  0  0
 22 44  1  0  0  0  0
 23 24  2  0  0  0  0
 23 45  1  0  0  0  0
 24 46  1  0  0  0  0
 25 26  2  0  0  0  0
 25 30  1  0  0  0  0
 26 27  1  0  0  0  0
 26 47  1  0  0  0  0
 27 28  2  0  0  0  0
 27 48  1  0  0  0  0
 28 29  1  0  0  0  0
 28 49  1  0  0  0  0
 29 30  2  0  0  0  0
 29 50  1  0  0  0  0
 30 51  1  0  0  0  0
 31 32  2  0  0  0  0
 31 52  1  0  0  0  0
 32 53  1  0  0  0  0
M  END
$$$$
