
 OpenBabel01122422453D

 49 52  0  0  0  0  0  0  0  0999 V2000
    1.0942   -0.0091    0.1362 O   0  0  0  0  0  0  0  0  0  0  0  0
    2.3146    0.0070    0.2585 C   0  0  0  0  0  0  0  0  0  0  0  0
    3.0720   -1.1415    0.3596 N   0  0  0  0  0  0  0  0  0  0  0  0
    2.4069   -2.4147    0.2450 C   0  0  0  0  0  0  0  0  0  0  0  0
    3.3664   -3.5338    0.4200 C   0  0  0  0  0  0  0  0  0  0  0  0
    4.0782   -4.2197   -0.5488 C   0  0  0  0  0  0  0  0  0  0  0  0
    4.7285   -5.2594    0.1282 C   0  0  0  0  0  0  0  0  0  0  0  0
    4.4706   -5.2481    1.4331 N   0  0  0  0  0  0  0  0  0  0  0  0
    3.6435   -4.1869    1.6064 N   0  0  0  0  0  0  0  0  0  0  0  0
    3.1007   -3.9648    2.9481 C   0  0  0  0  0  0  0  0  0  0  0  0
    3.9545   -3.0245    3.7655 C   0  0  0  0  0  0  0  0  0  0  0  0
    3.4010   -1.8470    4.2875 C   0  0  0  0  0  0  0  0  0  0  0  0
    4.2078   -0.9142    4.9411 C   0  0  0  0  0  0  0  0  0  0  0  0
    5.5665   -1.1664    5.1188 C   0  0  0  0  0  0  0  0  0  0  0  0
    6.1105   -2.3733    4.6868 C   0  0  0  0  0  0  0  0  0  0  0  0
    5.3080   -3.3011    4.0203 C   0  0  0  0  0  0  0  0  0  0  0  0
    3.0829    1.2952    0.2500 C   0  0  0  0  0  0  0  0  0  0  0  0
    2.4687    2.3975   -0.2408 C   0  0  0  0  0  0  0  0  0  0  0  0
    3.1257    3.6219   -0.3137 N   0  0  0  0  0  0  0  0  0  0  0  0
    2.5090    4.7598   -0.9224 C   0  0  0  0  0  0  0  0  0  0  0  0
    1.3052    5.2755   -0.4298 C   0  0  0  0  0  0  0  0  0  0  0  0
    0.7971    6.4694   -0.9553 C   0  0  0  0  0  0  0  0  0  0  0  0
    1.4610    7.1247   -1.9963 C   0  0  0  0  0  0  0  0  0  0  0  0
    2.6264    6.5796   -2.5297 C   0  0  0  0  0  0  0  0  0  0  0  0
    3.1448    5.4098   -1.9887 C   0  0  0  0  0  0  0  0  0  0  0  0
    4.2411    4.8731   -2.5490 F   0  0  0  0  0  0  0  0  0  0  0  0
    4.4299    3.7968    0.1764 C   0  0  0  0  0  0  0  0  0  0  0  0
    5.0547    4.8528    0.2320 O   0  0  0  0  0  0  0  0  0  0  0  0
    5.0733    2.5825    0.7463 C   0  0  0  0  0  0  0  0  0  0  0  0
    4.4236    1.4152    0.7769 C   0  0  0  0  0  0  0  0  0  0  0  0
    4.0667   -1.1068    0.1869 H   0  0  0  0  0  0  0  0  0  0  0  0
    1.9714   -2.4554   -0.7609 H   0  0  0  0  0  0  0  0  0  0  0  0
    1.5797   -2.4521    0.9584 H   0  0  0  0  0  0  0  0  0  0  0  0
    4.0850   -4.0231   -1.6120 H   0  0  0  0  0  0  0  0  0  0  0  0
    5.3646   -6.0376   -0.2739 H   0  0  0  0  0  0  0  0  0  0  0  0
    3.0299   -4.9403    3.4445 H   0  0  0  0  0  0  0  0  0  0  0  0
    2.0794   -3.5881    2.8333 H   0  0  0  0  0  0  0  0  0  0  0  0
    2.3394   -1.6379    4.1753 H   0  0  0  0  0  0  0  0  0  0  0  0
    3.7769    0.0165    5.3010 H   0  0  0  0  0  0  0  0  0  0  0  0
    6.2000   -0.4250    5.5989 H   0  0  0  0  0  0  0  0  0  0  0  0
    7.1638   -2.5865    4.8523 H   0  0  0  0  0  0  0  0  0  0  0  0
    5.7547   -4.2346    3.6776 H   0  0  0  0  0  0  0  0  0  0  0  0
    1.4627    2.3565   -0.6433 H   0  0  0  0  0  0  0  0  0  0  0  0
    0.7959    4.8013    0.4046 H   0  0  0  0  0  0  0  0  0  0  0  0
   -0.1078    6.9049   -0.5372 H   0  0  0  0  0  0  0  0  0  0  0  0
    1.0722    8.0607   -2.3900 H   0  0  0  0  0  0  0  0  0  0  0  0
    3.1429    7.0591   -3.3546 H   0  0  0  0  0  0  0  0  0  0  0  0
    6.0709    2.7097    1.1464 H   0  0  0  0  0  0  0  0  0  0  0  0
    4.9031    0.5532    1.2315 H   0  0  0  0  0  0  0  0  0  0  0  0
  1  2  2  0  0  0  0
  2  3  1  0  0  0  0
  2 17  1  0  0  0  0
  3  4  1  0  0  0  0
  3 31  1  0  0  0  0
  4  5  1  0  0  0  0
  4 32  1  0  0  0  0
  4 33  1  0  0  0  0
  5  6  2  0  0  0  0
  5  9  1  0  0  0  0
  6  7  1  0  0  0  0
  6 34  1  0  0  0  0
  7  8  2  0  0  0  0
  7 35  1  0  0  0  0
  8  9  1  0  0  0  0
  9 10  1  0  0  0  0
 10 11  1  0  0  0  0
 10 36  1  0  0  0  0
 10 37  1  0  0  0  0
 11 12  2  0  0  0  0
 11 16  1  0  0  0  0
 12 13  1  0  0  0  0
 12 38  1  0  0  0  0
 13 14  2  0  0  0  0
 13 39  1  0  0  0  0
 14 15  1  0  0  0  0
 14 40  1  0  0  0  0
 15 16  2  0  0  0  0
 15 41  1  0  0  0  0
 16 42  1  0  0  0  0
 17 18  2  0  0  0  0
 17 30  1  0  0  0  0
 18 19  1  0  0  0  0
 18 43  1  0  0  0  0
 19 20  1  0  0  0  0
 19 27  1  0  0  0  0
 20 21  2  0  0  0  0
 20 25  1  0  0  0  0
 21 22  1  0  0  0  0
 21 44  1  0  0  0  0
 22 23  2  0  0  0  0
 22 45  1  0  0  0  0
 23 24  1  0  0  0  0
 23 46  1  0  0  0  0
 24 25  2  0  0  0  0
 24 47  1  0  0  0  0
 25 26  1  0  0  0  0
 27 28  2  0  0  0  0
 27 29  1  0  0  0  0
 29 30  2  0  0  0  0
 29 48  1  0  0  0  0
 30 49  1  0  0  0  0
M  END
$$$$
