
 OpenBabel01122422463D

 49 52  0  0  0  0  0  0  0  0999 V2000
    1.2027   -0.7990   -6.3119 C   0  0  0  0  0  0  0  0  0  0  0  0
    1.2265   -0.5334   -4.8385 C   0  0  0  0  0  0  0  0  0  0  0  0
    2.3329   -0.1803   -4.1613 C   0  0  0  0  0  0  0  0  0  0  0  0
    2.2826    0.0671   -2.7182 C   0  0  0  0  0  0  0  0  0  0  0  0
    3.4117    0.4743   -2.0006 C   0  0  0  0  0  0  0  0  0  0  0  0
    3.3306    0.7229   -0.6151 C   0  0  0  0  0  0  0  0  0  0  0  0
    4.5259    1.2589    0.1364 C   0  0  0  0  0  0  0  0  0  0  0  0
    5.6519    0.3530    0.1057 N   0  0  0  0  0  0  0  0  0  0  0  0
    6.9455    0.8273   -0.0141 C   0  0  0  0  0  0  0  0  0  0  0  0
    7.2088    2.0066   -0.2173 O   0  0  0  0  0  0  0  0  0  0  0  0
    8.0304   -0.1972    0.0890 C   0  0  0  0  0  0  0  0  0  0  0  0
    7.8136   -1.3917   -0.6365 C   0  0  0  0  0  0  0  0  0  0  0  0
    8.7946   -2.3765   -0.7139 C   0  0  0  0  0  0  0  0  0  0  0  0
   10.0008   -2.1668   -0.0712 C   0  0  0  0  0  0  0  0  0  0  0  0
   11.0110   -3.0794   -0.1427 O   0  0  0  0  0  0  0  0  0  0  0  0
   10.2252   -1.0062    0.6686 C   0  0  0  0  0  0  0  0  0  0  0  0
    9.2547    0.0216    0.7777 C   0  0  0  0  0  0  0  0  0  0  0  0
    9.5821    1.2220    1.6089 C   0  0  0  0  0  0  0  0  0  0  0  0
   10.8942    1.7406    1.6665 C   0  0  0  0  0  0  0  0  0  0  0  0
   11.2188    2.8579    2.4470 C   0  0  0  0  0  0  0  0  0  0  0  0
   10.2299    3.5103    3.1719 C   0  0  0  0  0  0  0  0  0  0  0  0
    8.9296    3.0213    3.1453 C   0  0  0  0  0  0  0  0  0  0  0  0
    8.6200    1.8765    2.3992 C   0  0  0  0  0  0  0  0  0  0  0  0
    2.1032    0.5380    0.0335 C   0  0  0  0  0  0  0  0  0  0  0  0
    0.9703    0.1296   -0.6765 C   0  0  0  0  0  0  0  0  0  0  0  0
    1.0646   -0.0954   -2.0492 C   0  0  0  0  0  0  0  0  0  0  0  0
   -0.0732   -0.4683   -2.7717 N   0  0  0  0  0  0  0  0  0  0  0  0
   -0.0798   -0.6861   -4.1179 C   0  0  0  0  0  0  0  0  0  0  0  0
   -1.1078   -0.9904   -4.7157 O   0  0  0  0  0  0  0  0  0  0  0  0
    2.2008   -0.7206   -6.7567 H   0  0  0  0  0  0  0  0  0  0  0  0
    0.5535   -0.0784   -6.8195 H   0  0  0  0  0  0  0  0  0  0  0  0
    0.8290   -1.8076   -6.5157 H   0  0  0  0  0  0  0  0  0  0  0  0
    3.2871   -0.0637   -4.6646 H   0  0  0  0  0  0  0  0  0  0  0  0
    4.3588    0.6334   -2.5133 H   0  0  0  0  0  0  0  0  0  0  0  0
    4.2775    1.4049    1.1965 H   0  0  0  0  0  0  0  0  0  0  0  0
    4.7939    2.2421   -0.2692 H   0  0  0  0  0  0  0  0  0  0  0  0
    5.4913   -0.6027    0.3981 H   0  0  0  0  0  0  0  0  0  0  0  0
    6.8864   -1.5433   -1.1850 H   0  0  0  0  0  0  0  0  0  0  0  0
    8.6061   -3.2777   -1.2884 H   0  0  0  0  0  0  0  0  0  0  0  0
   10.7448   -3.8014   -0.7358 H   0  0  0  0  0  0  0  0  0  0  0  0
   11.1872   -0.9165    1.1703 H   0  0  0  0  0  0  0  0  0  0  0  0
   11.6972    1.2848    1.0907 H   0  0  0  0  0  0  0  0  0  0  0  0
   12.2423    3.2229    2.4736 H   0  0  0  0  0  0  0  0  0  0  0  0
   10.4694    4.3975    3.7515 H   0  0  0  0  0  0  0  0  0  0  0  0
    8.1454    3.5316    3.6980 H   0  0  0  0  0  0  0  0  0  0  0  0
    7.5944    1.5218    2.4328 H   0  0  0  0  0  0  0  0  0  0  0  0
    2.0091    0.7343    1.1020 H   0  0  0  0  0  0  0  0  0  0  0  0
    0.0260    0.0089   -0.1555 H   0  0  0  0  0  0  0  0  0  0  0  0
   -0.9654   -0.5711   -2.3090 H   0  0  0  0  0  0  0  0  0  0  0  0
  1  2  1  0  0  0  0
  1 30  1  0  0  0  0
  1 31  1  0  0  0  0
  1 32  1  0  0  0  0
  2  3  2  0  0  0  0
  2 28  1  0  0  0  0
  3  4  1  0  0  0  0
  3 33  1  0  0  0  0
  4  5  2  0  0  0  0
  4 26  1  0  0  0  0
  5  6  1  0  0  0  0
  5 34  1  0  0  0  0
  6  7  1  0  0  0  0
  6 24  2  0  0  0  0
  7  8  1  0  0  0  0
  7 35  1  0  0  0  0
  7 36  1  0  0  0  0
  8  9  1  0  0  0  0
  8 37  1  0  0  0  0
  9 10  2  0  0  0  0
  9 11  1  0  0  0  0
 11 12  2  0  0  0  0
 11 17  1  0  0  0  0
 12 13  1  0  0  0  0
 12 38  1  0  0  0  0
 13 14  2  0  0  0  0
 13 39  1  0  0  0  0
 14 15  1  0  0  0  0
 14 16  1  0  0  0  0
 15 40  1  0  0  0  0
 16 17  2  0  0  0  0
 16 41  1  0  0  0  0
 17 18  1  0  0  0  0
 18 19  2  0  0  0  0
 18 23  1  0  0  0  0
 19 20  1  0  0  0  0
 19 42  1  0  0  0  0
 20 21  2  0  0  0  0
 20 43  1  0  0  0  0
 21 22  1  0  0  0  0
 21 44  1  0  0  0  0
 22 23  2  0  0  0  0
 22 45  1  0  0  0  0
 23 46  1  0  0  0  0
 24 25  1  0  0  0  0
 24 47  1  0  0  0  0
 25 26  2  0  0  0  0
 25 48  1  0  0  0  0
 26 27  1  0  0  0  0
 27 28  1  0  0  0  0
 27 49  1  0  0  0  0
 28 29  2  0  0  0  0
M  END
$$$$
