
 OpenBabel01122422463D

 46 48  0  0  0  0  0  0  0  0999 V2000
    3.2073    1.4357    2.5089 C   0  0  0  0  0  0  0  0  0  0  0  0
    4.3223    1.0138    1.7327 O   0  0  0  0  0  0  0  0  0  0  0  0
    4.4995    1.6176    0.5185 C   0  0  0  0  0  0  0  0  0  0  0  0
    5.6212    1.1716   -0.1874 C   0  0  0  0  0  0  0  0  0  0  0  0
    5.9463    1.7199   -1.4321 C   0  0  0  0  0  0  0  0  0  0  0  0
    5.1513    2.7298   -1.9871 C   0  0  0  0  0  0  0  0  0  0  0  0
    5.5654    3.3219   -3.2911 C   0  0  0  0  0  0  0  0  0  0  0  0
    6.2307    2.6380   -4.0596 O   0  0  0  0  0  0  0  0  0  0  0  0
    5.2115    4.7160   -3.6655 C   0  0  0  0  0  0  0  0  0  0  0  0
    5.2310    5.7014   -2.6559 C   0  0  0  0  0  0  0  0  0  0  0  0
    4.9372    7.0358   -2.9405 C   0  0  0  0  0  0  0  0  0  0  0  0
    4.6592    7.4168   -4.2453 C   0  0  0  0  0  0  0  0  0  0  0  0
    4.6802    6.4619   -5.2608 C   0  0  0  0  0  0  0  0  0  0  0  0
    4.9527    5.1032   -4.9884 C   0  0  0  0  0  0  0  0  0  0  0  0
    4.9720    4.2218   -6.1944 C   0  0  0  0  0  0  0  0  0  0  0  0
    5.4644    4.7025   -7.2135 O   0  0  0  0  0  0  0  0  0  0  0  0
    4.3111    3.0092   -6.1076 N   0  0  0  0  0  0  0  0  0  0  0  0
    4.1164    2.0908   -7.1662 C   0  0  0  0  0  0  0  0  0  0  0  0
    4.7602    2.1953   -8.4062 C   0  0  0  0  0  0  0  0  0  0  0  0
    4.4840    1.3072   -9.4624 C   0  0  0  0  0  0  0  0  0  0  0  0
    5.1692    1.5085  -10.7876 C   0  0  0  0  0  0  0  0  0  0  0  0
    5.3368    0.2776  -11.4793 O   0  0  0  0  0  0  0  0  0  0  0  0
    3.5241    0.3112   -9.2642 C   0  0  0  0  0  0  0  0  0  0  0  0
    2.9157    0.1803   -8.0207 C   0  0  0  0  0  0  0  0  0  0  0  0
    2.0067   -0.7870   -7.8358 F   0  0  0  0  0  0  0  0  0  0  0  0
    3.2129    1.0448   -6.9692 C   0  0  0  0  0  0  0  0  0  0  0  0
    4.0016    3.1439   -1.3094 C   0  0  0  0  0  0  0  0  0  0  0  0
    3.6959    2.6018   -0.0609 C   0  0  0  0  0  0  0  0  0  0  0  0
    2.6067    3.0766    0.5602 F   0  0  0  0  0  0  0  0  0  0  0  0
    3.2127    0.8618    3.4404 H   0  0  0  0  0  0  0  0  0  0  0  0
    2.2652    1.2203    1.9942 H   0  0  0  0  0  0  0  0  0  0  0  0
    3.2880    2.4955    2.7733 H   0  0  0  0  0  0  0  0  0  0  0  0
    6.2534    0.3951    0.2391 H   0  0  0  0  0  0  0  0  0  0  0  0
    6.8306    1.3629   -1.9587 H   0  0  0  0  0  0  0  0  0  0  0  0
    5.5003    5.4525   -1.6310 H   0  0  0  0  0  0  0  0  0  0  0  0
    4.9465    7.7795   -2.1465 H   0  0  0  0  0  0  0  0  0  0  0  0
    4.4504    8.4576   -4.4818 H   0  0  0  0  0  0  0  0  0  0  0  0
    4.4924    6.7837   -6.2860 H   0  0  0  0  0  0  0  0  0  0  0  0
    3.8956    2.7559   -5.2219 H   0  0  0  0  0  0  0  0  0  0  0  0
    5.5023    2.9696   -8.5790 H   0  0  0  0  0  0  0  0  0  0  0  0
    6.1658    1.9418  -10.6473 H   0  0  0  0  0  0  0  0  0  0  0  0
    4.5803    2.1866  -11.4125 H   0  0  0  0  0  0  0  0  0  0  0  0
    5.8255   -0.3107  -10.8786 H   0  0  0  0  0  0  0  0  0  0  0  0
    3.2434   -0.3634  -10.0684 H   0  0  0  0  0  0  0  0  0  0  0  0
    2.6982    0.9040   -6.0246 H   0  0  0  0  0  0  0  0  0  0  0  0
    3.3296    3.8934   -1.7152 H   0  0  0  0  0  0  0  0  0  0  0  0
  1  2  1  0  0  0  0
  1 30  1  0  0  0  0
  1 31  1  0  0  0  0
  1 32  1  0  0  0  0
  2  3  1  0  0  0  0
  3  4  2  0  0  0  0
  3 28  1  0  0  0  0
  4  5  1  0  0  0  0
  4 33  1  0  0  0  0
  5  6  2  0  0  0  0
  5 34  1  0  0  0  0
  6  7  1  0  0  0  0
  6 27  1  0  0  0  0
  7  8  2  0  0  0  0
  7  9  1  0  0  0  0
  9 10  2  0  0  0  0
  9 14  1  0  0  0  0
 10 11  1  0  0  0  0
 10 35  1  0  0  0  0
 11 12  2  0  0  0  0
 11 36  1  0  0  0  0
 12 13  1  0  0  0  0
 12 37  1  0  0  0  0
 13 14  2  0  0  0  0
 13 38  1  0  0  0  0
 14 15  1  0  0  0  0
 15 16  2  0  0  0  0
 15 17  1  0  0  0  0
 17 18  1  0  0  0  0
 17 39  1  0  0  0  0
 18 19  2  0  0  0  0
 18 26  1  0  0  0  0
 19 20  1  0  0  0  0
 19 40  1  0  0  0  0
 20 21  1  0  0  0  0
 20 23  2  0  0  0  0
 21 22  1  0  0  0  0
 21 41  1  0  0  0  0
 21 42  1  0  0  0  0
 22 43  1  0  0  0  0
 23 24  1  0  0  0  0
 23 44  1  0  0  0  0
 24 25  1  0  0  0  0
 24 26  2  0  0  0  0
 26 45  1  0  0  0  0
 27 28  2  0  0  0  0
 27 46  1  0  0  0  0
 28 29  1  0  0  0  0
M  END
$$$$
