
 OpenBabel01122422463D

 42 45  0  0  0  0  0  0  0  0999 V2000
    1.1196   -0.0204    0.6960 O   0  0  0  0  0  0  0  0  0  0  0  0
    2.2884   -0.0971    0.3277 C   0  0  0  0  0  0  0  0  0  0  0  0
    2.9832   -1.2822    0.3228 N   0  0  0  0  0  0  0  0  0  0  0  0
    2.3508   -2.5396    0.6642 C   0  0  0  0  0  0  0  0  0  0  0  0
    2.5618   -2.8817    2.1080 C   0  0  0  0  0  0  0  0  0  0  0  0
    1.6406   -2.4937    3.1156 C   0  0  0  0  0  0  0  0  0  0  0  0
    1.8070   -2.7806    4.4982 C   0  0  0  0  0  0  0  0  0  0  0  0
    2.9167   -3.4762    5.0083 C   0  0  0  0  0  0  0  0  0  0  0  0
    3.8512   -3.8709    4.0350 C   0  0  0  0  0  0  0  0  0  0  0  0
    5.0006   -4.5382    4.1934 N   0  0  0  0  0  0  0  0  0  0  0  0
    5.5366   -4.6717    2.9248 O   0  0  0  0  0  0  0  0  0  0  0  0
    4.7368   -4.0829    1.9610 N   0  0  0  0  0  0  0  0  0  0  0  0
    3.6801   -3.5810    2.6151 C   0  0  0  0  0  0  0  0  0  0  0  0
    3.0190    1.1647   -0.0141 C   0  0  0  0  0  0  0  0  0  0  0  0
    2.5843    2.2907    0.7197 C   0  0  0  0  0  0  0  0  0  0  0  0
    3.1828    3.5321    0.5439 C   0  0  0  0  0  0  0  0  0  0  0  0
    2.7665    4.5745    1.2739 F   0  0  0  0  0  0  0  0  0  0  0  0
    4.2080    3.6852   -0.3711 C   0  0  0  0  0  0  0  0  0  0  0  0
    4.7943    4.8776   -0.5398 F   0  0  0  0  0  0  0  0  0  0  0  0
    4.6371    2.6043   -1.1318 C   0  0  0  0  0  0  0  0  0  0  0  0
    4.0659    1.3278   -0.9486 C   0  0  0  0  0  0  0  0  0  0  0  0
    4.5420    0.2386   -1.8418 C   0  0  0  0  0  0  0  0  0  0  0  0
    3.7408   -0.5929   -2.2532 O   0  0  0  0  0  0  0  0  0  0  0  0
    5.9675    0.1283   -2.2623 C   0  0  0  0  0  0  0  0  0  0  0  0
    6.2536   -0.4067   -3.5252 C   0  0  0  0  0  0  0  0  0  0  0  0
    7.5787   -0.5625   -3.9379 C   0  0  0  0  0  0  0  0  0  0  0  0
    8.6212   -0.1866   -3.0920 C   0  0  0  0  0  0  0  0  0  0  0  0
    8.3425    0.3485   -1.8348 C   0  0  0  0  0  0  0  0  0  0  0  0
    7.0189    0.4985   -1.4138 C   0  0  0  0  0  0  0  0  0  0  0  0
    3.8779   -1.3483   -0.1399 H   0  0  0  0  0  0  0  0  0  0  0  0
    2.7931   -3.3106    0.0245 H   0  0  0  0  0  0  0  0  0  0  0  0
    1.2810   -2.5012    0.4314 H   0  0  0  0  0  0  0  0  0  0  0  0
    0.7486   -1.9367    2.8156 H   0  0  0  0  0  0  0  0  0  0  0  0
    1.0387   -2.4407    5.1941 H   0  0  0  0  0  0  0  0  0  0  0  0
    3.0459   -3.6890    6.0614 H   0  0  0  0  0  0  0  0  0  0  0  0
    1.7749    2.2046    1.4422 H   0  0  0  0  0  0  0  0  0  0  0  0
    5.4106    2.7875   -1.8738 H   0  0  0  0  0  0  0  0  0  0  0  0
    5.4469   -0.7089   -4.1910 H   0  0  0  0  0  0  0  0  0  0  0  0
    7.7982   -0.9866   -4.9152 H   0  0  0  0  0  0  0  0  0  0  0  0
    9.6532   -0.3214   -3.4086 H   0  0  0  0  0  0  0  0  0  0  0  0
    9.1594    0.6357   -1.1764 H   0  0  0  0  0  0  0  0  0  0  0  0
    6.8338    0.8900   -0.4175 H   0  0  0  0  0  0  0  0  0  0  0  0
  1  2  2  0  0  0  0
  2  3  1  0  0  0  0
  2 14  1  0  0  0  0
  3  4  1  0  0  0  0
  3 30  1  0  0  0  0
  4  5  1  0  0  0  0
  4 31  1  0  0  0  0
  4 32  1  0  0  0  0
  5  6  2  0  0  0  0
  5 13  1  0  0  0  0
  6  7  1  0  0  0  0
  6 33  1  0  0  0  0
  7  8  2  0  0  0  0
  7 34  1  0  0  0  0
  8  9  1  0  0  0  0
  8 35  1  0  0  0  0
  9 10  2  0  0  0  0
  9 13  1  0  0  0  0
 10 11  1  0  0  0  0
 11 12  1  0  0  0  0
 12 13  2  0  0  0  0
 14 15  2  0  0  0  0
 14 21  1  0  0  0  0
 15 16  1  0  0  0  0
 15 36  1  0  0  0  0
 16 17  1  0  0  0  0
 16 18  2  0  0  0  0
 18 19  1  0  0  0  0
 18 20  1  0  0  0  0
 20 21  2  0  0  0  0
 20 37  1  0  0  0  0
 21 22  1  0  0  0  0
 22 23  2  0  0  0  0
 22 24  1  0  0  0  0
 24 25  2  0  0  0  0
 24 29  1  0  0  0  0
 25 26  1  0  0  0  0
 25 38  1  0  0  0  0
 26 27  2  0  0  0  0
 26 39  1  0  0  0  0
 27 28  1  0  0  0  0
 27 40  1  0  0  0  0
 28 29  2  0  0  0  0
 28 41  1  0  0  0  0
 29 42  1  0  0  0  0
M  END
$$$$
