
 OpenBabel01122422463D

 42 45  0  0  0  0  0  0  0  0999 V2000
    0.9478    0.1038    0.3510 O   0  0  0  0  0  0  0  0  0  0  0  0
    2.1579    0.1040    0.1372 C   0  0  0  0  0  0  0  0  0  0  0  0
    2.7962   -0.6221   -0.8520 N   0  0  0  0  0  0  0  0  0  0  0  0
    2.1231   -1.4456   -1.7913 C   0  0  0  0  0  0  0  0  0  0  0  0
    0.7487   -1.3367   -2.0337 C   0  0  0  0  0  0  0  0  0  0  0  0
    0.0627   -2.2265   -2.8638 C   0  0  0  0  0  0  0  0  0  0  0  0
    0.8094   -3.2339   -3.4667 C   0  0  0  0  0  0  0  0  0  0  0  0
    2.1883   -3.3378   -3.3095 C   0  0  0  0  0  0  0  0  0  0  0  0
    2.8659   -2.4179   -2.4801 C   0  0  0  0  0  0  0  0  0  0  0  0
    2.5469   -4.4625   -4.0885 C   0  0  0  0  0  0  0  0  0  0  0  0
    1.5008   -5.0423   -4.6832 N   0  0  0  0  0  0  0  0  0  0  0  0
    0.4466   -4.2864   -4.2795 N   0  0  0  0  0  0  0  0  0  0  0  0
   -0.9151   -4.6246   -4.6768 C   0  0  0  0  0  0  0  0  0  0  0  0
   -1.7051   -4.8692   -3.5946 F   0  0  0  0  0  0  0  0  0  0  0  0
   -1.5024   -3.6023   -5.3588 F   0  0  0  0  0  0  0  0  0  0  0  0
    3.0404    0.9119    1.0344 C   0  0  0  0  0  0  0  0  0  0  0  0
    2.5420    1.1598    2.2589 C   0  0  0  0  0  0  0  0  0  0  0  0
    3.1311    2.0411    3.1676 N   0  0  0  0  0  0  0  0  0  0  0  0
    2.4940    2.3125    4.4451 C   0  0  0  0  0  0  0  0  0  0  0  0
    2.6276    3.5624    5.0733 C   0  0  0  0  0  0  0  0  0  0  0  0
    1.9938    3.8451    6.2912 C   0  0  0  0  0  0  0  0  0  0  0  0
    1.1994    2.8864    6.9100 C   0  0  0  0  0  0  0  0  0  0  0  0
    1.0394    1.6442    6.3087 C   0  0  0  0  0  0  0  0  0  0  0  0
    1.6798    1.3651    5.0982 C   0  0  0  0  0  0  0  0  0  0  0  0
    1.5273    0.1228    4.6125 F   0  0  0  0  0  0  0  0  0  0  0  0
    4.3205    2.7116    2.8099 C   0  0  0  0  0  0  0  0  0  0  0  0
    4.9814    3.4774    3.5097 O   0  0  0  0  0  0  0  0  0  0  0  0
    4.8515    2.4375    1.4395 C   0  0  0  0  0  0  0  0  0  0  0  0
    4.2439    1.5795    0.6113 C   0  0  0  0  0  0  0  0  0  0  0  0
    3.7995   -0.7104   -0.8023 H   0  0  0  0  0  0  0  0  0  0  0  0
    0.1524   -0.5519   -1.5761 H   0  0  0  0  0  0  0  0  0  0  0  0
   -1.0107   -2.1362   -2.9998 H   0  0  0  0  0  0  0  0  0  0  0  0
    3.9383   -2.5129   -2.3435 H   0  0  0  0  0  0  0  0  0  0  0  0
    3.5305   -4.8879   -4.2341 H   0  0  0  0  0  0  0  0  0  0  0  0
   -0.8981   -5.5145   -5.3123 H   0  0  0  0  0  0  0  0  0  0  0  0
    1.5927    0.7189    2.5501 H   0  0  0  0  0  0  0  0  0  0  0  0
    3.1974    4.3668    4.6155 H   0  0  0  0  0  0  0  0  0  0  0  0
    2.1217    4.8243    6.7473 H   0  0  0  0  0  0  0  0  0  0  0  0
    0.7109    3.1064    7.8556 H   0  0  0  0  0  0  0  0  0  0  0  0
    0.4275    0.8786    6.7766 H   0  0  0  0  0  0  0  0  0  0  0  0
    5.7436    2.9853    1.1611 H   0  0  0  0  0  0  0  0  0  0  0  0
    4.6290    1.4234   -0.3898 H   0  0  0  0  0  0  0  0  0  0  0  0
  1  2  2  0  0  0  0
  2  3  1  0  0  0  0
  2 16  1  0  0  0  0
  3  4  1  0  0  0  0
  3 30  1  0  0  0  0
  4  5  2  0  0  0  0
  4  9  1  0  0  0  0
  5  6  1  0  0  0  0
  5 31  1  0  0  0  0
  6  7  2  0  0  0  0
  6 32  1  0  0  0  0
  7  8  1  0  0  0  0
  7 12  1  0  0  0  0
  8  9  2  0  0  0  0
  8 10  1  0  0  0  0
  9 33  1  0  0  0  0
 10 11  2  0  0  0  0
 10 34  1  0  0  0  0
 11 12  1  0  0  0  0
 12 13  1  0  0  0  0
 13 14  1  0  0  0  0
 13 15  1  0  0  0  0
 13 35  1  0  0  0  0
 16 17  2  0  0  0  0
 16 29  1  0  0  0  0
 17 18  1  0  0  0  0
 17 36  1  0  0  0  0
 18 19  1  0  0  0  0
 18 26  1  0  0  0  0
 19 20  2  0  0  0  0
 19 24  1  0  0  0  0
 20 21  1  0  0  0  0
 20 37  1  0  0  0  0
 21 22  2  0  0  0  0
 21 38  1  0  0  0  0
 22 23  1  0  0  0  0
 22 39  1  0  0  0  0
 23 24  2  0  0  0  0
 23 40  1  0  0  0  0
 24 25  1  0  0  0  0
 26 27  2  0  0  0  0
 26 28  1  0  0  0  0
 28 29  2  0  0  0  0
 28 41  1  0  0  0  0
 29 42  1  0  0  0  0
M  END
$$$$
