
 OpenBabel01122422463D

 42 45  0  0  0  0  0  0  0  0999 V2000
    0.9017   -0.1093    0.2052 O   0  0  0  0  0  0  0  0  0  0  0  0
    2.1086   -0.0153   -0.0099 C   0  0  0  0  0  0  0  0  0  0  0  0
    2.7929   -0.6589   -1.0249 N   0  0  0  0  0  0  0  0  0  0  0  0
    2.1845   -1.3979   -2.0765 C   0  0  0  0  0  0  0  0  0  0  0  0
    0.8028   -1.2756   -2.3513 C   0  0  0  0  0  0  0  0  0  0  0  0
    0.3360   -2.0831   -3.3982 C   0  0  0  0  0  0  0  0  0  0  0  0
   -0.9043   -2.2014   -3.8977 N   0  0  0  0  0  0  0  0  0  0  0  0
   -0.7940   -3.1223   -4.8883 N   0  0  0  0  0  0  0  0  0  0  0  0
   -1.9663   -3.4934   -5.6730 C   0  0  0  0  0  0  0  0  0  0  0  0
   -1.7637   -3.2542   -6.9976 F   0  0  0  0  0  0  0  0  0  0  0  0
   -2.2359   -4.8221   -5.5566 F   0  0  0  0  0  0  0  0  0  0  0  0
    0.4810   -3.6066   -5.0524 C   0  0  0  0  0  0  0  0  0  0  0  0
    1.2297   -2.9470   -4.1175 C   0  0  0  0  0  0  0  0  0  0  0  0
    2.5955   -3.0908   -3.9103 C   0  0  0  0  0  0  0  0  0  0  0  0
    3.0395   -2.2582   -2.8516 C   0  0  0  0  0  0  0  0  0  0  0  0
    2.9472    0.8113    0.9178 C   0  0  0  0  0  0  0  0  0  0  0  0
    2.4341    1.0250    2.1433 C   0  0  0  0  0  0  0  0  0  0  0  0
    3.0122    1.8898    3.0790 N   0  0  0  0  0  0  0  0  0  0  0  0
    2.3838    2.1047    4.3695 C   0  0  0  0  0  0  0  0  0  0  0  0
    2.5316    3.3156    5.0690 C   0  0  0  0  0  0  0  0  0  0  0  0
    1.9220    3.5217    6.3125 C   0  0  0  0  0  0  0  0  0  0  0  0
    1.1496    2.5177    6.8729 C   0  0  0  0  0  0  0  0  0  0  0  0
    0.5743    2.7102    8.0666 F   0  0  0  0  0  0  0  0  0  0  0  0
    0.9667    1.3158    6.2073 C   0  0  0  0  0  0  0  0  0  0  0  0
    1.5761    1.1123    4.9622 C   0  0  0  0  0  0  0  0  0  0  0  0
    4.2023    2.5776    2.7485 C   0  0  0  0  0  0  0  0  0  0  0  0
    4.8583    3.3240    3.4724 O   0  0  0  0  0  0  0  0  0  0  0  0
    4.7423    2.3444    1.3757 C   0  0  0  0  0  0  0  0  0  0  0  0
    4.1456    1.5063    0.5209 C   0  0  0  0  0  0  0  0  0  0  0  0
    3.8020   -0.6980   -0.9694 H   0  0  0  0  0  0  0  0  0  0  0  0
    0.1211   -0.6189   -1.8340 H   0  0  0  0  0  0  0  0  0  0  0  0
   -2.8314   -2.9169   -5.3309 H   0  0  0  0  0  0  0  0  0  0  0  0
    0.7107   -4.3482   -5.8048 H   0  0  0  0  0  0  0  0  0  0  0  0
    3.2494   -3.7476   -4.4671 H   0  0  0  0  0  0  0  0  0  0  0  0
    4.1016   -2.3040   -2.6078 H   0  0  0  0  0  0  0  0  0  0  0  0
    1.4898    0.5658    2.4191 H   0  0  0  0  0  0  0  0  0  0  0  0
    3.0950    4.1456    4.6512 H   0  0  0  0  0  0  0  0  0  0  0  0
    2.0476    4.4635    6.8371 H   0  0  0  0  0  0  0  0  0  0  0  0
    0.3594    0.5390    6.6616 H   0  0  0  0  0  0  0  0  0  0  0  0
    1.4328    0.1415    4.4960 H   0  0  0  0  0  0  0  0  0  0  0  0
    5.6335    2.9031    1.1178 H   0  0  0  0  0  0  0  0  0  0  0  0
    4.5389    1.3863   -0.4824 H   0  0  0  0  0  0  0  0  0  0  0  0
  1  2  2  0  0  0  0
  2  3  1  0  0  0  0
  2 16  1  0  0  0  0
  3  4  1  0  0  0  0
  3 30  1  0  0  0  0
  4  5  2  0  0  0  0
  4 15  1  0  0  0  0
  5  6  1  0  0  0  0
  5 31  1  0  0  0  0
  6  7  2  0  0  0  0
  6 13  1  0  0  0  0
  7  8  1  0  0  0  0
  8  9  1  0  0  0  0
  8 12  1  0  0  0  0
  9 10  1  0  0  0  0
  9 11  1  0  0  0  0
  9 32  1  0  0  0  0
 12 13  2  0  0  0  0
 12 33  1  0  0  0  0
 13 14  1  0  0  0  0
 14 15  2  0  0  0  0
 14 34  1  0  0  0  0
 15 35  1  0  0  0  0
 16 17  2  0  0  0  0
 16 29  1  0  0  0  0
 17 18  1  0  0  0  0
 17 36  1  0  0  0  0
 18 19  1  0  0  0  0
 18 26  1  0  0  0  0
 19 20  2  0  0  0  0
 19 25  1  0  0  0  0
 20 21  1  0  0  0  0
 20 37  1  0  0  0  0
 21 22  2  0  0  0  0
 21 38  1  0  0  0  0
 22 23  1  0  0  0  0
 22 24  1  0  0  0  0
 24 25  2  0  0  0  0
 24 39  1  0  0  0  0
 25 40  1  0  0  0  0
 26 27  2  0  0  0  0
 26 28  1  0  0  0  0
 28 29  2  0  0  0  0
 28 41  1  0  0  0  0
 29 42  1  0  0  0  0
M  END
$$$$
