
 OpenBabel01122422463D

 40 43  0  0  0  0  0  0  0  0999 V2000
    0.9812   -0.2714   -0.5502 O   0  0  0  0  0  0  0  0  0  0  0  0
    2.1436   -0.1054   -0.1855 C   0  0  0  0  0  0  0  0  0  0  0  0
    2.7659   -0.7751    0.8610 N   0  0  0  0  0  0  0  0  0  0  0  0
    2.1734   -1.8213    1.6056 C   0  0  0  0  0  0  0  0  0  0  0  0
    1.0656   -2.5313    1.1248 C   0  0  0  0  0  0  0  0  0  0  0  0
    0.4543   -3.5180    1.8900 C   0  0  0  0  0  0  0  0  0  0  0  0
    0.9477   -3.8028    3.1515 C   0  0  0  0  0  0  0  0  0  0  0  0
    0.3210   -4.7549    3.8598 F   0  0  0  0  0  0  0  0  0  0  0  0
    2.0617   -3.1254    3.6662 C   0  0  0  0  0  0  0  0  0  0  0  0
    2.5204   -3.3849    5.0159 C   0  0  0  0  0  0  0  0  0  0  0  0
    1.7343   -3.8072    6.0622 C   0  0  0  0  0  0  0  0  0  0  0  0
    2.5777   -3.9168    7.1420 N   0  0  0  0  0  0  0  0  0  0  0  0
    2.2828   -4.3551    8.4547 C   0  0  0  0  0  0  0  0  0  0  0  0
    1.0117   -4.8291    8.7992 C   0  0  0  0  0  0  0  0  0  0  0  0
    0.0069   -4.8856    7.9155 F   0  0  0  0  0  0  0  0  0  0  0  0
    0.7282   -5.2814   10.0899 C   0  0  0  0  0  0  0  0  0  0  0  0
    1.7159   -5.2636   11.0683 C   0  0  0  0  0  0  0  0  0  0  0  0
    2.9833   -4.7867   10.7466 C   0  0  0  0  0  0  0  0  0  0  0  0
    3.2621   -4.3378    9.4521 C   0  0  0  0  0  0  0  0  0  0  0  0
    4.5012   -3.8823    9.2237 F   0  0  0  0  0  0  0  0  0  0  0  0
    3.8204   -3.5254    6.7561 N   0  0  0  0  0  0  0  0  0  0  0  0
    3.7917   -3.1987    5.4680 N   0  0  0  0  0  0  0  0  0  0  0  0
    2.6958   -2.1532    2.8656 C   0  0  0  0  0  0  0  0  0  0  0  0
    2.9468    0.9286   -0.8970 C   0  0  0  0  0  0  0  0  0  0  0  0
    2.3154    1.6789   -1.8713 C   0  0  0  0  0  0  0  0  0  0  0  0
    3.1055    2.5798   -2.5345 C   0  0  0  0  0  0  0  0  0  0  0  0
    4.4119    2.7369   -2.2694 N   0  0  0  0  0  0  0  0  0  0  0  0
    4.9216    1.9595   -1.2961 C   0  0  0  0  0  0  0  0  0  0  0  0
    4.2549    1.0498   -0.5692 N   0  0  0  0  0  0  0  0  0  0  0  0
    3.6645   -0.4025    1.1580 H   0  0  0  0  0  0  0  0  0  0  0  0
    0.6552   -2.3491    0.1364 H   0  0  0  0  0  0  0  0  0  0  0  0
   -0.4094   -4.0539    1.5105 H   0  0  0  0  0  0  0  0  0  0  0  0
    0.6801   -4.0245    6.1092 H   0  0  0  0  0  0  0  0  0  0  0  0
   -0.2694   -5.6490   10.3171 H   0  0  0  0  0  0  0  0  0  0  0  0
    1.4995   -5.6180   12.0730 H   0  0  0  0  0  0  0  0  0  0  0  0
    3.7686   -4.7587   11.4975 H   0  0  0  0  0  0  0  0  0  0  0  0
    3.5599   -1.6212    3.2588 H   0  0  0  0  0  0  0  0  0  0  0  0
    1.2649    1.5598   -2.1057 H   0  0  0  0  0  0  0  0  0  0  0  0
    2.6981    3.2085   -3.3222 H   0  0  0  0  0  0  0  0  0  0  0  0
    5.9805    2.0825   -1.0917 H   0  0  0  0  0  0  0  0  0  0  0  0
  1  2  2  0  0  0  0
  2  3  1  0  0  0  0
  2 24  1  0  0  0  0
  3  4  1  0  0  0  0
  3 30  1  0  0  0  0
  4  5  2  0  0  0  0
  4 23  1  0  0  0  0
  5  6  1  0  0  0  0
  5 31  1  0  0  0  0
  6  7  2  0  0  0  0
  6 32  1  0  0  0  0
  7  8  1  0  0  0  0
  7  9  1  0  0  0  0
  9 10  1  0  0  0  0
  9 23  2  0  0  0  0
 10 11  2  0  0  0  0
 10 22  1  0  0  0  0
 11 12  1  0  0  0  0
 11 33  1  0  0  0  0
 12 13  1  0  0  0  0
 12 21  1  0  0  0  0
 13 14  2  0  0  0  0
 13 19  1  0  0  0  0
 14 15  1  0  0  0  0
 14 16  1  0  0  0  0
 16 17  2  0  0  0  0
 16 34  1  0  0  0  0
 17 18  1  0  0  0  0
 17 35  1  0  0  0  0
 18 19  2  0  0  0  0
 18 36  1  0  0  0  0
 19 20  1  0  0  0  0
 21 22  2  0  0  0  0
 23 37  1  0  0  0  0
 24 25  2  0  0  0  0
 24 29  1  0  0  0  0
 25 26  1  0  0  0  0
 25 38  1  0  0  0  0
 26 27  2  0  0  0  0
 26 39  1  0  0  0  0
 27 28  1  0  0  0  0
 28 29  2  0  0  0  0
 28 40  1  0  0  0  0
M  END
$$$$
