
 OpenBabel01122422453D

 49 52  0  0  1  0  0  0  0  0999 V2000
    2.5663   -1.1151   -0.3866 C   0  0  0  0  0  0  0  0  0  0  0  0
    2.0915    0.1373    0.0939 O   0  0  0  0  0  0  0  0  0  0  0  0
    2.9724    0.8851    0.8275 C   0  0  0  0  0  0  0  0  0  0  0  0
    4.2800    0.5264    1.1513 C   0  0  0  0  0  0  0  0  0  0  0  0
    5.0814    1.3775    1.9296 C   0  0  0  0  0  0  0  0  0  0  0  0
    4.5975    2.6205    2.3724 C   0  0  0  0  0  0  0  0  0  0  0  0
    5.4517    3.5447    3.2570 C   0  0  3  0  0  0  0  0  0  0  0  0
    5.6224    4.8200    2.5726 N   0  0  0  0  0  0  0  0  0  0  0  0
    6.6844    5.0687    1.7369 C   0  0  0  0  0  0  0  0  0  0  0  0
    7.5573    4.2429    1.5323 O   0  0  0  0  0  0  0  0  0  0  0  0
    6.6790    6.4036    1.1713 C   0  0  0  0  0  0  0  0  0  0  0  0
    6.1537    7.5714    1.6983 C   0  0  0  0  0  0  0  0  0  0  0  0
    6.6608    8.6020    0.8970 C   0  0  0  0  0  0  0  0  0  0  0  0
    7.4349    8.1423   -0.0832 N   0  0  0  0  0  0  0  0  0  0  0  0
    7.3522    6.7871    0.0189 N   0  0  0  0  0  0  0  0  0  0  0  0
    7.8751    5.9762   -1.0108 C   0  0  0  0  0  0  0  0  0  0  0  0
    7.3309    4.7233   -1.3022 C   0  0  0  0  0  0  0  0  0  0  0  0
    7.9155    3.9426   -2.2930 C   0  0  0  0  0  0  0  0  0  0  0  0
    9.0203    4.4472   -2.9547 C   0  0  0  0  0  0  0  0  0  0  0  0
    9.5435    5.6729   -2.7274 N   0  0  0  0  0  0  0  0  0  0  0  0
    8.9483    6.4233   -1.7684 C   0  0  0  0  0  0  0  0  0  0  0  0
    4.8603    3.7588    4.6705 C   0  0  0  0  0  0  0  0  0  0  0  0
    4.1486    2.7170    5.2978 C   0  0  0  0  0  0  0  0  0  0  0  0
    3.5290    2.8994    6.5366 C   0  0  0  0  0  0  0  0  0  0  0  0
    3.6575    4.1109    7.1964 C   0  0  0  0  0  0  0  0  0  0  0  0
    3.0444    4.2919    8.3732 F   0  0  0  0  0  0  0  0  0  0  0  0
    4.4125    5.1373    6.6443 C   0  0  0  0  0  0  0  0  0  0  0  0
    5.0210    4.9618    5.3931 C   0  0  0  0  0  0  0  0  0  0  0  0
    3.2902    2.9842    2.0052 C   0  0  0  0  0  0  0  0  0  0  0  0
    2.4834    2.1167    1.2616 C   0  0  0  0  0  0  0  0  0  0  0  0
    1.7730   -1.5693   -0.9883 H   0  0  0  0  0  0  0  0  0  0  0  0
    2.7889   -1.7937    0.4435 H   0  0  0  0  0  0  0  0  0  0  0  0
    3.4387   -0.9852   -1.0358 H   0  0  0  0  0  0  0  0  0  0  0  0
    4.7123   -0.4066    0.8065 H   0  0  0  0  0  0  0  0  0  0  0  0
    6.0873    1.0476    2.1806 H   0  0  0  0  0  0  0  0  0  0  0  0
    6.4418    3.0929    3.3933 H   0  0  0  0  0  0  0  0  0  0  0  0
    4.8275    5.4365    2.5397 H   0  0  0  0  0  0  0  0  0  0  0  0
    5.5725    7.6754    2.6038 H   0  0  0  0  0  0  0  0  0  0  0  0
    6.5296    9.6717    1.0060 H   0  0  0  0  0  0  0  0  0  0  0  0
    6.4545    4.3401   -0.7883 H   0  0  0  0  0  0  0  0  0  0  0  0
    7.5151    2.9642   -2.5329 H   0  0  0  0  0  0  0  0  0  0  0  0
    9.5268    3.8608   -3.7136 H   0  0  0  0  0  0  0  0  0  0  0  0
    9.4042    7.3970   -1.6038 H   0  0  0  0  0  0  0  0  0  0  0  0
    4.0353    1.7514    4.8077 H   0  0  0  0  0  0  0  0  0  0  0  0
    2.9336    2.1056    6.9772 H   0  0  0  0  0  0  0  0  0  0  0  0
    4.5090    6.0728    7.1894 H   0  0  0  0  0  0  0  0  0  0  0  0
    5.6062    5.7876    4.9943 H   0  0  0  0  0  0  0  0  0  0  0  0
    2.8787    3.9428    2.3086 H   0  0  0  0  0  0  0  0  0  0  0  0
    1.4671    2.4112    1.0136 H   0  0  0  0  0  0  0  0  0  0  0  0
  1  2  1  0  0  0  0
  1 31  1  0  0  0  0
  1 32  1  0  0  0  0
  1 33  1  0  0  0  0
  2  3  1  0  0  0  0
  3  4  2  0  0  0  0
  3 30  1  0  0  0  0
  4  5  1  0  0  0  0
  4 34  1  0  0  0  0
  5  6  2  0  0  0  0
  5 35  1  0  0  0  0
  6  7  1  0  0  0  0
  6 29  1  0  0  0  0
  7  8  1  0  0  0  0
  7 22  1  0  0  0  0
  7 36  1  0  0  0  0
  8  9  1  0  0  0  0
  8 37  1  0  0  0  0
  9 10  2  0  0  0  0
  9 11  1  0  0  0  0
 11 12  2  0  0  0  0
 11 15  1  0  0  0  0
 12 13  1  0  0  0  0
 12 38  1  0  0  0  0
 13 14  2  0  0  0  0
 13 39  1  0  0  0  0
 14 15  1  0  0  0  0
 15 16  1  0  0  0  0
 16 17  2  0  0  0  0
 16 21  1  0  0  0  0
 17 18  1  0  0  0  0
 17 40  1  0  0  0  0
 18 19  2  0  0  0  0
 18 41  1  0  0  0  0
 19 20  1  0  0  0  0
 19 42  1  0  0  0  0
 20 21  2  0  0  0  0
 21 43  1  0  0  0  0
 22 23  2  0  0  0  0
 22 28  1  0  0  0  0
 23 24  1  0  0  0  0
 23 44  1  0  0  0  0
 24 25  2  0  0  0  0
 24 45  1  0  0  0  0
 25 26  1  0  0  0  0
 25 27  1  0  0  0  0
 27 28  2  0  0  0  0
 27 46  1  0  0  0  0
 28 47  1  0  0  0  0
 29 30  2  0  0  0  0
 29 48  1  0  0  0  0
 30 49  1  0  0  0  0
M  END
$$$$
