
 OpenBabel01122422463D

 50 53  0  0  0  0  0  0  0  0999 V2000
    3.6897    0.0220    2.9956 N   0  0  0  0  0  0  0  0  0  0  0  0
    2.7802   -0.5312    2.1504 C   0  0  0  0  0  0  0  0  0  0  0  0
    1.5807   -0.5224    2.4281 O   0  0  0  0  0  0  0  0  0  0  0  0
    3.3165   -1.1334    0.8526 C   0  0  0  0  0  0  0  0  0  0  0  0
    4.7624   -1.0420    0.5681 N   0  0  0  0  0  0  0  0  0  0  0  0
    5.1881    0.0721   -0.2711 C   0  0  0  0  0  0  0  0  0  0  0  0
    5.7061    1.2938    0.4451 C   0  0  0  0  0  0  0  0  0  0  0  0
    7.0676    1.4267    0.7414 C   0  0  0  0  0  0  0  0  0  0  0  0
    7.5879    2.6546    1.1782 C   0  0  0  0  0  0  0  0  0  0  0  0
    6.7722    3.7892    1.3382 C   0  0  0  0  0  0  0  0  0  0  0  0
    7.3351    5.1192    1.6969 C   0  0  0  0  0  0  0  0  0  0  0  0
    8.6198    5.5169    1.2779 C   0  0  0  0  0  0  0  0  0  0  0  0
    9.1403    6.7767    1.5993 C   0  0  0  0  0  0  0  0  0  0  0  0
    8.3830    7.6790    2.3380 C   0  0  0  0  0  0  0  0  0  0  0  0
    7.1075    7.3198    2.7577 C   0  0  0  0  0  0  0  0  0  0  0  0
    6.5953    6.0551    2.4450 C   0  0  0  0  0  0  0  0  0  0  0  0
    5.3956    3.6120    1.1056 C   0  0  0  0  0  0  0  0  0  0  0  0
    4.8673    2.3866    0.6771 C   0  0  0  0  0  0  0  0  0  0  0  0
    5.5397   -2.0999    1.0573 C   0  0  0  0  0  0  0  0  0  0  0  0
    5.1673   -2.6639    2.0898 O   0  0  0  0  0  0  0  0  0  0  0  0
    6.6638   -2.6689    0.3002 C   0  0  0  0  0  0  0  0  0  0  0  0
    7.0758   -2.4116   -0.9953 C   0  0  0  0  0  0  0  0  0  0  0  0
    7.9166   -3.3680   -1.4600 O   0  0  0  0  0  0  0  0  0  0  0  0
    8.0628   -4.2768   -0.4701 C   0  0  0  0  0  0  0  0  0  0  0  0
    8.6997   -5.5063   -0.6150 C   0  0  0  0  0  0  0  0  0  0  0  0
    8.7463   -6.3224    0.5152 C   0  0  0  0  0  0  0  0  0  0  0  0
    8.2368   -5.8679    1.7301 C   0  0  0  0  0  0  0  0  0  0  0  0
    8.3279   -6.6444    2.8515 O   0  0  0  0  0  0  0  0  0  0  0  0
    7.5813   -4.6334    1.8450 C   0  0  0  0  0  0  0  0  0  0  0  0
    7.4381   -3.8341    0.6890 C   0  0  0  0  0  0  0  0  0  0  0  0
    3.3538    0.2878    3.9117 H   0  0  0  0  0  0  0  0  0  0  0  0
    4.6655   -0.2382    2.9121 H   0  0  0  0  0  0  0  0  0  0  0  0
    2.7674   -0.6705    0.0250 H   0  0  0  0  0  0  0  0  0  0  0  0
    3.0365   -2.1951    0.8560 H   0  0  0  0  0  0  0  0  0  0  0  0
    4.3577    0.3587   -0.9277 H   0  0  0  0  0  0  0  0  0  0  0  0
    5.9721   -0.2223   -0.9542 H   0  0  0  0  0  0  0  0  0  0  0  0
    7.7536    0.5978    0.5773 H   0  0  0  0  0  0  0  0  0  0  0  0
    8.6583    2.7165    1.3660 H   0  0  0  0  0  0  0  0  0  0  0  0
    9.2343    4.8551    0.6718 H   0  0  0  0  0  0  0  0  0  0  0  0
   10.1365    7.0527    1.2636 H   0  0  0  0  0  0  0  0  0  0  0  0
    8.7846    8.6586    2.5829 H   0  0  0  0  0  0  0  0  0  0  0  0
    6.5057    8.0209    3.3304 H   0  0  0  0  0  0  0  0  0  0  0  0
    5.5988    5.8104    2.8057 H   0  0  0  0  0  0  0  0  0  0  0  0
    4.7077    4.4490    1.2060 H   0  0  0  0  0  0  0  0  0  0  0  0
    3.8002    2.3193    0.4740 H   0  0  0  0  0  0  0  0  0  0  0  0
    6.8180   -1.7012   -1.7622 H   0  0  0  0  0  0  0  0  0  0  0  0
    9.0832   -5.8265   -1.5758 H   0  0  0  0  0  0  0  0  0  0  0  0
    9.1799   -7.3140    0.4242 H   0  0  0  0  0  0  0  0  0  0  0  0
    8.7859   -7.4713    2.6246 H   0  0  0  0  0  0  0  0  0  0  0  0
    7.1615   -4.3268    2.7993 H   0  0  0  0  0  0  0  0  0  0  0  0
  1  2  1  0  0  0  0
  1 31  1  0  0  0  0
  1 32  1  0  0  0  0
  2  3  2  0  0  0  0
  2  4  1  0  0  0  0
  4  5  1  0  0  0  0
  4 33  1  0  0  0  0
  4 34  1  0  0  0  0
  5  6  1  0  0  0  0
  5 19  1  0  0  0  0
  6  7  1  0  0  0  0
  6 35  1  0  0  0  0
  6 36  1  0  0  0  0
  7  8  2  0  0  0  0
  7 18  1  0  0  0  0
  8  9  1  0  0  0  0
  8 37  1  0  0  0  0
  9 10  2  0  0  0  0
  9 38  1  0  0  0  0
 10 11  1  0  0  0  0
 10 17  1  0  0  0  0
 11 12  2  0  0  0  0
 11 16  1  0  0  0  0
 12 13  1  0  0  0  0
 12 39  1  0  0  0  0
 13 14  2  0  0  0  0
 13 40  1  0  0  0  0
 14 15  1  0  0  0  0
 14 41  1  0  0  0  0
 15 16  2  0  0  0  0
 15 42  1  0  0  0  0
 16 43  1  0  0  0  0
 17 18  2  0  0  0  0
 17 44  1  0  0  0  0
 18 45  1  0  0  0  0
 19 20  2  0  0  0  0
 19 21  1  0  0  0  0
 21 22  2  0  0  0  0
 21 30  1  0  0  0  0
 22 23  1  0  0  0  0
 22 46  1  0  0  0  0
 23 24  1  0  0  0  0
 24 25  2  0  0  0  0
 24 30  1  0  0  0  0
 25 26  1  0  0  0  0
 25 47  1  0  0  0  0
 26 27  2  0  0  0  0
 26 48  1  0  0  0  0
 27 28  1  0  0  0  0
 27 29  1  0  0  0  0
 28 49  1  0  0  0  0
 29 30  2  0  0  0  0
 29 50  1  0  0  0  0
M  END
$$$$
