
 OpenBabel01122422463D

 48 51  0  0  1  0  0  0  0  0999 V2000
    1.0025    0.2066    0.2886 O   0  0  0  0  0  0  0  0  0  0  0  0
    2.2242    0.0836    0.1414 C   0  0  0  0  0  0  0  0  0  0  0  0
    2.8930    0.8040   -0.8292 N   0  0  0  0  0  0  0  0  0  0  0  0
    2.2156    1.8185   -1.6186 C   0  0  0  0  0  0  0  0  0  0  0  0
    3.1397    2.6064   -2.5324 C   0  0  0  0  0  0  0  0  0  0  0  0
    4.4676    2.2739   -2.4032 N   0  0  0  0  0  0  0  0  0  0  0  0
    5.3606    2.8904   -3.2014 C   0  0  0  0  0  0  0  0  0  0  0  0
    5.0135    3.8439   -4.1302 C   0  0  0  0  0  0  0  0  0  0  0  0
    3.6697    4.1960   -4.2383 C   0  0  0  0  0  0  0  0  0  0  0  0
    2.6711    3.5862   -3.4455 C   0  0  0  0  0  0  0  0  0  0  0  0
    1.2384    3.9724   -3.6515 C   0  0  0  0  0  0  0  0  0  0  0  0
    0.7528    4.3238   -4.9335 C   0  0  0  0  0  0  0  0  0  0  0  0
   -0.5947    4.6396   -5.1562 C   0  0  0  0  0  0  0  0  0  0  0  0
   -1.4957    4.5760   -4.1071 C   0  0  0  0  0  0  0  0  0  0  0  0
   -2.7920    4.8289   -4.3230 F   0  0  0  0  0  0  0  0  0  0  0  0
   -1.0602    4.2660   -2.8316 C   0  0  0  0  0  0  0  0  0  0  0  0
    0.2984    4.0168   -2.6066 C   0  0  0  0  0  0  0  0  0  0  0  0
    3.0923   -0.8413    0.9995 C   0  0  3  0  0  0  0  0  0  0  0  0
    2.9548   -0.6218    2.5079 C   0  0  0  0  0  0  0  0  0  0  0  0
    1.7160   -0.6531    3.1707 C   0  0  0  0  0  0  0  0  0  0  0  0
    1.6282   -0.4197    4.5473 C   0  0  0  0  0  0  0  0  0  0  0  0
    2.7761   -0.1537    5.2876 C   0  0  0  0  0  0  0  0  0  0  0  0
    4.0156   -0.1315    4.6543 C   0  0  0  0  0  0  0  0  0  0  0  0
    4.1056   -0.3668    3.2787 C   0  0  0  0  0  0  0  0  0  0  0  0
    2.8959   -2.2460    0.6150 N   0  0  0  0  0  0  0  0  0  0  0  0
    1.7357   -2.9754    0.6041 C   0  0  0  0  0  0  0  0  0  0  0  0
    2.0606   -4.2225    0.1244 C   0  0  0  0  0  0  0  0  0  0  0  0
    3.4359   -4.1496   -0.1488 C   0  0  0  0  0  0  0  0  0  0  0  0
    3.9534   -2.9552    0.1434 N   0  0  0  0  0  0  0  0  0  0  0  0
    3.8994    0.7355   -0.9742 H   0  0  0  0  0  0  0  0  0  0  0  0
    1.7760    2.4872   -0.8773 H   0  0  0  0  0  0  0  0  0  0  0  0
    1.4312    1.3214   -2.1982 H   0  0  0  0  0  0  0  0  0  0  0  0
    6.3946    2.5843   -3.0709 H   0  0  0  0  0  0  0  0  0  0  0  0
    5.7664    4.3078   -4.7603 H   0  0  0  0  0  0  0  0  0  0  0  0
    3.4137    4.9643   -4.9650 H   0  0  0  0  0  0  0  0  0  0  0  0
    1.4168    4.3517   -5.7952 H   0  0  0  0  0  0  0  0  0  0  0  0
   -0.9442    4.9185   -6.1458 H   0  0  0  0  0  0  0  0  0  0  0  0
   -1.7705    4.2248   -2.0113 H   0  0  0  0  0  0  0  0  0  0  0  0
    0.5886    3.8714   -1.5730 H   0  0  0  0  0  0  0  0  0  0  0  0
    4.1367   -0.6200    0.7354 H   0  0  0  0  0  0  0  0  0  0  0  0
    0.7950   -0.8483    2.6248 H   0  0  0  0  0  0  0  0  0  0  0  0
    0.6590   -0.4419    5.0396 H   0  0  0  0  0  0  0  0  0  0  0  0
    2.7054    0.0344    6.3560 H   0  0  0  0  0  0  0  0  0  0  0  0
    4.9150    0.0690    5.2314 H   0  0  0  0  0  0  0  0  0  0  0  0
    5.0894   -0.3475    2.8138 H   0  0  0  0  0  0  0  0  0  0  0  0
    0.7924   -2.5563    0.9249 H   0  0  0  0  0  0  0  0  0  0  0  0
    1.3947   -5.0615   -0.0182 H   0  0  0  0  0  0  0  0  0  0  0  0
    4.0828   -4.9183   -0.5531 H   0  0  0  0  0  0  0  0  0  0  0  0
  1  2  2  0  0  0  0
  2  3  1  0  0  0  0
  2 18  1  0  0  0  0
  3  4  1  0  0  0  0
  3 30  1  0  0  0  0
  4  5  1  0  0  0  0
  4 31  1  0  0  0  0
  4 32  1  0  0  0  0
  5  6  2  0  0  0  0
  5 10  1  0  0  0  0
  6  7  1  0  0  0  0
  7  8  2  0  0  0  0
  7 33  1  0  0  0  0
  8  9  1  0  0  0  0
  8 34  1  0  0  0  0
  9 10  2  0  0  0  0
  9 35  1  0  0  0  0
 10 11  1  0  0  0  0
 11 12  2  0  0  0  0
 11 17  1  0  0  0  0
 12 13  1  0  0  0  0
 12 36  1  0  0  0  0
 13 14  2  0  0  0  0
 13 37  1  0  0  0  0
 14 15  1  0  0  0  0
 14 16  1  0  0  0  0
 16 17  2  0  0  0  0
 16 38  1  0  0  0  0
 17 39  1  0  0  0  0
 18 19  1  0  0  0  0
 18 25  1  0  0  0  0
 18 40  1  0  0  0  0
 19 20  2  0  0  0  0
 19 24  1  0  0  0  0
 20 21  1  0  0  0  0
 20 41  1  0  0  0  0
 21 22  2  0  0  0  0
 21 42  1  0  0  0  0
 22 23  1  0  0  0  0
 22 43  1  0  0  0  0
 23 24  2  0  0  0  0
 23 44  1  0  0  0  0
 24 45  1  0  0  0  0
 25 26  1  0  0  0  0
 25 29  1  0  0  0  0
 26 27  2  0  0  0  0
 26 46  1  0  0  0  0
 27 28  1  0  0  0  0
 27 47  1  0  0  0  0
 28 29  2  0  0  0  0
 28 48  1  0  0  0  0
M  END
$$$$
