
 OpenBabel01122422463D

 55 58  0  0  0  0  0  0  0  0999 V2000
    1.0671    0.6712    0.6494 C   0  0  0  0  0  0  0  0  0  0  0  0
    2.4837    0.5118    0.3361 N   0  0  0  0  0  0  0  0  0  0  0  0
    2.9772    1.0443   -0.9363 C   0  0  0  0  0  0  0  0  0  0  0  0
    2.1698    2.0821   -1.7336 C   0  0  0  0  0  0  0  0  0  0  0  0
    1.1203    1.7768   -2.3034 O   0  0  0  0  0  0  0  0  0  0  0  0
    2.6022    3.3740   -1.8004 N   0  0  0  0  0  0  0  0  0  0  0  0
    3.8574    3.9089   -1.3073 C   0  0  0  0  0  0  0  0  0  0  0  0
    5.0122    3.6474   -2.2710 C   0  0  0  0  0  0  0  0  0  0  0  0
    4.8431    3.6432   -3.6670 C   0  0  0  0  0  0  0  0  0  0  0  0
    5.9234    3.3984   -4.5190 C   0  0  0  0  0  0  0  0  0  0  0  0
    7.1881    3.1560   -3.9892 C   0  0  0  0  0  0  0  0  0  0  0  0
    7.3763    3.1632   -2.6093 C   0  0  0  0  0  0  0  0  0  0  0  0
    6.2993    3.4123   -1.7562 C   0  0  0  0  0  0  0  0  0  0  0  0
    3.6962    5.3453   -0.8416 C   0  0  0  0  0  0  0  0  0  0  0  0
    3.2109    5.5702    0.4615 C   0  0  0  0  0  0  0  0  0  0  0  0
    3.1783    6.8541    1.0028 C   0  0  0  0  0  0  0  0  0  0  0  0
    3.5998    7.9372    0.2384 C   0  0  0  0  0  0  0  0  0  0  0  0
    4.0081    7.7413   -1.0799 C   0  0  0  0  0  0  0  0  0  0  0  0
    4.0454    6.4546   -1.6234 C   0  0  0  0  0  0  0  0  0  0  0  0
    3.1932   -0.4010    1.1404 C   0  0  0  0  0  0  0  0  0  0  0  0
    2.6492   -0.9619    2.0960 O   0  0  0  0  0  0  0  0  0  0  0  0
    4.6493   -0.6946    0.9362 C   0  0  0  0  0  0  0  0  0  0  0  0
    5.2771   -0.8016   -0.3039 C   0  0  0  0  0  0  0  0  0  0  0  0
    6.6420   -1.0261   -0.3489 C   0  0  0  0  0  0  0  0  0  0  0  0
    7.3967   -1.2103    0.7435 N   0  0  0  0  0  0  0  0  0  0  0  0
    6.7705   -1.2009    1.9478 C   0  0  0  0  0  0  0  0  0  0  0  0
    7.6175   -1.5166    3.1048 C   0  0  0  0  0  0  0  0  0  0  0  0
    7.1656   -1.5347    4.3719 N   0  0  0  0  0  0  0  0  0  0  0  0
    8.2351   -1.8867    5.1063 N   0  0  0  0  0  0  0  0  0  0  0  0
    9.3632   -2.0864    4.3719 C   0  0  0  0  0  0  0  0  0  0  0  0
    8.9993   -1.8599    3.0685 C   0  0  0  0  0  0  0  0  0  0  0  0
    5.4123   -0.9390    2.0845 C   0  0  0  0  0  0  0  0  0  0  0  0
    0.6623    1.5922    0.2257 H   0  0  0  0  0  0  0  0  0  0  0  0
    0.9310    0.7310    1.7352 H   0  0  0  0  0  0  0  0  0  0  0  0
    0.5156   -0.1954    0.2737 H   0  0  0  0  0  0  0  0  0  0  0  0
    3.0512    0.1956   -1.6215 H   0  0  0  0  0  0  0  0  0  0  0  0
    3.9894    1.4018   -0.7582 H   0  0  0  0  0  0  0  0  0  0  0  0
    2.0446    3.9651   -2.4034 H   0  0  0  0  0  0  0  0  0  0  0  0
    4.0998    3.3486   -0.3973 H   0  0  0  0  0  0  0  0  0  0  0  0
    3.8678    3.8340   -4.1087 H   0  0  0  0  0  0  0  0  0  0  0  0
    5.7776    3.3993   -5.5969 H   0  0  0  0  0  0  0  0  0  0  0  0
    8.0283    2.9650   -4.6523 H   0  0  0  0  0  0  0  0  0  0  0  0
    8.3648    2.9790   -2.1953 H   0  0  0  0  0  0  0  0  0  0  0  0
    6.4740    3.4229   -0.6813 H   0  0  0  0  0  0  0  0  0  0  0  0
    2.8836    4.7333    1.0772 H   0  0  0  0  0  0  0  0  0  0  0  0
    2.8430    7.0034    2.0260 H   0  0  0  0  0  0  0  0  0  0  0  0
    3.6102    8.9344    0.6700 H   0  0  0  0  0  0  0  0  0  0  0  0
    4.3210    8.5917   -1.6806 H   0  0  0  0  0  0  0  0  0  0  0  0
    4.3876    6.3339   -2.6482 H   0  0  0  0  0  0  0  0  0  0  0  0
    4.7580   -0.7404   -1.2459 H   0  0  0  0  0  0  0  0  0  0  0  0
    7.1743   -1.0545   -1.2938 H   0  0  0  0  0  0  0  0  0  0  0  0
    8.1217   -1.9699    6.1114 H   0  0  0  0  0  0  0  0  0  0  0  0
   10.3014   -2.3697    4.8263 H   0  0  0  0  0  0  0  0  0  0  0  0
    9.6266   -1.9309    2.1903 H   0  0  0  0  0  0  0  0  0  0  0  0
    4.9504   -0.9447    3.0681 H   0  0  0  0  0  0  0  0  0  0  0  0
  1  2  1  0  0  0  0
  1 33  1  0  0  0  0
  1 34  1  0  0  0  0
  1 35  1  0  0  0  0
  2  3  1  0  0  0  0
  2 20  1  0  0  0  0
  3  4  1  0  0  0  0
  3 36  1  0  0  0  0
  3 37  1  0  0  0  0
  4  5  2  0  0  0  0
  4  6  1  0  0  0  0
  6  7  1  0  0  0  0
  6 38  1  0  0  0  0
  7  8  1  0  0  0  0
  7 14  1  0  0  0  0
  7 39  1  0  0  0  0
  8  9  2  0  0  0  0
  8 13  1  0  0  0  0
  9 10  1  0  0  0  0
  9 40  1  0  0  0  0
 10 11  2  0  0  0  0
 10 41  1  0  0  0  0
 11 12  1  0  0  0  0
 11 42  1  0  0  0  0
 12 13  2  0  0  0  0
 12 43  1  0  0  0  0
 13 44  1  0  0  0  0
 14 15  2  0  0  0  0
 14 19  1  0  0  0  0
 15 16  1  0  0  0  0
 15 45  1  0  0  0  0
 16 17  2  0  0  0  0
 16 46  1  0  0  0  0
 17 18  1  0  0  0  0
 17 47  1  0  0  0  0
 18 19  2  0  0  0  0
 18 48  1  0  0  0  0
 19 49  1  0  0  0  0
 20 21  2  0  0  0  0
 20 22  1  0  0  0  0
 22 23  2  0  0  0  0
 22 32  1  0  0  0  0
 23 24  1  0  0  0  0
 23 50  1  0  0  0  0
 24 25  2  0  0  0  0
 24 51  1  0  0  0  0
 25 26  1  0  0  0  0
 26 27  1  0  0  0  0
 26 32  2  0  0  0  0
 27 28  2  0  0  0  0
 27 31  1  0  0  0  0
 28 29  1  0  0  0  0
 29 30  1  0  0  0  0
 29 52  1  0  0  0  0
 30 31  2  0  0  0  0
 30 53  1  0  0  0  0
 31 54  1  0  0  0  0
 32 55  1  0  0  0  0
M  END
$$$$
