
 OpenBabel01122422453D

 49 52  0  0  1  0  0  0  0  0999 V2000
    1.6841   -0.0079    1.8974 O   0  0  0  0  0  0  0  0  0  0  0  0
    2.5767    0.0411    1.0551 C   0  0  0  0  0  0  0  0  0  0  0  0
    2.9364   -1.0436    0.2919 N   0  0  0  0  0  0  0  0  0  0  0  0
    2.2694   -2.3370    0.4212 C   0  0  3  0  0  0  0  0  0  0  0  0
    1.6152   -2.6274   -0.9361 C   0  0  0  0  0  0  0  0  0  0  0  0
    2.1791   -3.2630   -1.8327 O   0  0  0  0  0  0  0  0  0  0  0  0
    0.2680   -1.9708   -1.1913 C   0  0  0  0  0  0  0  0  0  0  0  0
   -0.9094   -2.7775   -0.7112 C   0  0  0  0  0  0  0  0  0  0  0  0
   -1.7970   -2.2502    0.2376 C   0  0  0  0  0  0  0  0  0  0  0  0
   -2.9039   -2.9899    0.6599 C   0  0  0  0  0  0  0  0  0  0  0  0
   -3.1371   -4.2597    0.1359 C   0  0  0  0  0  0  0  0  0  0  0  0
   -2.2705   -4.7867   -0.8194 C   0  0  0  0  0  0  0  0  0  0  0  0
   -1.1643   -4.0488   -1.2440 C   0  0  0  0  0  0  0  0  0  0  0  0
    3.2214   -3.4270    0.8968 C   0  0  0  0  0  0  0  0  0  0  0  0
    2.7481   -4.4518    1.7347 C   0  0  0  0  0  0  0  0  0  0  0  0
    3.6079   -5.4518    2.2058 C   0  0  0  0  0  0  0  0  0  0  0  0
    4.9525   -5.4458    1.8413 C   0  0  0  0  0  0  0  0  0  0  0  0
    5.4340   -4.4497    0.9980 C   0  0  0  0  0  0  0  0  0  0  0  0
    4.5759   -3.4540    0.5233 C   0  0  0  0  0  0  0  0  0  0  0  0
    3.3126    1.3223    0.7988 C   0  0  0  0  0  0  0  0  0  0  0  0
    2.9990    2.4258    1.5925 C   0  0  0  0  0  0  0  0  0  0  0  0
    3.6704    3.6215    1.3713 C   0  0  0  0  0  0  0  0  0  0  0  0
    4.6289    3.6731    0.3644 C   0  0  0  0  0  0  0  0  0  0  0  0
    5.3836    4.9134    0.0855 C   0  0  0  0  0  0  0  0  0  0  0  0
    5.2012    5.9360    0.7365 O   0  0  0  0  0  0  0  0  0  0  0  0
    6.2960    4.8490   -0.9444 N   0  0  0  0  0  0  0  0  0  0  0  0
    6.5335    3.7276   -1.6988 C   0  0  0  0  0  0  0  0  0  0  0  0
    5.8701    2.5867   -1.4697 C   0  0  0  0  0  0  0  0  0  0  0  0
    4.8769    2.5293   -0.3948 C   0  0  0  0  0  0  0  0  0  0  0  0
    4.2392    1.3400   -0.2042 N   0  0  0  0  0  0  0  0  0  0  0  0
    3.6334   -0.9004   -0.4336 H   0  0  0  0  0  0  0  0  0  0  0  0
    1.4667   -2.2563    1.1643 H   0  0  0  0  0  0  0  0  0  0  0  0
    0.1686   -1.8007   -2.2706 H   0  0  0  0  0  0  0  0  0  0  0  0
    0.2736   -0.9731   -0.7373 H   0  0  0  0  0  0  0  0  0  0  0  0
   -1.6415   -1.2553    0.6513 H   0  0  0  0  0  0  0  0  0  0  0  0
   -3.5878   -2.5730    1.3951 H   0  0  0  0  0  0  0  0  0  0  0  0
   -3.9972   -4.8360    0.4669 H   0  0  0  0  0  0  0  0  0  0  0  0
   -2.4584   -5.7717   -1.2392 H   0  0  0  0  0  0  0  0  0  0  0  0
   -0.5056   -4.4703   -2.0022 H   0  0  0  0  0  0  0  0  0  0  0  0
    1.7034   -4.4818    2.0396 H   0  0  0  0  0  0  0  0  0  0  0  0
    3.2288   -6.2340    2.8593 H   0  0  0  0  0  0  0  0  0  0  0  0
    5.6222   -6.2173    2.2118 H   0  0  0  0  0  0  0  0  0  0  0  0
    6.4811   -4.4459    0.7056 H   0  0  0  0  0  0  0  0  0  0  0  0
    4.9833   -2.6984   -0.1424 H   0  0  0  0  0  0  0  0  0  0  0  0
    2.2444    2.3549    2.3723 H   0  0  0  0  0  0  0  0  0  0  0  0
    3.4512    4.4998    1.9760 H   0  0  0  0  0  0  0  0  0  0  0  0
    6.8087    5.7071   -1.1272 H   0  0  0  0  0  0  0  0  0  0  0  0
    7.2760    3.8234   -2.4820 H   0  0  0  0  0  0  0  0  0  0  0  0
    6.0450    1.6936   -2.0600 H   0  0  0  0  0  0  0  0  0  0  0  0
  1  2  2  0  0  0  0
  2  3  1  0  0  0  0
  2 20  1  0  0  0  0
  3  4  1  0  0  0  0
  3 31  1  0  0  0  0
  4  5  1  0  0  0  0
  4 14  1  0  0  0  0
  4 32  1  0  0  0  0
  5  6  2  0  0  0  0
  5  7  1  0  0  0  0
  7  8  1  0  0  0  0
  7 33  1  0  0  0  0
  7 34  1  0  0  0  0
  8  9  2  0  0  0  0
  8 13  1  0  0  0  0
  9 10  1  0  0  0  0
  9 35  1  0  0  0  0
 10 11  2  0  0  0  0
 10 36  1  0  0  0  0
 11 12  1  0  0  0  0
 11 37  1  0  0  0  0
 12 13  2  0  0  0  0
 12 38  1  0  0  0  0
 13 39  1  0  0  0  0
 14 15  2  0  0  0  0
 14 19  1  0  0  0  0
 15 16  1  0  0  0  0
 15 40  1  0  0  0  0
 16 17  2  0  0  0  0
 16 41  1  0  0  0  0
 17 18  1  0  0  0  0
 17 42  1  0  0  0  0
 18 19  2  0  0  0  0
 18 43  1  0  0  0  0
 19 44  1  0  0  0  0
 20 21  2  0  0  0  0
 20 30  1  0  0  0  0
 21 22  1  0  0  0  0
 21 45  1  0  0  0  0
 22 23  2  0  0  0  0
 22 46  1  0  0  0  0
 23 24  1  0  0  0  0
 23 29  1  0  0  0  0
 24 25  2  0  0  0  0
 24 26  1  0  0  0  0
 26 27  1  0  0  0  0
 26 47  1  0  0  0  0
 27 28  2  0  0  0  0
 27 48  1  0  0  0  0
 28 29  1  0  0  0  0
 28 49  1  0  0  0  0
 29 30  2  0  0  0  0
M  END
$$$$
