
 OpenBabel01122422463D

 40 43  0  0  0  0  0  0  0  0999 V2000
    0.8955   -0.0131   -0.1649 O   0  0  0  0  0  0  0  0  0  0  0  0
    2.1089   -0.1075   -0.0300 C   0  0  0  0  0  0  0  0  0  0  0  0
    2.7871   -0.9854    0.7816 N   0  0  0  0  0  0  0  0  0  0  0  0
    2.1529   -1.9495    1.5136 C   0  0  0  0  0  0  0  0  0  0  0  0
    0.8957   -2.3613    1.3664 N   0  0  0  0  0  0  0  0  0  0  0  0
    0.7352   -3.2268    2.3778 N   0  0  0  0  0  0  0  0  0  0  0  0
   -0.5122   -3.8500    2.6255 C   0  0  0  0  0  0  0  0  0  0  0  0
   -1.5802   -3.6383    1.7342 C   0  0  0  0  0  0  0  0  0  0  0  0
   -2.8060   -4.2544    1.9697 C   0  0  0  0  0  0  0  0  0  0  0  0
   -3.8148   -4.0643    1.1107 F   0  0  0  0  0  0  0  0  0  0  0  0
   -3.0013   -5.0637    3.0789 C   0  0  0  0  0  0  0  0  0  0  0  0
   -1.9467   -5.2544    3.9602 C   0  0  0  0  0  0  0  0  0  0  0  0
   -2.1241   -6.0233    5.0417 F   0  0  0  0  0  0  0  0  0  0  0  0
   -0.7032   -4.6623    3.7478 C   0  0  0  0  0  0  0  0  0  0  0  0
    1.9265   -3.3502    3.0529 C   0  0  0  0  0  0  0  0  0  0  0  0
    2.8415   -2.5774    2.5077 N   0  0  0  0  0  0  0  0  0  0  0  0
    2.9386    0.8619   -0.7791 C   0  0  0  0  0  0  0  0  0  0  0  0
    2.4369    2.1593   -0.9434 C   0  0  0  0  0  0  0  0  0  0  0  0
    3.1019    3.0772   -1.7597 C   0  0  0  0  0  0  0  0  0  0  0  0
    4.2534    2.6800   -2.4514 C   0  0  0  0  0  0  0  0  0  0  0  0
    4.8549    3.5723   -3.3774 N   0  0  0  0  0  0  0  0  0  0  0  0
    4.7840    4.9528   -3.3441 C   0  0  0  0  0  0  0  0  0  0  0  0
    5.4445    5.4647   -4.4400 C   0  0  0  0  0  0  0  0  0  0  0  0
    5.9182    4.3696   -5.1903 C   0  0  0  0  0  0  0  0  0  0  0  0
    5.5617    3.2252   -4.5114 C   0  0  0  0  0  0  0  0  0  0  0  0
    4.7569    1.3867   -2.2609 C   0  0  0  0  0  0  0  0  0  0  0  0
    5.8872    0.9802   -2.8562 F   0  0  0  0  0  0  0  0  0  0  0  0
    4.1169    0.4792   -1.4174 C   0  0  0  0  0  0  0  0  0  0  0  0
    3.7616   -0.8625    1.0049 H   0  0  0  0  0  0  0  0  0  0  0  0
   -1.4746   -3.0069    0.8535 H   0  0  0  0  0  0  0  0  0  0  0  0
   -3.9609   -5.5359    3.2544 H   0  0  0  0  0  0  0  0  0  0  0  0
    0.0737   -4.8499    4.4824 H   0  0  0  0  0  0  0  0  0  0  0  0
    2.0704   -3.9960    3.9057 H   0  0  0  0  0  0  0  0  0  0  0  0
    1.4988    2.4449   -0.4680 H   0  0  0  0  0  0  0  0  0  0  0  0
    2.6505    4.0549   -1.9036 H   0  0  0  0  0  0  0  0  0  0  0  0
    4.3064    5.4710   -2.5244 H   0  0  0  0  0  0  0  0  0  0  0  0
    5.5664    6.5149   -4.6710 H   0  0  0  0  0  0  0  0  0  0  0  0
    6.4578    4.4030   -6.1279 H   0  0  0  0  0  0  0  0  0  0  0  0
    5.7125    2.1894   -4.7830 H   0  0  0  0  0  0  0  0  0  0  0  0
    4.5212   -0.5235   -1.3245 H   0  0  0  0  0  0  0  0  0  0  0  0
  1  2  2  0  0  0  0
  2  3  1  0  0  0  0
  2 17  1  0  0  0  0
  3  4  1  0  0  0  0
  3 29  1  0  0  0  0
  4  5  2  0  0  0  0
  4 16  1  0  0  0  0
  5  6  1  0  0  0  0
  6  7  1  0  0  0  0
  6 15  1  0  0  0  0
  7  8  2  0  0  0  0
  7 14  1  0  0  0  0
  8  9  1  0  0  0  0
  8 30  1  0  0  0  0
  9 10  1  0  0  0  0
  9 11  2  0  0  0  0
 11 12  1  0  0  0  0
 11 31  1  0  0  0  0
 12 13  1  0  0  0  0
 12 14  2  0  0  0  0
 14 32  1  0  0  0  0
 15 16  2  0  0  0  0
 15 33  1  0  0  0  0
 17 18  2  0  0  0  0
 17 28  1  0  0  0  0
 18 19  1  0  0  0  0
 18 34  1  0  0  0  0
 19 20  2  0  0  0  0
 19 35  1  0  0  0  0
 20 21  1  0  0  0  0
 20 26  1  0  0  0  0
 21 22  1  0  0  0  0
 21 25  1  0  0  0  0
 22 23  2  0  0  0  0
 22 36  1  0  0  0  0
 23 24  1  0  0  0  0
 23 37  1  0  0  0  0
 24 25  2  0  0  0  0
 24 38  1  0  0  0  0
 25 39  1  0  0  0  0
 26 27  1  0  0  0  0
 26 28  2  0  0  0  0
 28 40  1  0  0  0  0
M  END
$$$$
