
 OpenBabel01122422463D

 41 44  0  0  0  0  0  0  0  0999 V2000
    1.1201   -0.1909   -0.3677 O   0  0  0  0  0  0  0  0  0  0  0  0
    2.3069   -0.0989   -0.0658 C   0  0  0  0  0  0  0  0  0  0  0  0
    2.9291    1.0520    0.3902 N   0  0  0  0  0  0  0  0  0  0  0  0
    2.2682    2.2482    0.6442 C   0  0  0  0  0  0  0  0  0  0  0  0
    0.9652    2.2850    0.9816 C   0  0  0  0  0  0  0  0  0  0  0  0
    0.2238    3.5415    1.1984 C   0  0  0  0  0  0  0  0  0  0  0  0
   -0.9619    3.5381    1.5094 O   0  0  0  0  0  0  0  0  0  0  0  0
    0.9258    4.6993    1.0296 N   0  0  0  0  0  0  0  0  0  0  0  0
    2.2881    4.7338    0.7175 C   0  0  0  0  0  0  0  0  0  0  0  0
    2.9121    5.9705    0.5880 C   0  0  0  0  0  0  0  0  0  0  0  0
    4.2582    5.9804    0.2804 C   0  0  0  0  0  0  0  0  0  0  0  0
    4.9867    4.8617    0.0888 N   0  0  0  0  0  0  0  0  0  0  0  0
    4.3392    3.6752    0.2110 C   0  0  0  0  0  0  0  0  0  0  0  0
    2.9933    3.5347    0.5367 C   0  0  0  0  0  0  0  0  0  0  0  0
    3.1449   -1.2951   -0.2678 C   0  0  0  0  0  0  0  0  0  0  0  0
    2.8063   -2.1420   -1.3249 C   0  0  0  0  0  0  0  0  0  0  0  0
    3.4367   -3.3775   -1.4638 C   0  0  0  0  0  0  0  0  0  0  0  0
    4.4225   -3.8035   -0.5542 C   0  0  0  0  0  0  0  0  0  0  0  0
    4.9633   -5.1818   -0.6362 C   0  0  0  0  0  0  0  0  0  0  0  0
    5.0793   -5.8572   -1.8671 C   0  0  0  0  0  0  0  0  0  0  0  0
    5.4805   -7.1948   -1.9347 C   0  0  0  0  0  0  0  0  0  0  0  0
    5.8007   -7.8851   -0.7712 C   0  0  0  0  0  0  0  0  0  0  0  0
    5.7229   -7.2376    0.4563 C   0  0  0  0  0  0  0  0  0  0  0  0
    5.3032   -5.9059    0.5214 C   0  0  0  0  0  0  0  0  0  0  0  0
    4.7821   -2.8931    0.4611 C   0  0  0  0  0  0  0  0  0  0  0  0
    5.7317   -3.2083    1.3561 F   0  0  0  0  0  0  0  0  0  0  0  0
    4.1566   -1.6536    0.6161 C   0  0  0  0  0  0  0  0  0  0  0  0
    3.9376    1.0566    0.3538 H   0  0  0  0  0  0  0  0  0  0  0  0
    0.3593    1.3983    1.1199 H   0  0  0  0  0  0  0  0  0  0  0  0
    0.3963    5.5494    1.1611 H   0  0  0  0  0  0  0  0  0  0  0  0
    2.3737    6.9015    0.7186 H   0  0  0  0  0  0  0  0  0  0  0  0
    4.8025    6.9147    0.1749 H   0  0  0  0  0  0  0  0  0  0  0  0
    4.9816    2.8235    0.0161 H   0  0  0  0  0  0  0  0  0  0  0  0
    2.0094   -1.8681   -2.0153 H   0  0  0  0  0  0  0  0  0  0  0  0
    3.0923   -4.0288   -2.2648 H   0  0  0  0  0  0  0  0  0  0  0  0
    4.8439   -5.3534   -2.8023 H   0  0  0  0  0  0  0  0  0  0  0  0
    5.5330   -7.6962   -2.8975 H   0  0  0  0  0  0  0  0  0  0  0  0
    6.1061   -8.9263   -0.8201 H   0  0  0  0  0  0  0  0  0  0  0  0
    5.9720   -7.7689    1.3711 H   0  0  0  0  0  0  0  0  0  0  0  0
    5.2201   -5.4500    1.5058 H   0  0  0  0  0  0  0  0  0  0  0  0
    4.4254   -1.0368    1.4672 H   0  0  0  0  0  0  0  0  0  0  0  0
  1  2  2  0  0  0  0
  2  3  1  0  0  0  0
  2 15  1  0  0  0  0
  3  4  1  0  0  0  0
  3 28  1  0  0  0  0
  4  5  2  0  0  0  0
  4 14  1  0  0  0  0
  5  6  1  0  0  0  0
  5 29  1  0  0  0  0
  6  7  2  0  0  0  0
  6  8  1  0  0  0  0
  8  9  1  0  0  0  0
  8 30  1  0  0  0  0
  9 10  2  0  0  0  0
  9 14  1  0  0  0  0
 10 11  1  0  0  0  0
 10 31  1  0  0  0  0
 11 12  2  0  0  0  0
 11 32  1  0  0  0  0
 12 13  1  0  0  0  0
 13 14  2  0  0  0  0
 13 33  1  0  0  0  0
 15 16  2  0  0  0  0
 15 27  1  0  0  0  0
 16 17  1  0  0  0  0
 16 34  1  0  0  0  0
 17 18  2  0  0  0  0
 17 35  1  0  0  0  0
 18 19  1  0  0  0  0
 18 25  1  0  0  0  0
 19 20  2  0  0  0  0
 19 24  1  0  0  0  0
 20 21  1  0  0  0  0
 20 36  1  0  0  0  0
 21 22  2  0  0  0  0
 21 37  1  0  0  0  0
 22 23  1  0  0  0  0
 22 38  1  0  0  0  0
 23 24  2  0  0  0  0
 23 39  1  0  0  0  0
 24 40  1  0  0  0  0
 25 26  1  0  0  0  0
 25 27  2  0  0  0  0
 27 41  1  0  0  0  0
M  END
$$$$
