
 OpenBabel01122422463D

 41 44  0  0  0  0  0  0  0  0999 V2000
    3.0388   -0.4003    1.2073 N   0  0  0  0  0  0  0  0  0  0  0  0
    2.3498   -0.3391    0.0224 C   0  0  0  0  0  0  0  0  0  0  0  0
    1.1373   -0.1755    0.0353 O   0  0  0  0  0  0  0  0  0  0  0  0
    3.1404   -0.4854   -1.2320 C   0  0  0  0  0  0  0  0  0  0  0  0
    4.2756   -1.3106   -1.2059 C   0  0  0  0  0  0  0  0  0  0  0  0
    5.0022   -1.4703   -2.3678 C   0  0  0  0  0  0  0  0  0  0  0  0
    6.1589   -2.2580   -2.3444 N   0  0  0  0  0  0  0  0  0  0  0  0
    6.9389   -2.5173   -3.4574 C   0  0  0  0  0  0  0  0  0  0  0  0
    6.7390   -2.1112   -4.5972 O   0  0  0  0  0  0  0  0  0  0  0  0
    8.0818   -3.3939   -3.1723 C   0  0  0  0  0  0  0  0  0  0  0  0
    8.5857   -3.4829   -1.9264 N   0  0  0  0  0  0  0  0  0  0  0  0
    9.6965   -4.2979   -2.0300 O   0  0  0  0  0  0  0  0  0  0  0  0
    9.8243   -4.7327   -3.3056 C   0  0  0  0  0  0  0  0  0  0  0  0
    8.8136   -4.2189   -4.0838 C   0  0  0  0  0  0  0  0  0  0  0  0
    8.6287   -4.5150   -5.4985 C   0  0  0  0  0  0  0  0  0  0  0  0
    7.3378   -4.6215   -6.0432 C   0  0  0  0  0  0  0  0  0  0  0  0
    7.1539   -4.8344   -7.4132 C   0  0  0  0  0  0  0  0  0  0  0  0
    8.2600   -4.9727   -8.2406 C   0  0  0  0  0  0  0  0  0  0  0  0
    8.0821   -5.1640   -9.5539 F   0  0  0  0  0  0  0  0  0  0  0  0
    9.5454   -4.9156   -7.7251 C   0  0  0  0  0  0  0  0  0  0  0  0
    9.7209   -4.6875   -6.3624 C   0  0  0  0  0  0  0  0  0  0  0  0
   10.9777   -4.6234   -5.8956 F   0  0  0  0  0  0  0  0  0  0  0  0
    4.6347   -0.8842   -3.5128 N   0  0  0  0  0  0  0  0  0  0  0  0
    3.5546   -0.0990   -3.5581 C   0  0  0  0  0  0  0  0  0  0  0  0
    3.2527    0.4792   -4.7826 C   0  0  0  0  0  0  0  0  0  0  0  0
    2.1671    1.3357   -4.9443 C   0  0  0  0  0  0  0  0  0  0  0  0
    1.3626    1.6212   -3.8542 C   0  0  0  0  0  0  0  0  0  0  0  0
    1.6456    1.0423   -2.6139 C   0  0  0  0  0  0  0  0  0  0  0  0
    2.7476    0.1605   -2.4382 C   0  0  0  0  0  0  0  0  0  0  0  0
    2.5005   -0.2295    2.0486 H   0  0  0  0  0  0  0  0  0  0  0  0
    4.0443   -0.3423    1.2763 H   0  0  0  0  0  0  0  0  0  0  0  0
    4.5647   -1.8370   -0.3040 H   0  0  0  0  0  0  0  0  0  0  0  0
    6.4651   -2.6665   -1.4709 H   0  0  0  0  0  0  0  0  0  0  0  0
   10.6633   -5.3886   -3.4901 H   0  0  0  0  0  0  0  0  0  0  0  0
    6.4502   -4.5153   -5.4219 H   0  0  0  0  0  0  0  0  0  0  0  0
    6.1540   -4.8759   -7.8362 H   0  0  0  0  0  0  0  0  0  0  0  0
   10.4035   -5.0319   -8.3768 H   0  0  0  0  0  0  0  0  0  0  0  0
    3.8914    0.2572   -5.6358 H   0  0  0  0  0  0  0  0  0  0  0  0
    1.9617    1.7756   -5.9160 H   0  0  0  0  0  0  0  0  0  0  0  0
    0.5127    2.2914   -3.9622 H   0  0  0  0  0  0  0  0  0  0  0  0
    0.9924    1.2916   -1.7807 H   0  0  0  0  0  0  0  0  0  0  0  0
  1  2  1  0  0  0  0
  1 30  1  0  0  0  0
  1 31  1  0  0  0  0
  2  3  2  0  0  0  0
  2  4  1  0  0  0  0
  4  5  2  0  0  0  0
  4 29  1  0  0  0  0
  5  6  1  0  0  0  0
  5 32  1  0  0  0  0
  6  7  1  0  0  0  0
  6 23  2  0  0  0  0
  7  8  1  0  0  0  0
  7 33  1  0  0  0  0
  8  9  2  0  0  0  0
  8 10  1  0  0  0  0
 10 11  2  0  0  0  0
 10 14  1  0  0  0  0
 11 12  1  0  0  0  0
 12 13  1  0  0  0  0
 13 14  2  0  0  0  0
 13 34  1  0  0  0  0
 14 15  1  0  0  0  0
 15 16  2  0  0  0  0
 15 21  1  0  0  0  0
 16 17  1  0  0  0  0
 16 35  1  0  0  0  0
 17 18  2  0  0  0  0
 17 36  1  0  0  0  0
 18 19  1  0  0  0  0
 18 20  1  0  0  0  0
 20 21  2  0  0  0  0
 20 37  1  0  0  0  0
 21 22  1  0  0  0  0
 23 24  1  0  0  0  0
 24 25  2  0  0  0  0
 24 29  1  0  0  0  0
 25 26  1  0  0  0  0
 25 38  1  0  0  0  0
 26 27  2  0  0  0  0
 26 39  1  0  0  0  0
 27 28  1  0  0  0  0
 27 40  1  0  0  0  0
 28 29  2  0  0  0  0
 28 41  1  0  0  0  0
M  END
$$$$
