
 OpenBabel01122422463D

 44 47  0  0  0  0  0  0  0  0999 V2000
    3.1166   -0.5727    1.3967 O   0  0  0  0  0  0  0  0  0  0  0  0
    2.6223   -0.9510    0.3374 C   0  0  0  0  0  0  0  0  0  0  0  0
    1.4152   -1.5925    0.2535 O   0  0  0  0  0  0  0  0  0  0  0  0
    0.8003   -1.9398    1.5020 C   0  0  0  0  0  0  0  0  0  0  0  0
   -0.5306   -1.2433    1.6542 C   0  0  0  0  0  0  0  0  0  0  0  0
   -1.7191   -1.8970    1.3000 C   0  0  0  0  0  0  0  0  0  0  0  0
   -2.9558   -1.2659    1.4823 C   0  0  0  0  0  0  0  0  0  0  0  0
   -3.0105    0.0230    2.0119 C   0  0  0  0  0  0  0  0  0  0  0  0
   -1.8302    0.6901    2.3471 C   0  0  0  0  0  0  0  0  0  0  0  0
   -0.5972    0.0662    2.1726 C   0  0  0  0  0  0  0  0  0  0  0  0
    3.2009   -0.6849   -1.0675 C   0  0  0  0  0  0  0  0  0  0  0  0
    2.9318   -1.7279   -1.9216 F   0  0  0  0  0  0  0  0  0  0  0  0
    2.5366    0.3823   -1.6331 F   0  0  0  0  0  0  0  0  0  0  0  0
    4.7043   -0.4190   -0.9635 C   0  0  0  0  0  0  0  0  0  0  0  0
    5.1978    0.8555   -1.2358 C   0  0  0  0  0  0  0  0  0  0  0  0
    6.5475    1.1130   -1.0289 C   0  0  0  0  0  0  0  0  0  0  0  0
    7.3839    0.0866   -0.6016 C   0  0  0  0  0  0  0  0  0  0  0  0
    6.8649   -1.1972   -0.4719 C   0  0  0  0  0  0  0  0  0  0  0  0
    7.7063   -2.4058   -0.4531 C   0  0  0  0  0  0  0  0  0  0  0  0
    7.3462   -3.5556    0.2850 C   0  0  0  0  0  0  0  0  0  0  0  0
    7.9282   -4.8200    0.0261 C   0  0  0  0  0  0  0  0  0  0  0  0
    8.8358   -4.9939   -1.0220 C   0  0  0  0  0  0  0  0  0  0  0  0
    9.1984   -3.8658   -1.7142 C   0  0  0  0  0  0  0  0  0  0  0  0
    8.7167   -2.5968   -1.3870 C   0  0  0  0  0  0  0  0  0  0  0  0
    9.3484   -1.6897   -2.2437 N   0  0  0  0  0  0  0  0  0  0  0  0
   10.1072   -2.3934   -3.1798 C   0  0  0  0  0  0  0  0  0  0  0  0
   10.7143   -1.9147   -4.1194 O   0  0  0  0  0  0  0  0  0  0  0  0
   10.0101   -3.7452   -2.8378 N   0  0  0  0  0  0  0  0  0  0  0  0
    5.5308   -1.4429   -0.6037 N   0  0  0  0  0  0  0  0  0  0  0  0
    1.4254   -1.7245    2.3789 H   0  0  0  0  0  0  0  0  0  0  0  0
    0.6538   -3.0252    1.4959 H   0  0  0  0  0  0  0  0  0  0  0  0
   -1.6947   -2.8997    0.8841 H   0  0  0  0  0  0  0  0  0  0  0  0
   -3.8699   -1.7848    1.2109 H   0  0  0  0  0  0  0  0  0  0  0  0
   -3.9761    0.5078    2.1541 H   0  0  0  0  0  0  0  0  0  0  0  0
   -1.8795    1.6963    2.7664 H   0  0  0  0  0  0  0  0  0  0  0  0
    0.3080    0.5851    2.4551 H   0  0  0  0  0  0  0  0  0  0  0  0
    4.5438    1.6443   -1.5965 H   0  0  0  0  0  0  0  0  0  0  0  0
    6.9518    2.1025   -1.2267 H   0  0  0  0  0  0  0  0  0  0  0  0
    8.4398    0.2810   -0.4504 H   0  0  0  0  0  0  0  0  0  0  0  0
    6.5585   -3.4858    1.0327 H   0  0  0  0  0  0  0  0  0  0  0  0
    7.6172   -5.6787    0.6197 H   0  0  0  0  0  0  0  0  0  0  0  0
    9.2287   -5.9716   -1.2702 H   0  0  0  0  0  0  0  0  0  0  0  0
    9.2854   -0.6860   -2.2408 H   0  0  0  0  0  0  0  0  0  0  0  0
   10.4022   -4.4887   -3.3913 H   0  0  0  0  0  0  0  0  0  0  0  0
  1  2  2  0  0  0  0
  2  3  1  0  0  0  0
  2 11  1  0  0  0  0
  3  4  1  0  0  0  0
  4  5  1  0  0  0  0
  4 30  1  0  0  0  0
  4 31  1  0  0  0  0
  5  6  2  0  0  0  0
  5 10  1  0  0  0  0
  6  7  1  0  0  0  0
  6 32  1  0  0  0  0
  7  8  2  0  0  0  0
  7 33  1  0  0  0  0
  8  9  1  0  0  0  0
  8 34  1  0  0  0  0
  9 10  2  0  0  0  0
  9 35  1  0  0  0  0
 10 36  1  0  0  0  0
 11 12  1  0  0  0  0
 11 13  1  0  0  0  0
 11 14  1  0  0  0  0
 14 15  2  0  0  0  0
 14 29  1  0  0  0  0
 15 16  1  0  0  0  0
 15 37  1  0  0  0  0
 16 17  2  0  0  0  0
 16 38  1  0  0  0  0
 17 18  1  0  0  0  0
 17 39  1  0  0  0  0
 18 19  1  0  0  0  0
 18 29  2  0  0  0  0
 19 20  2  0  0  0  0
 19 24  1  0  0  0  0
 20 21  1  0  0  0  0
 20 40  1  0  0  0  0
 21 22  2  0  0  0  0
 21 41  1  0  0  0  0
 22 23  1  0  0  0  0
 22 42  1  0  0  0  0
 23 24  2  0  0  0  0
 23 28  1  0  0  0  0
 24 25  1  0  0  0  0
 25 26  1  0  0  0  0
 25 43  1  0  0  0  0
 26 27  2  0  0  0  0
 26 28  1  0  0  0  0
 28 44  1  0  0  0  0
M  END
$$$$
