
 OpenBabel01122422463D

 45 48  0  0  0  0  0  0  0  0999 V2000
    1.1120    0.1656   -3.3372 O   0  0  0  0  0  0  0  0  0  0  0  0
    2.0814   -0.0349   -2.6223 C   0  0  0  0  0  0  0  0  0  0  0  0
    2.4882   -1.2761   -2.2915 O   0  0  0  0  0  0  0  0  0  0  0  0
    2.9014    1.0563   -2.0314 C   0  0  0  0  0  0  0  0  0  0  0  0
    2.2961    2.2463   -1.9004 C   0  0  0  0  0  0  0  0  0  0  0  0
    2.9407    3.3701   -1.3820 N   0  0  0  0  0  0  0  0  0  0  0  0
    2.2576    4.6293   -1.3387 C   0  0  0  0  0  0  0  0  0  0  0  0
    2.3423    5.4787   -0.2366 C   0  0  0  0  0  0  0  0  0  0  0  0
    1.6150    6.6689   -0.2143 C   0  0  0  0  0  0  0  0  0  0  0  0
    0.8169    7.0307   -1.3053 C   0  0  0  0  0  0  0  0  0  0  0  0
    0.7142    6.2054   -2.4365 C   0  0  0  0  0  0  0  0  0  0  0  0
   -0.1670    6.5258   -3.5818 C   0  0  0  0  0  0  0  0  0  0  0  0
    0.1899    6.1918   -4.9085 C   0  0  0  0  0  0  0  0  0  0  0  0
   -0.6901    6.3794   -5.9915 C   0  0  0  0  0  0  0  0  0  0  0  0
   -0.3036    5.9539   -7.3853 C   0  0  0  0  0  0  0  0  0  0  0  0
   -0.6890    4.5757   -7.6598 N   0  0  0  0  0  0  0  0  0  0  0  0
    0.1053    3.4684   -7.5449 C   0  0  0  0  0  0  0  0  0  0  0  0
   -0.6625    2.4301   -8.0197 C   0  0  0  0  0  0  0  0  0  0  0  0
   -1.8920    2.8800   -8.4228 N   0  0  0  0  0  0  0  0  0  0  0  0
   -1.8815    4.1719   -8.1925 C   0  0  0  0  0  0  0  0  0  0  0  0
   -1.9447    6.9444   -5.7422 C   0  0  0  0  0  0  0  0  0  0  0  0
   -2.2934    7.3082   -4.4475 C   0  0  0  0  0  0  0  0  0  0  0  0
   -3.4985    7.8487   -4.2207 F   0  0  0  0  0  0  0  0  0  0  0  0
   -1.4286    7.1032   -3.3791 C   0  0  0  0  0  0  0  0  0  0  0  0
    1.4448    5.0049   -2.4230 C   0  0  0  0  0  0  0  0  0  0  0  0
    4.2821    3.3037   -0.9576 C   0  0  0  0  0  0  0  0  0  0  0  0
    4.9651    4.2266   -0.5232 O   0  0  0  0  0  0  0  0  0  0  0  0
    4.9489    1.9800   -1.1393 C   0  0  0  0  0  0  0  0  0  0  0  0
    4.2909    0.9326   -1.6568 C   0  0  0  0  0  0  0  0  0  0  0  0
    3.1617   -1.3262   -1.5915 H   0  0  0  0  0  0  0  0  0  0  0  0
    1.2474    2.3700   -2.1674 H   0  0  0  0  0  0  0  0  0  0  0  0
    2.9361    5.2077    0.6333 H   0  0  0  0  0  0  0  0  0  0  0  0
    1.6596    7.3121    0.6620 H   0  0  0  0  0  0  0  0  0  0  0  0
    0.2728    7.9718   -1.2550 H   0  0  0  0  0  0  0  0  0  0  0  0
    1.1719    5.7611   -5.1060 H   0  0  0  0  0  0  0  0  0  0  0  0
    0.7786    6.0353   -7.5368 H   0  0  0  0  0  0  0  0  0  0  0  0
   -0.7826    6.5898   -8.1368 H   0  0  0  0  0  0  0  0  0  0  0  0
    1.1124    3.5015   -7.1557 H   0  0  0  0  0  0  0  0  0  0  0  0
   -0.3927    1.3841   -8.1004 H   0  0  0  0  0  0  0  0  0  0  0  0
   -2.6971    4.8530   -8.3983 H   0  0  0  0  0  0  0  0  0  0  0  0
   -2.6647    7.1016   -6.5392 H   0  0  0  0  0  0  0  0  0  0  0  0
   -1.7737    7.3672   -2.3836 H   0  0  0  0  0  0  0  0  0  0  0  0
    1.3930    4.3506   -3.2899 H   0  0  0  0  0  0  0  0  0  0  0  0
    5.9968    1.9362   -0.8692 H   0  0  0  0  0  0  0  0  0  0  0  0
    4.8214    0.0041   -1.8307 H   0  0  0  0  0  0  0  0  0  0  0  0
  1  2  2  0  0  0  0
  2  3  1  0  0  0  0
  2  4  1  0  0  0  0
  3 30  1  0  0  0  0
  4  5  2  0  0  0  0
  4 29  1  0  0  0  0
  5  6  1  0  0  0  0
  5 31  1  0  0  0  0
  6  7  1  0  0  0  0
  6 26  1  0  0  0  0
  7  8  2  0  0  0  0
  7 25  1  0  0  0  0
  8  9  1  0  0  0  0
  8 32  1  0  0  0  0
  9 10  2  0  0  0  0
  9 33  1  0  0  0  0
 10 11  1  0  0  0  0
 10 34  1  0  0  0  0
 11 12  1  0  0  0  0
 11 25  2  0  0  0  0
 12 13  2  0  0  0  0
 12 24  1  0  0  0  0
 13 14  1  0  0  0  0
 13 35  1  0  0  0  0
 14 15  1  0  0  0  0
 14 21  2  0  0  0  0
 15 16  1  0  0  0  0
 15 36  1  0  0  0  0
 15 37  1  0  0  0  0
 16 17  1  0  0  0  0
 16 20  1  0  0  0  0
 17 18  2  0  0  0  0
 17 38  1  0  0  0  0
 18 19  1  0  0  0  0
 18 39  1  0  0  0  0
 19 20  2  0  0  0  0
 20 40  1  0  0  0  0
 21 22  1  0  0  0  0
 21 41  1  0  0  0  0
 22 23  1  0  0  0  0
 22 24  2  0  0  0  0
 24 42  1  0  0  0  0
 25 43  1  0  0  0  0
 26 27  2  0  0  0  0
 26 28  1  0  0  0  0
 28 29  2  0  0  0  0
 28 44  1  0  0  0  0
 29 45  1  0  0  0  0
M  END
$$$$
