
 OpenBabel01122422463D

 49 52  0  0  0  0  0  0  0  0999 V2000
    0.3352   -6.2338    3.1133 C   0  0  0  0  0  0  0  0  0  0  0  0
    1.7190   -6.4032    2.7970 O   0  0  0  0  0  0  0  0  0  0  0  0
    2.4647   -5.2764    2.9905 C   0  0  0  0  0  0  0  0  0  0  0  0
    2.0293   -4.2297    3.4496 O   0  0  0  0  0  0  0  0  0  0  0  0
    3.8781   -5.5082    2.4924 C   0  0  0  0  0  0  0  0  0  0  0  0
    4.7163   -4.2397    2.4236 C   0  0  0  0  0  0  0  0  0  0  0  0
    5.4047   -3.8984    3.6140 C   0  0  0  0  0  0  0  0  0  0  0  0
    6.2607   -2.8046    3.6678 C   0  0  0  0  0  0  0  0  0  0  0  0
    6.4316   -2.0369    2.5341 C   0  0  0  0  0  0  0  0  0  0  0  0
    7.2797   -1.0002    2.5588 F   0  0  0  0  0  0  0  0  0  0  0  0
    5.7300   -2.3183    1.3659 C   0  0  0  0  0  0  0  0  0  0  0  0
    4.8394   -3.4144    1.2681 C   0  0  0  0  0  0  0  0  0  0  0  0
    4.1153   -3.6295   -0.0232 C   0  0  0  0  0  0  0  0  0  0  0  0
    2.8000   -4.1036   -0.0903 C   0  0  0  0  0  0  0  0  0  0  0  0
    2.1527   -4.3598   -1.3031 C   0  0  0  0  0  0  0  0  0  0  0  0
    2.7555   -4.0185   -2.5093 C   0  0  0  0  0  0  0  0  0  0  0  0
    1.9839   -4.2165   -3.6599 N   0  0  0  0  0  0  0  0  0  0  0  0
    1.9833   -3.4276   -4.7784 C   0  0  0  0  0  0  0  0  0  0  0  0
    1.2091   -3.6778   -5.6986 O   0  0  0  0  0  0  0  0  0  0  0  0
    2.8565   -2.1825   -4.7488 C   0  0  0  0  0  0  0  0  0  0  0  0
    4.2646   -2.5559   -4.7680 N   0  0  0  0  0  0  0  0  0  0  0  0
    4.7906   -3.1493   -3.7480 C   0  0  0  0  0  0  0  0  0  0  0  0
    6.2448   -3.4983   -3.8595 C   0  0  0  0  0  0  0  0  0  0  0  0
    7.0832   -2.6639   -4.6113 C   0  0  0  0  0  0  0  0  0  0  0  0
    8.4350   -2.9754   -4.7577 C   0  0  0  0  0  0  0  0  0  0  0  0
    8.9554   -4.1185   -4.1523 C   0  0  0  0  0  0  0  0  0  0  0  0
    8.1267   -4.9527   -3.4023 C   0  0  0  0  0  0  0  0  0  0  0  0
    6.7705   -4.6519   -3.2647 C   0  0  0  0  0  0  0  0  0  0  0  0
    4.0522   -3.4912   -2.4929 C   0  0  0  0  0  0  0  0  0  0  0  0
    4.7149   -3.3159   -1.2590 C   0  0  0  0  0  0  0  0  0  0  0  0
   -0.1777   -7.1803    2.9189 H   0  0  0  0  0  0  0  0  0  0  0  0
   -0.1093   -5.4649    2.4720 H   0  0  0  0  0  0  0  0  0  0  0  0
    0.2087   -5.9781    4.1692 H   0  0  0  0  0  0  0  0  0  0  0  0
    3.8550   -5.9949    1.5126 H   0  0  0  0  0  0  0  0  0  0  0  0
    4.3555   -6.2234    3.1749 H   0  0  0  0  0  0  0  0  0  0  0  0
    5.2733   -4.4965    4.5151 H   0  0  0  0  0  0  0  0  0  0  0  0
    6.7909   -2.5521    4.5795 H   0  0  0  0  0  0  0  0  0  0  0  0
    5.8927   -1.6426    0.5303 H   0  0  0  0  0  0  0  0  0  0  0  0
    2.2123   -4.2522    0.8060 H   0  0  0  0  0  0  0  0  0  0  0  0
    1.1380   -4.7528   -1.2778 H   0  0  0  0  0  0  0  0  0  0  0  0
    1.2063   -4.8621   -3.6379 H   0  0  0  0  0  0  0  0  0  0  0  0
    2.5999   -1.5537   -3.8875 H   0  0  0  0  0  0  0  0  0  0  0  0
    2.6371   -1.5928   -5.6435 H   0  0  0  0  0  0  0  0  0  0  0  0
    6.6839   -1.7723   -5.0897 H   0  0  0  0  0  0  0  0  0  0  0  0
    9.0776   -2.3308   -5.3520 H   0  0  0  0  0  0  0  0  0  0  0  0
   10.0067   -4.3655   -4.2753 H   0  0  0  0  0  0  0  0  0  0  0  0
    8.5341   -5.8459   -2.9358 H   0  0  0  0  0  0  0  0  0  0  0  0
    6.1379   -5.3329   -2.7025 H   0  0  0  0  0  0  0  0  0  0  0  0
    5.7288   -2.9172   -1.2706 H   0  0  0  0  0  0  0  0  0  0  0  0
  1  2  1  0  0  0  0
  1 31  1  0  0  0  0
  1 32  1  0  0  0  0
  1 33  1  0  0  0  0
  2  3  1  0  0  0  0
  3  4  2  0  0  0  0
  3  5  1  0  0  0  0
  5  6  1  0  0  0  0
  5 34  1  0  0  0  0
  5 35  1  0  0  0  0
  6  7  2  0  0  0  0
  6 12  1  0  0  0  0
  7  8  1  0  0  0  0
  7 36  1  0  0  0  0
  8  9  2  0  0  0  0
  8 37  1  0  0  0  0
  9 10  1  0  0  0  0
  9 11  1  0  0  0  0
 11 12  2  0  0  0  0
 11 38  1  0  0  0  0
 12 13  1  0  0  0  0
 13 14  2  0  0  0  0
 13 30  1  0  0  0  0
 14 15  1  0  0  0  0
 14 39  1  0  0  0  0
 15 16  2  0  0  0  0
 15 40  1  0  0  0  0
 16 17  1  0  0  0  0
 16 29  1  0  0  0  0
 17 18  1  0  0  0  0
 17 41  1  0  0  0  0
 18 19  2  0  0  0  0
 18 20  1  0  0  0  0
 20 21  1  0  0  0  0
 20 42  1  0  0  0  0
 20 43  1  0  0  0  0
 21 22  2  0  0  0  0
 22 23  1  0  0  0  0
 22 29  1  0  0  0  0
 23 24  2  0  0  0  0
 23 28  1  0  0  0  0
 24 25  1  0  0  0  0
 24 44  1  0  0  0  0
 25 26  2  0  0  0  0
 25 45  1  0  0  0  0
 26 27  1  0  0  0  0
 26 46  1  0  0  0  0
 27 28  2  0  0  0  0
 27 47  1  0  0  0  0
 28 48  1  0  0  0  0
 29 30  2  0  0  0  0
 30 49  1  0  0  0  0
M  END
$$$$
