
 OpenBabel01122422463D

 47 50  0  0  0  0  0  0  0  0999 V2000
    5.9634   -0.9527    0.4005 N   0  0  0  0  0  0  0  0  0  0  0  0
    5.0579   -1.7242   -0.4547 C   0  0  0  0  0  0  0  0  0  0  0  0
    4.2353   -0.8931   -1.4277 C   0  0  0  0  0  0  0  0  0  0  0  0
    4.7929    0.3117   -1.9119 C   0  0  0  0  0  0  0  0  0  0  0  0
    4.1459    1.0897   -2.8699 C   0  0  0  0  0  0  0  0  0  0  0  0
    2.9426    0.6605   -3.4045 C   0  0  0  0  0  0  0  0  0  0  0  0
    2.3780   -0.5318   -2.9542 C   0  0  0  0  0  0  0  0  0  0  0  0
    2.9796   -1.3207   -1.9469 C   0  0  0  0  0  0  0  0  0  0  0  0
    2.2461   -2.5280   -1.4901 C   0  0  0  0  0  0  0  0  0  0  0  0
    0.8545   -2.4872   -1.2625 C   0  0  0  0  0  0  0  0  0  0  0  0
    0.1525   -3.5979   -0.7878 C   0  0  0  0  0  0  0  0  0  0  0  0
    0.8345   -4.7779   -0.5083 C   0  0  0  0  0  0  0  0  0  0  0  0
    2.2092   -4.8619   -0.7744 C   0  0  0  0  0  0  0  0  0  0  0  0
    3.0169   -6.0963   -0.5504 C   0  0  0  0  0  0  0  0  0  0  0  0
    4.2036   -6.0031   -0.2626 O   0  0  0  0  0  0  0  0  0  0  0  0
    2.3074   -7.2547   -0.7095 N   0  0  0  0  0  0  0  0  0  0  0  0
    2.6850   -8.5593   -0.3560 C   0  0  0  0  0  0  0  0  0  0  0  0
    3.9599   -8.9821   -0.0111 C   0  0  0  0  0  0  0  0  0  0  0  0
    4.1353  -10.2778    0.4967 C   0  0  0  0  0  0  0  0  0  0  0  0
    3.0262  -11.1041    0.7638 C   0  0  0  0  0  0  0  0  0  0  0  0
    1.7509  -10.6550    0.4457 C   0  0  0  0  0  0  0  0  0  0  0  0
    1.6175   -9.4436   -0.2280 C   0  0  0  0  0  0  0  0  0  0  0  0
    0.3240   -9.0188   -0.6557 N   0  0  0  0  0  0  0  0  0  0  0  0
   -0.6877   -9.2564    0.2510 C   0  0  0  0  0  0  0  0  0  0  0  0
   -1.5998   -8.4625    0.4463 O   0  0  0  0  0  0  0  0  0  0  0  0
   -0.6328  -10.5937    0.9013 C   0  0  0  0  0  0  0  0  0  0  0  0
    0.5235  -11.2924    0.9300 C   0  0  0  0  0  0  0  0  0  0  0  0
    2.8907   -3.7513   -1.2788 C   0  0  0  0  0  0  0  0  0  0  0  0
    6.5114   -1.6117    0.9535 H   0  0  0  0  0  0  0  0  0  0  0  0
    5.3972   -0.4307    1.0669 H   0  0  0  0  0  0  0  0  0  0  0  0
    4.4152   -2.2960    0.2193 H   0  0  0  0  0  0  0  0  0  0  0  0
    5.6640   -2.4238   -1.0431 H   0  0  0  0  0  0  0  0  0  0  0  0
    5.7573    0.6519   -1.5365 H   0  0  0  0  0  0  0  0  0  0  0  0
    4.5959    2.0182   -3.2079 H   0  0  0  0  0  0  0  0  0  0  0  0
    2.4414    1.2458   -4.1699 H   0  0  0  0  0  0  0  0  0  0  0  0
    1.4406   -0.8506   -3.4116 H   0  0  0  0  0  0  0  0  0  0  0  0
    0.2948   -1.5704   -1.4435 H   0  0  0  0  0  0  0  0  0  0  0  0
   -0.9215   -3.5328   -0.6232 H   0  0  0  0  0  0  0  0  0  0  0  0
    0.2737   -5.6054   -0.0796 H   0  0  0  0  0  0  0  0  0  0  0  0
    1.3157   -7.1764   -0.9110 H   0  0  0  0  0  0  0  0  0  0  0  0
    4.8197   -8.3251   -0.1093 H   0  0  0  0  0  0  0  0  0  0  0  0
    5.1371  -10.6160    0.7555 H   0  0  0  0  0  0  0  0  0  0  0  0
    3.1846  -12.0586    1.2513 H   0  0  0  0  0  0  0  0  0  0  0  0
    0.1016   -9.6164   -1.4555 H   0  0  0  0  0  0  0  0  0  0  0  0
   -1.5495  -10.9257    1.3671 H   0  0  0  0  0  0  0  0  0  0  0  0
    0.5836  -12.2468    1.4304 H   0  0  0  0  0  0  0  0  0  0  0  0
    3.9483   -3.8623   -1.5029 H   0  0  0  0  0  0  0  0  0  0  0  0
  1  2  1  0  0  0  0
  1 29  1  0  0  0  0
  1 30  1  0  0  0  0
  2  3  1  0  0  0  0
  2 31  1  0  0  0  0
  2 32  1  0  0  0  0
  3  4  2  0  0  0  0
  3  8  1  0  0  0  0
  4  5  1  0  0  0  0
  4 33  1  0  0  0  0
  5  6  2  0  0  0  0
  5 34  1  0  0  0  0
  6  7  1  0  0  0  0
  6 35  1  0  0  0  0
  7  8  2  0  0  0  0
  7 36  1  0  0  0  0
  8  9  1  0  0  0  0
  9 10  2  0  0  0  0
  9 28  1  0  0  0  0
 10 11  1  0  0  0  0
 10 37  1  0  0  0  0
 11 12  2  0  0  0  0
 11 38  1  0  0  0  0
 12 13  1  0  0  0  0
 12 39  1  0  0  0  0
 13 14  1  0  0  0  0
 13 28  2  0  0  0  0
 14 15  2  0  0  0  0
 14 16  1  0  0  0  0
 16 17  1  0  0  0  0
 16 40  1  0  0  0  0
 17 18  2  0  0  0  0
 17 22  1  0  0  0  0
 18 19  1  0  0  0  0
 18 41  1  0  0  0  0
 19 20  2  0  0  0  0
 19 42  1  0  0  0  0
 20 21  1  0  0  0  0
 20 43  1  0  0  0  0
 21 22  2  0  0  0  0
 21 27  1  0  0  0  0
 22 23  1  0  0  0  0
 23 24  1  0  0  0  0
 23 44  1  0  0  0  0
 24 25  2  0  0  0  0
 24 26  1  0  0  0  0
 26 27  2  0  0  0  0
 26 45  1  0  0  0  0
 27 46  1  0  0  0  0
 28 47  1  0  0  0  0
M  END
$$$$
