
 OpenBabel01122422473D

 51 54  0  0  1  0  0  0  0  0999 V2000
    3.2367   -2.4631   -0.1539 O   0  0  0  0  0  0  0  0  0  0  0  0
    3.4026   -1.2496   -0.0836 C   0  0  0  0  0  0  0  0  0  0  0  0
    2.9136   -0.3866   -1.0445 N   0  0  0  0  0  0  0  0  0  0  0  0
    2.2224   -0.8896   -2.2398 C   0  0  3  0  0  0  0  0  0  0  0  0
    1.2298    0.1413   -2.8060 C   0  0  0  0  0  0  0  0  0  0  0  0
    0.1390    0.5851   -1.8647 C   0  0  0  0  0  0  0  0  0  0  0  0
    0.0022    1.9446   -1.5577 C   0  0  0  0  0  0  0  0  0  0  0  0
   -1.0878    2.3905   -0.8142 C   0  0  0  0  0  0  0  0  0  0  0  0
   -2.0422    1.4809   -0.3620 C   0  0  0  0  0  0  0  0  0  0  0  0
   -1.8939    0.1207   -0.6273 C   0  0  0  0  0  0  0  0  0  0  0  0
   -0.8068   -0.3279   -1.3763 C   0  0  0  0  0  0  0  0  0  0  0  0
    3.1957   -1.4310   -3.3424 C   0  0  3  0  0  0  0  0  0  0  0  0
    2.4718   -2.0743   -4.4067 O   0  0  0  0  0  0  0  0  0  0  0  0
    4.1754   -0.4184   -3.9195 C   0  0  0  0  0  0  0  0  0  0  0  0
    5.4355   -0.2437   -3.3211 C   0  0  0  0  0  0  0  0  0  0  0  0
    6.3853    0.6160   -3.8839 C   0  0  0  0  0  0  0  0  0  0  0  0
    6.0904    1.3117   -5.0529 C   0  0  0  0  0  0  0  0  0  0  0  0
    4.8346    1.1801   -5.6379 C   0  0  0  0  0  0  0  0  0  0  0  0
    3.8810    0.3327   -5.0690 C   0  0  0  0  0  0  0  0  0  0  0  0
    4.1893   -0.6492    1.0387 C   0  0  0  0  0  0  0  0  0  0  0  0
    4.7004   -1.5150    1.9946 C   0  0  0  0  0  0  0  0  0  0  0  0
    5.5620   -1.0074    2.9548 C   0  0  0  0  0  0  0  0  0  0  0  0
    5.8874    0.3500    2.9471 C   0  0  0  0  0  0  0  0  0  0  0  0
    6.8176    0.8537    3.8699 C   0  0  0  0  0  0  0  0  0  0  0  0
    7.1073    2.2037    3.8522 C   0  0  0  0  0  0  0  0  0  0  0  0
    6.5026    3.0727    3.0235 N   0  0  0  0  0  0  0  0  0  0  0  0
    5.6172    2.5392    2.1458 C   0  0  0  0  0  0  0  0  0  0  0  0
    5.0301    3.5043    1.3830 O   0  0  0  0  0  0  0  0  0  0  0  0
    5.2696    1.1893    1.9950 C   0  0  0  0  0  0  0  0  0  0  0  0
    4.4298    0.6899    1.0322 N   0  0  0  0  0  0  0  0  0  0  0  0
    3.1338    0.6015   -0.9464 H   0  0  0  0  0  0  0  0  0  0  0  0
    1.6356   -1.7621   -1.9186 H   0  0  0  0  0  0  0  0  0  0  0  0
    0.7054   -0.2698   -3.6770 H   0  0  0  0  0  0  0  0  0  0  0  0
    1.7771    1.0186   -3.1673 H   0  0  0  0  0  0  0  0  0  0  0  0
    0.7326    2.6665   -1.9166 H   0  0  0  0  0  0  0  0  0  0  0  0
   -1.1998    3.4508   -0.6034 H   0  0  0  0  0  0  0  0  0  0  0  0
   -2.9067    1.8349    0.1921 H   0  0  0  0  0  0  0  0  0  0  0  0
   -2.6359   -0.5882   -0.2691 H   0  0  0  0  0  0  0  0  0  0  0  0
   -0.7204   -1.3903   -1.5953 H   0  0  0  0  0  0  0  0  0  0  0  0
    3.7913   -2.2423   -2.9064 H   0  0  0  0  0  0  0  0  0  0  0  0
    1.8172   -1.4563   -4.7621 H   0  0  0  0  0  0  0  0  0  0  0  0
    5.6977   -0.7952   -2.4199 H   0  0  0  0  0  0  0  0  0  0  0  0
    7.3608    0.7280   -3.4184 H   0  0  0  0  0  0  0  0  0  0  0  0
    6.8391    1.9527   -5.5107 H   0  0  0  0  0  0  0  0  0  0  0  0
    4.5996    1.7236   -6.5493 H   0  0  0  0  0  0  0  0  0  0  0  0
    2.9142    0.2506   -5.5561 H   0  0  0  0  0  0  0  0  0  0  0  0
    4.4577   -2.5729    1.9740 H   0  0  0  0  0  0  0  0  0  0  0  0
    5.9845   -1.6831    3.6945 H   0  0  0  0  0  0  0  0  0  0  0  0
    7.3227    0.2051    4.5799 H   0  0  0  0  0  0  0  0  0  0  0  0
    7.8526    2.6290    4.5198 H   0  0  0  0  0  0  0  0  0  0  0  0
    5.4208    4.2965    1.7931 H   0  0  0  0  0  0  0  0  0  0  0  0
  1  2  2  0  0  0  0
  2  3  1  0  0  0  0
  2 20  1  0  0  0  0
  3  4  1  0  0  0  0
  3 31  1  0  0  0  0
  4  5  1  0  0  0  0
  4 12  1  0  0  0  0
  4 32  1  0  0  0  0
  5  6  1  0  0  0  0
  5 33  1  0  0  0  0
  5 34  1  0  0  0  0
  6  7  2  0  0  0  0
  6 11  1  0  0  0  0
  7  8  1  0  0  0  0
  7 35  1  0  0  0  0
  8  9  2  0  0  0  0
  8 36  1  0  0  0  0
  9 10  1  0  0  0  0
  9 37  1  0  0  0  0
 10 11  2  0  0  0  0
 10 38  1  0  0  0  0
 11 39  1  0  0  0  0
 12 13  1  0  0  0  0
 12 14  1  0  0  0  0
 12 40  1  0  0  0  0
 13 41  1  0  0  0  0
 14 15  2  0  0  0  0
 14 19  1  0  0  0  0
 15 16  1  0  0  0  0
 15 42  1  0  0  0  0
 16 17  2  0  0  0  0
 16 43  1  0  0  0  0
 17 18  1  0  0  0  0
 17 44  1  0  0  0  0
 18 19  2  0  0  0  0
 18 45  1  0  0  0  0
 19 46  1  0  0  0  0
 20 21  2  0  0  0  0
 20 30  1  0  0  0  0
 21 22  1  0  0  0  0
 21 47  1  0  0  0  0
 22 23  2  0  0  0  0
 22 48  1  0  0  0  0
 23 24  1  0  0  0  0
 23 29  1  0  0  0  0
 24 25  2  0  0  0  0
 24 49  1  0  0  0  0
 25 26  1  0  0  0  0
 25 50  1  0  0  0  0
 26 27  2  0  0  0  0
 27 28  1  0  0  0  0
 27 29  1  0  0  0  0
 28 51  1  0  0  0  0
 29 30  2  0  0  0  0
M  END
$$$$
