
 OpenBabel01122422453D

 46 49  0  0  0  0  0  0  0  0999 V2000
    2.2885   -2.1142   -0.0542 C   0  0  0  0  0  0  0  0  0  0  0  0
    3.0234   -0.8326    0.1145 C   0  0  0  0  0  0  0  0  0  0  0  0
    4.3828   -0.6442    0.1870 C   0  0  0  0  0  0  0  0  0  0  0  0
    4.5869    0.7534    0.1489 C   0  0  0  0  0  0  0  0  0  0  0  0
    5.9039    1.4149    0.1329 C   0  0  0  0  0  0  0  0  0  0  0  0
    6.9291    0.7524    0.0001 O   0  0  0  0  0  0  0  0  0  0  0  0
    5.8685    2.7824    0.3241 N   0  0  0  0  0  0  0  0  0  0  0  0
    6.9513    3.6414    0.3413 C   0  0  0  0  0  0  0  0  0  0  0  0
    8.1569    3.3659   -0.1816 C   0  0  0  0  0  0  0  0  0  0  0  0
    9.2515    4.2866   -0.0882 C   0  0  0  0  0  0  0  0  0  0  0  0
    9.1110    5.4256    0.5938 C   0  0  0  0  0  0  0  0  0  0  0  0
    7.9002    5.7904    1.1705 N   0  0  0  0  0  0  0  0  0  0  0  0
    7.8247    6.9668    1.9820 C   0  0  0  0  0  0  0  0  0  0  0  0
    8.7995    7.1979    2.9662 C   0  0  0  0  0  0  0  0  0  0  0  0
    8.7030    8.3027    3.8151 C   0  0  0  0  0  0  0  0  0  0  0  0
    7.6582    9.2099    3.6590 C   0  0  0  0  0  0  0  0  0  0  0  0
    6.7081    9.0120    2.6580 C   0  0  0  0  0  0  0  0  0  0  0  0
    6.7821    7.8872    1.8324 C   0  0  0  0  0  0  0  0  0  0  0  0
    6.7504    4.9795    1.0314 C   0  0  0  0  0  0  0  0  0  0  0  0
    5.6320    5.2276    1.4904 O   0  0  0  0  0  0  0  0  0  0  0  0
    3.4167    1.4097    0.0916 N   0  0  0  0  0  0  0  0  0  0  0  0
    2.4589    0.4388    0.0895 N   0  0  0  0  0  0  0  0  0  0  0  0
    1.0825    0.7779    0.0673 C   0  0  0  0  0  0  0  0  0  0  0  0
    0.1426   -0.0035    0.7587 C   0  0  0  0  0  0  0  0  0  0  0  0
   -1.2207    0.2892    0.6710 C   0  0  0  0  0  0  0  0  0  0  0  0
   -1.6549    1.3639   -0.0969 C   0  0  0  0  0  0  0  0  0  0  0  0
   -0.7236    2.1672   -0.7577 C   0  0  0  0  0  0  0  0  0  0  0  0
    0.6391    1.8805   -0.6643 C   0  0  0  0  0  0  0  0  0  0  0  0
    1.4839    2.6442   -1.3728 F   0  0  0  0  0  0  0  0  0  0  0  0
    2.9852   -2.9273   -0.2862 H   0  0  0  0  0  0  0  0  0  0  0  0
    1.5749   -2.0550   -0.8826 H   0  0  0  0  0  0  0  0  0  0  0  0
    1.7639   -2.4007    0.8602 H   0  0  0  0  0  0  0  0  0  0  0  0
    5.1500   -1.4078    0.2018 H   0  0  0  0  0  0  0  0  0  0  0  0
    4.9724    3.1691    0.6233 H   0  0  0  0  0  0  0  0  0  0  0  0
    8.3610    2.4349   -0.7038 H   0  0  0  0  0  0  0  0  0  0  0  0
   10.1965    4.0223   -0.5545 H   0  0  0  0  0  0  0  0  0  0  0  0
    9.9354    6.1259    0.6790 H   0  0  0  0  0  0  0  0  0  0  0  0
    9.6027    6.4837    3.1281 H   0  0  0  0  0  0  0  0  0  0  0  0
    9.4319    8.4420    4.6092 H   0  0  0  0  0  0  0  0  0  0  0  0
    7.5778   10.0664    4.3228 H   0  0  0  0  0  0  0  0  0  0  0  0
    5.8993    9.7260    2.5262 H   0  0  0  0  0  0  0  0  0  0  0  0
    6.0303    7.7484    1.0596 H   0  0  0  0  0  0  0  0  0  0  0  0
    0.4484   -0.8134    1.4121 H   0  0  0  0  0  0  0  0  0  0  0  0
   -1.9417   -0.3235    1.2090 H   0  0  0  0  0  0  0  0  0  0  0  0
   -2.7185    1.5816   -0.1807 H   0  0  0  0  0  0  0  0  0  0  0  0
   -1.0514    3.0065   -1.3629 H   0  0  0  0  0  0  0  0  0  0  0  0
  1  2  1  0  0  0  0
  1 30  1  0  0  0  0
  1 31  1  0  0  0  0
  1 32  1  0  0  0  0
  2  3  2  0  0  0  0
  2 22  1  0  0  0  0
  3  4  1  0  0  0  0
  3 33  1  0  0  0  0
  4  5  1  0  0  0  0
  4 21  2  0  0  0  0
  5  6  2  0  0  0  0
  5  7  1  0  0  0  0
  7  8  1  0  0  0  0
  7 34  1  0  0  0  0
  8  9  2  0  0  0  0
  8 19  1  0  0  0  0
  9 10  1  0  0  0  0
  9 35  1  0  0  0  0
 10 11  2  0  0  0  0
 10 36  1  0  0  0  0
 11 12  1  0  0  0  0
 11 37  1  0  0  0  0
 12 13  1  0  0  0  0
 12 19  1  0  0  0  0
 13 14  2  0  0  0  0
 13 18  1  0  0  0  0
 14 15  1  0  0  0  0
 14 38  1  0  0  0  0
 15 16  2  0  0  0  0
 15 39  1  0  0  0  0
 16 17  1  0  0  0  0
 16 40  1  0  0  0  0
 17 18  2  0  0  0  0
 17 41  1  0  0  0  0
 18 42  1  0  0  0  0
 19 20  2  0  0  0  0
 21 22  1  0  0  0  0
 22 23  1  0  0  0  0
 23 24  2  0  0  0  0
 23 28  1  0  0  0  0
 24 25  1  0  0  0  0
 24 43  1  0  0  0  0
 25 26  2  0  0  0  0
 25 44  1  0  0  0  0
 26 27  1  0  0  0  0
 26 45  1  0  0  0  0
 27 28  2  0  0  0  0
 27 46  1  0  0  0  0
 28 29  1  0  0  0  0
M  END
$$$$
