
 OpenBabel01122422473D

 54 57  0  0  0  0  0  0  0  0999 V2000
    1.4304    0.7508   -0.2390 C   0  0  0  0  0  0  0  0  0  0  0  0
    2.5903    0.0166    0.1360 O   0  0  0  0  0  0  0  0  0  0  0  0
    3.2631   -0.6565   -0.8580 C   0  0  0  0  0  0  0  0  0  0  0  0
    2.7924   -0.7559   -2.1653 C   0  0  0  0  0  0  0  0  0  0  0  0
    3.5388   -1.4317   -3.1242 C   0  0  0  0  0  0  0  0  0  0  0  0
    4.7654   -2.0402   -2.8010 C   0  0  0  0  0  0  0  0  0  0  0  0
    5.6153   -2.7710   -3.8254 C   0  0  0  0  0  0  0  0  0  0  0  0
    5.1407   -2.7351   -5.2606 C   0  0  0  0  0  0  0  0  0  0  0  0
    5.6814   -3.7930   -6.1040 N   0  0  0  0  0  0  0  0  0  0  0  0
    5.5849   -5.1706   -6.0075 C   0  0  0  0  0  0  0  0  0  0  0  0
    6.0448   -5.8454   -6.9284 O   0  0  0  0  0  0  0  0  0  0  0  0
    4.9283   -5.8474   -4.8386 C   0  0  0  0  0  0  0  0  0  0  0  0
    5.7063   -6.8108   -4.2625 N   0  0  0  0  0  0  0  0  0  0  0  0
    5.2562   -7.3772   -3.1224 C   0  0  0  0  0  0  0  0  0  0  0  0
    4.0904   -6.9903   -2.4883 C   0  0  0  0  0  0  0  0  0  0  0  0
    3.2936   -6.0312   -3.1086 C   0  0  0  0  0  0  0  0  0  0  0  0
    3.6754   -5.4909   -4.3421 C   0  0  0  0  0  0  0  0  0  0  0  0
    2.7479   -4.6564   -4.9015 O   0  0  0  0  0  0  0  0  0  0  0  0
    2.7106   -4.6228   -6.3295 C   0  0  0  0  0  0  0  0  0  0  0  0
    1.3103   -4.4512   -6.8143 C   0  0  0  0  0  0  0  0  0  0  0  0
    0.3160   -3.8091   -6.0649 C   0  0  0  0  0  0  0  0  0  0  0  0
   -0.9295   -3.6811   -6.6384 C   0  0  0  0  0  0  0  0  0  0  0  0
   -1.2386   -4.1136   -7.8815 N   0  0  0  0  0  0  0  0  0  0  0  0
   -0.2472   -4.6870   -8.5950 C   0  0  0  0  0  0  0  0  0  0  0  0
    1.0295   -4.8625   -8.1191 C   0  0  0  0  0  0  0  0  0  0  0  0
    5.2244   -2.0034   -1.4628 C   0  0  0  0  0  0  0  0  0  0  0  0
    6.4051   -2.6727   -1.0659 C   0  0  0  0  0  0  0  0  0  0  0  0
    6.8674   -2.6188    0.2412 C   0  0  0  0  0  0  0  0  0  0  0  0
    6.1671   -1.8928    1.1835 C   0  0  0  0  0  0  0  0  0  0  0  0
    4.9831   -1.2440    0.8265 C   0  0  0  0  0  0  0  0  0  0  0  0
    4.4807   -1.2894   -0.4888 C   0  0  0  0  0  0  0  0  0  0  0  0
    1.0812    1.3134    0.6336 H   0  0  0  0  0  0  0  0  0  0  0  0
    0.6232    0.0759   -0.5420 H   0  0  0  0  0  0  0  0  0  0  0  0
    1.6498    1.4773   -1.0301 H   0  0  0  0  0  0  0  0  0  0  0  0
    1.8465   -0.3202   -2.4750 H   0  0  0  0  0  0  0  0  0  0  0  0
    3.1144   -1.4628   -4.1222 H   0  0  0  0  0  0  0  0  0  0  0  0
    5.6880   -3.8076   -3.4881 H   0  0  0  0  0  0  0  0  0  0  0  0
    6.6321   -2.3558   -3.8145 H   0  0  0  0  0  0  0  0  0  0  0  0
    5.3930   -1.7766   -5.7288 H   0  0  0  0  0  0  0  0  0  0  0  0
    4.0619   -2.7878   -5.2935 H   0  0  0  0  0  0  0  0  0  0  0  0
    6.0852   -3.5109   -6.9894 H   0  0  0  0  0  0  0  0  0  0  0  0
    5.8828   -8.1643   -2.7112 H   0  0  0  0  0  0  0  0  0  0  0  0
    3.7992   -7.4329   -1.5413 H   0  0  0  0  0  0  0  0  0  0  0  0
    2.3679   -5.7145   -2.6343 H   0  0  0  0  0  0  0  0  0  0  0  0
    3.1454   -5.5154   -6.7744 H   0  0  0  0  0  0  0  0  0  0  0  0
    3.2311   -3.7387   -6.7124 H   0  0  0  0  0  0  0  0  0  0  0  0
    0.5179   -3.4182   -5.0759 H   0  0  0  0  0  0  0  0  0  0  0  0
   -1.7430   -3.2086   -6.0956 H   0  0  0  0  0  0  0  0  0  0  0  0
   -0.5072   -5.0120   -9.5961 H   0  0  0  0  0  0  0  0  0  0  0  0
    1.8055   -5.3008   -8.7415 H   0  0  0  0  0  0  0  0  0  0  0  0
    6.9882   -3.2670   -1.7671 H   0  0  0  0  0  0  0  0  0  0  0  0
    7.7861   -3.1399    0.5050 H   0  0  0  0  0  0  0  0  0  0  0  0
    6.5356   -1.8309    2.2023 H   0  0  0  0  0  0  0  0  0  0  0  0
    4.4469   -0.6928    1.5956 H   0  0  0  0  0  0  0  0  0  0  0  0
  1  2  1  0  0  0  0
  1 32  1  0  0  0  0
  1 33  1  0  0  0  0
  1 34  1  0  0  0  0
  2  3  1  0  0  0  0
  3  4  2  0  0  0  0
  3 31  1  0  0  0  0
  4  5  1  0  0  0  0
  4 35  1  0  0  0  0
  5  6  2  0  0  0  0
  5 36  1  0  0  0  0
  6  7  1  0  0  0  0
  6 26  1  0  0  0  0
  7  8  1  0  0  0  0
  7 37  1  0  0  0  0
  7 38  1  0  0  0  0
  8  9  1  0  0  0  0
  8 39  1  0  0  0  0
  8 40  1  0  0  0  0
  9 10  1  0  0  0  0
  9 41  1  0  0  0  0
 10 11  2  0  0  0  0
 10 12  1  0  0  0  0
 12 13  2  0  0  0  0
 12 17  1  0  0  0  0
 13 14  1  0  0  0  0
 14 15  2  0  0  0  0
 14 42  1  0  0  0  0
 15 16  1  0  0  0  0
 15 43  1  0  0  0  0
 16 17  2  0  0  0  0
 16 44  1  0  0  0  0
 17 18  1  0  0  0  0
 18 19  1  0  0  0  0
 19 20  1  0  0  0  0
 19 45  1  0  0  0  0
 19 46  1  0  0  0  0
 20 21  2  0  0  0  0
 20 25  1  0  0  0  0
 21 22  1  0  0  0  0
 21 47  1  0  0  0  0
 22 23  2  0  0  0  0
 22 48  1  0  0  0  0
 23 24  1  0  0  0  0
 24 25  2  0  0  0  0
 24 49  1  0  0  0  0
 25 50  1  0  0  0  0
 26 27  2  0  0  0  0
 26 31  1  0  0  0  0
 27 28  1  0  0  0  0
 27 51  1  0  0  0  0
 28 29  2  0  0  0  0
 28 52  1  0  0  0  0
 29 30  1  0  0  0  0
 29 53  1  0  0  0  0
 30 31  2  0  0  0  0
 30 54  1  0  0  0  0
M  END
$$$$
