
 OpenBabel01122422473D

 48 51  0  0  0  0  0  0  0  0999 V2000
    1.2260    0.0774   -1.9484 C   0  0  0  0  0  0  0  0  0  0  0  0
    2.6464   -0.0648   -1.9976 O   0  0  0  0  0  0  0  0  0  0  0  0
    3.1692   -0.8400   -1.0093 C   0  0  0  0  0  0  0  0  0  0  0  0
    2.5207   -1.3993   -0.1421 O   0  0  0  0  0  0  0  0  0  0  0  0
    4.6582   -0.9118   -1.1749 C   0  0  0  0  0  0  0  0  0  0  0  0
    5.2961    0.2148   -1.7172 C   0  0  0  0  0  0  0  0  0  0  0  0
    6.6605    0.1959   -1.9577 C   0  0  0  0  0  0  0  0  0  0  0  0
    7.4127   -0.9239   -1.5998 C   0  0  0  0  0  0  0  0  0  0  0  0
    6.8401   -2.0436   -0.9536 C   0  0  0  0  0  0  0  0  0  0  0  0
    7.6215   -3.1485   -0.4820 C   0  0  0  0  0  0  0  0  0  0  0  0
    9.1410   -3.2086   -0.5308 C   0  0  0  0  0  0  0  0  0  0  0  0
    9.7828   -2.2030    0.2975 N   0  0  0  0  0  0  0  0  0  0  0  0
   10.7003   -1.3186   -0.2281 C   0  0  0  0  0  0  0  0  0  0  0  0
   11.0544   -1.3300   -1.3963 O   0  0  0  0  0  0  0  0  0  0  0  0
   11.2067   -0.2635    0.6623 C   0  0  0  0  0  0  0  0  0  0  0  0
   11.3796   -0.3853    2.0226 C   0  0  0  0  0  0  0  0  0  0  0  0
   11.7714    0.6335    2.8169 N   0  0  0  0  0  0  0  0  0  0  0  0
   12.0194    1.8227    2.2169 C   0  0  0  0  0  0  0  0  0  0  0  0
   12.3774    2.9892    3.0582 C   0  0  0  0  0  0  0  0  0  0  0  0
   13.1680    4.0294    2.5599 C   0  0  0  0  0  0  0  0  0  0  0  0
   13.4728    5.1162    3.3774 C   0  0  0  0  0  0  0  0  0  0  0  0
   12.9728    5.1528    4.6713 C   0  0  0  0  0  0  0  0  0  0  0  0
   12.1874    4.0962    5.0967 C   0  0  0  0  0  0  0  0  0  0  0  0
   11.8850    3.0251    4.3303 N   0  0  0  0  0  0  0  0  0  0  0  0
   11.9457    2.0196    0.8800 N   0  0  0  0  0  0  0  0  0  0  0  0
   11.5357    0.9670    0.1363 C   0  0  0  0  0  0  0  0  0  0  0  0
    6.9717   -4.2741    0.0545 C   0  0  0  0  0  0  0  0  0  0  0  0
    5.5917   -4.3182    0.1571 C   0  0  0  0  0  0  0  0  0  0  0  0
    4.8339   -3.2235   -0.2453 C   0  0  0  0  0  0  0  0  0  0  0  0
    5.4195   -2.0555   -0.7839 C   0  0  0  0  0  0  0  0  0  0  0  0
    0.9329    0.7958   -2.7191 H   0  0  0  0  0  0  0  0  0  0  0  0
    0.9051    0.4658   -0.9765 H   0  0  0  0  0  0  0  0  0  0  0  0
    0.7442   -0.8808   -2.1638 H   0  0  0  0  0  0  0  0  0  0  0  0
    4.7301    1.1084   -1.9708 H   0  0  0  0  0  0  0  0  0  0  0  0
    7.1402    1.0538   -2.4241 H   0  0  0  0  0  0  0  0  0  0  0  0
    8.4701   -0.9092   -1.8539 H   0  0  0  0  0  0  0  0  0  0  0  0
    9.4914   -3.1761   -1.5669 H   0  0  0  0  0  0  0  0  0  0  0  0
    9.4857   -4.1627   -0.1160 H   0  0  0  0  0  0  0  0  0  0  0  0
    9.4951   -2.1535    1.2650 H   0  0  0  0  0  0  0  0  0  0  0  0
   11.2205   -1.3243    2.5418 H   0  0  0  0  0  0  0  0  0  0  0  0
   13.5500    3.9908    1.5437 H   0  0  0  0  0  0  0  0  0  0  0  0
   14.0944    5.9246    3.0033 H   0  0  0  0  0  0  0  0  0  0  0  0
   13.1897    5.9838    5.3330 H   0  0  0  0  0  0  0  0  0  0  0  0
   11.7660    4.0806    6.0979 H   0  0  0  0  0  0  0  0  0  0  0  0
   11.4603    1.1617   -0.9301 H   0  0  0  0  0  0  0  0  0  0  0  0
    7.5416   -5.1379    0.3913 H   0  0  0  0  0  0  0  0  0  0  0  0
    5.0979   -5.1985    0.5601 H   0  0  0  0  0  0  0  0  0  0  0  0
    3.7561   -3.3121   -0.1286 H   0  0  0  0  0  0  0  0  0  0  0  0
  1  2  1  0  0  0  0
  1 31  1  0  0  0  0
  1 32  1  0  0  0  0
  1 33  1  0  0  0  0
  2  3  1  0  0  0  0
  3  4  2  0  0  0  0
  3  5  1  0  0  0  0
  5  6  2  0  0  0  0
  5 30  1  0  0  0  0
  6  7  1  0  0  0  0
  6 34  1  0  0  0  0
  7  8  2  0  0  0  0
  7 35  1  0  0  0  0
  8  9  1  0  0  0  0
  8 36  1  0  0  0  0
  9 10  2  0  0  0  0
  9 30  1  0  0  0  0
 10 11  1  0  0  0  0
 10 27  1  0  0  0  0
 11 12  1  0  0  0  0
 11 37  1  0  0  0  0
 11 38  1  0  0  0  0
 12 13  1  0  0  0  0
 12 39  1  0  0  0  0
 13 14  2  0  0  0  0
 13 15  1  0  0  0  0
 15 16  2  0  0  0  0
 15 26  1  0  0  0  0
 16 17  1  0  0  0  0
 16 40  1  0  0  0  0
 17 18  2  0  0  0  0
 18 19  1  0  0  0  0
 18 25  1  0  0  0  0
 19 20  2  0  0  0  0
 19 24  1  0  0  0  0
 20 21  1  0  0  0  0
 20 41  1  0  0  0  0
 21 22  2  0  0  0  0
 21 42  1  0  0  0  0
 22 23  1  0  0  0  0
 22 43  1  0  0  0  0
 23 24  2  0  0  0  0
 23 44  1  0  0  0  0
 25 26  2  0  0  0  0
 26 45  1  0  0  0  0
 27 28  2  0  0  0  0
 27 46  1  0  0  0  0
 28 29  1  0  0  0  0
 28 47  1  0  0  0  0
 29 30  2  0  0  0  0
 29 48  1  0  0  0  0
M  END
$$$$
