
 OpenBabel01122422473D

 50 53  0  0  0  0  0  0  0  0999 V2000
    3.3152    1.3262   -2.5465 C   0  0  0  0  0  0  0  0  0  0  0  0
    3.5534    0.6454   -1.2294 C   0  0  0  0  0  0  0  0  0  0  0  0
    3.2053    1.2322   -0.1261 N   0  0  0  0  0  0  0  0  0  0  0  0
    3.5084    0.5933    1.0863 C   0  0  0  0  0  0  0  0  0  0  0  0
    3.1676    1.2673    2.2647 C   0  0  0  0  0  0  0  0  0  0  0  0
    3.4901    0.7357    3.5114 C   0  0  0  0  0  0  0  0  0  0  0  0
    4.1381   -0.4919    3.5876 C   0  0  0  0  0  0  0  0  0  0  0  0
    4.4607   -1.1896    2.4199 C   0  0  0  0  0  0  0  0  0  0  0  0
    4.1659   -0.6504    1.1579 C   0  0  0  0  0  0  0  0  0  0  0  0
    4.5261   -1.3013   -0.0579 N   0  0  0  0  0  0  0  0  0  0  0  0
    5.1970   -2.5962   -0.0640 C   0  0  0  0  0  0  0  0  0  0  0  0
    4.2111   -3.7739   -0.0234 C   0  0  0  0  0  0  0  0  0  0  0  0
    4.8749   -5.0640    0.0449 N   0  0  0  0  0  0  0  0  0  0  0  0
    5.6264   -5.4167    1.1481 C   0  0  0  0  0  0  0  0  0  0  0  0
    5.7656   -4.6987    2.1255 O   0  0  0  0  0  0  0  0  0  0  0  0
    6.2666   -6.7586    1.1103 C   0  0  0  0  0  0  0  0  0  0  0  0
    6.5717   -7.3869    2.3198 C   0  0  0  0  0  0  0  0  0  0  0  0
    7.1840   -8.6427    2.3214 C   0  0  0  0  0  0  0  0  0  0  0  0
    7.4797   -9.2812    1.1143 C   0  0  0  0  0  0  0  0  0  0  0  0
    7.1511   -8.6725   -0.1012 C   0  0  0  0  0  0  0  0  0  0  0  0
    7.3836   -9.3013   -1.3567 N   0  0  0  0  0  0  0  0  0  0  0  0
    7.6098   -8.5022   -2.4378 N   0  0  0  0  0  0  0  0  0  0  0  0
    7.9491   -9.3307   -3.4205 C   0  0  0  0  0  0  0  0  0  0  0  0
    7.8343  -10.6673   -3.0368 C   0  0  0  0  0  0  0  0  0  0  0  0
    7.3962  -10.6315   -1.7231 C   0  0  0  0  0  0  0  0  0  0  0  0
    6.9148  -11.7572   -0.9066 C   0  0  0  0  0  0  0  0  0  0  0  0
    6.2509  -11.4149    0.2204 F   0  0  0  0  0  0  0  0  0  0  0  0
    6.0522  -12.5293   -1.6183 F   0  0  0  0  0  0  0  0  0  0  0  0
    7.9389  -12.5652   -0.5357 F   0  0  0  0  0  0  0  0  0  0  0  0
    6.5878   -7.3853   -0.1002 C   0  0  0  0  0  0  0  0  0  0  0  0
    4.2243   -0.7165   -1.2814 C   0  0  0  0  0  0  0  0  0  0  0  0
    4.4569   -1.2140   -2.3771 O   0  0  0  0  0  0  0  0  0  0  0  0
    2.8146    2.2866   -2.3950 H   0  0  0  0  0  0  0  0  0  0  0  0
    2.6901    0.6958   -3.1837 H   0  0  0  0  0  0  0  0  0  0  0  0
    4.2756    1.5046   -3.0390 H   0  0  0  0  0  0  0  0  0  0  0  0
    2.6618    2.2276    2.2011 H   0  0  0  0  0  0  0  0  0  0  0  0
    3.2434    1.2827    4.4174 H   0  0  0  0  0  0  0  0  0  0  0  0
    4.4030   -0.9096    4.5564 H   0  0  0  0  0  0  0  0  0  0  0  0
    4.9583   -2.1483    2.5382 H   0  0  0  0  0  0  0  0  0  0  0  0
    5.9354   -2.6319    0.7413 H   0  0  0  0  0  0  0  0  0  0  0  0
    5.7947   -2.6832   -0.9810 H   0  0  0  0  0  0  0  0  0  0  0  0
    3.5939   -3.7789   -0.9298 H   0  0  0  0  0  0  0  0  0  0  0  0
    3.5368   -3.6982    0.8354 H   0  0  0  0  0  0  0  0  0  0  0  0
    4.6027   -5.7695   -0.6227 H   0  0  0  0  0  0  0  0  0  0  0  0
    6.3397   -6.8987    3.2628 H   0  0  0  0  0  0  0  0  0  0  0  0
    7.4312   -9.1181    3.2666 H   0  0  0  0  0  0  0  0  0  0  0  0
    7.9964  -10.2357    1.1599 H   0  0  0  0  0  0  0  0  0  0  0  0
    8.2308   -8.9203   -4.3830 H   0  0  0  0  0  0  0  0  0  0  0  0
    7.9755  -11.5491   -3.6487 H   0  0  0  0  0  0  0  0  0  0  0  0
    6.3910   -6.8817   -1.0433 H   0  0  0  0  0  0  0  0  0  0  0  0
  1  2  1  0  0  0  0
  1 33  1  0  0  0  0
  1 34  1  0  0  0  0
  1 35  1  0  0  0  0
  2  3  2  0  0  0  0
  2 31  1  0  0  0  0
  3  4  1  0  0  0  0
  4  5  2  0  0  0  0
  4  9  1  0  0  0  0
  5  6  1  0  0  0  0
  5 36  1  0  0  0  0
  6  7  2  0  0  0  0
  6 37  1  0  0  0  0
  7  8  1  0  0  0  0
  7 38  1  0  0  0  0
  8  9  2  0  0  0  0
  8 39  1  0  0  0  0
  9 10  1  0  0  0  0
 10 11  1  0  0  0  0
 10 31  1  0  0  0  0
 11 12  1  0  0  0  0
 11 40  1  0  0  0  0
 11 41  1  0  0  0  0
 12 13  1  0  0  0  0
 12 42  1  0  0  0  0
 12 43  1  0  0  0  0
 13 14  1  0  0  0  0
 13 44  1  0  0  0  0
 14 15  2  0  0  0  0
 14 16  1  0  0  0  0
 16 17  2  0  0  0  0
 16 30  1  0  0  0  0
 17 18  1  0  0  0  0
 17 45  1  0  0  0  0
 18 19  2  0  0  0  0
 18 46  1  0  0  0  0
 19 20  1  0  0  0  0
 19 47  1  0  0  0  0
 20 21  1  0  0  0  0
 20 30  2  0  0  0  0
 21 22  1  0  0  0  0
 21 25  1  0  0  0  0
 22 23  2  0  0  0  0
 23 24  1  0  0  0  0
 23 48  1  0  0  0  0
 24 25  2  0  0  0  0
 24 49  1  0  0  0  0
 25 26  1  0  0  0  0
 26 27  1  0  0  0  0
 26 28  1  0  0  0  0
 26 29  1  0  0  0  0
 30 50  1  0  0  0  0
 31 32  2  0  0  0  0
M  END
$$$$
