
 OpenBabel01122422473D

 47 50  0  0  0  0  0  0  0  0999 V2000
   -2.4569    1.2258    0.0345 C   0  0  0  0  0  0  0  0  0  0  0  0
   -1.2719    0.2975    0.0223 C   0  0  0  0  0  0  0  0  0  0  0  0
   -1.3113   -1.0554    0.0028 C   0  0  0  0  0  0  0  0  0  0  0  0
   -2.5978   -1.7816   -0.0242 C   0  0  0  0  0  0  0  0  0  0  0  0
   -3.2022   -2.1011   -1.2475 C   0  0  0  0  0  0  0  0  0  0  0  0
   -4.4071   -2.8069   -1.2754 C   0  0  0  0  0  0  0  0  0  0  0  0
   -5.0126   -3.2024   -0.0834 C   0  0  0  0  0  0  0  0  0  0  0  0
   -4.4155   -2.8917    1.1380 C   0  0  0  0  0  0  0  0  0  0  0  0
   -3.2110   -2.1848    1.1691 C   0  0  0  0  0  0  0  0  0  0  0  0
   -0.0467   -1.7887   -0.0056 C   0  0  0  0  0  0  0  0  0  0  0  0
    1.1553   -1.1801    0.0041 C   0  0  0  0  0  0  0  0  0  0  0  0
    2.3829   -2.0289   -0.0136 C   0  0  0  0  0  0  0  0  0  0  0  0
    2.3210   -3.2559   -0.0416 O   0  0  0  0  0  0  0  0  0  0  0  0
    3.5781   -1.3632    0.0002 N   0  0  0  0  0  0  0  0  0  0  0  0
    4.8371   -2.0779   -0.0280 C   0  0  0  0  0  0  0  0  0  0  0  0
    5.9965   -1.1420   -0.0364 C   0  0  0  0  0  0  0  0  0  0  0  0
    7.2604   -1.5879   -0.0597 N   0  0  0  0  0  0  0  0  0  0  0  0
    8.0138   -0.4153   -0.0562 O   0  0  0  0  0  0  0  0  0  0  0  0
    7.1280    0.6268   -0.0307 C   0  0  0  0  0  0  0  0  0  0  0  0
    7.6949    1.9725   -0.0125 C   0  0  0  0  0  0  0  0  0  0  0  0
    9.0849    2.1899   -0.0051 C   0  0  0  0  0  0  0  0  0  0  0  0
    9.6060    3.4870    0.0224 C   0  0  0  0  0  0  0  0  0  0  0  0
    8.7406    4.5728    0.0415 C   0  0  0  0  0  0  0  0  0  0  0  0
    9.2411    5.8146    0.0711 F   0  0  0  0  0  0  0  0  0  0  0  0
    7.3640    4.3871    0.0312 C   0  0  0  0  0  0  0  0  0  0  0  0
    6.8421    3.0896    0.0041 C   0  0  0  0  0  0  0  0  0  0  0  0
    5.8722    0.2314   -0.0197 N   0  0  0  0  0  0  0  0  0  0  0  0
    1.1745    0.3066    0.0271 C   0  0  0  0  0  0  0  0  0  0  0  0
    2.2179    0.9550    0.0385 O   0  0  0  0  0  0  0  0  0  0  0  0
   -0.0463    0.9345    0.0347 N   0  0  0  0  0  0  0  0  0  0  0  0
   -3.4184    0.7108    0.0982 H   0  0  0  0  0  0  0  0  0  0  0  0
   -2.4660    1.8328   -0.8774 H   0  0  0  0  0  0  0  0  0  0  0  0
   -2.3945    1.9027    0.8941 H   0  0  0  0  0  0  0  0  0  0  0  0
   -2.7367   -1.8050   -2.1847 H   0  0  0  0  0  0  0  0  0  0  0  0
   -4.8707   -3.0533   -2.2274 H   0  0  0  0  0  0  0  0  0  0  0  0
   -5.9472   -3.7574   -0.1065 H   0  0  0  0  0  0  0  0  0  0  0  0
   -4.8862   -3.2054    2.0665 H   0  0  0  0  0  0  0  0  0  0  0  0
   -2.7540   -1.9536    2.1284 H   0  0  0  0  0  0  0  0  0  0  0  0
   -0.1165   -2.8748   -0.0231 H   0  0  0  0  0  0  0  0  0  0  0  0
    3.6031   -0.3415    0.0236 H   0  0  0  0  0  0  0  0  0  0  0  0
    4.8527   -2.7098   -0.9229 H   0  0  0  0  0  0  0  0  0  0  0  0
    4.8801   -2.7288    0.8522 H   0  0  0  0  0  0  0  0  0  0  0  0
    9.7802    1.3524   -0.0183 H   0  0  0  0  0  0  0  0  0  0  0  0
   10.6787    3.6536    0.0305 H   0  0  0  0  0  0  0  0  0  0  0  0
    6.7053    5.2498    0.0465 H   0  0  0  0  0  0  0  0  0  0  0  0
    5.7610    2.9528   -0.0023 H   0  0  0  0  0  0  0  0  0  0  0  0
   -0.0072    1.9471    0.0485 H   0  0  0  0  0  0  0  0  0  0  0  0
  1  2  1  0  0  0  0
  1 31  1  0  0  0  0
  1 32  1  0  0  0  0
  1 33  1  0  0  0  0
  2  3  2  0  0  0  0
  2 30  1  0  0  0  0
  3  4  1  0  0  0  0
  3 10  1  0  0  0  0
  4  5  2  0  0  0  0
  4  9  1  0  0  0  0
  5  6  1  0  0  0  0
  5 34  1  0  0  0  0
  6  7  2  0  0  0  0
  6 35  1  0  0  0  0
  7  8  1  0  0  0  0
  7 36  1  0  0  0  0
  8  9  2  0  0  0  0
  8 37  1  0  0  0  0
  9 38  1  0  0  0  0
 10 11  2  0  0  0  0
 10 39  1  0  0  0  0
 11 12  1  0  0  0  0
 11 28  1  0  0  0  0
 12 13  2  0  0  0  0
 12 14  1  0  0  0  0
 14 15  1  0  0  0  0
 14 40  1  0  0  0  0
 15 16  1  0  0  0  0
 15 41  1  0  0  0  0
 15 42  1  0  0  0  0
 16 17  2  0  0  0  0
 16 27  1  0  0  0  0
 17 18  1  0  0  0  0
 18 19  1  0  0  0  0
 19 20  1  0  0  0  0
 19 27  2  0  0  0  0
 20 21  2  0  0  0  0
 20 26  1  0  0  0  0
 21 22  1  0  0  0  0
 21 43  1  0  0  0  0
 22 23  2  0  0  0  0
 22 44  1  0  0  0  0
 23 24  1  0  0  0  0
 23 25  1  0  0  0  0
 25 26  2  0  0  0  0
 25 45  1  0  0  0  0
 26 46  1  0  0  0  0
 28 29  2  0  0  0  0
 28 30  1  0  0  0  0
 30 47  1  0  0  0  0
M  END
$$$$
