
 OpenBabel01122422473D

 46 49  0  0  0  0  0  0  0  0999 V2000
    5.5825    3.9258    4.8745 C   0  0  0  0  0  0  0  0  0  0  0  0
    5.6647    2.9394    3.8430 O   0  0  0  0  0  0  0  0  0  0  0  0
    6.0216    1.6834    4.2897 C   0  0  0  0  0  0  0  0  0  0  0  0
    6.2567    1.4204    5.4641 O   0  0  0  0  0  0  0  0  0  0  0  0
    6.1425    0.7486    3.1681 C   0  0  0  0  0  0  0  0  0  0  0  0
    6.9520   -0.3894    3.4033 C   0  0  0  0  0  0  0  0  0  0  0  0
    7.0587   -1.3552    2.4323 C   0  0  0  0  0  0  0  0  0  0  0  0
    6.4690   -1.2695    1.2295 N   0  0  0  0  0  0  0  0  0  0  0  0
    5.6959   -0.1965    1.0100 C   0  0  0  0  0  0  0  0  0  0  0  0
    5.2348   -0.1214   -0.2499 O   0  0  0  0  0  0  0  0  0  0  0  0
    5.4425    0.8288    1.9467 C   0  0  0  0  0  0  0  0  0  0  0  0
    4.5187    1.8644    1.6606 N   0  0  0  0  0  0  0  0  0  0  0  0
    3.2670    1.5712    1.1283 C   0  0  0  0  0  0  0  0  0  0  0  0
    2.8237    0.4507    0.9706 O   0  0  0  0  0  0  0  0  0  0  0  0
    2.3688    2.7082    0.9224 C   0  0  0  0  0  0  0  0  0  0  0  0
    2.8518    3.8964    0.3911 C   0  0  0  0  0  0  0  0  0  0  0  0
    2.1197    5.0572    0.5635 C   0  0  0  0  0  0  0  0  0  0  0  0
    0.9653    5.0001    1.3373 C   0  0  0  0  0  0  0  0  0  0  0  0
    0.8049    6.0528    2.2953 N   0  0  0  0  0  0  0  0  0  0  0  0
    1.1185    7.3693    2.0826 C   0  0  0  0  0  0  0  0  0  0  0  0
    0.7294    7.9914    3.2707 C   0  0  0  0  0  0  0  0  0  0  0  0
    1.1646    7.0731    4.2372 C   0  0  0  0  0  0  0  0  0  0  0  0
    1.6980    7.1269    5.5348 C   0  0  0  0  0  0  0  0  0  0  0  0
    1.8743    5.9304    6.2411 C   0  0  0  0  0  0  0  0  0  0  0  0
    1.3751    4.7343    5.7384 C   0  0  0  0  0  0  0  0  0  0  0  0
    0.8140    4.6811    4.4622 C   0  0  0  0  0  0  0  0  0  0  0  0
    0.8410    5.8407    3.6725 C   0  0  0  0  0  0  0  0  0  0  0  0
    0.3246    3.7805    1.5902 C   0  0  0  0  0  0  0  0  0  0  0  0
    1.0580    2.6188    1.3981 C   0  0  0  0  0  0  0  0  0  0  0  0
    5.5437    4.9112    4.3980 H   0  0  0  0  0  0  0  0  0  0  0  0
    6.4620    3.8961    5.5247 H   0  0  0  0  0  0  0  0  0  0  0  0
    4.6682    3.7724    5.4461 H   0  0  0  0  0  0  0  0  0  0  0  0
    7.4661   -0.5042    4.3571 H   0  0  0  0  0  0  0  0  0  0  0  0
    7.6594   -2.2471    2.5996 H   0  0  0  0  0  0  0  0  0  0  0  0
    5.4822   -1.0096   -0.5751 H   0  0  0  0  0  0  0  0  0  0  0  0
    4.5858    2.7129    2.2072 H   0  0  0  0  0  0  0  0  0  0  0  0
    3.8410    3.9459   -0.0670 H   0  0  0  0  0  0  0  0  0  0  0  0
    2.5785    5.9958    0.2630 H   0  0  0  0  0  0  0  0  0  0  0  0
    1.5401    7.7603    1.1645 H   0  0  0  0  0  0  0  0  0  0  0  0
    0.3516    9.0038    3.4010 H   0  0  0  0  0  0  0  0  0  0  0  0
    2.0856    8.0570    5.9425 H   0  0  0  0  0  0  0  0  0  0  0  0
    2.4036    5.9284    7.1924 H   0  0  0  0  0  0  0  0  0  0  0  0
    1.4651    3.8175    6.3122 H   0  0  0  0  0  0  0  0  0  0  0  0
    0.4681    3.7248    4.0905 H   0  0  0  0  0  0  0  0  0  0  0  0
   -0.6266    3.7443    2.1043 H   0  0  0  0  0  0  0  0  0  0  0  0
    0.6632    1.6622    1.7486 H   0  0  0  0  0  0  0  0  0  0  0  0
  1  2  1  0  0  0  0
  1 30  1  0  0  0  0
  1 31  1  0  0  0  0
  1 32  1  0  0  0  0
  2  3  1  0  0  0  0
  3  4  2  0  0  0  0
  3  5  1  0  0  0  0
  5  6  2  0  0  0  0
  5 11  1  0  0  0  0
  6  7  1  0  0  0  0
  6 33  1  0  0  0  0
  7  8  2  0  0  0  0
  7 34  1  0  0  0  0
  8  9  1  0  0  0  0
  9 10  1  0  0  0  0
  9 11  2  0  0  0  0
 10 35  1  0  0  0  0
 11 12  1  0  0  0  0
 12 13  1  0  0  0  0
 12 36  1  0  0  0  0
 13 14  2  0  0  0  0
 13 15  1  0  0  0  0
 15 16  2  0  0  0  0
 15 29  1  0  0  0  0
 16 17  1  0  0  0  0
 16 37  1  0  0  0  0
 17 18  2  0  0  0  0
 17 38  1  0  0  0  0
 18 19  1  0  0  0  0
 18 28  1  0  0  0  0
 19 20  1  0  0  0  0
 19 27  1  0  0  0  0
 20 21  2  0  0  0  0
 20 39  1  0  0  0  0
 21 22  1  0  0  0  0
 21 40  1  0  0  0  0
 22 23  2  0  0  0  0
 22 27  1  0  0  0  0
 23 24  1  0  0  0  0
 23 41  1  0  0  0  0
 24 25  2  0  0  0  0
 24 42  1  0  0  0  0
 25 26  1  0  0  0  0
 25 43  1  0  0  0  0
 26 27  2  0  0  0  0
 26 44  1  0  0  0  0
 28 29  2  0  0  0  0
 28 45  1  0  0  0  0
 29 46  1  0  0  0  0
M  END
$$$$
