
 OpenBabel01122422473D

 47 50  0  0  0  0  0  0  0  0999 V2000
    3.0515   -1.0794    2.4564 O   0  0  0  0  0  0  0  0  0  0  0  0
    3.2529   -0.5888    1.3511 C   0  0  0  0  0  0  0  0  0  0  0  0
    2.8628    0.6847    1.0110 N   0  0  0  0  0  0  0  0  0  0  0  0
    2.2077    1.5651    1.9507 C   0  0  0  0  0  0  0  0  0  0  0  0
    3.2016    2.3944    2.7276 C   0  0  0  0  0  0  0  0  0  0  0  0
    3.7487    1.8941    3.9066 C   0  0  0  0  0  0  0  0  0  0  0  0
    4.6818    2.6615    4.5971 C   0  0  0  0  0  0  0  0  0  0  0  0
    5.0125    3.9276    4.1218 C   0  0  0  0  0  0  0  0  0  0  0  0
    5.8894    4.7842    4.7397 O   0  0  0  0  0  0  0  0  0  0  0  0
    5.8933    4.8490    6.1154 C   0  0  0  0  0  0  0  0  0  0  0  0
    7.1211    5.1220    6.7231 C   0  0  0  0  0  0  0  0  0  0  0  0
    7.2137    5.1896    8.1150 C   0  0  0  0  0  0  0  0  0  0  0  0
    6.0789    4.9889    8.9007 C   0  0  0  0  0  0  0  0  0  0  0  0
    4.8446    4.7573    8.2966 C   0  0  0  0  0  0  0  0  0  0  0  0
    4.7463    4.7159    6.9059 C   0  0  0  0  0  0  0  0  0  0  0  0
    4.4558    4.3306    2.9164 C   0  0  0  0  0  0  0  0  0  0  0  0
    3.5643    3.5949    2.2051 N   0  0  0  0  0  0  0  0  0  0  0  0
    3.9072   -1.3311    0.2884 C   0  0  0  0  0  0  0  0  0  0  0  0
    4.2015   -0.9263   -0.9990 C   0  0  0  0  0  0  0  0  0  0  0  0
    4.7472   -1.9998   -1.6662 N   0  0  0  0  0  0  0  0  0  0  0  0
    5.1368   -2.0586   -3.0332 C   0  0  0  0  0  0  0  0  0  0  0  0
    5.5767   -3.2730   -3.5793 C   0  0  0  0  0  0  0  0  0  0  0  0
    5.9293   -3.3273   -4.9261 C   0  0  0  0  0  0  0  0  0  0  0  0
    6.3353   -4.4926   -5.5096 O   0  0  0  0  0  0  0  0  0  0  0  0
    5.8687   -2.1955   -5.7310 C   0  0  0  0  0  0  0  0  0  0  0  0
    5.4380   -0.9870   -5.1916 C   0  0  0  0  0  0  0  0  0  0  0  0
    5.0667   -0.9151   -3.8474 C   0  0  0  0  0  0  0  0  0  0  0  0
    4.8611   -3.0769   -0.8464 N   0  0  0  0  0  0  0  0  0  0  0  0
    4.3604   -2.6654    0.3220 C   0  0  0  0  0  0  0  0  0  0  0  0
    3.2100    1.1098    0.1660 H   0  0  0  0  0  0  0  0  0  0  0  0
    1.5703    0.9881    2.6296 H   0  0  0  0  0  0  0  0  0  0  0  0
    1.5566    2.2263    1.3679 H   0  0  0  0  0  0  0  0  0  0  0  0
    3.4583    0.9166    4.2822 H   0  0  0  0  0  0  0  0  0  0  0  0
    5.1240    2.2677    5.5075 H   0  0  0  0  0  0  0  0  0  0  0  0
    8.0089    5.2735    6.1146 H   0  0  0  0  0  0  0  0  0  0  0  0
    8.1711    5.3940    8.5870 H   0  0  0  0  0  0  0  0  0  0  0  0
    6.1539    5.0221    9.9846 H   0  0  0  0  0  0  0  0  0  0  0  0
    3.9569    4.6096    8.9063 H   0  0  0  0  0  0  0  0  0  0  0  0
    3.7711    4.5605    6.4534 H   0  0  0  0  0  0  0  0  0  0  0  0
    4.7140    5.2915    2.4801 H   0  0  0  0  0  0  0  0  0  0  0  0
    4.0341    0.0154   -1.4939 H   0  0  0  0  0  0  0  0  0  0  0  0
    5.6342   -4.1661   -2.9624 H   0  0  0  0  0  0  0  0  0  0  0  0
    6.2470   -5.2085   -4.8583 H   0  0  0  0  0  0  0  0  0  0  0  0
    6.1537   -2.2569   -6.7778 H   0  0  0  0  0  0  0  0  0  0  0  0
    5.3867   -0.1003   -5.8186 H   0  0  0  0  0  0  0  0  0  0  0  0
    4.7372    0.0480   -3.4731 H   0  0  0  0  0  0  0  0  0  0  0  0
    4.3267   -3.3592    1.1545 H   0  0  0  0  0  0  0  0  0  0  0  0
  1  2  2  0  0  0  0
  2  3  1  0  0  0  0
  2 18  1  0  0  0  0
  3  4  1  0  0  0  0
  3 30  1  0  0  0  0
  4  5  1  0  0  0  0
  4 31  1  0  0  0  0
  4 32  1  0  0  0  0
  5  6  2  0  0  0  0
  5 17  1  0  0  0  0
  6  7  1  0  0  0  0
  6 33  1  0  0  0  0
  7  8  2  0  0  0  0
  7 34  1  0  0  0  0
  8  9  1  0  0  0  0
  8 16  1  0  0  0  0
  9 10  1  0  0  0  0
 10 11  2  0  0  0  0
 10 15  1  0  0  0  0
 11 12  1  0  0  0  0
 11 35  1  0  0  0  0
 12 13  2  0  0  0  0
 12 36  1  0  0  0  0
 13 14  1  0  0  0  0
 13 37  1  0  0  0  0
 14 15  2  0  0  0  0
 14 38  1  0  0  0  0
 15 39  1  0  0  0  0
 16 17  2  0  0  0  0
 16 40  1  0  0  0  0
 18 19  2  0  0  0  0
 18 29  1  0  0  0  0
 19 20  1  0  0  0  0
 19 41  1  0  0  0  0
 20 21  1  0  0  0  0
 20 28  1  0  0  0  0
 21 22  2  0  0  0  0
 21 27  1  0  0  0  0
 22 23  1  0  0  0  0
 22 42  1  0  0  0  0
 23 24  1  0  0  0  0
 23 25  2  0  0  0  0
 24 43  1  0  0  0  0
 25 26  1  0  0  0  0
 25 44  1  0  0  0  0
 26 27  2  0  0  0  0
 26 45  1  0  0  0  0
 27 46  1  0  0  0  0
 28 29  2  0  0  0  0
 29 47  1  0  0  0  0
M  END
$$$$
