
 OpenBabel01122422473D

 43 46  0  0  0  0  0  0  0  0999 V2000
    3.2903   -0.5961    0.7910 N   0  0  0  0  0  0  0  0  0  0  0  0
    2.7871    0.4743    0.1053 C   0  0  0  0  0  0  0  0  0  0  0  0
    1.8898    1.1575    0.5836 O   0  0  0  0  0  0  0  0  0  0  0  0
    3.3879    0.7270   -1.1820 C   0  0  0  0  0  0  0  0  0  0  0  0
    4.3333    0.0049   -1.8800 C   0  0  0  0  0  0  0  0  0  0  0  0
    4.5738    0.6555   -3.1116 C   0  0  0  0  0  0  0  0  0  0  0  0
    5.4187    0.3328   -4.1822 C   0  0  0  0  0  0  0  0  0  0  0  0
    5.4396    1.1573   -5.2979 C   0  0  0  0  0  0  0  0  0  0  0  0
    4.6367    2.2933   -5.3457 C   0  0  0  0  0  0  0  0  0  0  0  0
    3.7823    2.6687   -4.2891 C   0  0  0  0  0  0  0  0  0  0  0  0
    2.9723    3.8322   -4.3494 N   0  0  0  0  0  0  0  0  0  0  0  0
    2.9486    4.7570   -5.3909 C   0  0  0  0  0  0  0  0  0  0  0  0
    3.6684    4.7676   -6.3840 O   0  0  0  0  0  0  0  0  0  0  0  0
    1.9575    5.8634   -5.2913 C   0  0  0  0  0  0  0  0  0  0  0  0
    2.2616    7.0884   -5.9236 C   0  0  0  0  0  0  0  0  0  0  0  0
    1.3513    8.1625   -5.9441 C   0  0  0  0  0  0  0  0  0  0  0  0
    1.6504    9.4491   -6.6134 C   0  0  0  0  0  0  0  0  0  0  0  0
    2.4887    9.5618   -7.7238 C   0  0  0  0  0  0  0  0  0  0  0  0
    2.7069   10.8168   -8.2940 C   0  0  0  0  0  0  0  0  0  0  0  0
    2.0858   11.9312   -7.7485 C   0  0  0  0  0  0  0  0  0  0  0  0
    1.2657   11.7419   -6.6520 C   0  0  0  0  0  0  0  0  0  0  0  0
    1.0353   10.5374   -6.0814 N   0  0  0  0  0  0  0  0  0  0  0  0
    0.1191    7.9611   -5.2997 C   0  0  0  0  0  0  0  0  0  0  0  0
   -0.1825    6.7461   -4.6881 C   0  0  0  0  0  0  0  0  0  0  0  0
   -1.3794    6.5807   -4.1096 F   0  0  0  0  0  0  0  0  0  0  0  0
    0.7179    5.6894   -4.6824 C   0  0  0  0  0  0  0  0  0  0  0  0
    3.7691    1.8021   -3.1718 C   0  0  0  0  0  0  0  0  0  0  0  0
    3.0617    1.8118   -1.9787 N   0  0  0  0  0  0  0  0  0  0  0  0
    2.9221   -0.7894    1.7105 H   0  0  0  0  0  0  0  0  0  0  0  0
    4.0949   -1.1171    0.4787 H   0  0  0  0  0  0  0  0  0  0  0  0
    4.8079   -0.9120   -1.5577 H   0  0  0  0  0  0  0  0  0  0  0  0
    6.0454   -0.5544   -4.1478 H   0  0  0  0  0  0  0  0  0  0  0  0
    6.0808    0.9180   -6.1402 H   0  0  0  0  0  0  0  0  0  0  0  0
    4.7046    2.8795   -6.2564 H   0  0  0  0  0  0  0  0  0  0  0  0
    2.4055    4.0229   -3.5371 H   0  0  0  0  0  0  0  0  0  0  0  0
    3.2355    7.1933   -6.4025 H   0  0  0  0  0  0  0  0  0  0  0  0
    2.9612    8.6914   -8.1666 H   0  0  0  0  0  0  0  0  0  0  0  0
    3.3537   10.9191   -9.1612 H   0  0  0  0  0  0  0  0  0  0  0  0
    2.2330   12.9196   -8.1684 H   0  0  0  0  0  0  0  0  0  0  0  0
    0.7525   12.5789   -6.1865 H   0  0  0  0  0  0  0  0  0  0  0  0
   -0.6282    8.7518   -5.2819 H   0  0  0  0  0  0  0  0  0  0  0  0
    0.4144    4.7476   -4.2418 H   0  0  0  0  0  0  0  0  0  0  0  0
    2.3785    2.5039   -1.7060 H   0  0  0  0  0  0  0  0  0  0  0  0
  1  2  1  0  0  0  0
  1 29  1  0  0  0  0
  1 30  1  0  0  0  0
  2  3  2  0  0  0  0
  2  4  1  0  0  0  0
  4  5  2  0  0  0  0
  4 28  1  0  0  0  0
  5  6  1  0  0  0  0
  5 31  1  0  0  0  0
  6  7  2  0  0  0  0
  6 27  1  0  0  0  0
  7  8  1  0  0  0  0
  7 32  1  0  0  0  0
  8  9  2  0  0  0  0
  8 33  1  0  0  0  0
  9 10  1  0  0  0  0
  9 34  1  0  0  0  0
 10 11  1  0  0  0  0
 10 27  2  0  0  0  0
 11 12  1  0  0  0  0
 11 35  1  0  0  0  0
 12 13  2  0  0  0  0
 12 14  1  0  0  0  0
 14 15  2  0  0  0  0
 14 26  1  0  0  0  0
 15 16  1  0  0  0  0
 15 36  1  0  0  0  0
 16 17  1  0  0  0  0
 16 23  2  0  0  0  0
 17 18  2  0  0  0  0
 17 22  1  0  0  0  0
 18 19  1  0  0  0  0
 18 37  1  0  0  0  0
 19 20  2  0  0  0  0
 19 38  1  0  0  0  0
 20 21  1  0  0  0  0
 20 39  1  0  0  0  0
 21 22  2  0  0  0  0
 21 40  1  0  0  0  0
 23 24  1  0  0  0  0
 23 41  1  0  0  0  0
 24 25  1  0  0  0  0
 24 26  2  0  0  0  0
 26 42  1  0  0  0  0
 27 28  1  0  0  0  0
 28 43  1  0  0  0  0
M  END
$$$$
