
 OpenBabel01122422473D

 47 50  0  0  1  0  0  0  0  0999 V2000
    1.7419   -1.1704    0.5519 O   0  0  0  0  0  0  0  0  0  0  0  0
    2.8914   -0.7474    0.5582 C   0  0  0  0  0  0  0  0  0  0  0  0
    3.2863    0.3662    1.2523 N   0  0  0  0  0  0  0  0  0  0  0  0
    2.4388    1.1377    2.1979 C   0  0  3  0  0  0  0  0  0  0  0  0
    1.3416    0.2923    2.9401 C   0  0  0  0  0  0  0  0  0  0  0  0
    1.7701   -0.6807    3.9606 N   0  0  0  0  0  0  0  0  0  0  0  0
    2.9993   -1.3240    3.8993 C   0  0  0  0  0  0  0  0  0  0  0  0
    3.3333   -2.3077    4.7428 C   0  0  0  0  0  0  0  0  0  0  0  0
    2.3996   -2.7443    5.7391 C   0  0  0  0  0  0  0  0  0  0  0  0
    1.2079   -2.1455    5.8560 C   0  0  0  0  0  0  0  0  0  0  0  0
    0.8273   -1.0443    4.9265 C   0  0  0  0  0  0  0  0  0  0  0  0
   -0.2801   -0.5187    5.0608 O   0  0  0  0  0  0  0  0  0  0  0  0
    3.2890    1.9608    3.1979 C   0  0  0  0  0  0  0  0  0  0  0  0
    4.6261    2.3138    2.9434 C   0  0  0  0  0  0  0  0  0  0  0  0
    5.4048    2.9659    3.9066 C   0  0  0  0  0  0  0  0  0  0  0  0
    4.8605    3.3087    5.1385 C   0  0  0  0  0  0  0  0  0  0  0  0
    3.5254    3.0339    5.3947 C   0  0  0  0  0  0  0  0  0  0  0  0
    2.7472    2.3866    4.4306 C   0  0  0  0  0  0  0  0  0  0  0  0
    3.9423   -1.5011   -0.0913 C   0  0  0  0  0  0  0  0  0  0  0  0
    5.2959   -1.3208   -0.3531 C   0  0  0  0  0  0  0  0  0  0  0  0
    5.8307   -2.5766   -0.8028 C   0  0  0  0  0  0  0  0  0  0  0  0
    4.7779   -3.4866   -0.7499 C   0  0  0  0  0  0  0  0  0  0  0  0
    3.6379   -2.7648   -0.5471 N   0  0  0  0  0  0  0  0  0  0  0  0
    4.9526   -4.8585   -0.8940 C   0  0  0  0  0  0  0  0  0  0  0  0
    3.9256   -5.7011   -0.7294 F   0  0  0  0  0  0  0  0  0  0  0  0
    6.2246   -5.3417   -1.1726 C   0  0  0  0  0  0  0  0  0  0  0  0
    7.2826   -4.4543   -1.3678 C   0  0  0  0  0  0  0  0  0  0  0  0
    7.0952   -3.0725   -1.1900 C   0  0  0  0  0  0  0  0  0  0  0  0
    8.1469   -2.2130   -1.3844 O   0  0  0  0  0  0  0  0  0  0  0  0
    4.1626    0.7628    0.9593 H   0  0  0  0  0  0  0  0  0  0  0  0
    1.9124    1.8656    1.5644 H   0  0  0  0  0  0  0  0  0  0  0  0
    0.6930   -0.2447    2.2432 H   0  0  0  0  0  0  0  0  0  0  0  0
    0.6408    0.9889    3.4151 H   0  0  0  0  0  0  0  0  0  0  0  0
    3.7190   -1.0077    3.1579 H   0  0  0  0  0  0  0  0  0  0  0  0
    4.3035   -2.7903    4.6773 H   0  0  0  0  0  0  0  0  0  0  0  0
    2.6843   -3.5629    6.3883 H   0  0  0  0  0  0  0  0  0  0  0  0
    0.4754   -2.4375    6.5956 H   0  0  0  0  0  0  0  0  0  0  0  0
    5.1148    2.0811    2.0044 H   0  0  0  0  0  0  0  0  0  0  0  0
    6.4459    3.1944    3.6943 H   0  0  0  0  0  0  0  0  0  0  0  0
    5.4729    3.7922    5.8939 H   0  0  0  0  0  0  0  0  0  0  0  0
    3.0839    3.3059    6.3505 H   0  0  0  0  0  0  0  0  0  0  0  0
    1.7099    2.1980    4.6986 H   0  0  0  0  0  0  0  0  0  0  0  0
    5.8851   -0.4344   -0.1578 H   0  0  0  0  0  0  0  0  0  0  0  0
    2.6995   -3.1459   -0.5420 H   0  0  0  0  0  0  0  0  0  0  0  0
    6.3740   -6.4147   -1.2478 H   0  0  0  0  0  0  0  0  0  0  0  0
    8.2566   -4.8576   -1.6315 H   0  0  0  0  0  0  0  0  0  0  0  0
    8.8452   -2.6949   -1.8604 H   0  0  0  0  0  0  0  0  0  0  0  0
  1  2  2  0  0  0  0
  2  3  1  0  0  0  0
  2 19  1  0  0  0  0
  3  4  1  0  0  0  0
  3 30  1  0  0  0  0
  4  5  1  0  0  0  0
  4 13  1  0  0  0  0
  4 31  1  0  0  0  0
  5  6  1  0  0  0  0
  5 32  1  0  0  0  0
  5 33  1  0  0  0  0
  6  7  1  0  0  0  0
  6 11  1  0  0  0  0
  7  8  2  0  0  0  0
  7 34  1  0  0  0  0
  8  9  1  0  0  0  0
  8 35  1  0  0  0  0
  9 10  2  0  0  0  0
  9 36  1  0  0  0  0
 10 11  1  0  0  0  0
 10 37  1  0  0  0  0
 11 12  2  0  0  0  0
 13 14  2  0  0  0  0
 13 18  1  0  0  0  0
 14 15  1  0  0  0  0
 14 38  1  0  0  0  0
 15 16  2  0  0  0  0
 15 39  1  0  0  0  0
 16 17  1  0  0  0  0
 16 40  1  0  0  0  0
 17 18  2  0  0  0  0
 17 41  1  0  0  0  0
 18 42  1  0  0  0  0
 19 20  2  0  0  0  0
 19 23  1  0  0  0  0
 20 21  1  0  0  0  0
 20 43  1  0  0  0  0
 21 22  2  0  0  0  0
 21 28  1  0  0  0  0
 22 23  1  0  0  0  0
 22 24  1  0  0  0  0
 23 44  1  0  0  0  0
 24 25  1  0  0  0  0
 24 26  2  0  0  0  0
 26 27  1  0  0  0  0
 26 45  1  0  0  0  0
 27 28  2  0  0  0  0
 27 46  1  0  0  0  0
 28 29  1  0  0  0  0
 29 47  1  0  0  0  0
M  END
$$$$
