
 OpenBabel01122422473D

 45 48  0  0  0  0  0  0  0  0999 V2000
    0.9948    0.0447    0.5440 O   0  0  0  0  0  0  0  0  0  0  0  0
    2.1700   -0.0055    0.1950 C   0  0  0  0  0  0  0  0  0  0  0  0
    2.8571   -1.1816    0.0221 N   0  0  0  0  0  0  0  0  0  0  0  0
    2.2194   -2.4729    0.1522 C   0  0  0  0  0  0  0  0  0  0  0  0
    3.1813   -3.5116    0.6847 C   0  0  0  0  0  0  0  0  0  0  0  0
    3.3125   -3.7096    2.0559 C   0  0  0  0  0  0  0  0  0  0  0  0
    4.2105   -4.6717    2.5243 C   0  0  0  0  0  0  0  0  0  0  0  0
    4.9717   -5.4077    1.6129 C   0  0  0  0  0  0  0  0  0  0  0  0
    5.8902   -6.4000    2.0461 N   0  0  0  0  0  0  0  0  0  0  0  0
    6.1315   -6.8081    3.3408 C   0  0  0  0  0  0  0  0  0  0  0  0
    7.0971   -7.7839    3.2677 C   0  0  0  0  0  0  0  0  0  0  0  0
    7.4644   -7.9995    1.9694 N   0  0  0  0  0  0  0  0  0  0  0  0
    6.7326   -7.1665    1.2646 C   0  0  0  0  0  0  0  0  0  0  0  0
    4.7941   -5.1278    0.2624 C   0  0  0  0  0  0  0  0  0  0  0  0
    3.9272   -4.1997   -0.2148 N   0  0  0  0  0  0  0  0  0  0  0  0
    2.9341    1.2506    0.0061 C   0  0  0  0  0  0  0  0  0  0  0  0
    2.5308    2.3978    0.7059 C   0  0  0  0  0  0  0  0  0  0  0  0
    3.2545    3.5994    0.6112 C   0  0  0  0  0  0  0  0  0  0  0  0
    2.8741    4.8182    1.3634 C   0  0  0  0  0  0  0  0  0  0  0  0
    1.5268    5.1166    1.6473 C   0  0  0  0  0  0  0  0  0  0  0  0
    1.1632    6.2771    2.3438 C   0  0  0  0  0  0  0  0  0  0  0  0
    2.1372    7.1754    2.7693 C   0  0  0  0  0  0  0  0  0  0  0  0
    3.4756    6.9051    2.5109 C   0  0  0  0  0  0  0  0  0  0  0  0
    3.8305    5.7415    1.8273 C   0  0  0  0  0  0  0  0  0  0  0  0
    5.1401    5.5204    1.6327 F   0  0  0  0  0  0  0  0  0  0  0  0
    4.3641    3.5633   -0.2426 C   0  0  0  0  0  0  0  0  0  0  0  0
    4.7782    2.4822   -0.9530 N   0  0  0  0  0  0  0  0  0  0  0  0
    4.0528    1.3630   -0.7988 C   0  0  0  0  0  0  0  0  0  0  0  0
    4.5469    0.3327   -1.5300 O   0  0  0  0  0  0  0  0  0  0  0  0
    3.7625   -1.1572   -0.4402 H   0  0  0  0  0  0  0  0  0  0  0  0
    1.8725   -2.7672   -0.8434 H   0  0  0  0  0  0  0  0  0  0  0  0
    1.3379   -2.4042    0.7994 H   0  0  0  0  0  0  0  0  0  0  0  0
    2.7242   -3.1246    2.7578 H   0  0  0  0  0  0  0  0  0  0  0  0
    4.2889   -4.8120    3.5975 H   0  0  0  0  0  0  0  0  0  0  0  0
    5.6193   -6.3990    4.1985 H   0  0  0  0  0  0  0  0  0  0  0  0
    7.5424   -8.3420    4.0796 H   0  0  0  0  0  0  0  0  0  0  0  0
    6.7860   -7.0827    0.1884 H   0  0  0  0  0  0  0  0  0  0  0  0
    5.3351   -5.6406   -0.5264 H   0  0  0  0  0  0  0  0  0  0  0  0
    1.6593    2.3269    1.3549 H   0  0  0  0  0  0  0  0  0  0  0  0
    0.7284    4.4542    1.3168 H   0  0  0  0  0  0  0  0  0  0  0  0
    0.1136    6.4792    2.5469 H   0  0  0  0  0  0  0  0  0  0  0  0
    1.8544    8.0804    3.3008 H   0  0  0  0  0  0  0  0  0  0  0  0
    4.2526    7.5897    2.8373 H   0  0  0  0  0  0  0  0  0  0  0  0
    4.9854    4.4431   -0.3977 H   0  0  0  0  0  0  0  0  0  0  0  0
    5.2825    0.7904   -1.9809 H   0  0  0  0  0  0  0  0  0  0  0  0
  1  2  2  0  0  0  0
  2  3  1  0  0  0  0
  2 16  1  0  0  0  0
  3  4  1  0  0  0  0
  3 30  1  0  0  0  0
  4  5  1  0  0  0  0
  4 31  1  0  0  0  0
  4 32  1  0  0  0  0
  5  6  2  0  0  0  0
  5 15  1  0  0  0  0
  6  7  1  0  0  0  0
  6 33  1  0  0  0  0
  7  8  2  0  0  0  0
  7 34  1  0  0  0  0
  8  9  1  0  0  0  0
  8 14  1  0  0  0  0
  9 10  1  0  0  0  0
  9 13  1  0  0  0  0
 10 11  2  0  0  0  0
 10 35  1  0  0  0  0
 11 12  1  0  0  0  0
 11 36  1  0  0  0  0
 12 13  2  0  0  0  0
 13 37  1  0  0  0  0
 14 15  2  0  0  0  0
 14 38  1  0  0  0  0
 16 17  2  0  0  0  0
 16 28  1  0  0  0  0
 17 18  1  0  0  0  0
 17 39  1  0  0  0  0
 18 19  1  0  0  0  0
 18 26  2  0  0  0  0
 19 20  2  0  0  0  0
 19 24  1  0  0  0  0
 20 21  1  0  0  0  0
 20 40  1  0  0  0  0
 21 22  2  0  0  0  0
 21 41  1  0  0  0  0
 22 23  1  0  0  0  0
 22 42  1  0  0  0  0
 23 24  2  0  0  0  0
 23 43  1  0  0  0  0
 24 25  1  0  0  0  0
 26 27  1  0  0  0  0
 26 44  1  0  0  0  0
 27 28  2  0  0  0  0
 28 29  1  0  0  0  0
 29 45  1  0  0  0  0
M  END
$$$$
