
 OpenBabel01122422473D

 48 51  0  0  0  0  0  0  0  0999 V2000
    1.0447   -0.2254   -0.3996 C   0  0  0  0  0  0  0  0  0  0  0  0
    2.5007   -0.1462   -0.2922 N   0  0  0  0  0  0  0  0  0  0  0  0
    3.1677   -1.3318   -0.4629 N   0  0  0  0  0  0  0  0  0  0  0  0
    4.4739   -1.3445   -0.4940 C   0  0  0  0  0  0  0  0  0  0  0  0
    5.1505   -2.6880   -0.7257 C   0  0  0  0  0  0  0  0  0  0  0  0
    6.1951   -2.7482   -1.3585 O   0  0  0  0  0  0  0  0  0  0  0  0
    4.4864   -3.7819   -0.2085 N   0  0  0  0  0  0  0  0  0  0  0  0
    5.0732   -5.1014   -0.2550 C   0  0  0  0  0  0  0  0  0  0  0  0
    4.0238   -6.1715   -0.3836 C   0  0  0  0  0  0  0  0  0  0  0  0
    3.5576   -6.5495   -1.6571 C   0  0  0  0  0  0  0  0  0  0  0  0
    2.5423   -7.5103   -1.8312 C   0  0  0  0  0  0  0  0  0  0  0  0
    1.9991   -7.8346   -3.1751 C   0  0  0  0  0  0  0  0  0  0  0  0
    1.9146   -6.8509   -4.1809 C   0  0  0  0  0  0  0  0  0  0  0  0
    1.3486   -7.1385   -5.4230 C   0  0  0  0  0  0  0  0  0  0  0  0
    1.2544   -6.1859   -6.3953 O   0  0  0  0  0  0  0  0  0  0  0  0
    0.8486   -8.4003   -5.7032 C   0  0  0  0  0  0  0  0  0  0  0  0
    0.9290   -9.3950   -4.7345 C   0  0  0  0  0  0  0  0  0  0  0  0
    1.5059   -9.1161   -3.4894 C   0  0  0  0  0  0  0  0  0  0  0  0
    2.0311   -8.1131   -0.6680 C   0  0  0  0  0  0  0  0  0  0  0  0
    2.4940   -7.7606    0.6037 C   0  0  0  0  0  0  0  0  0  0  0  0
    3.4760   -6.7844    0.7468 C   0  0  0  0  0  0  0  0  0  0  0  0
    5.2691   -0.0806   -0.3244 C   0  0  0  0  0  0  0  0  0  0  0  0
    6.4672   -0.1152   -0.0881 O   0  0  0  0  0  0  0  0  0  0  0  0
    4.5348    1.1798   -0.4133 C   0  0  0  0  0  0  0  0  0  0  0  0
    5.2268    2.3971   -0.4967 C   0  0  0  0  0  0  0  0  0  0  0  0
    4.5127    3.5882   -0.5453 C   0  0  0  0  0  0  0  0  0  0  0  0
    3.1229    3.5527   -0.4942 C   0  0  0  0  0  0  0  0  0  0  0  0
    2.4469    2.3266   -0.4074 C   0  0  0  0  0  0  0  0  0  0  0  0
    3.1395    1.1037   -0.3792 C   0  0  0  0  0  0  0  0  0  0  0  0
    0.7080   -1.2680   -0.4122 H   0  0  0  0  0  0  0  0  0  0  0  0
    0.6913    0.2418   -1.3264 H   0  0  0  0  0  0  0  0  0  0  0  0
    0.5664    0.2589    0.4581 H   0  0  0  0  0  0  0  0  0  0  0  0
    3.6112   -3.6289    0.2803 H   0  0  0  0  0  0  0  0  0  0  0  0
    5.6515   -5.2388    0.6653 H   0  0  0  0  0  0  0  0  0  0  0  0
    5.7852   -5.1724   -1.0859 H   0  0  0  0  0  0  0  0  0  0  0  0
    4.0085   -6.0734   -2.5269 H   0  0  0  0  0  0  0  0  0  0  0  0
    2.2706   -5.8441   -3.9836 H   0  0  0  0  0  0  0  0  0  0  0  0
    1.6403   -5.3603   -6.0598 H   0  0  0  0  0  0  0  0  0  0  0  0
    0.3969   -8.6061   -6.6692 H   0  0  0  0  0  0  0  0  0  0  0  0
    0.5390  -10.3876   -4.9436 H   0  0  0  0  0  0  0  0  0  0  0  0
    1.5626   -9.9243   -2.7628 H   0  0  0  0  0  0  0  0  0  0  0  0
    1.2378   -8.8544   -0.7328 H   0  0  0  0  0  0  0  0  0  0  0  0
    2.0730   -8.2422    1.4828 H   0  0  0  0  0  0  0  0  0  0  0  0
    3.8132   -6.5089    1.7434 H   0  0  0  0  0  0  0  0  0  0  0  0
    6.3133    2.4108   -0.5237 H   0  0  0  0  0  0  0  0  0  0  0  0
    5.0364    4.5381   -0.6148 H   0  0  0  0  0  0  0  0  0  0  0  0
    2.5568    4.4817   -0.5189 H   0  0  0  0  0  0  0  0  0  0  0  0
    1.3622    2.3589   -0.3593 H   0  0  0  0  0  0  0  0  0  0  0  0
  1  2  1  0  0  0  0
  1 30  1  0  0  0  0
  1 31  1  0  0  0  0
  1 32  1  0  0  0  0
  2  3  1  0  0  0  0
  2 29  1  0  0  0  0
  3  4  2  0  0  0  0
  4  5  1  0  0  0  0
  4 22  1  0  0  0  0
  5  6  2  0  0  0  0
  5  7  1  0  0  0  0
  7  8  1  0  0  0  0
  7 33  1  0  0  0  0
  8  9  1  0  0  0  0
  8 34  1  0  0  0  0
  8 35  1  0  0  0  0
  9 10  2  0  0  0  0
  9 21  1  0  0  0  0
 10 11  1  0  0  0  0
 10 36  1  0  0  0  0
 11 12  1  0  0  0  0
 11 19  2  0  0  0  0
 12 13  2  0  0  0  0
 12 18  1  0  0  0  0
 13 14  1  0  0  0  0
 13 37  1  0  0  0  0
 14 15  1  0  0  0  0
 14 16  2  0  0  0  0
 15 38  1  0  0  0  0
 16 17  1  0  0  0  0
 16 39  1  0  0  0  0
 17 18  2  0  0  0  0
 17 40  1  0  0  0  0
 18 41  1  0  0  0  0
 19 20  1  0  0  0  0
 19 42  1  0  0  0  0
 20 21  2  0  0  0  0
 20 43  1  0  0  0  0
 21 44  1  0  0  0  0
 22 23  2  0  0  0  0
 22 24  1  0  0  0  0
 24 25  2  0  0  0  0
 24 29  1  0  0  0  0
 25 26  1  0  0  0  0
 25 45  1  0  0  0  0
 26 27  2  0  0  0  0
 26 46  1  0  0  0  0
 27 28  1  0  0  0  0
 27 47  1  0  0  0  0
 28 29  2  0  0  0  0
 28 48  1  0  0  0  0
M  END
$$$$
