
 OpenBabel01122422473D

 40 42  0  0  0  0  0  0  0  0999 V2000
    2.5404    1.2463   -0.1912 O   0  0  0  0  0  0  0  0  0  0  0  0
    2.2632    0.1276    0.2070 C   0  0  0  0  0  0  0  0  0  0  0  0
    1.2477   -0.6500   -0.2346 O   0  0  0  0  0  0  0  0  0  0  0  0
    0.3636   -0.0786   -1.2067 C   0  0  0  0  0  0  0  0  0  0  0  0
    0.3347   -0.9651   -2.4337 C   0  0  0  0  0  0  0  0  0  0  0  0
    0.7580   -0.4094   -3.6578 C   0  0  0  0  0  0  0  0  0  0  0  0
    0.7637   -1.1701   -4.8227 C   0  0  0  0  0  0  0  0  0  0  0  0
    1.1650   -0.6150   -5.9728 F   0  0  0  0  0  0  0  0  0  0  0  0
    0.3595   -2.4951   -4.8082 C   0  0  0  0  0  0  0  0  0  0  0  0
   -0.0677   -3.0615   -3.6089 C   0  0  0  0  0  0  0  0  0  0  0  0
   -0.0982   -2.3134   -2.4093 C   0  0  0  0  0  0  0  0  0  0  0  0
   -0.6073   -3.0339   -1.1744 C   0  0  0  0  0  0  0  0  0  0  0  0
   -0.7240   -2.2806   -0.0494 F   0  0  0  0  0  0  0  0  0  0  0  0
   -1.8487   -3.5626   -1.3772 F   0  0  0  0  0  0  0  0  0  0  0  0
    0.1871   -4.0887   -0.8329 F   0  0  0  0  0  0  0  0  0  0  0  0
    3.0472   -0.5957    1.2473 C   0  0  0  0  0  0  0  0  0  0  0  0
    2.6291   -1.8262    1.7778 C   0  0  0  0  0  0  0  0  0  0  0  0
    3.4189   -2.4960    2.7145 C   0  0  0  0  0  0  0  0  0  0  0  0
    4.6472   -1.9611    3.0997 C   0  0  0  0  0  0  0  0  0  0  0  0
    5.0867   -0.7491    2.5514 C   0  0  0  0  0  0  0  0  0  0  0  0
    6.4626   -0.2434    2.8104 C   0  0  0  0  0  0  0  0  0  0  0  0
    6.6667    1.0291    2.9665 N   0  0  0  0  0  0  0  0  0  0  0  0
    7.9686    1.4208    3.1520 N   0  0  0  0  0  0  0  0  0  0  0  0
    9.0662    0.5983    3.1525 C   0  0  0  0  0  0  0  0  0  0  0  0
   10.2133    0.9979    3.3019 O   0  0  0  0  0  0  0  0  0  0  0  0
    8.7922   -0.8374    2.9549 C   0  0  0  0  0  0  0  0  0  0  0  0
    7.5379   -1.2650    2.7947 C   0  0  0  0  0  0  0  0  0  0  0  0
    4.2648   -0.0416    1.6657 C   0  0  0  0  0  0  0  0  0  0  0  0
    0.6393    0.9477   -1.4751 H   0  0  0  0  0  0  0  0  0  0  0  0
   -0.6420   -0.0234   -0.7753 H   0  0  0  0  0  0  0  0  0  0  0  0
    1.0881    0.6254   -3.7205 H   0  0  0  0  0  0  0  0  0  0  0  0
    0.3778   -3.0748   -5.7263 H   0  0  0  0  0  0  0  0  0  0  0  0
   -0.3874   -4.1056   -3.6063 H   0  0  0  0  0  0  0  0  0  0  0  0
    1.6902   -2.2804    1.4674 H   0  0  0  0  0  0  0  0  0  0  0  0
    3.0861   -3.4470    3.1246 H   0  0  0  0  0  0  0  0  0  0  0  0
    5.2538   -2.5029    3.8217 H   0  0  0  0  0  0  0  0  0  0  0  0
    8.1323    2.4154    3.2671 H   0  0  0  0  0  0  0  0  0  0  0  0
    9.6452   -1.5009    2.9299 H   0  0  0  0  0  0  0  0  0  0  0  0
    7.3144   -2.3072    2.6131 H   0  0  0  0  0  0  0  0  0  0  0  0
    4.5965    0.9152    1.2643 H   0  0  0  0  0  0  0  0  0  0  0  0
  1  2  2  0  0  0  0
  2  3  1  0  0  0  0
  2 16  1  0  0  0  0
  3  4  1  0  0  0  0
  4  5  1  0  0  0  0
  4 29  1  0  0  0  0
  4 30  1  0  0  0  0
  5  6  2  0  0  0  0
  5 11  1  0  0  0  0
  6  7  1  0  0  0  0
  6 31  1  0  0  0  0
  7  8  1  0  0  0  0
  7  9  2  0  0  0  0
  9 10  1  0  0  0  0
  9 32  1  0  0  0  0
 10 11  2  0  0  0  0
 10 33  1  0  0  0  0
 11 12  1  0  0  0  0
 12 13  1  0  0  0  0
 12 14  1  0  0  0  0
 12 15  1  0  0  0  0
 16 17  2  0  0  0  0
 16 28  1  0  0  0  0
 17 18  1  0  0  0  0
 17 34  1  0  0  0  0
 18 19  2  0  0  0  0
 18 35  1  0  0  0  0
 19 20  1  0  0  0  0
 19 36  1  0  0  0  0
 20 21  1  0  0  0  0
 20 28  2  0  0  0  0
 21 22  2  0  0  0  0
 21 27  1  0  0  0  0
 22 23  1  0  0  0  0
 23 24  1  0  0  0  0
 23 37  1  0  0  0  0
 24 25  2  0  0  0  0
 24 26  1  0  0  0  0
 26 27  2  0  0  0  0
 26 38  1  0  0  0  0
 27 39  1  0  0  0  0
 28 40  1  0  0  0  0
M  END
$$$$
