
 OpenBabel01122422473D

 42 45  0  0  1  0  0  0  0  0999 V2000
    2.2913    1.3393    0.5060 N   0  0  0  0  0  0  0  0  0  0  0  0
    2.4880    0.1980   -0.2233 C   0  0  0  0  0  0  0  0  0  0  0  0
    2.1489    0.1474   -1.4036 O   0  0  0  0  0  0  0  0  0  0  0  0
    3.1795   -0.9533    0.5112 C   0  0  3  0  0  0  0  0  0  0  0  0
    2.7261   -2.2149   -0.0440 N   0  0  0  0  0  0  0  0  0  0  0  0
    1.6645   -2.9139    0.5025 C   0  0  0  0  0  0  0  0  0  0  0  0
    1.1002   -2.5234    1.5149 O   0  0  0  0  0  0  0  0  0  0  0  0
    1.2895   -4.1482   -0.1695 C   0  0  0  0  0  0  0  0  0  0  0  0
    1.8185   -4.6833   -1.3319 C   0  0  0  0  0  0  0  0  0  0  0  0
    1.2489   -5.8755   -1.6363 O   0  0  0  0  0  0  0  0  0  0  0  0
    0.3266   -6.1356   -0.6723 C   0  0  0  0  0  0  0  0  0  0  0  0
   -0.4764   -7.2691   -0.5893 C   0  0  0  0  0  0  0  0  0  0  0  0
   -0.4109   -8.2545   -1.4926 F   0  0  0  0  0  0  0  0  0  0  0  0
   -1.3690   -7.3626    0.4779 C   0  0  0  0  0  0  0  0  0  0  0  0
   -1.4289   -6.3367    1.4138 C   0  0  0  0  0  0  0  0  0  0  0  0
   -2.2949   -6.4390    2.4310 F   0  0  0  0  0  0  0  0  0  0  0  0
   -0.6152   -5.2006    1.3285 C   0  0  0  0  0  0  0  0  0  0  0  0
    0.2946   -5.0989    0.2557 C   0  0  0  0  0  0  0  0  0  0  0  0
    4.6797   -0.9350    0.5072 C   0  0  0  0  0  0  0  0  0  0  0  0
    5.3490   -1.6982    1.4630 C   0  0  0  0  0  0  0  0  0  0  0  0
    6.7116   -1.9371    1.3790 C   0  0  0  0  0  0  0  0  0  0  0  0
    7.4733   -1.2848    0.4055 C   0  0  0  0  0  0  0  0  0  0  0  0
    8.8351   -1.5353    0.2932 C   0  0  0  0  0  0  0  0  0  0  0  0
    9.6850   -0.5339   -0.1338 C   0  0  0  0  0  0  0  0  0  0  0  0
    9.1433    0.5033   -0.8801 C   0  0  0  0  0  0  0  0  0  0  0  0
    7.7639    0.5234   -1.1452 C   0  0  0  0  0  0  0  0  0  0  0  0
    6.8911   -0.3228   -0.4322 C   0  0  0  0  0  0  0  0  0  0  0  0
    5.4788   -0.2476   -0.4722 C   0  0  0  0  0  0  0  0  0  0  0  0
    1.7519    2.0746    0.0687 H   0  0  0  0  0  0  0  0  0  0  0  0
    2.3926    1.3609    1.5125 H   0  0  0  0  0  0  0  0  0  0  0  0
    2.8601   -0.8894    1.5688 H   0  0  0  0  0  0  0  0  0  0  0  0
    3.0512   -2.4443   -0.9678 H   0  0  0  0  0  0  0  0  0  0  0  0
    2.5851   -4.3660   -2.0268 H   0  0  0  0  0  0  0  0  0  0  0  0
   -2.0092   -8.2328    0.5783 H   0  0  0  0  0  0  0  0  0  0  0  0
   -0.6924   -4.4218    2.0820 H   0  0  0  0  0  0  0  0  0  0  0  0
    4.7843   -2.1416    2.2787 H   0  0  0  0  0  0  0  0  0  0  0  0
    7.1943   -2.5504    2.1366 H   0  0  0  0  0  0  0  0  0  0  0  0
    9.2031   -2.5530    0.3804 H   0  0  0  0  0  0  0  0  0  0  0  0
   10.7501   -0.6066    0.0554 H   0  0  0  0  0  0  0  0  0  0  0  0
    9.8005    1.2582   -1.2931 H   0  0  0  0  0  0  0  0  0  0  0  0
    7.3783    1.2658   -1.8350 H   0  0  0  0  0  0  0  0  0  0  0  0
    5.0080    0.3756   -1.2323 H   0  0  0  0  0  0  0  0  0  0  0  0
  1  2  1  0  0  0  0
  1 29  1  0  0  0  0
  1 30  1  0  0  0  0
  2  3  2  0  0  0  0
  2  4  1  0  0  0  0
  4  5  1  0  0  0  0
  4 19  1  0  0  0  0
  4 31  1  0  0  0  0
  5  6  1  0  0  0  0
  5 32  1  0  0  0  0
  6  7  2  0  0  0  0
  6  8  1  0  0  0  0
  8  9  2  0  0  0  0
  8 18  1  0  0  0  0
  9 10  1  0  0  0  0
  9 33  1  0  0  0  0
 10 11  1  0  0  0  0
 11 12  2  0  0  0  0
 11 18  1  0  0  0  0
 12 13  1  0  0  0  0
 12 14  1  0  0  0  0
 14 15  2  0  0  0  0
 14 34  1  0  0  0  0
 15 16  1  0  0  0  0
 15 17  1  0  0  0  0
 17 18  2  0  0  0  0
 17 35  1  0  0  0  0
 19 20  2  0  0  0  0
 19 28  1  0  0  0  0
 20 21  1  0  0  0  0
 20 36  1  0  0  0  0
 21 22  2  0  0  0  0
 21 37  1  0  0  0  0
 22 23  1  0  0  0  0
 22 27  1  0  0  0  0
 23 24  2  0  0  0  0
 23 38  1  0  0  0  0
 24 25  1  0  0  0  0
 24 39  1  0  0  0  0
 25 26  2  0  0  0  0
 25 40  1  0  0  0  0
 26 27  1  0  0  0  0
 26 41  1  0  0  0  0
 27 28  2  0  0  0  0
 28 42  1  0  0  0  0
M  END
$$$$
