
 OpenBabel01122422473D

 52 55  0  0  0  0  0  0  0  0999 V2000
    1.0536    0.5254    0.5105 C   0  0  0  0  0  0  0  0  0  0  0  0
    2.5072    0.5303    0.3967 N   0  0  0  0  0  0  0  0  0  0  0  0
    3.0590    1.2319   -0.7737 C   0  0  0  0  0  0  0  0  0  0  0  0
    3.2458    2.7104   -0.5201 C   0  0  0  0  0  0  0  0  0  0  0  0
    2.9434    3.4026    0.5983 C   0  0  0  0  0  0  0  0  0  0  0  0
    3.2444    4.8128    0.7262 C   0  0  0  0  0  0  0  0  0  0  0  0
    3.8294    5.4631   -0.2845 C   0  0  0  0  0  0  0  0  0  0  0  0
    4.1372    4.7946   -1.4395 N   0  0  0  0  0  0  0  0  0  0  0  0
    3.8887    3.4594   -1.6515 C   0  0  0  0  0  0  0  0  0  0  0  0
    4.1839    2.9051   -2.7066 O   0  0  0  0  0  0  0  0  0  0  0  0
    3.2090   -0.3139    1.2768 C   0  0  0  0  0  0  0  0  0  0  0  0
    2.6244   -0.9405    2.1610 O   0  0  0  0  0  0  0  0  0  0  0  0
    4.6949   -0.4642    1.1954 C   0  0  0  0  0  0  0  0  0  0  0  0
    5.4500    0.7264    1.1934 C   0  0  0  0  0  0  0  0  0  0  0  0
    6.8407    0.7130    1.1937 C   0  0  0  0  0  0  0  0  0  0  0  0
    7.5043   -0.4979    1.2611 C   0  0  0  0  0  0  0  0  0  0  0  0
    6.7732   -1.6890    1.3042 C   0  0  0  0  0  0  0  0  0  0  0  0
    5.3537   -1.7232    1.2740 C   0  0  0  0  0  0  0  0  0  0  0  0
    4.6827   -3.0614    1.3295 C   0  0  0  0  0  0  0  0  0  0  0  0
    5.2163   -4.1147    2.1034 C   0  0  0  0  0  0  0  0  0  0  0  0
    4.6238   -5.3856    2.1508 C   0  0  0  0  0  0  0  0  0  0  0  0
    3.4479   -5.6463    1.4435 C   0  0  0  0  0  0  0  0  0  0  0  0
    2.7897   -6.9995    1.5090 C   0  0  0  0  0  0  0  0  0  0  0  0
    1.8970   -7.1262    2.6482 N   0  0  0  0  0  0  0  0  0  0  0  0
    2.2037   -7.6637    3.8680 C   0  0  0  0  0  0  0  0  0  0  0  0
    1.0083   -7.6876    4.5545 C   0  0  0  0  0  0  0  0  0  0  0  0
   -0.0037   -7.1863    3.7870 N   0  0  0  0  0  0  0  0  0  0  0  0
    0.5585   -6.8498    2.6472 C   0  0  0  0  0  0  0  0  0  0  0  0
    2.8968   -4.6148    0.6771 C   0  0  0  0  0  0  0  0  0  0  0  0
    3.5195   -3.3585    0.6018 C   0  0  0  0  0  0  0  0  0  0  0  0
    0.6312    1.4390    0.0831 H   0  0  0  0  0  0  0  0  0  0  0  0
    0.7457    0.4545    1.5573 H   0  0  0  0  0  0  0  0  0  0  0  0
    0.6691   -0.3426   -0.0343 H   0  0  0  0  0  0  0  0  0  0  0  0
    2.3655    1.0840   -1.6101 H   0  0  0  0  0  0  0  0  0  0  0  0
    4.0080    0.7712   -1.0649 H   0  0  0  0  0  0  0  0  0  0  0  0
    2.4963    2.9228    1.4599 H   0  0  0  0  0  0  0  0  0  0  0  0
    3.0009    5.3151    1.6558 H   0  0  0  0  0  0  0  0  0  0  0  0
    4.0822    6.5175   -0.2379 H   0  0  0  0  0  0  0  0  0  0  0  0
    4.5748    5.2867   -2.2100 H   0  0  0  0  0  0  0  0  0  0  0  0
    4.9588    1.6905    1.2248 H   0  0  0  0  0  0  0  0  0  0  0  0
    7.3955    1.6470    1.1650 H   0  0  0  0  0  0  0  0  0  0  0  0
    8.5906   -0.5233    1.2960 H   0  0  0  0  0  0  0  0  0  0  0  0
    7.3450   -2.6140    1.3625 H   0  0  0  0  0  0  0  0  0  0  0  0
    6.1127   -3.9612    2.7019 H   0  0  0  0  0  0  0  0  0  0  0  0
    5.0890   -6.1609    2.7560 H   0  0  0  0  0  0  0  0  0  0  0  0
    3.5412   -7.7960    1.5805 H   0  0  0  0  0  0  0  0  0  0  0  0
    2.2056   -7.1971    0.6021 H   0  0  0  0  0  0  0  0  0  0  0  0
    3.2012   -7.9764    4.1371 H   0  0  0  0  0  0  0  0  0  0  0  0
    0.8323   -8.0459    5.5624 H   0  0  0  0  0  0  0  0  0  0  0  0
    0.0452   -6.4186    1.7977 H   0  0  0  0  0  0  0  0  0  0  0  0
    1.9710   -4.7695    0.1271 H   0  0  0  0  0  0  0  0  0  0  0  0
    3.0561   -2.6062   -0.0303 H   0  0  0  0  0  0  0  0  0  0  0  0
  1  2  1  0  0  0  0
  1 31  1  0  0  0  0
  1 32  1  0  0  0  0
  1 33  1  0  0  0  0
  2  3  1  0  0  0  0
  2 11  1  0  0  0  0
  3  4  1  0  0  0  0
  3 34  1  0  0  0  0
  3 35  1  0  0  0  0
  4  5  2  0  0  0  0
  4  9  1  0  0  0  0
  5  6  1  0  0  0  0
  5 36  1  0  0  0  0
  6  7  2  0  0  0  0
  6 37  1  0  0  0  0
  7  8  1  0  0  0  0
  7 38  1  0  0  0  0
  8  9  1  0  0  0  0
  8 39  1  0  0  0  0
  9 10  2  0  0  0  0
 11 12  2  0  0  0  0
 11 13  1  0  0  0  0
 13 14  2  0  0  0  0
 13 18  1  0  0  0  0
 14 15  1  0  0  0  0
 14 40  1  0  0  0  0
 15 16  2  0  0  0  0
 15 41  1  0  0  0  0
 16 17  1  0  0  0  0
 16 42  1  0  0  0  0
 17 18  2  0  0  0  0
 17 43  1  0  0  0  0
 18 19  1  0  0  0  0
 19 20  2  0  0  0  0
 19 30  1  0  0  0  0
 20 21  1  0  0  0  0
 20 44  1  0  0  0  0
 21 22  2  0  0  0  0
 21 45  1  0  0  0  0
 22 23  1  0  0  0  0
 22 29  1  0  0  0  0
 23 24  1  0  0  0  0
 23 46  1  0  0  0  0
 23 47  1  0  0  0  0
 24 25  1  0  0  0  0
 24 28  1  0  0  0  0
 25 26  2  0  0  0  0
 25 48  1  0  0  0  0
 26 27  1  0  0  0  0
 26 49  1  0  0  0  0
 27 28  2  0  0  0  0
 28 50  1  0  0  0  0
 29 30  2  0  0  0  0
 29 51  1  0  0  0  0
 30 52  1  0  0  0  0
M  END
$$$$
