
 OpenBabel01122422473D

 41 44  0  0  0  0  0  0  0  0999 V2000
    1.1204    0.7939   -0.3733 O   0  0  0  0  0  0  0  0  0  0  0  0
    2.1586    0.2007   -0.0763 C   0  0  0  0  0  0  0  0  0  0  0  0
    2.5044   -0.1214    1.2259 N   0  0  0  0  0  0  0  0  0  0  0  0
    1.8253    0.3764    2.3772 C   0  0  0  0  0  0  0  0  0  0  0  0
    0.9602    1.4803    2.3201 C   0  0  0  0  0  0  0  0  0  0  0  0
    0.2606    1.9500    3.4448 C   0  0  0  0  0  0  0  0  0  0  0  0
   -0.7133    3.0327    3.3225 C   0  0  0  0  0  0  0  0  0  0  0  0
   -1.3338    3.6865    4.2885 N   0  0  0  0  0  0  0  0  0  0  0  0
   -2.1848    4.5800    3.6801 N   0  0  0  0  0  0  0  0  0  0  0  0
   -2.1074    4.4890    2.3624 N   0  0  0  0  0  0  0  0  0  0  0  0
   -1.2032    3.5272    2.1368 N   0  0  0  0  0  0  0  0  0  0  0  0
    0.5038    1.3360    4.6782 C   0  0  0  0  0  0  0  0  0  0  0  0
    1.3872    0.2544    4.7671 C   0  0  0  0  0  0  0  0  0  0  0  0
    2.0326   -0.2207    3.6212 C   0  0  0  0  0  0  0  0  0  0  0  0
    2.8469   -1.2813    3.7245 F   0  0  0  0  0  0  0  0  0  0  0  0
    3.0780   -0.1434   -1.2026 C   0  0  0  0  0  0  0  0  0  0  0  0
    2.7520    0.4820   -2.4246 C   0  0  0  0  0  0  0  0  0  0  0  0
    3.5444    0.2831   -3.5367 C   0  0  0  0  0  0  0  0  0  0  0  0
    4.6657   -0.4502   -3.5083 N   0  0  0  0  0  0  0  0  0  0  0  0
    4.9767   -1.0363   -2.3288 C   0  0  0  0  0  0  0  0  0  0  0  0
    4.1990   -0.9755   -1.1644 C   0  0  0  0  0  0  0  0  0  0  0  0
    4.5207   -1.7099   -0.0389 O   0  0  0  0  0  0  0  0  0  0  0  0
    5.1106   -2.9473   -0.2488 C   0  0  0  0  0  0  0  0  0  0  0  0
    6.2274   -3.2868    0.5174 C   0  0  0  0  0  0  0  0  0  0  0  0
    6.9039   -4.4854    0.2634 C   0  0  0  0  0  0  0  0  0  0  0  0
    6.4591   -5.3309   -0.7517 C   0  0  0  0  0  0  0  0  0  0  0  0
    7.1333   -6.4573   -1.0191 F   0  0  0  0  0  0  0  0  0  0  0  0
    5.3287   -5.0200   -1.4954 C   0  0  0  0  0  0  0  0  0  0  0  0
    4.6321   -3.8426   -1.2234 C   0  0  0  0  0  0  0  0  0  0  0  0
    3.2239   -0.8196    1.3889 H   0  0  0  0  0  0  0  0  0  0  0  0
    0.8416    2.0134    1.3848 H   0  0  0  0  0  0  0  0  0  0  0  0
   -0.9900    3.2605    1.1841 H   0  0  0  0  0  0  0  0  0  0  0  0
   -0.0025    1.6913    5.5758 H   0  0  0  0  0  0  0  0  0  0  0  0
    1.5631   -0.2306    5.7229 H   0  0  0  0  0  0  0  0  0  0  0  0
    1.8816    1.1270   -2.5176 H   0  0  0  0  0  0  0  0  0  0  0  0
    3.2927    0.7305   -4.4940 H   0  0  0  0  0  0  0  0  0  0  0  0
    5.9007   -1.6084   -2.3690 H   0  0  0  0  0  0  0  0  0  0  0  0
    6.5946   -2.6185    1.2913 H   0  0  0  0  0  0  0  0  0  0  0  0
    7.7844   -4.7665    0.8347 H   0  0  0  0  0  0  0  0  0  0  0  0
    5.0051   -5.6843   -2.2910 H   0  0  0  0  0  0  0  0  0  0  0  0
    3.7494   -3.6085   -1.8132 H   0  0  0  0  0  0  0  0  0  0  0  0
  1  2  2  0  0  0  0
  2  3  1  0  0  0  0
  2 16  1  0  0  0  0
  3  4  1  0  0  0  0
  3 30  1  0  0  0  0
  4  5  2  0  0  0  0
  4 14  1  0  0  0  0
  5  6  1  0  0  0  0
  5 31  1  0  0  0  0
  6  7  1  0  0  0  0
  6 12  2  0  0  0  0
  7  8  2  0  0  0  0
  7 11  1  0  0  0  0
  8  9  1  0  0  0  0
  9 10  2  0  0  0  0
 10 11  1  0  0  0  0
 11 32  1  0  0  0  0
 12 13  1  0  0  0  0
 12 33  1  0  0  0  0
 13 14  2  0  0  0  0
 13 34  1  0  0  0  0
 14 15  1  0  0  0  0
 16 17  2  0  0  0  0
 16 21  1  0  0  0  0
 17 18  1  0  0  0  0
 17 35  1  0  0  0  0
 18 19  2  0  0  0  0
 18 36  1  0  0  0  0
 19 20  1  0  0  0  0
 20 21  2  0  0  0  0
 20 37  1  0  0  0  0
 21 22  1  0  0  0  0
 22 23  1  0  0  0  0
 23 24  2  0  0  0  0
 23 29  1  0  0  0  0
 24 25  1  0  0  0  0
 24 38  1  0  0  0  0
 25 26  2  0  0  0  0
 25 39  1  0  0  0  0
 26 27  1  0  0  0  0
 26 28  1  0  0  0  0
 28 29  2  0  0  0  0
 28 40  1  0  0  0  0
 29 41  1  0  0  0  0
M  END
$$$$
