
 OpenBabel01122422473D

 48 51  0  0  0  0  0  0  0  0999 V2000
    2.1076    1.1649    0.6136 O   0  0  0  0  0  0  0  0  0  0  0  0
    2.3066    0.1130    0.0225 C   0  0  0  0  0  0  0  0  0  0  0  0
    3.0555   -0.0011   -1.2989 C   0  0  0  0  0  0  0  0  0  0  0  0
    2.1302    0.0756   -2.3781 O   0  0  0  0  0  0  0  0  0  0  0  0
    2.5242   -0.5059   -3.5544 C   0  0  0  0  0  0  0  0  0  0  0  0
    3.8489   -0.6543   -3.9742 C   0  0  0  0  0  0  0  0  0  0  0  0
    4.1283   -1.2616   -5.2011 C   0  0  0  0  0  0  0  0  0  0  0  0
    3.0907   -1.7143   -6.0107 C   0  0  0  0  0  0  0  0  0  0  0  0
    1.7640   -1.6035   -5.5843 C   0  0  0  0  0  0  0  0  0  0  0  0
    0.6943   -2.0569   -6.3276 O   0  0  0  0  0  0  0  0  0  0  0  0
    0.8393   -3.2656   -7.0076 C   0  0  0  0  0  0  0  0  0  0  0  0
    0.0172   -3.4734   -8.1065 C   0  0  0  0  0  0  0  0  0  0  0  0
    0.1521   -4.6671   -8.8152 C   0  0  0  0  0  0  0  0  0  0  0  0
    1.0991   -5.6016   -8.4082 C   0  0  0  0  0  0  0  0  0  0  0  0
    1.8658   -5.3117   -7.2939 C   0  0  0  0  0  0  0  0  0  0  0  0
    1.7415   -4.1776   -6.5755 N   0  0  0  0  0  0  0  0  0  0  0  0
    1.4843   -0.9574   -4.3762 C   0  0  0  0  0  0  0  0  0  0  0  0
    1.8890   -1.1145    0.4457 O   0  0  0  0  0  0  0  0  0  0  0  0
    1.1352   -1.1625    1.6702 C   0  0  0  0  0  0  0  0  0  0  0  0
   -0.2144   -1.7607    1.3866 C   0  0  0  0  0  0  0  0  0  0  0  0
   -1.1062   -1.1203    0.5258 C   0  0  0  0  0  0  0  0  0  0  0  0
   -2.3464   -1.6939    0.2510 C   0  0  0  0  0  0  0  0  0  0  0  0
   -2.6780   -2.9002    0.8599 C   0  0  0  0  0  0  0  0  0  0  0  0
   -3.9253   -3.5197    0.5621 N   0  0  0  0  0  0  0  0  0  0  0  0
   -4.8974   -3.1128   -0.3245 C   0  0  0  0  0  0  0  0  0  0  0  0
   -5.8918   -4.0592   -0.2563 C   0  0  0  0  0  0  0  0  0  0  0  0
   -5.5752   -5.0343    0.6460 N   0  0  0  0  0  0  0  0  0  0  0  0
   -4.3937   -4.6915    1.1179 C   0  0  0  0  0  0  0  0  0  0  0  0
   -1.8447   -3.5282    1.7273 N   0  0  0  0  0  0  0  0  0  0  0  0
   -0.6371   -2.9521    1.9647 C   0  0  0  0  0  0  0  0  0  0  0  0
    3.6144   -0.9451   -1.2906 H   0  0  0  0  0  0  0  0  0  0  0  0
    3.7730    0.8267   -1.3523 H   0  0  0  0  0  0  0  0  0  0  0  0
    4.6830   -0.2994   -3.3779 H   0  0  0  0  0  0  0  0  0  0  0  0
    5.1555   -1.3948   -5.5297 H   0  0  0  0  0  0  0  0  0  0  0  0
    3.3261   -2.1837   -6.9628 H   0  0  0  0  0  0  0  0  0  0  0  0
   -0.7024   -2.7232   -8.4133 H   0  0  0  0  0  0  0  0  0  0  0  0
   -0.4719   -4.8657   -9.6822 H   0  0  0  0  0  0  0  0  0  0  0  0
    1.2368   -6.5344   -8.9437 H   0  0  0  0  0  0  0  0  0  0  0  0
    2.6293   -5.9986   -6.9401 H   0  0  0  0  0  0  0  0  0  0  0  0
    0.4543   -0.8306   -4.0555 H   0  0  0  0  0  0  0  0  0  0  0  0
    1.0080   -0.1827    2.1448 H   0  0  0  0  0  0  0  0  0  0  0  0
    1.6955   -1.7910    2.3715 H   0  0  0  0  0  0  0  0  0  0  0  0
   -0.8365   -0.1769    0.0568 H   0  0  0  0  0  0  0  0  0  0  0  0
   -3.0067   -1.1788   -0.4355 H   0  0  0  0  0  0  0  0  0  0  0  0
   -4.8132   -2.2248   -0.9301 H   0  0  0  0  0  0  0  0  0  0  0  0
   -6.8175   -4.0849   -0.8171 H   0  0  0  0  0  0  0  0  0  0  0  0
   -3.8276   -5.2420    1.8562 H   0  0  0  0  0  0  0  0  0  0  0  0
   -0.0028   -3.5042    2.6523 H   0  0  0  0  0  0  0  0  0  0  0  0
  1  2  2  0  0  0  0
  2  3  1  0  0  0  0
  2 18  1  0  0  0  0
  3  4  1  0  0  0  0
  3 31  1  0  0  0  0
  3 32  1  0  0  0  0
  4  5  1  0  0  0  0
  5  6  2  0  0  0  0
  5 17  1  0  0  0  0
  6  7  1  0  0  0  0
  6 33  1  0  0  0  0
  7  8  2  0  0  0  0
  7 34  1  0  0  0  0
  8  9  1  0  0  0  0
  8 35  1  0  0  0  0
  9 10  1  0  0  0  0
  9 17  2  0  0  0  0
 10 11  1  0  0  0  0
 11 12  2  0  0  0  0
 11 16  1  0  0  0  0
 12 13  1  0  0  0  0
 12 36  1  0  0  0  0
 13 14  2  0  0  0  0
 13 37  1  0  0  0  0
 14 15  1  0  0  0  0
 14 38  1  0  0  0  0
 15 16  2  0  0  0  0
 15 39  1  0  0  0  0
 17 40  1  0  0  0  0
 18 19  1  0  0  0  0
 19 20  1  0  0  0  0
 19 41  1  0  0  0  0
 19 42  1  0  0  0  0
 20 21  2  0  0  0  0
 20 30  1  0  0  0  0
 21 22  1  0  0  0  0
 21 43  1  0  0  0  0
 22 23  2  0  0  0  0
 22 44  1  0  0  0  0
 23 24  1  0  0  0  0
 23 29  1  0  0  0  0
 24 25  1  0  0  0  0
 24 28  1  0  0  0  0
 25 26  2  0  0  0  0
 25 45  1  0  0  0  0
 26 27  1  0  0  0  0
 26 46  1  0  0  0  0
 27 28  2  0  0  0  0
 28 47  1  0  0  0  0
 29 30  2  0  0  0  0
 30 48  1  0  0  0  0
M  END
$$$$
