
 OpenBabel01122422473D

 47 50  0  0  0  0  0  0  0  0999 V2000
    2.2779   -0.5574   -1.6649 C   0  0  0  0  0  0  0  0  0  0  0  0
    3.0663    0.0148   -0.6280 O   0  0  0  0  0  0  0  0  0  0  0  0
    3.5057   -0.8248    0.3644 C   0  0  0  0  0  0  0  0  0  0  0  0
    3.1158   -2.1655    0.4901 C   0  0  0  0  0  0  0  0  0  0  0  0
    3.6046   -2.9543    1.5345 C   0  0  0  0  0  0  0  0  0  0  0  0
    4.4939   -2.4164    2.4586 C   0  0  0  0  0  0  0  0  0  0  0  0
    4.8796   -1.0794    2.3521 C   0  0  0  0  0  0  0  0  0  0  0  0
    4.3852   -0.2684    1.3159 C   0  0  0  0  0  0  0  0  0  0  0  0
    4.6911    1.1743    1.3571 C   0  0  0  0  0  0  0  0  0  0  0  0
    3.8496    1.9943    2.0011 C   0  0  0  0  0  0  0  0  0  0  0  0
    4.1523    3.3985    2.1058 C   0  0  0  0  0  0  0  0  0  0  0  0
    5.2612    3.9272    1.5685 C   0  0  0  0  0  0  0  0  0  0  0  0
    5.4599    5.3935    1.7932 C   0  0  0  0  0  0  0  0  0  0  0  0
    4.6840    6.0236    2.5100 O   0  0  0  0  0  0  0  0  0  0  0  0
    6.5193    6.0092    1.1914 N   0  0  0  0  0  0  0  0  0  0  0  0
    6.7216    7.4199    1.4269 C   0  0  0  0  0  0  0  0  0  0  0  0
    7.8258    7.9372    0.5836 C   0  0  0  0  0  0  0  0  0  0  0  0
    7.6751    8.7364   -0.5363 C   0  0  0  0  0  0  0  0  0  0  0  0
    8.9287    9.1293   -0.9078 N   0  0  0  0  0  0  0  0  0  0  0  0
    9.8304    8.2153   -0.4231 C   0  0  0  0  0  0  0  0  0  0  0  0
   11.1074    7.8523   -0.8578 C   0  0  0  0  0  0  0  0  0  0  0  0
   11.8210    6.9805   -0.0336 C   0  0  0  0  0  0  0  0  0  0  0  0
   11.3195    6.6187    1.2132 C   0  0  0  0  0  0  0  0  0  0  0  0
   12.0750    5.8642    2.0233 F   0  0  0  0  0  0  0  0  0  0  0  0
   10.0330    6.9717    1.6236 C   0  0  0  0  0  0  0  0  0  0  0  0
    9.2283    7.6806    0.7164 C   0  0  0  0  0  0  0  0  0  0  0  0
    6.1934    3.0190    0.8173 C   0  0  0  0  0  0  0  0  0  0  0  0
    7.2093    3.4337    0.2736 O   0  0  0  0  0  0  0  0  0  0  0  0
    5.8422    1.6740    0.7828 N   0  0  0  0  0  0  0  0  0  0  0  0
    2.1320    0.2054   -2.4354 H   0  0  0  0  0  0  0  0  0  0  0  0
    1.2915   -0.8459   -1.2871 H   0  0  0  0  0  0  0  0  0  0  0  0
    2.7849   -1.4068   -2.1357 H   0  0  0  0  0  0  0  0  0  0  0  0
    2.4170   -2.6262   -0.2008 H   0  0  0  0  0  0  0  0  0  0  0  0
    3.2825   -3.9889    1.6288 H   0  0  0  0  0  0  0  0  0  0  0  0
    4.8704   -3.0301    3.2740 H   0  0  0  0  0  0  0  0  0  0  0  0
    5.5471   -0.6596    3.1015 H   0  0  0  0  0  0  0  0  0  0  0  0
    2.9364    1.6348    2.4726 H   0  0  0  0  0  0  0  0  0  0  0  0
    3.4419    4.0049    2.6627 H   0  0  0  0  0  0  0  0  0  0  0  0
    7.1711    5.4770    0.6178 H   0  0  0  0  0  0  0  0  0  0  0  0
    6.9299    7.5812    2.4898 H   0  0  0  0  0  0  0  0  0  0  0  0
    5.7873    7.9449    1.1892 H   0  0  0  0  0  0  0  0  0  0  0  0
    6.7933    9.1186   -1.0350 H   0  0  0  0  0  0  0  0  0  0  0  0
    9.1573    9.9444   -1.4612 H   0  0  0  0  0  0  0  0  0  0  0  0
   11.4972    8.1730   -1.8183 H   0  0  0  0  0  0  0  0  0  0  0  0
   12.7813    6.5879   -0.3536 H   0  0  0  0  0  0  0  0  0  0  0  0
    9.6577    6.6412    2.5850 H   0  0  0  0  0  0  0  0  0  0  0  0
    6.4577    1.0383    0.2841 H   0  0  0  0  0  0  0  0  0  0  0  0
  1  2  1  0  0  0  0
  1 30  1  0  0  0  0
  1 31  1  0  0  0  0
  1 32  1  0  0  0  0
  2  3  1  0  0  0  0
  3  4  2  0  0  0  0
  3  8  1  0  0  0  0
  4  5  1  0  0  0  0
  4 33  1  0  0  0  0
  5  6  2  0  0  0  0
  5 34  1  0  0  0  0
  6  7  1  0  0  0  0
  6 35  1  0  0  0  0
  7  8  2  0  0  0  0
  7 36  1  0  0  0  0
  8  9  1  0  0  0  0
  9 10  2  0  0  0  0
  9 29  1  0  0  0  0
 10 11  1  0  0  0  0
 10 37  1  0  0  0  0
 11 12  2  0  0  0  0
 11 38  1  0  0  0  0
 12 13  1  0  0  0  0
 12 27  1  0  0  0  0
 13 14  2  0  0  0  0
 13 15  1  0  0  0  0
 15 16  1  0  0  0  0
 15 39  1  0  0  0  0
 16 17  1  0  0  0  0
 16 40  1  0  0  0  0
 16 41  1  0  0  0  0
 17 18  2  0  0  0  0
 17 26  1  0  0  0  0
 18 19  1  0  0  0  0
 18 42  1  0  0  0  0
 19 20  1  0  0  0  0
 19 43  1  0  0  0  0
 20 21  2  0  0  0  0
 20 26  1  0  0  0  0
 21 22  1  0  0  0  0
 21 44  1  0  0  0  0
 22 23  2  0  0  0  0
 22 45  1  0  0  0  0
 23 24  1  0  0  0  0
 23 25  1  0  0  0  0
 25 26  2  0  0  0  0
 25 46  1  0  0  0  0
 27 28  2  0  0  0  0
 27 29  1  0  0  0  0
 29 47  1  0  0  0  0
M  END
$$$$
