
 OpenBabel01122422473D

 44 47  0  0  0  0  0  0  0  0999 V2000
    1.0252    0.0449    0.2106 O   0  0  0  0  0  0  0  0  0  0  0  0
    2.2246   -0.1032   -0.0106 C   0  0  0  0  0  0  0  0  0  0  0  0
    2.8451    0.1336   -1.2227 N   0  0  0  0  0  0  0  0  0  0  0  0
    2.1975    0.5155   -2.4129 C   0  0  0  0  0  0  0  0  0  0  0  0
    0.8943    1.0152   -2.4587 C   0  0  0  0  0  0  0  0  0  0  0  0
    0.2991    1.3123   -3.6815 C   0  0  0  0  0  0  0  0  0  0  0  0
    1.0418    1.1194   -4.8302 C   0  0  0  0  0  0  0  0  0  0  0  0
    0.4240    1.4429   -6.0315 O   0  0  0  0  0  0  0  0  0  0  0  0
    1.2318    1.9191   -7.0381 C   0  0  0  0  0  0  0  0  0  0  0  0
    0.9214    1.5291   -8.3407 C   0  0  0  0  0  0  0  0  0  0  0  0
    1.7153    1.9655   -9.4024 C   0  0  0  0  0  0  0  0  0  0  0  0
    2.8098    2.7983   -9.1619 C   0  0  0  0  0  0  0  0  0  0  0  0
    3.0944    3.2211   -7.8648 C   0  0  0  0  0  0  0  0  0  0  0  0
    2.2931    2.8005   -6.8073 C   0  0  0  0  0  0  0  0  0  0  0  0
    2.3090    0.6413   -4.8315 N   0  0  0  0  0  0  0  0  0  0  0  0
    2.8606    0.3717   -3.6264 C   0  0  0  0  0  0  0  0  0  0  0  0
    3.1364   -0.6282    1.0161 C   0  0  0  0  0  0  0  0  0  0  0  0
    4.4652   -0.7709    0.8126 N   0  0  0  0  0  0  0  0  0  0  0  0
    4.9350   -1.3413    1.9644 N   0  0  0  0  0  0  0  0  0  0  0  0
    6.3083   -1.6921    2.1117 C   0  0  0  0  0  0  0  0  0  0  0  0
    7.2274   -1.3409    1.1129 C   0  0  0  0  0  0  0  0  0  0  0  0
    8.5728   -1.6949    1.2417 C   0  0  0  0  0  0  0  0  0  0  0  0
    9.0082   -2.4023    2.3644 C   0  0  0  0  0  0  0  0  0  0  0  0
    8.0998   -2.7532    3.3606 C   0  0  0  0  0  0  0  0  0  0  0  0
    6.7546   -2.3975    3.2398 C   0  0  0  0  0  0  0  0  0  0  0  0
    3.9296   -1.5286    2.8879 C   0  0  0  0  0  0  0  0  0  0  0  0
    2.7822   -1.0821    2.3017 C   0  0  0  0  0  0  0  0  0  0  0  0
    1.5736   -1.1108    2.8793 O   0  0  0  0  0  0  0  0  0  0  0  0
    3.8241   -0.1400   -1.2534 H   0  0  0  0  0  0  0  0  0  0  0  0
    0.3173    1.2001   -1.5590 H   0  0  0  0  0  0  0  0  0  0  0  0
   -0.7126    1.6981   -3.7261 H   0  0  0  0  0  0  0  0  0  0  0  0
    0.0758    0.8727   -8.5272 H   0  0  0  0  0  0  0  0  0  0  0  0
    1.4885    1.6474  -10.4162 H   0  0  0  0  0  0  0  0  0  0  0  0
    3.4426    3.1186   -9.9841 H   0  0  0  0  0  0  0  0  0  0  0  0
    3.9460    3.8664   -7.6693 H   0  0  0  0  0  0  0  0  0  0  0  0
    2.5230    3.1377   -5.8006 H   0  0  0  0  0  0  0  0  0  0  0  0
    3.8809    0.0029   -3.6793 H   0  0  0  0  0  0  0  0  0  0  0  0
    6.9158   -0.7872    0.2302 H   0  0  0  0  0  0  0  0  0  0  0  0
    9.2839   -1.4184    0.4687 H   0  0  0  0  0  0  0  0  0  0  0  0
   10.0542   -2.6825    2.4583 H   0  0  0  0  0  0  0  0  0  0  0  0
    8.4380   -3.3117    4.2294 H   0  0  0  0  0  0  0  0  0  0  0  0
    6.0858   -2.7049    4.0371 H   0  0  0  0  0  0  0  0  0  0  0  0
    4.1087   -1.9537    3.8619 H   0  0  0  0  0  0  0  0  0  0  0  0
    1.6182   -1.4834    3.7762 H   0  0  0  0  0  0  0  0  0  0  0  0
  1  2  2  0  0  0  0
  2  3  1  0  0  0  0
  2 17  1  0  0  0  0
  3  4  1  0  0  0  0
  3 29  1  0  0  0  0
  4  5  2  0  0  0  0
  4 16  1  0  0  0  0
  5  6  1  0  0  0  0
  5 30  1  0  0  0  0
  6  7  2  0  0  0  0
  6 31  1  0  0  0  0
  7  8  1  0  0  0  0
  7 15  1  0  0  0  0
  8  9  1  0  0  0  0
  9 10  2  0  0  0  0
  9 14  1  0  0  0  0
 10 11  1  0  0  0  0
 10 32  1  0  0  0  0
 11 12  2  0  0  0  0
 11 33  1  0  0  0  0
 12 13  1  0  0  0  0
 12 34  1  0  0  0  0
 13 14  2  0  0  0  0
 13 35  1  0  0  0  0
 14 36  1  0  0  0  0
 15 16  2  0  0  0  0
 16 37  1  0  0  0  0
 17 18  2  0  0  0  0
 17 27  1  0  0  0  0
 18 19  1  0  0  0  0
 19 20  1  0  0  0  0
 19 26  1  0  0  0  0
 20 21  2  0  0  0  0
 20 25  1  0  0  0  0
 21 22  1  0  0  0  0
 21 38  1  0  0  0  0
 22 23  2  0  0  0  0
 22 39  1  0  0  0  0
 23 24  1  0  0  0  0
 23 40  1  0  0  0  0
 24 25  2  0  0  0  0
 24 41  1  0  0  0  0
 25 42  1  0  0  0  0
 26 27  2  0  0  0  0
 26 43  1  0  0  0  0
 27 28  1  0  0  0  0
 28 44  1  0  0  0  0
M  END
$$$$
