
 OpenBabel01122422473D

 45 48  0  0  0  0  0  0  0  0999 V2000
    4.5455   -2.2679   -0.2803 N   0  0  0  0  0  0  0  0  0  0  0  0
    4.1740   -0.9550    0.0479 C   0  0  0  0  0  0  0  0  0  0  0  0
    4.9113    0.1179   -0.4341 C   0  0  0  0  0  0  0  0  0  0  0  0
    4.4716    1.4205   -0.1810 C   0  0  0  0  0  0  0  0  0  0  0  0
    5.3457    2.5482   -0.6140 C   0  0  0  0  0  0  0  0  0  0  0  0
    6.4140    2.2523   -1.1437 O   0  0  0  0  0  0  0  0  0  0  0  0
    4.9024    3.8322   -0.3052 N   0  0  0  0  0  0  0  0  0  0  0  0
    5.6164    5.0205   -0.6026 C   0  0  0  0  0  0  0  0  0  0  0  0
    6.6401    5.0388   -1.5571 C   0  0  0  0  0  0  0  0  0  0  0  0
    7.4361    6.1583   -1.8231 C   0  0  0  0  0  0  0  0  0  0  0  0
    8.4796    6.1222   -2.8029 N   0  0  0  0  0  0  0  0  0  0  0  0
    8.5437    5.1537   -3.7963 C   0  0  0  0  0  0  0  0  0  0  0  0
    7.6397    4.3472   -4.0115 O   0  0  0  0  0  0  0  0  0  0  0  0
    9.6842    5.0717   -4.6820 C   0  0  0  0  0  0  0  0  0  0  0  0
   10.8106    5.8013   -5.0216 C   0  0  0  0  0  0  0  0  0  0  0  0
   11.4059    5.1726   -6.1802 C   0  0  0  0  0  0  0  0  0  0  0  0
   12.4834    5.4617   -7.0475 C   0  0  0  0  0  0  0  0  0  0  0  0
   12.7046    4.6365   -8.1655 C   0  0  0  0  0  0  0  0  0  0  0  0
   11.8953    3.5318   -8.4213 C   0  0  0  0  0  0  0  0  0  0  0  0
   10.8550    3.2005   -7.5609 C   0  0  0  0  0  0  0  0  0  0  0  0
   10.6468    4.0396   -6.4630 C   0  0  0  0  0  0  0  0  0  0  0  0
    9.7053    3.9527   -5.4898 N   0  0  0  0  0  0  0  0  0  0  0  0
    7.1945    7.3086   -1.0761 C   0  0  0  0  0  0  0  0  0  0  0  0
    6.1241    7.3379   -0.1597 C   0  0  0  0  0  0  0  0  0  0  0  0
    5.3255    6.2063    0.0652 C   0  0  0  0  0  0  0  0  0  0  0  0
    3.3176    1.7242    0.4721 N   0  0  0  0  0  0  0  0  0  0  0  0
    2.5809    0.6547    0.8640 C   0  0  0  0  0  0  0  0  0  0  0  0
    2.9574   -0.6688    0.6676 C   0  0  0  0  0  0  0  0  0  0  0  0
    2.1684   -1.6635    1.0989 F   0  0  0  0  0  0  0  0  0  0  0  0
    5.5440   -2.4108   -0.4067 H   0  0  0  0  0  0  0  0  0  0  0  0
    4.1222   -2.9709    0.3212 H   0  0  0  0  0  0  0  0  0  0  0  0
    5.8304   -0.0510   -0.9904 H   0  0  0  0  0  0  0  0  0  0  0  0
    4.0729    3.8830    0.2806 H   0  0  0  0  0  0  0  0  0  0  0  0
    6.8078    4.1276   -2.1088 H   0  0  0  0  0  0  0  0  0  0  0  0
    9.1519    6.8747   -2.8185 H   0  0  0  0  0  0  0  0  0  0  0  0
   11.1385    6.7306   -4.5751 H   0  0  0  0  0  0  0  0  0  0  0  0
   13.1155    6.3269   -6.8811 H   0  0  0  0  0  0  0  0  0  0  0  0
   13.5152    4.8659   -8.8524 H   0  0  0  0  0  0  0  0  0  0  0  0
   12.0653    2.9169   -9.3023 H   0  0  0  0  0  0  0  0  0  0  0  0
   10.2138    2.3452   -7.7443 H   0  0  0  0  0  0  0  0  0  0  0  0
    8.9960    3.2339   -5.4202 H   0  0  0  0  0  0  0  0  0  0  0  0
    7.7950    8.2019   -1.2121 H   0  0  0  0  0  0  0  0  0  0  0  0
    5.9171    8.2527    0.3924 H   0  0  0  0  0  0  0  0  0  0  0  0
    4.5176    6.2555    0.7888 H   0  0  0  0  0  0  0  0  0  0  0  0
    1.6419    0.8818    1.3581 H   0  0  0  0  0  0  0  0  0  0  0  0
  1  2  1  0  0  0  0
  1 30  1  0  0  0  0
  1 31  1  0  0  0  0
  2  3  2  0  0  0  0
  2 28  1  0  0  0  0
  3  4  1  0  0  0  0
  3 32  1  0  0  0  0
  4  5  1  0  0  0  0
  4 26  2  0  0  0  0
  5  6  2  0  0  0  0
  5  7  1  0  0  0  0
  7  8  1  0  0  0  0
  7 33  1  0  0  0  0
  8  9  2  0  0  0  0
  8 25  1  0  0  0  0
  9 10  1  0  0  0  0
  9 34  1  0  0  0  0
 10 11  1  0  0  0  0
 10 23  2  0  0  0  0
 11 12  1  0  0  0  0
 11 35  1  0  0  0  0
 12 13  2  0  0  0  0
 12 14  1  0  0  0  0
 14 15  2  0  0  0  0
 14 22  1  0  0  0  0
 15 16  1  0  0  0  0
 15 36  1  0  0  0  0
 16 17  2  0  0  0  0
 16 21  1  0  0  0  0
 17 18  1  0  0  0  0
 17 37  1  0  0  0  0
 18 19  2  0  0  0  0
 18 38  1  0  0  0  0
 19 20  1  0  0  0  0
 19 39  1  0  0  0  0
 20 21  2  0  0  0  0
 20 40  1  0  0  0  0
 21 22  1  0  0  0  0
 22 41  1  0  0  0  0
 23 24  1  0  0  0  0
 23 42  1  0  0  0  0
 24 25  2  0  0  0  0
 24 43  1  0  0  0  0
 25 44  1  0  0  0  0
 26 27  1  0  0  0  0
 27 28  2  0  0  0  0
 27 45  1  0  0  0  0
 28 29  1  0  0  0  0
M  END
$$$$
