
 OpenBabel01122422473D

 44 47  0  0  0  0  0  0  0  0999 V2000
    1.3081   -2.4720    0.2517 C   0  0  0  0  0  0  0  0  0  0  0  0
    2.7139   -2.3155    0.4242 O   0  0  0  0  0  0  0  0  0  0  0  0
    3.1731   -1.0522    0.2197 C   0  0  0  0  0  0  0  0  0  0  0  0
    2.4793   -0.0818   -0.0418 O   0  0  0  0  0  0  0  0  0  0  0  0
    4.6613   -1.0343    0.3977 C   0  0  0  0  0  0  0  0  0  0  0  0
    5.2808   -2.1873    0.0321 N   0  0  0  0  0  0  0  0  0  0  0  0
    6.6069   -2.2846    0.1356 C   0  0  0  0  0  0  0  0  0  0  0  0
    7.2428   -3.4798   -0.2409 N   0  0  0  0  0  0  0  0  0  0  0  0
    6.5607   -4.5966   -0.6929 C   0  0  0  0  0  0  0  0  0  0  0  0
    5.3461   -4.7058   -0.8051 O   0  0  0  0  0  0  0  0  0  0  0  0
    7.3945   -5.7341   -1.0563 C   0  0  0  0  0  0  0  0  0  0  0  0
    8.7664   -5.9034   -1.0803 C   0  0  0  0  0  0  0  0  0  0  0  0
    9.0130   -7.1966   -1.5132 N   0  0  0  0  0  0  0  0  0  0  0  0
   10.2642   -7.8528   -1.6784 C   0  0  0  0  0  0  0  0  0  0  0  0
   11.4677   -7.2179   -1.3573 C   0  0  0  0  0  0  0  0  0  0  0  0
   12.6661   -7.9091   -1.5201 C   0  0  0  0  0  0  0  0  0  0  0  0
   13.8166   -7.3017   -1.2012 F   0  0  0  0  0  0  0  0  0  0  0  0
   12.6948   -9.2139   -1.9999 C   0  0  0  0  0  0  0  0  0  0  0  0
   11.5005   -9.8492   -2.3263 C   0  0  0  0  0  0  0  0  0  0  0  0
   10.2886   -9.1735   -2.1650 C   0  0  0  0  0  0  0  0  0  0  0  0
    7.8604   -7.8532   -1.7827 N   0  0  0  0  0  0  0  0  0  0  0  0
    6.8992   -6.9788   -1.4997 C   0  0  0  0  0  0  0  0  0  0  0  0
    7.3744   -1.2279    0.6046 C   0  0  0  0  0  0  0  0  0  0  0  0
    6.7480   -0.0277    0.9906 C   0  0  0  0  0  0  0  0  0  0  0  0
    7.5030    1.0538    1.4815 C   0  0  0  0  0  0  0  0  0  0  0  0
    6.8886    2.2420    1.8805 C   0  0  0  0  0  0  0  0  0  0  0  0
    5.5089    2.3689    1.7983 C   0  0  0  0  0  0  0  0  0  0  0  0
    4.7438    1.3094    1.3123 C   0  0  0  0  0  0  0  0  0  0  0  0
    5.3442    0.0932    0.8941 C   0  0  0  0  0  0  0  0  0  0  0  0
    1.0741   -3.5377    0.3246 H   0  0  0  0  0  0  0  0  0  0  0  0
    0.9927   -2.1161   -0.7342 H   0  0  0  0  0  0  0  0  0  0  0  0
    0.7726   -1.9425    1.0452 H   0  0  0  0  0  0  0  0  0  0  0  0
    8.2449   -3.5207   -0.1652 H   0  0  0  0  0  0  0  0  0  0  0  0
    9.5751   -5.2332   -0.8394 H   0  0  0  0  0  0  0  0  0  0  0  0
   11.5209   -6.2063   -0.9746 H   0  0  0  0  0  0  0  0  0  0  0  0
   13.6445   -9.7261   -2.1145 H   0  0  0  0  0  0  0  0  0  0  0  0
   11.5060  -10.8695   -2.7029 H   0  0  0  0  0  0  0  0  0  0  0  0
    9.3652   -9.6918   -2.4240 H   0  0  0  0  0  0  0  0  0  0  0  0
    5.8627   -7.2714   -1.6261 H   0  0  0  0  0  0  0  0  0  0  0  0
    8.4529   -1.3240    0.6824 H   0  0  0  0  0  0  0  0  0  0  0  0
    8.5859    0.9824    1.5625 H   0  0  0  0  0  0  0  0  0  0  0  0
    7.4856    3.0680    2.2590 H   0  0  0  0  0  0  0  0  0  0  0  0
    5.0206    3.2897    2.1094 H   0  0  0  0  0  0  0  0  0  0  0  0
    3.6647    1.4482    1.2665 H   0  0  0  0  0  0  0  0  0  0  0  0
  1  2  1  0  0  0  0
  1 30  1  0  0  0  0
  1 31  1  0  0  0  0
  1 32  1  0  0  0  0
  2  3  1  0  0  0  0
  3  4  2  0  0  0  0
  3  5  1  0  0  0  0
  5  6  2  0  0  0  0
  5 29  1  0  0  0  0
  6  7  1  0  0  0  0
  7  8  1  0  0  0  0
  7 23  2  0  0  0  0
  8  9  1  0  0  0  0
  8 33  1  0  0  0  0
  9 10  2  0  0  0  0
  9 11  1  0  0  0  0
 11 12  2  0  0  0  0
 11 22  1  0  0  0  0
 12 13  1  0  0  0  0
 12 34  1  0  0  0  0
 13 14  1  0  0  0  0
 13 21  1  0  0  0  0
 14 15  2  0  0  0  0
 14 20  1  0  0  0  0
 15 16  1  0  0  0  0
 15 35  1  0  0  0  0
 16 17  1  0  0  0  0
 16 18  2  0  0  0  0
 18 19  1  0  0  0  0
 18 36  1  0  0  0  0
 19 20  2  0  0  0  0
 19 37  1  0  0  0  0
 20 38  1  0  0  0  0
 21 22  2  0  0  0  0
 22 39  1  0  0  0  0
 23 24  1  0  0  0  0
 23 40  1  0  0  0  0
 24 25  2  0  0  0  0
 24 29  1  0  0  0  0
 25 26  1  0  0  0  0
 25 41  1  0  0  0  0
 26 27  2  0  0  0  0
 26 42  1  0  0  0  0
 27 28  1  0  0  0  0
 27 43  1  0  0  0  0
 28 29  2  0  0  0  0
 28 44  1  0  0  0  0
M  END
$$$$
