
 OpenBabel01122422473D

 45 48  0  0  1  0  0  0  0  0999 V2000
    1.1716   -0.4124    0.5261 O   0  0  0  0  0  0  0  0  0  0  0  0
    2.2809   -0.0819    0.1137 C   0  0  0  0  0  0  0  0  0  0  0  0
    2.9063   -0.7442   -0.9093 N   0  0  0  0  0  0  0  0  0  0  0  0
    2.2972   -1.8826   -1.5938 C   0  0  3  0  0  0  0  0  0  0  0  0
    1.4293   -1.4258   -2.7913 C   0  0  0  0  0  0  0  0  0  0  0  0
    0.3608   -0.5570   -2.4100 O   0  0  0  0  0  0  0  0  0  0  0  0
    3.3593   -2.8760   -2.0124 C   0  0  0  0  0  0  0  0  0  0  0  0
    4.3812   -2.5371   -2.9184 C   0  0  0  0  0  0  0  0  0  0  0  0
    5.3555   -3.4747   -3.2808 C   0  0  0  0  0  0  0  0  0  0  0  0
    5.3250   -4.7605   -2.7427 C   0  0  0  0  0  0  0  0  0  0  0  0
    4.3175   -5.1028   -1.8493 C   0  0  0  0  0  0  0  0  0  0  0  0
    4.2892   -6.3410   -1.3369 F   0  0  0  0  0  0  0  0  0  0  0  0
    3.3452   -4.1756   -1.4886 C   0  0  0  0  0  0  0  0  0  0  0  0
    2.3818   -4.5396   -0.6296 F   0  0  0  0  0  0  0  0  0  0  0  0
    3.0216    1.0673    0.7031 C   0  0  0  0  0  0  0  0  0  0  0  0
    2.6420    1.4708    1.9325 C   0  0  0  0  0  0  0  0  0  0  0  0
    3.4092    2.6149    2.5255 C   0  0  0  0  0  0  0  0  0  0  0  0
    3.0734    3.0328    3.9225 C   0  0  0  0  0  0  0  0  0  0  0  0
    2.5965    2.1323    4.8833 C   0  0  0  0  0  0  0  0  0  0  0  0
    2.3795    2.5584    6.1982 C   0  0  0  0  0  0  0  0  0  0  0  0
    2.6408    3.8790    6.5623 C   0  0  0  0  0  0  0  0  0  0  0  0
    3.1127    4.7816    5.6127 C   0  0  0  0  0  0  0  0  0  0  0  0
    3.3297    4.3605    4.2992 C   0  0  0  0  0  0  0  0  0  0  0  0
    4.3526    3.2611    1.8972 N   0  0  0  0  0  0  0  0  0  0  0  0
    4.6806    2.8303    0.6477 C   0  0  0  0  0  0  0  0  0  0  0  0
    5.6052    3.2982   -0.2556 C   0  0  0  0  0  0  0  0  0  0  0  0
    5.5080    2.4362   -1.3546 C   0  0  0  0  0  0  0  0  0  0  0  0
    4.5991    1.4738   -1.1835 N   0  0  0  0  0  0  0  0  0  0  0  0
    4.0570    1.7333    0.0483 N   0  0  0  0  0  0  0  0  0  0  0  0
    3.7318   -0.3097   -1.3226 H   0  0  0  0  0  0  0  0  0  0  0  0
    1.6196   -2.3574   -0.8734 H   0  0  0  0  0  0  0  0  0  0  0  0
    0.9832   -2.2950   -3.2879 H   0  0  0  0  0  0  0  0  0  0  0  0
    2.0294   -0.8927   -3.5368 H   0  0  0  0  0  0  0  0  0  0  0  0
    0.3322   -0.5146   -1.4334 H   0  0  0  0  0  0  0  0  0  0  0  0
    4.4295   -1.5387   -3.3503 H   0  0  0  0  0  0  0  0  0  0  0  0
    6.1406   -3.1991   -3.9818 H   0  0  0  0  0  0  0  0  0  0  0  0
    6.0766   -5.4957   -3.0129 H   0  0  0  0  0  0  0  0  0  0  0  0
    1.8264    1.0124    2.4758 H   0  0  0  0  0  0  0  0  0  0  0  0
    2.4216    1.0869    4.6488 H   0  0  0  0  0  0  0  0  0  0  0  0
    2.0236    1.8534    6.9459 H   0  0  0  0  0  0  0  0  0  0  0  0
    2.4875    4.2019    7.5893 H   0  0  0  0  0  0  0  0  0  0  0  0
    3.3263    5.8097    5.8950 H   0  0  0  0  0  0  0  0  0  0  0  0
    3.7140    5.0739    3.5726 H   0  0  0  0  0  0  0  0  0  0  0  0
    6.2570    4.1478   -0.1187 H   0  0  0  0  0  0  0  0  0  0  0  0
    6.0727    2.4690   -2.2780 H   0  0  0  0  0  0  0  0  0  0  0  0
  1  2  2  0  0  0  0
  2  3  1  0  0  0  0
  2 15  1  0  0  0  0
  3  4  1  0  0  0  0
  3 30  1  0  0  0  0
  4  5  1  0  0  0  0
  4  7  1  0  0  0  0
  4 31  1  0  0  0  0
  5  6  1  0  0  0  0
  5 32  1  0  0  0  0
  5 33  1  0  0  0  0
  6 34  1  0  0  0  0
  7  8  2  0  0  0  0
  7 13  1  0  0  0  0
  8  9  1  0  0  0  0
  8 35  1  0  0  0  0
  9 10  2  0  0  0  0
  9 36  1  0  0  0  0
 10 11  1  0  0  0  0
 10 37  1  0  0  0  0
 11 12  1  0  0  0  0
 11 13  2  0  0  0  0
 13 14  1  0  0  0  0
 15 16  2  0  0  0  0
 15 29  1  0  0  0  0
 16 17  1  0  0  0  0
 16 38  1  0  0  0  0
 17 18  1  0  0  0  0
 17 24  2  0  0  0  0
 18 19  2  0  0  0  0
 18 23  1  0  0  0  0
 19 20  1  0  0  0  0
 19 39  1  0  0  0  0
 20 21  2  0  0  0  0
 20 40  1  0  0  0  0
 21 22  1  0  0  0  0
 21 41  1  0  0  0  0
 22 23  2  0  0  0  0
 22 42  1  0  0  0  0
 23 43  1  0  0  0  0
 24 25  1  0  0  0  0
 25 26  2  0  0  0  0
 25 29  1  0  0  0  0
 26 27  1  0  0  0  0
 26 44  1  0  0  0  0
 27 28  2  0  0  0  0
 27 45  1  0  0  0  0
 28 29  1  0  0  0  0
M  END
$$$$
