
 OpenBabel01122422473D

 44 47  0  0  0  0  0  0  0  0999 V2000
    1.1064    0.8741    0.0428 C   0  0  0  0  0  0  0  0  0  0  0  0
    2.5365    0.8903    0.0446 O   0  0  0  0  0  0  0  0  0  0  0  0
    3.0874    0.4810    1.2126 C   0  0  0  0  0  0  0  0  0  0  0  0
    2.4735    0.1310    2.2090 O   0  0  0  0  0  0  0  0  0  0  0  0
    4.5750    0.4936    1.1343 C   0  0  0  0  0  0  0  0  0  0  0  0
    5.2839    0.9453    0.0181 C   0  0  0  0  0  0  0  0  0  0  0  0
    6.6914    0.9146    0.0127 C   0  0  0  0  0  0  0  0  0  0  0  0
    7.4302    0.4375    1.0918 C   0  0  0  0  0  0  0  0  0  0  0  0
    8.7855    0.4017    1.0458 N   0  0  0  0  0  0  0  0  0  0  0  0
    9.4290   -0.1167    2.1319 C   0  0  0  0  0  0  0  0  0  0  0  0
   10.9240   -0.2292    2.0994 C   0  0  0  0  0  0  0  0  0  0  0  0
   11.4744   -0.8114    3.0312 O   0  0  0  0  0  0  0  0  0  0  0  0
   11.5420    0.3822    1.0258 N   0  0  0  0  0  0  0  0  0  0  0  0
   12.9159    0.4374    0.8715 C   0  0  0  0  0  0  0  0  0  0  0  0
   13.7893   -0.2700    1.5869 N   0  0  0  0  0  0  0  0  0  0  0  0
   15.0161    0.1425    1.2058 N   0  0  0  0  0  0  0  0  0  0  0  0
   16.1905   -0.3729    1.8306 C   0  0  0  0  0  0  0  0  0  0  0  0
   16.0790   -1.4234    2.7610 C   0  0  0  0  0  0  0  0  0  0  0  0
   17.2205   -1.9414    3.3804 C   0  0  0  0  0  0  0  0  0  0  0  0
   18.4661   -1.4045    3.0827 C   0  0  0  0  0  0  0  0  0  0  0  0
   19.5601   -1.8944    3.6806 F   0  0  0  0  0  0  0  0  0  0  0  0
   18.5940   -0.3612    2.1730 C   0  0  0  0  0  0  0  0  0  0  0  0
   17.4582    0.1548    1.5397 C   0  0  0  0  0  0  0  0  0  0  0  0
   14.9264    1.0782    0.1980 C   0  0  0  0  0  0  0  0  0  0  0  0
   13.5865    1.2579   -0.0598 C   0  0  0  0  0  0  0  0  0  0  0  0
    8.7764   -0.5630    3.2765 C   0  0  0  0  0  0  0  0  0  0  0  0
    7.3955   -0.5025    3.3176 C   0  0  0  0  0  0  0  0  0  0  0  0
    6.6964   -0.0118    2.2178 C   0  0  0  0  0  0  0  0  0  0  0  0
    5.2912    0.0217    2.2354 C   0  0  0  0  0  0  0  0  0  0  0  0
    0.7658    1.1256   -0.9652 H   0  0  0  0  0  0  0  0  0  0  0  0
    0.7169    1.6230    0.7392 H   0  0  0  0  0  0  0  0  0  0  0  0
    0.7273   -0.1223    0.2947 H   0  0  0  0  0  0  0  0  0  0  0  0
    4.7603    1.3209   -0.8584 H   0  0  0  0  0  0  0  0  0  0  0  0
    7.2196    1.2682   -0.8709 H   0  0  0  0  0  0  0  0  0  0  0  0
   10.9574    0.8983    0.3808 H   0  0  0  0  0  0  0  0  0  0  0  0
   15.1073   -1.8525    3.0069 H   0  0  0  0  0  0  0  0  0  0  0  0
   17.1425   -2.7574    4.0928 H   0  0  0  0  0  0  0  0  0  0  0  0
   19.5779    0.0478    1.9652 H   0  0  0  0  0  0  0  0  0  0  0  0
   17.5962    0.9762    0.8442 H   0  0  0  0  0  0  0  0  0  0  0  0
   15.7988    1.5303   -0.2475 H   0  0  0  0  0  0  0  0  0  0  0  0
   13.1598    1.9327   -0.7870 H   0  0  0  0  0  0  0  0  0  0  0  0
    9.3375   -0.9538    4.1204 H   0  0  0  0  0  0  0  0  0  0  0  0
    6.8762   -0.8544    4.2051 H   0  0  0  0  0  0  0  0  0  0  0  0
    4.7499   -0.3343    3.1130 H   0  0  0  0  0  0  0  0  0  0  0  0
  1  2  1  0  0  0  0
  1 30  1  0  0  0  0
  1 31  1  0  0  0  0
  1 32  1  0  0  0  0
  2  3  1  0  0  0  0
  3  4  2  0  0  0  0
  3  5  1  0  0  0  0
  5  6  2  0  0  0  0
  5 29  1  0  0  0  0
  6  7  1  0  0  0  0
  6 33  1  0  0  0  0
  7  8  2  0  0  0  0
  7 34  1  0  0  0  0
  8  9  1  0  0  0  0
  8 28  1  0  0  0  0
  9 10  2  0  0  0  0
 10 11  1  0  0  0  0
 10 26  1  0  0  0  0
 11 12  2  0  0  0  0
 11 13  1  0  0  0  0
 13 14  1  0  0  0  0
 13 35  1  0  0  0  0
 14 15  2  0  0  0  0
 14 25  1  0  0  0  0
 15 16  1  0  0  0  0
 16 17  1  0  0  0  0
 16 24  1  0  0  0  0
 17 18  2  0  0  0  0
 17 23  1  0  0  0  0
 18 19  1  0  0  0  0
 18 36  1  0  0  0  0
 19 20  2  0  0  0  0
 19 37  1  0  0  0  0
 20 21  1  0  0  0  0
 20 22  1  0  0  0  0
 22 23  2  0  0  0  0
 22 38  1  0  0  0  0
 23 39  1  0  0  0  0
 24 25  2  0  0  0  0
 24 40  1  0  0  0  0
 25 41  1  0  0  0  0
 26 27  2  0  0  0  0
 26 42  1  0  0  0  0
 27 28  1  0  0  0  0
 27 43  1  0  0  0  0
 28 29  2  0  0  0  0
 29 44  1  0  0  0  0
M  END
$$$$
