
 OpenBabel01122422473D

 45 48  0  0  1  0  0  0  0  0999 V2000
    1.0275    0.4364   -0.0679 C   0  0  0  0  0  0  0  0  0  0  0  0
    2.4893   -0.0294    0.0050 C   0  0  3  0  0  0  0  0  0  0  0  0
    2.9736    0.0981    1.3773 N   0  0  0  0  0  0  0  0  0  0  0  0
    2.7512   -0.8461    2.3543 C   0  0  0  0  0  0  0  0  0  0  0  0
    2.1176   -1.8795    2.1660 O   0  0  0  0  0  0  0  0  0  0  0  0
    3.3289   -0.5422    3.6512 C   0  0  0  0  0  0  0  0  0  0  0  0
    3.3732   -1.4123    4.7192 C   0  0  0  0  0  0  0  0  0  0  0  0
    2.9825   -2.6967    4.9018 N   0  0  0  0  0  0  0  0  0  0  0  0
    3.1164   -3.3066    6.1242 C   0  0  0  0  0  0  0  0  0  0  0  0
    3.6414   -2.6988    7.1967 C   0  0  0  0  0  0  0  0  0  0  0  0
    4.1165   -1.2911    7.0694 C   0  0  0  0  0  0  0  0  0  0  0  0
    4.6064   -0.6566    7.9968 O   0  0  0  0  0  0  0  0  0  0  0  0
    3.9441   -0.7408    5.7847 N   0  0  0  0  0  0  0  0  0  0  0  0
    4.3160    0.5290    5.4403 N   0  0  0  0  0  0  0  0  0  0  0  0
    3.9466    0.6249    4.1640 C   0  0  0  0  0  0  0  0  0  0  0  0
    2.8716   -1.3620   -0.6577 C   0  0  0  0  0  0  0  0  0  0  0  0
    1.8314   -2.1424   -1.2226 C   0  0  0  0  0  0  0  0  0  0  0  0
    2.0655   -3.3847   -1.8049 C   0  0  0  0  0  0  0  0  0  0  0  0
    3.3504   -3.8921   -1.8312 C   0  0  0  0  0  0  0  0  0  0  0  0
    4.4026   -3.1432   -1.2980 C   0  0  0  0  0  0  0  0  0  0  0  0
    4.2147   -1.8688   -0.7056 C   0  0  0  0  0  0  0  0  0  0  0  0
    5.4095   -1.1703   -0.1258 C   0  0  0  0  0  0  0  0  0  0  0  0
    5.5953    0.2199   -0.2541 C   0  0  0  0  0  0  0  0  0  0  0  0
    6.5933    0.9028    0.4490 C   0  0  0  0  0  0  0  0  0  0  0  0
    7.5105    0.1876    1.2000 C   0  0  0  0  0  0  0  0  0  0  0  0
    8.4651    0.8414    1.8728 F   0  0  0  0  0  0  0  0  0  0  0  0
    7.4579   -1.1933    1.2428 C   0  0  0  0  0  0  0  0  0  0  0  0
    6.4102   -1.8556    0.6000 C   0  0  0  0  0  0  0  0  0  0  0  0
    6.3897   -3.1938    0.7041 F   0  0  0  0  0  0  0  0  0  0  0  0
    0.9637    1.4963    0.2097 H   0  0  0  0  0  0  0  0  0  0  0  0
    0.3812   -0.1190    0.6182 H   0  0  0  0  0  0  0  0  0  0  0  0
    0.6224    0.3579   -1.0825 H   0  0  0  0  0  0  0  0  0  0  0  0
    3.0063    0.7428   -0.5706 H   0  0  0  0  0  0  0  0  0  0  0  0
    3.4473    0.9544    1.6131 H   0  0  0  0  0  0  0  0  0  0  0  0
    2.5609   -3.2260    4.1330 H   0  0  0  0  0  0  0  0  0  0  0  0
    2.7616   -4.3348    6.1557 H   0  0  0  0  0  0  0  0  0  0  0  0
    3.7407   -3.1743    8.1630 H   0  0  0  0  0  0  0  0  0  0  0  0
    4.1358    1.5660    3.6644 H   0  0  0  0  0  0  0  0  0  0  0  0
    0.7967   -1.8104   -1.1925 H   0  0  0  0  0  0  0  0  0  0  0  0
    1.2379   -3.9570   -2.2160 H   0  0  0  0  0  0  0  0  0  0  0  0
    3.5385   -4.8754   -2.2539 H   0  0  0  0  0  0  0  0  0  0  0  0
    5.3941   -3.5919   -1.3389 H   0  0  0  0  0  0  0  0  0  0  0  0
    4.9516    0.8068   -0.8998 H   0  0  0  0  0  0  0  0  0  0  0  0
    6.6597    1.9857    0.4059 H   0  0  0  0  0  0  0  0  0  0  0  0
    8.2110   -1.7537    1.7848 H   0  0  0  0  0  0  0  0  0  0  0  0
  1  2  1  0  0  0  0
  1 30  1  0  0  0  0
  1 31  1  0  0  0  0
  1 32  1  0  0  0  0
  2  3  1  0  0  0  0
  2 16  1  0  0  0  0
  2 33  1  0  0  0  0
  3  4  1  0  0  0  0
  3 34  1  0  0  0  0
  4  5  2  0  0  0  0
  4  6  1  0  0  0  0
  6  7  2  0  0  0  0
  6 15  1  0  0  0  0
  7  8  1  0  0  0  0
  7 13  1  0  0  0  0
  8  9  1  0  0  0  0
  8 35  1  0  0  0  0
  9 10  2  0  0  0  0
  9 36  1  0  0  0  0
 10 11  1  0  0  0  0
 10 37  1  0  0  0  0
 11 12  2  0  0  0  0
 11 13  1  0  0  0  0
 13 14  1  0  0  0  0
 14 15  2  0  0  0  0
 15 38  1  0  0  0  0
 16 17  2  0  0  0  0
 16 21  1  0  0  0  0
 17 18  1  0  0  0  0
 17 39  1  0  0  0  0
 18 19  2  0  0  0  0
 18 40  1  0  0  0  0
 19 20  1  0  0  0  0
 19 41  1  0  0  0  0
 20 21  2  0  0  0  0
 20 42  1  0  0  0  0
 21 22  1  0  0  0  0
 22 23  2  0  0  0  0
 22 28  1  0  0  0  0
 23 24  1  0  0  0  0
 23 43  1  0  0  0  0
 24 25  2  0  0  0  0
 24 44  1  0  0  0  0
 25 26  1  0  0  0  0
 25 27  1  0  0  0  0
 27 28  2  0  0  0  0
 27 45  1  0  0  0  0
 28 29  1  0  0  0  0
M  END
$$$$
