
 OpenBabel01122422453D

 49 52  0  0  1  0  0  0  0  0999 V2000
    1.0383    0.0581   -0.2587 N   0  0  0  0  0  0  0  0  0  0  0  0
    2.4902   -0.0548   -0.1339 C   0  0  0  0  0  0  0  0  0  0  0  0
    3.0384   -0.2491    1.3167 C   0  0  3  0  0  0  0  0  0  0  0  0
    2.4599   -1.4290    1.9914 N   0  0  0  0  0  0  0  0  0  0  0  0
    1.2855   -1.3451    2.6970 C   0  0  0  0  0  0  0  0  0  0  0  0
    0.6539   -0.3226    2.9310 O   0  0  0  0  0  0  0  0  0  0  0  0
    0.8345   -2.6779    3.2846 C   0  0  0  0  0  0  0  0  0  0  0  0
    1.7917   -3.4792    3.6823 N   0  0  0  0  0  0  0  0  0  0  0  0
    1.4474   -4.6899    4.2272 N   0  0  0  0  0  0  0  0  0  0  0  0
    2.5686   -5.4787    4.6488 C   0  0  0  0  0  0  0  0  0  0  0  0
    3.7556   -4.8396    5.0711 C   0  0  0  0  0  0  0  0  0  0  0  0
    4.8679   -5.5688    5.5111 C   0  0  0  0  0  0  0  0  0  0  0  0
    4.8259   -6.9625    5.5016 C   0  0  0  0  0  0  0  0  0  0  0  0
    3.6783   -7.6169    5.0678 C   0  0  0  0  0  0  0  0  0  0  0  0
    2.5656   -6.8801    4.6539 C   0  0  0  0  0  0  0  0  0  0  0  0
    1.5006   -7.5725    4.2114 F   0  0  0  0  0  0  0  0  0  0  0  0
    0.1122   -5.0704    4.4121 C   0  0  0  0  0  0  0  0  0  0  0  0
   -0.9253   -4.3410    4.0481 C   0  0  0  0  0  0  0  0  0  0  0  0
   -0.6254   -3.0579    3.4169 C   0  0  0  0  0  0  0  0  0  0  0  0
   -1.5147   -2.3411    2.9948 O   0  0  0  0  0  0  0  0  0  0  0  0
    4.5586   -0.3520    1.3082 C   0  0  0  0  0  0  0  0  0  0  0  0
    5.1974   -1.1525    0.3503 C   0  0  0  0  0  0  0  0  0  0  0  0
    6.5774   -1.1322    0.2239 C   0  0  0  0  0  0  0  0  0  0  0  0
    7.3540   -0.4634    1.1750 C   0  0  0  0  0  0  0  0  0  0  0  0
    8.7395   -0.4771    1.0877 C   0  0  0  0  0  0  0  0  0  0  0  0
    9.4845   -0.4562    2.2530 C   0  0  0  0  0  0  0  0  0  0  0  0
    8.8950    0.0396    3.4074 C   0  0  0  0  0  0  0  0  0  0  0  0
    7.5661    0.4784    3.3763 C   0  0  0  0  0  0  0  0  0  0  0  0
    6.7426    0.1327    2.2876 C   0  0  0  0  0  0  0  0  0  0  0  0
    5.3423    0.2987    2.2779 C   0  0  0  0  0  0  0  0  0  0  0  0
    0.8072    0.4701   -1.1615 H   0  0  0  0  0  0  0  0  0  0  0  0
    0.6714    0.6878    0.4614 H   0  0  0  0  0  0  0  0  0  0  0  0
    2.9601    0.8350   -0.5703 H   0  0  0  0  0  0  0  0  0  0  0  0
    2.7729   -0.9048   -0.7576 H   0  0  0  0  0  0  0  0  0  0  0  0
    2.7520    0.6435    1.8781 H   0  0  0  0  0  0  0  0  0  0  0  0
    2.9452   -2.2973    1.9308 H   0  0  0  0  0  0  0  0  0  0  0  0
    3.8103   -3.7523    5.0853 H   0  0  0  0  0  0  0  0  0  0  0  0
    5.7564   -5.0513    5.8566 H   0  0  0  0  0  0  0  0  0  0  0  0
    5.6918   -7.5328    5.8231 H   0  0  0  0  0  0  0  0  0  0  0  0
    3.6375   -8.7009    5.0320 H   0  0  0  0  0  0  0  0  0  0  0  0
   -0.0110   -6.0321    4.8960 H   0  0  0  0  0  0  0  0  0  0  0  0
   -1.9680   -4.6411    4.2051 H   0  0  0  0  0  0  0  0  0  0  0  0
    4.6281   -1.8018   -0.3110 H   0  0  0  0  0  0  0  0  0  0  0  0
    7.0474   -1.7436   -0.5437 H   0  0  0  0  0  0  0  0  0  0  0  0
    9.2347   -0.4663    0.1208 H   0  0  0  0  0  0  0  0  0  0  0  0
   10.5180   -0.7905    2.2422 H   0  0  0  0  0  0  0  0  0  0  0  0
    9.4849    0.1219    4.3149 H   0  0  0  0  0  0  0  0  0  0  0  0
    7.1556    0.9817    4.2459 H   0  0  0  0  0  0  0  0  0  0  0  0
    4.8682    0.8805    3.0642 H   0  0  0  0  0  0  0  0  0  0  0  0
  1  2  1  0  0  0  0
  1 31  1  0  0  0  0
  1 32  1  0  0  0  0
  2  3  1  0  0  0  0
  2 33  1  0  0  0  0
  2 34  1  0  0  0  0
  3  4  1  0  0  0  0
  3 21  1  0  0  0  0
  3 35  1  0  0  0  0
  4  5  1  0  0  0  0
  4 36  1  0  0  0  0
  5  6  2  0  0  0  0
  5  7  1  0  0  0  0
  7  8  2  0  0  0  0
  7 19  1  0  0  0  0
  8  9  1  0  0  0  0
  9 10  1  0  0  0  0
  9 17  1  0  0  0  0
 10 11  2  0  0  0  0
 10 15  1  0  0  0  0
 11 12  1  0  0  0  0
 11 37  1  0  0  0  0
 12 13  2  0  0  0  0
 12 38  1  0  0  0  0
 13 14  1  0  0  0  0
 13 39  1  0  0  0  0
 14 15  2  0  0  0  0
 14 40  1  0  0  0  0
 15 16  1  0  0  0  0
 17 18  2  0  0  0  0
 17 41  1  0  0  0  0
 18 19  1  0  0  0  0
 18 42  1  0  0  0  0
 19 20  2  0  0  0  0
 21 22  2  0  0  0  0
 21 30  1  0  0  0  0
 22 23  1  0  0  0  0
 22 43  1  0  0  0  0
 23 24  2  0  0  0  0
 23 44  1  0  0  0  0
 24 25  1  0  0  0  0
 24 29  1  0  0  0  0
 25 26  2  0  0  0  0
 25 45  1  0  0  0  0
 26 27  1  0  0  0  0
 26 46  1  0  0  0  0
 27 28  2  0  0  0  0
 27 47  1  0  0  0  0
 28 29  1  0  0  0  0
 28 48  1  0  0  0  0
 29 30  2  0  0  0  0
 30 49  1  0  0  0  0
M  END
$$$$
