
 OpenBabel01122422473D

 41 44  0  0  0  0  0  0  0  0999 V2000
    2.7846    1.0744    0.0769 O   0  0  0  0  0  0  0  0  0  0  0  0
    2.2207   -0.0152    0.0708 C   0  0  0  0  0  0  0  0  0  0  0  0
    0.9829   -0.2740   -0.4944 N   0  0  0  0  0  0  0  0  0  0  0  0
    0.1784    0.6565   -1.1879 C   0  0  0  0  0  0  0  0  0  0  0  0
    0.6770    1.8763   -1.6562 C   0  0  0  0  0  0  0  0  0  0  0  0
   -0.1651    2.8018   -2.2665 C   0  0  0  0  0  0  0  0  0  0  0  0
   -1.5138    2.4957   -2.4184 C   0  0  0  0  0  0  0  0  0  0  0  0
   -2.4418    3.4726   -3.0083 C   0  0  0  0  0  0  0  0  0  0  0  0
   -2.0742    4.5734   -3.3990 O   0  0  0  0  0  0  0  0  0  0  0  0
   -3.7479    3.0688   -3.0837 N   0  0  0  0  0  0  0  0  0  0  0  0
   -4.1689    1.8413   -2.6627 C   0  0  0  0  0  0  0  0  0  0  0  0
   -3.3976    0.9447   -2.1465 N   0  0  0  0  0  0  0  0  0  0  0  0
   -2.0351    1.2676   -2.0016 C   0  0  0  0  0  0  0  0  0  0  0  0
   -1.1742    0.3439   -1.3963 C   0  0  0  0  0  0  0  0  0  0  0  0
    2.8224   -1.1312    0.7427 C   0  0  0  0  0  0  0  0  0  0  0  0
    2.5127   -2.4703    0.8302 C   0  0  0  0  0  0  0  0  0  0  0  0
    3.4682   -3.0294    1.7210 C   0  0  0  0  0  0  0  0  0  0  0  0
    3.5190   -4.4031    2.2053 C   0  0  0  0  0  0  0  0  0  0  0  0
    3.2030   -5.4258    1.2882 C   0  0  0  0  0  0  0  0  0  0  0  0
    3.2417   -6.7675    1.6629 C   0  0  0  0  0  0  0  0  0  0  0  0
    3.6246   -7.1110    2.9502 C   0  0  0  0  0  0  0  0  0  0  0  0
    3.9276   -6.1089    3.8718 C   0  0  0  0  0  0  0  0  0  0  0  0
    3.8416   -4.7394    3.5326 C   0  0  0  0  0  0  0  0  0  0  0  0
    4.0583   -3.7522    4.6615 C   0  0  0  0  0  0  0  0  0  0  0  0
    3.6473   -2.4717    4.4726 F   0  0  0  0  0  0  0  0  0  0  0  0
    3.3639   -4.1501    5.7775 F   0  0  0  0  0  0  0  0  0  0  0  0
    5.3585   -3.6942    5.0680 F   0  0  0  0  0  0  0  0  0  0  0  0
    4.3929   -2.1208    2.0554 N   0  0  0  0  0  0  0  0  0  0  0  0
    3.9490   -0.9805    1.5042 N   0  0  0  0  0  0  0  0  0  0  0  0
    0.5529   -1.1632   -0.2782 H   0  0  0  0  0  0  0  0  0  0  0  0
    1.7255    2.1409   -1.5641 H   0  0  0  0  0  0  0  0  0  0  0  0
    0.2325    3.7558   -2.6018 H   0  0  0  0  0  0  0  0  0  0  0  0
   -4.3956    3.7360   -3.4785 H   0  0  0  0  0  0  0  0  0  0  0  0
   -5.2473    1.6679   -2.8009 H   0  0  0  0  0  0  0  0  0  0  0  0
   -1.5902   -0.6026   -1.0585 H   0  0  0  0  0  0  0  0  0  0  0  0
    1.6943   -2.9901    0.3543 H   0  0  0  0  0  0  0  0  0  0  0  0
    2.9324   -5.1875    0.2617 H   0  0  0  0  0  0  0  0  0  0  0  0
    2.9761   -7.5408    0.9457 H   0  0  0  0  0  0  0  0  0  0  0  0
    3.6774   -8.1561    3.2456 H   0  0  0  0  0  0  0  0  0  0  0  0
    4.2149   -6.3957    4.8840 H   0  0  0  0  0  0  0  0  0  0  0  0
    4.4464   -0.1129    1.6894 H   0  0  0  0  0  0  0  0  0  0  0  0
  1  2  2  0  0  0  0
  2  3  1  0  0  0  0
  2 15  1  0  0  0  0
  3  4  1  0  0  0  0
  3 30  1  0  0  0  0
  4  5  2  0  0  0  0
  4 14  1  0  0  0  0
  5  6  1  0  0  0  0
  5 31  1  0  0  0  0
  6  7  2  0  0  0  0
  6 32  1  0  0  0  0
  7  8  1  0  0  0  0
  7 13  1  0  0  0  0
  8  9  2  0  0  0  0
  8 10  1  0  0  0  0
 10 11  1  0  0  0  0
 10 33  1  0  0  0  0
 11 12  2  0  0  0  0
 11 34  1  0  0  0  0
 12 13  1  0  0  0  0
 13 14  2  0  0  0  0
 14 35  1  0  0  0  0
 15 16  2  0  0  0  0
 15 29  1  0  0  0  0
 16 17  1  0  0  0  0
 16 36  1  0  0  0  0
 17 18  1  0  0  0  0
 17 28  2  0  0  0  0
 18 19  2  0  0  0  0
 18 23  1  0  0  0  0
 19 20  1  0  0  0  0
 19 37  1  0  0  0  0
 20 21  2  0  0  0  0
 20 38  1  0  0  0  0
 21 22  1  0  0  0  0
 21 39  1  0  0  0  0
 22 23  2  0  0  0  0
 22 40  1  0  0  0  0
 23 24  1  0  0  0  0
 24 25  1  0  0  0  0
 24 26  1  0  0  0  0
 24 27  1  0  0  0  0
 28 29  1  0  0  0  0
 29 41  1  0  0  0  0
M  END
$$$$
