
 OpenBabel01122422473D

 41 44  0  0  0  0  0  0  0  0999 V2000
   -2.8706    1.0104   -0.6078 N   0  0  0  0  0  0  0  0  0  0  0  0
   -1.7346    0.8287   -0.4754 C   0  0  0  0  0  0  0  0  0  0  0  0
   -0.3398    0.5737   -0.3340 C   0  0  0  0  0  0  0  0  0  0  0  0
    0.2051   -0.6260   -0.7879 C   0  0  0  0  0  0  0  0  0  0  0  0
    1.5768   -0.8599   -0.6559 C   0  0  0  0  0  0  0  0  0  0  0  0
    2.4343    0.0994   -0.0821 C   0  0  0  0  0  0  0  0  0  0  0  0
    3.8875   -0.1371    0.0354 C   0  0  0  0  0  0  0  0  0  0  0  0
    4.6332    0.4205    1.0873 C   0  0  0  0  0  0  0  0  0  0  0  0
    6.0016    0.1855    1.2143 C   0  0  0  0  0  0  0  0  0  0  0  0
    6.6526   -0.6441    0.3072 C   0  0  0  0  0  0  0  0  0  0  0  0
    5.9401   -1.2366   -0.7390 C   0  0  0  0  0  0  0  0  0  0  0  0
    6.6005   -2.2121   -1.6790 C   0  0  0  0  0  0  0  0  0  0  0  0
    7.7130   -1.6167   -2.3493 O   0  0  0  0  0  0  0  0  0  0  0  0
    7.3757   -0.8577   -3.4206 C   0  0  0  0  0  0  0  0  0  0  0  0
    6.2423   -0.6786   -3.8419 O   0  0  0  0  0  0  0  0  0  0  0  0
    8.5966   -0.2592   -4.0304 C   0  0  0  0  0  0  0  0  0  0  0  0
    8.3988    0.5777   -5.0746 C   0  0  0  0  0  0  0  0  0  0  0  0
    9.5142    1.1733   -5.7208 C   0  0  0  0  0  0  0  0  0  0  0  0
    9.6236    2.0061   -6.7324 N   0  0  0  0  0  0  0  0  0  0  0  0
   10.9665    2.2375   -6.9436 N   0  0  0  0  0  0  0  0  0  0  0  0
   11.6389    1.5391   -6.0565 C   0  0  0  0  0  0  0  0  0  0  0  0
   10.7766    0.8531   -5.2506 N   0  0  0  0  0  0  0  0  0  0  0  0
   11.0065   -0.0008   -4.1782 C   0  0  0  0  0  0  0  0  0  0  0  0
    9.9526   -0.5572   -3.5540 C   0  0  0  0  0  0  0  0  0  0  0  0
    4.5755   -0.9461   -0.8853 C   0  0  0  0  0  0  0  0  0  0  0  0
    1.8547    1.2927    0.3788 C   0  0  0  0  0  0  0  0  0  0  0  0
    0.4886    1.5219    0.2512 C   0  0  0  0  0  0  0  0  0  0  0  0
   -0.0077    2.6857    0.6943 F   0  0  0  0  0  0  0  0  0  0  0  0
   -0.4240   -1.3838   -1.2515 H   0  0  0  0  0  0  0  0  0  0  0  0
    1.9688   -1.8126   -1.0093 H   0  0  0  0  0  0  0  0  0  0  0  0
    4.1512    1.0363    1.8431 H   0  0  0  0  0  0  0  0  0  0  0  0
    6.5486    0.6319    2.0403 H   0  0  0  0  0  0  0  0  0  0  0  0
    7.7145   -0.8380    0.4322 H   0  0  0  0  0  0  0  0  0  0  0  0
    5.8905   -2.6319   -2.4030 H   0  0  0  0  0  0  0  0  0  0  0  0
    6.9745   -3.0613   -1.0945 H   0  0  0  0  0  0  0  0  0  0  0  0
    7.4084    0.8122   -5.4532 H   0  0  0  0  0  0  0  0  0  0  0  0
   12.7134    1.4953   -5.9598 H   0  0  0  0  0  0  0  0  0  0  0  0
   12.0341   -0.1832   -3.8887 H   0  0  0  0  0  0  0  0  0  0  0  0
   10.0894   -1.2268   -2.7102 H   0  0  0  0  0  0  0  0  0  0  0  0
    4.0474   -1.3665   -1.7408 H   0  0  0  0  0  0  0  0  0  0  0  0
    2.4573    2.0773    0.8275 H   0  0  0  0  0  0  0  0  0  0  0  0
  1  2  3  0  0  0  0
  2  3  1  0  0  0  0
  3  4  2  0  0  0  0
  3 27  1  0  0  0  0
  4  5  1  0  0  0  0
  4 29  1  0  0  0  0
  5  6  2  0  0  0  0
  5 30  1  0  0  0  0
  6  7  1  0  0  0  0
  6 26  1  0  0  0  0
  7  8  2  0  0  0  0
  7 25  1  0  0  0  0
  8  9  1  0  0  0  0
  8 31  1  0  0  0  0
  9 10  2  0  0  0  0
  9 32  1  0  0  0  0
 10 11  1  0  0  0  0
 10 33  1  0  0  0  0
 11 12  1  0  0  0  0
 11 25  2  0  0  0  0
 12 13  1  0  0  0  0
 12 34  1  0  0  0  0
 12 35  1  0  0  0  0
 13 14  1  0  0  0  0
 14 15  2  0  0  0  0
 14 16  1  0  0  0  0
 16 17  2  0  0  0  0
 16 24  1  0  0  0  0
 17 18  1  0  0  0  0
 17 36  1  0  0  0  0
 18 19  2  0  0  0  0
 18 22  1  0  0  0  0
 19 20  1  0  0  0  0
 20 21  2  0  0  0  0
 21 22  1  0  0  0  0
 21 37  1  0  0  0  0
 22 23  1  0  0  0  0
 23 24  2  0  0  0  0
 23 38  1  0  0  0  0
 24 39  1  0  0  0  0
 25 40  1  0  0  0  0
 26 27  2  0  0  0  0
 26 41  1  0  0  0  0
 27 28  1  0  0  0  0
M  END
$$$$
