
 OpenBabel01122422473D

 42 45  0  0  0  0  0  0  0  0999 V2000
    0.8764    0.1434    0.0446 O   0  0  0  0  0  0  0  0  0  0  0  0
    2.1019    0.1210   -0.0165 C   0  0  0  0  0  0  0  0  0  0  0  0
    2.8380   -0.0133   -1.1762 N   0  0  0  0  0  0  0  0  0  0  0  0
    2.2022   -0.1329   -2.4427 C   0  0  0  0  0  0  0  0  0  0  0  0
    1.2110    0.7901   -2.8209 C   0  0  0  0  0  0  0  0  0  0  0  0
    0.9194    1.8401   -2.0385 F   0  0  0  0  0  0  0  0  0  0  0  0
    0.5486    0.6888   -4.0414 C   0  0  0  0  0  0  0  0  0  0  0  0
    0.8767   -0.3373   -4.9185 C   0  0  0  0  0  0  0  0  0  0  0  0
    1.8752   -1.2541   -4.5773 C   0  0  0  0  0  0  0  0  0  0  0  0
    2.5509   -1.1643   -3.3439 C   0  0  0  0  0  0  0  0  0  0  0  0
    3.5140   -2.1651   -2.9990 N   0  0  0  0  0  0  0  0  0  0  0  0
    3.8981   -3.2678   -3.7370 C   0  0  0  0  0  0  0  0  0  0  0  0
    4.7672   -3.9992   -2.9644 C   0  0  0  0  0  0  0  0  0  0  0  0
    4.8939   -3.2607   -1.7824 C   0  0  0  0  0  0  0  0  0  0  0  0
    4.1798   -2.1339   -1.8038 N   0  0  0  0  0  0  0  0  0  0  0  0
    2.9069    0.0827    1.2245 C   0  0  0  0  0  0  0  0  0  0  0  0
    2.3730   -0.4986    2.3008 C   0  0  0  0  0  0  0  0  0  0  0  0
    3.0835   -0.5326    3.5960 C   0  0  0  0  0  0  0  0  0  0  0  0
    2.4860   -1.0794    4.5212 O   0  0  0  0  0  0  0  0  0  0  0  0
    4.3323    0.0976    3.6315 N   0  0  0  0  0  0  0  0  0  0  0  0
    5.1117    0.2006    4.8369 C   0  0  0  0  0  0  0  0  0  0  0  0
    4.9262   -0.6728    5.9207 C   0  0  0  0  0  0  0  0  0  0  0  0
    5.6393   -0.5213    7.1151 C   0  0  0  0  0  0  0  0  0  0  0  0
    6.5585    0.5121    7.2506 C   0  0  0  0  0  0  0  0  0  0  0  0
    6.7849    1.3728    6.1809 C   0  0  0  0  0  0  0  0  0  0  0  0
    6.0802    1.2089    4.9799 C   0  0  0  0  0  0  0  0  0  0  0  0
    4.8932    0.7238    2.5261 N   0  0  0  0  0  0  0  0  0  0  0  0
    4.2253    0.6923    1.4166 C   0  0  0  0  0  0  0  0  0  0  0  0
    3.6913   -0.5713   -1.0860 H   0  0  0  0  0  0  0  0  0  0  0  0
   -0.2155    1.4169   -4.2964 H   0  0  0  0  0  0  0  0  0  0  0  0
    0.3564   -0.4257   -5.8699 H   0  0  0  0  0  0  0  0  0  0  0  0
    2.0851   -2.0392   -5.2978 H   0  0  0  0  0  0  0  0  0  0  0  0
    3.5152   -3.4658   -4.7256 H   0  0  0  0  0  0  0  0  0  0  0  0
    5.2376   -4.9373   -3.2227 H   0  0  0  0  0  0  0  0  0  0  0  0
    5.4840   -3.4954   -0.9049 H   0  0  0  0  0  0  0  0  0  0  0  0
    1.3904   -0.9563    2.2904 H   0  0  0  0  0  0  0  0  0  0  0  0
    4.2360   -1.5091    5.8612 H   0  0  0  0  0  0  0  0  0  0  0  0
    5.4637   -1.2115    7.9365 H   0  0  0  0  0  0  0  0  0  0  0  0
    7.0945    0.6440    8.1859 H   0  0  0  0  0  0  0  0  0  0  0  0
    7.5007    2.1848    6.2815 H   0  0  0  0  0  0  0  0  0  0  0  0
    6.2660    1.9122    4.1723 H   0  0  0  0  0  0  0  0  0  0  0  0
    4.6630    1.1828    0.5329 H   0  0  0  0  0  0  0  0  0  0  0  0
  1  2  2  0  0  0  0
  2  3  1  0  0  0  0
  2 16  1  0  0  0  0
  3  4  1  0  0  0  0
  3 29  1  0  0  0  0
  4  5  2  0  0  0  0
  4 10  1  0  0  0  0
  5  6  1  0  0  0  0
  5  7  1  0  0  0  0
  7  8  2  0  0  0  0
  7 30  1  0  0  0  0
  8  9  1  0  0  0  0
  8 31  1  0  0  0  0
  9 10  2  0  0  0  0
  9 32  1  0  0  0  0
 10 11  1  0  0  0  0
 11 12  1  0  0  0  0
 11 15  1  0  0  0  0
 12 13  2  0  0  0  0
 12 33  1  0  0  0  0
 13 14  1  0  0  0  0
 13 34  1  0  0  0  0
 14 15  2  0  0  0  0
 14 35  1  0  0  0  0
 16 17  2  0  0  0  0
 16 28  1  0  0  0  0
 17 18  1  0  0  0  0
 17 36  1  0  0  0  0
 18 19  2  0  0  0  0
 18 20  1  0  0  0  0
 20 21  1  0  0  0  0
 20 27  1  0  0  0  0
 21 22  2  0  0  0  0
 21 26  1  0  0  0  0
 22 23  1  0  0  0  0
 22 37  1  0  0  0  0
 23 24  2  0  0  0  0
 23 38  1  0  0  0  0
 24 25  1  0  0  0  0
 24 39  1  0  0  0  0
 25 26  2  0  0  0  0
 25 40  1  0  0  0  0
 26 41  1  0  0  0  0
 27 28  2  0  0  0  0
 28 42  1  0  0  0  0
M  END
$$$$
