
 OpenBabel01122422473D

 47 50  0  0  0  0  0  0  0  0999 V2000
    7.0900    2.5465   -4.3908 N   0  0  0  0  0  0  0  0  0  0  0  0
    6.0942    1.9208   -3.9359 C   0  0  0  0  0  0  0  0  0  0  0  0
    4.8938    1.1665   -3.3877 C   0  0  0  0  0  0  0  0  0  0  0  0
    5.1203   -0.3192   -3.4370 C   0  0  0  0  0  0  0  0  0  0  0  0
    5.7388   -0.9731   -2.3646 C   0  0  0  0  0  0  0  0  0  0  0  0
    5.9948   -2.3436   -2.4244 C   0  0  0  0  0  0  0  0  0  0  0  0
    5.6405   -3.0755   -3.5581 C   0  0  0  0  0  0  0  0  0  0  0  0
    5.8296   -4.4171   -3.7366 O   0  0  0  0  0  0  0  0  0  0  0  0
    6.4507   -5.1124   -2.6616 C   0  0  0  0  0  0  0  0  0  0  0  0
    6.6781   -6.5362   -3.0876 C   0  0  0  0  0  0  0  0  0  0  0  0
    7.8673   -6.8545   -3.7555 C   0  0  0  0  0  0  0  0  0  0  0  0
    8.1479   -8.1606   -4.1425 C   0  0  0  0  0  0  0  0  0  0  0  0
    9.3464   -8.5286   -4.7781 N   0  0  0  0  0  0  0  0  0  0  0  0
   10.4154   -7.7159   -5.1090 C   0  0  0  0  0  0  0  0  0  0  0  0
   10.4842   -6.5046   -4.9221 O   0  0  0  0  0  0  0  0  0  0  0  0
   11.5987   -8.3771   -5.7381 C   0  0  0  0  0  0  0  0  0  0  0  0
   12.6667   -7.5418   -6.0859 C   0  0  0  0  0  0  0  0  0  0  0  0
   13.7829   -8.1153   -6.6359 C   0  0  0  0  0  0  0  0  0  0  0  0
   13.8931   -9.4384   -6.8526 N   0  0  0  0  0  0  0  0  0  0  0  0
   12.8733  -10.2365   -6.5247 C   0  0  0  0  0  0  0  0  0  0  0  0
   13.0308  -11.5449   -6.7504 N   0  0  0  0  0  0  0  0  0  0  0  0
   12.0174  -12.3754   -6.4242 C   0  0  0  0  0  0  0  0  0  0  0  0
   10.8421  -11.9193   -5.8813 C   0  0  0  0  0  0  0  0  0  0  0  0
   10.6458  -10.6105   -5.6376 N   0  0  0  0  0  0  0  0  0  0  0  0
   11.6690   -9.7575   -5.9558 C   0  0  0  0  0  0  0  0  0  0  0  0
    7.2062   -9.1614   -3.8782 C   0  0  0  0  0  0  0  0  0  0  0  0
    5.9992   -8.8503   -3.2441 C   0  0  0  0  0  0  0  0  0  0  0  0
    5.7338   -7.5389   -2.8520 C   0  0  0  0  0  0  0  0  0  0  0  0
    5.0367   -2.4238   -4.6339 C   0  0  0  0  0  0  0  0  0  0  0  0
    4.7768   -1.0547   -4.5781 C   0  0  0  0  0  0  0  0  0  0  0  0
    4.0030    1.4330   -3.9688 H   0  0  0  0  0  0  0  0  0  0  0  0
    4.7026    1.4884   -2.3572 H   0  0  0  0  0  0  0  0  0  0  0  0
    6.0387   -0.4210   -1.4759 H   0  0  0  0  0  0  0  0  0  0  0  0
    6.4814   -2.8026   -1.5704 H   0  0  0  0  0  0  0  0  0  0  0  0
    5.8167   -5.0902   -1.7674 H   0  0  0  0  0  0  0  0  0  0  0  0
    7.4232   -4.6639   -2.4169 H   0  0  0  0  0  0  0  0  0  0  0  0
    8.5634   -6.0471   -3.9569 H   0  0  0  0  0  0  0  0  0  0  0  0
    9.4494   -9.5193   -4.9997 H   0  0  0  0  0  0  0  0  0  0  0  0
   12.6283   -6.4672   -5.9235 H   0  0  0  0  0  0  0  0  0  0  0  0
   14.6452   -7.5184   -6.9211 H   0  0  0  0  0  0  0  0  0  0  0  0
   12.1860  -13.4290   -6.6151 H   0  0  0  0  0  0  0  0  0  0  0  0
   10.0268  -12.5869   -5.6259 H   0  0  0  0  0  0  0  0  0  0  0  0
    7.3964  -10.1925   -4.1640 H   0  0  0  0  0  0  0  0  0  0  0  0
    5.2674   -9.6310   -3.0538 H   0  0  0  0  0  0  0  0  0  0  0  0
    4.7916   -7.3022   -2.3638 H   0  0  0  0  0  0  0  0  0  0  0  0
    4.7754   -2.9881   -5.5264 H   0  0  0  0  0  0  0  0  0  0  0  0
    4.3162   -0.5708   -5.4368 H   0  0  0  0  0  0  0  0  0  0  0  0
  1  2  3  0  0  0  0
  2  3  1  0  0  0  0
  3  4  1  0  0  0  0
  3 31  1  0  0  0  0
  3 32  1  0  0  0  0
  4  5  2  0  0  0  0
  4 30  1  0  0  0  0
  5  6  1  0  0  0  0
  5 33  1  0  0  0  0
  6  7  2  0  0  0  0
  6 34  1  0  0  0  0
  7  8  1  0  0  0  0
  7 29  1  0  0  0  0
  8  9  1  0  0  0  0
  9 10  1  0  0  0  0
  9 35  1  0  0  0  0
  9 36  1  0  0  0  0
 10 11  2  0  0  0  0
 10 28  1  0  0  0  0
 11 12  1  0  0  0  0
 11 37  1  0  0  0  0
 12 13  1  0  0  0  0
 12 26  2  0  0  0  0
 13 14  1  0  0  0  0
 13 38  1  0  0  0  0
 14 15  2  0  0  0  0
 14 16  1  0  0  0  0
 16 17  2  0  0  0  0
 16 25  1  0  0  0  0
 17 18  1  0  0  0  0
 17 39  1  0  0  0  0
 18 19  2  0  0  0  0
 18 40  1  0  0  0  0
 19 20  1  0  0  0  0
 20 21  2  0  0  0  0
 20 25  1  0  0  0  0
 21 22  1  0  0  0  0
 22 23  2  0  0  0  0
 22 41  1  0  0  0  0
 23 24  1  0  0  0  0
 23 42  1  0  0  0  0
 24 25  2  0  0  0  0
 26 27  1  0  0  0  0
 26 43  1  0  0  0  0
 27 28  2  0  0  0  0
 27 44  1  0  0  0  0
 28 45  1  0  0  0  0
 29 30  2  0  0  0  0
 29 46  1  0  0  0  0
 30 47  1  0  0  0  0
M  END
$$$$
