
 OpenBabel01122422473D

 47 50  0  0  0  0  0  0  0  0999 V2000
    2.0613   -1.7388    1.0577 O   0  0  0  0  0  0  0  0  0  0  0  0
    2.8057   -0.8859    0.5849 C   0  0  0  0  0  0  0  0  0  0  0  0
    3.0120    0.3383    1.1747 N   0  0  0  0  0  0  0  0  0  0  0  0
    2.3142    0.7387    2.3737 C   0  0  0  0  0  0  0  0  0  0  0  0
    3.2673    1.0837    3.4892 C   0  0  0  0  0  0  0  0  0  0  0  0
    3.2600    2.3608    4.0660 C   0  0  0  0  0  0  0  0  0  0  0  0
    4.0941    2.6569    5.1486 C   0  0  0  0  0  0  0  0  0  0  0  0
    4.9475    1.6794    5.6727 C   0  0  0  0  0  0  0  0  0  0  0  0
    5.8181    1.9879    6.8178 C   0  0  0  0  0  0  0  0  0  0  0  0
    5.3437    1.7919    8.0642 C   0  0  0  0  0  0  0  0  0  0  0  0
    6.1211    2.0619    9.1644 N   0  0  0  0  0  0  0  0  0  0  0  0
    7.4085    2.5386    9.0999 C   0  0  0  0  0  0  0  0  0  0  0  0
    8.0839    2.7716   10.0935 O   0  0  0  0  0  0  0  0  0  0  0  0
    7.9428    2.7603    7.7330 C   0  0  0  0  0  0  0  0  0  0  0  0
    7.1743    2.4933    6.6668 C   0  0  0  0  0  0  0  0  0  0  0  0
    4.9695    0.4072    5.0910 C   0  0  0  0  0  0  0  0  0  0  0  0
    4.1356    0.1120    4.0085 C   0  0  0  0  0  0  0  0  0  0  0  0
    3.5213   -1.1657   -0.6884 C   0  0  0  0  0  0  0  0  0  0  0  0
    3.2894   -2.3896   -1.3261 C   0  0  0  0  0  0  0  0  0  0  0  0
    3.9313   -2.6979   -2.5321 C   0  0  0  0  0  0  0  0  0  0  0  0
    4.8335   -1.8019   -3.1347 C   0  0  0  0  0  0  0  0  0  0  0  0
    5.5358   -2.1399   -4.3855 C   0  0  0  0  0  0  0  0  0  0  0  0
    5.9171   -1.2010   -5.3335 C   0  0  0  0  0  0  0  0  0  0  0  0
    6.5836   -1.4786   -6.4761 N   0  0  0  0  0  0  0  0  0  0  0  0
    6.8737   -2.7698   -6.6791 C   0  0  0  0  0  0  0  0  0  0  0  0
    6.5609   -3.7797   -5.8576 N   0  0  0  0  0  0  0  0  0  0  0  0
    5.9018   -3.4335   -4.7299 C   0  0  0  0  0  0  0  0  0  0  0  0
    5.0503   -0.5763   -2.4814 C   0  0  0  0  0  0  0  0  0  0  0  0
    4.4036   -0.2680   -1.2823 C   0  0  0  0  0  0  0  0  0  0  0  0
    4.6672    0.9226   -0.7212 F   0  0  0  0  0  0  0  0  0  0  0  0
    3.6393    1.0105    0.7484 H   0  0  0  0  0  0  0  0  0  0  0  0
    1.6265   -0.0426    2.7141 H   0  0  0  0  0  0  0  0  0  0  0  0
    1.7080    1.6090    2.0992 H   0  0  0  0  0  0  0  0  0  0  0  0
    2.5938    3.1326    3.6865 H   0  0  0  0  0  0  0  0  0  0  0  0
    4.0647    3.6522    5.5868 H   0  0  0  0  0  0  0  0  0  0  0  0
    4.3452    1.4172    8.2646 H   0  0  0  0  0  0  0  0  0  0  0  0
    5.7547    1.9087   10.0971 H   0  0  0  0  0  0  0  0  0  0  0  0
    8.9550    3.1343    7.6548 H   0  0  0  0  0  0  0  0  0  0  0  0
    7.5515    2.6503    5.6609 H   0  0  0  0  0  0  0  0  0  0  0  0
    5.6259   -0.3662    5.4837 H   0  0  0  0  0  0  0  0  0  0  0  0
    4.1530   -0.8880    3.5777 H   0  0  0  0  0  0  0  0  0  0  0  0
    2.6027   -3.1143   -0.8895 H   0  0  0  0  0  0  0  0  0  0  0  0
    3.7002   -3.6571   -2.9944 H   0  0  0  0  0  0  0  0  0  0  0  0
    5.6884   -0.1450   -5.2121 H   0  0  0  0  0  0  0  0  0  0  0  0
    7.4098   -3.0200   -7.5873 H   0  0  0  0  0  0  0  0  0  0  0  0
    5.6845   -4.2768   -4.0791 H   0  0  0  0  0  0  0  0  0  0  0  0
    5.7424    0.1626   -2.8783 H   0  0  0  0  0  0  0  0  0  0  0  0
  1  2  2  0  0  0  0
  2  3  1  0  0  0  0
  2 18  1  0  0  0  0
  3  4  1  0  0  0  0
  3 31  1  0  0  0  0
  4  5  1  0  0  0  0
  4 32  1  0  0  0  0
  4 33  1  0  0  0  0
  5  6  2  0  0  0  0
  5 17  1  0  0  0  0
  6  7  1  0  0  0  0
  6 34  1  0  0  0  0
  7  8  2  0  0  0  0
  7 35  1  0  0  0  0
  8  9  1  0  0  0  0
  8 16  1  0  0  0  0
  9 10  2  0  0  0  0
  9 15  1  0  0  0  0
 10 11  1  0  0  0  0
 10 36  1  0  0  0  0
 11 12  1  0  0  0  0
 11 37  1  0  0  0  0
 12 13  2  0  0  0  0
 12 14  1  0  0  0  0
 14 15  2  0  0  0  0
 14 38  1  0  0  0  0
 15 39  1  0  0  0  0
 16 17  2  0  0  0  0
 16 40  1  0  0  0  0
 17 41  1  0  0  0  0
 18 19  2  0  0  0  0
 18 29  1  0  0  0  0
 19 20  1  0  0  0  0
 19 42  1  0  0  0  0
 20 21  2  0  0  0  0
 20 43  1  0  0  0  0
 21 22  1  0  0  0  0
 21 28  1  0  0  0  0
 22 23  2  0  0  0  0
 22 27  1  0  0  0  0
 23 24  1  0  0  0  0
 23 44  1  0  0  0  0
 24 25  2  0  0  0  0
 25 26  1  0  0  0  0
 25 45  1  0  0  0  0
 26 27  2  0  0  0  0
 27 46  1  0  0  0  0
 28 29  2  0  0  0  0
 28 47  1  0  0  0  0
 29 30  1  0  0  0  0
M  END
$$$$
