
 OpenBabel01122422473D

 56 59  0  0  1  0  0  0  0  0999 V2000
    1.3807    1.3612    0.5854 C   0  0  0  0  0  0  0  0  0  0  0  0
    2.7682    1.2964    0.2570 O   0  0  0  0  0  0  0  0  0  0  0  0
    3.0329    1.1389   -1.0782 C   0  0  0  0  0  0  0  0  0  0  0  0
    2.1882    1.5640   -2.1033 C   0  0  0  0  0  0  0  0  0  0  0  0
    2.5088    1.2928   -3.4315 C   0  0  0  0  0  0  0  0  0  0  0  0
    3.7043    0.6534   -3.7452 C   0  0  0  0  0  0  0  0  0  0  0  0
    4.6230    0.3347   -2.7379 C   0  0  0  0  0  0  0  0  0  0  0  0
    6.0048   -0.1662   -3.1081 C   0  0  0  0  0  0  0  0  0  0  0  0
    6.7836    0.8356   -4.0099 C   0  0  3  0  0  0  0  0  0  0  0  0
    6.9404    2.1274   -3.3454 N   0  0  0  0  0  0  0  0  0  0  0  0
    7.0723    3.3262   -4.0122 C   0  0  0  0  0  0  0  0  0  0  0  0
    6.9595    3.4891   -5.2157 O   0  0  0  0  0  0  0  0  0  0  0  0
    7.4771    4.4548   -3.1164 C   0  0  0  0  0  0  0  0  0  0  0  0
    6.9673    4.5157   -1.8119 C   0  0  0  0  0  0  0  0  0  0  0  0
    7.5522    5.3599   -0.8763 C   0  0  0  0  0  0  0  0  0  0  0  0
    8.6336    6.1574   -1.2466 C   0  0  0  0  0  0  0  0  0  0  0  0
    9.0698    6.1888   -2.5800 C   0  0  0  0  0  0  0  0  0  0  0  0
   10.1868    7.0084   -2.9034 N   0  0  0  0  0  0  0  0  0  0  0  0
   11.1670    7.1842   -1.9697 N   0  0  0  0  0  0  0  0  0  0  0  0
   12.1248    7.8494   -2.6148 C   0  0  0  0  0  0  0  0  0  0  0  0
   11.7342    8.2361   -3.9085 C   0  0  0  0  0  0  0  0  0  0  0  0
   12.4783    9.0472   -4.8139 C   0  0  0  0  0  0  0  0  0  0  0  0
   13.0847    9.7307   -5.5300 N   0  0  0  0  0  0  0  0  0  0  0  0
   10.4625    7.7227   -4.0757 C   0  0  0  0  0  0  0  0  0  0  0  0
    9.5771    7.8989   -5.0941 N   0  0  0  0  0  0  0  0  0  0  0  0
    8.4728    5.3521   -3.5379 C   0  0  0  0  0  0  0  0  0  0  0  0
    8.1549    0.2932   -4.3944 C   0  0  0  0  0  0  0  0  0  0  0  0
    8.4944    0.1608   -5.7499 C   0  0  0  0  0  0  0  0  0  0  0  0
    9.7614   -0.2869   -6.1283 C   0  0  0  0  0  0  0  0  0  0  0  0
   10.7080   -0.6053   -5.1579 C   0  0  0  0  0  0  0  0  0  0  0  0
   10.3863   -0.4843   -3.8082 C   0  0  0  0  0  0  0  0  0  0  0  0
    9.1190   -0.0378   -3.4273 C   0  0  0  0  0  0  0  0  0  0  0  0
    4.2589    0.5455   -1.3975 C   0  0  0  0  0  0  0  0  0  0  0  0
    1.2836    1.2947    1.6729 H   0  0  0  0  0  0  0  0  0  0  0  0
    0.8285    0.5208    0.1484 H   0  0  0  0  0  0  0  0  0  0  0  0
    0.9471    2.3173    0.2746 H   0  0  0  0  0  0  0  0  0  0  0  0
    1.2769    2.1149   -1.8994 H   0  0  0  0  0  0  0  0  0  0  0  0
    1.8351    1.6001   -4.2264 H   0  0  0  0  0  0  0  0  0  0  0  0
    3.9331    0.4486   -4.7884 H   0  0  0  0  0  0  0  0  0  0  0  0
    5.9057   -1.1369   -3.6115 H   0  0  0  0  0  0  0  0  0  0  0  0
    6.5683   -0.3586   -2.1845 H   0  0  0  0  0  0  0  0  0  0  0  0
    6.2111    1.0109   -4.9282 H   0  0  0  0  0  0  0  0  0  0  0  0
    7.2221    2.0875   -2.3778 H   0  0  0  0  0  0  0  0  0  0  0  0
    6.1420    3.8744   -1.5094 H   0  0  0  0  0  0  0  0  0  0  0  0
    7.1932    5.3695    0.1532 H   0  0  0  0  0  0  0  0  0  0  0  0
    9.1170    6.7735   -0.4885 H   0  0  0  0  0  0  0  0  0  0  0  0
   13.0543    8.0552   -2.0979 H   0  0  0  0  0  0  0  0  0  0  0  0
    9.7381    8.6264   -5.7926 H   0  0  0  0  0  0  0  0  0  0  0  0
    8.5807    7.7291   -4.9552 H   0  0  0  0  0  0  0  0  0  0  0  0
    8.8494    5.2933   -4.5568 H   0  0  0  0  0  0  0  0  0  0  0  0
    7.7776    0.4286   -6.5243 H   0  0  0  0  0  0  0  0  0  0  0  0
   10.0126   -0.3727   -7.1823 H   0  0  0  0  0  0  0  0  0  0  0  0
   11.6992   -0.9382   -5.4541 H   0  0  0  0  0  0  0  0  0  0  0  0
   11.1274   -0.7269   -3.0511 H   0  0  0  0  0  0  0  0  0  0  0  0
    8.9004    0.0648   -2.3676 H   0  0  0  0  0  0  0  0  0  0  0  0
    4.9287    0.2566   -0.5903 H   0  0  0  0  0  0  0  0  0  0  0  0
  1  2  1  0  0  0  0
  1 34  1  0  0  0  0
  1 35  1  0  0  0  0
  1 36  1  0  0  0  0
  2  3  1  0  0  0  0
  3  4  2  0  0  0  0
  3 33  1  0  0  0  0
  4  5  1  0  0  0  0
  4 37  1  0  0  0  0
  5  6  2  0  0  0  0
  5 38  1  0  0  0  0
  6  7  1  0  0  0  0
  6 39  1  0  0  0  0
  7  8  1  0  0  0  0
  7 33  2  0  0  0  0
  8  9  1  0  0  0  0
  8 40  1  0  0  0  0
  8 41  1  0  0  0  0
  9 10  1  0  0  0  0
  9 27  1  0  0  0  0
  9 42  1  0  0  0  0
 10 11  1  0  0  0  0
 10 43  1  0  0  0  0
 11 12  2  0  0  0  0
 11 13  1  0  0  0  0
 13 14  2  0  0  0  0
 13 26  1  0  0  0  0
 14 15  1  0  0  0  0
 14 44  1  0  0  0  0
 15 16  2  0  0  0  0
 15 45  1  0  0  0  0
 16 17  1  0  0  0  0
 16 46  1  0  0  0  0
 17 18  1  0  0  0  0
 17 26  2  0  0  0  0
 18 19  1  0  0  0  0
 18 24  1  0  0  0  0
 19 20  2  0  0  0  0
 20 21  1  0  0  0  0
 20 47  1  0  0  0  0
 21 22  1  0  0  0  0
 21 24  2  0  0  0  0
 22 23  3  0  0  0  0
 24 25  1  0  0  0  0
 25 48  1  0  0  0  0
 25 49  1  0  0  0  0
 26 50  1  0  0  0  0
 27 28  2  0  0  0  0
 27 32  1  0  0  0  0
 28 29  1  0  0  0  0
 28 51  1  0  0  0  0
 29 30  2  0  0  0  0
 29 52  1  0  0  0  0
 30 31  1  0  0  0  0
 30 53  1  0  0  0  0
 31 32  2  0  0  0  0
 31 54  1  0  0  0  0
 32 55  1  0  0  0  0
 33 56  1  0  0  0  0
M  END
$$$$
