
 OpenBabel01122422473D

 56 59  0  0  0  0  0  0  0  0999 V2000
   10.4752    6.1516    3.0362 C   0  0  0  0  0  0  0  0  0  0  0  0
    9.9832    5.0069    2.2893 N   0  0  0  0  0  0  0  0  0  0  0  0
    8.6738    4.9947    1.8359 C   0  0  0  0  0  0  0  0  0  0  0  0
    7.8733    5.9103    2.0202 O   0  0  0  0  0  0  0  0  0  0  0  0
    8.2584    3.8709    1.1612 N   0  0  0  0  0  0  0  0  0  0  0  0
    9.0194    2.7061    1.0423 C   0  0  0  0  0  0  0  0  0  0  0  0
    8.4721    1.5177    0.5000 C   0  0  0  0  0  0  0  0  0  0  0  0
    9.1733    0.3050    0.6113 C   0  0  0  0  0  0  0  0  0  0  0  0
    8.6318   -1.0211    0.1313 C   0  0  0  0  0  0  0  0  0  0  0  0
    7.4121   -1.0577   -0.0639 O   0  0  0  0  0  0  0  0  0  0  0  0
    9.4296   -2.1684   -0.1429 N   0  0  0  0  0  0  0  0  0  0  0  0
    8.6934   -3.4064   -0.4895 C   0  0  0  0  0  0  0  0  0  0  0  0
    8.1742   -3.6103   -1.9185 C   0  0  0  0  0  0  0  0  0  0  0  0
    7.7628   -2.5076   -2.6014 N   0  0  0  0  0  0  0  0  0  0  0  0
    8.0025   -4.7295   -2.4013 O   0  0  0  0  0  0  0  0  0  0  0  0
   10.9181   -2.3257   -0.0858 C   0  0  0  0  0  0  0  0  0  0  0  0
   11.4157   -2.9458    1.2297 C   0  0  0  0  0  0  0  0  0  0  0  0
   11.1293   -4.2661    1.5912 C   0  0  0  0  0  0  0  0  0  0  0  0
   11.2846   -4.6992    2.9117 C   0  0  0  0  0  0  0  0  0  0  0  0
   11.7172   -3.8118    3.8967 C   0  0  0  0  0  0  0  0  0  0  0  0
   12.1373   -2.5379    3.5376 C   0  0  0  0  0  0  0  0  0  0  0  0
   12.4643   -1.6946    4.5851 O   0  0  0  0  0  0  0  0  0  0  0  0
   13.2407   -0.5850    4.3456 C   0  0  0  0  0  0  0  0  0  0  0  0
   12.8795    0.6211    4.9505 C   0  0  0  0  0  0  0  0  0  0  0  0
   13.6339    1.7730    4.6998 C   0  0  0  0  0  0  0  0  0  0  0  0
   14.7365    1.7124    3.8451 C   0  0  0  0  0  0  0  0  0  0  0  0
   15.1191    0.4986    3.2857 C   0  0  0  0  0  0  0  0  0  0  0  0
   14.3943   -0.6557    3.5641 C   0  0  0  0  0  0  0  0  0  0  0  0
   12.0849   -2.1640    2.1882 C   0  0  0  0  0  0  0  0  0  0  0  0
   10.3366    0.3595    1.3502 C   0  0  0  0  0  0  0  0  0  0  0  0
   10.9862    1.5299    1.7179 C   0  0  0  0  0  0  0  0  0  0  0  0
   10.3040    2.7155    1.5724 C   0  0  0  0  0  0  0  0  0  0  0  0
   10.8581    3.9442    2.1602 C   0  0  0  0  0  0  0  0  0  0  0  0
   12.0422    3.9716    2.5229 O   0  0  0  0  0  0  0  0  0  0  0  0
    9.7691    6.9844    3.0445 H   0  0  0  0  0  0  0  0  0  0  0  0
   11.4279    6.4872    2.6123 H   0  0  0  0  0  0  0  0  0  0  0  0
   10.6625    5.8319    4.0684 H   0  0  0  0  0  0  0  0  0  0  0  0
    7.2858    3.8762    0.8825 H   0  0  0  0  0  0  0  0  0  0  0  0
    7.4747    1.5175    0.0669 H   0  0  0  0  0  0  0  0  0  0  0  0
    7.8502   -3.5267    0.1997 H   0  0  0  0  0  0  0  0  0  0  0  0
    9.3551   -4.2596   -0.3428 H   0  0  0  0  0  0  0  0  0  0  0  0
    7.4649   -1.7115   -2.0447 H   0  0  0  0  0  0  0  0  0  0  0  0
    7.2300   -2.7045   -3.4394 H   0  0  0  0  0  0  0  0  0  0  0  0
   11.3863   -1.3529   -0.2634 H   0  0  0  0  0  0  0  0  0  0  0  0
   11.2298   -2.9589   -0.9255 H   0  0  0  0  0  0  0  0  0  0  0  0
   10.7540   -4.9822    0.8671 H   0  0  0  0  0  0  0  0  0  0  0  0
   11.0132   -5.7162    3.1828 H   0  0  0  0  0  0  0  0  0  0  0  0
   11.7381   -4.1178    4.9373 H   0  0  0  0  0  0  0  0  0  0  0  0
   12.0114    0.6747    5.6056 H   0  0  0  0  0  0  0  0  0  0  0  0
   13.3494    2.7243    5.1445 H   0  0  0  0  0  0  0  0  0  0  0  0
   15.2928    2.6177    3.6173 H   0  0  0  0  0  0  0  0  0  0  0  0
   15.9814    0.4451    2.6273 H   0  0  0  0  0  0  0  0  0  0  0  0
   14.7086   -1.6033    3.1417 H   0  0  0  0  0  0  0  0  0  0  0  0
   12.4741   -1.1941    1.8902 H   0  0  0  0  0  0  0  0  0  0  0  0
   10.6743   -0.5516    1.7744 H   0  0  0  0  0  0  0  0  0  0  0  0
   11.9491    1.4951    2.2186 H   0  0  0  0  0  0  0  0  0  0  0  0
  1  2  1  0  0  0  0
  1 35  1  0  0  0  0
  1 36  1  0  0  0  0
  1 37  1  0  0  0  0
  2  3  1  0  0  0  0
  2 33  1  0  0  0  0
  3  4  2  0  0  0  0
  3  5  1  0  0  0  0
  5  6  1  0  0  0  0
  5 38  1  0  0  0  0
  6  7  2  0  0  0  0
  6 32  1  0  0  0  0
  7  8  1  0  0  0  0
  7 39  1  0  0  0  0
  8  9  1  0  0  0  0
  8 30  2  0  0  0  0
  9 10  2  0  0  0  0
  9 11  1  0  0  0  0
 11 12  1  0  0  0  0
 11 16  1  0  0  0  0
 12 13  1  0  0  0  0
 12 40  1  0  0  0  0
 12 41  1  0  0  0  0
 13 14  1  0  0  0  0
 13 15  2  0  0  0  0
 14 42  1  0  0  0  0
 14 43  1  0  0  0  0
 16 17  1  0  0  0  0
 16 44  1  0  0  0  0
 16 45  1  0  0  0  0
 17 18  2  0  0  0  0
 17 29  1  0  0  0  0
 18 19  1  0  0  0  0
 18 46  1  0  0  0  0
 19 20  2  0  0  0  0
 19 47  1  0  0  0  0
 20 21  1  0  0  0  0
 20 48  1  0  0  0  0
 21 22  1  0  0  0  0
 21 29  2  0  0  0  0
 22 23  1  0  0  0  0
 23 24  2  0  0  0  0
 23 28  1  0  0  0  0
 24 25  1  0  0  0  0
 24 49  1  0  0  0  0
 25 26  2  0  0  0  0
 25 50  1  0  0  0  0
 26 27  1  0  0  0  0
 26 51  1  0  0  0  0
 27 28  2  0  0  0  0
 27 52  1  0  0  0  0
 28 53  1  0  0  0  0
 29 54  1  0  0  0  0
 30 31  1  0  0  0  0
 30 55  1  0  0  0  0
 31 32  2  0  0  0  0
 31 56  1  0  0  0  0
 32 33  1  0  0  0  0
 33 34  2  0  0  0  0
M  END
$$$$
