
 OpenBabel01122422473D

 44 47  0  0  0  0  0  0  0  0999 V2000
    1.0393   -0.0828    0.6778 O   0  0  0  0  0  0  0  0  0  0  0  0
    2.1748    0.0609    0.2544 C   0  0  0  0  0  0  0  0  0  0  0  0
    2.7539    1.2786   -0.0922 N   0  0  0  0  0  0  0  0  0  0  0  0
    2.1045    2.4930   -0.1279 C   0  0  0  0  0  0  0  0  0  0  0  0
    0.9527    2.7538    0.5107 C   0  0  0  0  0  0  0  0  0  0  0  0
    0.2532    3.9466    0.3646 N   0  0  0  0  0  0  0  0  0  0  0  0
   -1.0369    4.0907    0.9713 C   0  0  0  0  0  0  0  0  0  0  0  0
   -1.9400    3.0136    0.9698 C   0  0  0  0  0  0  0  0  0  0  0  0
   -3.2153    3.1519    1.5171 C   0  0  0  0  0  0  0  0  0  0  0  0
   -3.5900    4.3560    2.1071 C   0  0  0  0  0  0  0  0  0  0  0  0
   -2.6913    5.4209    2.1464 C   0  0  0  0  0  0  0  0  0  0  0  0
   -1.4250    5.2938    1.5703 C   0  0  0  0  0  0  0  0  0  0  0  0
    0.7344    4.9643   -0.4763 C   0  0  0  0  0  0  0  0  0  0  0  0
    0.1729    6.0231   -0.7505 O   0  0  0  0  0  0  0  0  0  0  0  0
    2.0434    4.6916   -1.1371 C   0  0  0  0  0  0  0  0  0  0  0  0
    2.6827    3.5299   -0.9529 C   0  0  0  0  0  0  0  0  0  0  0  0
    3.0342   -1.0654    0.0144 C   0  0  0  0  0  0  0  0  0  0  0  0
    4.3575   -1.2426    0.3797 C   0  0  0  0  0  0  0  0  0  0  0  0
    4.5991   -2.5858    0.1088 C   0  0  0  0  0  0  0  0  0  0  0  0
    5.7150   -3.2918    0.2984 O   0  0  0  0  0  0  0  0  0  0  0  0
    3.5576   -3.2372   -0.3745 N   0  0  0  0  0  0  0  0  0  0  0  0
    2.6199   -2.2654   -0.5559 N   0  0  0  0  0  0  0  0  0  0  0  0
    1.4674   -2.5541   -1.3340 C   0  0  0  0  0  0  0  0  0  0  0  0
    0.9907   -3.8726   -1.4016 C   0  0  0  0  0  0  0  0  0  0  0  0
   -0.1165   -4.1796   -2.1994 C   0  0  0  0  0  0  0  0  0  0  0  0
   -0.7431   -3.1806   -2.9456 C   0  0  0  0  0  0  0  0  0  0  0  0
   -0.2598   -1.8749   -2.8980 C   0  0  0  0  0  0  0  0  0  0  0  0
    0.8425   -1.5697   -2.1025 C   0  0  0  0  0  0  0  0  0  0  0  0
    1.3438   -0.3298   -2.1970 F   0  0  0  0  0  0  0  0  0  0  0  0
    3.6428    1.2248   -0.5726 H   0  0  0  0  0  0  0  0  0  0  0  0
    0.5119    2.0400    1.1971 H   0  0  0  0  0  0  0  0  0  0  0  0
   -1.6827    2.0711    0.4900 H   0  0  0  0  0  0  0  0  0  0  0  0
   -3.9173    2.3236    1.4683 H   0  0  0  0  0  0  0  0  0  0  0  0
   -4.5838    4.4665    2.5316 H   0  0  0  0  0  0  0  0  0  0  0  0
   -2.9764    6.3565    2.6199 H   0  0  0  0  0  0  0  0  0  0  0  0
   -0.7371    6.1340    1.6202 H   0  0  0  0  0  0  0  0  0  0  0  0
    2.4205    5.4718   -1.7863 H   0  0  0  0  0  0  0  0  0  0  0  0
    3.6258    3.3529   -1.4580 H   0  0  0  0  0  0  0  0  0  0  0  0
    5.0050   -0.5208    0.8553 H   0  0  0  0  0  0  0  0  0  0  0  0
    6.4218   -2.7155    0.6251 H   0  0  0  0  0  0  0  0  0  0  0  0
    1.4645   -4.6670   -0.8267 H   0  0  0  0  0  0  0  0  0  0  0  0
   -0.4861   -5.2010   -2.2433 H   0  0  0  0  0  0  0  0  0  0  0  0
   -1.5942   -3.4228   -3.5772 H   0  0  0  0  0  0  0  0  0  0  0  0
   -0.7174   -1.0941   -3.4974 H   0  0  0  0  0  0  0  0  0  0  0  0
  1  2  2  0  0  0  0
  2  3  1  0  0  0  0
  2 17  1  0  0  0  0
  3  4  1  0  0  0  0
  3 30  1  0  0  0  0
  4  5  2  0  0  0  0
  4 16  1  0  0  0  0
  5  6  1  0  0  0  0
  5 31  1  0  0  0  0
  6  7  1  0  0  0  0
  6 13  1  0  0  0  0
  7  8  2  0  0  0  0
  7 12  1  0  0  0  0
  8  9  1  0  0  0  0
  8 32  1  0  0  0  0
  9 10  2  0  0  0  0
  9 33  1  0  0  0  0
 10 11  1  0  0  0  0
 10 34  1  0  0  0  0
 11 12  2  0  0  0  0
 11 35  1  0  0  0  0
 12 36  1  0  0  0  0
 13 14  2  0  0  0  0
 13 15  1  0  0  0  0
 15 16  2  0  0  0  0
 15 37  1  0  0  0  0
 16 38  1  0  0  0  0
 17 18  2  0  0  0  0
 17 22  1  0  0  0  0
 18 19  1  0  0  0  0
 18 39  1  0  0  0  0
 19 20  1  0  0  0  0
 19 21  2  0  0  0  0
 20 40  1  0  0  0  0
 21 22  1  0  0  0  0
 22 23  1  0  0  0  0
 23 24  2  0  0  0  0
 23 28  1  0  0  0  0
 24 25  1  0  0  0  0
 24 41  1  0  0  0  0
 25 26  2  0  0  0  0
 25 42  1  0  0  0  0
 26 27  1  0  0  0  0
 26 43  1  0  0  0  0
 27 28  2  0  0  0  0
 27 44  1  0  0  0  0
 28 29  1  0  0  0  0
M  END
$$$$
