
 OpenBabel01122422473D

 49 52  0  0  1  0  0  0  0  0999 V2000
    0.1388   -1.8352    2.4796 C   0  0  0  0  0  0  0  0  0  0  0  0
    0.5635   -1.0746    1.3301 N   0  0  0  0  0  0  0  0  0  0  0  0
    0.2303   -1.2983    0.0288 C   0  0  0  0  0  0  0  0  0  0  0  0
    0.8710   -0.3260   -0.6991 C   0  0  0  0  0  0  0  0  0  0  0  0
    1.5825    0.4450    0.2582 C   0  0  0  0  0  0  0  0  0  0  0  0
    2.4589    1.6482   -0.0201 C   0  0  3  0  0  0  0  0  0  0  0  0
    2.4645    2.5493    1.1117 N   0  0  0  0  0  0  0  0  0  0  0  0
    1.5658    3.5836    1.1874 C   0  0  0  0  0  0  0  0  0  0  0  0
    0.8218    3.8952    0.2602 O   0  0  0  0  0  0  0  0  0  0  0  0
    1.5678    4.3970    2.4223 C   0  0  0  0  0  0  0  0  0  0  0  0
    1.1101    5.7172    2.3329 C   0  0  0  0  0  0  0  0  0  0  0  0
    1.1093    6.5752    3.4461 C   0  0  0  0  0  0  0  0  0  0  0  0
    0.6582    7.9809    3.3359 C   0  0  0  0  0  0  0  0  0  0  0  0
   -0.3649    8.3470    2.4362 C   0  0  0  0  0  0  0  0  0  0  0  0
   -0.7646    9.6780    2.2780 C   0  0  0  0  0  0  0  0  0  0  0  0
   -0.1640   10.6828    3.0302 C   0  0  0  0  0  0  0  0  0  0  0  0
    0.8340   10.3513    3.9399 C   0  0  0  0  0  0  0  0  0  0  0  0
    1.2360    9.0228    4.0847 C   0  0  0  0  0  0  0  0  0  0  0  0
    2.2241    8.7669    4.9543 F   0  0  0  0  0  0  0  0  0  0  0  0
    1.5814    6.0081    4.6338 C   0  0  0  0  0  0  0  0  0  0  0  0
    2.0305    4.7311    4.7710 N   0  0  0  0  0  0  0  0  0  0  0  0
    2.0149    3.9719    3.6583 C   0  0  0  0  0  0  0  0  0  0  0  0
    2.5006    2.7262    3.8837 O   0  0  0  0  0  0  0  0  0  0  0  0
    3.8452    1.1060   -0.3337 C   0  0  0  0  0  0  0  0  0  0  0  0
    4.4385    1.4074   -1.5723 C   0  0  0  0  0  0  0  0  0  0  0  0
    5.6866    0.8833   -1.9155 C   0  0  0  0  0  0  0  0  0  0  0  0
    6.3663    0.0585   -1.0225 C   0  0  0  0  0  0  0  0  0  0  0  0
    5.8121   -0.2224    0.2234 C   0  0  0  0  0  0  0  0  0  0  0  0
    4.5677    0.3059    0.5711 C   0  0  0  0  0  0  0  0  0  0  0  0
    1.3854   -0.0264    1.5041 N   0  0  0  0  0  0  0  0  0  0  0  0
   -0.5354   -2.6336    2.1594 H   0  0  0  0  0  0  0  0  0  0  0  0
   -0.3805   -1.1604    3.1654 H   0  0  0  0  0  0  0  0  0  0  0  0
    1.0242   -2.2614    2.9559 H   0  0  0  0  0  0  0  0  0  0  0  0
   -0.4218   -2.1072   -0.2671 H   0  0  0  0  0  0  0  0  0  0  0  0
    0.8409   -0.1845   -1.7698 H   0  0  0  0  0  0  0  0  0  0  0  0
    2.0592    2.1730   -0.8954 H   0  0  0  0  0  0  0  0  0  0  0  0
    2.7998    2.1575    1.9870 H   0  0  0  0  0  0  0  0  0  0  0  0
    0.7803    6.0820    1.3604 H   0  0  0  0  0  0  0  0  0  0  0  0
   -0.8715    7.5928    1.8363 H   0  0  0  0  0  0  0  0  0  0  0  0
   -1.5460    9.9264    1.5633 H   0  0  0  0  0  0  0  0  0  0  0  0
   -0.4712   11.7181    2.9049 H   0  0  0  0  0  0  0  0  0  0  0  0
    1.3154   11.1221    4.5355 H   0  0  0  0  0  0  0  0  0  0  0  0
    1.6174    6.5826    5.5571 H   0  0  0  0  0  0  0  0  0  0  0  0
    2.6813    2.7922    4.8408 H   0  0  0  0  0  0  0  0  0  0  0  0
    3.9254    2.0506   -2.2854 H   0  0  0  0  0  0  0  0  0  0  0  0
    6.1250    1.1143   -2.8829 H   0  0  0  0  0  0  0  0  0  0  0  0
    7.3294   -0.3638   -1.2968 H   0  0  0  0  0  0  0  0  0  0  0  0
    6.3426   -0.8601    0.9249 H   0  0  0  0  0  0  0  0  0  0  0  0
    4.1471    0.0667    1.5457 H   0  0  0  0  0  0  0  0  0  0  0  0
  1  2  1  0  0  0  0
  1 31  1  0  0  0  0
  1 32  1  0  0  0  0
  1 33  1  0  0  0  0
  2  3  1  0  0  0  0
  2 30  1  0  0  0  0
  3  4  2  0  0  0  0
  3 34  1  0  0  0  0
  4  5  1  0  0  0  0
  4 35  1  0  0  0  0
  5  6  1  0  0  0  0
  5 30  2  0  0  0  0
  6  7  1  0  0  0  0
  6 24  1  0  0  0  0
  6 36  1  0  0  0  0
  7  8  1  0  0  0  0
  7 37  1  0  0  0  0
  8  9  2  0  0  0  0
  8 10  1  0  0  0  0
 10 11  2  0  0  0  0
 10 22  1  0  0  0  0
 11 12  1  0  0  0  0
 11 38  1  0  0  0  0
 12 13  1  0  0  0  0
 12 20  2  0  0  0  0
 13 14  2  0  0  0  0
 13 18  1  0  0  0  0
 14 15  1  0  0  0  0
 14 39  1  0  0  0  0
 15 16  2  0  0  0  0
 15 40  1  0  0  0  0
 16 17  1  0  0  0  0
 16 41  1  0  0  0  0
 17 18  2  0  0  0  0
 17 42  1  0  0  0  0
 18 19  1  0  0  0  0
 20 21  1  0  0  0  0
 20 43  1  0  0  0  0
 21 22  2  0  0  0  0
 22 23  1  0  0  0  0
 23 44  1  0  0  0  0
 24 25  2  0  0  0  0
 24 29  1  0  0  0  0
 25 26  1  0  0  0  0
 25 45  1  0  0  0  0
 26 27  2  0  0  0  0
 26 46  1  0  0  0  0
 27 28  1  0  0  0  0
 27 47  1  0  0  0  0
 28 29  2  0  0  0  0
 28 48  1  0  0  0  0
 29 49  1  0  0  0  0
M  END
$$$$
