
 OpenBabel01122422453D

 49 52  0  0  0  0  0  0  0  0999 V2000
   -1.8349   -0.8155    2.0076 C   0  0  0  0  0  0  0  0  0  0  0  0
   -0.7584   -0.3335    1.1609 N   0  0  0  0  0  0  0  0  0  0  0  0
    0.2699   -1.0923    0.6045 C   0  0  0  0  0  0  0  0  0  0  0  0
    0.4622   -2.5460    0.6625 C   0  0  0  0  0  0  0  0  0  0  0  0
   -0.4417   -3.3510    0.8555 O   0  0  0  0  0  0  0  0  0  0  0  0
    1.8055   -2.8971    0.4944 N   0  0  0  0  0  0  0  0  0  0  0  0
    2.2407   -4.1893    0.7407 C   0  0  0  0  0  0  0  0  0  0  0  0
    2.4714   -5.1787   -0.1942 C   0  0  0  0  0  0  0  0  0  0  0  0
    2.3267   -5.2580   -1.6769 C   0  0  0  0  0  0  0  0  0  0  0  0
    3.6120   -4.9096   -2.4048 C   0  0  0  0  0  0  0  0  0  0  0  0
    4.5695   -5.8929   -2.7048 C   0  0  0  0  0  0  0  0  0  0  0  0
    5.7676   -5.5513   -3.3392 C   0  0  0  0  0  0  0  0  0  0  0  0
    6.0214   -4.2250   -3.6856 C   0  0  0  0  0  0  0  0  0  0  0  0
    5.0767   -3.2414   -3.4001 C   0  0  0  0  0  0  0  0  0  0  0  0
    3.8812   -3.5807   -2.7624 C   0  0  0  0  0  0  0  0  0  0  0  0
    2.9981   -6.2274    0.5170 N   0  0  0  0  0  0  0  0  0  0  0  0
    3.2114   -5.9552    1.8144 N   0  0  0  0  0  0  0  0  0  0  0  0
    2.7630   -4.7054    1.9455 C   0  0  0  0  0  0  0  0  0  0  0  0
    1.0912   -0.1944   -0.0599 C   0  0  0  0  0  0  0  0  0  0  0  0
    0.5701    1.0975    0.0917 C   0  0  0  0  0  0  0  0  0  0  0  0
   -0.6177    1.0079    0.7980 C   0  0  0  0  0  0  0  0  0  0  0  0
   -1.5426    2.0939    1.1287 C   0  0  0  0  0  0  0  0  0  0  0  0
   -2.2289    2.0946    2.1497 O   0  0  0  0  0  0  0  0  0  0  0  0
   -1.6579    3.2760    0.2242 C   0  0  0  0  0  0  0  0  0  0  0  0
   -1.9006    4.5449    0.7742 C   0  0  0  0  0  0  0  0  0  0  0  0
   -2.0497    5.6614   -0.0590 C   0  0  0  0  0  0  0  0  0  0  0  0
   -1.9569    5.5220   -1.4438 C   0  0  0  0  0  0  0  0  0  0  0  0
   -1.7236    4.2652   -1.9967 C   0  0  0  0  0  0  0  0  0  0  0  0
   -1.5914    3.1524   -1.1660 C   0  0  0  0  0  0  0  0  0  0  0  0
   -1.4284    1.9592   -1.7540 F   0  0  0  0  0  0  0  0  0  0  0  0
   -1.8310   -1.9013    2.0767 H   0  0  0  0  0  0  0  0  0  0  0  0
   -2.7888   -0.4880    1.5845 H   0  0  0  0  0  0  0  0  0  0  0  0
   -1.6938   -0.3948    3.0077 H   0  0  0  0  0  0  0  0  0  0  0  0
    2.3931   -2.1992    0.9365 H   0  0  0  0  0  0  0  0  0  0  0  0
    1.5210   -4.5971   -2.0182 H   0  0  0  0  0  0  0  0  0  0  0  0
    2.0178   -6.2709   -1.9683 H   0  0  0  0  0  0  0  0  0  0  0  0
    4.3945   -6.9350   -2.4473 H   0  0  0  0  0  0  0  0  0  0  0  0
    6.5050   -6.3174   -3.5632 H   0  0  0  0  0  0  0  0  0  0  0  0
    6.9549   -3.9580   -4.1747 H   0  0  0  0  0  0  0  0  0  0  0  0
    5.2725   -2.2074   -3.6724 H   0  0  0  0  0  0  0  0  0  0  0  0
    3.1562   -2.8006   -2.5420 H   0  0  0  0  0  0  0  0  0  0  0  0
    3.2875   -7.1337    0.1653 H   0  0  0  0  0  0  0  0  0  0  0  0
    2.8402   -4.2227    2.9105 H   0  0  0  0  0  0  0  0  0  0  0  0
    1.9753   -0.4534   -0.6290 H   0  0  0  0  0  0  0  0  0  0  0  0
    0.9938    2.0047   -0.3161 H   0  0  0  0  0  0  0  0  0  0  0  0
   -1.9817    4.6699    1.8524 H   0  0  0  0  0  0  0  0  0  0  0  0
   -2.2477    6.6407    0.3724 H   0  0  0  0  0  0  0  0  0  0  0  0
   -2.0807    6.3874   -2.0922 H   0  0  0  0  0  0  0  0  0  0  0  0
   -1.6594    4.1370   -3.0734 H   0  0  0  0  0  0  0  0  0  0  0  0
  1  2  1  0  0  0  0
  1 31  1  0  0  0  0
  1 32  1  0  0  0  0
  1 33  1  0  0  0  0
  2  3  1  0  0  0  0
  2 21  1  0  0  0  0
  3  4  1  0  0  0  0
  3 19  2  0  0  0  0
  4  5  2  0  0  0  0
  4  6  1  0  0  0  0
  6  7  1  0  0  0  0
  6 34  1  0  0  0  0
  7  8  2  0  0  0  0
  7 18  1  0  0  0  0
  8  9  1  0  0  0  0
  8 16  1  0  0  0  0
  9 10  1  0  0  0  0
  9 35  1  0  0  0  0
  9 36  1  0  0  0  0
 10 11  2  0  0  0  0
 10 15  1  0  0  0  0
 11 12  1  0  0  0  0
 11 37  1  0  0  0  0
 12 13  2  0  0  0  0
 12 38  1  0  0  0  0
 13 14  1  0  0  0  0
 13 39  1  0  0  0  0
 14 15  2  0  0  0  0
 14 40  1  0  0  0  0
 15 41  1  0  0  0  0
 16 17  1  0  0  0  0
 16 42  1  0  0  0  0
 17 18  2  0  0  0  0
 18 43  1  0  0  0  0
 19 20  1  0  0  0  0
 19 44  1  0  0  0  0
 20 21  2  0  0  0  0
 20 45  1  0  0  0  0
 21 22  1  0  0  0  0
 22 23  2  0  0  0  0
 22 24  1  0  0  0  0
 24 25  2  0  0  0  0
 24 29  1  0  0  0  0
 25 26  1  0  0  0  0
 25 46  1  0  0  0  0
 26 27  2  0  0  0  0
 26 47  1  0  0  0  0
 27 28  1  0  0  0  0
 27 48  1  0  0  0  0
 28 29  2  0  0  0  0
 28 49  1  0  0  0  0
 29 30  1  0  0  0  0
M  END
$$$$
