
 OpenBabel01122422473D

 49 52  0  0  0  0  0  0  0  0999 V2000
    0.9859   -0.1525    0.1355 O   0  0  0  0  0  0  0  0  0  0  0  0
    2.1855    0.0871    0.0277 C   0  0  0  0  0  0  0  0  0  0  0  0
    2.8668    0.8212    0.9726 N   0  0  0  0  0  0  0  0  0  0  0  0
    2.1782    1.4418    2.0848 C   0  0  0  0  0  0  0  0  0  0  0  0
    1.7952    2.8291    1.7185 C   0  0  0  0  0  0  0  0  0  0  0  0
    2.5100    3.9285    1.8522 N   0  0  0  0  0  0  0  0  0  0  0  0
    1.7293    4.9904    1.4520 N   0  0  0  0  0  0  0  0  0  0  0  0
    0.5562    4.5230    1.0851 C   0  0  0  0  0  0  0  0  0  0  0  0
   -0.6309    5.3150    0.6465 C   0  0  0  0  0  0  0  0  0  0  0  0
   -1.5890    5.6156    1.7819 C   0  0  0  0  0  0  0  0  0  0  0  0
   -1.1659    6.3790    2.8852 C   0  0  0  0  0  0  0  0  0  0  0  0
   -2.0327    6.6307    3.9499 C   0  0  0  0  0  0  0  0  0  0  0  0
   -3.3277    6.1306    3.9099 C   0  0  0  0  0  0  0  0  0  0  0  0
   -4.1556    6.3538    4.9396 F   0  0  0  0  0  0  0  0  0  0  0  0
   -3.7768    5.3980    2.8173 C   0  0  0  0  0  0  0  0  0  0  0  0
   -2.9108    5.1420    1.7518 C   0  0  0  0  0  0  0  0  0  0  0  0
    0.5724    3.1562    1.1912 N   0  0  0  0  0  0  0  0  0  0  0  0
    2.9861   -0.3859   -1.1516 C   0  0  0  0  0  0  0  0  0  0  0  0
    4.2919   -0.8562   -0.8720 C   0  0  0  0  0  0  0  0  0  0  0  0
    5.0967   -1.4005   -1.8721 C   0  0  0  0  0  0  0  0  0  0  0  0
    4.5940   -1.4933   -3.1556 C   0  0  0  0  0  0  0  0  0  0  0  0
    5.3175   -2.0518   -4.1667 O   0  0  0  0  0  0  0  0  0  0  0  0
    3.3196   -1.0172   -3.4573 C   0  0  0  0  0  0  0  0  0  0  0  0
    2.4715   -0.4409   -2.4770 C   0  0  0  0  0  0  0  0  0  0  0  0
    1.1419    0.0827   -2.9177 C   0  0  0  0  0  0  0  0  0  0  0  0
    0.4047   -0.5473   -3.9434 C   0  0  0  0  0  0  0  0  0  0  0  0
   -0.8298   -0.0523   -4.3811 C   0  0  0  0  0  0  0  0  0  0  0  0
   -1.3836    1.0692   -3.7769 C   0  0  0  0  0  0  0  0  0  0  0  0
   -0.6829    1.7179   -2.7678 C   0  0  0  0  0  0  0  0  0  0  0  0
    0.5772    1.2511   -2.3744 C   0  0  0  0  0  0  0  0  0  0  0  0
    3.8187    1.1169    0.8104 H   0  0  0  0  0  0  0  0  0  0  0  0
    2.8726    1.4591    2.9362 H   0  0  0  0  0  0  0  0  0  0  0  0
    1.3030    0.8552    2.3746 H   0  0  0  0  0  0  0  0  0  0  0  0
   -1.1514    4.7785   -0.1570 H   0  0  0  0  0  0  0  0  0  0  0  0
   -0.2985    6.2674    0.2098 H   0  0  0  0  0  0  0  0  0  0  0  0
   -0.1494    6.7708    2.9243 H   0  0  0  0  0  0  0  0  0  0  0  0
   -1.7022    7.2068    4.8084 H   0  0  0  0  0  0  0  0  0  0  0  0
   -4.7979    5.0283    2.8053 H   0  0  0  0  0  0  0  0  0  0  0  0
   -3.2774    4.5717    0.9018 H   0  0  0  0  0  0  0  0  0  0  0  0
   -0.1703    2.5100    0.9587 H   0  0  0  0  0  0  0  0  0  0  0  0
    4.6865   -0.8317    0.1413 H   0  0  0  0  0  0  0  0  0  0  0  0
    6.0935   -1.7540   -1.6271 H   0  0  0  0  0  0  0  0  0  0  0  0
    6.1624   -2.3754   -3.8134 H   0  0  0  0  0  0  0  0  0  0  0  0
    2.9975   -1.0936   -4.4941 H   0  0  0  0  0  0  0  0  0  0  0  0
    0.7825   -1.4454   -4.4279 H   0  0  0  0  0  0  0  0  0  0  0  0
   -1.3577   -0.5515   -5.1892 H   0  0  0  0  0  0  0  0  0  0  0  0
   -2.3550    1.4378   -4.0940 H   0  0  0  0  0  0  0  0  0  0  0  0
   -1.1097    2.5923   -2.2858 H   0  0  0  0  0  0  0  0  0  0  0  0
    1.1076    1.8166   -1.6140 H   0  0  0  0  0  0  0  0  0  0  0  0
  1  2  2  0  0  0  0
  2  3  1  0  0  0  0
  2 18  1  0  0  0  0
  3  4  1  0  0  0  0
  3 31  1  0  0  0  0
  4  5  1  0  0  0  0
  4 32  1  0  0  0  0
  4 33  1  0  0  0  0
  5  6  2  0  0  0  0
  5 17  1  0  0  0  0
  6  7  1  0  0  0  0
  7  8  2  0  0  0  0
  8  9  1  0  0  0  0
  8 17  1  0  0  0  0
  9 10  1  0  0  0  0
  9 34  1  0  0  0  0
  9 35  1  0  0  0  0
 10 11  2  0  0  0  0
 10 16  1  0  0  0  0
 11 12  1  0  0  0  0
 11 36  1  0  0  0  0
 12 13  2  0  0  0  0
 12 37  1  0  0  0  0
 13 14  1  0  0  0  0
 13 15  1  0  0  0  0
 15 16  2  0  0  0  0
 15 38  1  0  0  0  0
 16 39  1  0  0  0  0
 17 40  1  0  0  0  0
 18 19  2  0  0  0  0
 18 24  1  0  0  0  0
 19 20  1  0  0  0  0
 19 41  1  0  0  0  0
 20 21  2  0  0  0  0
 20 42  1  0  0  0  0
 21 22  1  0  0  0  0
 21 23  1  0  0  0  0
 22 43  1  0  0  0  0
 23 24  2  0  0  0  0
 23 44  1  0  0  0  0
 24 25  1  0  0  0  0
 25 26  2  0  0  0  0
 25 30  1  0  0  0  0
 26 27  1  0  0  0  0
 26 45  1  0  0  0  0
 27 28  2  0  0  0  0
 27 46  1  0  0  0  0
 28 29  1  0  0  0  0
 28 47  1  0  0  0  0
 29 30  2  0  0  0  0
 29 48  1  0  0  0  0
 30 49  1  0  0  0  0
M  END
$$$$
