
 OpenBabel01122422473D

 42 45  0  0  0  0  0  0  0  0999 V2000
    0.9610   -0.2852   -0.0570 O   0  0  0  0  0  0  0  0  0  0  0  0
    2.1381    0.0567   -0.0927 C   0  0  0  0  0  0  0  0  0  0  0  0
    2.7811    0.9156    0.7792 N   0  0  0  0  0  0  0  0  0  0  0  0
    2.2369    1.4624    1.9613 C   0  0  0  0  0  0  0  0  0  0  0  0
    1.0589    0.9882    2.5519 C   0  0  0  0  0  0  0  0  0  0  0  0
    0.5638    1.5051    3.7664 C   0  0  0  0  0  0  0  0  0  0  0  0
   -0.6109    0.8906    4.4363 C   0  0  0  0  0  0  0  0  0  0  0  0
   -0.8320   -0.5028    4.3607 C   0  0  0  0  0  0  0  0  0  0  0  0
   -1.8960   -1.1144    5.0306 C   0  0  0  0  0  0  0  0  0  0  0  0
   -2.7557   -0.3419    5.7956 C   0  0  0  0  0  0  0  0  0  0  0  0
   -3.7597   -0.9302    6.4581 F   0  0  0  0  0  0  0  0  0  0  0  0
   -2.5843    1.0295    5.8872 C   0  0  0  0  0  0  0  0  0  0  0  0
   -1.5270    1.6321    5.2061 C   0  0  0  0  0  0  0  0  0  0  0  0
   -1.4081    2.9651    5.3122 F   0  0  0  0  0  0  0  0  0  0  0  0
    1.2710    2.5749    4.3381 C   0  0  0  0  0  0  0  0  0  0  0  0
    2.4408    3.0689    3.7537 C   0  0  0  0  0  0  0  0  0  0  0  0
    2.9359    2.4966    2.5833 C   0  0  0  0  0  0  0  0  0  0  0  0
    2.9701   -0.4586   -1.2081 C   0  0  0  0  0  0  0  0  0  0  0  0
    2.3732   -0.6178   -2.4615 C   0  0  0  0  0  0  0  0  0  0  0  0
    3.1004   -1.1605   -3.5238 C   0  0  0  0  0  0  0  0  0  0  0  0
    4.4258   -1.5769   -3.3457 C   0  0  0  0  0  0  0  0  0  0  0  0
    5.1538   -2.1533   -4.4003 N   0  0  0  0  0  0  0  0  0  0  0  0
    6.3837   -2.7248   -4.1813 N   0  0  0  0  0  0  0  0  0  0  0  0
    6.8312   -3.1888   -5.2757 N   0  0  0  0  0  0  0  0  0  0  0  0
    5.9253   -2.9445   -6.2559 N   0  0  0  0  0  0  0  0  0  0  0  0
    4.8320   -2.2780   -5.7445 C   0  0  0  0  0  0  0  0  0  0  0  0
    3.8661   -1.9013   -6.3833 O   0  0  0  0  0  0  0  0  0  0  0  0
    5.0127   -1.4183   -2.0777 C   0  0  0  0  0  0  0  0  0  0  0  0
    4.2958   -0.8558   -1.0146 C   0  0  0  0  0  0  0  0  0  0  0  0
    3.6923    1.2601    0.5046 H   0  0  0  0  0  0  0  0  0  0  0  0
    0.5138    0.1774    2.0790 H   0  0  0  0  0  0  0  0  0  0  0  0
   -0.1600   -1.1411    3.7889 H   0  0  0  0  0  0  0  0  0  0  0  0
   -2.0463   -2.1876    4.9647 H   0  0  0  0  0  0  0  0  0  0  0  0
   -3.2611    1.6280    6.4854 H   0  0  0  0  0  0  0  0  0  0  0  0
    0.9330    3.0286    5.2676 H   0  0  0  0  0  0  0  0  0  0  0  0
    2.9705    3.8937    4.2238 H   0  0  0  0  0  0  0  0  0  0  0  0
    3.8586    2.8846    2.1612 H   0  0  0  0  0  0  0  0  0  0  0  0
    1.3328   -0.3333   -2.6111 H   0  0  0  0  0  0  0  0  0  0  0  0
    2.5907   -1.2767   -4.4773 H   0  0  0  0  0  0  0  0  0  0  0  0
    6.0804   -3.1970   -7.2180 H   0  0  0  0  0  0  0  0  0  0  0  0
    6.0382   -1.7348   -1.8981 H   0  0  0  0  0  0  0  0  0  0  0  0
    4.7694   -0.7782   -0.0394 H   0  0  0  0  0  0  0  0  0  0  0  0
  1  2  2  0  0  0  0
  2  3  1  0  0  0  0
  2 18  1  0  0  0  0
  3  4  1  0  0  0  0
  3 30  1  0  0  0  0
  4  5  2  0  0  0  0
  4 17  1  0  0  0  0
  5  6  1  0  0  0  0
  5 31  1  0  0  0  0
  6  7  1  0  0  0  0
  6 15  2  0  0  0  0
  7  8  2  0  0  0  0
  7 13  1  0  0  0  0
  8  9  1  0  0  0  0
  8 32  1  0  0  0  0
  9 10  2  0  0  0  0
  9 33  1  0  0  0  0
 10 11  1  0  0  0  0
 10 12  1  0  0  0  0
 12 13  2  0  0  0  0
 12 34  1  0  0  0  0
 13 14  1  0  0  0  0
 15 16  1  0  0  0  0
 15 35  1  0  0  0  0
 16 17  2  0  0  0  0
 16 36  1  0  0  0  0
 17 37  1  0  0  0  0
 18 19  2  0  0  0  0
 18 29  1  0  0  0  0
 19 20  1  0  0  0  0
 19 38  1  0  0  0  0
 20 21  2  0  0  0  0
 20 39  1  0  0  0  0
 21 22  1  0  0  0  0
 21 28  1  0  0  0  0
 22 23  1  0  0  0  0
 22 26  1  0  0  0  0
 23 24  2  0  0  0  0
 24 25  1  0  0  0  0
 25 26  1  0  0  0  0
 25 40  1  0  0  0  0
 26 27  2  0  0  0  0
 28 29  2  0  0  0  0
 28 41  1  0  0  0  0
 29 42  1  0  0  0  0
M  END
$$$$
