
 OpenBabel01122422473D

 43 46  0  0  0  0  0  0  0  0999 V2000
    1.3582    0.9318   -1.1422 O   0  0  0  0  0  0  0  0  0  0  0  0
    2.3816    0.4373   -0.6658 C   0  0  0  0  0  0  0  0  0  0  0  0
    2.7806   -0.8925   -0.8447 N   0  0  0  0  0  0  0  0  0  0  0  0
    2.1268   -1.8512   -1.6545 C   0  0  0  0  0  0  0  0  0  0  0  0
    1.1866   -1.4929   -2.6279 C   0  0  0  0  0  0  0  0  0  0  0  0
    0.5354   -2.4671   -3.3877 C   0  0  0  0  0  0  0  0  0  0  0  0
    0.7963   -3.8174   -3.1851 C   0  0  0  0  0  0  0  0  0  0  0  0
    0.0886   -4.7499   -3.9414 N   0  0  0  0  0  0  0  0  0  0  0  0
    0.2719   -6.0009   -3.6735 C   0  0  0  0  0  0  0  0  0  0  0  0
    1.1329   -6.5138   -2.7238 N   0  0  0  0  0  0  0  0  0  0  0  0
    1.1851   -7.9418   -2.5023 C   0  0  0  0  0  0  0  0  0  0  0  0
    1.5773   -8.4757   -1.2641 C   0  0  0  0  0  0  0  0  0  0  0  0
    1.6144   -9.8575   -1.0400 C   0  0  0  0  0  0  0  0  0  0  0  0
    1.2533  -10.7409   -2.0498 C   0  0  0  0  0  0  0  0  0  0  0  0
    0.8503  -10.2420   -3.2821 C   0  0  0  0  0  0  0  0  0  0  0  0
    0.8166   -8.8595   -3.5054 C   0  0  0  0  0  0  0  0  0  0  0  0
    1.9488   -5.6312   -1.9965 C   0  0  0  0  0  0  0  0  0  0  0  0
    2.8461   -5.9401   -1.2140 O   0  0  0  0  0  0  0  0  0  0  0  0
    1.7348   -4.1831   -2.2274 C   0  0  0  0  0  0  0  0  0  0  0  0
    2.4263   -3.2061   -1.4818 C   0  0  0  0  0  0  0  0  0  0  0  0
    3.3267    1.2657    0.2534 C   0  0  0  0  0  0  0  0  0  0  0  0
    2.6820    1.5611    1.4275 F   0  0  0  0  0  0  0  0  0  0  0  0
    4.3940    0.4919    0.6450 F   0  0  0  0  0  0  0  0  0  0  0  0
    3.7714    2.5206   -0.4614 C   0  0  0  0  0  0  0  0  0  0  0  0
    2.9819    3.6767   -0.4952 C   0  0  0  0  0  0  0  0  0  0  0  0
    3.4028    4.7823   -1.2292 C   0  0  0  0  0  0  0  0  0  0  0  0
    4.6062    4.6973   -1.9068 C   0  0  0  0  0  0  0  0  0  0  0  0
    5.4025    3.6061   -1.8850 N   0  0  0  0  0  0  0  0  0  0  0  0
    4.9696    2.5463   -1.1643 C   0  0  0  0  0  0  0  0  0  0  0  0
    3.5316   -1.2232   -0.2434 H   0  0  0  0  0  0  0  0  0  0  0  0
    0.9365   -0.4582   -2.8365 H   0  0  0  0  0  0  0  0  0  0  0  0
   -0.1994   -2.1663   -4.1312 H   0  0  0  0  0  0  0  0  0  0  0  0
   -0.3348   -6.7255   -4.2302 H   0  0  0  0  0  0  0  0  0  0  0  0
    1.8345   -7.8334   -0.4258 H   0  0  0  0  0  0  0  0  0  0  0  0
    1.9250  -10.2371   -0.0695 H   0  0  0  0  0  0  0  0  0  0  0  0
    1.2893  -11.8133   -1.8773 H   0  0  0  0  0  0  0  0  0  0  0  0
    0.5710  -10.9275   -4.0790 H   0  0  0  0  0  0  0  0  0  0  0  0
    0.5346   -8.5398   -4.5046 H   0  0  0  0  0  0  0  0  0  0  0  0
    3.1618   -3.5245   -0.7471 H   0  0  0  0  0  0  0  0  0  0  0  0
    2.0290    3.7105    0.0306 H   0  0  0  0  0  0  0  0  0  0  0  0
    2.8002    5.6827   -1.2812 H   0  0  0  0  0  0  0  0  0  0  0  0
    4.9715    5.5264   -2.5063 H   0  0  0  0  0  0  0  0  0  0  0  0
    5.6412    1.6907   -1.1777 H   0  0  0  0  0  0  0  0  0  0  0  0
  1  2  2  0  0  0  0
  2  3  1  0  0  0  0
  2 21  1  0  0  0  0
  3  4  1  0  0  0  0
  3 30  1  0  0  0  0
  4  5  2  0  0  0  0
  4 20  1  0  0  0  0
  5  6  1  0  0  0  0
  5 31  1  0  0  0  0
  6  7  2  0  0  0  0
  6 32  1  0  0  0  0
  7  8  1  0  0  0  0
  7 19  1  0  0  0  0
  8  9  2  0  0  0  0
  9 10  1  0  0  0  0
  9 33  1  0  0  0  0
 10 11  1  0  0  0  0
 10 17  1  0  0  0  0
 11 12  2  0  0  0  0
 11 16  1  0  0  0  0
 12 13  1  0  0  0  0
 12 34  1  0  0  0  0
 13 14  2  0  0  0  0
 13 35  1  0  0  0  0
 14 15  1  0  0  0  0
 14 36  1  0  0  0  0
 15 16  2  0  0  0  0
 15 37  1  0  0  0  0
 16 38  1  0  0  0  0
 17 18  2  0  0  0  0
 17 19  1  0  0  0  0
 19 20  2  0  0  0  0
 20 39  1  0  0  0  0
 21 22  1  0  0  0  0
 21 23  1  0  0  0  0
 21 24  1  0  0  0  0
 24 25  2  0  0  0  0
 24 29  1  0  0  0  0
 25 26  1  0  0  0  0
 25 40  1  0  0  0  0
 26 27  2  0  0  0  0
 26 41  1  0  0  0  0
 27 28  1  0  0  0  0
 27 42  1  0  0  0  0
 28 29  2  0  0  0  0
 29 43  1  0  0  0  0
M  END
$$$$
