
 OpenBabel01122422473D

 50 53  0  0  0  0  0  0  0  0999 V2000
    3.6933   -2.3021   -0.5208 C   0  0  0  0  0  0  0  0  0  0  0  0
    4.4147   -1.1650   -1.0062 O   0  0  0  0  0  0  0  0  0  0  0  0
    4.2335   -0.0493   -0.2578 C   0  0  0  0  0  0  0  0  0  0  0  0
    3.5489    0.0366    0.7457 O   0  0  0  0  0  0  0  0  0  0  0  0
    4.9823    1.0949   -0.8350 C   0  0  0  0  0  0  0  0  0  0  0  0
    5.0810    1.2085   -2.2337 C   0  0  0  0  0  0  0  0  0  0  0  0
    5.6631    2.3373   -2.8114 C   0  0  0  0  0  0  0  0  0  0  0  0
    6.1400    3.3628   -1.9977 C   0  0  0  0  0  0  0  0  0  0  0  0
    6.0847    3.2380   -0.6025 C   0  0  0  0  0  0  0  0  0  0  0  0
    5.5230    2.1048   -0.0217 C   0  0  0  0  0  0  0  0  0  0  0  0
    5.6251    2.0090    1.4355 C   0  0  0  0  0  0  0  0  0  0  0  0
    6.2134    2.8856    2.1918 N   0  0  0  0  0  0  0  0  0  0  0  0
    6.7359    4.0266    1.6122 N   0  0  0  0  0  0  0  0  0  0  0  0
    7.4139    4.9842    2.5082 C   0  0  0  0  0  0  0  0  0  0  0  0
    6.4650    5.9394    3.2071 C   0  0  0  0  0  0  0  0  0  0  0  0
    5.4527    5.3887    4.0205 C   0  0  0  0  0  0  0  0  0  0  0  0
    4.5242    6.1926    4.6762 C   0  0  0  0  0  0  0  0  0  0  0  0
    4.5767    7.5682    4.5182 C   0  0  0  0  0  0  0  0  0  0  0  0
    5.5865    8.1359    3.7396 C   0  0  0  0  0  0  0  0  0  0  0  0
    6.5687    7.3418    3.1219 C   0  0  0  0  0  0  0  0  0  0  0  0
    7.6501    7.8808    2.4545 O   0  0  0  0  0  0  0  0  0  0  0  0
    7.9021    9.2693    2.7299 C   0  0  0  0  0  0  0  0  0  0  0  0
    9.2909    9.7185    2.3342 C   0  0  0  0  0  0  0  0  0  0  0  0
    9.9041    9.2752    1.1583 C   0  0  0  0  0  0  0  0  0  0  0  0
   11.1862    9.7192    0.8224 C   0  0  0  0  0  0  0  0  0  0  0  0
   11.8586   10.6219    1.6475 C   0  0  0  0  0  0  0  0  0  0  0  0
   11.2420   11.1032    2.7974 C   0  0  0  0  0  0  0  0  0  0  0  0
    9.9619   10.6628    3.1334 C   0  0  0  0  0  0  0  0  0  0  0  0
    6.6633    4.2963    0.2501 C   0  0  0  0  0  0  0  0  0  0  0  0
    7.0751    5.3251   -0.2835 O   0  0  0  0  0  0  0  0  0  0  0  0
    3.8631   -3.1354   -1.2082 H   0  0  0  0  0  0  0  0  0  0  0  0
    2.6182   -2.0945   -0.4906 H   0  0  0  0  0  0  0  0  0  0  0  0
    4.0587   -2.5886    0.4703 H   0  0  0  0  0  0  0  0  0  0  0  0
    4.6944    0.4270   -2.8864 H   0  0  0  0  0  0  0  0  0  0  0  0
    5.7391    2.4241   -3.8936 H   0  0  0  0  0  0  0  0  0  0  0  0
    6.5763    4.2526   -2.4497 H   0  0  0  0  0  0  0  0  0  0  0  0
    5.2165    1.1244    1.9462 H   0  0  0  0  0  0  0  0  0  0  0  0
    8.1721    5.5236    1.9316 H   0  0  0  0  0  0  0  0  0  0  0  0
    7.9543    4.4033    3.2660 H   0  0  0  0  0  0  0  0  0  0  0  0
    5.3873    4.3096    4.1490 H   0  0  0  0  0  0  0  0  0  0  0  0
    3.7570    5.7411    5.2985 H   0  0  0  0  0  0  0  0  0  0  0  0
    3.8464    8.2048    5.0069 H   0  0  0  0  0  0  0  0  0  0  0  0
    5.5782    9.2171    3.6448 H   0  0  0  0  0  0  0  0  0  0  0  0
    7.8087    9.4458    3.8098 H   0  0  0  0  0  0  0  0  0  0  0  0
    7.1784    9.8905    2.1869 H   0  0  0  0  0  0  0  0  0  0  0  0
    9.3881    8.5769    0.5021 H   0  0  0  0  0  0  0  0  0  0  0  0
   11.6628    9.3563   -0.0842 H   0  0  0  0  0  0  0  0  0  0  0  0
   12.8619   10.9512    1.3905 H   0  0  0  0  0  0  0  0  0  0  0  0
   11.7564   11.8188    3.4353 H   0  0  0  0  0  0  0  0  0  0  0  0
    9.4911   11.0578    4.0313 H   0  0  0  0  0  0  0  0  0  0  0  0
  1  2  1  0  0  0  0
  1 31  1  0  0  0  0
  1 32  1  0  0  0  0
  1 33  1  0  0  0  0
  2  3  1  0  0  0  0
  3  4  2  0  0  0  0
  3  5  1  0  0  0  0
  5  6  2  0  0  0  0
  5 10  1  0  0  0  0
  6  7  1  0  0  0  0
  6 34  1  0  0  0  0
  7  8  2  0  0  0  0
  7 35  1  0  0  0  0
  8  9  1  0  0  0  0
  8 36  1  0  0  0  0
  9 10  2  0  0  0  0
  9 29  1  0  0  0  0
 10 11  1  0  0  0  0
 11 12  2  0  0  0  0
 11 37  1  0  0  0  0
 12 13  1  0  0  0  0
 13 14  1  0  0  0  0
 13 29  1  0  0  0  0
 14 15  1  0  0  0  0
 14 38  1  0  0  0  0
 14 39  1  0  0  0  0
 15 16  2  0  0  0  0
 15 20  1  0  0  0  0
 16 17  1  0  0  0  0
 16 40  1  0  0  0  0
 17 18  2  0  0  0  0
 17 41  1  0  0  0  0
 18 19  1  0  0  0  0
 18 42  1  0  0  0  0
 19 20  2  0  0  0  0
 19 43  1  0  0  0  0
 20 21  1  0  0  0  0
 21 22  1  0  0  0  0
 22 23  1  0  0  0  0
 22 44  1  0  0  0  0
 22 45  1  0  0  0  0
 23 24  2  0  0  0  0
 23 28  1  0  0  0  0
 24 25  1  0  0  0  0
 24 46  1  0  0  0  0
 25 26  2  0  0  0  0
 25 47  1  0  0  0  0
 26 27  1  0  0  0  0
 26 48  1  0  0  0  0
 27 28  2  0  0  0  0
 27 49  1  0  0  0  0
 28 50  1  0  0  0  0
 29 30  2  0  0  0  0
M  END
$$$$
