
 OpenBabel01122422473D

 50 53  0  0  0  0  0  0  0  0999 V2000
    9.2612    4.6017   -1.7796 C   0  0  0  0  0  0  0  0  0  0  0  0
    8.4475    3.3393   -1.6188 C   0  0  0  0  0  0  0  0  0  0  0  0
    7.3185    3.4321   -0.9996 N   0  0  0  0  0  0  0  0  0  0  0  0
    6.5290    2.2879   -0.7911 C   0  0  0  0  0  0  0  0  0  0  0  0
    5.2915    2.3873   -0.0997 C   0  0  0  0  0  0  0  0  0  0  0  0
    4.7030    3.6975    0.2927 C   0  0  0  0  0  0  0  0  0  0  0  0
    4.7741    4.8100   -0.5644 C   0  0  0  0  0  0  0  0  0  0  0  0
    4.2951    6.0646   -0.1842 C   0  0  0  0  0  0  0  0  0  0  0  0
    3.6926    6.2408    1.0616 C   0  0  0  0  0  0  0  0  0  0  0  0
    3.2330    7.6096    1.4889 C   0  0  0  0  0  0  0  0  0  0  0  0
    1.8182    7.6330    1.6973 O   0  0  0  0  0  0  0  0  0  0  0  0
    1.0824    7.8145    0.5714 C   0  0  0  0  0  0  0  0  0  0  0  0
    1.5257    7.9542   -0.5547 O   0  0  0  0  0  0  0  0  0  0  0  0
   -0.3583    7.8472    0.9441 C   0  0  0  0  0  0  0  0  0  0  0  0
   -0.8124    7.1447    2.0725 C   0  0  0  0  0  0  0  0  0  0  0  0
   -2.1637    7.1702    2.4272 C   0  0  0  0  0  0  0  0  0  0  0  0
   -3.0718    7.8862    1.6505 C   0  0  0  0  0  0  0  0  0  0  0  0
   -2.6344    8.5798    0.5217 C   0  0  0  0  0  0  0  0  0  0  0  0
   -1.2822    8.5631    0.1715 C   0  0  0  0  0  0  0  0  0  0  0  0
   -0.8735    9.2797   -0.9158 O   0  0  0  0  0  0  0  0  0  0  0  0
    3.5348    5.1307    1.8969 C   0  0  0  0  0  0  0  0  0  0  0  0
    4.0414    3.8805    1.5200 C   0  0  0  0  0  0  0  0  0  0  0  0
    4.6068    1.1893    0.2044 C   0  0  0  0  0  0  0  0  0  0  0  0
    5.0922   -0.0569   -0.1973 C   0  0  0  0  0  0  0  0  0  0  0  0
    6.2636   -0.1329   -0.9385 C   0  0  0  0  0  0  0  0  0  0  0  0
    6.9745    1.0366   -1.2248 C   0  0  0  0  0  0  0  0  0  0  0  0
    8.2306    0.9752   -1.9945 C   0  0  0  0  0  0  0  0  0  0  0  0
    8.5862   -0.1006   -2.4751 O   0  0  0  0  0  0  0  0  0  0  0  0
    8.9416    2.1611   -2.1300 N   0  0  0  0  0  0  0  0  0  0  0  0
   10.2114    2.1160   -2.8382 C   0  0  0  0  0  0  0  0  0  0  0  0
    8.7447    5.4478   -1.3157 H   0  0  0  0  0  0  0  0  0  0  0  0
    9.4068    4.8256   -2.8395 H   0  0  0  0  0  0  0  0  0  0  0  0
   10.2328    4.4844   -1.2923 H   0  0  0  0  0  0  0  0  0  0  0  0
    5.2307    4.7183   -1.5486 H   0  0  0  0  0  0  0  0  0  0  0  0
    4.3972    6.9006   -0.8728 H   0  0  0  0  0  0  0  0  0  0  0  0
    3.5401    8.3928    0.7843 H   0  0  0  0  0  0  0  0  0  0  0  0
    3.7120    7.8587    2.4428 H   0  0  0  0  0  0  0  0  0  0  0  0
   -0.1199    6.5689    2.6849 H   0  0  0  0  0  0  0  0  0  0  0  0
   -2.5049    6.6286    3.3050 H   0  0  0  0  0  0  0  0  0  0  0  0
   -4.1234    7.9057    1.9260 H   0  0  0  0  0  0  0  0  0  0  0  0
   -3.3569    9.1373   -0.0674 H   0  0  0  0  0  0  0  0  0  0  0  0
   -1.6425    9.6143   -1.4032 H   0  0  0  0  0  0  0  0  0  0  0  0
    3.0303    5.2353    2.8544 H   0  0  0  0  0  0  0  0  0  0  0  0
    3.9275    3.0520    2.2148 H   0  0  0  0  0  0  0  0  0  0  0  0
    3.6672    1.2185    0.7528 H   0  0  0  0  0  0  0  0  0  0  0  0
    4.5465   -0.9621    0.0570 H   0  0  0  0  0  0  0  0  0  0  0  0
    6.6300   -1.0982   -1.2803 H   0  0  0  0  0  0  0  0  0  0  0  0
   10.4620    1.1118   -3.1890 H   0  0  0  0  0  0  0  0  0  0  0  0
   11.0034    2.4576   -2.1651 H   0  0  0  0  0  0  0  0  0  0  0  0
   10.1669    2.7888   -3.6999 H   0  0  0  0  0  0  0  0  0  0  0  0
  1  2  1  0  0  0  0
  1 31  1  0  0  0  0
  1 32  1  0  0  0  0
  1 33  1  0  0  0  0
  2  3  2  0  0  0  0
  2 29  1  0  0  0  0
  3  4  1  0  0  0  0
  4  5  2  0  0  0  0
  4 26  1  0  0  0  0
  5  6  1  0  0  0  0
  5 23  1  0  0  0  0
  6  7  2  0  0  0  0
  6 22  1  0  0  0  0
  7  8  1  0  0  0  0
  7 34  1  0  0  0  0
  8  9  2  0  0  0  0
  8 35  1  0  0  0  0
  9 10  1  0  0  0  0
  9 21  1  0  0  0  0
 10 11  1  0  0  0  0
 10 36  1  0  0  0  0
 10 37  1  0  0  0  0
 11 12  1  0  0  0  0
 12 13  2  0  0  0  0
 12 14  1  0  0  0  0
 14 15  2  0  0  0  0
 14 19  1  0  0  0  0
 15 16  1  0  0  0  0
 15 38  1  0  0  0  0
 16 17  2  0  0  0  0
 16 39  1  0  0  0  0
 17 18  1  0  0  0  0
 17 40  1  0  0  0  0
 18 19  2  0  0  0  0
 18 41  1  0  0  0  0
 19 20  1  0  0  0  0
 20 42  1  0  0  0  0
 21 22  2  0  0  0  0
 21 43  1  0  0  0  0
 22 44  1  0  0  0  0
 23 24  2  0  0  0  0
 23 45  1  0  0  0  0
 24 25  1  0  0  0  0
 24 46  1  0  0  0  0
 25 26  2  0  0  0  0
 25 47  1  0  0  0  0
 26 27  1  0  0  0  0
 27 28  2  0  0  0  0
 27 29  1  0  0  0  0
 29 30  1  0  0  0  0
 30 48  1  0  0  0  0
 30 49  1  0  0  0  0
 30 50  1  0  0  0  0
M  END
$$$$
