
 OpenBabel01122422473D

 44 46  0  0  0  0  0  0  0  0999 V2000
    1.0250    0.0824   -0.0509 N   0  0  0  0  0  0  0  0  0  0  0  0
    2.2860    0.0824   -0.0509 C   0  0  0  0  0  0  0  0  0  0  0  0
    3.8060    0.0824   -0.0509 C   0  0  0  0  0  0  0  0  0  0  0  0
    4.4792    1.2569    0.0771 C   0  0  0  0  0  0  0  0  0  0  0  0
    3.8335    2.5010    0.1605 N   0  0  0  0  0  0  0  0  0  0  0  0
    4.3934    3.7908    0.2188 C   0  0  0  0  0  0  0  0  0  0  0  0
    5.6009    4.0327    0.1895 O   0  0  0  0  0  0  0  0  0  0  0  0
    3.3383    4.9393    0.3662 C   0  0  0  0  0  0  0  0  0  0  0  0
    2.0703    4.4406    0.2259 F   0  0  0  0  0  0  0  0  0  0  0  0
    3.3782    5.4535    1.6329 F   0  0  0  0  0  0  0  0  0  0  0  0
    3.5952    6.0533   -0.6158 C   0  0  0  0  0  0  0  0  0  0  0  0
    2.7214    6.5303   -1.5265 C   0  0  0  0  0  0  0  0  0  0  0  0
    2.9655    7.6776   -2.4240 C   0  0  0  0  0  0  0  0  0  0  0  0
    4.2389    8.0221   -2.8970 C   0  0  0  0  0  0  0  0  0  0  0  0
    4.4157    9.1214   -3.7467 C   0  0  0  0  0  0  0  0  0  0  0  0
    3.3196    9.8837   -4.1461 C   0  0  0  0  0  0  0  0  0  0  0  0
    2.0450    9.5415   -3.7031 C   0  0  0  0  0  0  0  0  0  0  0  0
    1.8693    8.4433   -2.8539 C   0  0  0  0  0  0  0  0  0  0  0  0
    5.9243    1.1828    0.1750 C   0  0  0  0  0  0  0  0  0  0  0  0
    6.5622    0.0078    0.1297 C   0  0  0  0  0  0  0  0  0  0  0  0
    5.8866   -1.1946    0.0105 N   0  0  0  0  0  0  0  0  0  0  0  0
    6.6003   -2.4261   -0.0636 C   0  0  0  0  0  0  0  0  0  0  0  0
    7.6873   -2.5552   -0.9374 C   0  0  0  0  0  0  0  0  0  0  0  0
    8.3078   -3.7944   -1.0969 C   0  0  0  0  0  0  0  0  0  0  0  0
    7.8787   -4.8945   -0.3544 C   0  0  0  0  0  0  0  0  0  0  0  0
    6.8322   -4.7589    0.5545 C   0  0  0  0  0  0  0  0  0  0  0  0
    6.1902   -3.5312    0.6944 C   0  0  0  0  0  0  0  0  0  0  0  0
    4.4911   -1.2348   -0.0861 C   0  0  0  0  0  0  0  0  0  0  0  0
    3.8056   -2.2461   -0.2333 O   0  0  0  0  0  0  0  0  0  0  0  0
    2.8113    2.5070    0.1639 H   0  0  0  0  0  0  0  0  0  0  0  0
    4.5721    6.5212   -0.5067 H   0  0  0  0  0  0  0  0  0  0  0  0
    1.7269    6.0912   -1.5924 H   0  0  0  0  0  0  0  0  0  0  0  0
    5.1140    7.4419   -2.6185 H   0  0  0  0  0  0  0  0  0  0  0  0
    5.4116    9.3827   -4.0964 H   0  0  0  0  0  0  0  0  0  0  0  0
    3.4589   10.7425   -4.7995 H   0  0  0  0  0  0  0  0  0  0  0  0
    1.1860   10.1320   -4.0138 H   0  0  0  0  0  0  0  0  0  0  0  0
    0.8627    8.2023   -2.5214 H   0  0  0  0  0  0  0  0  0  0  0  0
    6.5241    2.0696    0.3327 H   0  0  0  0  0  0  0  0  0  0  0  0
    7.6435   -0.0327    0.2438 H   0  0  0  0  0  0  0  0  0  0  0  0
    8.0067   -1.7223   -1.5563 H   0  0  0  0  0  0  0  0  0  0  0  0
    9.1068   -3.9086   -1.8238 H   0  0  0  0  0  0  0  0  0  0  0  0
    8.3512   -5.8631   -0.4943 H   0  0  0  0  0  0  0  0  0  0  0  0
    6.5007   -5.6108    1.1416 H   0  0  0  0  0  0  0  0  0  0  0  0
    5.3691   -3.4439    1.4030 H   0  0  0  0  0  0  0  0  0  0  0  0
  1  2  3  0  0  0  0
  2  3  1  0  0  0  0
  3  4  2  0  0  0  0
  3 28  1  0  0  0  0
  4  5  1  0  0  0  0
  4 19  1  0  0  0  0
  5  6  1  0  0  0  0
  5 30  1  0  0  0  0
  6  7  2  0  0  0  0
  6  8  1  0  0  0  0
  8  9  1  0  0  0  0
  8 10  1  0  0  0  0
  8 11  1  0  0  0  0
 11 12  2  0  0  0  0
 11 31  1  0  0  0  0
 12 13  1  0  0  0  0
 12 32  1  0  0  0  0
 13 14  2  0  0  0  0
 13 18  1  0  0  0  0
 14 15  1  0  0  0  0
 14 33  1  0  0  0  0
 15 16  2  0  0  0  0
 15 34  1  0  0  0  0
 16 17  1  0  0  0  0
 16 35  1  0  0  0  0
 17 18  2  0  0  0  0
 17 36  1  0  0  0  0
 18 37  1  0  0  0  0
 19 20  2  0  0  0  0
 19 38  1  0  0  0  0
 20 21  1  0  0  0  0
 20 39  1  0  0  0  0
 21 22  1  0  0  0  0
 21 28  1  0  0  0  0
 22 23  2  0  0  0  0
 22 27  1  0  0  0  0
 23 24  1  0  0  0  0
 23 40  1  0  0  0  0
 24 25  2  0  0  0  0
 24 41  1  0  0  0  0
 25 26  1  0  0  0  0
 25 42  1  0  0  0  0
 26 27  2  0  0  0  0
 26 43  1  0  0  0  0
 27 44  1  0  0  0  0
 28 29  2  0  0  0  0
M  END
$$$$
