
 OpenBabel01122422473D

 45 47  0  0  0  0  0  0  0  0999 V2000
   -5.7355    3.3479    2.8273 C   0  0  0  0  0  0  0  0  0  0  0  0
   -4.7974    2.3987    2.1402 C   0  0  0  0  0  0  0  0  0  0  0  0
   -3.7328    2.8847    1.3648 C   0  0  0  0  0  0  0  0  0  0  0  0
   -2.8177    2.0159    0.7682 C   0  0  0  0  0  0  0  0  0  0  0  0
   -1.6816    2.4573    0.0398 N   0  0  0  0  0  0  0  0  0  0  0  0
   -1.3730    3.7645   -0.3296 C   0  0  0  0  0  0  0  0  0  0  0  0
   -2.0861    4.7514   -0.1898 O   0  0  0  0  0  0  0  0  0  0  0  0
   -0.0848    3.9505   -1.0640 C   0  0  0  0  0  0  0  0  0  0  0  0
    0.2737    2.9969   -2.0347 C   0  0  0  0  0  0  0  0  0  0  0  0
    1.4171    3.1799   -2.8085 C   0  0  0  0  0  0  0  0  0  0  0  0
    1.7269    2.2718   -3.7424 F   0  0  0  0  0  0  0  0  0  0  0  0
    2.2203    4.2952   -2.6301 C   0  0  0  0  0  0  0  0  0  0  0  0
    3.3099    4.4749   -3.3869 F   0  0  0  0  0  0  0  0  0  0  0  0
    1.8917    5.2471   -1.6772 C   0  0  0  0  0  0  0  0  0  0  0  0
    0.7178    5.1054   -0.9129 C   0  0  0  0  0  0  0  0  0  0  0  0
    0.4477    6.1683    0.0920 C   0  0  0  0  0  0  0  0  0  0  0  0
    0.2592    5.8250    1.2555 O   0  0  0  0  0  0  0  0  0  0  0  0
    0.5769    7.6207   -0.2688 C   0  0  0  0  0  0  0  0  0  0  0  0
    0.8396    8.5468    0.7498 C   0  0  0  0  0  0  0  0  0  0  0  0
    1.0566    9.8952    0.4446 C   0  0  0  0  0  0  0  0  0  0  0  0
    1.0163   10.3283   -0.8803 C   0  0  0  0  0  0  0  0  0  0  0  0
    0.7363    9.4205   -1.8983 C   0  0  0  0  0  0  0  0  0  0  0  0
    0.4992    8.0753   -1.5942 C   0  0  0  0  0  0  0  0  0  0  0  0
   -3.0061    0.6344    0.9304 C   0  0  0  0  0  0  0  0  0  0  0  0
   -4.0856    0.1264    1.6796 C   0  0  0  0  0  0  0  0  0  0  0  0
   -4.2273   -1.3544    1.7962 C   0  0  0  0  0  0  0  0  0  0  0  0
   -5.2849   -1.8695    2.4942 N   0  0  0  0  0  0  0  0  0  0  0  0
   -3.4166   -2.1136    1.2709 O   0  0  0  0  0  0  0  0  0  0  0  0
   -4.9713    1.0182    2.2915 C   0  0  0  0  0  0  0  0  0  0  0  0
   -5.4480    4.3904    2.6571 H   0  0  0  0  0  0  0  0  0  0  0  0
   -5.7202    3.1699    3.9074 H   0  0  0  0  0  0  0  0  0  0  0  0
   -6.7549    3.2099    2.4520 H   0  0  0  0  0  0  0  0  0  0  0  0
   -3.6195    3.9602    1.2666 H   0  0  0  0  0  0  0  0  0  0  0  0
   -1.0284    1.7247   -0.2040 H   0  0  0  0  0  0  0  0  0  0  0  0
   -0.3434    2.1274   -2.2409 H   0  0  0  0  0  0  0  0  0  0  0  0
    2.5581    6.0976   -1.5476 H   0  0  0  0  0  0  0  0  0  0  0  0
    0.8913    8.2215    1.7872 H   0  0  0  0  0  0  0  0  0  0  0  0
    1.2652   10.6069    1.2399 H   0  0  0  0  0  0  0  0  0  0  0  0
    1.1975   11.3747   -1.1176 H   0  0  0  0  0  0  0  0  0  0  0  0
    0.7032    9.7590   -2.9317 H   0  0  0  0  0  0  0  0  0  0  0  0
    0.2659    7.4002   -2.4122 H   0  0  0  0  0  0  0  0  0  0  0  0
   -2.3162   -0.0708    0.4700 H   0  0  0  0  0  0  0  0  0  0  0  0
   -6.0218   -1.3356    2.9267 H   0  0  0  0  0  0  0  0  0  0  0  0
   -5.3531   -2.8790    2.5373 H   0  0  0  0  0  0  0  0  0  0  0  0
   -5.7966    0.6696    2.9020 H   0  0  0  0  0  0  0  0  0  0  0  0
  1  2  1  0  0  0  0
  1 30  1  0  0  0  0
  1 31  1  0  0  0  0
  1 32  1  0  0  0  0
  2  3  2  0  0  0  0
  2 29  1  0  0  0  0
  3  4  1  0  0  0  0
  3 33  1  0  0  0  0
  4  5  1  0  0  0  0
  4 24  2  0  0  0  0
  5  6  1  0  0  0  0
  5 34  1  0  0  0  0
  6  7  2  0  0  0  0
  6  8  1  0  0  0  0
  8  9  2  0  0  0  0
  8 15  1  0  0  0  0
  9 10  1  0  0  0  0
  9 35  1  0  0  0  0
 10 11  1  0  0  0  0
 10 12  2  0  0  0  0
 12 13  1  0  0  0  0
 12 14  1  0  0  0  0
 14 15  2  0  0  0  0
 14 36  1  0  0  0  0
 15 16  1  0  0  0  0
 16 17  2  0  0  0  0
 16 18  1  0  0  0  0
 18 19  2  0  0  0  0
 18 23  1  0  0  0  0
 19 20  1  0  0  0  0
 19 37  1  0  0  0  0
 20 21  2  0  0  0  0
 20 38  1  0  0  0  0
 21 22  1  0  0  0  0
 21 39  1  0  0  0  0
 22 23  2  0  0  0  0
 22 40  1  0  0  0  0
 23 41  1  0  0  0  0
 24 25  1  0  0  0  0
 24 42  1  0  0  0  0
 25 26  1  0  0  0  0
 25 29  2  0  0  0  0
 26 27  1  0  0  0  0
 26 28  2  0  0  0  0
 27 43  1  0  0  0  0
 27 44  1  0  0  0  0
 29 45  1  0  0  0  0
M  END
$$$$
