
 OpenBabel01122422473D

 50 53  0  0  1  0  0  0  0  0999 V2000
    3.1208    2.5391   -0.5480 O   0  0  0  0  0  0  0  0  0  0  0  0
    3.4420    1.3953   -0.2526 C   0  0  0  0  0  0  0  0  0  0  0  0
    3.1151    0.7576    0.9223 N   0  0  0  0  0  0  0  0  0  0  0  0
    2.4093    1.4490    1.9945 C   0  0  3  0  0  0  0  0  0  0  0  0
    1.4839    0.5248    2.8203 C   0  0  0  0  0  0  0  0  0  0  0  0
    0.4182   -0.1536    1.9915 C   0  0  0  0  0  0  0  0  0  0  0  0
    0.6419   -1.4371    1.4749 C   0  0  0  0  0  0  0  0  0  0  0  0
   -0.3120   -2.0482    0.6614 C   0  0  0  0  0  0  0  0  0  0  0  0
   -1.5008   -1.3859    0.3628 C   0  0  0  0  0  0  0  0  0  0  0  0
   -1.7424   -0.1175    0.8878 C   0  0  0  0  0  0  0  0  0  0  0  0
   -0.7876    0.4980    1.6990 C   0  0  0  0  0  0  0  0  0  0  0  0
    3.4129    2.1446    2.9004 C   0  0  0  0  0  0  0  0  0  0  0  0
    3.3843    3.5358    3.0474 C   0  0  0  0  0  0  0  0  0  0  0  0
    4.3175    4.1393    3.8761 C   0  0  0  0  0  0  0  0  0  0  0  0
    5.2629    3.4627    4.5617 N   0  0  0  0  0  0  0  0  0  0  0  0
    5.2812    2.1230    4.4058 C   0  0  0  0  0  0  0  0  0  0  0  0
    4.3915    1.4284    3.6006 C   0  0  0  0  0  0  0  0  0  0  0  0
    4.2976    0.5681   -1.2200 C   0  0  0  0  0  0  0  0  0  0  0  0
    4.5577   -0.6681   -0.9221 N   0  0  0  0  0  0  0  0  0  0  0  0
    5.3826   -1.3860   -1.7886 N   0  0  0  0  0  0  0  0  0  0  0  0
    5.6546   -2.7247   -1.3463 C   0  0  0  0  0  0  0  0  0  0  0  0
    6.7711   -3.4504   -1.7873 C   0  0  0  0  0  0  0  0  0  0  0  0
    7.0330   -4.7406   -1.3121 C   0  0  0  0  0  0  0  0  0  0  0  0
    6.1733   -5.3373   -0.3962 C   0  0  0  0  0  0  0  0  0  0  0  0
    5.0505   -4.6449    0.0446 C   0  0  0  0  0  0  0  0  0  0  0  0
    4.7993   -3.3497   -0.4204 C   0  0  0  0  0  0  0  0  0  0  0  0
    5.9334   -0.8336   -2.9558 C   0  0  0  0  0  0  0  0  0  0  0  0
    6.6558   -1.3891   -3.7825 O   0  0  0  0  0  0  0  0  0  0  0  0
    5.5611    0.5683   -3.2451 C   0  0  0  0  0  0  0  0  0  0  0  0
    4.7741    1.2644   -2.4258 C   0  0  0  0  0  0  0  0  0  0  0  0
    3.5369   -0.1504    1.0834 H   0  0  0  0  0  0  0  0  0  0  0  0
    1.7794    2.2135    1.5210 H   0  0  0  0  0  0  0  0  0  0  0  0
    0.9913    1.1101    3.6102 H   0  0  0  0  0  0  0  0  0  0  0  0
    2.0631   -0.2441    3.3483 H   0  0  0  0  0  0  0  0  0  0  0  0
    1.5642   -1.9676    1.6972 H   0  0  0  0  0  0  0  0  0  0  0  0
   -0.1249   -3.0384    0.2563 H   0  0  0  0  0  0  0  0  0  0  0  0
   -2.2388   -1.8588   -0.2797 H   0  0  0  0  0  0  0  0  0  0  0  0
   -2.6736    0.3946    0.6591 H   0  0  0  0  0  0  0  0  0  0  0  0
   -0.9922    1.4899    2.0962 H   0  0  0  0  0  0  0  0  0  0  0  0
    2.6572    4.1466    2.5210 H   0  0  0  0  0  0  0  0  0  0  0  0
    4.3295    5.2167    4.0128 H   0  0  0  0  0  0  0  0  0  0  0  0
    6.0559    1.6031    4.9610 H   0  0  0  0  0  0  0  0  0  0  0  0
    4.4715    0.3495    3.5232 H   0  0  0  0  0  0  0  0  0  0  0  0
    7.4909   -3.0253   -2.4812 H   0  0  0  0  0  0  0  0  0  0  0  0
    7.9165   -5.2718   -1.6579 H   0  0  0  0  0  0  0  0  0  0  0  0
    6.3791   -6.3391   -0.0288 H   0  0  0  0  0  0  0  0  0  0  0  0
    4.3664   -5.1111    0.7486 H   0  0  0  0  0  0  0  0  0  0  0  0
    3.9027   -2.8445   -0.0727 H   0  0  0  0  0  0  0  0  0  0  0  0
    5.9575    0.9903   -4.1596 H   0  0  0  0  0  0  0  0  0  0  0  0
    4.4804    2.2876   -2.6159 H   0  0  0  0  0  0  0  0  0  0  0  0
  1  2  2  0  0  0  0
  2  3  1  0  0  0  0
  2 18  1  0  0  0  0
  3  4  1  0  0  0  0
  3 31  1  0  0  0  0
  4  5  1  0  0  0  0
  4 12  1  0  0  0  0
  4 32  1  0  0  0  0
  5  6  1  0  0  0  0
  5 33  1  0  0  0  0
  5 34  1  0  0  0  0
  6  7  2  0  0  0  0
  6 11  1  0  0  0  0
  7  8  1  0  0  0  0
  7 35  1  0  0  0  0
  8  9  2  0  0  0  0
  8 36  1  0  0  0  0
  9 10  1  0  0  0  0
  9 37  1  0  0  0  0
 10 11  2  0  0  0  0
 10 38  1  0  0  0  0
 11 39  1  0  0  0  0
 12 13  2  0  0  0  0
 12 17  1  0  0  0  0
 13 14  1  0  0  0  0
 13 40  1  0  0  0  0
 14 15  2  0  0  0  0
 14 41  1  0  0  0  0
 15 16  1  0  0  0  0
 16 17  2  0  0  0  0
 16 42  1  0  0  0  0
 17 43  1  0  0  0  0
 18 19  2  0  0  0  0
 18 30  1  0  0  0  0
 19 20  1  0  0  0  0
 20 21  1  0  0  0  0
 20 27  1  0  0  0  0
 21 22  2  0  0  0  0
 21 26  1  0  0  0  0
 22 23  1  0  0  0  0
 22 44  1  0  0  0  0
 23 24  2  0  0  0  0
 23 45  1  0  0  0  0
 24 25  1  0  0  0  0
 24 46  1  0  0  0  0
 25 26  2  0  0  0  0
 25 47  1  0  0  0  0
 26 48  1  0  0  0  0
 27 28  2  0  0  0  0
 27 29  1  0  0  0  0
 29 30  2  0  0  0  0
 29 49  1  0  0  0  0
 30 50  1  0  0  0  0
M  END
$$$$
