
 OpenBabel01122422473D

 43 46  0  0  0  0  0  0  0  0999 V2000
    1.3077   -0.5750   -0.3203 O   0  0  0  0  0  0  0  0  0  0  0  0
    2.3922   -0.0687   -0.0466 C   0  0  0  0  0  0  0  0  0  0  0  0
    2.7234    0.5481    1.1511 N   0  0  0  0  0  0  0  0  0  0  0  0
    1.9960    0.6275    2.3205 C   0  0  0  0  0  0  0  0  0  0  0  0
    0.7242    0.2276    2.4771 C   0  0  0  0  0  0  0  0  0  0  0  0
    0.0777    0.3258    3.7579 C   0  0  0  0  0  0  0  0  0  0  0  0
    0.7264    0.8427    4.8078 C   0  0  0  0  0  0  0  0  0  0  0  0
    2.0422    1.2801    4.7130 N   0  0  0  0  0  0  0  0  0  0  0  0
    2.6741    1.8976    5.8388 C   0  0  0  0  0  0  0  0  0  0  0  0
    1.9989    2.8959    6.5568 C   0  0  0  0  0  0  0  0  0  0  0  0
    2.6327    3.5728    7.6038 C   0  0  0  0  0  0  0  0  0  0  0  0
    3.9290    3.2274    7.9736 C   0  0  0  0  0  0  0  0  0  0  0  0
    4.5949    2.2067    7.2998 C   0  0  0  0  0  0  0  0  0  0  0  0
    3.9767    1.5535    6.2288 C   0  0  0  0  0  0  0  0  0  0  0  0
    2.7582    1.1778    3.5094 C   0  0  0  0  0  0  0  0  0  0  0  0
    3.9219    1.5340    3.3226 O   0  0  0  0  0  0  0  0  0  0  0  0
    3.5672   -0.3076   -0.9413 C   0  0  0  0  0  0  0  0  0  0  0  0
    3.6619   -1.6246   -1.4048 C   0  0  0  0  0  0  0  0  0  0  0  0
    4.9077   -2.2267   -1.4548 C   0  0  0  0  0  0  0  0  0  0  0  0
    6.0394   -1.4919   -1.1102 C   0  0  0  0  0  0  0  0  0  0  0  0
    5.9652   -0.0989   -0.9640 C   0  0  0  0  0  0  0  0  0  0  0  0
    7.1363    0.6680   -0.8804 C   0  0  0  0  0  0  0  0  0  0  0  0
    7.0593    2.0556   -0.8325 C   0  0  0  0  0  0  0  0  0  0  0  0
    8.1858    2.8227   -0.8673 O   0  0  0  0  0  0  0  0  0  0  0  0
    5.8331    2.7007   -0.7846 C   0  0  0  0  0  0  0  0  0  0  0  0
    4.6594    1.9461   -0.8045 C   0  0  0  0  0  0  0  0  0  0  0  0
    4.7067    0.5319   -0.9077 C   0  0  0  0  0  0  0  0  0  0  0  0
    3.6931    0.8523    1.2817 H   0  0  0  0  0  0  0  0  0  0  0  0
    0.1424   -0.1818    1.6668 H   0  0  0  0  0  0  0  0  0  0  0  0
   -0.9400   -0.0412    3.8474 H   0  0  0  0  0  0  0  0  0  0  0  0
    0.2485    0.8943    5.7837 H   0  0  0  0  0  0  0  0  0  0  0  0
    1.0014    3.2081    6.2589 H   0  0  0  0  0  0  0  0  0  0  0  0
    2.1159    4.3829    8.1091 H   0  0  0  0  0  0  0  0  0  0  0  0
    4.4214    3.7615    8.7806 H   0  0  0  0  0  0  0  0  0  0  0  0
    5.6023    1.9267    7.5976 H   0  0  0  0  0  0  0  0  0  0  0  0
    4.5179    0.7616    5.7148 H   0  0  0  0  0  0  0  0  0  0  0  0
    2.7648   -2.2148   -1.5787 H   0  0  0  0  0  0  0  0  0  0  0  0
    4.9889   -3.2842   -1.6888 H   0  0  0  0  0  0  0  0  0  0  0  0
    6.9864   -2.0114   -0.9911 H   0  0  0  0  0  0  0  0  0  0  0  0
    8.1027    0.1750   -0.9000 H   0  0  0  0  0  0  0  0  0  0  0  0
    8.9438    2.2495   -1.0708 H   0  0  0  0  0  0  0  0  0  0  0  0
    5.7910    3.7863   -0.7481 H   0  0  0  0  0  0  0  0  0  0  0  0
    3.7046    2.4711   -0.7883 H   0  0  0  0  0  0  0  0  0  0  0  0
  1  2  2  0  0  0  0
  2  3  1  0  0  0  0
  2 17  1  0  0  0  0
  3  4  1  0  0  0  0
  3 28  1  0  0  0  0
  4  5  2  0  0  0  0
  4 15  1  0  0  0  0
  5  6  1  0  0  0  0
  5 29  1  0  0  0  0
  6  7  2  0  0  0  0
  6 30  1  0  0  0  0
  7  8  1  0  0  0  0
  7 31  1  0  0  0  0
  8  9  1  0  0  0  0
  8 15  1  0  0  0  0
  9 10  2  0  0  0  0
  9 14  1  0  0  0  0
 10 11  1  0  0  0  0
 10 32  1  0  0  0  0
 11 12  2  0  0  0  0
 11 33  1  0  0  0  0
 12 13  1  0  0  0  0
 12 34  1  0  0  0  0
 13 14  2  0  0  0  0
 13 35  1  0  0  0  0
 14 36  1  0  0  0  0
 15 16  2  0  0  0  0
 17 18  2  0  0  0  0
 17 27  1  0  0  0  0
 18 19  1  0  0  0  0
 18 37  1  0  0  0  0
 19 20  2  0  0  0  0
 19 38  1  0  0  0  0
 20 21  1  0  0  0  0
 20 39  1  0  0  0  0
 21 22  2  0  0  0  0
 21 27  1  0  0  0  0
 22 23  1  0  0  0  0
 22 40  1  0  0  0  0
 23 24  1  0  0  0  0
 23 25  2  0  0  0  0
 24 41  1  0  0  0  0
 25 26  1  0  0  0  0
 25 42  1  0  0  0  0
 26 27  2  0  0  0  0
 26 43  1  0  0  0  0
M  END
$$$$
