
 OpenBabel01122422473D

 44 46  0  0  0  0  0  0  0  0999 V2000
   -3.0166    0.3433   -0.1225 N   0  0  0  0  0  0  0  0  0  0  0  0
   -1.8598    0.2551   -0.0831 C   0  0  0  0  0  0  0  0  0  0  0  0
   -0.4291    0.1478   -0.0292 C   0  0  0  0  0  0  0  0  0  0  0  0
    0.1701   -1.1258   -0.0093 C   0  0  0  0  0  0  0  0  0  0  0  0
    1.5639   -1.2588    0.0614 C   0  0  0  0  0  0  0  0  0  0  0  0
    2.2538   -2.5722    0.1057 C   0  0  0  0  0  0  0  0  0  0  0  0
    3.5323   -2.7373   -0.4684 C   0  0  0  0  0  0  0  0  0  0  0  0
    4.2425   -3.9345   -0.3563 C   0  0  0  0  0  0  0  0  0  0  0  0
    3.6774   -5.0123    0.3124 C   0  0  0  0  0  0  0  0  0  0  0  0
    2.4036   -4.8915    0.8614 C   0  0  0  0  0  0  0  0  0  0  0  0
    1.7009   -3.6841    0.7618 C   0  0  0  0  0  0  0  0  0  0  0  0
    2.3217   -0.0723    0.1105 C   0  0  0  0  0  0  0  0  0  0  0  0
    1.7517    1.2018    0.0653 C   0  0  0  0  0  0  0  0  0  0  0  0
    2.5266    2.3855    0.0755 N   0  0  0  0  0  0  0  0  0  0  0  0
    3.9145    2.4682    0.0809 C   0  0  0  0  0  0  0  0  0  0  0  0
    4.7077    1.5321    0.1614 O   0  0  0  0  0  0  0  0  0  0  0  0
    4.4424    3.8988    0.0785 C   0  0  0  0  0  0  0  0  0  0  0  0
    4.6440    4.3306    1.4445 N   0  0  0  0  0  0  0  0  0  0  0  0
    3.6502    4.9561    2.1574 C   0  0  0  0  0  0  0  0  0  0  0  0
    2.5642    5.2301    1.6539 O   0  0  0  0  0  0  0  0  0  0  0  0
    3.9305    5.2717    3.5879 C   0  0  0  0  0  0  0  0  0  0  0  0
    2.9613    5.9708    4.3249 C   0  0  0  0  0  0  0  0  0  0  0  0
    3.1780    6.2610    5.6756 C   0  0  0  0  0  0  0  0  0  0  0  0
    4.3596    5.8541    6.2867 C   0  0  0  0  0  0  0  0  0  0  0  0
    4.5583    6.1207    7.5834 F   0  0  0  0  0  0  0  0  0  0  0  0
    5.3351    5.1738    5.5734 C   0  0  0  0  0  0  0  0  0  0  0  0
    5.1157    4.8900    4.2288 C   0  0  0  0  0  0  0  0  0  0  0  0
    6.0781    4.2287    3.5671 F   0  0  0  0  0  0  0  0  0  0  0  0
    0.3623    1.3036    0.0034 C   0  0  0  0  0  0  0  0  0  0  0  0
   -0.4606   -2.0100   -0.0553 H   0  0  0  0  0  0  0  0  0  0  0  0
    4.0086   -1.9189   -1.0064 H   0  0  0  0  0  0  0  0  0  0  0  0
    5.2385   -4.0130   -0.7843 H   0  0  0  0  0  0  0  0  0  0  0  0
    4.2308   -5.9422    0.4087 H   0  0  0  0  0  0  0  0  0  0  0  0
    1.9599   -5.7340    1.3852 H   0  0  0  0  0  0  0  0  0  0  0  0
    0.7245   -3.6203    1.2358 H   0  0  0  0  0  0  0  0  0  0  0  0
    3.3957   -0.1748    0.2149 H   0  0  0  0  0  0  0  0  0  0  0  0
    2.0245    3.2692    0.1204 H   0  0  0  0  0  0  0  0  0  0  0  0
    3.7660    4.5706   -0.4566 H   0  0  0  0  0  0  0  0  0  0  0  0
    5.4155    3.9075   -0.4229 H   0  0  0  0  0  0  0  0  0  0  0  0
    5.4492    3.9506    1.9344 H   0  0  0  0  0  0  0  0  0  0  0  0
    2.0338    6.2898    3.8519 H   0  0  0  0  0  0  0  0  0  0  0  0
    2.4315    6.7971    6.2548 H   0  0  0  0  0  0  0  0  0  0  0  0
    6.2539    4.8625    6.0575 H   0  0  0  0  0  0  0  0  0  0  0  0
   -0.1179    2.2806   -0.0242 H   0  0  0  0  0  0  0  0  0  0  0  0
  1  2  3  0  0  0  0
  2  3  1  0  0  0  0
  3  4  2  0  0  0  0
  3 29  1  0  0  0  0
  4  5  1  0  0  0  0
  4 30  1  0  0  0  0
  5  6  1  0  0  0  0
  5 12  2  0  0  0  0
  6  7  2  0  0  0  0
  6 11  1  0  0  0  0
  7  8  1  0  0  0  0
  7 31  1  0  0  0  0
  8  9  2  0  0  0  0
  8 32  1  0  0  0  0
  9 10  1  0  0  0  0
  9 33  1  0  0  0  0
 10 11  2  0  0  0  0
 10 34  1  0  0  0  0
 11 35  1  0  0  0  0
 12 13  1  0  0  0  0
 12 36  1  0  0  0  0
 13 14  1  0  0  0  0
 13 29  2  0  0  0  0
 14 15  1  0  0  0  0
 14 37  1  0  0  0  0
 15 16  2  0  0  0  0
 15 17  1  0  0  0  0
 17 18  1  0  0  0  0
 17 38  1  0  0  0  0
 17 39  1  0  0  0  0
 18 19  1  0  0  0  0
 18 40  1  0  0  0  0
 19 20  2  0  0  0  0
 19 21  1  0  0  0  0
 21 22  2  0  0  0  0
 21 27  1  0  0  0  0
 22 23  1  0  0  0  0
 22 41  1  0  0  0  0
 23 24  2  0  0  0  0
 23 42  1  0  0  0  0
 24 25  1  0  0  0  0
 24 26  1  0  0  0  0
 26 27  2  0  0  0  0
 26 43  1  0  0  0  0
 27 28  1  0  0  0  0
 29 44  1  0  0  0  0
M  END
$$$$
