
 OpenBabel01122422473D

 56 59  0  0  0  0  0  0  0  0999 V2000
    2.8648    0.6942   -0.7398 O   0  0  0  0  0  0  0  0  0  0  0  0
    2.3248    0.1851    0.2430 C   0  0  0  0  0  0  0  0  0  0  0  0
    0.8175    0.2205    0.4731 C   0  0  0  0  0  0  0  0  0  0  0  0
    0.1740   -0.9351   -0.0411 O   0  0  0  0  0  0  0  0  0  0  0  0
   -0.6061   -1.6482    0.8278 C   0  0  0  0  0  0  0  0  0  0  0  0
   -1.1846   -1.1417    1.9944 C   0  0  0  0  0  0  0  0  0  0  0  0
   -1.8428   -1.9927    2.8796 C   0  0  0  0  0  0  0  0  0  0  0  0
   -1.9854   -3.3398    2.5676 C   0  0  0  0  0  0  0  0  0  0  0  0
   -1.5413   -3.8233    1.3346 C   0  0  0  0  0  0  0  0  0  0  0  0
   -1.7162   -5.1320    0.9412 O   0  0  0  0  0  0  0  0  0  0  0  0
   -2.9447   -5.7271    1.2188 C   0  0  0  0  0  0  0  0  0  0  0  0
   -2.9595   -7.1104    1.3128 C   0  0  0  0  0  0  0  0  0  0  0  0
   -4.1673   -7.7368    1.6116 C   0  0  0  0  0  0  0  0  0  0  0  0
   -5.3096   -6.9655    1.8014 C   0  0  0  0  0  0  0  0  0  0  0  0
   -5.2016   -5.5920    1.6700 C   0  0  0  0  0  0  0  0  0  0  0  0
   -4.0503   -4.9591    1.3689 N   0  0  0  0  0  0  0  0  0  0  0  0
   -0.8235   -2.9843    0.4792 C   0  0  0  0  0  0  0  0  0  0  0  0
    3.0320   -0.3870    1.2796 N   0  0  0  0  0  0  0  0  0  0  0  0
    4.4721   -0.4309    1.2737 C   0  0  0  0  0  0  0  0  0  0  0  0
    4.9264   -0.5504    2.6799 C   0  0  0  0  0  0  0  0  0  0  0  0
    5.1410   -1.6857    3.4388 C   0  0  0  0  0  0  0  0  0  0  0  0
    5.6148   -1.2214    4.6735 C   0  0  0  0  0  0  0  0  0  0  0  0
    5.6940    0.1071    4.7148 N   0  0  0  0  0  0  0  0  0  0  0  0
    5.2359    0.5059    3.5078 N   0  0  0  0  0  0  0  0  0  0  0  0
    5.2363    1.9324    3.2277 C   0  0  0  0  0  0  0  0  0  0  0  0
    3.8715    2.5668    2.9414 C   0  0  0  0  0  0  0  0  0  0  0  0
    2.7652    2.3671    3.9529 C   0  0  0  0  0  0  0  0  0  0  0  0
    3.0021    2.2818    5.3299 C   0  0  0  0  0  0  0  0  0  0  0  0
    1.9416    2.1205    6.2261 C   0  0  0  0  0  0  0  0  0  0  0  0
    0.6312    2.0476    5.7596 C   0  0  0  0  0  0  0  0  0  0  0  0
    0.3769    2.1564    4.3964 C   0  0  0  0  0  0  0  0  0  0  0  0
    1.4355    2.3340    3.5042 C   0  0  0  0  0  0  0  0  0  0  0  0
    0.4104    1.1086   -0.0212 H   0  0  0  0  0  0  0  0  0  0  0  0
    0.6880    0.3632    1.5472 H   0  0  0  0  0  0  0  0  0  0  0  0
   -1.1451   -0.0888    2.2506 H   0  0  0  0  0  0  0  0  0  0  0  0
   -2.2537   -1.6056    3.8075 H   0  0  0  0  0  0  0  0  0  0  0  0
   -2.4893   -3.9961    3.2712 H   0  0  0  0  0  0  0  0  0  0  0  0
   -2.0517   -7.6849    1.1709 H   0  0  0  0  0  0  0  0  0  0  0  0
   -4.2159   -8.8183    1.7004 H   0  0  0  0  0  0  0  0  0  0  0  0
   -6.2624   -7.4223    2.0445 H   0  0  0  0  0  0  0  0  0  0  0  0
   -6.0605   -4.9425    1.8134 H   0  0  0  0  0  0  0  0  0  0  0  0
   -0.4337   -3.3691   -0.4595 H   0  0  0  0  0  0  0  0  0  0  0  0
    2.5383   -0.9765    1.9385 H   0  0  0  0  0  0  0  0  0  0  0  0
    4.8849    0.4505    0.7751 H   0  0  0  0  0  0  0  0  0  0  0  0
    4.7697   -1.3120    0.6936 H   0  0  0  0  0  0  0  0  0  0  0  0
    4.9945   -2.7109    3.1297 H   0  0  0  0  0  0  0  0  0  0  0  0
    5.9173   -1.7932    5.5413 H   0  0  0  0  0  0  0  0  0  0  0  0
    5.9088    2.0874    2.3759 H   0  0  0  0  0  0  0  0  0  0  0  0
    5.7028    2.4362    4.0839 H   0  0  0  0  0  0  0  0  0  0  0  0
    3.5261    2.2128    1.9647 H   0  0  0  0  0  0  0  0  0  0  0  0
    4.0155    3.6494    2.8289 H   0  0  0  0  0  0  0  0  0  0  0  0
    4.0119    2.3333    5.7314 H   0  0  0  0  0  0  0  0  0  0  0  0
    2.1428    2.0522    7.2923 H   0  0  0  0  0  0  0  0  0  0  0  0
   -0.1895    1.9186    6.4599 H   0  0  0  0  0  0  0  0  0  0  0  0
   -0.6450    2.1151    4.0296 H   0  0  0  0  0  0  0  0  0  0  0  0
    1.2160    2.4536    2.4466 H   0  0  0  0  0  0  0  0  0  0  0  0
  1  2  2  0  0  0  0
  2  3  1  0  0  0  0
  2 18  1  0  0  0  0
  3  4  1  0  0  0  0
  3 33  1  0  0  0  0
  3 34  1  0  0  0  0
  4  5  1  0  0  0  0
  5  6  2  0  0  0  0
  5 17  1  0  0  0  0
  6  7  1  0  0  0  0
  6 35  1  0  0  0  0
  7  8  2  0  0  0  0
  7 36  1  0  0  0  0
  8  9  1  0  0  0  0
  8 37  1  0  0  0  0
  9 10  1  0  0  0  0
  9 17  2  0  0  0  0
 10 11  1  0  0  0  0
 11 12  2  0  0  0  0
 11 16  1  0  0  0  0
 12 13  1  0  0  0  0
 12 38  1  0  0  0  0
 13 14  2  0  0  0  0
 13 39  1  0  0  0  0
 14 15  1  0  0  0  0
 14 40  1  0  0  0  0
 15 16  2  0  0  0  0
 15 41  1  0  0  0  0
 17 42  1  0  0  0  0
 18 19  1  0  0  0  0
 18 43  1  0  0  0  0
 19 20  1  0  0  0  0
 19 44  1  0  0  0  0
 19 45  1  0  0  0  0
 20 21  2  0  0  0  0
 20 24  1  0  0  0  0
 21 22  1  0  0  0  0
 21 46  1  0  0  0  0
 22 23  2  0  0  0  0
 22 47  1  0  0  0  0
 23 24  1  0  0  0  0
 24 25  1  0  0  0  0
 25 26  1  0  0  0  0
 25 48  1  0  0  0  0
 25 49  1  0  0  0  0
 26 27  1  0  0  0  0
 26 50  1  0  0  0  0
 26 51  1  0  0  0  0
 27 28  2  0  0  0  0
 27 32  1  0  0  0  0
 28 29  1  0  0  0  0
 28 52  1  0  0  0  0
 29 30  2  0  0  0  0
 29 53  1  0  0  0  0
 30 31  1  0  0  0  0
 30 54  1  0  0  0  0
 31 32  2  0  0  0  0
 31 55  1  0  0  0  0
 32 56  1  0  0  0  0
M  END
$$$$
