
 OpenBabel01122422473D

 44 47  0  0  0  0  0  0  0  0999 V2000
    1.0596    0.0891   -0.0954 O   0  0  0  0  0  0  0  0  0  0  0  0
    2.2874    0.1144   -0.0155 C   0  0  0  0  0  0  0  0  0  0  0  0
    2.9999   -0.7415    1.0157 C   0  0  0  0  0  0  0  0  0  0  0  0
    3.3244   -2.1604    0.5980 C   0  0  0  0  0  0  0  0  0  0  0  0
    4.4180   -2.8013    1.1984 C   0  0  0  0  0  0  0  0  0  0  0  0
    4.7119   -4.1416    0.9273 C   0  0  0  0  0  0  0  0  0  0  0  0
    3.9092   -4.8735    0.0452 C   0  0  0  0  0  0  0  0  0  0  0  0
    4.1931   -6.2391   -0.2429 N   0  0  0  0  0  0  0  0  0  0  0  0
    5.1894   -7.0316    0.2943 C   0  0  0  0  0  0  0  0  0  0  0  0
    5.1112   -8.2593   -0.3170 C   0  0  0  0  0  0  0  0  0  0  0  0
    4.0290   -8.1412   -1.1985 C   0  0  0  0  0  0  0  0  0  0  0  0
    3.4587   -6.9362   -1.1514 N   0  0  0  0  0  0  0  0  0  0  0  0
    2.8106   -4.2442   -0.5565 C   0  0  0  0  0  0  0  0  0  0  0  0
    2.5151   -2.9023   -0.2720 C   0  0  0  0  0  0  0  0  0  0  0  0
    3.1363    0.8586   -0.8005 N   0  0  0  0  0  0  0  0  0  0  0  0
    2.7242    1.8103   -1.7248 C   0  0  0  0  0  0  0  0  0  0  0  0
    3.6605    2.1879   -2.6084 N   0  0  0  0  0  0  0  0  0  0  0  0
    3.2946    3.0789   -3.5625 C   0  0  0  0  0  0  0  0  0  0  0  0
    4.3241    3.4003   -4.5736 C   0  0  0  0  0  0  0  0  0  0  0  0
    5.2968    2.4503   -4.9374 C   0  0  0  0  0  0  0  0  0  0  0  0
    6.2554    2.7384   -5.9083 C   0  0  0  0  0  0  0  0  0  0  0  0
    7.1605    1.8069   -6.2343 F   0  0  0  0  0  0  0  0  0  0  0  0
    6.2845    3.9676   -6.5456 C   0  0  0  0  0  0  0  0  0  0  0  0
    5.3376    4.9142   -6.1941 C   0  0  0  0  0  0  0  0  0  0  0  0
    5.3457    6.1107   -6.7961 F   0  0  0  0  0  0  0  0  0  0  0  0
    4.3707    4.6473   -5.2246 C   0  0  0  0  0  0  0  0  0  0  0  0
    2.0221    3.6177   -3.6039 C   0  0  0  0  0  0  0  0  0  0  0  0
    1.1548    3.2008   -2.6278 C   0  0  0  0  0  0  0  0  0  0  0  0
    1.4854    2.3062   -1.6874 N   0  0  0  0  0  0  0  0  0  0  0  0
    2.3625   -0.7816    1.9062 H   0  0  0  0  0  0  0  0  0  0  0  0
    3.9199   -0.2231    1.3154 H   0  0  0  0  0  0  0  0  0  0  0  0
    5.0477   -2.2630    1.9046 H   0  0  0  0  0  0  0  0  0  0  0  0
    5.5705   -4.5788    1.4262 H   0  0  0  0  0  0  0  0  0  0  0  0
    5.8654   -6.6699    1.0528 H   0  0  0  0  0  0  0  0  0  0  0  0
    5.7462   -9.1165   -0.1455 H   0  0  0  0  0  0  0  0  0  0  0  0
    3.6281   -8.8852   -1.8751 H   0  0  0  0  0  0  0  0  0  0  0  0
    2.1581   -4.7904   -1.2370 H   0  0  0  0  0  0  0  0  0  0  0  0
    1.6300   -2.4600   -0.7288 H   0  0  0  0  0  0  0  0  0  0  0  0
    4.1184    0.6393   -0.8481 H   0  0  0  0  0  0  0  0  0  0  0  0
    5.3104    1.4658   -4.4745 H   0  0  0  0  0  0  0  0  0  0  0  0
    7.0311    4.1832   -7.3001 H   0  0  0  0  0  0  0  0  0  0  0  0
    3.6662    5.4393   -4.9862 H   0  0  0  0  0  0  0  0  0  0  0  0
    1.6958    4.3102   -4.3680 H   0  0  0  0  0  0  0  0  0  0  0  0
    0.1353    3.5711   -2.5778 H   0  0  0  0  0  0  0  0  0  0  0  0
  1  2  2  0  0  0  0
  2  3  1  0  0  0  0
  2 15  1  0  0  0  0
  3  4  1  0  0  0  0
  3 30  1  0  0  0  0
  3 31  1  0  0  0  0
  4  5  2  0  0  0  0
  4 14  1  0  0  0  0
  5  6  1  0  0  0  0
  5 32  1  0  0  0  0
  6  7  2  0  0  0  0
  6 33  1  0  0  0  0
  7  8  1  0  0  0  0
  7 13  1  0  0  0  0
  8  9  1  0  0  0  0
  8 12  1  0  0  0  0
  9 10  2  0  0  0  0
  9 34  1  0  0  0  0
 10 11  1  0  0  0  0
 10 35  1  0  0  0  0
 11 12  2  0  0  0  0
 11 36  1  0  0  0  0
 13 14  2  0  0  0  0
 13 37  1  0  0  0  0
 14 38  1  0  0  0  0
 15 16  1  0  0  0  0
 15 39  1  0  0  0  0
 16 17  2  0  0  0  0
 16 29  1  0  0  0  0
 17 18  1  0  0  0  0
 18 19  1  0  0  0  0
 18 27  2  0  0  0  0
 19 20  2  0  0  0  0
 19 26  1  0  0  0  0
 20 21  1  0  0  0  0
 20 40  1  0  0  0  0
 21 22  1  0  0  0  0
 21 23  2  0  0  0  0
 23 24  1  0  0  0  0
 23 41  1  0  0  0  0
 24 25  1  0  0  0  0
 24 26  2  0  0  0  0
 26 42  1  0  0  0  0
 27 28  1  0  0  0  0
 27 43  1  0  0  0  0
 28 29  2  0  0  0  0
 28 44  1  0  0  0  0
M  END
$$$$
