
 OpenBabel01122422453D

 48 51  0  0  0  0  0  0  0  0999 V2000
    0.0638   -0.2024   -0.7659 O   0  0  0  0  0  0  0  0  0  0  0  0
   -0.0279   -0.4505   -1.9616 C   0  0  0  0  0  0  0  0  0  0  0  0
    0.9670   -1.0675   -2.6843 N   0  0  0  0  0  0  0  0  0  0  0  0
    2.1992   -1.4403   -2.0292 C   0  0  0  0  0  0  0  0  0  0  0  0
    3.2013   -1.9734   -3.0129 C   0  0  0  0  0  0  0  0  0  0  0  0
    4.0860   -1.0943   -3.6442 C   0  0  0  0  0  0  0  0  0  0  0  0
    5.0155   -1.5630   -4.5743 C   0  0  0  0  0  0  0  0  0  0  0  0
    5.0773   -2.9180   -4.8990 C   0  0  0  0  0  0  0  0  0  0  0  0
    5.9958   -3.4540   -5.8236 N   0  0  0  0  0  0  0  0  0  0  0  0
    6.9371   -2.7669   -6.5668 C   0  0  0  0  0  0  0  0  0  0  0  0
    7.0987   -1.5492   -6.5656 O   0  0  0  0  0  0  0  0  0  0  0  0
    7.8395   -3.5933   -7.4357 C   0  0  0  0  0  0  0  0  0  0  0  0
    8.8039   -2.8978   -8.1889 C   0  0  0  0  0  0  0  0  0  0  0  0
    9.7253   -3.5795   -8.9848 C   0  0  0  0  0  0  0  0  0  0  0  0
    9.6951   -4.9692   -9.0412 C   0  0  0  0  0  0  0  0  0  0  0  0
    8.7322   -5.6772   -8.3207 C   0  0  0  0  0  0  0  0  0  0  0  0
    7.8040   -4.9930   -7.5274 C   0  0  0  0  0  0  0  0  0  0  0  0
    6.8637   -5.7213   -6.8435 O   0  0  0  0  0  0  0  0  0  0  0  0
    4.1886   -3.8013   -4.2731 C   0  0  0  0  0  0  0  0  0  0  0  0
    3.2520   -3.3329   -3.3416 C   0  0  0  0  0  0  0  0  0  0  0  0
   -1.2469   -0.0561   -2.6944 C   0  0  0  0  0  0  0  0  0  0  0  0
   -1.9763    1.0280   -2.2329 C   0  0  0  0  0  0  0  0  0  0  0  0
   -3.1339    1.4462   -2.7961 N   0  0  0  0  0  0  0  0  0  0  0  0
   -3.6008    0.7366   -3.8422 C   0  0  0  0  0  0  0  0  0  0  0  0
   -4.8028    1.0927   -4.4308 C   0  0  0  0  0  0  0  0  0  0  0  0
   -5.3216    0.3613   -5.4960 C   0  0  0  0  0  0  0  0  0  0  0  0
   -4.5961   -0.7220   -5.9516 C   0  0  0  0  0  0  0  0  0  0  0  0
   -3.4155   -1.1065   -5.4205 N   0  0  0  0  0  0  0  0  0  0  0  0
   -2.9370   -0.3887   -4.3841 C   0  0  0  0  0  0  0  0  0  0  0  0
   -1.7424   -0.7642   -3.7892 C   0  0  0  0  0  0  0  0  0  0  0  0
    0.9409   -1.0819   -3.6958 H   0  0  0  0  0  0  0  0  0  0  0  0
    1.9734   -2.1850   -1.2570 H   0  0  0  0  0  0  0  0  0  0  0  0
    2.6033   -0.5617   -1.5114 H   0  0  0  0  0  0  0  0  0  0  0  0
    4.0677   -0.0308   -3.4145 H   0  0  0  0  0  0  0  0  0  0  0  0
    5.6854   -0.8379   -5.0197 H   0  0  0  0  0  0  0  0  0  0  0  0
    5.9774   -4.4620   -5.9595 H   0  0  0  0  0  0  0  0  0  0  0  0
    8.8480   -1.8098   -8.1503 H   0  0  0  0  0  0  0  0  0  0  0  0
   10.4679   -3.0218   -9.5501 H   0  0  0  0  0  0  0  0  0  0  0  0
   10.4239   -5.5013   -9.6478 H   0  0  0  0  0  0  0  0  0  0  0  0
    8.7279   -6.7614   -8.3855 H   0  0  0  0  0  0  0  0  0  0  0  0
    6.9762   -6.6622   -7.0695 H   0  0  0  0  0  0  0  0  0  0  0  0
    4.2105   -4.8644   -4.5008 H   0  0  0  0  0  0  0  0  0  0  0  0
    2.5682   -4.0366   -2.8713 H   0  0  0  0  0  0  0  0  0  0  0  0
   -1.6458    1.6079   -1.3739 H   0  0  0  0  0  0  0  0  0  0  0  0
   -5.3488    1.9490   -4.0433 H   0  0  0  0  0  0  0  0  0  0  0  0
   -6.2682    0.6312   -5.9504 H   0  0  0  0  0  0  0  0  0  0  0  0
   -4.9552   -1.3303   -6.7773 H   0  0  0  0  0  0  0  0  0  0  0  0
   -1.2308   -1.6442   -4.1663 H   0  0  0  0  0  0  0  0  0  0  0  0
  1  2  2  0  0  0  0
  2  3  1  0  0  0  0
  2 21  1  0  0  0  0
  3  4  1  0  0  0  0
  3 31  1  0  0  0  0
  4  5  1  0  0  0  0
  4 32  1  0  0  0  0
  4 33  1  0  0  0  0
  5  6  2  0  0  0  0
  5 20  1  0  0  0  0
  6  7  1  0  0  0  0
  6 34  1  0  0  0  0
  7  8  2  0  0  0  0
  7 35  1  0  0  0  0
  8  9  1  0  0  0  0
  8 19  1  0  0  0  0
  9 10  1  0  0  0  0
  9 36  1  0  0  0  0
 10 11  2  0  0  0  0
 10 12  1  0  0  0  0
 12 13  2  0  0  0  0
 12 17  1  0  0  0  0
 13 14  1  0  0  0  0
 13 37  1  0  0  0  0
 14 15  2  0  0  0  0
 14 38  1  0  0  0  0
 15 16  1  0  0  0  0
 15 39  1  0  0  0  0
 16 17  2  0  0  0  0
 16 40  1  0  0  0  0
 17 18  1  0  0  0  0
 18 41  1  0  0  0  0
 19 20  2  0  0  0  0
 19 42  1  0  0  0  0
 20 43  1  0  0  0  0
 21 22  2  0  0  0  0
 21 30  1  0  0  0  0
 22 23  1  0  0  0  0
 22 44  1  0  0  0  0
 23 24  2  0  0  0  0
 24 25  1  0  0  0  0
 24 29  1  0  0  0  0
 25 26  2  0  0  0  0
 25 45  1  0  0  0  0
 26 27  1  0  0  0  0
 26 46  1  0  0  0  0
 27 28  2  0  0  0  0
 27 47  1  0  0  0  0
 28 29  1  0  0  0  0
 29 30  2  0  0  0  0
 30 48  1  0  0  0  0
M  END
$$$$
