
 OpenBabel01122422473D

 45 48  0  0  0  0  0  0  0  0999 V2000
    0.9526   -0.4075    0.0206 O   0  0  0  0  0  0  0  0  0  0  0  0
    2.1411   -0.1836   -0.2002 C   0  0  0  0  0  0  0  0  0  0  0  0
    2.6557    0.8799   -0.9284 N   0  0  0  0  0  0  0  0  0  0  0  0
    1.9369    1.8933   -1.6011 C   0  0  0  0  0  0  0  0  0  0  0  0
    0.5472    1.9698   -1.6310 C   0  0  0  0  0  0  0  0  0  0  0  0
   -0.0962    3.0303   -2.2845 C   0  0  0  0  0  0  0  0  0  0  0  0
    0.6351    4.0317   -2.9347 C   0  0  0  0  0  0  0  0  0  0  0  0
   -0.0517    5.1296   -3.6147 C   0  0  0  0  0  0  0  0  0  0  0  0
   -1.2293    5.7072   -3.3109 C   0  0  0  0  0  0  0  0  0  0  0  0
   -1.4943    6.6855   -4.2356 N   0  0  0  0  0  0  0  0  0  0  0  0
   -0.4507    6.7350   -5.1658 C   0  0  0  0  0  0  0  0  0  0  0  0
   -0.3476    7.4645   -6.1326 O   0  0  0  0  0  0  0  0  0  0  0  0
    0.4452    5.7503   -4.7376 N   0  0  0  0  0  0  0  0  0  0  0  0
    2.0314    3.9346   -2.9312 C   0  0  0  0  0  0  0  0  0  0  0  0
    2.6751    2.8775   -2.2715 C   0  0  0  0  0  0  0  0  0  0  0  0
    3.1468   -1.1420    0.3403 C   0  0  0  0  0  0  0  0  0  0  0  0
    4.3446   -1.3712   -0.3620 C   0  0  0  0  0  0  0  0  0  0  0  0
    5.2778   -2.2745    0.1292 C   0  0  0  0  0  0  0  0  0  0  0  0
    4.9702   -2.9467    1.2900 C   0  0  0  0  0  0  0  0  0  0  0  0
    3.8242   -2.7618    1.9736 N   0  0  0  0  0  0  0  0  0  0  0  0
    2.9053   -1.8692    1.5213 C   0  0  0  0  0  0  0  0  0  0  0  0
    1.7594   -1.6269    2.3113 N   0  0  0  0  0  0  0  0  0  0  0  0
    1.4638   -2.0772    3.6194 C   0  0  0  0  0  0  0  0  0  0  0  0
    2.4599   -2.4005    4.5518 C   0  0  0  0  0  0  0  0  0  0  0  0
    2.1440   -2.7899    5.8586 C   0  0  0  0  0  0  0  0  0  0  0  0
    0.8162   -2.8452    6.2699 C   0  0  0  0  0  0  0  0  0  0  0  0
   -0.1938   -2.5150    5.3697 C   0  0  0  0  0  0  0  0  0  0  0  0
    0.1342   -2.1342    4.0657 C   0  0  0  0  0  0  0  0  0  0  0  0
   -0.8626   -1.8213    3.2221 F   0  0  0  0  0  0  0  0  0  0  0  0
    3.6611    0.9915   -0.9468 H   0  0  0  0  0  0  0  0  0  0  0  0
   -0.0768    1.2232   -1.1500 H   0  0  0  0  0  0  0  0  0  0  0  0
   -1.1825    3.0492   -2.2771 H   0  0  0  0  0  0  0  0  0  0  0  0
   -1.9102    5.4954   -2.5011 H   0  0  0  0  0  0  0  0  0  0  0  0
   -2.3078    7.2800   -4.2799 H   0  0  0  0  0  0  0  0  0  0  0  0
    1.2918    5.5216   -5.2314 H   0  0  0  0  0  0  0  0  0  0  0  0
    2.6408    4.6907   -3.4216 H   0  0  0  0  0  0  0  0  0  0  0  0
    3.7621    2.8442   -2.2911 H   0  0  0  0  0  0  0  0  0  0  0  0
    4.5560   -0.8762   -1.3046 H   0  0  0  0  0  0  0  0  0  0  0  0
    6.2142   -2.4575   -0.3857 H   0  0  0  0  0  0  0  0  0  0  0  0
    5.6514   -3.6741    1.7221 H   0  0  0  0  0  0  0  0  0  0  0  0
    0.9268   -1.4773    1.7337 H   0  0  0  0  0  0  0  0  0  0  0  0
    3.5095   -2.3428    4.2799 H   0  0  0  0  0  0  0  0  0  0  0  0
    2.9446   -3.0402    6.5503 H   0  0  0  0  0  0  0  0  0  0  0  0
    0.5739   -3.1378    7.2881 H   0  0  0  0  0  0  0  0  0  0  0  0
   -1.2348   -2.5470    5.6744 H   0  0  0  0  0  0  0  0  0  0  0  0
  1  2  2  0  0  0  0
  2  3  1  0  0  0  0
  2 16  1  0  0  0  0
  3  4  1  0  0  0  0
  3 30  1  0  0  0  0
  4  5  2  0  0  0  0
  4 15  1  0  0  0  0
  5  6  1  0  0  0  0
  5 31  1  0  0  0  0
  6  7  2  0  0  0  0
  6 32  1  0  0  0  0
  7  8  1  0  0  0  0
  7 14  1  0  0  0  0
  8  9  2  0  0  0  0
  8 13  1  0  0  0  0
  9 10  1  0  0  0  0
  9 33  1  0  0  0  0
 10 11  1  0  0  0  0
 10 34  1  0  0  0  0
 11 12  2  0  0  0  0
 11 13  1  0  0  0  0
 13 35  1  0  0  0  0
 14 15  2  0  0  0  0
 14 36  1  0  0  0  0
 15 37  1  0  0  0  0
 16 17  2  0  0  0  0
 16 21  1  0  0  0  0
 17 18  1  0  0  0  0
 17 38  1  0  0  0  0
 18 19  2  0  0  0  0
 18 39  1  0  0  0  0
 19 20  1  0  0  0  0
 19 40  1  0  0  0  0
 20 21  2  0  0  0  0
 21 22  1  0  0  0  0
 22 23  1  0  0  0  0
 22 41  1  0  0  0  0
 23 24  2  0  0  0  0
 23 28  1  0  0  0  0
 24 25  1  0  0  0  0
 24 42  1  0  0  0  0
 25 26  2  0  0  0  0
 25 43  1  0  0  0  0
 26 27  1  0  0  0  0
 26 44  1  0  0  0  0
 27 28  2  0  0  0  0
 27 45  1  0  0  0  0
 28 29  1  0  0  0  0
M  END
$$$$
