
 OpenBabel01122422473D

 50 53  0  0  1  0  0  0  0  0999 V2000
    4.0591    1.9546   -0.4072 N   0  0  0  0  0  0  0  0  0  0  0  0
    3.5505    2.8418   -1.4598 C   0  0  0  0  0  0  0  0  0  0  0  0
    2.0048    3.0303   -1.4374 C   0  0  3  0  0  0  0  0  0  0  0  0
    1.5271    3.5535   -0.1676 N   0  0  0  0  0  0  0  0  0  0  0  0
    1.1457    2.7271    0.8653 C   0  0  0  0  0  0  0  0  0  0  0  0
    1.1645    1.5026    0.7749 O   0  0  0  0  0  0  0  0  0  0  0  0
    0.6258    3.4268    2.0295 C   0  0  0  0  0  0  0  0  0  0  0  0
    1.0326    4.6649    2.4930 C   0  0  0  0  0  0  0  0  0  0  0  0
    0.2342    4.9902    3.5625 N   0  0  0  0  0  0  0  0  0  0  0  0
    0.1737    6.2385    4.2485 C   0  0  0  0  0  0  0  0  0  0  0  0
    0.9417    7.3337    3.8237 C   0  0  0  0  0  0  0  0  0  0  0  0
    0.8287    8.5672    4.4710 C   0  0  0  0  0  0  0  0  0  0  0  0
   -0.0421    8.7162    5.5476 C   0  0  0  0  0  0  0  0  0  0  0  0
   -0.8015    7.6313    5.9828 C   0  0  0  0  0  0  0  0  0  0  0  0
   -0.6978    6.3954    5.3371 C   0  0  0  0  0  0  0  0  0  0  0  0
   -0.5831    3.9634    3.8938 N   0  0  0  0  0  0  0  0  0  0  0  0
   -0.4049    3.0321    2.9394 C   0  0  0  0  0  0  0  0  0  0  0  0
   -1.2609    1.8378    2.9117 C   0  0  0  0  0  0  0  0  0  0  0  0
   -1.6572    1.2575    1.7044 C   0  0  0  0  0  0  0  0  0  0  0  0
   -2.4559    0.1263    1.7340 C   0  0  0  0  0  0  0  0  0  0  0  0
   -2.9130   -0.4392    2.8683 N   0  0  0  0  0  0  0  0  0  0  0  0
   -2.5458    0.1519    4.0251 C   0  0  0  0  0  0  0  0  0  0  0  0
   -1.7332    1.2732    4.0992 C   0  0  0  0  0  0  0  0  0  0  0  0
    1.5010    3.8897   -2.5809 C   0  0  0  0  0  0  0  0  0  0  0  0
    0.5634    3.3724   -3.4907 C   0  0  0  0  0  0  0  0  0  0  0  0
    0.0840    4.1546   -4.5457 C   0  0  0  0  0  0  0  0  0  0  0  0
    0.5306    5.4652   -4.7063 C   0  0  0  0  0  0  0  0  0  0  0  0
    1.4531    5.9956   -3.8072 C   0  0  0  0  0  0  0  0  0  0  0  0
    1.9245    5.2115   -2.7567 C   0  0  0  0  0  0  0  0  0  0  0  0
    2.7880    5.7587   -1.8892 F   0  0  0  0  0  0  0  0  0  0  0  0
    4.9764    1.5964   -0.6650 H   0  0  0  0  0  0  0  0  0  0  0  0
    3.4404    1.1463   -0.3011 H   0  0  0  0  0  0  0  0  0  0  0  0
    3.8434    2.4352   -2.4351 H   0  0  0  0  0  0  0  0  0  0  0  0
    4.0593    3.8041   -1.3437 H   0  0  0  0  0  0  0  0  0  0  0  0
    1.5683    2.0295   -1.5593 H   0  0  0  0  0  0  0  0  0  0  0  0
    1.5791    4.5508   -0.0185 H   0  0  0  0  0  0  0  0  0  0  0  0
    1.8059    5.3262    2.1363 H   0  0  0  0  0  0  0  0  0  0  0  0
    1.6239    7.2727    2.9821 H   0  0  0  0  0  0  0  0  0  0  0  0
    1.4164    9.4155    4.1277 H   0  0  0  0  0  0  0  0  0  0  0  0
   -0.1318    9.6789    6.0448 H   0  0  0  0  0  0  0  0  0  0  0  0
   -1.4822    7.7488    6.8224 H   0  0  0  0  0  0  0  0  0  0  0  0
   -1.3091    5.5668    5.6902 H   0  0  0  0  0  0  0  0  0  0  0  0
   -1.3570    1.6594    0.7447 H   0  0  0  0  0  0  0  0  0  0  0  0
   -2.7568   -0.3641    0.8125 H   0  0  0  0  0  0  0  0  0  0  0  0
   -2.9362   -0.3155    4.9246 H   0  0  0  0  0  0  0  0  0  0  0  0
   -1.4784    1.6960    5.0655 H   0  0  0  0  0  0  0  0  0  0  0  0
    0.1944    2.3535   -3.3832 H   0  0  0  0  0  0  0  0  0  0  0  0
   -0.6424    3.7396   -5.2414 H   0  0  0  0  0  0  0  0  0  0  0  0
    0.1552    6.0728   -5.5260 H   0  0  0  0  0  0  0  0  0  0  0  0
    1.8041    7.0174   -3.9148 H   0  0  0  0  0  0  0  0  0  0  0  0
  1  2  1  0  0  0  0
  1 31  1  0  0  0  0
  1 32  1  0  0  0  0
  2  3  1  0  0  0  0
  2 33  1  0  0  0  0
  2 34  1  0  0  0  0
  3  4  1  0  0  0  0
  3 24  1  0  0  0  0
  3 35  1  0  0  0  0
  4  5  1  0  0  0  0
  4 36  1  0  0  0  0
  5  6  2  0  0  0  0
  5  7  1  0  0  0  0
  7  8  2  0  0  0  0
  7 17  1  0  0  0  0
  8  9  1  0  0  0  0
  8 37  1  0  0  0  0
  9 10  1  0  0  0  0
  9 16  1  0  0  0  0
 10 11  2  0  0  0  0
 10 15  1  0  0  0  0
 11 12  1  0  0  0  0
 11 38  1  0  0  0  0
 12 13  2  0  0  0  0
 12 39  1  0  0  0  0
 13 14  1  0  0  0  0
 13 40  1  0  0  0  0
 14 15  2  0  0  0  0
 14 41  1  0  0  0  0
 15 42  1  0  0  0  0
 16 17  2  0  0  0  0
 17 18  1  0  0  0  0
 18 19  2  0  0  0  0
 18 23  1  0  0  0  0
 19 20  1  0  0  0  0
 19 43  1  0  0  0  0
 20 21  2  0  0  0  0
 20 44  1  0  0  0  0
 21 22  1  0  0  0  0
 22 23  2  0  0  0  0
 22 45  1  0  0  0  0
 23 46  1  0  0  0  0
 24 25  2  0  0  0  0
 24 29  1  0  0  0  0
 25 26  1  0  0  0  0
 25 47  1  0  0  0  0
 26 27  2  0  0  0  0
 26 48  1  0  0  0  0
 27 28  1  0  0  0  0
 27 49  1  0  0  0  0
 28 29  2  0  0  0  0
 28 50  1  0  0  0  0
 29 30  1  0  0  0  0
M  END
$$$$
