
 OpenBabel01122422473D

 47 50  0  0  0  0  0  0  0  0999 V2000
   -4.1567    0.3700   -1.5600 N   0  0  0  0  0  0  0  0  0  0  0  0
   -3.0872    0.1681   -1.1396 C   0  0  0  0  0  0  0  0  0  0  0  0
   -1.7346    0.1473   -0.6808 C   0  0  0  0  0  0  0  0  0  0  0  0
   -0.9246   -0.9563   -0.3277 C   0  0  0  0  0  0  0  0  0  0  0  0
   -1.3862   -2.3268   -0.2631 N   0  0  0  0  0  0  0  0  0  0  0  0
   -2.6883   -2.7573   -0.1491 C   0  0  0  0  0  0  0  0  0  0  0  0
   -3.6640   -2.0314   -0.0263 O   0  0  0  0  0  0  0  0  0  0  0  0
   -2.8468   -4.1294   -0.1774 N   0  0  0  0  0  0  0  0  0  0  0  0
   -4.2241   -4.5958   -0.0897 C   0  0  0  0  0  0  0  0  0  0  0  0
   -4.3760   -6.0921   -0.1092 C   0  0  0  0  0  0  0  0  0  0  0  0
   -4.4412   -6.8210    1.0871 C   0  0  0  0  0  0  0  0  0  0  0  0
   -4.6577   -8.2021    1.0664 C   0  0  0  0  0  0  0  0  0  0  0  0
   -4.8080   -8.8749   -0.1508 C   0  0  0  0  0  0  0  0  0  0  0  0
   -5.0236  -10.3294   -0.1724 C   0  0  0  0  0  0  0  0  0  0  0  0
   -6.2839  -10.7995   -0.1219 C   0  0  0  0  0  0  0  0  0  0  0  0
   -6.5326  -12.1506   -0.1576 N   0  0  0  0  0  0  0  0  0  0  0  0
   -5.5546  -13.1105   -0.2532 C   0  0  0  0  0  0  0  0  0  0  0  0
   -5.7990  -14.3097   -0.2985 O   0  0  0  0  0  0  0  0  0  0  0  0
   -4.1593  -12.6059   -0.2977 C   0  0  0  0  0  0  0  0  0  0  0  0
   -3.9301  -11.2854   -0.2533 C   0  0  0  0  0  0  0  0  0  0  0  0
   -4.7263   -8.1547   -1.3478 C   0  0  0  0  0  0  0  0  0  0  0  0
   -4.5097   -6.7740   -1.3262 C   0  0  0  0  0  0  0  0  0  0  0  0
    0.4732   -0.6928   -0.0341 C   0  0  0  0  0  0  0  0  0  0  0  0
    1.4650   -1.6430    0.3491 C   0  0  0  0  0  0  0  0  0  0  0  0
    2.7943   -1.2690    0.6061 C   0  0  0  0  0  0  0  0  0  0  0  0
    3.1797    0.0556    0.4937 C   0  0  0  0  0  0  0  0  0  0  0  0
    2.2303    1.0044    0.1385 C   0  0  0  0  0  0  0  0  0  0  0  0
    0.9130    0.6579   -0.1111 C   0  0  0  0  0  0  0  0  0  0  0  0
    0.1234    1.6805   -0.4169 N   0  0  0  0  0  0  0  0  0  0  0  0
   -1.1620    1.4103   -0.6916 C   0  0  0  0  0  0  0  0  0  0  0  0
   -0.6874   -3.0508   -0.2003 H   0  0  0  0  0  0  0  0  0  0  0  0
   -2.1593   -4.6836    0.3113 H   0  0  0  0  0  0  0  0  0  0  0  0
   -4.7859   -4.1595   -0.9269 H   0  0  0  0  0  0  0  0  0  0  0  0
   -4.6763   -4.1908    0.8251 H   0  0  0  0  0  0  0  0  0  0  0  0
   -4.3466   -6.3163    2.0465 H   0  0  0  0  0  0  0  0  0  0  0  0
   -4.7144   -8.7496    2.0049 H   0  0  0  0  0  0  0  0  0  0  0  0
   -7.1557  -10.1550   -0.0586 H   0  0  0  0  0  0  0  0  0  0  0  0
   -7.4845  -12.4947   -0.1273 H   0  0  0  0  0  0  0  0  0  0  0  0
   -3.3714  -13.3429   -0.3648 H   0  0  0  0  0  0  0  0  0  0  0  0
   -2.9149  -10.9013   -0.2787 H   0  0  0  0  0  0  0  0  0  0  0  0
   -4.8360   -8.6617   -2.3043 H   0  0  0  0  0  0  0  0  0  0  0  0
   -4.4654   -6.2275   -2.2666 H   0  0  0  0  0  0  0  0  0  0  0  0
    1.2247   -2.6944    0.4663 H   0  0  0  0  0  0  0  0  0  0  0  0
    3.5321   -2.0149    0.8985 H   0  0  0  0  0  0  0  0  0  0  0  0
    4.2042    0.3643    0.6858 H   0  0  0  0  0  0  0  0  0  0  0  0
    2.5241    2.0496    0.0558 H   0  0  0  0  0  0  0  0  0  0  0  0
   -1.7486    2.2930   -0.9534 H   0  0  0  0  0  0  0  0  0  0  0  0
  1  2  3  0  0  0  0
  2  3  1  0  0  0  0
  3  4  2  0  0  0  0
  3 30  1  0  0  0  0
  4  5  1  0  0  0  0
  4 23  1  0  0  0  0
  5  6  1  0  0  0  0
  5 31  1  0  0  0  0
  6  7  2  0  0  0  0
  6  8  1  0  0  0  0
  8  9  1  0  0  0  0
  8 32  1  0  0  0  0
  9 10  1  0  0  0  0
  9 33  1  0  0  0  0
  9 34  1  0  0  0  0
 10 11  2  0  0  0  0
 10 22  1  0  0  0  0
 11 12  1  0  0  0  0
 11 35  1  0  0  0  0
 12 13  2  0  0  0  0
 12 36  1  0  0  0  0
 13 14  1  0  0  0  0
 13 21  1  0  0  0  0
 14 15  2  0  0  0  0
 14 20  1  0  0  0  0
 15 16  1  0  0  0  0
 15 37  1  0  0  0  0
 16 17  1  0  0  0  0
 16 38  1  0  0  0  0
 17 18  2  0  0  0  0
 17 19  1  0  0  0  0
 19 20  2  0  0  0  0
 19 39  1  0  0  0  0
 20 40  1  0  0  0  0
 21 22  2  0  0  0  0
 21 41  1  0  0  0  0
 22 42  1  0  0  0  0
 23 24  2  0  0  0  0
 23 28  1  0  0  0  0
 24 25  1  0  0  0  0
 24 43  1  0  0  0  0
 25 26  2  0  0  0  0
 25 44  1  0  0  0  0
 26 27  1  0  0  0  0
 26 45  1  0  0  0  0
 27 28  2  0  0  0  0
 27 46  1  0  0  0  0
 28 29  1  0  0  0  0
 29 30  2  0  0  0  0
 30 47  1  0  0  0  0
M  END
$$$$
