
 OpenBabel01122422473D

 50 53  0  0  0  0  0  0  0  0999 V2000
    2.5231   -0.6982   -0.4199 C   0  0  0  0  0  0  0  0  0  0  0  0
    1.7836    0.0336    0.6865 C   0  0  0  0  0  0  0  0  0  0  0  0
    2.6159    1.0574    1.3094 N   0  0  0  0  0  0  0  0  0  0  0  0
    3.3428    0.6768    2.4187 N   0  0  0  0  0  0  0  0  0  0  0  0
    4.0854    1.5679    3.0142 C   0  0  0  0  0  0  0  0  0  0  0  0
    4.8260    1.1057    4.2720 C   0  0  0  0  0  0  0  0  0  0  0  0
    4.8953    1.8329    5.2515 O   0  0  0  0  0  0  0  0  0  0  0  0
    5.3583   -0.1624    4.2050 N   0  0  0  0  0  0  0  0  0  0  0  0
    6.0456   -0.7093    5.3574 C   0  0  0  0  0  0  0  0  0  0  0  0
    6.9413   -1.8803    5.0280 C   0  0  0  0  0  0  0  0  0  0  0  0
    6.4697   -3.1798    5.1658 C   0  0  0  0  0  0  0  0  0  0  0  0
    7.3099   -4.2360    4.8119 C   0  0  0  0  0  0  0  0  0  0  0  0
    6.9311   -5.5575    4.8821 O   0  0  0  0  0  0  0  0  0  0  0  0
    5.6627   -5.9084    4.4716 C   0  0  0  0  0  0  0  0  0  0  0  0
    5.0964   -7.0194    5.1038 C   0  0  0  0  0  0  0  0  0  0  0  0
    3.8139   -7.4515    4.7537 C   0  0  0  0  0  0  0  0  0  0  0  0
    3.0962   -6.7680    3.7738 C   0  0  0  0  0  0  0  0  0  0  0  0
    3.6762   -5.6791    3.1345 C   0  0  0  0  0  0  0  0  0  0  0  0
    2.9842   -5.0156    2.1990 F   0  0  0  0  0  0  0  0  0  0  0  0
    4.9615   -5.2584    3.4535 C   0  0  0  0  0  0  0  0  0  0  0  0
    8.6157   -3.9796    4.4185 C   0  0  0  0  0  0  0  0  0  0  0  0
    9.0116   -2.6599    4.3262 C   0  0  0  0  0  0  0  0  0  0  0  0
    8.1991   -1.6125    4.5995 N   0  0  0  0  0  0  0  0  0  0  0  0
    4.2205    2.9650    2.5490 C   0  0  0  0  0  0  0  0  0  0  0  0
    5.0361    3.9214    3.1685 C   0  0  0  0  0  0  0  0  0  0  0  0
    5.0799    5.2341    2.6869 C   0  0  0  0  0  0  0  0  0  0  0  0
    4.3204    5.5998    1.5787 C   0  0  0  0  0  0  0  0  0  0  0  0
    3.5260    4.6481    0.9439 C   0  0  0  0  0  0  0  0  0  0  0  0
    3.4821    3.3319    1.4288 C   0  0  0  0  0  0  0  0  0  0  0  0
    2.6486    2.3304    0.7450 C   0  0  0  0  0  0  0  0  0  0  0  0
    2.0343    2.6510   -0.2703 O   0  0  0  0  0  0  0  0  0  0  0  0
    1.8625   -1.4258   -0.9012 H   0  0  0  0  0  0  0  0  0  0  0  0
    3.3914   -1.2311   -0.0203 H   0  0  0  0  0  0  0  0  0  0  0  0
    2.8808   -0.0023   -1.1861 H   0  0  0  0  0  0  0  0  0  0  0  0
    1.4494   -0.6688    1.4579 H   0  0  0  0  0  0  0  0  0  0  0  0
    0.8882    0.5092    0.2697 H   0  0  0  0  0  0  0  0  0  0  0  0
    5.0292   -0.7687    3.4605 H   0  0  0  0  0  0  0  0  0  0  0  0
    5.2882   -1.0008    6.0939 H   0  0  0  0  0  0  0  0  0  0  0  0
    6.6502    0.0802    5.8191 H   0  0  0  0  0  0  0  0  0  0  0  0
    5.4663   -3.3619    5.5315 H   0  0  0  0  0  0  0  0  0  0  0  0
    5.6537   -7.5497    5.8724 H   0  0  0  0  0  0  0  0  0  0  0  0
    3.3766   -8.3163    5.2463 H   0  0  0  0  0  0  0  0  0  0  0  0
    2.0938   -7.0809    3.4976 H   0  0  0  0  0  0  0  0  0  0  0  0
    5.3846   -4.4217    2.9093 H   0  0  0  0  0  0  0  0  0  0  0  0
    9.3036   -4.7840    4.1846 H   0  0  0  0  0  0  0  0  0  0  0  0
   10.0205   -2.3967    4.0213 H   0  0  0  0  0  0  0  0  0  0  0  0
    5.6445    3.6826    4.0371 H   0  0  0  0  0  0  0  0  0  0  0  0
    5.7044    5.9731    3.1849 H   0  0  0  0  0  0  0  0  0  0  0  0
    4.3479    6.6220    1.2086 H   0  0  0  0  0  0  0  0  0  0  0  0
    2.9365    4.9330    0.0740 H   0  0  0  0  0  0  0  0  0  0  0  0
  1  2  1  0  0  0  0
  1 32  1  0  0  0  0
  1 33  1  0  0  0  0
  1 34  1  0  0  0  0
  2  3  1  0  0  0  0
  2 35  1  0  0  0  0
  2 36  1  0  0  0  0
  3  4  1  0  0  0  0
  3 30  1  0  0  0  0
  4  5  2  0  0  0  0
  5  6  1  0  0  0  0
  5 24  1  0  0  0  0
  6  7  2  0  0  0  0
  6  8  1  0  0  0  0
  8  9  1  0  0  0  0
  8 37  1  0  0  0  0
  9 10  1  0  0  0  0
  9 38  1  0  0  0  0
  9 39  1  0  0  0  0
 10 11  2  0  0  0  0
 10 23  1  0  0  0  0
 11 12  1  0  0  0  0
 11 40  1  0  0  0  0
 12 13  1  0  0  0  0
 12 21  2  0  0  0  0
 13 14  1  0  0  0  0
 14 15  2  0  0  0  0
 14 20  1  0  0  0  0
 15 16  1  0  0  0  0
 15 41  1  0  0  0  0
 16 17  2  0  0  0  0
 16 42  1  0  0  0  0
 17 18  1  0  0  0  0
 17 43  1  0  0  0  0
 18 19  1  0  0  0  0
 18 20  2  0  0  0  0
 20 44  1  0  0  0  0
 21 22  1  0  0  0  0
 21 45  1  0  0  0  0
 22 23  2  0  0  0  0
 22 46  1  0  0  0  0
 24 25  2  0  0  0  0
 24 29  1  0  0  0  0
 25 26  1  0  0  0  0
 25 47  1  0  0  0  0
 26 27  2  0  0  0  0
 26 48  1  0  0  0  0
 27 28  1  0  0  0  0
 27 49  1  0  0  0  0
 28 29  2  0  0  0  0
 28 50  1  0  0  0  0
 29 30  1  0  0  0  0
 30 31  2  0  0  0  0
M  END
$$$$
