
 OpenBabel01122422473D

 49 52  0  0  0  0  0  0  0  0999 V2000
    0.9569   -0.2033    0.1508 C   0  0  0  0  0  0  0  0  0  0  0  0
    2.3973   -0.2049    0.1423 N   0  0  0  0  0  0  0  0  0  0  0  0
    3.1123   -0.2736   -1.0328 C   0  0  0  0  0  0  0  0  0  0  0  0
    2.5868   -0.3753   -2.1318 O   0  0  0  0  0  0  0  0  0  0  0  0
    4.5993   -0.2145   -0.9259 C   0  0  0  0  0  0  0  0  0  0  0  0
    5.3539   -0.2773   -2.1068 C   0  0  0  0  0  0  0  0  0  0  0  0
    6.7506   -0.2103   -2.0586 C   0  0  0  0  0  0  0  0  0  0  0  0
    7.4127   -0.0925   -0.8270 C   0  0  0  0  0  0  0  0  0  0  0  0
    8.8928   -0.0299   -0.8325 C   0  0  0  0  0  0  0  0  0  0  0  0
    9.4909    0.4434   -1.7844 O   0  0  0  0  0  0  0  0  0  0  0  0
    9.5875   -0.6384    0.2753 N   0  0  0  0  0  0  0  0  0  0  0  0
   10.9821   -0.6661    0.3579 C   0  0  0  0  0  0  0  0  0  0  0  0
   11.8795    0.0994   -0.3571 C   0  0  0  0  0  0  0  0  0  0  0  0
   13.1522   -0.3122    0.0682 C   0  0  0  0  0  0  0  0  0  0  0  0
   13.0897   -1.2741    0.9856 N   0  0  0  0  0  0  0  0  0  0  0  0
   11.7627   -1.4763    1.1632 N   0  0  0  0  0  0  0  0  0  0  0  0
   11.3446   -2.6496    1.9262 C   0  0  0  0  0  0  0  0  0  0  0  0
   11.1917   -2.3948    3.4113 C   0  0  0  0  0  0  0  0  0  0  0  0
   12.3326   -1.9677    4.1255 C   0  0  0  0  0  0  0  0  0  0  0  0
   12.3184   -1.8534    5.5106 C   0  0  0  0  0  0  0  0  0  0  0  0
   11.1680   -2.1789    6.2165 C   0  0  0  0  0  0  0  0  0  0  0  0
   10.0067   -2.5870    5.5464 C   0  0  0  0  0  0  0  0  0  0  0  0
    8.8613   -2.9039    6.2939 C   0  0  0  0  0  0  0  0  0  0  0  0
    7.6802   -3.2896    5.6672 C   0  0  0  0  0  0  0  0  0  0  0  0
    7.6340   -3.3758    4.2843 C   0  0  0  0  0  0  0  0  0  0  0  0
    8.7748   -3.0939    3.5272 C   0  0  0  0  0  0  0  0  0  0  0  0
    9.9927   -2.6891    4.1285 C   0  0  0  0  0  0  0  0  0  0  0  0
    6.6726   -0.0160    0.3526 C   0  0  0  0  0  0  0  0  0  0  0  0
    5.2772   -0.0810    0.2902 C   0  0  0  0  0  0  0  0  0  0  0  0
    4.6081   -0.0102    1.4514 F   0  0  0  0  0  0  0  0  0  0  0  0
    0.6175   -0.0146    1.1724 H   0  0  0  0  0  0  0  0  0  0  0  0
    0.5945   -1.1765   -0.1898 H   0  0  0  0  0  0  0  0  0  0  0  0
    0.5876    0.5800   -0.5159 H   0  0  0  0  0  0  0  0  0  0  0  0
    2.8779   -0.1467    1.0323 H   0  0  0  0  0  0  0  0  0  0  0  0
    4.8559   -0.3727   -3.0718 H   0  0  0  0  0  0  0  0  0  0  0  0
    7.3133   -0.2520   -2.9919 H   0  0  0  0  0  0  0  0  0  0  0  0
    9.0631   -1.1194    0.9928 H   0  0  0  0  0  0  0  0  0  0  0  0
   11.6746    0.8588   -1.0972 H   0  0  0  0  0  0  0  0  0  0  0  0
   14.1215    0.0421   -0.2615 H   0  0  0  0  0  0  0  0  0  0  0  0
   12.1054   -3.4269    1.7754 H   0  0  0  0  0  0  0  0  0  0  0  0
   10.4386   -3.0243    1.4477 H   0  0  0  0  0  0  0  0  0  0  0  0
   13.2642   -1.7460    3.6042 H   0  0  0  0  0  0  0  0  0  0  0  0
   13.2117   -1.5319    6.0421 H   0  0  0  0  0  0  0  0  0  0  0  0
   11.1871   -2.1121    7.3030 H   0  0  0  0  0  0  0  0  0  0  0  0
    8.8813   -2.8548    7.3813 H   0  0  0  0  0  0  0  0  0  0  0  0
    6.8014   -3.5257    6.2623 H   0  0  0  0  0  0  0  0  0  0  0  0
    6.7115   -3.6782    3.7932 H   0  0  0  0  0  0  0  0  0  0  0  0
    8.6781   -3.2115    2.4548 H   0  0  0  0  0  0  0  0  0  0  0  0
    7.1368    0.1334    1.3223 H   0  0  0  0  0  0  0  0  0  0  0  0
  1  2  1  0  0  0  0
  1 31  1  0  0  0  0
  1 32  1  0  0  0  0
  1 33  1  0  0  0  0
  2  3  1  0  0  0  0
  2 34  1  0  0  0  0
  3  4  2  0  0  0  0
  3  5  1  0  0  0  0
  5  6  2  0  0  0  0
  5 29  1  0  0  0  0
  6  7  1  0  0  0  0
  6 35  1  0  0  0  0
  7  8  2  0  0  0  0
  7 36  1  0  0  0  0
  8  9  1  0  0  0  0
  8 28  1  0  0  0  0
  9 10  2  0  0  0  0
  9 11  1  0  0  0  0
 11 12  1  0  0  0  0
 11 37  1  0  0  0  0
 12 13  2  0  0  0  0
 12 16  1  0  0  0  0
 13 14  1  0  0  0  0
 13 38  1  0  0  0  0
 14 15  2  0  0  0  0
 14 39  1  0  0  0  0
 15 16  1  0  0  0  0
 16 17  1  0  0  0  0
 17 18  1  0  0  0  0
 17 40  1  0  0  0  0
 17 41  1  0  0  0  0
 18 19  2  0  0  0  0
 18 27  1  0  0  0  0
 19 20  1  0  0  0  0
 19 42  1  0  0  0  0
 20 21  2  0  0  0  0
 20 43  1  0  0  0  0
 21 22  1  0  0  0  0
 21 44  1  0  0  0  0
 22 23  2  0  0  0  0
 22 27  1  0  0  0  0
 23 24  1  0  0  0  0
 23 45  1  0  0  0  0
 24 25  2  0  0  0  0
 24 46  1  0  0  0  0
 25 26  1  0  0  0  0
 25 47  1  0  0  0  0
 26 27  2  0  0  0  0
 26 48  1  0  0  0  0
 28 29  2  0  0  0  0
 28 49  1  0  0  0  0
 29 30  1  0  0  0  0
M  END
$$$$
