
 OpenBabel01122422473D

 42 45  0  0  0  0  0  0  0  0999 V2000
    2.2080   -2.1038    0.2613 N   0  0  0  0  0  0  0  0  0  0  0  0
    2.9333   -0.9560    0.2714 C   0  0  0  0  0  0  0  0  0  0  0  0
    4.2702   -0.7946    0.0216 C   0  0  0  0  0  0  0  0  0  0  0  0
    4.5068    0.6004    0.0578 C   0  0  0  0  0  0  0  0  0  0  0  0
    5.8235    1.2347   -0.1140 C   0  0  0  0  0  0  0  0  0  0  0  0
    6.8095    0.5570   -0.3888 O   0  0  0  0  0  0  0  0  0  0  0  0
    5.8269    2.6001    0.1317 N   0  0  0  0  0  0  0  0  0  0  0  0
    6.9566    3.4430    0.1061 C   0  0  0  0  0  0  0  0  0  0  0  0
    8.1655    3.0769   -0.4879 C   0  0  0  0  0  0  0  0  0  0  0  0
    9.2726    3.9222   -0.4405 C   0  0  0  0  0  0  0  0  0  0  0  0
   10.4096    3.4743   -0.9924 F   0  0  0  0  0  0  0  0  0  0  0  0
    9.2171    5.1462    0.2210 C   0  0  0  0  0  0  0  0  0  0  0  0
   10.3678    5.9618    0.3242 N   0  0  0  0  0  0  0  0  0  0  0  0
   11.4522    5.9919   -0.5270 C   0  0  0  0  0  0  0  0  0  0  0  0
   12.3213    6.9205   -0.0080 C   0  0  0  0  0  0  0  0  0  0  0  0
   11.8235    7.4569    1.1444 N   0  0  0  0  0  0  0  0  0  0  0  0
   10.6575    6.8723    1.3174 C   0  0  0  0  0  0  0  0  0  0  0  0
    8.0006    5.5232    0.7924 C   0  0  0  0  0  0  0  0  0  0  0  0
    7.8578    6.7140    1.3934 F   0  0  0  0  0  0  0  0  0  0  0  0
    6.8718    4.6980    0.7152 C   0  0  0  0  0  0  0  0  0  0  0  0
    3.3702    1.2913    0.2705 N   0  0  0  0  0  0  0  0  0  0  0  0
    2.4270    0.3257    0.5003 N   0  0  0  0  0  0  0  0  0  0  0  0
    1.1285    0.6907    0.9479 C   0  0  0  0  0  0  0  0  0  0  0  0
    0.5814    1.9198    0.5497 C   0  0  0  0  0  0  0  0  0  0  0  0
   -0.6976    2.2797    0.9785 C   0  0  0  0  0  0  0  0  0  0  0  0
   -1.4033    1.4333    1.8281 C   0  0  0  0  0  0  0  0  0  0  0  0
   -2.6205    1.7900    2.2532 F   0  0  0  0  0  0  0  0  0  0  0  0
   -0.8588    0.2263    2.2531 C   0  0  0  0  0  0  0  0  0  0  0  0
    0.4070   -0.1532    1.8063 C   0  0  0  0  0  0  0  0  0  0  0  0
    2.6225   -2.9472   -0.1333 H   0  0  0  0  0  0  0  0  0  0  0  0
    1.2008   -2.0750    0.1077 H   0  0  0  0  0  0  0  0  0  0  0  0
    4.9985   -1.5693   -0.1765 H   0  0  0  0  0  0  0  0  0  0  0  0
    4.9401    2.9635    0.4737 H   0  0  0  0  0  0  0  0  0  0  0  0
    8.2965    2.1290   -0.9994 H   0  0  0  0  0  0  0  0  0  0  0  0
   11.5061    5.4014   -1.4304 H   0  0  0  0  0  0  0  0  0  0  0  0
   13.2768    7.2319   -0.4110 H   0  0  0  0  0  0  0  0  0  0  0  0
   10.0110    7.0373    2.1692 H   0  0  0  0  0  0  0  0  0  0  0  0
    5.9460    5.0471    1.1644 H   0  0  0  0  0  0  0  0  0  0  0  0
    1.1229    2.5821   -0.1224 H   0  0  0  0  0  0  0  0  0  0  0  0
   -1.1500    3.2121    0.6569 H   0  0  0  0  0  0  0  0  0  0  0  0
   -1.4171   -0.4033    2.9396 H   0  0  0  0  0  0  0  0  0  0  0  0
    0.8364   -1.0784    2.1863 H   0  0  0  0  0  0  0  0  0  0  0  0
  1  2  1  0  0  0  0
  1 30  1  0  0  0  0
  1 31  1  0  0  0  0
  2  3  2  0  0  0  0
  2 22  1  0  0  0  0
  3  4  1  0  0  0  0
  3 32  1  0  0  0  0
  4  5  1  0  0  0  0
  4 21  2  0  0  0  0
  5  6  2  0  0  0  0
  5  7  1  0  0  0  0
  7  8  1  0  0  0  0
  7 33  1  0  0  0  0
  8  9  2  0  0  0  0
  8 20  1  0  0  0  0
  9 10  1  0  0  0  0
  9 34  1  0  0  0  0
 10 11  1  0  0  0  0
 10 12  2  0  0  0  0
 12 13  1  0  0  0  0
 12 18  1  0  0  0  0
 13 14  1  0  0  0  0
 13 17  1  0  0  0  0
 14 15  2  0  0  0  0
 14 35  1  0  0  0  0
 15 16  1  0  0  0  0
 15 36  1  0  0  0  0
 16 17  2  0  0  0  0
 17 37  1  0  0  0  0
 18 19  1  0  0  0  0
 18 20  2  0  0  0  0
 20 38  1  0  0  0  0
 21 22  1  0  0  0  0
 22 23  1  0  0  0  0
 23 24  2  0  0  0  0
 23 29  1  0  0  0  0
 24 25  1  0  0  0  0
 24 39  1  0  0  0  0
 25 26  2  0  0  0  0
 25 40  1  0  0  0  0
 26 27  1  0  0  0  0
 26 28  1  0  0  0  0
 28 29  2  0  0  0  0
 28 41  1  0  0  0  0
 29 42  1  0  0  0  0
M  END
$$$$
