
 OpenBabel01122422453D

 49 52  0  0  0  0  0  0  0  0999 V2000
    3.8315   -2.0579    1.5434 O   0  0  0  0  0  0  0  0  0  0  0  0
    3.2479   -1.1168    1.0072 C   0  0  0  0  0  0  0  0  0  0  0  0
    2.8803   -1.1540   -0.4775 C   0  0  0  0  0  0  0  0  0  0  0  0
    1.9019   -2.1972   -0.8367 N   0  0  0  0  0  0  0  0  0  0  0  0
    0.5448   -1.8097   -0.9427 C   0  0  0  0  0  0  0  0  0  0  0  0
    0.2193   -0.6752   -0.5658 O   0  0  0  0  0  0  0  0  0  0  0  0
   -0.4300   -2.7648   -1.4639 C   0  0  0  0  0  0  0  0  0  0  0  0
   -1.5381   -2.4230   -2.0936 N   0  0  0  0  0  0  0  0  0  0  0  0
   -2.1736   -3.5766   -2.5113 N   0  0  0  0  0  0  0  0  0  0  0  0
   -1.4564   -4.6141   -2.1278 C   0  0  0  0  0  0  0  0  0  0  0  0
   -1.7168   -6.0352   -2.3785 C   0  0  0  0  0  0  0  0  0  0  0  0
   -0.6818   -6.9848   -2.3960 C   0  0  0  0  0  0  0  0  0  0  0  0
   -0.9538   -8.3381   -2.6249 C   0  0  0  0  0  0  0  0  0  0  0  0
   -2.2638   -8.7603   -2.8397 C   0  0  0  0  0  0  0  0  0  0  0  0
   -3.3001   -7.8292   -2.8398 C   0  0  0  0  0  0  0  0  0  0  0  0
   -3.0261   -6.4747   -2.6161 C   0  0  0  0  0  0  0  0  0  0  0  0
   -0.3940   -4.1347   -1.3993 N   0  0  0  0  0  0  0  0  0  0  0  0
    2.4471   -3.3172   -1.5128 C   0  0  0  0  0  0  0  0  0  0  0  0
    2.3176   -3.4534   -2.8992 C   0  0  0  0  0  0  0  0  0  0  0  0
    2.8374   -4.5771   -3.5403 C   0  0  0  0  0  0  0  0  0  0  0  0
    3.4800   -5.5703   -2.7959 C   0  0  0  0  0  0  0  0  0  0  0  0
    3.6090   -5.4351   -1.4145 C   0  0  0  0  0  0  0  0  0  0  0  0
    3.1048   -4.3034   -0.7726 C   0  0  0  0  0  0  0  0  0  0  0  0
    2.8298    0.0336    1.6629 N   0  0  0  0  0  0  0  0  0  0  0  0
    3.1391    0.2765    3.0190 C   0  0  0  0  0  0  0  0  0  0  0  0
    4.4224    0.0681    3.5348 C   0  0  0  0  0  0  0  0  0  0  0  0
    4.6707    0.2463    4.8988 C   0  0  0  0  0  0  0  0  0  0  0  0
    3.6310    0.6121    5.7515 C   0  0  0  0  0  0  0  0  0  0  0  0
    2.3605    0.8581    5.2327 C   0  0  0  0  0  0  0  0  0  0  0  0
    2.1225    0.7251    3.8626 C   0  0  0  0  0  0  0  0  0  0  0  0
    3.8153   -1.3170   -1.0285 H   0  0  0  0  0  0  0  0  0  0  0  0
    2.5132   -0.1720   -0.7976 H   0  0  0  0  0  0  0  0  0  0  0  0
    0.3555   -6.6876   -2.2585 H   0  0  0  0  0  0  0  0  0  0  0  0
   -0.1425   -9.0630   -2.6377 H   0  0  0  0  0  0  0  0  0  0  0  0
   -2.4771   -9.8117   -3.0140 H   0  0  0  0  0  0  0  0  0  0  0  0
   -4.3230   -8.1545   -3.0113 H   0  0  0  0  0  0  0  0  0  0  0  0
   -3.8498   -5.7594   -2.6234 H   0  0  0  0  0  0  0  0  0  0  0  0
    0.3084   -4.6939   -0.9455 H   0  0  0  0  0  0  0  0  0  0  0  0
    1.8262   -2.6863   -3.4948 H   0  0  0  0  0  0  0  0  0  0  0  0
    2.7490   -4.6790   -4.6174 H   0  0  0  0  0  0  0  0  0  0  0  0
    3.8893   -6.4436   -3.2980 H   0  0  0  0  0  0  0  0  0  0  0  0
    4.1109   -6.2076   -0.8362 H   0  0  0  0  0  0  0  0  0  0  0  0
    3.2081   -4.2148    0.3076 H   0  0  0  0  0  0  0  0  0  0  0  0
    1.9743    0.4513    1.3072 H   0  0  0  0  0  0  0  0  0  0  0  0
    5.2444   -0.2229    2.8841 H   0  0  0  0  0  0  0  0  0  0  0  0
    5.6686    0.0805    5.2971 H   0  0  0  0  0  0  0  0  0  0  0  0
    3.8098    0.7006    6.8208 H   0  0  0  0  0  0  0  0  0  0  0  0
    1.5472    1.1338    5.8991 H   0  0  0  0  0  0  0  0  0  0  0  0
    1.1207    0.9034    3.4811 H   0  0  0  0  0  0  0  0  0  0  0  0
  1  2  2  0  0  0  0
  2  3  1  0  0  0  0
  2 24  1  0  0  0  0
  3  4  1  0  0  0  0
  3 31  1  0  0  0  0
  3 32  1  0  0  0  0
  4  5  1  0  0  0  0
  4 18  1  0  0  0  0
  5  6  2  0  0  0  0
  5  7  1  0  0  0  0
  7  8  2  0  0  0  0
  7 17  1  0  0  0  0
  8  9  1  0  0  0  0
  9 10  2  0  0  0  0
 10 11  1  0  0  0  0
 10 17  1  0  0  0  0
 11 12  2  0  0  0  0
 11 16  1  0  0  0  0
 12 13  1  0  0  0  0
 12 33  1  0  0  0  0
 13 14  2  0  0  0  0
 13 34  1  0  0  0  0
 14 15  1  0  0  0  0
 14 35  1  0  0  0  0
 15 16  2  0  0  0  0
 15 36  1  0  0  0  0
 16 37  1  0  0  0  0
 17 38  1  0  0  0  0
 18 19  2  0  0  0  0
 18 23  1  0  0  0  0
 19 20  1  0  0  0  0
 19 39  1  0  0  0  0
 20 21  2  0  0  0  0
 20 40  1  0  0  0  0
 21 22  1  0  0  0  0
 21 41  1  0  0  0  0
 22 23  2  0  0  0  0
 22 42  1  0  0  0  0
 23 43  1  0  0  0  0
 24 25  1  0  0  0  0
 24 44  1  0  0  0  0
 25 26  2  0  0  0  0
 25 30  1  0  0  0  0
 26 27  1  0  0  0  0
 26 45  1  0  0  0  0
 27 28  2  0  0  0  0
 27 46  1  0  0  0  0
 28 29  1  0  0  0  0
 28 47  1  0  0  0  0
 29 30  2  0  0  0  0
 29 48  1  0  0  0  0
 30 49  1  0  0  0  0
M  END
$$$$
