
 OpenBabel01122422473D

 50 53  0  0  1  0  0  0  0  0999 V2000
    2.5935    0.2886    0.0092 C   0  0  0  0  0  0  0  0  0  0  0  0
    1.0976    0.1441    0.0453 C   0  0  0  0  0  0  0  0  0  0  0  0
    0.3354    1.3250    0.1452 C   0  0  0  0  0  0  0  0  0  0  0  0
   -1.0573    1.2895    0.1386 C   0  0  0  0  0  0  0  0  0  0  0  0
   -1.7291    0.0695    0.0646 C   0  0  0  0  0  0  0  0  0  0  0  0
   -3.2413   -0.0054   -0.0330 C   0  0  3  0  0  0  0  0  0  0  0  0
   -3.8074    1.0611    0.7449 O   0  0  0  0  0  0  0  0  0  0  0  0
   -3.7417    0.0770   -1.4741 C   0  0  0  0  0  0  0  0  0  0  0  0
   -3.4574   -0.9336   -2.3936 C   0  0  0  0  0  0  0  0  0  0  0  0
   -3.8759   -0.7806   -3.7118 C   0  0  0  0  0  0  0  0  0  0  0  0
   -4.5830    0.3586   -4.0746 C   0  0  0  0  0  0  0  0  0  0  0  0
   -4.8533    1.3019   -3.0977 C   0  0  0  0  0  0  0  0  0  0  0  0
   -4.4520    1.1928   -1.8118 N   0  0  0  0  0  0  0  0  0  0  0  0
   -0.9682   -1.1085   -0.0026 C   0  0  0  0  0  0  0  0  0  0  0  0
    0.4336   -1.0968   -0.0468 C   0  0  0  0  0  0  0  0  0  0  0  0
    1.1704   -2.3092   -0.1615 N   0  0  0  0  0  0  0  0  0  0  0  0
    0.6464   -3.5432   -0.5319 C   0  0  0  0  0  0  0  0  0  0  0  0
   -0.4852   -3.7255   -0.9734 O   0  0  0  0  0  0  0  0  0  0  0  0
    1.5308   -4.6892   -0.3760 C   0  0  0  0  0  0  0  0  0  0  0  0
    2.8651   -4.7717   -0.0300 C   0  0  0  0  0  0  0  0  0  0  0  0
    3.1935   -6.1158    0.0443 N   0  0  0  0  0  0  0  0  0  0  0  0
    4.4229   -6.6965    0.4665 C   0  0  0  0  0  0  0  0  0  0  0  0
    4.5599   -8.0954    0.4885 C   0  0  0  0  0  0  0  0  0  0  0  0
    5.7479   -8.6617    0.9455 C   0  0  0  0  0  0  0  0  0  0  0  0
    5.9271  -10.0136    0.9799 O   0  0  0  0  0  0  0  0  0  0  0  0
    6.7967   -7.8647    1.3875 C   0  0  0  0  0  0  0  0  0  0  0  0
    6.6704   -6.4781    1.3554 C   0  0  0  0  0  0  0  0  0  0  0  0
    5.4899   -5.8916    0.8925 C   0  0  0  0  0  0  0  0  0  0  0  0
    2.1455   -6.8970   -0.3156 N   0  0  0  0  0  0  0  0  0  0  0  0
    1.1529   -6.0391   -0.5455 C   0  0  0  0  0  0  0  0  0  0  0  0
    2.8921    1.3442    0.0233 H   0  0  0  0  0  0  0  0  0  0  0  0
    2.9982   -0.1454   -0.9099 H   0  0  0  0  0  0  0  0  0  0  0  0
    3.0464   -0.1904    0.8817 H   0  0  0  0  0  0  0  0  0  0  0  0
    0.8223    2.2965    0.2106 H   0  0  0  0  0  0  0  0  0  0  0  0
   -1.6193    2.2206    0.1895 H   0  0  0  0  0  0  0  0  0  0  0  0
   -3.6058   -0.9357    0.4189 H   0  0  0  0  0  0  0  0  0  0  0  0
   -4.2975    1.5967    0.0866 H   0  0  0  0  0  0  0  0  0  0  0  0
   -2.9003   -1.8200   -2.1043 H   0  0  0  0  0  0  0  0  0  0  0  0
   -3.6420   -1.5425   -4.4503 H   0  0  0  0  0  0  0  0  0  0  0  0
   -4.9146    0.5082   -5.0958 H   0  0  0  0  0  0  0  0  0  0  0  0
   -5.4135    2.2023   -3.3330 H   0  0  0  0  0  0  0  0  0  0  0  0
   -1.5154   -2.0462   -0.0159 H   0  0  0  0  0  0  0  0  0  0  0  0
    2.1636   -2.2517   -0.0028 H   0  0  0  0  0  0  0  0  0  0  0  0
    3.5927   -4.0072    0.1845 H   0  0  0  0  0  0  0  0  0  0  0  0
    3.7433   -8.7350    0.1626 H   0  0  0  0  0  0  0  0  0  0  0  0
    5.1506  -10.4404    0.5809 H   0  0  0  0  0  0  0  0  0  0  0  0
    7.7104   -8.3234    1.7551 H   0  0  0  0  0  0  0  0  0  0  0  0
    7.4910   -5.8525    1.6975 H   0  0  0  0  0  0  0  0  0  0  0  0
    5.4370   -4.8084    0.8894 H   0  0  0  0  0  0  0  0  0  0  0  0
    0.1771   -6.4236   -0.8202 H   0  0  0  0  0  0  0  0  0  0  0  0
  1  2  1  0  0  0  0
  1 31  1  0  0  0  0
  1 32  1  0  0  0  0
  1 33  1  0  0  0  0
  2  3  2  0  0  0  0
  2 15  1  0  0  0  0
  3  4  1  0  0  0  0
  3 34  1  0  0  0  0
  4  5  2  0  0  0  0
  4 35  1  0  0  0  0
  5  6  1  0  0  0  0
  5 14  1  0  0  0  0
  6  7  1  0  0  0  0
  6  8  1  0  0  0  0
  6 36  1  0  0  0  0
  7 37  1  0  0  0  0
  8  9  2  0  0  0  0
  8 13  1  0  0  0  0
  9 10  1  0  0  0  0
  9 38  1  0  0  0  0
 10 11  2  0  0  0  0
 10 39  1  0  0  0  0
 11 12  1  0  0  0  0
 11 40  1  0  0  0  0
 12 13  2  0  0  0  0
 12 41  1  0  0  0  0
 14 15  2  0  0  0  0
 14 42  1  0  0  0  0
 15 16  1  0  0  0  0
 16 17  1  0  0  0  0
 16 43  1  0  0  0  0
 17 18  2  0  0  0  0
 17 19  1  0  0  0  0
 19 20  2  0  0  0  0
 19 30  1  0  0  0  0
 20 21  1  0  0  0  0
 20 44  1  0  0  0  0
 21 22  1  0  0  0  0
 21 29  1  0  0  0  0
 22 23  2  0  0  0  0
 22 28  1  0  0  0  0
 23 24  1  0  0  0  0
 23 45  1  0  0  0  0
 24 25  1  0  0  0  0
 24 26  2  0  0  0  0
 25 46  1  0  0  0  0
 26 27  1  0  0  0  0
 26 47  1  0  0  0  0
 27 28  2  0  0  0  0
 27 48  1  0  0  0  0
 28 49  1  0  0  0  0
 29 30  2  0  0  0  0
 30 50  1  0  0  0  0
M  END
$$$$
