
 OpenBabel01122422473D

 59 62  0  0  1  0  0  0  0  0999 V2000
    1.1155    0.0965   -0.3009 C   0  0  0  0  0  0  0  0  0  0  0  0
    2.5326    0.0639   -0.1563 O   0  0  0  0  0  0  0  0  0  0  0  0
    3.0467   -1.1250    0.2878 C   0  0  0  0  0  0  0  0  0  0  0  0
    2.4243   -2.3637    0.1457 C   0  0  0  0  0  0  0  0  0  0  0  0
    3.0155   -3.5031    0.6826 C   0  0  0  0  0  0  0  0  0  0  0  0
    4.2489   -3.4164    1.3239 C   0  0  0  0  0  0  0  0  0  0  0  0
    4.9496   -2.2056    1.3673 C   0  0  0  0  0  0  0  0  0  0  0  0
    6.3630   -2.1106    1.9095 C   0  0  0  0  0  0  0  0  0  0  0  0
    7.2703   -3.3541    1.6809 C   0  0  3  0  0  0  0  0  0  0  0  0
    7.3714   -3.7215    0.2664 N   0  0  0  0  0  0  0  0  0  0  0  0
    6.9010   -4.9102   -0.2193 C   0  0  0  0  0  0  0  0  0  0  0  0
    6.3319   -5.7609    0.4628 O   0  0  0  0  0  0  0  0  0  0  0  0
    7.0834   -5.0265   -1.5744 N   0  0  0  0  0  0  0  0  0  0  0  0
    6.6024   -6.1798   -2.3275 C   0  0  0  0  0  0  0  0  0  0  0  0
    5.4914   -5.7858   -3.3093 C   0  0  0  0  0  0  0  0  0  0  0  0
    4.8068   -6.8988   -4.0047 N   0  0  0  0  0  0  0  0  0  0  0  0
    3.7839   -6.4062   -4.8391 N   0  0  0  0  0  0  0  0  0  0  0  0
    2.5847   -6.4127   -4.3380 C   0  0  0  0  0  0  0  0  0  0  0  0
    2.3031   -6.8873   -2.9846 C   0  0  0  0  0  0  0  0  0  0  0  0
    1.2509   -6.3857   -2.2276 C   0  0  0  0  0  0  0  0  0  0  0  0
    1.1220   -6.8095   -0.9022 C   0  0  0  0  0  0  0  0  0  0  0  0
    1.9991   -7.7635   -0.3697 C   0  0  0  0  0  0  0  0  0  0  0  0
    3.0473   -8.2645   -1.1409 C   0  0  0  0  0  0  0  0  0  0  0  0
    3.2150   -7.7801   -2.4357 C   0  0  0  0  0  0  0  0  0  0  0  0
    4.4767   -7.9845   -3.1641 C   0  0  0  0  0  0  0  0  0  0  0  0
    5.2317   -8.9105   -2.8940 O   0  0  0  0  0  0  0  0  0  0  0  0
    8.6705   -3.1479    2.2433 C   0  0  0  0  0  0  0  0  0  0  0  0
    9.1697   -4.0380    3.2075 C   0  0  0  0  0  0  0  0  0  0  0  0
   10.4616   -3.8909    3.7139 C   0  0  0  0  0  0  0  0  0  0  0  0
   11.2727   -2.8501    3.2635 C   0  0  0  0  0  0  0  0  0  0  0  0
   10.7926   -1.9594    2.3054 C   0  0  0  0  0  0  0  0  0  0  0  0
    9.4997   -2.1057    1.7984 C   0  0  0  0  0  0  0  0  0  0  0  0
    4.3099   -1.0511    0.8854 C   0  0  0  0  0  0  0  0  0  0  0  0
    0.8200    1.1321   -0.4925 H   0  0  0  0  0  0  0  0  0  0  0  0
    0.6149   -0.2297    0.6174 H   0  0  0  0  0  0  0  0  0  0  0  0
    0.7922   -0.5035   -1.1575 H   0  0  0  0  0  0  0  0  0  0  0  0
    1.4881   -2.4749   -0.3891 H   0  0  0  0  0  0  0  0  0  0  0  0
    2.5313   -4.4700    0.5885 H   0  0  0  0  0  0  0  0  0  0  0  0
    4.6698   -4.3282    1.7401 H   0  0  0  0  0  0  0  0  0  0  0  0
    6.3033   -1.8924    2.9842 H   0  0  0  0  0  0  0  0  0  0  0  0
    6.8371   -1.2380    1.4406 H   0  0  0  0  0  0  0  0  0  0  0  0
    6.8198   -4.1934    2.2227 H   0  0  0  0  0  0  0  0  0  0  0  0
    7.9206   -3.1343   -0.3353 H   0  0  0  0  0  0  0  0  0  0  0  0
    7.5939   -4.3087   -2.0614 H   0  0  0  0  0  0  0  0  0  0  0  0
    6.2473   -6.9321   -1.6176 H   0  0  0  0  0  0  0  0  0  0  0  0
    7.4537   -6.6037   -2.8666 H   0  0  0  0  0  0  0  0  0  0  0  0
    5.8890   -5.1119   -4.0771 H   0  0  0  0  0  0  0  0  0  0  0  0
    4.7249   -5.2240   -2.7563 H   0  0  0  0  0  0  0  0  0  0  0  0
    1.7493   -6.0185   -4.9402 H   0  0  0  0  0  0  0  0  0  0  0  0
    0.5887   -5.6231   -2.6259 H   0  0  0  0  0  0  0  0  0  0  0  0
    0.3551   -6.3727   -0.2658 H   0  0  0  0  0  0  0  0  0  0  0  0
    1.9001   -8.0775    0.6672 H   0  0  0  0  0  0  0  0  0  0  0  0
    3.7727   -8.9529   -0.7117 H   0  0  0  0  0  0  0  0  0  0  0  0
    8.5576   -4.8645    3.5637 H   0  0  0  0  0  0  0  0  0  0  0  0
   10.8371   -4.5904    4.4563 H   0  0  0  0  0  0  0  0  0  0  0  0
   12.2819   -2.7397    3.6523 H   0  0  0  0  0  0  0  0  0  0  0  0
   11.4279   -1.1523    1.9502 H   0  0  0  0  0  0  0  0  0  0  0  0
    9.1534   -1.4038    1.0440 H   0  0  0  0  0  0  0  0  0  0  0  0
    4.7979   -0.0811    0.9645 H   0  0  0  0  0  0  0  0  0  0  0  0
  1  2  1  0  0  0  0
  1 34  1  0  0  0  0
  1 35  1  0  0  0  0
  1 36  1  0  0  0  0
  2  3  1  0  0  0  0
  3  4  2  0  0  0  0
  3 33  1  0  0  0  0
  4  5  1  0  0  0  0
  4 37  1  0  0  0  0
  5  6  2  0  0  0  0
  5 38  1  0  0  0  0
  6  7  1  0  0  0  0
  6 39  1  0  0  0  0
  7  8  1  0  0  0  0
  7 33  2  0  0  0  0
  8  9  1  0  0  0  0
  8 40  1  0  0  0  0
  8 41  1  0  0  0  0
  9 10  1  0  0  0  0
  9 27  1  0  0  0  0
  9 42  1  0  0  0  0
 10 11  1  0  0  0  0
 10 43  1  0  0  0  0
 11 12  2  0  0  0  0
 11 13  1  0  0  0  0
 13 14  1  0  0  0  0
 13 44  1  0  0  0  0
 14 15  1  0  0  0  0
 14 45  1  0  0  0  0
 14 46  1  0  0  0  0
 15 16  1  0  0  0  0
 15 47  1  0  0  0  0
 15 48  1  0  0  0  0
 16 17  1  0  0  0  0
 16 25  1  0  0  0  0
 17 18  2  0  0  0  0
 18 19  1  0  0  0  0
 18 49  1  0  0  0  0
 19 20  2  0  0  0  0
 19 24  1  0  0  0  0
 20 21  1  0  0  0  0
 20 50  1  0  0  0  0
 21 22  2  0  0  0  0
 21 51  1  0  0  0  0
 22 23  1  0  0  0  0
 22 52  1  0  0  0  0
 23 24  2  0  0  0  0
 23 53  1  0  0  0  0
 24 25  1  0  0  0  0
 25 26  2  0  0  0  0
 27 28  2  0  0  0  0
 27 32  1  0  0  0  0
 28 29  1  0  0  0  0
 28 54  1  0  0  0  0
 29 30  2  0  0  0  0
 29 55  1  0  0  0  0
 30 31  1  0  0  0  0
 30 56  1  0  0  0  0
 31 32  2  0  0  0  0
 31 57  1  0  0  0  0
 32 58  1  0  0  0  0
 33 59  1  0  0  0  0
M  END
$$$$
