
 OpenBabel01122422473D

 50 53  0  0  0  0  0  0  0  0999 V2000
    0.9293   -0.0067    0.3853 O   0  0  0  0  0  0  0  0  0  0  0  0
    2.1383    0.0007    0.1698 C   0  0  0  0  0  0  0  0  0  0  0  0
    2.7795    0.8396   -0.7417 N   0  0  0  0  0  0  0  0  0  0  0  0
    2.1358    1.7195   -1.5775 C   0  0  0  0  0  0  0  0  0  0  0  0
    0.9064    2.2144   -1.3360 C   0  0  0  0  0  0  0  0  0  0  0  0
    0.1928    2.9615   -2.2583 N   0  0  0  0  0  0  0  0  0  0  0  0
   -1.1733    3.3008   -1.9900 C   0  0  0  0  0  0  0  0  0  0  0  0
   -2.0316    2.3519   -1.4114 C   0  0  0  0  0  0  0  0  0  0  0  0
   -3.3790    2.6479   -1.2021 C   0  0  0  0  0  0  0  0  0  0  0  0
   -3.8700    3.9089   -1.5306 C   0  0  0  0  0  0  0  0  0  0  0  0
   -3.0166    4.8717   -2.0661 C   0  0  0  0  0  0  0  0  0  0  0  0
   -1.6761    4.5668   -2.3067 C   0  0  0  0  0  0  0  0  0  0  0  0
    0.7285    3.2472   -3.5244 C   0  0  0  0  0  0  0  0  0  0  0  0
    0.1547    3.7975   -4.4633 O   0  0  0  0  0  0  0  0  0  0  0  0
    2.1291    2.7852   -3.7512 C   0  0  0  0  0  0  0  0  0  0  0  0
    2.7860    2.0830   -2.8154 C   0  0  0  0  0  0  0  0  0  0  0  0
    3.0192   -0.9678    0.7965 C   0  0  0  0  0  0  0  0  0  0  0  0
    2.7361   -2.2994    1.1161 C   0  0  0  0  0  0  0  0  0  0  0  0
    1.5166   -3.1123    0.9002 C   0  0  0  0  0  0  0  0  0  0  0  0
    0.7513   -2.9544   -0.2654 C   0  0  0  0  0  0  0  0  0  0  0  0
   -0.4062   -3.7084   -0.4824 C   0  0  0  0  0  0  0  0  0  0  0  0
   -0.7993   -4.6677    0.4437 C   0  0  0  0  0  0  0  0  0  0  0  0
   -0.0511   -4.8505    1.6016 C   0  0  0  0  0  0  0  0  0  0  0  0
    1.0791   -4.0602    1.8406 C   0  0  0  0  0  0  0  0  0  0  0  0
    3.9234   -2.7839    1.6398 N   0  0  0  0  0  0  0  0  0  0  0  0
    4.2314   -4.1494    2.0435 C   0  0  0  0  0  0  0  0  0  0  0  0
    5.7066   -4.5333    1.8883 C   0  0  0  0  0  0  0  0  0  0  0  0
    6.5402   -3.8025    2.7745 O   0  0  0  0  0  0  0  0  0  0  0  0
    4.8889   -1.8403    1.7624 N   0  0  0  0  0  0  0  0  0  0  0  0
    4.3344   -0.7458    1.2524 C   0  0  0  0  0  0  0  0  0  0  0  0
    3.7372    0.6062   -0.9715 H   0  0  0  0  0  0  0  0  0  0  0  0
    0.4057    2.0429   -0.3884 H   0  0  0  0  0  0  0  0  0  0  0  0
   -1.6790    1.3503   -1.1733 H   0  0  0  0  0  0  0  0  0  0  0  0
   -4.0438    1.8874   -0.7983 H   0  0  0  0  0  0  0  0  0  0  0  0
   -4.9199    4.1401   -1.3725 H   0  0  0  0  0  0  0  0  0  0  0  0
   -3.3956    5.8614   -2.3092 H   0  0  0  0  0  0  0  0  0  0  0  0
   -1.0238    5.3306   -2.7207 H   0  0  0  0  0  0  0  0  0  0  0  0
    2.5617    3.0303   -4.7108 H   0  0  0  0  0  0  0  0  0  0  0  0
    3.8021    1.7555   -3.0063 H   0  0  0  0  0  0  0  0  0  0  0  0
    1.0298   -2.2257   -1.0213 H   0  0  0  0  0  0  0  0  0  0  0  0
   -1.0002   -3.5375   -1.3767 H   0  0  0  0  0  0  0  0  0  0  0  0
   -1.6930   -5.2606    0.2691 H   0  0  0  0  0  0  0  0  0  0  0  0
   -0.3536   -5.6000    2.3287 H   0  0  0  0  0  0  0  0  0  0  0  0
    1.6010   -4.1999    2.7814 H   0  0  0  0  0  0  0  0  0  0  0  0
    3.6381   -4.8215    1.4161 H   0  0  0  0  0  0  0  0  0  0  0  0
    3.9176   -4.2351    3.0896 H   0  0  0  0  0  0  0  0  0  0  0  0
    6.0488   -4.3798    0.8638 H   0  0  0  0  0  0  0  0  0  0  0  0
    5.8206   -5.5969    2.1335 H   0  0  0  0  0  0  0  0  0  0  0  0
    6.3580   -2.8554    2.5757 H   0  0  0  0  0  0  0  0  0  0  0  0
    4.9105    0.1712    1.2382 H   0  0  0  0  0  0  0  0  0  0  0  0
  1  2  2  0  0  0  0
  2  3  1  0  0  0  0
  2 17  1  0  0  0  0
  3  4  1  0  0  0  0
  3 31  1  0  0  0  0
  4  5  2  0  0  0  0
  4 16  1  0  0  0  0
  5  6  1  0  0  0  0
  5 32  1  0  0  0  0
  6  7  1  0  0  0  0
  6 13  1  0  0  0  0
  7  8  2  0  0  0  0
  7 12  1  0  0  0  0
  8  9  1  0  0  0  0
  8 33  1  0  0  0  0
  9 10  2  0  0  0  0
  9 34  1  0  0  0  0
 10 11  1  0  0  0  0
 10 35  1  0  0  0  0
 11 12  2  0  0  0  0
 11 36  1  0  0  0  0
 12 37  1  0  0  0  0
 13 14  2  0  0  0  0
 13 15  1  0  0  0  0
 15 16  2  0  0  0  0
 15 38  1  0  0  0  0
 16 39  1  0  0  0  0
 17 18  2  0  0  0  0
 17 30  1  0  0  0  0
 18 19  1  0  0  0  0
 18 25  1  0  0  0  0
 19 20  2  0  0  0  0
 19 24  1  0  0  0  0
 20 21  1  0  0  0  0
 20 40  1  0  0  0  0
 21 22  2  0  0  0  0
 21 41  1  0  0  0  0
 22 23  1  0  0  0  0
 22 42  1  0  0  0  0
 23 24  2  0  0  0  0
 23 43  1  0  0  0  0
 24 44  1  0  0  0  0
 25 26  1  0  0  0  0
 25 29  1  0  0  0  0
 26 27  1  0  0  0  0
 26 45  1  0  0  0  0
 26 46  1  0  0  0  0
 27 28  1  0  0  0  0
 27 47  1  0  0  0  0
 27 48  1  0  0  0  0
 28 49  1  0  0  0  0
 29 30  2  0  0  0  0
 30 50  1  0  0  0  0
M  END
$$$$
