
 OpenBabel01122422473D

 43 46  0  0  0  0  0  0  0  0999 V2000
    3.2875    0.2586   -1.0146 O   0  0  0  0  0  0  0  0  0  0  0  0
    3.4133   -0.0740    0.1621 C   0  0  0  0  0  0  0  0  0  0  0  0
    4.0826    0.8625    1.1113 C   0  0  0  0  0  0  0  0  0  0  0  0
    4.2458    0.5256    2.3928 C   0  0  0  0  0  0  0  0  0  0  0  0
    3.7393   -0.7311    2.8814 C   0  0  0  0  0  0  0  0  0  0  0  0
    3.1414   -1.5885    2.0458 C   0  0  0  0  0  0  0  0  0  0  0  0
    2.9954   -1.2931    0.6992 N   0  0  0  0  0  0  0  0  0  0  0  0
    2.3637   -2.2711   -0.1912 C   0  0  0  0  0  0  0  0  0  0  0  0
    0.8623   -2.1133   -0.2515 C   0  0  0  0  0  0  0  0  0  0  0  0
    0.2847   -1.2247   -1.1605 C   0  0  0  0  0  0  0  0  0  0  0  0
   -1.0772   -0.9157   -1.0816 C   0  0  0  0  0  0  0  0  0  0  0  0
   -1.9180   -1.5033   -0.1160 C   0  0  0  0  0  0  0  0  0  0  0  0
   -3.3213   -1.0169    0.0687 C   0  0  0  0  0  0  0  0  0  0  0  0
   -4.0713   -0.7104   -1.0917 C   0  0  0  0  0  0  0  0  0  0  0  0
   -5.3801   -0.2257   -1.0349 C   0  0  0  0  0  0  0  0  0  0  0  0
   -5.9966   -0.0449    0.1925 C   0  0  0  0  0  0  0  0  0  0  0  0
   -5.3045   -0.3411    1.3652 C   0  0  0  0  0  0  0  0  0  0  0  0
   -3.9800   -0.8253    1.3230 C   0  0  0  0  0  0  0  0  0  0  0  0
   -3.3164   -1.0253    2.5661 N   0  0  0  0  0  0  0  0  0  0  0  0
   -2.0368   -0.6124    2.7355 N   0  0  0  0  0  0  0  0  0  0  0  0
   -1.6843   -0.9476    3.9622 N   0  0  0  0  0  0  0  0  0  0  0  0
   -2.7258   -1.5160    4.6246 N   0  0  0  0  0  0  0  0  0  0  0  0
   -3.7446   -1.5406    3.7791 C   0  0  0  0  0  0  0  0  0  0  0  0
   -5.0695   -2.1055    4.0701 C   0  0  0  0  0  0  0  0  0  0  0  0
   -5.8006   -2.4330    2.9763 F   0  0  0  0  0  0  0  0  0  0  0  0
   -4.9841   -3.2470    4.8053 F   0  0  0  0  0  0  0  0  0  0  0  0
   -5.8262   -1.2386    4.7945 F   0  0  0  0  0  0  0  0  0  0  0  0
   -1.3498   -2.5170    0.6741 C   0  0  0  0  0  0  0  0  0  0  0  0
    0.0260   -2.7843    0.6443 C   0  0  0  0  0  0  0  0  0  0  0  0
    4.4498    1.7898    0.6949 H   0  0  0  0  0  0  0  0  0  0  0  0
    4.7488    1.1872    3.0912 H   0  0  0  0  0  0  0  0  0  0  0  0
    3.8459   -0.9615    3.9397 H   0  0  0  0  0  0  0  0  0  0  0  0
    2.7519   -2.5392    2.3958 H   0  0  0  0  0  0  0  0  0  0  0  0
    2.6269   -3.2832    0.1413 H   0  0  0  0  0  0  0  0  0  0  0  0
    2.7839   -2.1679   -1.1997 H   0  0  0  0  0  0  0  0  0  0  0  0
    0.9031   -0.7152   -1.8983 H   0  0  0  0  0  0  0  0  0  0  0  0
   -1.4554   -0.1573   -1.7640 H   0  0  0  0  0  0  0  0  0  0  0  0
   -3.6333   -0.8461   -2.0806 H   0  0  0  0  0  0  0  0  0  0  0  0
   -5.9089    0.0179   -1.9538 H   0  0  0  0  0  0  0  0  0  0  0  0
   -7.0112    0.3442    0.2395 H   0  0  0  0  0  0  0  0  0  0  0  0
   -5.8120   -0.1268    2.3032 H   0  0  0  0  0  0  0  0  0  0  0  0
   -1.9501   -3.0638    1.3965 H   0  0  0  0  0  0  0  0  0  0  0  0
    0.4403   -3.4856    1.3648 H   0  0  0  0  0  0  0  0  0  0  0  0
  1  2  2  0  0  0  0
  2  3  1  0  0  0  0
  2  7  1  0  0  0  0
  3  4  2  0  0  0  0
  3 30  1  0  0  0  0
  4  5  1  0  0  0  0
  4 31  1  0  0  0  0
  5  6  2  0  0  0  0
  5 32  1  0  0  0  0
  6  7  1  0  0  0  0
  6 33  1  0  0  0  0
  7  8  1  0  0  0  0
  8  9  1  0  0  0  0
  8 34  1  0  0  0  0
  8 35  1  0  0  0  0
  9 10  2  0  0  0  0
  9 29  1  0  0  0  0
 10 11  1  0  0  0  0
 10 36  1  0  0  0  0
 11 12  2  0  0  0  0
 11 37  1  0  0  0  0
 12 13  1  0  0  0  0
 12 28  1  0  0  0  0
 13 14  2  0  0  0  0
 13 18  1  0  0  0  0
 14 15  1  0  0  0  0
 14 38  1  0  0  0  0
 15 16  2  0  0  0  0
 15 39  1  0  0  0  0
 16 17  1  0  0  0  0
 16 40  1  0  0  0  0
 17 18  2  0  0  0  0
 17 41  1  0  0  0  0
 18 19  1  0  0  0  0
 19 20  1  0  0  0  0
 19 23  1  0  0  0  0
 20 21  2  0  0  0  0
 21 22  1  0  0  0  0
 22 23  2  0  0  0  0
 23 24  1  0  0  0  0
 24 25  1  0  0  0  0
 24 26  1  0  0  0  0
 24 27  1  0  0  0  0
 28 29  2  0  0  0  0
 28 42  1  0  0  0  0
 29 43  1  0  0  0  0
M  END
$$$$
