
 OpenBabel01122422473D

 55 58  0  0  1  0  0  0  0  0999 V2000
    1.4525    0.0083    0.6880 C   0  0  0  0  0  0  0  0  0  0  0  0
    2.6223   -0.1238   -0.1152 O   0  0  0  0  0  0  0  0  0  0  0  0
    3.0944    1.0280   -0.6827 C   0  0  0  0  0  0  0  0  0  0  0  0
    2.5501    2.2933   -0.4971 C   0  0  0  0  0  0  0  0  0  0  0  0
    3.1117    3.4049   -1.1331 C   0  0  0  0  0  0  0  0  0  0  0  0
    4.2279    3.2768   -1.9625 C   0  0  0  0  0  0  0  0  0  0  0  0
    4.8076    4.3732   -2.6448 N   0  0  0  0  0  0  0  0  0  0  0  0
    4.3651    5.6879   -2.6132 C   0  0  0  0  0  0  0  0  0  0  0  0
    3.4305    6.1111   -1.9288 O   0  0  0  0  0  0  0  0  0  0  0  0
    5.1389    6.6663   -3.5155 C   0  0  1  0  0  0  0  0  0  0  0  0
    5.0781    6.2573   -4.9819 C   0  0  0  0  0  0  0  0  0  0  0  0
    4.5124    7.9751   -3.2901 N   0  0  0  0  0  0  0  0  0  0  0  0
    5.0158    9.1532   -3.7738 C   0  0  0  0  0  0  0  0  0  0  0  0
    6.0273    9.2077   -4.4620 O   0  0  0  0  0  0  0  0  0  0  0  0
    4.2588   10.3906   -3.4442 C   0  0  0  0  0  0  0  0  0  0  0  0
    3.5024   10.5498   -2.2796 C   0  0  0  0  0  0  0  0  0  0  0  0
    2.8256   11.7596   -2.0383 C   0  0  0  0  0  0  0  0  0  0  0  0
    2.9070   12.8470   -2.9317 C   0  0  0  0  0  0  0  0  0  0  0  0
    2.1997   14.1406   -2.6825 C   0  0  0  0  0  0  0  0  0  0  0  0
    2.1346   14.6445   -1.3612 C   0  0  0  0  0  0  0  0  0  0  0  0
    1.5834   15.8963   -1.0654 C   0  0  0  0  0  0  0  0  0  0  0  0
    1.1066   16.7034   -2.0873 C   0  0  0  0  0  0  0  0  0  0  0  0
    1.1300   16.2334   -3.3971 C   0  0  0  0  0  0  0  0  0  0  0  0
    1.6294   14.9491   -3.7055 C   0  0  0  0  0  0  0  0  0  0  0  0
    1.4967   14.5059   -5.0903 C   0  0  0  0  0  0  0  0  0  0  0  0
    1.7255   15.2870   -6.1636 N   0  0  0  0  0  0  0  0  0  0  0  0
    1.5148   14.4008   -7.1483 N   0  0  0  0  0  0  0  0  0  0  0  0
    1.1569   13.1713   -6.7682 N   0  0  0  0  0  0  0  0  0  0  0  0
    1.1216   13.2297   -5.4448 N   0  0  0  0  0  0  0  0  0  0  0  0
    3.7279   12.6701   -4.0609 C   0  0  0  0  0  0  0  0  0  0  0  0
    4.3605   11.4554   -4.3360 C   0  0  0  0  0  0  0  0  0  0  0  0
    4.7775    2.0076   -2.1419 C   0  0  0  0  0  0  0  0  0  0  0  0
    4.2155    0.8915   -1.5047 C   0  0  0  0  0  0  0  0  0  0  0  0
    1.1988   -0.9779    1.0860 H   0  0  0  0  0  0  0  0  0  0  0  0
    0.6026    0.3567    0.0902 H   0  0  0  0  0  0  0  0  0  0  0  0
    1.6309    0.6726    1.5409 H   0  0  0  0  0  0  0  0  0  0  0  0
    1.6818    2.4661    0.1295 H   0  0  0  0  0  0  0  0  0  0  0  0
    2.6346    4.3592   -0.9402 H   0  0  0  0  0  0  0  0  0  0  0  0
    5.6163    4.1647   -3.2186 H   0  0  0  0  0  0  0  0  0  0  0  0
    6.1780    6.7305   -3.1715 H   0  0  0  0  0  0  0  0  0  0  0  0
    4.0407    6.1804   -5.3266 H   0  0  0  0  0  0  0  0  0  0  0  0
    5.5568    5.2877   -5.1470 H   0  0  0  0  0  0  0  0  0  0  0  0
    5.5855    6.9831   -5.6266 H   0  0  0  0  0  0  0  0  0  0  0  0
    3.6525    7.9553   -2.7461 H   0  0  0  0  0  0  0  0  0  0  0  0
    3.4416    9.7601   -1.5357 H   0  0  0  0  0  0  0  0  0  0  0  0
    2.2339   11.8380   -1.1278 H   0  0  0  0  0  0  0  0  0  0  0  0
    2.5421   14.0700   -0.5312 H   0  0  0  0  0  0  0  0  0  0  0  0
    1.5484   16.2454   -0.0361 H   0  0  0  0  0  0  0  0  0  0  0  0
    0.7084   17.6908   -1.8687 H   0  0  0  0  0  0  0  0  0  0  0  0
    0.7405   16.8712   -4.1898 H   0  0  0  0  0  0  0  0  0  0  0  0
    1.6224   14.6434   -8.1290 H   0  0  0  0  0  0  0  0  0  0  0  0
    3.8837   13.4797   -4.7702 H   0  0  0  0  0  0  0  0  0  0  0  0
    4.9341   11.3493   -5.2544 H   0  0  0  0  0  0  0  0  0  0  0  0
    5.6465    1.8545   -2.7784 H   0  0  0  0  0  0  0  0  0  0  0  0
    4.6517   -0.0939   -1.6542 H   0  0  0  0  0  0  0  0  0  0  0  0
  1  2  1  0  0  0  0
  1 34  1  0  0  0  0
  1 35  1  0  0  0  0
  1 36  1  0  0  0  0
  2  3  1  0  0  0  0
  3  4  2  0  0  0  0
  3 33  1  0  0  0  0
  4  5  1  0  0  0  0
  4 37  1  0  0  0  0
  5  6  2  0  0  0  0
  5 38  1  0  0  0  0
  6  7  1  0  0  0  0
  6 32  1  0  0  0  0
  7  8  1  0  0  0  0
  7 39  1  0  0  0  0
  8  9  2  0  0  0  0
  8 10  1  0  0  0  0
 10 11  1  0  0  0  0
 10 12  1  0  0  0  0
 10 40  1  1  0  0  0
 11 41  1  0  0  0  0
 11 42  1  0  0  0  0
 11 43  1  0  0  0  0
 12 13  1  0  0  0  0
 12 44  1  0  0  0  0
 13 14  2  0  0  0  0
 13 15  1  0  0  0  0
 15 16  2  0  0  0  0
 15 31  1  0  0  0  0
 16 17  1  0  0  0  0
 16 45  1  0  0  0  0
 17 18  2  0  0  0  0
 17 46  1  0  0  0  0
 18 19  1  0  0  0  0
 18 30  1  0  0  0  0
 19 20  2  0  0  0  0
 19 24  1  0  0  0  0
 20 21  1  0  0  0  0
 20 47  1  0  0  0  0
 21 22  2  0  0  0  0
 21 48  1  0  0  0  0
 22 23  1  0  0  0  0
 22 49  1  0  0  0  0
 23 24  2  0  0  0  0
 23 50  1  0  0  0  0
 24 25  1  0  0  0  0
 25 26  2  0  0  0  0
 25 29  1  0  0  0  0
 26 27  1  0  0  0  0
 27 28  1  0  0  0  0
 27 51  1  0  0  0  0
 28 29  2  0  0  0  0
 30 31  2  0  0  0  0
 30 52  1  0  0  0  0
 31 53  1  0  0  0  0
 32 33  2  0  0  0  0
 32 54  1  0  0  0  0
 33 55  1  0  0  0  0
M  END
$$$$
