
 OpenBabel01122422473D

 44 47  0  0  0  0  0  0  0  0999 V2000
    0.8247   -1.2130    1.7838 C   0  0  0  0  0  0  0  0  0  0  0  0
    2.3263   -1.0709    1.8698 C   0  0  0  0  0  0  0  0  0  0  0  0
    2.8050   -0.3370    2.8259 N   0  0  0  0  0  0  0  0  0  0  0  0
    4.1532   -0.2269    2.9335 N   0  0  0  0  0  0  0  0  0  0  0  0
    5.0871   -0.8576    2.1461 C   0  0  0  0  0  0  0  0  0  0  0  0
    6.2916   -0.6987    2.3291 O   0  0  0  0  0  0  0  0  0  0  0  0
    4.5660   -1.7110    1.0619 C   0  0  0  0  0  0  0  0  0  0  0  0
    5.4136   -2.4864    0.2520 C   0  0  0  0  0  0  0  0  0  0  0  0
    6.8094   -2.4930    0.4505 N   0  0  0  0  0  0  0  0  0  0  0  0
    7.5851   -3.6416    0.4245 C   0  0  0  0  0  0  0  0  0  0  0  0
    7.1634   -4.7837    0.2631 O   0  0  0  0  0  0  0  0  0  0  0  0
    9.0382   -3.4072    0.6973 C   0  0  0  0  0  0  0  0  0  0  0  0
    9.8719   -4.4717    1.0253 C   0  0  0  0  0  0  0  0  0  0  0  0
   11.2147   -4.2029    1.2928 C   0  0  0  0  0  0  0  0  0  0  0  0
   11.6788   -2.8910    1.2234 C   0  0  0  0  0  0  0  0  0  0  0  0
   13.0015   -2.6817    1.5291 O   0  0  0  0  0  0  0  0  0  0  0  0
   13.3777   -1.4673    2.0722 C   0  0  0  0  0  0  0  0  0  0  0  0
   12.5966   -0.7497    2.9809 C   0  0  0  0  0  0  0  0  0  0  0  0
   13.0129    0.5094    3.4128 C   0  0  0  0  0  0  0  0  0  0  0  0
   14.2389    1.0079    2.9897 C   0  0  0  0  0  0  0  0  0  0  0  0
   14.6331    2.2212    3.3973 F   0  0  0  0  0  0  0  0  0  0  0  0
   15.0645    0.2634    2.1547 C   0  0  0  0  0  0  0  0  0  0  0  0
   14.6329   -0.9826    1.6923 C   0  0  0  0  0  0  0  0  0  0  0  0
   10.7833   -1.9068    0.8151 C   0  0  0  0  0  0  0  0  0  0  0  0
    9.4679   -2.1232    0.5843 N   0  0  0  0  0  0  0  0  0  0  0  0
    4.8597   -3.2528   -0.7812 C   0  0  0  0  0  0  0  0  0  0  0  0
    3.4816   -3.2737   -0.9903 C   0  0  0  0  0  0  0  0  0  0  0  0
    2.6375   -2.5635   -0.1398 C   0  0  0  0  0  0  0  0  0  0  0  0
    3.1810   -1.7914    0.8949 C   0  0  0  0  0  0  0  0  0  0  0  0
    0.3413   -0.6125    2.5608 H   0  0  0  0  0  0  0  0  0  0  0  0
    0.5412   -2.2591    1.9355 H   0  0  0  0  0  0  0  0  0  0  0  0
    0.4661   -0.8667    0.8110 H   0  0  0  0  0  0  0  0  0  0  0  0
    4.4983    0.3538    3.6896 H   0  0  0  0  0  0  0  0  0  0  0  0
    7.2160   -1.7137    0.9780 H   0  0  0  0  0  0  0  0  0  0  0  0
    9.4840   -5.4839    1.0847 H   0  0  0  0  0  0  0  0  0  0  0  0
   11.8901   -5.0114    1.5594 H   0  0  0  0  0  0  0  0  0  0  0  0
   11.6452   -1.1373    3.3373 H   0  0  0  0  0  0  0  0  0  0  0  0
   12.3865    1.1039    4.0706 H   0  0  0  0  0  0  0  0  0  0  0  0
   16.0311    0.6612    1.8616 H   0  0  0  0  0  0  0  0  0  0  0  0
   15.2704   -1.5637    1.0307 H   0  0  0  0  0  0  0  0  0  0  0  0
   11.0945   -0.8765    0.6688 H   0  0  0  0  0  0  0  0  0  0  0  0
    5.5038   -3.8195   -1.4509 H   0  0  0  0  0  0  0  0  0  0  0  0
    3.0697   -3.8590   -1.8094 H   0  0  0  0  0  0  0  0  0  0  0  0
    1.5665   -2.6312   -0.3032 H   0  0  0  0  0  0  0  0  0  0  0  0
  1  2  1  0  0  0  0
  1 30  1  0  0  0  0
  1 31  1  0  0  0  0
  1 32  1  0  0  0  0
  2  3  2  0  0  0  0
  2 29  1  0  0  0  0
  3  4  1  0  0  0  0
  4  5  1  0  0  0  0
  4 33  1  0  0  0  0
  5  6  2  0  0  0  0
  5  7  1  0  0  0  0
  7  8  2  0  0  0  0
  7 29  1  0  0  0  0
  8  9  1  0  0  0  0
  8 26  1  0  0  0  0
  9 10  1  0  0  0  0
  9 34  1  0  0  0  0
 10 11  2  0  0  0  0
 10 12  1  0  0  0  0
 12 13  2  0  0  0  0
 12 25  1  0  0  0  0
 13 14  1  0  0  0  0
 13 35  1  0  0  0  0
 14 15  2  0  0  0  0
 14 36  1  0  0  0  0
 15 16  1  0  0  0  0
 15 24  1  0  0  0  0
 16 17  1  0  0  0  0
 17 18  2  0  0  0  0
 17 23  1  0  0  0  0
 18 19  1  0  0  0  0
 18 37  1  0  0  0  0
 19 20  2  0  0  0  0
 19 38  1  0  0  0  0
 20 21  1  0  0  0  0
 20 22  1  0  0  0  0
 22 23  2  0  0  0  0
 22 39  1  0  0  0  0
 23 40  1  0  0  0  0
 24 25  2  0  0  0  0
 24 41  1  0  0  0  0
 26 27  2  0  0  0  0
 26 42  1  0  0  0  0
 27 28  1  0  0  0  0
 27 43  1  0  0  0  0
 28 29  2  0  0  0  0
 28 44  1  0  0  0  0
M  END
$$$$
