
 OpenBabel01122422453D

 55 58  0  0  0  0  0  0  0  0999 V2000
    5.7135    2.2416    3.3926 C   0  0  0  0  0  0  0  0  0  0  0  0
    5.6277    3.2617    2.3246 C   0  0  0  0  0  0  0  0  0  0  0  0
    6.6062    4.1679    2.2920 N   0  0  0  0  0  0  0  0  0  0  0  0
    6.1979    5.0259    1.3390 N   0  0  0  0  0  0  0  0  0  0  0  0
    6.8888    6.2487    1.1465 C   0  0  0  0  0  0  0  0  0  0  0  0
    8.1041    6.4583    1.8265 C   0  0  0  0  0  0  0  0  0  0  0  0
    8.7722    7.6757    1.7174 C   0  0  0  0  0  0  0  0  0  0  0  0
    8.2256    8.6929    0.9402 C   0  0  0  0  0  0  0  0  0  0  0  0
    7.0245    8.4864    0.2541 C   0  0  0  0  0  0  0  0  0  0  0  0
    6.3566    7.2608    0.3422 C   0  0  0  0  0  0  0  0  0  0  0  0
    5.0627    4.6809    0.6795 N   0  0  0  0  0  0  0  0  0  0  0  0
    4.6778    3.5377    1.2916 C   0  0  0  0  0  0  0  0  0  0  0  0
    3.4996    2.7313    0.8702 C   0  0  0  0  0  0  0  0  0  0  0  0
    3.4801    1.5169    1.0917 O   0  0  0  0  0  0  0  0  0  0  0  0
    2.4177    3.3291    0.1782 N   0  0  0  0  0  0  0  0  0  0  0  0
    1.2117    2.5156   -0.1008 C   0  0  0  0  0  0  0  0  0  0  0  0
    1.1788    1.3528   -1.1068 C   0  0  0  0  0  0  0  0  0  0  0  0
    2.3431    0.7014   -1.3911 N   0  0  0  0  0  0  0  0  0  0  0  0
    0.1186    0.9232   -1.5615 O   0  0  0  0  0  0  0  0  0  0  0  0
    2.1743    4.7819    0.2076 C   0  0  0  0  0  0  0  0  0  0  0  0
    2.3754    5.5071   -1.1065 C   0  0  0  0  0  0  0  0  0  0  0  0
    2.9220    4.8902   -2.2317 C   0  0  0  0  0  0  0  0  0  0  0  0
    3.1257    5.6095   -3.4144 C   0  0  0  0  0  0  0  0  0  0  0  0
    2.7815    6.9686   -3.5370 C   0  0  0  0  0  0  0  0  0  0  0  0
    3.0218    7.6869   -4.8148 C   0  0  0  0  0  0  0  0  0  0  0  0
    2.8706    7.0219   -6.0487 C   0  0  0  0  0  0  0  0  0  0  0  0
    3.1816    7.6378   -7.2635 C   0  0  0  0  0  0  0  0  0  0  0  0
    3.6289    8.9528   -7.2773 C   0  0  0  0  0  0  0  0  0  0  0  0
    3.7525    9.6507   -6.0783 C   0  0  0  0  0  0  0  0  0  0  0  0
    3.4537    9.0242   -4.8598 C   0  0  0  0  0  0  0  0  0  0  0  0
    2.2264    7.5814   -2.4039 C   0  0  0  0  0  0  0  0  0  0  0  0
    2.0308    6.8658   -1.2081 C   0  0  0  0  0  0  0  0  0  0  0  0
    6.0317    2.7288    4.3263 H   0  0  0  0  0  0  0  0  0  0  0  0
    6.4759    1.4948    3.1516 H   0  0  0  0  0  0  0  0  0  0  0  0
    4.7624    1.7488    3.5942 H   0  0  0  0  0  0  0  0  0  0  0  0
    8.5393    5.6778    2.4494 H   0  0  0  0  0  0  0  0  0  0  0  0
    9.7093    7.8273    2.2478 H   0  0  0  0  0  0  0  0  0  0  0  0
    8.7371    9.6498    0.8705 H   0  0  0  0  0  0  0  0  0  0  0  0
    6.6045    9.2895   -0.3462 H   0  0  0  0  0  0  0  0  0  0  0  0
    5.4182    7.1232   -0.1917 H   0  0  0  0  0  0  0  0  0  0  0  0
    0.4498    3.1977   -0.5004 H   0  0  0  0  0  0  0  0  0  0  0  0
    0.8457    2.1298    0.8577 H   0  0  0  0  0  0  0  0  0  0  0  0
    3.0755    0.7342   -0.6941 H   0  0  0  0  0  0  0  0  0  0  0  0
    2.2235   -0.1707   -1.8858 H   0  0  0  0  0  0  0  0  0  0  0  0
    2.7645    5.2596    0.9925 H   0  0  0  0  0  0  0  0  0  0  0  0
    1.1317    4.9292    0.5233 H   0  0  0  0  0  0  0  0  0  0  0  0
    3.2130    3.8432   -2.2097 H   0  0  0  0  0  0  0  0  0  0  0  0
    3.5847    5.0826   -4.2486 H   0  0  0  0  0  0  0  0  0  0  0  0
    2.5110    5.9949   -6.0786 H   0  0  0  0  0  0  0  0  0  0  0  0
    3.0813    7.0828   -8.1927 H   0  0  0  0  0  0  0  0  0  0  0  0
    3.8828    9.4302   -8.2197 H   0  0  0  0  0  0  0  0  0  0  0  0
    4.0978   10.6815   -6.0900 H   0  0  0  0  0  0  0  0  0  0  0  0
    3.5887    9.5936   -3.9428 H   0  0  0  0  0  0  0  0  0  0  0  0
    1.9309    8.6288   -2.4338 H   0  0  0  0  0  0  0  0  0  0  0  0
    1.6046    7.3869   -0.3527 H   0  0  0  0  0  0  0  0  0  0  0  0
  1  2  1  0  0  0  0
  1 33  1  0  0  0  0
  1 34  1  0  0  0  0
  1 35  1  0  0  0  0
  2  3  2  0  0  0  0
  2 12  1  0  0  0  0
  3  4  1  0  0  0  0
  4  5  1  0  0  0  0
  4 11  1  0  0  0  0
  5  6  2  0  0  0  0
  5 10  1  0  0  0  0
  6  7  1  0  0  0  0
  6 36  1  0  0  0  0
  7  8  2  0  0  0  0
  7 37  1  0  0  0  0
  8  9  1  0  0  0  0
  8 38  1  0  0  0  0
  9 10  2  0  0  0  0
  9 39  1  0  0  0  0
 10 40  1  0  0  0  0
 11 12  2  0  0  0  0
 12 13  1  0  0  0  0
 13 14  2  0  0  0  0
 13 15  1  0  0  0  0
 15 16  1  0  0  0  0
 15 20  1  0  0  0  0
 16 17  1  0  0  0  0
 16 41  1  0  0  0  0
 16 42  1  0  0  0  0
 17 18  1  0  0  0  0
 17 19  2  0  0  0  0
 18 43  1  0  0  0  0
 18 44  1  0  0  0  0
 20 21  1  0  0  0  0
 20 45  1  0  0  0  0
 20 46  1  0  0  0  0
 21 22  2  0  0  0  0
 21 32  1  0  0  0  0
 22 23  1  0  0  0  0
 22 47  1  0  0  0  0
 23 24  2  0  0  0  0
 23 48  1  0  0  0  0
 24 25  1  0  0  0  0
 24 31  1  0  0  0  0
 25 26  2  0  0  0  0
 25 30  1  0  0  0  0
 26 27  1  0  0  0  0
 26 49  1  0  0  0  0
 27 28  2  0  0  0  0
 27 50  1  0  0  0  0
 28 29  1  0  0  0  0
 28 51  1  0  0  0  0
 29 30  2  0  0  0  0
 29 52  1  0  0  0  0
 30 53  1  0  0  0  0
 31 32  2  0  0  0  0
 31 54  1  0  0  0  0
 32 55  1  0  0  0  0
M  END
$$$$
