
 OpenBabel01122422473D

 51 54  0  0  1  0  0  0  0  0999 V2000
    2.9131   -2.2834    0.9400 O   0  0  0  0  0  0  0  0  0  0  0  0
    3.2523   -1.2191    0.4373 C   0  0  0  0  0  0  0  0  0  0  0  0
    2.9516   -0.8375   -0.8554 N   0  0  0  0  0  0  0  0  0  0  0  0
    2.3223   -1.7361   -1.8133 C   0  0  1  0  0  0  0  0  0  0  0  0
    1.4691   -0.9395   -2.8216 C   0  0  0  0  0  0  0  0  0  0  0  0
    0.3745   -0.1085   -2.1669 C   0  0  0  0  0  0  0  0  0  0  0  0
   -0.4041    0.5282   -3.1771 O   0  0  0  0  0  0  0  0  0  0  0  0
    3.3386   -2.6031   -2.5577 C   0  0  0  0  0  0  0  0  0  0  0  0
    4.7229   -2.4790   -2.3855 C   0  0  0  0  0  0  0  0  0  0  0  0
    5.6186   -3.2593   -3.1295 C   0  0  0  0  0  0  0  0  0  0  0  0
    5.1722   -4.1977   -4.0734 C   0  0  0  0  0  0  0  0  0  0  0  0
    6.1177   -4.9833   -4.9017 C   0  0  0  0  0  0  0  0  0  0  0  0
    7.3776   -5.3785   -4.4162 C   0  0  0  0  0  0  0  0  0  0  0  0
    8.2705   -6.1074   -5.2090 C   0  0  0  0  0  0  0  0  0  0  0  0
    7.9177   -6.4710   -6.5044 C   0  0  0  0  0  0  0  0  0  0  0  0
    6.6777   -6.0981   -7.0106 C   0  0  0  0  0  0  0  0  0  0  0  0
    5.7946   -5.3564   -6.2207 C   0  0  0  0  0  0  0  0  0  0  0  0
    3.7828   -4.3475   -4.2074 C   0  0  0  0  0  0  0  0  0  0  0  0
    2.8851   -3.5726   -3.4641 C   0  0  0  0  0  0  0  0  0  0  0  0
    4.0595   -0.2207    1.2112 C   0  0  0  0  0  0  0  0  0  0  0  0
    4.4354   -0.5019    2.5175 C   0  0  0  0  0  0  0  0  0  0  0  0
    5.1624    0.4608    3.2277 C   0  0  0  0  0  0  0  0  0  0  0  0
    5.5587    0.2340    4.5534 C   0  0  0  0  0  0  0  0  0  0  0  0
    6.2572    1.2250    5.2212 C   0  0  0  0  0  0  0  0  0  0  0  0
    6.5804    2.4099    4.6672 N   0  0  0  0  0  0  0  0  0  0  0  0
    6.1889    2.6114    3.3859 C   0  0  0  0  0  0  0  0  0  0  0  0
    5.4867    1.6800    2.6012 C   0  0  0  0  0  0  0  0  0  0  0  0
    5.0708    1.8421    1.2636 C   0  0  0  0  0  0  0  0  0  0  0  0
    5.3414    2.9622    0.5313 O   0  0  0  0  0  0  0  0  0  0  0  0
    4.3733    0.9284    0.5613 N   0  0  0  0  0  0  0  0  0  0  0  0
    3.4188    0.0045   -1.1847 H   0  0  0  0  0  0  0  0  0  0  0  0
    1.6706   -2.4155   -1.2482 H   0  0  0  0  0  0  0  0  0  0  0  0
    0.9836   -1.6164   -3.5369 H   0  0  0  0  0  0  0  0  0  0  0  0
    2.1054   -0.2869   -3.4343 H   0  0  0  0  0  0  0  0  0  0  0  0
    0.7827    0.6675   -1.5133 H   0  0  0  0  0  0  0  0  0  0  0  0
   -0.2975   -0.7417   -1.5802 H   0  0  0  0  0  0  0  0  0  0  0  0
    0.1612    1.1937   -3.6061 H   0  0  0  0  0  0  0  0  0  0  0  0
    5.1400   -1.7699   -1.6758 H   0  0  0  0  0  0  0  0  0  0  0  0
    6.6821   -3.0991   -2.9682 H   0  0  0  0  0  0  0  0  0  0  0  0
    7.6811   -5.1315   -3.4014 H   0  0  0  0  0  0  0  0  0  0  0  0
    9.2397   -6.3929   -4.8089 H   0  0  0  0  0  0  0  0  0  0  0  0
    8.6074   -7.0428   -7.1187 H   0  0  0  0  0  0  0  0  0  0  0  0
    6.3938   -6.3770   -8.0218 H   0  0  0  0  0  0  0  0  0  0  0  0
    4.8453   -5.0597   -6.6613 H   0  0  0  0  0  0  0  0  0  0  0  0
    3.3694   -5.0795   -4.8978 H   0  0  0  0  0  0  0  0  0  0  0  0
    1.8195   -3.7338   -3.6151 H   0  0  0  0  0  0  0  0  0  0  0  0
    4.1567   -1.4503    2.9689 H   0  0  0  0  0  0  0  0  0  0  0  0
    5.3256   -0.6944    5.0670 H   0  0  0  0  0  0  0  0  0  0  0  0
    6.5832    1.0875    6.2489 H   0  0  0  0  0  0  0  0  0  0  0  0
    6.4636    3.5909    3.0082 H   0  0  0  0  0  0  0  0  0  0  0  0
    5.9966    3.5072    0.9881 H   0  0  0  0  0  0  0  0  0  0  0  0
  1  2  2  0  0  0  0
  2  3  1  0  0  0  0
  2 20  1  0  0  0  0
  3  4  1  0  0  0  0
  3 31  1  0  0  0  0
  4  5  1  0  0  0  0
  4  8  1  0  0  0  0
  4 32  1  1  0  0  0
  5  6  1  0  0  0  0
  5 33  1  0  0  0  0
  5 34  1  0  0  0  0
  6  7  1  0  0  0  0
  6 35  1  0  0  0  0
  6 36  1  0  0  0  0
  7 37  1  0  0  0  0
  8  9  2  0  0  0  0
  8 19  1  0  0  0  0
  9 10  1  0  0  0  0
  9 38  1  0  0  0  0
 10 11  2  0  0  0  0
 10 39  1  0  0  0  0
 11 12  1  0  0  0  0
 11 18  1  0  0  0  0
 12 13  2  0  0  0  0
 12 17  1  0  0  0  0
 13 14  1  0  0  0  0
 13 40  1  0  0  0  0
 14 15  2  0  0  0  0
 14 41  1  0  0  0  0
 15 16  1  0  0  0  0
 15 42  1  0  0  0  0
 16 17  2  0  0  0  0
 16 43  1  0  0  0  0
 17 44  1  0  0  0  0
 18 19  2  0  0  0  0
 18 45  1  0  0  0  0
 19 46  1  0  0  0  0
 20 21  2  0  0  0  0
 20 30  1  0  0  0  0
 21 22  1  0  0  0  0
 21 47  1  0  0  0  0
 22 23  2  0  0  0  0
 22 27  1  0  0  0  0
 23 24  1  0  0  0  0
 23 48  1  0  0  0  0
 24 25  2  0  0  0  0
 24 49  1  0  0  0  0
 25 26  1  0  0  0  0
 26 27  2  0  0  0  0
 26 50  1  0  0  0  0
 27 28  1  0  0  0  0
 28 29  1  0  0  0  0
 28 30  2  0  0  0  0
 29 51  1  0  0  0  0
M  END
$$$$
