
 OpenBabel01122422473D

 49 52  0  0  0  0  0  0  0  0999 V2000
   10.6452   -0.5282    3.3164 N   0  0  0  0  0  0  0  0  0  0  0  0
    9.7489    0.2109    3.2185 C   0  0  0  0  0  0  0  0  0  0  0  0
    8.6567    1.1146    3.1071 C   0  0  0  0  0  0  0  0  0  0  0  0
    8.1283    1.6347    1.9447 C   0  0  0  0  0  0  0  0  0  0  0  0
    7.0935    2.4425    2.3329 N   0  0  0  0  0  0  0  0  0  0  0  0
    6.1715    3.1458    1.4609 C   0  0  0  0  0  0  0  0  0  0  0  0
    6.1661    4.6641    1.6608 C   0  0  0  0  0  0  0  0  0  0  0  0
    7.4286    5.3491    1.3959 N   0  0  0  0  0  0  0  0  0  0  0  0
    8.0233    5.3359    0.1512 C   0  0  0  0  0  0  0  0  0  0  0  0
    7.5595    4.7070   -0.7938 O   0  0  0  0  0  0  0  0  0  0  0  0
    9.3069    6.0803    0.0005 C   0  0  0  0  0  0  0  0  0  0  0  0
   10.2447    5.5877   -0.9132 C   0  0  0  0  0  0  0  0  0  0  0  0
   11.4687    6.2412   -1.0993 C   0  0  0  0  0  0  0  0  0  0  0  0
   11.7766    7.4172   -0.4011 C   0  0  0  0  0  0  0  0  0  0  0  0
   13.1136    8.0163   -0.5910 C   0  0  0  0  0  0  0  0  0  0  0  0
   13.4204    9.3221   -0.4879 C   0  0  0  0  0  0  0  0  0  0  0  0
   14.7825    9.8745   -0.6514 C   0  0  0  0  0  0  0  0  0  0  0  0
   15.0062   11.2284   -0.4307 C   0  0  0  0  0  0  0  0  0  0  0  0
   16.2992   11.7282   -0.5610 C   0  0  0  0  0  0  0  0  0  0  0  0
   17.3285   10.8843   -0.9849 C   0  0  0  0  0  0  0  0  0  0  0  0
   18.6236   11.3744   -1.2360 C   0  0  0  0  0  0  0  0  0  0  0  0
   19.6068   10.5316   -1.7467 C   0  0  0  0  0  0  0  0  0  0  0  0
   19.3144    9.1892   -1.9564 C   0  0  0  0  0  0  0  0  0  0  0  0
   18.0363    8.6981   -1.6613 C   0  0  0  0  0  0  0  0  0  0  0  0
   17.0183    9.5251   -1.2002 C   0  0  0  0  0  0  0  0  0  0  0  0
   15.7777    9.0270   -1.0098 N   0  0  0  0  0  0  0  0  0  0  0  0
   10.8267    7.9129    0.5053 C   0  0  0  0  0  0  0  0  0  0  0  0
    9.5985    7.2535    0.7050 C   0  0  0  0  0  0  0  0  0  0  0  0
    6.9128    2.4673    3.6686 N   0  0  0  0  0  0  0  0  0  0  0  0
    7.8695    1.6596    4.1358 C   0  0  0  0  0  0  0  0  0  0  0  0
    8.3848    1.5000    0.9046 H   0  0  0  0  0  0  0  0  0  0  0  0
    5.1763    2.7414    1.6766 H   0  0  0  0  0  0  0  0  0  0  0  0
    6.4123    2.8731    0.4308 H   0  0  0  0  0  0  0  0  0  0  0  0
    5.8789    4.9182    2.6880 H   0  0  0  0  0  0  0  0  0  0  0  0
    5.4149    5.1041    0.9920 H   0  0  0  0  0  0  0  0  0  0  0  0
    7.8984    5.7877    2.1773 H   0  0  0  0  0  0  0  0  0  0  0  0
   10.0318    4.6827   -1.4801 H   0  0  0  0  0  0  0  0  0  0  0  0
   12.1822    5.8224   -1.8082 H   0  0  0  0  0  0  0  0  0  0  0  0
   13.9039    7.3070   -0.8358 H   0  0  0  0  0  0  0  0  0  0  0  0
   12.6455   10.0502   -0.2721 H   0  0  0  0  0  0  0  0  0  0  0  0
   14.1955   11.8988   -0.1682 H   0  0  0  0  0  0  0  0  0  0  0  0
   16.4895   12.7800   -0.3641 H   0  0  0  0  0  0  0  0  0  0  0  0
   18.8596   12.4239   -1.0735 H   0  0  0  0  0  0  0  0  0  0  0  0
   20.5900   10.9239   -1.9949 H   0  0  0  0  0  0  0  0  0  0  0  0
   20.0711    8.5225   -2.3623 H   0  0  0  0  0  0  0  0  0  0  0  0
   17.8204    7.6452   -1.8272 H   0  0  0  0  0  0  0  0  0  0  0  0
   11.0331    8.8133    1.0798 H   0  0  0  0  0  0  0  0  0  0  0  0
    8.8797    7.6825    1.3967 H   0  0  0  0  0  0  0  0  0  0  0  0
    7.9464    1.5018    5.2035 H   0  0  0  0  0  0  0  0  0  0  0  0
  1  2  3  0  0  0  0
  2  3  1  0  0  0  0
  3  4  2  0  0  0  0
  3 30  1  0  0  0  0
  4  5  1  0  0  0  0
  4 31  1  0  0  0  0
  5  6  1  0  0  0  0
  5 29  1  0  0  0  0
  6  7  1  0  0  0  0
  6 32  1  0  0  0  0
  6 33  1  0  0  0  0
  7  8  1  0  0  0  0
  7 34  1  0  0  0  0
  7 35  1  0  0  0  0
  8  9  1  0  0  0  0
  8 36  1  0  0  0  0
  9 10  2  0  0  0  0
  9 11  1  0  0  0  0
 11 12  2  0  0  0  0
 11 28  1  0  0  0  0
 12 13  1  0  0  0  0
 12 37  1  0  0  0  0
 13 14  2  0  0  0  0
 13 38  1  0  0  0  0
 14 15  1  0  0  0  0
 14 27  1  0  0  0  0
 15 16  2  3  0  0  0
 15 39  1  0  0  0  0
 16 17  1  0  0  0  0
 16 40  1  0  0  0  0
 17 18  2  0  0  0  0
 17 26  1  0  0  0  0
 18 19  1  0  0  0  0
 18 41  1  0  0  0  0
 19 20  2  0  0  0  0
 19 42  1  0  0  0  0
 20 21  1  0  0  0  0
 20 25  1  0  0  0  0
 21 22  2  0  0  0  0
 21 43  1  0  0  0  0
 22 23  1  0  0  0  0
 22 44  1  0  0  0  0
 23 24  2  0  0  0  0
 23 45  1  0  0  0  0
 24 25  1  0  0  0  0
 24 46  1  0  0  0  0
 25 26  2  0  0  0  0
 27 28  2  0  0  0  0
 27 47  1  0  0  0  0
 28 48  1  0  0  0  0
 29 30  2  0  0  0  0
 30 49  1  0  0  0  0
M  END
$$$$
