
 OpenBabel01122422473D

 48 51  0  0  0  0  0  0  0  0999 V2000
    3.0420    1.2555   -0.8012 C   0  0  0  0  0  0  0  0  0  0  0  0
    2.3222    0.0212   -0.4917 N   0  0  0  0  0  0  0  0  0  0  0  0
    0.9482    0.0016   -0.3314 C   0  0  0  0  0  0  0  0  0  0  0  0
    0.2051   -1.0812   -0.0879 C   0  0  0  0  0  0  0  0  0  0  0  0
    0.8882   -2.3823    0.0147 C   0  0  0  0  0  0  0  0  0  0  0  0
    0.2373   -3.3971    0.2318 O   0  0  0  0  0  0  0  0  0  0  0  0
    2.3643   -2.3936   -0.1440 C   0  0  0  0  0  0  0  0  0  0  0  0
    3.0367   -3.6194   -0.0427 C   0  0  0  0  0  0  0  0  0  0  0  0
    4.4234   -3.6787   -0.1552 C   0  0  0  0  0  0  0  0  0  0  0  0
    5.1511   -4.8881   -0.0750 N   0  0  0  0  0  0  0  0  0  0  0  0
    4.6019   -6.1490   -0.2364 C   0  0  0  0  0  0  0  0  0  0  0  0
    3.4419   -6.3983   -0.5462 O   0  0  0  0  0  0  0  0  0  0  0  0
    5.5207   -7.2986   -0.1080 C   0  0  0  0  0  0  0  0  0  0  0  0
    6.6303   -7.3343    0.7382 C   0  0  0  0  0  0  0  0  0  0  0  0
    7.4070   -8.4955    0.7827 C   0  0  0  0  0  0  0  0  0  0  0  0
    7.0609   -9.5584   -0.0395 C   0  0  0  0  0  0  0  0  0  0  0  0
    7.8579  -10.6802    0.0051 O   0  0  0  0  0  0  0  0  0  0  0  0
    7.7222  -11.4654   -1.1815 C   0  0  0  0  0  0  0  0  0  0  0  0
    8.5607  -12.7090   -1.0327 C   0  0  0  0  0  0  0  0  0  0  0  0
    7.9765  -13.9014   -0.5784 C   0  0  0  0  0  0  0  0  0  0  0  0
    8.7451  -15.0523   -0.4315 C   0  0  0  0  0  0  0  0  0  0  0  0
   10.1071  -15.0236   -0.7282 C   0  0  0  0  0  0  0  0  0  0  0  0
   10.6993  -13.8423   -1.1729 C   0  0  0  0  0  0  0  0  0  0  0  0
    9.9312  -12.6877   -1.3225 C   0  0  0  0  0  0  0  0  0  0  0  0
    5.9844   -9.5544   -0.8503 N   0  0  0  0  0  0  0  0  0  0  0  0
    5.2283   -8.4349   -0.8530 C   0  0  0  0  0  0  0  0  0  0  0  0
    5.1289   -2.4867   -0.3445 C   0  0  0  0  0  0  0  0  0  0  0  0
    4.4503   -1.2624   -0.4708 C   0  0  0  0  0  0  0  0  0  0  0  0
    3.0515   -1.1858   -0.3772 C   0  0  0  0  0  0  0  0  0  0  0  0
    2.3597    2.1107   -0.8699 H   0  0  0  0  0  0  0  0  0  0  0  0
    3.5531    1.1772   -1.7675 H   0  0  0  0  0  0  0  0  0  0  0  0
    3.7701    1.4918   -0.0177 H   0  0  0  0  0  0  0  0  0  0  0  0
    0.4674    0.9720   -0.4129 H   0  0  0  0  0  0  0  0  0  0  0  0
   -0.8669   -1.0609    0.0385 H   0  0  0  0  0  0  0  0  0  0  0  0
    2.4451   -4.5103    0.1470 H   0  0  0  0  0  0  0  0  0  0  0  0
    6.1606   -4.8108   -0.0526 H   0  0  0  0  0  0  0  0  0  0  0  0
    6.8799   -6.4992    1.3845 H   0  0  0  0  0  0  0  0  0  0  0  0
    8.2675   -8.5713    1.4388 H   0  0  0  0  0  0  0  0  0  0  0  0
    8.0721  -10.8925   -2.0514 H   0  0  0  0  0  0  0  0  0  0  0  0
    6.6818  -11.7683   -1.3600 H   0  0  0  0  0  0  0  0  0  0  0  0
    6.9150  -13.9324   -0.3388 H   0  0  0  0  0  0  0  0  0  0  0  0
    8.2833  -15.9722   -0.0822 H   0  0  0  0  0  0  0  0  0  0  0  0
   10.7062  -15.9210   -0.6103 H   0  0  0  0  0  0  0  0  0  0  0  0
   11.7632  -13.8219   -1.4019 H   0  0  0  0  0  0  0  0  0  0  0  0
   10.4045  -11.7718   -1.6657 H   0  0  0  0  0  0  0  0  0  0  0  0
    4.3535   -8.4787   -1.4986 H   0  0  0  0  0  0  0  0  0  0  0  0
    6.2135   -2.4903   -0.4265 H   0  0  0  0  0  0  0  0  0  0  0  0
    5.0509   -0.3750   -0.6434 H   0  0  0  0  0  0  0  0  0  0  0  0
  1  2  1  0  0  0  0
  1 30  1  0  0  0  0
  1 31  1  0  0  0  0
  1 32  1  0  0  0  0
  2  3  1  0  0  0  0
  2 29  1  0  0  0  0
  3  4  2  0  0  0  0
  3 33  1  0  0  0  0
  4  5  1  0  0  0  0
  4 34  1  0  0  0  0
  5  6  2  0  0  0  0
  5  7  1  0  0  0  0
  7  8  2  0  0  0  0
  7 29  1  0  0  0  0
  8  9  1  0  0  0  0
  8 35  1  0  0  0  0
  9 10  1  0  0  0  0
  9 27  2  0  0  0  0
 10 11  1  0  0  0  0
 10 36  1  0  0  0  0
 11 12  2  0  0  0  0
 11 13  1  0  0  0  0
 13 14  2  0  0  0  0
 13 26  1  0  0  0  0
 14 15  1  0  0  0  0
 14 37  1  0  0  0  0
 15 16  2  0  0  0  0
 15 38  1  0  0  0  0
 16 17  1  0  0  0  0
 16 25  1  0  0  0  0
 17 18  1  0  0  0  0
 18 19  1  0  0  0  0
 18 39  1  0  0  0  0
 18 40  1  0  0  0  0
 19 20  2  0  0  0  0
 19 24  1  0  0  0  0
 20 21  1  0  0  0  0
 20 41  1  0  0  0  0
 21 22  2  0  0  0  0
 21 42  1  0  0  0  0
 22 23  1  0  0  0  0
 22 43  1  0  0  0  0
 23 24  2  0  0  0  0
 23 44  1  0  0  0  0
 24 45  1  0  0  0  0
 25 26  2  0  0  0  0
 26 46  1  0  0  0  0
 27 28  1  0  0  0  0
 27 47  1  0  0  0  0
 28 29  2  0  0  0  0
 28 48  1  0  0  0  0
M  END
$$$$
