
 OpenBabel01122422473D

 53 56  0  0  0  0  0  0  0  0999 V2000
    1.1293   -0.3647   -0.2710 C   0  0  0  0  0  0  0  0  0  0  0  0
    2.5641   -0.1503   -0.1029 N   0  0  0  0  0  0  0  0  0  0  0  0
    3.1662   -0.2124    1.2315 C   0  0  0  0  0  0  0  0  0  0  0  0
    2.2703   -0.5150    2.4027 C   0  0  0  0  0  0  0  0  0  0  0  0
    2.0552   -1.8450    2.7981 C   0  0  0  0  0  0  0  0  0  0  0  0
    1.2606   -2.1318    3.9098 C   0  0  0  0  0  0  0  0  0  0  0  0
    0.6841   -1.0881    4.6364 C   0  0  0  0  0  0  0  0  0  0  0  0
    0.8772    0.2317    4.2310 C   0  0  0  0  0  0  0  0  0  0  0  0
    0.3151    1.2854    5.0014 N   0  0  0  0  0  0  0  0  0  0  0  0
    1.1596    1.8271    6.3628 S   0  0  0  0  0  0  0  0  0  0  0  0
    0.3676    2.9018    6.9253 O   0  0  0  0  0  0  0  0  0  0  0  0
    1.5665    0.6955    7.1666 O   0  0  0  0  0  0  0  0  0  0  0  0
    2.6253    2.5720    5.6738 C   0  0  0  0  0  0  0  0  0  0  0  0
    2.6053    3.9258    5.3186 C   0  0  0  0  0  0  0  0  0  0  0  0
    3.7671    4.5308    4.8403 C   0  0  0  0  0  0  0  0  0  0  0  0
    4.9443    3.7919    4.7246 C   0  0  0  0  0  0  0  0  0  0  0  0
    4.9645    2.4440    5.0896 C   0  0  0  0  0  0  0  0  0  0  0  0
    3.8078    1.8302    5.5731 C   0  0  0  0  0  0  0  0  0  0  0  0
    1.6621    0.5236    3.1177 C   0  0  0  0  0  0  0  0  0  0  0  0
    3.2200    0.3794   -1.2300 C   0  0  0  0  0  0  0  0  0  0  0  0
    2.6111    0.6182   -2.2745 O   0  0  0  0  0  0  0  0  0  0  0  0
    4.6723    0.7219   -1.2115 C   0  0  0  0  0  0  0  0  0  0  0  0
    5.6369   -0.0405   -0.5586 C   0  0  0  0  0  0  0  0  0  0  0  0
    6.9468    0.4005   -0.5730 C   0  0  0  0  0  0  0  0  0  0  0  0
    7.3604    1.4921   -1.2420 N   0  0  0  0  0  0  0  0  0  0  0  0
    6.4309    2.1760   -1.9591 C   0  0  0  0  0  0  0  0  0  0  0  0
    6.9334    3.3058   -2.7505 C   0  0  0  0  0  0  0  0  0  0  0  0
    6.1498    4.0377   -3.5650 N   0  0  0  0  0  0  0  0  0  0  0  0
    6.9782    4.9439   -4.1065 N   0  0  0  0  0  0  0  0  0  0  0  0
    8.2616    4.8455   -3.6656 C   0  0  0  0  0  0  0  0  0  0  0  0
    8.2724    3.7879   -2.7910 C   0  0  0  0  0  0  0  0  0  0  0  0
    5.0854    1.8297   -1.9590 C   0  0  0  0  0  0  0  0  0  0  0  0
    0.6931   -0.9669    0.5259 H   0  0  0  0  0  0  0  0  0  0  0  0
    0.9505   -0.8938   -1.2130 H   0  0  0  0  0  0  0  0  0  0  0  0
    0.6294    0.6085   -0.3167 H   0  0  0  0  0  0  0  0  0  0  0  0
    3.7203    0.7149    1.4192 H   0  0  0  0  0  0  0  0  0  0  0  0
    3.9011   -1.0207    1.2072 H   0  0  0  0  0  0  0  0  0  0  0  0
    2.5039   -2.6674    2.2458 H   0  0  0  0  0  0  0  0  0  0  0  0
    1.0955   -3.1628    4.2127 H   0  0  0  0  0  0  0  0  0  0  0  0
    0.0796   -1.3139    5.5096 H   0  0  0  0  0  0  0  0  0  0  0  0
   -0.1102    2.0563    4.4889 H   0  0  0  0  0  0  0  0  0  0  0  0
    1.6994    4.5178    5.4297 H   0  0  0  0  0  0  0  0  0  0  0  0
    3.7622    5.5870    4.5748 H   0  0  0  0  0  0  0  0  0  0  0  0
    5.8525    4.2714    4.3671 H   0  0  0  0  0  0  0  0  0  0  0  0
    5.8892    1.8772    5.0137 H   0  0  0  0  0  0  0  0  0  0  0  0
    3.8358    0.7845    5.8733 H   0  0  0  0  0  0  0  0  0  0  0  0
    1.8268    1.5545    2.8142 H   0  0  0  0  0  0  0  0  0  0  0  0
    5.4108   -0.9752   -0.0678 H   0  0  0  0  0  0  0  0  0  0  0  0
    7.7249   -0.1382   -0.0390 H   0  0  0  0  0  0  0  0  0  0  0  0
    6.5942    5.6061   -4.7725 H   0  0  0  0  0  0  0  0  0  0  0  0
    9.0367    5.5158   -4.0075 H   0  0  0  0  0  0  0  0  0  0  0  0
    9.1197    3.3985   -2.2433 H   0  0  0  0  0  0  0  0  0  0  0  0
    4.3706    2.4024   -2.5448 H   0  0  0  0  0  0  0  0  0  0  0  0
  1  2  1  0  0  0  0
  1 33  1  0  0  0  0
  1 34  1  0  0  0  0
  1 35  1  0  0  0  0
  2  3  1  0  0  0  0
  2 20  1  0  0  0  0
  3  4  1  0  0  0  0
  3 36  1  0  0  0  0
  3 37  1  0  0  0  0
  4  5  2  0  0  0  0
  4 19  1  0  0  0  0
  5  6  1  0  0  0  0
  5 38  1  0  0  0  0
  6  7  2  0  0  0  0
  6 39  1  0  0  0  0
  7  8  1  0  0  0  0
  7 40  1  0  0  0  0
  8  9  1  0  0  0  0
  8 19  2  0  0  0  0
  9 10  1  0  0  0  0
  9 41  1  0  0  0  0
 10 11  2  0  0  0  0
 10 12  2  0  0  0  0
 10 13  1  0  0  0  0
 13 14  2  0  0  0  0
 13 18  1  0  0  0  0
 14 15  1  0  0  0  0
 14 42  1  0  0  0  0
 15 16  2  0  0  0  0
 15 43  1  0  0  0  0
 16 17  1  0  0  0  0
 16 44  1  0  0  0  0
 17 18  2  0  0  0  0
 17 45  1  0  0  0  0
 18 46  1  0  0  0  0
 19 47  1  0  0  0  0
 20 21  2  0  0  0  0
 20 22  1  0  0  0  0
 22 23  2  0  0  0  0
 22 32  1  0  0  0  0
 23 24  1  0  0  0  0
 23 48  1  0  0  0  0
 24 25  2  0  0  0  0
 24 49  1  0  0  0  0
 25 26  1  0  0  0  0
 26 27  1  0  0  0  0
 26 32  2  0  0  0  0
 27 28  2  0  0  0  0
 27 31  1  0  0  0  0
 28 29  1  0  0  0  0
 29 30  1  0  0  0  0
 29 50  1  0  0  0  0
 30 31  2  0  0  0  0
 30 51  1  0  0  0  0
 31 52  1  0  0  0  0
 32 53  1  0  0  0  0
M  END
$$$$
