
 OpenBabel01122422473D

 46 49  0  0  0  0  0  0  0  0999 V2000
    1.0085    0.0912    0.1067 O   0  0  0  0  0  0  0  0  0  0  0  0
    2.2382    0.0857    0.1564 C   0  0  0  0  0  0  0  0  0  0  0  0
    2.9743   -0.7651    0.9519 N   0  0  0  0  0  0  0  0  0  0  0  0
    2.4344   -1.7649    1.7455 C   0  0  0  0  0  0  0  0  0  0  0  0
    1.2116   -2.2915    1.5683 C   0  0  0  0  0  0  0  0  0  0  0  0
    0.6741   -3.2853    2.4456 C   0  0  0  0  0  0  0  0  0  0  0  0
    1.3742   -3.6738    3.5140 C   0  0  0  0  0  0  0  0  0  0  0  0
    2.6443   -3.1792    3.7779 N   0  0  0  0  0  0  0  0  0  0  0  0
    3.3017   -3.5225    4.9967 C   0  0  0  0  0  0  0  0  0  0  0  0
    2.6142   -3.4035    6.2149 C   0  0  0  0  0  0  0  0  0  0  0  0
    3.2772   -3.6339    7.4222 C   0  0  0  0  0  0  0  0  0  0  0  0
    4.6121   -4.0316    7.4161 C   0  0  0  0  0  0  0  0  0  0  0  0
    5.2855   -4.2018    6.2072 C   0  0  0  0  0  0  0  0  0  0  0  0
    4.6373   -3.9348    5.0010 C   0  0  0  0  0  0  0  0  0  0  0  0
    3.2708   -2.2577    2.9063 C   0  0  0  0  0  0  0  0  0  0  0  0
    4.3935   -1.7664    3.0559 O   0  0  0  0  0  0  0  0  0  0  0  0
    2.9737    1.0546   -0.6461 C   0  0  0  0  0  0  0  0  0  0  0  0
    4.3042    1.0449   -0.8470 N   0  0  0  0  0  0  0  0  0  0  0  0
    4.5466    2.0919   -1.7382 O   0  0  0  0  0  0  0  0  0  0  0  0
    3.3709    2.7130   -2.0394 C   0  0  0  0  0  0  0  0  0  0  0  0
    3.3869    3.8410   -2.9878 C   0  0  0  0  0  0  0  0  0  0  0  0
    3.5353    5.0204   -2.2044 O   0  0  0  0  0  0  0  0  0  0  0  0
    3.5025    6.2079   -2.8831 C   0  0  0  0  0  0  0  0  0  0  0  0
    3.3455    6.3566   -4.2617 C   0  0  0  0  0  0  0  0  0  0  0  0
    3.3447    7.6300   -4.8341 C   0  0  0  0  0  0  0  0  0  0  0  0
    3.4975    8.7574   -4.0316 C   0  0  0  0  0  0  0  0  0  0  0  0
    3.6457    8.6158   -2.6538 C   0  0  0  0  0  0  0  0  0  0  0  0
    3.6469    7.3435   -2.0828 C   0  0  0  0  0  0  0  0  0  0  0  0
    2.3561    2.1014   -1.3615 C   0  0  0  0  0  0  0  0  0  0  0  0
    3.9607   -0.5453    1.1026 H   0  0  0  0  0  0  0  0  0  0  0  0
    0.5606   -1.9950    0.7525 H   0  0  0  0  0  0  0  0  0  0  0  0
   -0.3107   -3.6862    2.2313 H   0  0  0  0  0  0  0  0  0  0  0  0
    0.9781   -4.4253    4.1914 H   0  0  0  0  0  0  0  0  0  0  0  0
    1.5873   -3.0542    6.2387 H   0  0  0  0  0  0  0  0  0  0  0  0
    2.7568   -3.4791    8.3627 H   0  0  0  0  0  0  0  0  0  0  0  0
    5.1321   -4.1983    8.3549 H   0  0  0  0  0  0  0  0  0  0  0  0
    6.3237   -4.5236    6.2014 H   0  0  0  0  0  0  0  0  0  0  0  0
    5.1770   -4.0641    4.0665 H   0  0  0  0  0  0  0  0  0  0  0  0
    2.4268    3.8602   -3.5183 H   0  0  0  0  0  0  0  0  0  0  0  0
    4.2083    3.7331   -3.7054 H   0  0  0  0  0  0  0  0  0  0  0  0
    3.2242    5.5072   -4.9244 H   0  0  0  0  0  0  0  0  0  0  0  0
    3.2268    7.7395   -5.9092 H   0  0  0  0  0  0  0  0  0  0  0  0
    3.5024    9.7481   -4.4805 H   0  0  0  0  0  0  0  0  0  0  0  0
    3.7629    9.4936   -2.0238 H   0  0  0  0  0  0  0  0  0  0  0  0
    3.7638    7.2354   -1.0061 H   0  0  0  0  0  0  0  0  0  0  0  0
    1.3024    2.3471   -1.3834 H   0  0  0  0  0  0  0  0  0  0  0  0
  1  2  2  0  0  0  0
  2  3  1  0  0  0  0
  2 17  1  0  0  0  0
  3  4  1  0  0  0  0
  3 30  1  0  0  0  0
  4  5  2  0  0  0  0
  4 15  1  0  0  0  0
  5  6  1  0  0  0  0
  5 31  1  0  0  0  0
  6  7  2  0  0  0  0
  6 32  1  0  0  0  0
  7  8  1  0  0  0  0
  7 33  1  0  0  0  0
  8  9  1  0  0  0  0
  8 15  1  0  0  0  0
  9 10  2  0  0  0  0
  9 14  1  0  0  0  0
 10 11  1  0  0  0  0
 10 34  1  0  0  0  0
 11 12  2  0  0  0  0
 11 35  1  0  0  0  0
 12 13  1  0  0  0  0
 12 36  1  0  0  0  0
 13 14  2  0  0  0  0
 13 37  1  0  0  0  0
 14 38  1  0  0  0  0
 15 16  2  0  0  0  0
 17 18  2  0  0  0  0
 17 29  1  0  0  0  0
 18 19  1  0  0  0  0
 19 20  1  0  0  0  0
 20 21  1  0  0  0  0
 20 29  2  0  0  0  0
 21 22  1  0  0  0  0
 21 39  1  0  0  0  0
 21 40  1  0  0  0  0
 22 23  1  0  0  0  0
 23 24  2  0  0  0  0
 23 28  1  0  0  0  0
 24 25  1  0  0  0  0
 24 41  1  0  0  0  0
 25 26  2  0  0  0  0
 25 42  1  0  0  0  0
 26 27  1  0  0  0  0
 26 43  1  0  0  0  0
 27 28  2  0  0  0  0
 27 44  1  0  0  0  0
 28 45  1  0  0  0  0
 29 46  1  0  0  0  0
M  END
$$$$
