
 OpenBabel01122422473D

 43 46  0  0  0  0  0  0  0  0999 V2000
    1.1391    0.1010   -0.0781 O   0  0  0  0  0  0  0  0  0  0  0  0
    2.3409   -0.0996   -0.0086 C   0  0  0  0  0  0  0  0  0  0  0  0
    3.1993    0.4855    0.8551 O   0  0  0  0  0  0  0  0  0  0  0  0
    2.7315    1.6992    1.4612 C   0  0  0  0  0  0  0  0  0  0  0  0
    3.1302    2.8243    0.5629 C   0  0  0  0  0  0  0  0  0  0  0  0
    3.7194    2.6993   -0.6163 N   0  0  0  0  0  0  0  0  0  0  0  0
    3.6114    3.9391   -1.1571 C   0  0  0  0  0  0  0  0  0  0  0  0
    2.9939    4.8397   -0.3979 N   0  0  0  0  0  0  0  0  0  0  0  0
    2.7871    4.1554    0.7587 N   0  0  0  0  0  0  0  0  0  0  0  0
    2.3199    4.8338    1.9144 C   0  0  0  0  0  0  0  0  0  0  0  0
    1.5922    6.0237    1.7612 C   0  0  0  0  0  0  0  0  0  0  0  0
    1.1287    6.7120    2.8845 C   0  0  0  0  0  0  0  0  0  0  0  0
    1.4101    6.2345    4.1629 C   0  0  0  0  0  0  0  0  0  0  0  0
    2.1645    5.0749    4.3217 C   0  0  0  0  0  0  0  0  0  0  0  0
    2.6225    4.3768    3.2024 C   0  0  0  0  0  0  0  0  0  0  0  0
    3.0930   -0.9757   -0.9451 C   0  0  0  0  0  0  0  0  0  0  0  0
    2.3725   -1.6322   -1.9565 C   0  0  0  0  0  0  0  0  0  0  0  0
    3.0213   -2.3948   -2.9464 C   0  0  0  0  0  0  0  0  0  0  0  0
    2.2773   -3.0735   -4.0267 C   0  0  0  0  0  0  0  0  0  0  0  0
    1.0665   -2.5993   -4.5343 C   0  0  0  0  0  0  0  0  0  0  0  0
    0.4249   -3.3093   -5.5476 C   0  0  0  0  0  0  0  0  0  0  0  0
    1.0051   -4.4709   -6.0372 C   0  0  0  0  0  0  0  0  0  0  0  0
    2.2103   -4.8728   -5.4921 C   0  0  0  0  0  0  0  0  0  0  0  0
    2.8528   -4.2044   -4.5101 N   0  0  0  0  0  0  0  0  0  0  0  0
    4.4226   -2.4891   -2.8726 C   0  0  0  0  0  0  0  0  0  0  0  0
    5.1316   -1.8524   -1.8592 C   0  0  0  0  0  0  0  0  0  0  0  0
    6.4668   -1.9535   -1.8248 F   0  0  0  0  0  0  0  0  0  0  0  0
    4.4835   -1.0984   -0.8939 C   0  0  0  0  0  0  0  0  0  0  0  0
    3.2389    1.7501    2.4239 H   0  0  0  0  0  0  0  0  0  0  0  0
    1.6505    1.6839    1.6400 H   0  0  0  0  0  0  0  0  0  0  0  0
    3.9823    4.1905   -2.1430 H   0  0  0  0  0  0  0  0  0  0  0  0
    1.3625    6.4176    0.7719 H   0  0  0  0  0  0  0  0  0  0  0  0
    0.5525    7.6256    2.7609 H   0  0  0  0  0  0  0  0  0  0  0  0
    1.0583    6.7775    5.0364 H   0  0  0  0  0  0  0  0  0  0  0  0
    2.4178    4.7251    5.3200 H   0  0  0  0  0  0  0  0  0  0  0  0
    3.2763    3.5326    3.3821 H   0  0  0  0  0  0  0  0  0  0  0  0
    1.2875   -1.5374   -1.9633 H   0  0  0  0  0  0  0  0  0  0  0  0
    0.6182   -1.6815   -4.1668 H   0  0  0  0  0  0  0  0  0  0  0  0
   -0.5179   -2.9530   -5.9521 H   0  0  0  0  0  0  0  0  0  0  0  0
    0.5325   -5.0468   -6.8244 H   0  0  0  0  0  0  0  0  0  0  0  0
    2.7101   -5.7730   -5.8405 H   0  0  0  0  0  0  0  0  0  0  0  0
    4.9774   -3.0566   -3.6167 H   0  0  0  0  0  0  0  0  0  0  0  0
    5.0781   -0.5995   -0.1355 H   0  0  0  0  0  0  0  0  0  0  0  0
  1  2  2  0  0  0  0
  2  3  1  0  0  0  0
  2 16  1  0  0  0  0
  3  4  1  0  0  0  0
  4  5  1  0  0  0  0
  4 29  1  0  0  0  0
  4 30  1  0  0  0  0
  5  6  2  0  0  0  0
  5  9  1  0  0  0  0
  6  7  1  0  0  0  0
  7  8  2  0  0  0  0
  7 31  1  0  0  0  0
  8  9  1  0  0  0  0
  9 10  1  0  0  0  0
 10 11  2  0  0  0  0
 10 15  1  0  0  0  0
 11 12  1  0  0  0  0
 11 32  1  0  0  0  0
 12 13  2  0  0  0  0
 12 33  1  0  0  0  0
 13 14  1  0  0  0  0
 13 34  1  0  0  0  0
 14 15  2  0  0  0  0
 14 35  1  0  0  0  0
 15 36  1  0  0  0  0
 16 17  2  0  0  0  0
 16 28  1  0  0  0  0
 17 18  1  0  0  0  0
 17 37  1  0  0  0  0
 18 19  1  0  0  0  0
 18 25  2  0  0  0  0
 19 20  2  0  0  0  0
 19 24  1  0  0  0  0
 20 21  1  0  0  0  0
 20 38  1  0  0  0  0
 21 22  2  0  0  0  0
 21 39  1  0  0  0  0
 22 23  1  0  0  0  0
 22 40  1  0  0  0  0
 23 24  2  0  0  0  0
 23 41  1  0  0  0  0
 25 26  1  0  0  0  0
 25 42  1  0  0  0  0
 26 27  1  0  0  0  0
 26 28  2  0  0  0  0
 28 43  1  0  0  0  0
M  END
$$$$
