
 OpenBabel01122422473D

 46 49  0  0  0  0  0  0  0  0999 V2000
    1.2451    0.1381    0.7349 O   0  0  0  0  0  0  0  0  0  0  0  0
    2.1750   -0.1215   -0.0140 C   0  0  0  0  0  0  0  0  0  0  0  0
    2.8395   -1.2980   -0.0662 O   0  0  0  0  0  0  0  0  0  0  0  0
    2.6779   -2.1496    1.0771 C   0  0  0  0  0  0  0  0  0  0  0  0
    3.7865   -1.8328    2.0263 C   0  0  0  0  0  0  0  0  0  0  0  0
    4.6871   -0.8736    1.8482 N   0  0  0  0  0  0  0  0  0  0  0  0
    5.4010   -0.7264    3.0017 N   0  0  0  0  0  0  0  0  0  0  0  0
    4.9398   -1.6012    3.8623 C   0  0  0  0  0  0  0  0  0  0  0  0
    3.9551   -2.3733    3.2932 N   0  0  0  0  0  0  0  0  0  0  0  0
    3.3076   -3.4756    3.9132 C   0  0  0  0  0  0  0  0  0  0  0  0
    3.1736   -3.5056    5.3119 C   0  0  0  0  0  0  0  0  0  0  0  0
    2.5444   -4.5884    5.9329 C   0  0  0  0  0  0  0  0  0  0  0  0
    2.0684   -5.6439    5.1644 C   0  0  0  0  0  0  0  0  0  0  0  0
    1.4723   -6.6815    5.7626 F   0  0  0  0  0  0  0  0  0  0  0  0
    2.2168   -5.6400    3.7845 C   0  0  0  0  0  0  0  0  0  0  0  0
    2.8388   -4.5590    3.1567 C   0  0  0  0  0  0  0  0  0  0  0  0
    2.7885    0.8550   -0.9550 C   0  0  0  0  0  0  0  0  0  0  0  0
    2.2767    2.1564   -0.9859 C   0  0  0  0  0  0  0  0  0  0  0  0
    2.8732    3.1257   -1.7938 C   0  0  0  0  0  0  0  0  0  0  0  0
    4.0120    2.8142   -2.5390 C   0  0  0  0  0  0  0  0  0  0  0  0
    4.5602    1.5254   -2.4929 C   0  0  0  0  0  0  0  0  0  0  0  0
    5.9119    1.2383   -3.1221 C   0  0  0  0  0  0  0  0  0  0  0  0
    7.0608    1.5549   -2.1814 C   0  0  0  0  0  0  0  0  0  0  0  0
    7.2038    0.8588   -0.9790 C   0  0  0  0  0  0  0  0  0  0  0  0
    8.1657    1.2728   -0.0640 C   0  0  0  0  0  0  0  0  0  0  0  0
    8.9875    2.3435   -0.3832 C   0  0  0  0  0  0  0  0  0  0  0  0
    8.8227    2.9454   -1.6195 C   0  0  0  0  0  0  0  0  0  0  0  0
    7.8820    2.5811   -2.5214 N   0  0  0  0  0  0  0  0  0  0  0  0
    3.9143    0.5392   -1.7286 C   0  0  0  0  0  0  0  0  0  0  0  0
    2.7617   -3.1659    0.6939 H   0  0  0  0  0  0  0  0  0  0  0  0
    1.6943   -2.0393    1.5484 H   0  0  0  0  0  0  0  0  0  0  0  0
    5.3233   -1.7473    4.8615 H   0  0  0  0  0  0  0  0  0  0  0  0
    3.5119   -2.6860    5.9422 H   0  0  0  0  0  0  0  0  0  0  0  0
    2.4188   -4.6147    7.0113 H   0  0  0  0  0  0  0  0  0  0  0  0
    1.8627   -6.4889    3.2063 H   0  0  0  0  0  0  0  0  0  0  0  0
    3.0031   -4.6382    2.0872 H   0  0  0  0  0  0  0  0  0  0  0  0
    1.4305    2.4282   -0.3576 H   0  0  0  0  0  0  0  0  0  0  0  0
    2.4752    4.1373   -1.8083 H   0  0  0  0  0  0  0  0  0  0  0  0
    4.4978    3.5955   -3.1217 H   0  0  0  0  0  0  0  0  0  0  0  0
    6.0148    1.8293   -4.0418 H   0  0  0  0  0  0  0  0  0  0  0  0
    5.9723    0.1884   -3.4330 H   0  0  0  0  0  0  0  0  0  0  0  0
    6.5480    0.0338   -0.7206 H   0  0  0  0  0  0  0  0  0  0  0  0
    8.2466    0.7754    0.8989 H   0  0  0  0  0  0  0  0  0  0  0  0
    9.7311    2.7040    0.3178 H   0  0  0  0  0  0  0  0  0  0  0  0
    9.4551    3.7753   -1.9211 H   0  0  0  0  0  0  0  0  0  0  0  0
    4.3417   -0.4600   -1.6871 H   0  0  0  0  0  0  0  0  0  0  0  0
  1  2  2  0  0  0  0
  2  3  1  0  0  0  0
  2 17  1  0  0  0  0
  3  4  1  0  0  0  0
  4  5  1  0  0  0  0
  4 30  1  0  0  0  0
  4 31  1  0  0  0  0
  5  6  2  0  0  0  0
  5  9  1  0  0  0  0
  6  7  1  0  0  0  0
  7  8  2  0  0  0  0
  8  9  1  0  0  0  0
  8 32  1  0  0  0  0
  9 10  1  0  0  0  0
 10 11  2  0  0  0  0
 10 16  1  0  0  0  0
 11 12  1  0  0  0  0
 11 33  1  0  0  0  0
 12 13  2  0  0  0  0
 12 34  1  0  0  0  0
 13 14  1  0  0  0  0
 13 15  1  0  0  0  0
 15 16  2  0  0  0  0
 15 35  1  0  0  0  0
 16 36  1  0  0  0  0
 17 18  2  0  0  0  0
 17 29  1  0  0  0  0
 18 19  1  0  0  0  0
 18 37  1  0  0  0  0
 19 20  2  0  0  0  0
 19 38  1  0  0  0  0
 20 21  1  0  0  0  0
 20 39  1  0  0  0  0
 21 22  1  0  0  0  0
 21 29  2  0  0  0  0
 22 23  1  0  0  0  0
 22 40  1  0  0  0  0
 22 41  1  0  0  0  0
 23 24  2  0  0  0  0
 23 28  1  0  0  0  0
 24 25  1  0  0  0  0
 24 42  1  0  0  0  0
 25 26  2  0  0  0  0
 25 43  1  0  0  0  0
 26 27  1  0  0  0  0
 26 44  1  0  0  0  0
 27 28  2  0  0  0  0
 27 45  1  0  0  0  0
 29 46  1  0  0  0  0
M  END
$$$$
