
 OpenBabel01122422453D

 49 52  0  0  0  0  0  0  0  0999 V2000
    2.7614    1.4180   -0.8184 N   0  0  0  0  0  0  0  0  0  0  0  0
    2.4121    0.2262   -0.0512 C   0  0  0  0  0  0  0  0  0  0  0  0
    2.8137    0.3567    1.3953 C   0  0  0  0  0  0  0  0  0  0  0  0
    2.3741    1.4293    2.1757 C   0  0  0  0  0  0  0  0  0  0  0  0
    2.8092    1.5752    3.5013 C   0  0  0  0  0  0  0  0  0  0  0  0
    3.6664    0.6378    4.1150 C   0  0  0  0  0  0  0  0  0  0  0  0
    4.1450    0.8138    5.5228 C   0  0  0  0  0  0  0  0  0  0  0  0
    3.2837    1.4274    6.4660 C   0  0  0  0  0  0  0  0  0  0  0  0
    3.6329    1.5938    7.8106 C   0  0  0  0  0  0  0  0  0  0  0  0
    4.8573    1.1370    8.2723 C   0  0  0  0  0  0  0  0  0  0  0  0
    5.7461    0.5475    7.3791 C   0  0  0  0  0  0  0  0  0  0  0  0
    5.4103    0.3900    6.0168 C   0  0  0  0  0  0  0  0  0  0  0  0
    6.4856   -0.1595    5.1383 C   0  0  0  0  0  0  0  0  0  0  0  0
    6.7607    0.4220    4.0968 O   0  0  0  0  0  0  0  0  0  0  0  0
    7.0998   -1.3106    5.6193 N   0  0  0  0  0  0  0  0  0  0  0  0
    8.0452   -2.1169    4.9490 C   0  0  0  0  0  0  0  0  0  0  0  0
    8.3960   -1.9564    3.6123 C   0  0  0  0  0  0  0  0  0  0  0  0
    9.2881   -2.8450    2.9922 C   0  0  0  0  0  0  0  0  0  0  0  0
    9.8533   -3.9190    3.6880 C   0  0  0  0  0  0  0  0  0  0  0  0
   10.7203   -4.8513    3.0539 N   0  0  0  0  0  0  0  0  0  0  0  0
   11.1322   -6.0840    3.5348 C   0  0  0  0  0  0  0  0  0  0  0  0
   11.9346   -6.6783    2.6417 C   0  0  0  0  0  0  0  0  0  0  0  0
   12.0734   -5.8530    1.5649 N   0  0  0  0  0  0  0  0  0  0  0  0
   11.3222   -4.6748    1.7606 C   0  0  0  0  0  0  0  0  0  0  0  0
   11.2709   -3.7564    0.9621 O   0  0  0  0  0  0  0  0  0  0  0  0
    9.5155   -4.0568    5.0432 C   0  0  0  0  0  0  0  0  0  0  0  0
    8.6259   -3.1664    5.6656 C   0  0  0  0  0  0  0  0  0  0  0  0
    4.0217   -0.4757    3.3347 C   0  0  0  0  0  0  0  0  0  0  0  0
    3.6344   -0.5998    1.9938 C   0  0  0  0  0  0  0  0  0  0  0  0
    2.6260    1.2273   -1.8086 H   0  0  0  0  0  0  0  0  0  0  0  0
    3.7582    1.5980   -0.6954 H   0  0  0  0  0  0  0  0  0  0  0  0
    2.9108   -0.6385   -0.5049 H   0  0  0  0  0  0  0  0  0  0  0  0
    1.3333    0.0467   -0.1123 H   0  0  0  0  0  0  0  0  0  0  0  0
    1.7139    2.1786    1.7419 H   0  0  0  0  0  0  0  0  0  0  0  0
    2.4725    2.4604    4.0375 H   0  0  0  0  0  0  0  0  0  0  0  0
    2.3008    1.7867    6.1639 H   0  0  0  0  0  0  0  0  0  0  0  0
    2.9429    2.0861    8.4926 H   0  0  0  0  0  0  0  0  0  0  0  0
    5.1305    1.2603    9.3166 H   0  0  0  0  0  0  0  0  0  0  0  0
    6.7247    0.2480    7.7482 H   0  0  0  0  0  0  0  0  0  0  0  0
    6.8264   -1.6307    6.5382 H   0  0  0  0  0  0  0  0  0  0  0  0
    7.9727   -1.1644    3.0018 H   0  0  0  0  0  0  0  0  0  0  0  0
    9.4908   -2.6825    1.9368 H   0  0  0  0  0  0  0  0  0  0  0  0
   10.8043   -6.4900    4.4810 H   0  0  0  0  0  0  0  0  0  0  0  0
   12.4165   -7.6449    2.6922 H   0  0  0  0  0  0  0  0  0  0  0  0
   12.6181   -6.0171    0.7328 H   0  0  0  0  0  0  0  0  0  0  0  0
    9.9494   -4.8406    5.6532 H   0  0  0  0  0  0  0  0  0  0  0  0
    8.4066   -3.3091    6.7202 H   0  0  0  0  0  0  0  0  0  0  0  0
    4.6418   -1.2704    3.7440 H   0  0  0  0  0  0  0  0  0  0  0  0
    4.0014   -1.4493    1.4225 H   0  0  0  0  0  0  0  0  0  0  0  0
  1  2  1  0  0  0  0
  1 30  1  0  0  0  0
  1 31  1  0  0  0  0
  2  3  1  0  0  0  0
  2 32  1  0  0  0  0
  2 33  1  0  0  0  0
  3  4  2  0  0  0  0
  3 29  1  0  0  0  0
  4  5  1  0  0  0  0
  4 34  1  0  0  0  0
  5  6  2  0  0  0  0
  5 35  1  0  0  0  0
  6  7  1  0  0  0  0
  6 28  1  0  0  0  0
  7  8  2  0  0  0  0
  7 12  1  0  0  0  0
  8  9  1  0  0  0  0
  8 36  1  0  0  0  0
  9 10  2  0  0  0  0
  9 37  1  0  0  0  0
 10 11  1  0  0  0  0
 10 38  1  0  0  0  0
 11 12  2  0  0  0  0
 11 39  1  0  0  0  0
 12 13  1  0  0  0  0
 13 14  2  0  0  0  0
 13 15  1  0  0  0  0
 15 16  1  0  0  0  0
 15 40  1  0  0  0  0
 16 17  2  0  0  0  0
 16 27  1  0  0  0  0
 17 18  1  0  0  0  0
 17 41  1  0  0  0  0
 18 19  2  0  0  0  0
 18 42  1  0  0  0  0
 19 20  1  0  0  0  0
 19 26  1  0  0  0  0
 20 21  1  0  0  0  0
 20 24  1  0  0  0  0
 21 22  2  0  0  0  0
 21 43  1  0  0  0  0
 22 23  1  0  0  0  0
 22 44  1  0  0  0  0
 23 24  1  0  0  0  0
 23 45  1  0  0  0  0
 24 25  2  0  0  0  0
 26 27  2  0  0  0  0
 26 46  1  0  0  0  0
 27 47  1  0  0  0  0
 28 29  2  0  0  0  0
 28 48  1  0  0  0  0
 29 49  1  0  0  0  0
M  END
$$$$
