
 OpenBabel01122422483D

 44 47  0  0  0  0  0  0  0  0999 V2000
    7.3564   -2.8110    1.4121 C   0  0  0  0  0  0  0  0  0  0  0  0
    6.3134   -1.8501    1.5464 O   0  0  0  0  0  0  0  0  0  0  0  0
    5.1332   -2.1549    0.9216 C   0  0  0  0  0  0  0  0  0  0  0  0
    4.6745   -3.4490    0.6653 C   0  0  0  0  0  0  0  0  0  0  0  0
    3.4373   -3.6748    0.0316 C   0  0  0  0  0  0  0  0  0  0  0  0
    2.9706   -5.0570   -0.2121 C   0  0  0  0  0  0  0  0  0  0  0  0
    3.6518   -6.0030    0.1734 O   0  0  0  0  0  0  0  0  0  0  0  0
    1.8057   -5.2056   -0.9550 N   0  0  0  0  0  0  0  0  0  0  0  0
    1.2817   -6.4349   -1.2971 C   0  0  0  0  0  0  0  0  0  0  0  0
    1.0043   -7.4174   -0.4150 C   0  0  0  0  0  0  0  0  0  0  0  0
    1.0494   -7.2350    0.9934 C   0  0  0  0  0  0  0  0  0  0  0  0
    1.0338   -7.0385    2.1437 N   0  0  0  0  0  0  0  0  0  0  0  0
    0.4733   -8.7248   -0.9133 C   0  0  0  0  0  0  0  0  0  0  0  0
    0.1251   -9.5776   -0.0951 O   0  0  0  0  0  0  0  0  0  0  0  0
    0.3530   -8.8680   -2.3117 N   0  0  0  0  0  0  0  0  0  0  0  0
   -0.1867  -10.0964   -2.8081 C   0  0  0  0  0  0  0  0  0  0  0  0
   -1.2734  -10.0792   -3.6921 C   0  0  0  0  0  0  0  0  0  0  0  0
   -1.9006  -11.2721   -4.0560 C   0  0  0  0  0  0  0  0  0  0  0  0
   -1.4183  -12.4904   -3.5795 C   0  0  0  0  0  0  0  0  0  0  0  0
   -0.3014  -12.5208   -2.7477 C   0  0  0  0  0  0  0  0  0  0  0  0
    0.3072  -11.3278   -2.3568 C   0  0  0  0  0  0  0  0  0  0  0  0
    0.6155   -7.8088   -3.1662 C   0  0  0  0  0  0  0  0  0  0  0  0
    1.0357   -6.6260   -2.7081 C   0  0  0  0  0  0  0  0  0  0  0  0
    2.7036   -2.5432   -0.3279 C   0  0  0  0  0  0  0  0  0  0  0  0
    1.4985   -2.5250   -0.9735 O   0  0  0  0  0  0  0  0  0  0  0  0
    1.1333   -1.2258   -1.1093 C   0  0  0  0  0  0  0  0  0  0  0  0
    2.0929   -0.3978   -0.5760 C   0  0  0  0  0  0  0  0  0  0  0  0
    3.1183   -1.2406   -0.0713 C   0  0  0  0  0  0  0  0  0  0  0  0
    4.3504   -1.0428    0.5762 C   0  0  0  0  0  0  0  0  0  0  0  0
    8.2514   -2.4006    1.8903 H   0  0  0  0  0  0  0  0  0  0  0  0
    7.5891   -2.9858    0.3559 H   0  0  0  0  0  0  0  0  0  0  0  0
    7.1151   -3.7471    1.9238 H   0  0  0  0  0  0  0  0  0  0  0  0
    5.2548   -4.3167    0.9704 H   0  0  0  0  0  0  0  0  0  0  0  0
    1.5417   -4.4007   -1.5180 H   0  0  0  0  0  0  0  0  0  0  0  0
   -1.6982   -9.1391   -4.0321 H   0  0  0  0  0  0  0  0  0  0  0  0
   -2.7871  -11.2481   -4.6840 H   0  0  0  0  0  0  0  0  0  0  0  0
   -1.9226  -13.4164   -3.8429 H   0  0  0  0  0  0  0  0  0  0  0  0
    0.0806  -13.4688   -2.3778 H   0  0  0  0  0  0  0  0  0  0  0  0
    1.1658  -11.3687   -1.6897 H   0  0  0  0  0  0  0  0  0  0  0  0
    0.5021   -7.9866   -4.2325 H   0  0  0  0  0  0  0  0  0  0  0  0
    1.2606   -5.8237   -3.4038 H   0  0  0  0  0  0  0  0  0  0  0  0
    0.1832   -1.0553   -1.5960 H   0  0  0  0  0  0  0  0  0  0  0  0
    2.0586    0.6822   -0.5526 H   0  0  0  0  0  0  0  0  0  0  0  0
    4.7049   -0.0397    0.7981 H   0  0  0  0  0  0  0  0  0  0  0  0
  1  2  1  0  0  0  0
  1 30  1  0  0  0  0
  1 31  1  0  0  0  0
  1 32  1  0  0  0  0
  2  3  1  0  0  0  0
  3  4  2  0  0  0  0
  3 29  1  0  0  0  0
  4  5  1  0  0  0  0
  4 33  1  0  0  0  0
  5  6  1  0  0  0  0
  5 24  2  0  0  0  0
  6  7  2  0  0  0  0
  6  8  1  0  0  0  0
  8  9  1  0  0  0  0
  8 34  1  0  0  0  0
  9 10  2  0  0  0  0
  9 23  1  0  0  0  0
 10 11  1  0  0  0  0
 10 13  1  0  0  0  0
 11 12  3  0  0  0  0
 13 14  2  0  0  0  0
 13 15  1  0  0  0  0
 15 16  1  0  0  0  0
 15 22  1  0  0  0  0
 16 17  2  0  0  0  0
 16 21  1  0  0  0  0
 17 18  1  0  0  0  0
 17 35  1  0  0  0  0
 18 19  2  0  0  0  0
 18 36  1  0  0  0  0
 19 20  1  0  0  0  0
 19 37  1  0  0  0  0
 20 21  2  0  0  0  0
 20 38  1  0  0  0  0
 21 39  1  0  0  0  0
 22 23  2  0  0  0  0
 22 40  1  0  0  0  0
 23 41  1  0  0  0  0
 24 25  1  0  0  0  0
 24 28  1  0  0  0  0
 25 26  1  0  0  0  0
 26 27  2  0  0  0  0
 26 42  1  0  0  0  0
 27 28  1  0  0  0  0
 27 43  1  0  0  0  0
 28 29  2  0  0  0  0
 29 44  1  0  0  0  0
M  END
$$$$
