
 OpenBabel01122422483D

 48 51  0  0  1  0  0  0  0  0999 V2000
    7.0435   -0.3656    6.7681 N   0  0  0  0  0  0  0  0  0  0  0  0
    7.2066   -0.3006    5.5195 C   0  0  0  0  0  0  0  0  0  0  0  0
    7.4033   -0.2223    4.0143 C   0  0  0  0  0  0  0  0  0  0  0  0
    7.3838   -1.3416    3.2586 C   0  0  0  0  0  0  0  0  0  0  0  0
    7.5742   -1.2510    1.8721 N   0  0  0  0  0  0  0  0  0  0  0  0
    7.6018   -2.2283    0.8761 C   0  0  0  0  0  0  0  0  0  0  0  0
    7.4587   -3.6579    1.0572 C   0  0  0  0  0  0  0  0  0  0  0  0
    7.3237   -4.1925    2.1567 O   0  0  0  0  0  0  0  0  0  0  0  0
    7.4581   -4.4024   -0.1047 N   0  0  0  0  0  0  0  0  0  0  0  0
    7.4372   -5.8651   -0.1240 C   0  0  3  0  0  0  0  0  0  0  0  0
    6.7267   -6.3605   -1.4041 C   0  0  0  0  0  0  0  0  0  0  0  0
    7.1873   -7.2505   -2.1259 O   0  0  0  0  0  0  0  0  0  0  0  0
    5.3548   -5.7679   -1.7088 C   0  0  0  0  0  0  0  0  0  0  0  0
    5.3557   -4.9016   -2.9457 C   0  0  0  0  0  0  0  0  0  0  0  0
    5.6867   -5.4493   -4.1947 C   0  0  0  0  0  0  0  0  0  0  0  0
    5.7568   -4.6433   -5.3311 C   0  0  0  0  0  0  0  0  0  0  0  0
    5.4748   -3.2836   -5.2373 C   0  0  0  0  0  0  0  0  0  0  0  0
    5.0994   -2.7351   -4.0120 C   0  0  0  0  0  0  0  0  0  0  0  0
    5.0353   -3.5394   -2.8712 C   0  0  0  0  0  0  0  0  0  0  0  0
    8.8408   -6.4321    0.0384 C   0  0  0  0  0  0  0  0  0  0  0  0
    9.1222   -7.3369    1.0754 C   0  0  0  0  0  0  0  0  0  0  0  0
   10.4103   -7.8495    1.2471 C   0  0  0  0  0  0  0  0  0  0  0  0
   11.4340   -7.4694    0.3826 C   0  0  0  0  0  0  0  0  0  0  0  0
   11.1656   -6.5924   -0.6660 C   0  0  0  0  0  0  0  0  0  0  0  0
    9.8781   -6.0793   -0.8409 C   0  0  0  0  0  0  0  0  0  0  0  0
    7.7967   -1.5027   -0.2912 C   0  0  0  0  0  0  0  0  0  0  0  0
    7.8986   -0.1601   -0.0625 N   0  0  0  0  0  0  0  0  0  0  0  0
    7.7774   -0.0239    1.2362 C   0  0  0  0  0  0  0  0  0  0  0  0
    7.8197    1.1500    2.0421 C   0  0  0  0  0  0  0  0  0  0  0  0
    7.6425    1.0624    3.3733 C   0  0  0  0  0  0  0  0  0  0  0  0
    7.2259   -2.3272    3.6783 H   0  0  0  0  0  0  0  0  0  0  0  0
    7.6570   -3.9485   -0.9851 H   0  0  0  0  0  0  0  0  0  0  0  0
    6.8150   -6.2062    0.7145 H   0  0  0  0  0  0  0  0  0  0  0  0
    5.0013   -5.2028   -0.8390 H   0  0  0  0  0  0  0  0  0  0  0  0
    4.6464   -6.5961   -1.8329 H   0  0  0  0  0  0  0  0  0  0  0  0
    5.9106   -6.5116   -4.2898 H   0  0  0  0  0  0  0  0  0  0  0  0
    6.0383   -5.0788   -6.2869 H   0  0  0  0  0  0  0  0  0  0  0  0
    5.5416   -2.6537   -6.1208 H   0  0  0  0  0  0  0  0  0  0  0  0
    4.8576   -1.6768   -3.9470 H   0  0  0  0  0  0  0  0  0  0  0  0
    4.7305   -3.0889   -1.9291 H   0  0  0  0  0  0  0  0  0  0  0  0
    8.3405   -7.6536    1.7633 H   0  0  0  0  0  0  0  0  0  0  0  0
   10.6166   -8.5455    2.0568 H   0  0  0  0  0  0  0  0  0  0  0  0
   12.4381   -7.8612    0.5220 H   0  0  0  0  0  0  0  0  0  0  0  0
   11.9593   -6.3139   -1.3544 H   0  0  0  0  0  0  0  0  0  0  0  0
    9.6893   -5.4188   -1.6844 H   0  0  0  0  0  0  0  0  0  0  0  0
    7.8778   -1.8746   -1.3055 H   0  0  0  0  0  0  0  0  0  0  0  0
    8.0044    2.1014    1.5545 H   0  0  0  0  0  0  0  0  0  0  0  0
    7.6854    1.9530    3.9944 H   0  0  0  0  0  0  0  0  0  0  0  0
  1  2  3  0  0  0  0
  2  3  1  0  0  0  0
  3  4  2  0  0  0  0
  3 30  1  0  0  0  0
  4  5  1  0  0  0  0
  4 31  1  0  0  0  0
  5  6  1  0  0  0  0
  5 28  1  0  0  0  0
  6  7  1  0  0  0  0
  6 26  2  0  0  0  0
  7  8  2  0  0  0  0
  7  9  1  0  0  0  0
  9 10  1  0  0  0  0
  9 32  1  0  0  0  0
 10 11  1  0  0  0  0
 10 20  1  0  0  0  0
 10 33  1  0  0  0  0
 11 12  2  0  0  0  0
 11 13  1  0  0  0  0
 13 14  1  0  0  0  0
 13 34  1  0  0  0  0
 13 35  1  0  0  0  0
 14 15  2  0  0  0  0
 14 19  1  0  0  0  0
 15 16  1  0  0  0  0
 15 36  1  0  0  0  0
 16 17  2  0  0  0  0
 16 37  1  0  0  0  0
 17 18  1  0  0  0  0
 17 38  1  0  0  0  0
 18 19  2  0  0  0  0
 18 39  1  0  0  0  0
 19 40  1  0  0  0  0
 20 21  2  0  0  0  0
 20 25  1  0  0  0  0
 21 22  1  0  0  0  0
 21 41  1  0  0  0  0
 22 23  2  0  0  0  0
 22 42  1  0  0  0  0
 23 24  1  0  0  0  0
 23 43  1  0  0  0  0
 24 25  2  0  0  0  0
 24 44  1  0  0  0  0
 25 45  1  0  0  0  0
 26 27  1  0  0  0  0
 26 46  1  0  0  0  0
 27 28  2  0  0  0  0
 28 29  1  0  0  0  0
 29 30  2  0  0  0  0
 29 47  1  0  0  0  0
 30 48  1  0  0  0  0
M  END
$$$$
