
 OpenBabel01122422483D

 50 53  0  0  0  0  0  0  0  0999 V2000
    1.6146    1.3878   -1.2414 O   0  0  0  0  0  0  0  0  0  0  0  0
    2.5269    0.8018   -0.6730 C   0  0  0  0  0  0  0  0  0  0  0  0
    2.9435   -0.4668   -0.9959 N   0  0  0  0  0  0  0  0  0  0  0  0
    2.2270   -1.2245   -1.9953 C   0  0  0  0  0  0  0  0  0  0  0  0
    3.1558   -2.1349   -2.7492 C   0  0  0  0  0  0  0  0  0  0  0  0
    4.2514   -1.5718   -3.4306 C   0  0  0  0  0  0  0  0  0  0  0  0
    5.1095   -2.3654   -4.1899 C   0  0  0  0  0  0  0  0  0  0  0  0
    4.8805   -3.7344   -4.2831 C   0  0  0  0  0  0  0  0  0  0  0  0
    3.7941   -4.3075   -3.6181 C   0  0  0  0  0  0  0  0  0  0  0  0
    2.9413   -3.5155   -2.8412 C   0  0  0  0  0  0  0  0  0  0  0  0
    1.7608   -4.0823   -2.2929 N   0  0  0  0  0  0  0  0  0  0  0  0
    1.8170   -5.1726   -1.0217 S   0  0  0  0  0  0  0  0  0  0  0  0
    0.5158   -5.8054   -0.9871 O   0  0  0  0  0  0  0  0  0  0  0  0
    3.0286   -5.9619   -1.0960 O   0  0  0  0  0  0  0  0  0  0  0  0
    1.9242   -4.1124    0.4058 C   0  0  0  0  0  0  0  0  0  0  0  0
    0.7491   -3.6405    1.0031 C   0  0  0  0  0  0  0  0  0  0  0  0
    0.8224   -2.9210    2.1971 C   0  0  0  0  0  0  0  0  0  0  0  0
    2.0613   -2.6824    2.7935 C   0  0  0  0  0  0  0  0  0  0  0  0
    3.2325   -3.1442    2.1895 C   0  0  0  0  0  0  0  0  0  0  0  0
    3.1681   -3.8609    0.9925 C   0  0  0  0  0  0  0  0  0  0  0  0
    3.2214    1.4390    0.4636 C   0  0  0  0  0  0  0  0  0  0  0  0
    4.5859    1.2698    0.6848 C   0  0  0  0  0  0  0  0  0  0  0  0
    5.1356    1.9073    1.7806 C   0  0  0  0  0  0  0  0  0  0  0  0
    4.4211    2.6490    2.6558 N   0  0  0  0  0  0  0  0  0  0  0  0
    3.0905    2.7989    2.4144 C   0  0  0  0  0  0  0  0  0  0  0  0
    2.3075    3.5278    3.4182 C   0  0  0  0  0  0  0  0  0  0  0  0
    0.9916    3.7749    3.2685 N   0  0  0  0  0  0  0  0  0  0  0  0
    0.6313    4.3923    4.4017 N   0  0  0  0  0  0  0  0  0  0  0  0
    1.6530    4.5484    5.2861 C   0  0  0  0  0  0  0  0  0  0  0  0
    2.7610    4.0167    4.6734 C   0  0  0  0  0  0  0  0  0  0  0  0
    2.4636    2.2321    1.3177 C   0  0  0  0  0  0  0  0  0  0  0  0
    3.4961   -0.9878   -0.3272 H   0  0  0  0  0  0  0  0  0  0  0  0
    1.7256   -0.5592   -2.7064 H   0  0  0  0  0  0  0  0  0  0  0  0
    1.4421   -1.7681   -1.4618 H   0  0  0  0  0  0  0  0  0  0  0  0
    4.4231   -0.4973   -3.3843 H   0  0  0  0  0  0  0  0  0  0  0  0
    5.9424   -1.9106   -4.7208 H   0  0  0  0  0  0  0  0  0  0  0  0
    5.5373   -4.3538   -4.8892 H   0  0  0  0  0  0  0  0  0  0  0  0
    3.6146   -5.3754   -3.7243 H   0  0  0  0  0  0  0  0  0  0  0  0
    0.9408   -4.1736   -2.8911 H   0  0  0  0  0  0  0  0  0  0  0  0
   -0.2237   -3.8481    0.5625 H   0  0  0  0  0  0  0  0  0  0  0  0
   -0.0879   -2.5693    2.6786 H   0  0  0  0  0  0  0  0  0  0  0  0
    2.1111   -2.1525    3.7429 H   0  0  0  0  0  0  0  0  0  0  0  0
    4.1920   -2.9733    2.6722 H   0  0  0  0  0  0  0  0  0  0  0  0
    4.0809   -4.2466    0.5439 H   0  0  0  0  0  0  0  0  0  0  0  0
    5.2094    0.6866    0.0171 H   0  0  0  0  0  0  0  0  0  0  0  0
    6.1984    1.8343    1.9969 H   0  0  0  0  0  0  0  0  0  0  0  0
   -0.3395    4.6683    4.5078 H   0  0  0  0  0  0  0  0  0  0  0  0
    1.5043    5.0085    6.2515 H   0  0  0  0  0  0  0  0  0  0  0  0
    3.7635    3.9522    5.0725 H   0  0  0  0  0  0  0  0  0  0  0  0
    1.4006    2.3727    1.1450 H   0  0  0  0  0  0  0  0  0  0  0  0
  1  2  2  0  0  0  0
  2  3  1  0  0  0  0
  2 21  1  0  0  0  0
  3  4  1  0  0  0  0
  3 32  1  0  0  0  0
  4  5  1  0  0  0  0
  4 33  1  0  0  0  0
  4 34  1  0  0  0  0
  5  6  2  0  0  0  0
  5 10  1  0  0  0  0
  6  7  1  0  0  0  0
  6 35  1  0  0  0  0
  7  8  2  0  0  0  0
  7 36  1  0  0  0  0
  8  9  1  0  0  0  0
  8 37  1  0  0  0  0
  9 10  2  0  0  0  0
  9 38  1  0  0  0  0
 10 11  1  0  0  0  0
 11 12  1  0  0  0  0
 11 39  1  0  0  0  0
 12 13  2  0  0  0  0
 12 14  2  0  0  0  0
 12 15  1  0  0  0  0
 15 16  2  0  0  0  0
 15 20  1  0  0  0  0
 16 17  1  0  0  0  0
 16 40  1  0  0  0  0
 17 18  2  0  0  0  0
 17 41  1  0  0  0  0
 18 19  1  0  0  0  0
 18 42  1  0  0  0  0
 19 20  2  0  0  0  0
 19 43  1  0  0  0  0
 20 44  1  0  0  0  0
 21 22  2  0  0  0  0
 21 31  1  0  0  0  0
 22 23  1  0  0  0  0
 22 45  1  0  0  0  0
 23 24  2  0  0  0  0
 23 46  1  0  0  0  0
 24 25  1  0  0  0  0
 25 26  1  0  0  0  0
 25 31  2  0  0  0  0
 26 27  2  0  0  0  0
 26 30  1  0  0  0  0
 27 28  1  0  0  0  0
 28 29  1  0  0  0  0
 28 47  1  0  0  0  0
 29 30  2  0  0  0  0
 29 48  1  0  0  0  0
 30 49  1  0  0  0  0
 31 50  1  0  0  0  0
M  END
$$$$
