
 OpenBabel01122422483D

 46 49  0  0  1  0  0  0  0  0999 V2000
    2.2207    0.7565   -1.2054 N   0  0  0  0  0  0  0  0  0  0  0  0
    2.3798    0.0441   -0.0464 C   0  0  0  0  0  0  0  0  0  0  0  0
    1.9534   -1.1068    0.0347 O   0  0  0  0  0  0  0  0  0  0  0  0
    3.1753    0.7524    1.0774 C   0  0  3  0  0  0  0  0  0  0  0  0
    2.7814    0.2382    2.3812 N   0  0  0  0  0  0  0  0  0  0  0  0
    1.7262    0.7991    3.0575 C   0  0  0  0  0  0  0  0  0  0  0  0
    1.1661    1.8005    2.6229 O   0  0  0  0  0  0  0  0  0  0  0  0
    1.3565    0.1452    4.2890 C   0  0  0  0  0  0  0  0  0  0  0  0
    2.1608   -0.5539    5.1725 C   0  0  0  0  0  0  0  0  0  0  0  0
    1.5111   -0.8272    6.3427 N   0  0  0  0  0  0  0  0  0  0  0  0
    0.3134   -0.3162    6.1888 C   0  0  0  0  0  0  0  0  0  0  0  0
    0.1229    0.2206    4.9293 N   0  0  0  0  0  0  0  0  0  0  0  0
   -1.1230    0.6940    4.4252 C   0  0  0  0  0  0  0  0  0  0  0  0
   -2.0632    1.2662    5.2962 C   0  0  0  0  0  0  0  0  0  0  0  0
   -3.2733    1.7499    4.7913 C   0  0  0  0  0  0  0  0  0  0  0  0
   -3.5481    1.6408    3.4329 C   0  0  0  0  0  0  0  0  0  0  0  0
   -4.7061    2.1118    2.9531 F   0  0  0  0  0  0  0  0  0  0  0  0
   -2.6401    1.0477    2.5666 C   0  0  0  0  0  0  0  0  0  0  0  0
   -1.4273    0.5679    3.0613 C   0  0  0  0  0  0  0  0  0  0  0  0
    4.6783    0.6107    0.9324 C   0  0  0  0  0  0  0  0  0  0  0  0
    5.5036    1.6153    1.4581 C   0  0  0  0  0  0  0  0  0  0  0  0
    6.8920    1.4863    1.4239 C   0  0  0  0  0  0  0  0  0  0  0  0
    7.4896    0.3456    0.8706 C   0  0  0  0  0  0  0  0  0  0  0  0
    8.8834    0.1882    0.8537 C   0  0  0  0  0  0  0  0  0  0  0  0
    9.4637   -0.9584    0.3097 C   0  0  0  0  0  0  0  0  0  0  0  0
    8.6592   -1.9569   -0.2314 C   0  0  0  0  0  0  0  0  0  0  0  0
    7.2712   -1.8153   -0.2217 C   0  0  0  0  0  0  0  0  0  0  0  0
    6.6721   -0.6731    0.3321 C   0  0  0  0  0  0  0  0  0  0  0  0
    5.2760   -0.5313    0.3751 C   0  0  0  0  0  0  0  0  0  0  0  0
    1.7003    0.3280   -1.9598 H   0  0  0  0  0  0  0  0  0  0  0  0
    2.4867    1.7280   -1.2945 H   0  0  0  0  0  0  0  0  0  0  0  0
    2.9166    1.8179    1.0170 H   0  0  0  0  0  0  0  0  0  0  0  0
    3.1171   -0.6798    2.6384 H   0  0  0  0  0  0  0  0  0  0  0  0
    3.2018   -0.8233    5.0536 H   0  0  0  0  0  0  0  0  0  0  0  0
   -0.4760   -0.3642    6.9268 H   0  0  0  0  0  0  0  0  0  0  0  0
   -1.8614    1.3971    6.3567 H   0  0  0  0  0  0  0  0  0  0  0  0
   -3.9986    2.2236    5.4455 H   0  0  0  0  0  0  0  0  0  0  0  0
   -2.8758    0.9626    1.5106 H   0  0  0  0  0  0  0  0  0  0  0  0
   -0.7499    0.0808    2.3647 H   0  0  0  0  0  0  0  0  0  0  0  0
    5.0664    2.4993    1.9201 H   0  0  0  0  0  0  0  0  0  0  0  0
    7.5040    2.2787    1.8490 H   0  0  0  0  0  0  0  0  0  0  0  0
    9.5284    0.9566    1.2735 H   0  0  0  0  0  0  0  0  0  0  0  0
   10.5444   -1.0718    0.3117 H   0  0  0  0  0  0  0  0  0  0  0  0
    9.1104   -2.8494   -0.6569 H   0  0  0  0  0  0  0  0  0  0  0  0
    6.6587   -2.6081   -0.6461 H   0  0  0  0  0  0  0  0  0  0  0  0
    4.6546   -1.3355   -0.0178 H   0  0  0  0  0  0  0  0  0  0  0  0
  1  2  1  0  0  0  0
  1 30  1  0  0  0  0
  1 31  1  0  0  0  0
  2  3  2  0  0  0  0
  2  4  1  0  0  0  0
  4  5  1  0  0  0  0
  4 20  1  0  0  0  0
  4 32  1  0  0  0  0
  5  6  1  0  0  0  0
  5 33  1  0  0  0  0
  6  7  2  0  0  0  0
  6  8  1  0  0  0  0
  8  9  2  0  0  0  0
  8 12  1  0  0  0  0
  9 10  1  0  0  0  0
  9 34  1  0  0  0  0
 10 11  2  0  0  0  0
 11 12  1  0  0  0  0
 11 35  1  0  0  0  0
 12 13  1  0  0  0  0
 13 14  2  0  0  0  0
 13 19  1  0  0  0  0
 14 15  1  0  0  0  0
 14 36  1  0  0  0  0
 15 16  2  0  0  0  0
 15 37  1  0  0  0  0
 16 17  1  0  0  0  0
 16 18  1  0  0  0  0
 18 19  2  0  0  0  0
 18 38  1  0  0  0  0
 19 39  1  0  0  0  0
 20 21  2  0  0  0  0
 20 29  1  0  0  0  0
 21 22  1  0  0  0  0
 21 40  1  0  0  0  0
 22 23  2  0  0  0  0
 22 41  1  0  0  0  0
 23 24  1  0  0  0  0
 23 28  1  0  0  0  0
 24 25  2  0  0  0  0
 24 42  1  0  0  0  0
 25 26  1  0  0  0  0
 25 43  1  0  0  0  0
 26 27  2  0  0  0  0
 26 44  1  0  0  0  0
 27 28  1  0  0  0  0
 27 45  1  0  0  0  0
 28 29  2  0  0  0  0
 29 46  1  0  0  0  0
M  END
$$$$
