
 OpenBabel01122422483D

 52 55  0  0  0  0  0  0  0  0999 V2000
   -7.3721   -4.0065   -1.0966 C   0  0  0  0  0  0  0  0  0  0  0  0
   -6.2951   -3.0089   -0.7878 C   0  0  0  0  0  0  0  0  0  0  0  0
   -5.4414   -2.5367   -1.7901 C   0  0  0  0  0  0  0  0  0  0  0  0
   -4.4678   -1.5764   -1.5002 C   0  0  0  0  0  0  0  0  0  0  0  0
   -4.3202   -1.0777   -0.1999 C   0  0  0  0  0  0  0  0  0  0  0  0
   -3.2757   -0.0250    0.0950 C   0  0  0  0  0  0  0  0  0  0  0  0
   -3.7833    1.3475   -0.0102 N   0  0  0  0  0  0  0  0  0  0  0  0
   -4.4186    1.9003    1.0872 C   0  0  0  0  0  0  0  0  0  0  0  0
   -4.8466    3.1645    1.0790 C   0  0  0  0  0  0  0  0  0  0  0  0
   -4.6434    3.9848   -0.0833 C   0  0  0  0  0  0  0  0  0  0  0  0
   -4.0518    3.5228   -1.1955 C   0  0  0  0  0  0  0  0  0  0  0  0
   -3.8183    4.2681   -2.3397 N   0  0  0  0  0  0  0  0  0  0  0  0
   -4.1213    5.6031   -2.5579 C   0  0  0  0  0  0  0  0  0  0  0  0
   -4.7050    6.3159   -1.7451 O   0  0  0  0  0  0  0  0  0  0  0  0
   -3.6655    6.1193   -3.8449 C   0  0  0  0  0  0  0  0  0  0  0  0
   -3.0682    5.3735   -4.7570 N   0  0  0  0  0  0  0  0  0  0  0  0
   -2.7423    6.2340   -5.7703 C   0  0  0  0  0  0  0  0  0  0  0  0
   -3.1220    7.5400   -5.4986 C   0  0  0  0  0  0  0  0  0  0  0  0
   -2.9027    8.7491   -6.3051 C   0  0  0  0  0  0  0  0  0  0  0  0
   -2.9281    8.6678   -7.7065 C   0  0  0  0  0  0  0  0  0  0  0  0
   -2.6627    9.7889   -8.5001 C   0  0  0  0  0  0  0  0  0  0  0  0
   -2.3890   11.0165   -7.9042 C   0  0  0  0  0  0  0  0  0  0  0  0
   -2.3630   11.1183   -6.5168 C   0  0  0  0  0  0  0  0  0  0  0  0
   -2.5939    9.9879   -5.7260 C   0  0  0  0  0  0  0  0  0  0  0  0
   -3.7646    7.4339   -4.2768 N   0  0  0  0  0  0  0  0  0  0  0  0
   -4.4417    8.4723   -3.5308 C   0  0  0  0  0  0  0  0  0  0  0  0
   -3.5732    2.0718   -1.1902 C   0  0  0  0  0  0  0  0  0  0  0  0
   -3.0157    1.6227   -2.1936 O   0  0  0  0  0  0  0  0  0  0  0  0
   -5.1622   -1.5707    0.8081 C   0  0  0  0  0  0  0  0  0  0  0  0
   -6.1402   -2.5265    0.5162 C   0  0  0  0  0  0  0  0  0  0  0  0
   -7.3989   -4.2518   -2.1635 H   0  0  0  0  0  0  0  0  0  0  0  0
   -8.3511   -3.5967   -0.8263 H   0  0  0  0  0  0  0  0  0  0  0  0
   -7.2044   -4.9339   -0.5401 H   0  0  0  0  0  0  0  0  0  0  0  0
   -5.5326   -2.9033   -2.8100 H   0  0  0  0  0  0  0  0  0  0  0  0
   -3.8236   -1.2137   -2.2998 H   0  0  0  0  0  0  0  0  0  0  0  0
   -2.4183   -0.1552   -0.5756 H   0  0  0  0  0  0  0  0  0  0  0  0
   -2.8793   -0.1753    1.1092 H   0  0  0  0  0  0  0  0  0  0  0  0
   -4.5556    1.2731    1.9629 H   0  0  0  0  0  0  0  0  0  0  0  0
   -5.3414    3.6039    1.9373 H   0  0  0  0  0  0  0  0  0  0  0  0
   -4.9952    5.0038    0.0128 H   0  0  0  0  0  0  0  0  0  0  0  0
   -3.3380    3.7879   -3.1038 H   0  0  0  0  0  0  0  0  0  0  0  0
   -2.2171    5.8780   -6.6487 H   0  0  0  0  0  0  0  0  0  0  0  0
   -3.1478    7.7244   -8.2018 H   0  0  0  0  0  0  0  0  0  0  0  0
   -2.6652    9.6995   -9.5835 H   0  0  0  0  0  0  0  0  0  0  0  0
   -2.1841   11.8889   -8.5192 H   0  0  0  0  0  0  0  0  0  0  0  0
   -2.1455   12.0738   -6.0460 H   0  0  0  0  0  0  0  0  0  0  0  0
   -2.5055   10.0954   -4.6488 H   0  0  0  0  0  0  0  0  0  0  0  0
   -4.5472    9.3805   -4.1215 H   0  0  0  0  0  0  0  0  0  0  0  0
   -3.8587    8.6800   -2.6291 H   0  0  0  0  0  0  0  0  0  0  0  0
   -5.4486    8.1307   -3.2781 H   0  0  0  0  0  0  0  0  0  0  0  0
   -5.0683   -1.2138    1.8306 H   0  0  0  0  0  0  0  0  0  0  0  0
   -6.7883   -2.8879    1.3119 H   0  0  0  0  0  0  0  0  0  0  0  0
  1  2  1  0  0  0  0
  1 31  1  0  0  0  0
  1 32  1  0  0  0  0
  1 33  1  0  0  0  0
  2  3  2  0  0  0  0
  2 30  1  0  0  0  0
  3  4  1  0  0  0  0
  3 34  1  0  0  0  0
  4  5  2  0  0  0  0
  4 35  1  0  0  0  0
  5  6  1  0  0  0  0
  5 29  1  0  0  0  0
  6  7  1  0  0  0  0
  6 36  1  0  0  0  0
  6 37  1  0  0  0  0
  7  8  1  0  0  0  0
  7 27  1  0  0  0  0
  8  9  2  0  0  0  0
  8 38  1  0  0  0  0
  9 10  1  0  0  0  0
  9 39  1  0  0  0  0
 10 11  2  0  0  0  0
 10 40  1  0  0  0  0
 11 12  1  0  0  0  0
 11 27  1  0  0  0  0
 12 13  1  0  0  0  0
 12 41  1  0  0  0  0
 13 14  2  0  0  0  0
 13 15  1  0  0  0  0
 15 16  2  0  0  0  0
 15 25  1  0  0  0  0
 16 17  1  0  0  0  0
 17 18  2  0  0  0  0
 17 42  1  0  0  0  0
 18 19  1  0  0  0  0
 18 25  1  0  0  0  0
 19 20  2  0  0  0  0
 19 24  1  0  0  0  0
 20 21  1  0  0  0  0
 20 43  1  0  0  0  0
 21 22  2  0  0  0  0
 21 44  1  0  0  0  0
 22 23  1  0  0  0  0
 22 45  1  0  0  0  0
 23 24  2  0  0  0  0
 23 46  1  0  0  0  0
 24 47  1  0  0  0  0
 25 26  1  0  0  0  0
 26 48  1  0  0  0  0
 26 49  1  0  0  0  0
 26 50  1  0  0  0  0
 27 28  2  0  0  0  0
 29 30  2  0  0  0  0
 29 51  1  0  0  0  0
 30 52  1  0  0  0  0
M  END
$$$$
