
 OpenBabel01122422483D

 48 51  0  0  0  0  0  0  0  0999 V2000
    3.1716    0.2373    0.1064 O   0  0  0  0  0  0  0  0  0  0  0  0
    2.4275   -0.2324    0.9541 C   0  0  0  0  0  0  0  0  0  0  0  0
    0.9251   -0.2805    0.8197 C   0  0  0  0  0  0  0  0  0  0  0  0
    0.2347   -0.1422    2.1728 C   0  0  0  0  0  0  0  0  0  0  0  0
   -1.2604   -0.0971    2.0661 C   0  0  0  0  0  0  0  0  0  0  0  0
   -2.0171   -1.2654    2.0942 C   0  0  0  0  0  0  0  0  0  0  0  0
   -3.3701   -1.2655    2.0661 N   0  0  0  0  0  0  0  0  0  0  0  0
   -3.9436   -0.0437    2.0043 C   0  0  0  0  0  0  0  0  0  0  0  0
   -3.2000    1.1225    1.9581 C   0  0  0  0  0  0  0  0  0  0  0  0
   -1.8473    1.1225    1.9835 N   0  0  0  0  0  0  0  0  0  0  0  0
    2.8414   -0.8000    2.1223 O   0  0  0  0  0  0  0  0  0  0  0  0
    4.2582   -0.7988    2.3091 C   0  0  0  0  0  0  0  0  0  0  0  0
    4.9613   -1.9454    1.5821 C   0  0  0  0  0  0  0  0  0  0  0  0
    4.3160   -2.7072    0.8601 O   0  0  0  0  0  0  0  0  0  0  0  0
    6.3967   -2.1551    1.8377 C   0  0  0  0  0  0  0  0  0  0  0  0
    7.0345   -3.4038    1.8472 C   0  0  0  0  0  0  0  0  0  0  0  0
    6.5335   -4.7871    1.7295 C   0  0  0  0  0  0  0  0  0  0  0  0
    7.3037   -5.7877    1.1102 C   0  0  0  0  0  0  0  0  0  0  0  0
    6.8364   -7.1038    1.0251 C   0  0  0  0  0  0  0  0  0  0  0  0
    5.5898   -7.4259    1.5454 C   0  0  0  0  0  0  0  0  0  0  0  0
    5.1378   -8.6834    1.4537 F   0  0  0  0  0  0  0  0  0  0  0  0
    4.8093   -6.4604    2.1615 C   0  0  0  0  0  0  0  0  0  0  0  0
    5.2884   -5.1516    2.2669 C   0  0  0  0  0  0  0  0  0  0  0  0
    8.3742   -3.1572    2.0577 N   0  0  0  0  0  0  0  0  0  0  0  0
    8.6228   -1.8205    2.2359 C   0  0  0  0  0  0  0  0  0  0  0  0
    9.8364   -1.1662    2.4843 C   0  0  0  0  0  0  0  0  0  0  0  0
    9.8116    0.2209    2.6382 C   0  0  0  0  0  0  0  0  0  0  0  0
    8.6183    0.9222    2.5365 C   0  0  0  0  0  0  0  0  0  0  0  0
    7.4200    0.2510    2.2682 C   0  0  0  0  0  0  0  0  0  0  0  0
    7.4027   -1.1571    2.1207 C   0  0  0  0  0  0  0  0  0  0  0  0
    0.6526   -1.2194    0.3253 H   0  0  0  0  0  0  0  0  0  0  0  0
    0.6254    0.5473    0.1660 H   0  0  0  0  0  0  0  0  0  0  0  0
    0.5815    0.7733    2.6704 H   0  0  0  0  0  0  0  0  0  0  0  0
    0.5115   -0.9676    2.8399 H   0  0  0  0  0  0  0  0  0  0  0  0
   -1.5535   -2.2443    2.1585 H   0  0  0  0  0  0  0  0  0  0  0  0
   -5.0272   -0.0265    1.9967 H   0  0  0  0  0  0  0  0  0  0  0  0
   -3.6747    2.0953    1.9069 H   0  0  0  0  0  0  0  0  0  0  0  0
    4.4367   -0.9126    3.3843 H   0  0  0  0  0  0  0  0  0  0  0  0
    4.6549    0.1650    1.9946 H   0  0  0  0  0  0  0  0  0  0  0  0
    8.2700   -5.5576    0.6690 H   0  0  0  0  0  0  0  0  0  0  0  0
    7.4319   -7.8765    0.5491 H   0  0  0  0  0  0  0  0  0  0  0  0
    3.8325   -6.7237    2.5536 H   0  0  0  0  0  0  0  0  0  0  0  0
    4.6620   -4.4190    2.7675 H   0  0  0  0  0  0  0  0  0  0  0  0
    9.0854   -3.8714    2.1146 H   0  0  0  0  0  0  0  0  0  0  0  0
   10.7722   -1.7112    2.5535 H   0  0  0  0  0  0  0  0  0  0  0  0
   10.7365    0.7590    2.8325 H   0  0  0  0  0  0  0  0  0  0  0  0
    8.6121    2.0031    2.6540 H   0  0  0  0  0  0  0  0  0  0  0  0
    6.5258    0.8541    2.1718 H   0  0  0  0  0  0  0  0  0  0  0  0
  1  2  2  0  0  0  0
  2  3  1  0  0  0  0
  2 11  1  0  0  0  0
  3  4  1  0  0  0  0
  3 31  1  0  0  0  0
  3 32  1  0  0  0  0
  4  5  1  0  0  0  0
  4 33  1  0  0  0  0
  4 34  1  0  0  0  0
  5  6  2  0  0  0  0
  5 10  1  0  0  0  0
  6  7  1  0  0  0  0
  6 35  1  0  0  0  0
  7  8  2  0  0  0  0
  8  9  1  0  0  0  0
  8 36  1  0  0  0  0
  9 10  2  0  0  0  0
  9 37  1  0  0  0  0
 11 12  1  0  0  0  0
 12 13  1  0  0  0  0
 12 38  1  0  0  0  0
 12 39  1  0  0  0  0
 13 14  2  0  0  0  0
 13 15  1  0  0  0  0
 15 16  2  0  0  0  0
 15 30  1  0  0  0  0
 16 17  1  0  0  0  0
 16 24  1  0  0  0  0
 17 18  2  0  0  0  0
 17 23  1  0  0  0  0
 18 19  1  0  0  0  0
 18 40  1  0  0  0  0
 19 20  2  0  0  0  0
 19 41  1  0  0  0  0
 20 21  1  0  0  0  0
 20 22  1  0  0  0  0
 22 23  2  0  0  0  0
 22 42  1  0  0  0  0
 23 43  1  0  0  0  0
 24 25  1  0  0  0  0
 24 44  1  0  0  0  0
 25 26  2  0  0  0  0
 25 30  1  0  0  0  0
 26 27  1  0  0  0  0
 26 45  1  0  0  0  0
 27 28  2  0  0  0  0
 27 46  1  0  0  0  0
 28 29  1  0  0  0  0
 28 47  1  0  0  0  0
 29 30  2  0  0  0  0
 29 48  1  0  0  0  0
M  END
$$$$
