
 OpenBabel01122422483D

 40 43  0  0  0  0  0  0  0  0999 V2000
    0.9810   -0.1455    0.0466 O   0  0  0  0  0  0  0  0  0  0  0  0
    2.2032   -0.0623    0.0280 C   0  0  0  0  0  0  0  0  0  0  0  0
    2.9242    0.8387    0.7713 N   0  0  0  0  0  0  0  0  0  0  0  0
    2.2974    1.7184    1.7276 C   0  0  0  0  0  0  0  0  0  0  0  0
    2.2393    1.1096    3.0897 C   0  0  0  0  0  0  0  0  0  0  0  0
    1.5985    1.5973    4.2205 C   0  0  0  0  0  0  0  0  0  0  0  0
    0.8037    2.7760    4.5659 C   0  0  0  0  0  0  0  0  0  0  0  0
   -0.1524    2.7111    5.5935 C   0  0  0  0  0  0  0  0  0  0  0  0
   -0.9797    3.8101    5.8664 C   0  0  0  0  0  0  0  0  0  0  0  0
   -0.8430    4.9734    5.1227 C   0  0  0  0  0  0  0  0  0  0  0  0
   -1.6561    6.0128    5.3648 F   0  0  0  0  0  0  0  0  0  0  0  0
    0.1170    5.0809    4.1333 C   0  0  0  0  0  0  0  0  0  0  0  0
    0.9400    3.9855    3.8753 C   0  0  0  0  0  0  0  0  0  0  0  0
    1.8827    4.1444    2.9386 F   0  0  0  0  0  0  0  0  0  0  0  0
    1.7634    0.6623    5.2148 O   0  0  0  0  0  0  0  0  0  0  0  0
    2.5003   -0.3211    4.6361 C   0  0  0  0  0  0  0  0  0  0  0  0
    2.8408   -0.1037    3.3881 N   0  0  0  0  0  0  0  0  0  0  0  0
    2.9978   -0.9203   -0.8897 C   0  0  0  0  0  0  0  0  0  0  0  0
    2.4154   -1.3070   -2.1061 C   0  0  0  0  0  0  0  0  0  0  0  0
    3.1352   -2.0877   -3.0126 C   0  0  0  0  0  0  0  0  0  0  0  0
    4.4366   -2.4868   -2.6949 C   0  0  0  0  0  0  0  0  0  0  0  0
    5.2218   -3.3062   -3.6335 C   0  0  0  0  0  0  0  0  0  0  0  0
    4.7842   -3.6686   -4.7169 O   0  0  0  0  0  0  0  0  0  0  0  0
    6.5808   -3.6720   -3.2001 C   0  0  0  0  0  0  0  0  0  0  0  0
    7.0057   -3.2491   -2.0066 C   0  0  0  0  0  0  0  0  0  0  0  0
    6.2867   -2.4878   -1.1163 O   0  0  0  0  0  0  0  0  0  0  0  0
    5.0139   -2.1164   -1.4791 C   0  0  0  0  0  0  0  0  0  0  0  0
    4.2962   -1.3386   -0.5701 C   0  0  0  0  0  0  0  0  0  0  0  0
    3.9274    0.8939    0.6900 H   0  0  0  0  0  0  0  0  0  0  0  0
    1.2917    1.9819    1.3844 H   0  0  0  0  0  0  0  0  0  0  0  0
    2.9201    2.6152    1.7482 H   0  0  0  0  0  0  0  0  0  0  0  0
   -0.2836    1.8027    6.1762 H   0  0  0  0  0  0  0  0  0  0  0  0
   -1.7362    3.7547    6.6503 H   0  0  0  0  0  0  0  0  0  0  0  0
    0.2298    5.9961    3.5703 H   0  0  0  0  0  0  0  0  0  0  0  0
    2.7331   -1.1782    5.2528 H   0  0  0  0  0  0  0  0  0  0  0  0
    1.4015   -0.9930   -2.3498 H   0  0  0  0  0  0  0  0  0  0  0  0
    2.6833   -2.3816   -3.9580 H   0  0  0  0  0  0  0  0  0  0  0  0
    7.1821   -4.2717   -3.8693 H   0  0  0  0  0  0  0  0  0  0  0  0
    7.9876   -3.4720   -1.6097 H   0  0  0  0  0  0  0  0  0  0  0  0
    4.7462   -1.0892    0.3865 H   0  0  0  0  0  0  0  0  0  0  0  0
  1  2  2  0  0  0  0
  2  3  1  0  0  0  0
  2 18  1  0  0  0  0
  3  4  1  0  0  0  0
  3 29  1  0  0  0  0
  4  5  1  0  0  0  0
  4 30  1  0  0  0  0
  4 31  1  0  0  0  0
  5  6  2  0  0  0  0
  5 17  1  0  0  0  0
  6  7  1  0  0  0  0
  6 15  1  0  0  0  0
  7  8  2  0  0  0  0
  7 13  1  0  0  0  0
  8  9  1  0  0  0  0
  8 32  1  0  0  0  0
  9 10  2  0  0  0  0
  9 33  1  0  0  0  0
 10 11  1  0  0  0  0
 10 12  1  0  0  0  0
 12 13  2  0  0  0  0
 12 34  1  0  0  0  0
 13 14  1  0  0  0  0
 15 16  1  0  0  0  0
 16 17  2  0  0  0  0
 16 35  1  0  0  0  0
 18 19  2  0  0  0  0
 18 28  1  0  0  0  0
 19 20  1  0  0  0  0
 19 36  1  0  0  0  0
 20 21  2  0  0  0  0
 20 37  1  0  0  0  0
 21 22  1  0  0  0  0
 21 27  1  0  0  0  0
 22 23  2  0  0  0  0
 22 24  1  0  0  0  0
 24 25  2  0  0  0  0
 24 38  1  0  0  0  0
 25 26  1  0  0  0  0
 25 39  1  0  0  0  0
 26 27  1  0  0  0  0
 27 28  2  0  0  0  0
 28 40  1  0  0  0  0
M  END
$$$$
