
 OpenBabel01122422483D

 47 50  0  0  0  0  0  0  0  0999 V2000
    2.4155   -0.3375    0.0868 O   0  0  0  0  0  0  0  0  0  0  0  0
    2.3310    0.8787    0.2773 C   0  0  0  0  0  0  0  0  0  0  0  0
    1.0885    1.4059    0.9734 C   0  0  0  0  0  0  0  0  0  0  0  0
    0.5700    2.6288    0.7682 C   0  0  0  0  0  0  0  0  0  0  0  0
   -0.4760    3.1721    1.5210 N   0  0  0  0  0  0  0  0  0  0  0  0
   -0.6902    4.6241    1.5673 C   0  0  0  0  0  0  0  0  0  0  0  0
   -1.4261    5.2270    2.6114 C   0  0  0  0  0  0  0  0  0  0  0  0
   -1.5604    6.6135    2.7284 C   0  0  0  0  0  0  0  0  0  0  0  0
   -0.9519    7.4540    1.8085 C   0  0  0  0  0  0  0  0  0  0  0  0
   -0.2143    6.8898    0.7817 C   0  0  0  0  0  0  0  0  0  0  0  0
    0.4006    7.6889   -0.1007 F   0  0  0  0  0  0  0  0  0  0  0  0
   -0.0844    5.5041    0.6520 C   0  0  0  0  0  0  0  0  0  0  0  0
   -1.2613    2.3058    2.3111 C   0  0  0  0  0  0  0  0  0  0  0  0
   -2.3253    2.5637    2.8704 O   0  0  0  0  0  0  0  0  0  0  0  0
   -0.7492    0.9158    2.4734 C   0  0  0  0  0  0  0  0  0  0  0  0
    0.3761    0.5188    1.8700 C   0  0  0  0  0  0  0  0  0  0  0  0
    3.3711    1.7367   -0.0657 N   0  0  0  0  0  0  0  0  0  0  0  0
    3.4397    3.1725    0.2588 C   0  0  0  0  0  0  0  0  0  0  0  0
    4.8205    3.7934    0.0915 C   0  0  0  0  0  0  0  0  0  0  0  0
    5.2034    3.5248   -1.3381 C   0  0  0  0  0  0  0  0  0  0  0  0
    5.5001    4.5497   -2.2318 C   0  0  0  0  0  0  0  0  0  0  0  0
    5.7052    4.2417   -3.5731 C   0  0  0  0  0  0  0  0  0  0  0  0
    5.6731    2.9145   -4.0147 C   0  0  0  0  0  0  0  0  0  0  0  0
    5.8908    2.7552   -5.3533 O   0  0  0  0  0  0  0  0  0  0  0  0
    6.5110    1.5354   -5.7188 C   0  0  0  0  0  0  0  0  0  0  0  0
    5.5607    0.5764   -5.8369 F   0  0  0  0  0  0  0  0  0  0  0  0
    7.0431    1.7116   -6.9552 F   0  0  0  0  0  0  0  0  0  0  0  0
    5.3534    1.8861   -3.1254 C   0  0  0  0  0  0  0  0  0  0  0  0
    5.0724    2.1953   -1.7896 C   0  0  0  0  0  0  0  0  0  0  0  0
    4.5171    1.1759   -0.8112 C   0  0  0  0  0  0  0  0  0  0  0  0
    0.9873    3.2716    0.0198 H   0  0  0  0  0  0  0  0  0  0  0  0
   -1.8875    4.6370    3.3976 H   0  0  0  0  0  0  0  0  0  0  0  0
   -2.1345    7.0312    3.5522 H   0  0  0  0  0  0  0  0  0  0  0  0
   -1.0378    8.5334    1.8890 H   0  0  0  0  0  0  0  0  0  0  0  0
    0.5068    5.1724   -0.1921 H   0  0  0  0  0  0  0  0  0  0  0  0
   -1.3365    0.2620    3.1072 H   0  0  0  0  0  0  0  0  0  0  0  0
    0.7397   -0.4945    1.9943 H   0  0  0  0  0  0  0  0  0  0  0  0
    3.0585    3.3498    1.2670 H   0  0  0  0  0  0  0  0  0  0  0  0
    2.7927    3.6744   -0.4710 H   0  0  0  0  0  0  0  0  0  0  0  0
    5.5466    3.3386    0.7742 H   0  0  0  0  0  0  0  0  0  0  0  0
    4.7771    4.8672    0.3011 H   0  0  0  0  0  0  0  0  0  0  0  0
    5.5063    5.5876   -1.9092 H   0  0  0  0  0  0  0  0  0  0  0  0
    5.8761    5.0446   -4.2865 H   0  0  0  0  0  0  0  0  0  0  0  0
    7.3049    1.2172   -5.0343 H   0  0  0  0  0  0  0  0  0  0  0  0
    5.2425    0.8587   -3.4621 H   0  0  0  0  0  0  0  0  0  0  0  0
    5.2908    0.9127   -0.0787 H   0  0  0  0  0  0  0  0  0  0  0  0
    4.2286    0.2566   -1.3323 H   0  0  0  0  0  0  0  0  0  0  0  0
  1  2  2  0  0  0  0
  2  3  1  0  0  0  0
  2 17  1  0  0  0  0
  3  4  2  0  0  0  0
  3 16  1  0  0  0  0
  4  5  1  0  0  0  0
  4 31  1  0  0  0  0
  5  6  1  0  0  0  0
  5 13  1  0  0  0  0
  6  7  2  0  0  0  0
  6 12  1  0  0  0  0
  7  8  1  0  0  0  0
  7 32  1  0  0  0  0
  8  9  2  0  0  0  0
  8 33  1  0  0  0  0
  9 10  1  0  0  0  0
  9 34  1  0  0  0  0
 10 11  1  0  0  0  0
 10 12  2  0  0  0  0
 12 35  1  0  0  0  0
 13 14  2  0  0  0  0
 13 15  1  0  0  0  0
 15 16  2  0  0  0  0
 15 36  1  0  0  0  0
 16 37  1  0  0  0  0
 17 18  1  0  0  0  0
 17 30  1  0  0  0  0
 18 19  1  0  0  0  0
 18 38  1  0  0  0  0
 18 39  1  0  0  0  0
 19 20  1  0  0  0  0
 19 40  1  0  0  0  0
 19 41  1  0  0  0  0
 20 21  2  0  0  0  0
 20 29  1  0  0  0  0
 21 22  1  0  0  0  0
 21 42  1  0  0  0  0
 22 23  2  0  0  0  0
 22 43  1  0  0  0  0
 23 24  1  0  0  0  0
 23 28  1  0  0  0  0
 24 25  1  0  0  0  0
 25 26  1  0  0  0  0
 25 27  1  0  0  0  0
 25 44  1  0  0  0  0
 28 29  2  0  0  0  0
 28 45  1  0  0  0  0
 29 30  1  0  0  0  0
 30 46  1  0  0  0  0
 30 47  1  0  0  0  0
M  END
$$$$
