
 OpenBabel01122422483D

 43 46  0  0  0  0  0  0  0  0999 V2000
    0.8915   -0.2307   -0.0613 O   0  0  0  0  0  0  0  0  0  0  0  0
    2.1132   -0.1258    0.0527 C   0  0  0  0  0  0  0  0  0  0  0  0
    2.7696    0.4460    1.1289 N   0  0  0  0  0  0  0  0  0  0  0  0
    2.1611    0.9264    2.2680 C   0  0  0  0  0  0  0  0  0  0  0  0
    0.9403    0.5448    2.6814 C   0  0  0  0  0  0  0  0  0  0  0  0
    0.3120    1.0718    3.8056 N   0  0  0  0  0  0  0  0  0  0  0  0
   -1.0198    0.6618    4.1441 C   0  0  0  0  0  0  0  0  0  0  0  0
   -1.9888    0.5055    3.1398 C   0  0  0  0  0  0  0  0  0  0  0  0
   -3.3024    0.1605    3.4651 C   0  0  0  0  0  0  0  0  0  0  0  0
   -3.6521   -0.0749    4.7924 C   0  0  0  0  0  0  0  0  0  0  0  0
   -2.6899    0.0351    5.7942 C   0  0  0  0  0  0  0  0  0  0  0  0
   -1.3837    0.4142    5.4734 C   0  0  0  0  0  0  0  0  0  0  0  0
    0.9320    2.0761    4.5675 C   0  0  0  0  0  0  0  0  0  0  0  0
    0.4502    2.6758    5.5265 O   0  0  0  0  0  0  0  0  0  0  0  0
    2.2983    2.4746    4.1231 C   0  0  0  0  0  0  0  0  0  0  0  0
    2.8731    1.9091    3.0534 C   0  0  0  0  0  0  0  0  0  0  0  0
    2.9987   -0.5778   -1.0165 C   0  0  0  0  0  0  0  0  0  0  0  0
    2.5636   -0.9990   -2.2580 C   0  0  0  0  0  0  0  0  0  0  0  0
    3.6706   -1.4259   -2.9454 N   0  0  0  0  0  0  0  0  0  0  0  0
    3.6890   -1.9977   -4.2508 C   0  0  0  0  0  0  0  0  0  0  0  0
    4.8790   -2.4944   -4.7992 C   0  0  0  0  0  0  0  0  0  0  0  0
    4.8738   -3.0549   -6.0805 C   0  0  0  0  0  0  0  0  0  0  0  0
    6.3394   -3.6678   -6.7449 Cl  0  0  0  0  0  0  0  0  0  0  0  0
    3.6988   -3.1279   -6.8240 C   0  0  0  0  0  0  0  0  0  0  0  0
    2.5135   -2.6399   -6.2864 C   0  0  0  0  0  0  0  0  0  0  0  0
    2.5058   -2.0801   -5.0054 C   0  0  0  0  0  0  0  0  0  0  0  0
    4.7349   -1.1947   -2.0927 C   0  0  0  0  0  0  0  0  0  0  0  0
    4.3685   -0.6638   -0.9414 N   0  0  0  0  0  0  0  0  0  0  0  0
    3.7596    0.6215    0.9790 H   0  0  0  0  0  0  0  0  0  0  0  0
    0.3925   -0.2414    2.1726 H   0  0  0  0  0  0  0  0  0  0  0  0
   -1.7487    0.7115    2.0989 H   0  0  0  0  0  0  0  0  0  0  0  0
   -4.0537    0.0928    2.6826 H   0  0  0  0  0  0  0  0  0  0  0  0
   -4.6754   -0.3373    5.0473 H   0  0  0  0  0  0  0  0  0  0  0  0
   -2.9555   -0.1633    6.8291 H   0  0  0  0  0  0  0  0  0  0  0  0
   -0.6482    0.4898    6.2706 H   0  0  0  0  0  0  0  0  0  0  0  0
    2.7768    3.2543    4.7023 H   0  0  0  0  0  0  0  0  0  0  0  0
    3.8634    2.2253    2.7437 H   0  0  0  0  0  0  0  0  0  0  0  0
    1.5567   -1.0450   -2.6449 H   0  0  0  0  0  0  0  0  0  0  0  0
    5.8186   -2.4729   -4.2571 H   0  0  0  0  0  0  0  0  0  0  0  0
    3.7020   -3.5610   -7.8225 H   0  0  0  0  0  0  0  0  0  0  0  0
    1.5912   -2.6938   -6.8614 H   0  0  0  0  0  0  0  0  0  0  0  0
    1.5517   -1.7122   -4.6360 H   0  0  0  0  0  0  0  0  0  0  0  0
    5.7564   -1.4307   -2.3530 H   0  0  0  0  0  0  0  0  0  0  0  0
  1  2  2  0  0  0  0
  2  3  1  0  0  0  0
  2 17  1  0  0  0  0
  3  4  1  0  0  0  0
  3 29  1  0  0  0  0
  4  5  2  0  0  0  0
  4 16  1  0  0  0  0
  5  6  1  0  0  0  0
  5 30  1  0  0  0  0
  6  7  1  0  0  0  0
  6 13  1  0  0  0  0
  7  8  2  0  0  0  0
  7 12  1  0  0  0  0
  8  9  1  0  0  0  0
  8 31  1  0  0  0  0
  9 10  2  0  0  0  0
  9 32  1  0  0  0  0
 10 11  1  0  0  0  0
 10 33  1  0  0  0  0
 11 12  2  0  0  0  0
 11 34  1  0  0  0  0
 12 35  1  0  0  0  0
 13 14  2  0  0  0  0
 13 15  1  0  0  0  0
 15 16  2  0  0  0  0
 15 36  1  0  0  0  0
 16 37  1  0  0  0  0
 17 18  2  0  0  0  0
 17 28  1  0  0  0  0
 18 19  1  0  0  0  0
 18 38  1  0  0  0  0
 19 20  1  0  0  0  0
 19 27  1  0  0  0  0
 20 21  2  0  0  0  0
 20 26  1  0  0  0  0
 21 22  1  0  0  0  0
 21 39  1  0  0  0  0
 22 23  1  0  0  0  0
 22 24  2  0  0  0  0
 24 25  1  0  0  0  0
 24 40  1  0  0  0  0
 25 26  2  0  0  0  0
 25 41  1  0  0  0  0
 26 42  1  0  0  0  0
 27 28  2  0  0  0  0
 27 43  1  0  0  0  0
M  END
$$$$
