
 OpenBabel01122422483D

 41 44  0  0  0  0  0  0  0  0999 V2000
    0.9449   -0.0389    0.1560 O   0  0  0  0  0  0  0  0  0  0  0  0
    2.1631    0.0859    0.1987 C   0  0  0  0  0  0  0  0  0  0  0  0
    2.8709    1.2584   -0.0198 N   0  0  0  0  0  0  0  0  0  0  0  0
    2.2947    2.5328   -0.2486 C   0  0  0  0  0  0  0  0  0  0  0  0
    0.9490    2.8070    0.0090 C   0  0  0  0  0  0  0  0  0  0  0  0
    0.4083    4.0718   -0.2315 C   0  0  0  0  0  0  0  0  0  0  0  0
    1.2113    5.1007   -0.7338 C   0  0  0  0  0  0  0  0  0  0  0  0
    0.7047    6.3790   -0.9969 C   0  0  0  0  0  0  0  0  0  0  0  0
    1.4344    7.4092   -1.4818 N   0  0  0  0  0  0  0  0  0  0  0  0
    2.7374    7.1478   -1.7250 C   0  0  0  0  0  0  0  0  0  0  0  0
    3.3360    5.9161   -1.5014 C   0  0  0  0  0  0  0  0  0  0  0  0
    4.6385    5.7543   -1.7763 F   0  0  0  0  0  0  0  0  0  0  0  0
    2.5741    4.8549   -0.9922 C   0  0  0  0  0  0  0  0  0  0  0  0
    3.1069    3.5676   -0.7353 C   0  0  0  0  0  0  0  0  0  0  0  0
    2.9778   -1.0728    0.5194 C   0  0  0  0  0  0  0  0  0  0  0  0
    2.6619   -2.3669    0.0965 C   0  0  0  0  0  0  0  0  0  0  0  0
    1.3959   -2.9766   -1.0294 S   0  0  0  0  0  0  0  0  0  0  0  0
    1.2780   -1.9525   -2.0501 O   0  0  0  0  0  0  0  0  0  0  0  0
    1.8050   -4.3263   -1.3708 O   0  0  0  0  0  0  0  0  0  0  0  0
   -0.1124   -3.0973   -0.1110 C   0  0  0  0  0  0  0  0  0  0  0  0
   -1.2432   -2.3847   -0.5188 C   0  0  0  0  0  0  0  0  0  0  0  0
   -2.4281   -2.5017    0.2097 C   0  0  0  0  0  0  0  0  0  0  0  0
   -2.4819   -3.3318    1.3309 C   0  0  0  0  0  0  0  0  0  0  0  0
   -1.3562   -4.0593    1.7209 C   0  0  0  0  0  0  0  0  0  0  0  0
   -0.1678   -3.9487    0.9980 C   0  0  0  0  0  0  0  0  0  0  0  0
    3.5555   -3.2362    0.6918 O   0  0  0  0  0  0  0  0  0  0  0  0
    4.4209   -2.5129    1.4381 C   0  0  0  0  0  0  0  0  0  0  0  0
    4.1320   -1.1745    1.3481 C   0  0  0  0  0  0  0  0  0  0  0  0
    3.8735    1.1809   -0.1364 H   0  0  0  0  0  0  0  0  0  0  0  0
    0.2794    2.0574    0.4182 H   0  0  0  0  0  0  0  0  0  0  0  0
   -0.6460    4.2378   -0.0220 H   0  0  0  0  0  0  0  0  0  0  0  0
   -0.3420    6.6155   -0.8122 H   0  0  0  0  0  0  0  0  0  0  0  0
    3.3126    7.9799   -2.1182 H   0  0  0  0  0  0  0  0  0  0  0  0
    4.1597    3.3881   -0.9463 H   0  0  0  0  0  0  0  0  0  0  0  0
   -1.2091   -1.7349   -1.3907 H   0  0  0  0  0  0  0  0  0  0  0  0
   -3.3105   -1.9443   -0.0959 H   0  0  0  0  0  0  0  0  0  0  0  0
   -3.4059   -3.4157    1.8988 H   0  0  0  0  0  0  0  0  0  0  0  0
   -1.4093   -4.7166    2.5856 H   0  0  0  0  0  0  0  0  0  0  0  0
    0.6990   -4.5350    1.2948 H   0  0  0  0  0  0  0  0  0  0  0  0
    5.1645   -3.0876    1.9749 H   0  0  0  0  0  0  0  0  0  0  0  0
    4.6479   -0.3817    1.8722 H   0  0  0  0  0  0  0  0  0  0  0  0
  1  2  2  0  0  0  0
  2  3  1  0  0  0  0
  2 15  1  0  0  0  0
  3  4  1  0  0  0  0
  3 29  1  0  0  0  0
  4  5  2  0  0  0  0
  4 14  1  0  0  0  0
  5  6  1  0  0  0  0
  5 30  1  0  0  0  0
  6  7  2  0  0  0  0
  6 31  1  0  0  0  0
  7  8  1  0  0  0  0
  7 13  1  0  0  0  0
  8  9  2  0  0  0  0
  8 32  1  0  0  0  0
  9 10  1  0  0  0  0
 10 11  2  0  0  0  0
 10 33  1  0  0  0  0
 11 12  1  0  0  0  0
 11 13  1  0  0  0  0
 13 14  2  0  0  0  0
 14 34  1  0  0  0  0
 15 16  2  0  0  0  0
 15 28  1  0  0  0  0
 16 17  1  0  0  0  0
 16 26  1  0  0  0  0
 17 18  2  0  0  0  0
 17 19  2  0  0  0  0
 17 20  1  0  0  0  0
 20 21  2  0  0  0  0
 20 25  1  0  0  0  0
 21 22  1  0  0  0  0
 21 35  1  0  0  0  0
 22 23  2  0  0  0  0
 22 36  1  0  0  0  0
 23 24  1  0  0  0  0
 23 37  1  0  0  0  0
 24 25  2  0  0  0  0
 24 38  1  0  0  0  0
 25 39  1  0  0  0  0
 26 27  1  0  0  0  0
 27 28  2  0  0  0  0
 27 40  1  0  0  0  0
 28 41  1  0  0  0  0
M  END
$$$$
