
 OpenBabel01122422483D

 53 56  0  0  0  0  0  0  0  0999 V2000
    5.1142    5.3810   -1.1933 C   0  0  0  0  0  0  0  0  0  0  0  0
    5.3593    3.9652   -0.7353 C   0  0  0  0  0  0  0  0  0  0  0  0
    4.2288    3.0478   -0.3758 C   0  0  0  0  0  0  0  0  0  0  0  0
    4.3856    1.7043   -0.0269 C   0  0  0  0  0  0  0  0  0  0  0  0
    5.6396    0.9444    0.0645 C   0  0  0  0  0  0  0  0  0  0  0  0
    6.7289    1.4775    0.2168 O   0  0  0  0  0  0  0  0  0  0  0  0
    5.4762   -0.4168   -0.0628 N   0  0  0  0  0  0  0  0  0  0  0  0
    6.5829   -1.3464    0.0100 C   0  0  0  0  0  0  0  0  0  0  0  0
    6.4076   -2.3893    1.0908 C   0  0  0  0  0  0  0  0  0  0  0  0
    6.9046   -3.6847    0.9016 C   0  0  0  0  0  0  0  0  0  0  0  0
    6.8025   -4.6356    1.9153 C   0  0  0  0  0  0  0  0  0  0  0  0
    6.2134   -4.3005    3.1370 C   0  0  0  0  0  0  0  0  0  0  0  0
    5.7284   -3.0053    3.3830 C   0  0  0  0  0  0  0  0  0  0  0  0
    5.1413   -2.6355    4.6905 C   0  0  0  0  0  0  0  0  0  0  0  0
    4.0942   -1.7123    4.8114 C   0  0  0  0  0  0  0  0  0  0  0  0
    3.5707   -1.3787    6.0607 C   0  0  0  0  0  0  0  0  0  0  0  0
    4.1044   -1.9972    7.1832 C   0  0  0  0  0  0  0  0  0  0  0  0
    5.1067   -2.8911    7.1276 N   0  0  0  0  0  0  0  0  0  0  0  0
    5.6002   -3.1804    5.8948 C   0  0  0  0  0  0  0  0  0  0  0  0
    5.8409   -2.0647    2.3392 C   0  0  0  0  0  0  0  0  0  0  0  0
    3.1638    1.1426    0.2168 N   0  0  0  0  0  0  0  0  0  0  0  0
    2.2455    2.0798    0.0605 N   0  0  0  0  0  0  0  0  0  0  0  0
    2.8611    3.2319   -0.3059 N   0  0  0  0  0  0  0  0  0  0  0  0
    1.9809    4.3297   -0.7032 C   0  0  0  0  0  0  0  0  0  0  0  0
    1.6608    5.2981    0.4145 C   0  0  0  0  0  0  0  0  0  0  0  0
    1.8625    6.6759    0.2209 C   0  0  0  0  0  0  0  0  0  0  0  0
    1.6732    7.5786    1.2688 C   0  0  0  0  0  0  0  0  0  0  0  0
    1.2410    7.1147    2.5036 C   0  0  0  0  0  0  0  0  0  0  0  0
    1.1203    7.9719    3.5255 F   0  0  0  0  0  0  0  0  0  0  0  0
    0.9335    5.7735    2.6906 C   0  0  0  0  0  0  0  0  0  0  0  0
    1.1279    4.8672    1.6432 C   0  0  0  0  0  0  0  0  0  0  0  0
    6.0840    5.8853   -1.3010 H   0  0  0  0  0  0  0  0  0  0  0  0
    4.5353    5.9564   -0.4702 H   0  0  0  0  0  0  0  0  0  0  0  0
    4.6279    5.4165   -2.1717 H   0  0  0  0  0  0  0  0  0  0  0  0
    6.0252    4.0172    0.1361 H   0  0  0  0  0  0  0  0  0  0  0  0
    5.9385    3.4700   -1.5282 H   0  0  0  0  0  0  0  0  0  0  0  0
    4.5493   -0.7684   -0.2724 H   0  0  0  0  0  0  0  0  0  0  0  0
    7.5287   -0.8205    0.1751 H   0  0  0  0  0  0  0  0  0  0  0  0
    6.6338   -1.8338   -0.9711 H   0  0  0  0  0  0  0  0  0  0  0  0
    7.3860   -3.9626   -0.0336 H   0  0  0  0  0  0  0  0  0  0  0  0
    7.1895   -5.6408    1.7611 H   0  0  0  0  0  0  0  0  0  0  0  0
    6.1401   -5.0758    3.8968 H   0  0  0  0  0  0  0  0  0  0  0  0
    3.6641   -1.2386    3.9316 H   0  0  0  0  0  0  0  0  0  0  0  0
    2.7638   -0.6688    6.1570 H   0  0  0  0  0  0  0  0  0  0  0  0
    3.7275   -1.7765    8.1755 H   0  0  0  0  0  0  0  0  0  0  0  0
    6.4224   -3.8883    5.9157 H   0  0  0  0  0  0  0  0  0  0  0  0
    5.5042   -1.0421    2.5024 H   0  0  0  0  0  0  0  0  0  0  0  0
    1.0440    3.8870   -1.0689 H   0  0  0  0  0  0  0  0  0  0  0  0
    2.4453    4.8277   -1.5588 H   0  0  0  0  0  0  0  0  0  0  0  0
    2.1929    7.0568   -0.7433 H   0  0  0  0  0  0  0  0  0  0  0  0
    1.8744    8.6367    1.1341 H   0  0  0  0  0  0  0  0  0  0  0  0
    0.5608    5.4395    3.6537 H   0  0  0  0  0  0  0  0  0  0  0  0
    0.8758    3.8199    1.8058 H   0  0  0  0  0  0  0  0  0  0  0  0
  1  2  1  0  0  0  0
  1 32  1  0  0  0  0
  1 33  1  0  0  0  0
  1 34  1  0  0  0  0
  2  3  1  0  0  0  0
  2 35  1  0  0  0  0
  2 36  1  0  0  0  0
  3  4  2  0  0  0  0
  3 23  1  0  0  0  0
  4  5  1  0  0  0  0
  4 21  1  0  0  0  0
  5  6  2  0  0  0  0
  5  7  1  0  0  0  0
  7  8  1  0  0  0  0
  7 37  1  0  0  0  0
  8  9  1  0  0  0  0
  8 38  1  0  0  0  0
  8 39  1  0  0  0  0
  9 10  2  0  0  0  0
  9 20  1  0  0  0  0
 10 11  1  0  0  0  0
 10 40  1  0  0  0  0
 11 12  2  0  0  0  0
 11 41  1  0  0  0  0
 12 13  1  0  0  0  0
 12 42  1  0  0  0  0
 13 14  1  0  0  0  0
 13 20  2  0  0  0  0
 14 15  2  0  0  0  0
 14 19  1  0  0  0  0
 15 16  1  0  0  0  0
 15 43  1  0  0  0  0
 16 17  2  0  0  0  0
 16 44  1  0  0  0  0
 17 18  1  0  0  0  0
 17 45  1  0  0  0  0
 18 19  2  0  0  0  0
 19 46  1  0  0  0  0
 20 47  1  0  0  0  0
 21 22  2  0  0  0  0
 22 23  1  0  0  0  0
 23 24  1  0  0  0  0
 24 25  1  0  0  0  0
 24 48  1  0  0  0  0
 24 49  1  0  0  0  0
 25 26  2  0  0  0  0
 25 31  1  0  0  0  0
 26 27  1  0  0  0  0
 26 50  1  0  0  0  0
 27 28  2  0  0  0  0
 27 51  1  0  0  0  0
 28 29  1  0  0  0  0
 28 30  1  0  0  0  0
 30 31  2  0  0  0  0
 30 52  1  0  0  0  0
 31 53  1  0  0  0  0
M  END
$$$$
