
 OpenBabel01122422483D

 49 52  0  0  0  0  0  0  0  0999 V2000
    2.8316    0.5777    1.0093 C   0  0  0  0  0  0  0  0  0  0  0  0
    2.6353    0.4752   -0.3993 O   0  0  0  0  0  0  0  0  0  0  0  0
    3.2724   -0.5696   -1.0202 C   0  0  0  0  0  0  0  0  0  0  0  0
    3.6764   -1.7307   -0.3573 C   0  0  0  0  0  0  0  0  0  0  0  0
    4.3242   -2.7603   -1.0472 C   0  0  0  0  0  0  0  0  0  0  0  0
    4.5504   -2.6894   -2.4275 C   0  0  0  0  0  0  0  0  0  0  0  0
    5.2560   -3.7712   -3.1571 C   0  0  0  0  0  0  0  0  0  0  0  0
    6.0197   -3.4894   -4.3051 C   0  0  0  0  0  0  0  0  0  0  0  0
    6.6665   -4.4905   -5.0458 C   0  0  0  0  0  0  0  0  0  0  0  0
    7.3804   -4.1590   -6.2815 C   0  0  0  0  0  0  0  0  0  0  0  0
    8.5334   -4.7791   -6.5794 N   0  0  0  0  0  0  0  0  0  0  0  0
    8.9661   -4.2246   -7.7313 N   0  0  0  0  0  0  0  0  0  0  0  0
   10.1896   -4.6371   -8.3236 C   0  0  0  0  0  0  0  0  0  0  0  0
   10.9118   -5.6901   -7.7537 C   0  0  0  0  0  0  0  0  0  0  0  0
   12.1026   -6.0650   -8.3510 C   0  0  0  0  0  0  0  0  0  0  0  0
   12.6119   -5.4689   -9.4495 N   0  0  0  0  0  0  0  0  0  0  0  0
   11.8980   -4.4535   -9.9787 C   0  0  0  0  0  0  0  0  0  0  0  0
   10.6919   -4.0053   -9.4645 C   0  0  0  0  0  0  0  0  0  0  0  0
    8.0912   -3.2674   -8.1868 C   0  0  0  0  0  0  0  0  0  0  0  0
    7.0390   -3.2046   -7.2908 C   0  0  0  0  0  0  0  0  0  0  0  0
    5.8491   -2.3808   -7.4110 C   0  0  0  0  0  0  0  0  0  0  0  0
    4.7660   -2.6566   -6.9254 O   0  0  0  0  0  0  0  0  0  0  0  0
    6.0263   -1.2285   -8.1140 O   0  0  0  0  0  0  0  0  0  0  0  0
    6.6278   -5.8052   -4.5728 C   0  0  0  0  0  0  0  0  0  0  0  0
    5.9055   -6.1139   -3.4218 C   0  0  0  0  0  0  0  0  0  0  0  0
    5.2103   -5.1125   -2.7384 C   0  0  0  0  0  0  0  0  0  0  0  0
    4.0941   -1.5292   -3.0839 C   0  0  0  0  0  0  0  0  0  0  0  0
    3.4965   -0.4484   -2.3998 C   0  0  0  0  0  0  0  0  0  0  0  0
    3.1015    0.7641   -3.2171 C   0  0  0  0  0  0  0  0  0  0  0  0
    3.2156    1.9982   -2.5187 O   0  0  0  0  0  0  0  0  0  0  0  0
    2.3839    1.5187    1.3419 H   0  0  0  0  0  0  0  0  0  0  0  0
    3.8989    0.6078    1.2548 H   0  0  0  0  0  0  0  0  0  0  0  0
    2.3249   -0.2331    1.5421 H   0  0  0  0  0  0  0  0  0  0  0  0
    3.5047   -1.8741    0.7040 H   0  0  0  0  0  0  0  0  0  0  0  0
    4.6577   -3.6217   -0.4736 H   0  0  0  0  0  0  0  0  0  0  0  0
    6.1160   -2.4567   -4.6306 H   0  0  0  0  0  0  0  0  0  0  0  0
   10.5650   -6.2176   -6.8702 H   0  0  0  0  0  0  0  0  0  0  0  0
   12.6974   -6.8807   -7.9497 H   0  0  0  0  0  0  0  0  0  0  0  0
   12.3371   -3.9904  -10.8588 H   0  0  0  0  0  0  0  0  0  0  0  0
   10.1966   -3.1804   -9.9593 H   0  0  0  0  0  0  0  0  0  0  0  0
    8.2519   -2.7551   -9.1225 H   0  0  0  0  0  0  0  0  0  0  0  0
    6.9560   -1.0618   -8.3510 H   0  0  0  0  0  0  0  0  0  0  0  0
    7.1534   -6.5960   -5.1031 H   0  0  0  0  0  0  0  0  0  0  0  0
    5.8709   -7.1397   -3.0614 H   0  0  0  0  0  0  0  0  0  0  0  0
    4.6241   -5.4028   -1.8693 H   0  0  0  0  0  0  0  0  0  0  0  0
    4.2012   -1.4487   -4.1664 H   0  0  0  0  0  0  0  0  0  0  0  0
    2.0710    0.6539   -3.5686 H   0  0  0  0  0  0  0  0  0  0  0  0
    3.7521    0.8528   -4.0944 H   0  0  0  0  0  0  0  0  0  0  0  0
    2.9531    1.8098   -1.5986 H   0  0  0  0  0  0  0  0  0  0  0  0
  1  2  1  0  0  0  0
  1 31  1  0  0  0  0
  1 32  1  0  0  0  0
  1 33  1  0  0  0  0
  2  3  1  0  0  0  0
  3  4  2  0  0  0  0
  3 28  1  0  0  0  0
  4  5  1  0  0  0  0
  4 34  1  0  0  0  0
  5  6  2  0  0  0  0
  5 35  1  0  0  0  0
  6  7  1  0  0  0  0
  6 27  1  0  0  0  0
  7  8  2  0  0  0  0
  7 26  1  0  0  0  0
  8  9  1  0  0  0  0
  8 36  1  0  0  0  0
  9 10  1  0  0  0  0
  9 24  2  0  0  0  0
 10 11  2  0  0  0  0
 10 20  1  0  0  0  0
 11 12  1  0  0  0  0
 12 13  1  0  0  0  0
 12 19  1  0  0  0  0
 13 14  2  0  0  0  0
 13 18  1  0  0  0  0
 14 15  1  0  0  0  0
 14 37  1  0  0  0  0
 15 16  2  0  0  0  0
 15 38  1  0  0  0  0
 16 17  1  0  0  0  0
 17 18  2  0  0  0  0
 17 39  1  0  0  0  0
 18 40  1  0  0  0  0
 19 20  2  0  0  0  0
 19 41  1  0  0  0  0
 20 21  1  0  0  0  0
 21 22  2  0  0  0  0
 21 23  1  0  0  0  0
 23 42  1  0  0  0  0
 24 25  1  0  0  0  0
 24 43  1  0  0  0  0
 25 26  2  0  0  0  0
 25 44  1  0  0  0  0
 26 45  1  0  0  0  0
 27 28  2  0  0  0  0
 27 46  1  0  0  0  0
 28 29  1  0  0  0  0
 29 30  1  0  0  0  0
 29 47  1  0  0  0  0
 29 48  1  0  0  0  0
 30 49  1  0  0  0  0
M  END
$$$$
