
 OpenBabel01122422483D

 42 45  0  0  0  0  0  0  0  0999 V2000
    1.0402    0.0858   -0.2062 O   0  0  0  0  0  0  0  0  0  0  0  0
    2.2462    0.0400    0.0358 C   0  0  0  0  0  0  0  0  0  0  0  0
    2.8666   -0.9102    0.8235 N   0  0  0  0  0  0  0  0  0  0  0  0
    2.2373   -2.0458    1.3875 C   0  0  0  0  0  0  0  0  0  0  0  0
    0.9796   -2.4909    0.9788 C   0  0  0  0  0  0  0  0  0  0  0  0
    0.3991   -3.6144    1.5585 C   0  0  0  0  0  0  0  0  0  0  0  0
    1.0750   -4.3094    2.5574 C   0  0  0  0  0  0  0  0  0  0  0  0
    2.3386   -3.8885    2.9923 C   0  0  0  0  0  0  0  0  0  0  0  0
    3.0008   -4.5737    4.0274 N   0  0  0  0  0  0  0  0  0  0  0  0
    4.1676   -4.0895    4.5670 N   0  0  0  0  0  0  0  0  0  0  0  0
    4.5364   -4.8495    5.5162 N   0  0  0  0  0  0  0  0  0  0  0  0
    3.6409   -5.8603    5.6398 N   0  0  0  0  0  0  0  0  0  0  0  0
    2.6369   -5.7290    4.7059 C   0  0  0  0  0  0  0  0  0  0  0  0
    1.6940   -6.4888    4.5693 O   0  0  0  0  0  0  0  0  0  0  0  0
    2.9184   -2.7572    2.3865 C   0  0  0  0  0  0  0  0  0  0  0  0
    3.0873    1.1183   -0.5463 C   0  0  0  0  0  0  0  0  0  0  0  0
    2.4331    2.1463   -1.2360 C   0  0  0  0  0  0  0  0  0  0  0  0
    3.1600    3.1674   -1.8487 C   0  0  0  0  0  0  0  0  0  0  0  0
    4.5630    3.2100   -1.7846 C   0  0  0  0  0  0  0  0  0  0  0  0
    5.3175    4.2986   -2.4456 C   0  0  0  0  0  0  0  0  0  0  0  0
    4.7855    5.5991   -2.5459 C   0  0  0  0  0  0  0  0  0  0  0  0
    5.4746    6.6244   -3.1971 C   0  0  0  0  0  0  0  0  0  0  0  0
    6.7273    6.3785   -3.7503 C   0  0  0  0  0  0  0  0  0  0  0  0
    7.2830    5.1063   -3.6562 C   0  0  0  0  0  0  0  0  0  0  0  0
    6.5833    4.0776   -3.0174 C   0  0  0  0  0  0  0  0  0  0  0  0
    5.2049    2.1762   -1.0780 C   0  0  0  0  0  0  0  0  0  0  0  0
    4.4754    1.1472   -0.4745 C   0  0  0  0  0  0  0  0  0  0  0  0
    5.1532    0.1882    0.1763 F   0  0  0  0  0  0  0  0  0  0  0  0
    3.8434   -0.7639    1.0628 H   0  0  0  0  0  0  0  0  0  0  0  0
    0.4232   -1.9963    0.1890 H   0  0  0  0  0  0  0  0  0  0  0  0
   -0.5825   -3.9436    1.2308 H   0  0  0  0  0  0  0  0  0  0  0  0
    0.5787   -5.1710    2.9912 H   0  0  0  0  0  0  0  0  0  0  0  0
    3.7245   -6.5876    6.3309 H   0  0  0  0  0  0  0  0  0  0  0  0
    3.8986   -2.4157    2.7072 H   0  0  0  0  0  0  0  0  0  0  0  0
    1.3467    2.1560   -1.3121 H   0  0  0  0  0  0  0  0  0  0  0  0
    2.6016    3.9243   -2.3966 H   0  0  0  0  0  0  0  0  0  0  0  0
    3.8169    5.8372   -2.1104 H   0  0  0  0  0  0  0  0  0  0  0  0
    5.0304    7.6139   -3.2693 H   0  0  0  0  0  0  0  0  0  0  0  0
    7.2652    7.1746   -4.2540 H   0  0  0  0  0  0  0  0  0  0  0  0
    8.2604    4.9085   -4.0882 H   0  0  0  0  0  0  0  0  0  0  0  0
    7.0401    3.0911   -2.9903 H   0  0  0  0  0  0  0  0  0  0  0  0
    6.2871    2.1552   -0.9793 H   0  0  0  0  0  0  0  0  0  0  0  0
  1  2  2  0  0  0  0
  2  3  1  0  0  0  0
  2 16  1  0  0  0  0
  3  4  1  0  0  0  0
  3 29  1  0  0  0  0
  4  5  2  0  0  0  0
  4 15  1  0  0  0  0
  5  6  1  0  0  0  0
  5 30  1  0  0  0  0
  6  7  2  0  0  0  0
  6 31  1  0  0  0  0
  7  8  1  0  0  0  0
  7 32  1  0  0  0  0
  8  9  1  0  0  0  0
  8 15  2  0  0  0  0
  9 10  1  0  0  0  0
  9 13  1  0  0  0  0
 10 11  2  0  0  0  0
 11 12  1  0  0  0  0
 12 13  1  0  0  0  0
 12 33  1  0  0  0  0
 13 14  2  0  0  0  0
 15 34  1  0  0  0  0
 16 17  2  0  0  0  0
 16 27  1  0  0  0  0
 17 18  1  0  0  0  0
 17 35  1  0  0  0  0
 18 19  2  0  0  0  0
 18 36  1  0  0  0  0
 19 20  1  0  0  0  0
 19 26  1  0  0  0  0
 20 21  2  0  0  0  0
 20 25  1  0  0  0  0
 21 22  1  0  0  0  0
 21 37  1  0  0  0  0
 22 23  2  0  0  0  0
 22 38  1  0  0  0  0
 23 24  1  0  0  0  0
 23 39  1  0  0  0  0
 24 25  2  0  0  0  0
 24 40  1  0  0  0  0
 25 41  1  0  0  0  0
 26 27  2  0  0  0  0
 26 42  1  0  0  0  0
 27 28  1  0  0  0  0
M  END
$$$$
