
 OpenBabel01122422483D

 47 50  0  0  0  0  0  0  0  0999 V2000
    1.8638    4.4575    2.1644 C   0  0  0  0  0  0  0  0  0  0  0  0
    3.1897    3.8169    2.4816 C   0  0  0  0  0  0  0  0  0  0  0  0
    3.6518    3.8595    3.6140 O   0  0  0  0  0  0  0  0  0  0  0  0
    3.7709    3.2245    1.3746 N   0  0  0  0  0  0  0  0  0  0  0  0
    5.0092    2.5470    1.3520 C   0  0  0  0  0  0  0  0  0  0  0  0
    5.7134    2.1608    2.4904 C   0  0  0  0  0  0  0  0  0  0  0  0
    6.9753    1.5801    2.3653 C   0  0  0  0  0  0  0  0  0  0  0  0
    7.4936    1.4080    1.0924 C   0  0  0  0  0  0  0  0  0  0  0  0
    8.7935    0.9329    1.0051 O   0  0  0  0  0  0  0  0  0  0  0  0
    9.5440    1.2874   -0.0951 C   0  0  0  0  0  0  0  0  0  0  0  0
    9.4693    2.5329   -0.7374 C   0  0  0  0  0  0  0  0  0  0  0  0
   10.2748    2.8216   -1.8468 C   0  0  0  0  0  0  0  0  0  0  0  0
   11.2018    1.8768   -2.2880 C   0  0  0  0  0  0  0  0  0  0  0  0
   12.1710    2.1349   -3.3849 C   0  0  0  0  0  0  0  0  0  0  0  0
   13.2690    1.5882   -3.2749 O   0  0  0  0  0  0  0  0  0  0  0  0
   11.7840    2.9530   -4.4414 N   0  0  0  0  0  0  0  0  0  0  0  0
   12.5028    3.1168   -5.6669 C   0  0  0  0  0  0  0  0  0  0  0  0
   13.5568    2.2537   -6.0111 C   0  0  0  0  0  0  0  0  0  0  0  0
   14.1815    2.3165   -7.2563 C   0  0  0  0  0  0  0  0  0  0  0  0
   13.7249    3.2088   -8.2132 C   0  0  0  0  0  0  0  0  0  0  0  0
   12.6841    4.0949   -7.9081 C   0  0  0  0  0  0  0  0  0  0  0  0
   12.2059    4.9915   -8.8575 C   0  0  0  0  0  0  0  0  0  0  0  0
   11.2778    5.9319   -8.5901 N   0  0  0  0  0  0  0  0  0  0  0  0
   10.7942    6.0343   -7.3330 N   0  0  0  0  0  0  0  0  0  0  0  0
   11.1947    5.1431   -6.3935 C   0  0  0  0  0  0  0  0  0  0  0  0
   12.1068    4.1046   -6.6201 C   0  0  0  0  0  0  0  0  0  0  0  0
   11.3078    0.6480   -1.6092 C   0  0  0  0  0  0  0  0  0  0  0  0
   10.4856    0.3545   -0.5204 C   0  0  0  0  0  0  0  0  0  0  0  0
    6.8024    1.6823   -0.0373 N   0  0  0  0  0  0  0  0  0  0  0  0
    5.5864    2.2478    0.1205 C   0  0  0  0  0  0  0  0  0  0  0  0
    1.5526    5.0791    3.0095 H   0  0  0  0  0  0  0  0  0  0  0  0
    1.1157    3.6798    1.9967 H   0  0  0  0  0  0  0  0  0  0  0  0
    1.9478    5.0966    1.2806 H   0  0  0  0  0  0  0  0  0  0  0  0
    3.3264    3.3909    0.4800 H   0  0  0  0  0  0  0  0  0  0  0  0
    5.3131    2.3053    3.4889 H   0  0  0  0  0  0  0  0  0  0  0  0
    7.5470    1.3031    3.2441 H   0  0  0  0  0  0  0  0  0  0  0  0
    8.7809    3.2932   -0.3771 H   0  0  0  0  0  0  0  0  0  0  0  0
   10.1894    3.7988   -2.3100 H   0  0  0  0  0  0  0  0  0  0  0  0
   10.8736    3.3862   -4.3853 H   0  0  0  0  0  0  0  0  0  0  0  0
   13.9078    1.4781   -5.3387 H   0  0  0  0  0  0  0  0  0  0  0  0
   15.0070    1.6447   -7.4761 H   0  0  0  0  0  0  0  0  0  0  0  0
   14.2057    3.2238   -9.1896 H   0  0  0  0  0  0  0  0  0  0  0  0
   12.5535    4.9792   -9.8857 H   0  0  0  0  0  0  0  0  0  0  0  0
   10.7701    5.3349   -5.4148 H   0  0  0  0  0  0  0  0  0  0  0  0
   12.0499   -0.0854   -1.9227 H   0  0  0  0  0  0  0  0  0  0  0  0
   10.5883   -0.5964   -0.0035 H   0  0  0  0  0  0  0  0  0  0  0  0
    5.0934    2.4945   -0.8155 H   0  0  0  0  0  0  0  0  0  0  0  0
  1  2  1  0  0  0  0
  1 31  1  0  0  0  0
  1 32  1  0  0  0  0
  1 33  1  0  0  0  0
  2  3  2  0  0  0  0
  2  4  1  0  0  0  0
  4  5  1  0  0  0  0
  4 34  1  0  0  0  0
  5  6  2  0  0  0  0
  5 30  1  0  0  0  0
  6  7  1  0  0  0  0
  6 35  1  0  0  0  0
  7  8  2  0  0  0  0
  7 36  1  0  0  0  0
  8  9  1  0  0  0  0
  8 29  1  0  0  0  0
  9 10  1  0  0  0  0
 10 11  2  0  0  0  0
 10 28  1  0  0  0  0
 11 12  1  0  0  0  0
 11 37  1  0  0  0  0
 12 13  2  0  0  0  0
 12 38  1  0  0  0  0
 13 14  1  0  0  0  0
 13 27  1  0  0  0  0
 14 15  2  0  0  0  0
 14 16  1  0  0  0  0
 16 17  1  0  0  0  0
 16 39  1  0  0  0  0
 17 18  2  0  0  0  0
 17 26  1  0  0  0  0
 18 19  1  0  0  0  0
 18 40  1  0  0  0  0
 19 20  2  0  0  0  0
 19 41  1  0  0  0  0
 20 21  1  0  0  0  0
 20 42  1  0  0  0  0
 21 22  2  0  0  0  0
 21 26  1  0  0  0  0
 22 23  1  0  0  0  0
 22 43  1  0  0  0  0
 23 24  2  0  0  0  0
 24 25  1  0  0  0  0
 25 26  2  0  0  0  0
 25 44  1  0  0  0  0
 27 28  2  0  0  0  0
 27 45  1  0  0  0  0
 28 46  1  0  0  0  0
 29 30  2  0  0  0  0
 30 47  1  0  0  0  0
M  END
$$$$
