
 OpenBabel01122422483D

 45 48  0  0  0  0  0  0  0  0999 V2000
    0.9920   -0.1196   -0.2758 C   0  0  0  0  0  0  0  0  0  0  0  0
    2.3673   -0.1073    0.0779 O   0  0  0  0  0  0  0  0  0  0  0  0
    3.0297   -1.3091    0.0906 C   0  0  0  0  0  0  0  0  0  0  0  0
    2.7106   -2.3396   -0.8082 C   0  0  0  0  0  0  0  0  0  0  0  0
    3.4079   -3.5500   -0.7889 C   0  0  0  0  0  0  0  0  0  0  0  0
    4.4454   -3.7360    0.1231 C   0  0  0  0  0  0  0  0  0  0  0  0
    5.1240   -5.0557    0.2424 C   0  0  0  0  0  0  0  0  0  0  0  0
    5.4436   -5.4706    1.3485 O   0  0  0  0  0  0  0  0  0  0  0  0
    5.3975   -5.7021   -0.9476 N   0  0  0  0  0  0  0  0  0  0  0  0
    6.0167   -6.9331   -0.9714 C   0  0  0  0  0  0  0  0  0  0  0  0
    6.8640   -7.2570   -1.9516 N   0  0  0  0  0  0  0  0  0  0  0  0
    7.3423   -8.4629   -1.5247 N   0  0  0  0  0  0  0  0  0  0  0  0
    8.5104   -9.0542   -2.0784 C   0  0  0  0  0  0  0  0  0  0  0  0
    9.3209   -8.3192   -2.9593 C   0  0  0  0  0  0  0  0  0  0  0  0
   10.4935   -8.8904   -3.4638 C   0  0  0  0  0  0  0  0  0  0  0  0
   10.8410  -10.1893   -3.1041 C   0  0  0  0  0  0  0  0  0  0  0  0
   11.9633  -10.7322   -3.6005 F   0  0  0  0  0  0  0  0  0  0  0  0
   10.0433  -10.9275   -2.2374 C   0  0  0  0  0  0  0  0  0  0  0  0
    8.8803  -10.3586   -1.7116 C   0  0  0  0  0  0  0  0  0  0  0  0
    6.6791   -9.0278   -0.4831 N   0  0  0  0  0  0  0  0  0  0  0  0
    5.8958   -8.0218   -0.0854 C   0  0  0  0  0  0  0  0  0  0  0  0
    4.7777   -2.7045    1.0135 C   0  0  0  0  0  0  0  0  0  0  0  0
    4.0817   -1.4698    1.0258 C   0  0  0  0  0  0  0  0  0  0  0  0
    4.4034   -0.4650    2.0760 C   0  0  0  0  0  0  0  0  0  0  0  0
    4.2795    0.9160    1.9135 C   0  0  0  0  0  0  0  0  0  0  0  0
    4.4737    1.7630    3.0053 C   0  0  0  0  0  0  0  0  0  0  0  0
    4.8261    1.2217    4.2318 C   0  0  0  0  0  0  0  0  0  0  0  0
    4.9861   -0.1486    4.3094 C   0  0  0  0  0  0  0  0  0  0  0  0
    4.7858   -0.9911    3.2710 N   0  0  0  0  0  0  0  0  0  0  0  0
    0.5919    0.8807   -0.0849 H   0  0  0  0  0  0  0  0  0  0  0  0
    0.4268   -0.8281    0.3406 H   0  0  0  0  0  0  0  0  0  0  0  0
    0.8538   -0.3230   -1.3401 H   0  0  0  0  0  0  0  0  0  0  0  0
    1.9068   -2.2279   -1.5294 H   0  0  0  0  0  0  0  0  0  0  0  0
    3.1008   -4.3474   -1.4607 H   0  0  0  0  0  0  0  0  0  0  0  0
    5.4729   -5.1706   -1.8027 H   0  0  0  0  0  0  0  0  0  0  0  0
    9.0715   -7.2952   -3.2303 H   0  0  0  0  0  0  0  0  0  0  0  0
   11.1427   -8.3249   -4.1254 H   0  0  0  0  0  0  0  0  0  0  0  0
   10.3330  -11.9397   -1.9730 H   0  0  0  0  0  0  0  0  0  0  0  0
    8.2686  -10.9436   -1.0262 H   0  0  0  0  0  0  0  0  0  0  0  0
    5.2634   -8.1347    0.7857 H   0  0  0  0  0  0  0  0  0  0  0  0
    5.5790   -2.8706    1.7356 H   0  0  0  0  0  0  0  0  0  0  0  0
    4.0101    1.3490    0.9564 H   0  0  0  0  0  0  0  0  0  0  0  0
    4.3356    2.8348    2.8957 H   0  0  0  0  0  0  0  0  0  0  0  0
    4.9741    1.8494    5.1028 H   0  0  0  0  0  0  0  0  0  0  0  0
    5.2779   -0.6263    5.2402 H   0  0  0  0  0  0  0  0  0  0  0  0
  1  2  1  0  0  0  0
  1 30  1  0  0  0  0
  1 31  1  0  0  0  0
  1 32  1  0  0  0  0
  2  3  1  0  0  0  0
  3  4  2  0  0  0  0
  3 23  1  0  0  0  0
  4  5  1  0  0  0  0
  4 33  1  0  0  0  0
  5  6  2  0  0  0  0
  5 34  1  0  0  0  0
  6  7  1  0  0  0  0
  6 22  1  0  0  0  0
  7  8  2  0  0  0  0
  7  9  1  0  0  0  0
  9 10  1  0  0  0  0
  9 35  1  0  0  0  0
 10 11  2  0  0  0  0
 10 21  1  0  0  0  0
 11 12  1  0  0  0  0
 12 13  1  0  0  0  0
 12 20  1  0  0  0  0
 13 14  2  0  0  0  0
 13 19  1  0  0  0  0
 14 15  1  0  0  0  0
 14 36  1  0  0  0  0
 15 16  2  0  0  0  0
 15 37  1  0  0  0  0
 16 17  1  0  0  0  0
 16 18  1  0  0  0  0
 18 19  2  0  0  0  0
 18 38  1  0  0  0  0
 19 39  1  0  0  0  0
 20 21  2  0  0  0  0
 21 40  1  0  0  0  0
 22 23  2  0  0  0  0
 22 41  1  0  0  0  0
 23 24  1  0  0  0  0
 24 25  2  0  0  0  0
 24 29  1  0  0  0  0
 25 26  1  0  0  0  0
 25 42  1  0  0  0  0
 26 27  2  0  0  0  0
 26 43  1  0  0  0  0
 27 28  1  0  0  0  0
 27 44  1  0  0  0  0
 28 29  2  0  0  0  0
 28 45  1  0  0  0  0
M  END
$$$$
