
 OpenBabel01122422483D

 45 47  0  0  0  0  0  0  0  0999 V2000
    6.5573   -8.6938   -7.4190 C   0  0  0  0  0  0  0  0  0  0  0  0
    7.1141   -7.5112   -6.8563 O   0  0  0  0  0  0  0  0  0  0  0  0
    6.3215   -6.7766   -6.0157 C   0  0  0  0  0  0  0  0  0  0  0  0
    6.9460   -5.6296   -5.5209 C   0  0  0  0  0  0  0  0  0  0  0  0
    6.2497   -4.8036   -4.6559 C   0  0  0  0  0  0  0  0  0  0  0  0
    4.9900   -5.0476   -4.2529 N   0  0  0  0  0  0  0  0  0  0  0  0
    4.3944   -6.1849   -4.7324 C   0  0  0  0  0  0  0  0  0  0  0  0
    3.0295   -6.4969   -4.2205 C   0  0  0  0  0  0  0  0  0  0  0  0
    2.4139   -7.5295   -4.4351 O   0  0  0  0  0  0  0  0  0  0  0  0
    2.6077   -5.4633   -3.4415 O   0  0  0  0  0  0  0  0  0  0  0  0
    1.3460   -5.6549   -2.8056 C   0  0  0  0  0  0  0  0  0  0  0  0
    0.2181   -5.2270   -3.7051 C   0  0  0  0  0  0  0  0  0  0  0  0
   -0.7159   -6.2169   -4.0829 C   0  0  0  0  0  0  0  0  0  0  0  0
   -1.8416   -5.9029   -4.8384 C   0  0  0  0  0  0  0  0  0  0  0  0
   -2.0503   -4.5887   -5.2283 C   0  0  0  0  0  0  0  0  0  0  0  0
   -1.1187   -3.6056   -4.8924 C   0  0  0  0  0  0  0  0  0  0  0  0
    0.0290   -3.8953   -4.1340 C   0  0  0  0  0  0  0  0  0  0  0  0
    0.9933   -2.8879   -3.8443 N   0  0  0  0  0  0  0  0  0  0  0  0
    0.7540   -1.5215   -3.9457 C   0  0  0  0  0  0  0  0  0  0  0  0
   -0.3496   -1.0069   -4.1235 O   0  0  0  0  0  0  0  0  0  0  0  0
    1.8925   -0.5750   -3.7796 C   0  0  0  0  0  0  0  0  0  0  0  0
    3.2109   -0.8677   -4.1497 C   0  0  0  0  0  0  0  0  0  0  0  0
    4.1864    0.1376   -4.0747 C   0  0  0  0  0  0  0  0  0  0  0  0
    3.8450    1.4167   -3.6343 C   0  0  0  0  0  0  0  0  0  0  0  0
    4.7809    2.3732   -3.5858 F   0  0  0  0  0  0  0  0  0  0  0  0
    2.5447    1.7188   -3.2624 C   0  0  0  0  0  0  0  0  0  0  0  0
    1.5712    0.7243   -3.3386 C   0  0  0  0  0  0  0  0  0  0  0  0
    5.0176   -7.0598   -5.6168 C   0  0  0  0  0  0  0  0  0  0  0  0
    4.3791   -8.1490   -6.0686 F   0  0  0  0  0  0  0  0  0  0  0  0
    7.3351   -9.1677   -8.0264 H   0  0  0  0  0  0  0  0  0  0  0  0
    5.7183   -8.4549   -8.0796 H   0  0  0  0  0  0  0  0  0  0  0  0
    6.2689   -9.4084   -6.6416 H   0  0  0  0  0  0  0  0  0  0  0  0
    7.9646   -5.3879   -5.8065 H   0  0  0  0  0  0  0  0  0  0  0  0
    6.7054   -3.9055   -4.2493 H   0  0  0  0  0  0  0  0  0  0  0  0
    1.3308   -5.0478   -1.8928 H   0  0  0  0  0  0  0  0  0  0  0  0
    1.2342   -6.6943   -2.4617 H   0  0  0  0  0  0  0  0  0  0  0  0
   -0.5653   -7.2541   -3.7851 H   0  0  0  0  0  0  0  0  0  0  0  0
   -2.5525   -6.6732   -5.1132 H   0  0  0  0  0  0  0  0  0  0  0  0
   -2.9283   -4.3196   -5.8088 H   0  0  0  0  0  0  0  0  0  0  0  0
   -1.3148   -2.6061   -5.2690 H   0  0  0  0  0  0  0  0  0  0  0  0
    1.8857   -3.1976   -3.4764 H   0  0  0  0  0  0  0  0  0  0  0  0
    3.4858   -1.8422   -4.5426 H   0  0  0  0  0  0  0  0  0  0  0  0
    5.2106   -0.0543   -4.3804 H   0  0  0  0  0  0  0  0  0  0  0  0
    2.2855    2.7218   -2.9387 H   0  0  0  0  0  0  0  0  0  0  0  0
    0.5423    0.9715   -3.0769 H   0  0  0  0  0  0  0  0  0  0  0  0
  1  2  1  0  0  0  0
  1 30  1  0  0  0  0
  1 31  1  0  0  0  0
  1 32  1  0  0  0  0
  2  3  1  0  0  0  0
  3  4  2  0  0  0  0
  3 28  1  0  0  0  0
  4  5  1  0  0  0  0
  4 33  1  0  0  0  0
  5  6  2  0  0  0  0
  5 34  1  0  0  0  0
  6  7  1  0  0  0  0
  7  8  1  0  0  0  0
  7 28  2  0  0  0  0
  8  9  2  0  0  0  0
  8 10  1  0  0  0  0
 10 11  1  0  0  0  0
 11 12  1  0  0  0  0
 11 35  1  0  0  0  0
 11 36  1  0  0  0  0
 12 13  2  0  0  0  0
 12 17  1  0  0  0  0
 13 14  1  0  0  0  0
 13 37  1  0  0  0  0
 14 15  2  0  0  0  0
 14 38  1  0  0  0  0
 15 16  1  0  0  0  0
 15 39  1  0  0  0  0
 16 17  2  0  0  0  0
 16 40  1  0  0  0  0
 17 18  1  0  0  0  0
 18 19  1  0  0  0  0
 18 41  1  0  0  0  0
 19 20  2  0  0  0  0
 19 21  1  0  0  0  0
 21 22  2  0  0  0  0
 21 27  1  0  0  0  0
 22 23  1  0  0  0  0
 22 42  1  0  0  0  0
 23 24  2  0  0  0  0
 23 43  1  0  0  0  0
 24 25  1  0  0  0  0
 24 26  1  0  0  0  0
 26 27  2  0  0  0  0
 26 44  1  0  0  0  0
 27 45  1  0  0  0  0
 28 29  1  0  0  0  0
M  END
$$$$
