
 OpenBabel01122422483D

 53 56  0  0  0  0  0  0  0  0999 V2000
    2.0936    0.7545   -0.0451 C   0  0  0  0  0  0  0  0  0  0  0  0
    2.9600   -0.3712   -0.3956 N   0  0  0  0  0  0  0  0  0  0  0  0
    3.5006   -1.1371    0.7163 C   0  0  0  0  0  0  0  0  0  0  0  0
    2.5229   -2.0613    1.4102 C   0  0  0  0  0  0  0  0  0  0  0  0
    1.7665   -1.6441    2.5180 C   0  0  0  0  0  0  0  0  0  0  0  0
    0.9913   -2.5562    3.2436 C   0  0  0  0  0  0  0  0  0  0  0  0
    0.9505   -3.8965    2.8643 C   0  0  0  0  0  0  0  0  0  0  0  0
    1.6616   -4.3073    1.7400 C   0  0  0  0  0  0  0  0  0  0  0  0
    1.6742   -5.6519    1.3190 N   0  0  0  0  0  0  0  0  0  0  0  0
    0.2839   -6.4474    0.8307 S   0  0  0  0  0  0  0  0  0  0  0  0
    0.7737   -7.6428    0.1624 O   0  0  0  0  0  0  0  0  0  0  0  0
   -0.6316   -6.5362    1.9358 O   0  0  0  0  0  0  0  0  0  0  0  0
   -0.4769   -5.4305   -0.4203 C   0  0  0  0  0  0  0  0  0  0  0  0
   -0.3675   -5.8035   -1.7580 C   0  0  0  0  0  0  0  0  0  0  0  0
   -1.2279   -5.2357   -2.6996 C   0  0  0  0  0  0  0  0  0  0  0  0
   -2.0794   -4.1903   -2.3460 C   0  0  0  0  0  0  0  0  0  0  0  0
   -2.1498   -3.7785   -1.0206 C   0  0  0  0  0  0  0  0  0  0  0  0
   -1.3896   -4.4343   -0.0474 C   0  0  0  0  0  0  0  0  0  0  0  0
    2.4365   -3.4010    1.0159 C   0  0  0  0  0  0  0  0  0  0  0  0
    3.6190   -0.2385   -1.6338 C   0  0  0  0  0  0  0  0  0  0  0  0
    3.4403    0.7852   -2.3096 O   0  0  0  0  0  0  0  0  0  0  0  0
    4.4002   -1.3374   -2.3163 C   0  0  0  0  0  0  0  0  0  0  0  0
    4.7834   -2.4774   -1.7053 N   0  0  0  0  0  0  0  0  0  0  0  0
    4.4954   -3.7021   -2.3326 N   0  0  0  0  0  0  0  0  0  0  0  0
    3.4524   -3.7453   -3.2077 C   0  0  0  0  0  0  0  0  0  0  0  0
    2.6969   -4.7961   -3.7239 C   0  0  0  0  0  0  0  0  0  0  0  0
    1.4070   -4.5314   -4.1851 C   0  0  0  0  0  0  0  0  0  0  0  0
    0.8254   -3.2935   -3.8786 C   0  0  0  0  0  0  0  0  0  0  0  0
    1.6282   -2.2661   -3.4656 C   0  0  0  0  0  0  0  0  0  0  0  0
    2.9862   -2.4975   -3.5681 C   0  0  0  0  0  0  0  0  0  0  0  0
    3.9361   -1.4951   -3.5950 C   0  0  0  0  0  0  0  0  0  0  0  0
    4.8897   -1.6602   -4.6895 N   0  0  0  0  0  0  0  0  0  0  0  0
    1.4460    0.5169    0.8007 H   0  0  0  0  0  0  0  0  0  0  0  0
    1.4517    1.0233   -0.8923 H   0  0  0  0  0  0  0  0  0  0  0  0
    2.7198    1.6186    0.2030 H   0  0  0  0  0  0  0  0  0  0  0  0
    3.8882   -0.4124    1.4426 H   0  0  0  0  0  0  0  0  0  0  0  0
    4.3747   -1.7081    0.4109 H   0  0  0  0  0  0  0  0  0  0  0  0
    1.8023   -0.6095    2.8521 H   0  0  0  0  0  0  0  0  0  0  0  0
    0.4450   -2.2264    4.1248 H   0  0  0  0  0  0  0  0  0  0  0  0
    0.3906   -4.6102    3.4658 H   0  0  0  0  0  0  0  0  0  0  0  0
    2.5492   -6.0789    1.0194 H   0  0  0  0  0  0  0  0  0  0  0  0
    0.3685   -6.5405   -2.0737 H   0  0  0  0  0  0  0  0  0  0  0  0
   -1.1843   -5.5532   -3.7389 H   0  0  0  0  0  0  0  0  0  0  0  0
   -2.6582   -3.6831   -3.1148 H   0  0  0  0  0  0  0  0  0  0  0  0
   -2.8229   -2.9711   -0.7445 H   0  0  0  0  0  0  0  0  0  0  0  0
   -1.5350   -4.1818    0.9987 H   0  0  0  0  0  0  0  0  0  0  0  0
    3.0095   -3.7510    0.1610 H   0  0  0  0  0  0  0  0  0  0  0  0
    3.0479   -5.8209   -3.6674 H   0  0  0  0  0  0  0  0  0  0  0  0
    0.8031   -5.3206   -4.6223 H   0  0  0  0  0  0  0  0  0  0  0  0
   -0.2389   -3.1160   -3.9268 H   0  0  0  0  0  0  0  0  0  0  0  0
    1.2289   -1.3207   -3.1015 H   0  0  0  0  0  0  0  0  0  0  0  0
    5.3659   -2.5839   -4.6020 H   0  0  0  0  0  0  0  0  0  0  0  0
    5.5637   -0.9318   -4.7138 H   0  0  0  0  0  0  0  0  0  0  0  0
  1  2  1  0  0  0  0
  1 33  1  0  0  0  0
  1 34  1  0  0  0  0
  1 35  1  0  0  0  0
  2  3  1  0  0  0  0
  2 20  1  0  0  0  0
  3  4  1  0  0  0  0
  3 36  1  0  0  0  0
  3 37  1  0  0  0  0
  4  5  2  0  0  0  0
  4 19  1  0  0  0  0
  5  6  1  0  0  0  0
  5 38  1  0  0  0  0
  6  7  2  0  0  0  0
  6 39  1  0  0  0  0
  7  8  1  0  0  0  0
  7 40  1  0  0  0  0
  8  9  1  0  0  0  0
  8 19  2  0  0  0  0
  9 10  1  0  0  0  0
  9 41  1  0  0  0  0
 10 11  2  0  0  0  0
 10 12  2  0  0  0  0
 10 13  1  0  0  0  0
 13 14  2  0  0  0  0
 13 18  1  0  0  0  0
 14 15  1  0  0  0  0
 14 42  1  0  0  0  0
 15 16  2  0  0  0  0
 15 43  1  0  0  0  0
 16 17  1  0  0  0  0
 16 44  1  0  0  0  0
 17 18  2  0  0  0  0
 17 45  1  0  0  0  0
 18 46  1  0  0  0  0
 19 47  1  0  0  0  0
 20 21  2  0  0  0  0
 20 22  1  0  0  0  0
 22 23  2  0  0  0  0
 22 31  1  0  0  0  0
 23 24  1  0  0  0  0
 24 25  2  0  0  0  0
 25 26  1  0  0  0  0
 25 30  1  0  0  0  0
 26 27  2  0  0  0  0
 26 48  1  0  0  0  0
 27 28  1  0  0  0  0
 27 49  1  0  0  0  0
 28 29  2  0  0  0  0
 28 50  1  0  0  0  0
 29 30  1  0  0  0  0
 29 51  1  0  0  0  0
 30 31  2  0  0  0  0
 31 32  1  0  0  0  0
 32 52  1  0  0  0  0
 32 53  1  0  0  0  0
M  END
$$$$
