
 OpenBabel01122422483D

 46 49  0  0  1  0  0  0  0  0999 V2000
    1.0595   -0.1063   -0.0162 C   0  0  0  0  0  0  0  0  0  0  0  0
    2.5932   -0.0178    0.0555 C   0  0  3  0  0  0  0  0  0  0  0  0
    3.1572    0.5931   -1.1337 N   0  0  0  0  0  0  0  0  0  0  0  0
    3.0017    0.0893   -2.4089 C   0  0  0  0  0  0  0  0  0  0  0  0
    2.5160   -0.9939   -2.6771 O   0  0  0  0  0  0  0  0  0  0  0  0
    3.5157    1.0108   -3.5116 C   0  0  0  0  0  0  0  0  0  0  0  0
    4.5600    1.7489   -3.2245 N   0  0  0  0  0  0  0  0  0  0  0  0
    5.0771    2.5637   -4.2077 N   0  0  0  0  0  0  0  0  0  0  0  0
    6.3089    3.2162   -3.8720 C   0  0  0  0  0  0  0  0  0  0  0  0
    6.6164    3.5168   -2.5301 C   0  0  0  0  0  0  0  0  0  0  0  0
    7.8067    4.1696   -2.1804 C   0  0  0  0  0  0  0  0  0  0  0  0
    8.7255    4.5288   -3.1626 C   0  0  0  0  0  0  0  0  0  0  0  0
    8.4577    4.2271   -4.4944 C   0  0  0  0  0  0  0  0  0  0  0  0
    7.2700    3.5798   -4.8365 C   0  0  0  0  0  0  0  0  0  0  0  0
    7.0985    3.2771   -6.1334 F   0  0  0  0  0  0  0  0  0  0  0  0
    4.4778    2.6900   -5.4470 C   0  0  0  0  0  0  0  0  0  0  0  0
    3.4038    2.0046   -5.8556 C   0  0  0  0  0  0  0  0  0  0  0  0
    2.8405    1.0799   -4.8716 C   0  0  0  0  0  0  0  0  0  0  0  0
    1.8402    0.4291   -5.1387 O   0  0  0  0  0  0  0  0  0  0  0  0
    2.9734    0.7173    1.3439 C   0  0  0  0  0  0  0  0  0  0  0  0
    3.0939   -0.0413    2.5286 C   0  0  0  0  0  0  0  0  0  0  0  0
    3.2892    0.5790    3.7582 C   0  0  0  0  0  0  0  0  0  0  0  0
    3.2781    1.9655    3.8322 C   0  0  0  0  0  0  0  0  0  0  0  0
    3.1040    2.7334    2.6714 C   0  0  0  0  0  0  0  0  0  0  0  0
    2.9422    4.1227    2.7518 C   0  0  0  0  0  0  0  0  0  0  0  0
    2.8048    4.8745    1.5939 C   0  0  0  0  0  0  0  0  0  0  0  0
    2.9016    4.2158    0.3879 C   0  0  0  0  0  0  0  0  0  0  0  0
    2.9969    2.8732    0.2746 N   0  0  0  0  0  0  0  0  0  0  0  0
    3.0382    2.1213    1.3999 C   0  0  0  0  0  0  0  0  0  0  0  0
    0.7260   -0.6810   -0.8858 H   0  0  0  0  0  0  0  0  0  0  0  0
    0.6027    0.8881   -0.0874 H   0  0  0  0  0  0  0  0  0  0  0  0
    0.6479   -0.5982    0.8732 H   0  0  0  0  0  0  0  0  0  0  0  0
    2.9970   -1.0383    0.0914 H   0  0  0  0  0  0  0  0  0  0  0  0
    3.5433    1.5319   -1.0341 H   0  0  0  0  0  0  0  0  0  0  0  0
    5.9153    3.2565   -1.7394 H   0  0  0  0  0  0  0  0  0  0  0  0
    8.0126    4.3934   -1.1363 H   0  0  0  0  0  0  0  0  0  0  0  0
    9.6507    5.0308   -2.8943 H   0  0  0  0  0  0  0  0  0  0  0  0
    9.1680    4.4797   -5.2751 H   0  0  0  0  0  0  0  0  0  0  0  0
    4.9170    3.4248   -6.1126 H   0  0  0  0  0  0  0  0  0  0  0  0
    2.9437    2.1137   -6.8183 H   0  0  0  0  0  0  0  0  0  0  0  0
    3.0045   -1.1262    2.4958 H   0  0  0  0  0  0  0  0  0  0  0  0
    3.4013   -0.0146    4.6625 H   0  0  0  0  0  0  0  0  0  0  0  0
    3.3914    2.4464    4.8015 H   0  0  0  0  0  0  0  0  0  0  0  0
    2.8850    4.6186    3.7177 H   0  0  0  0  0  0  0  0  0  0  0  0
    2.6318    5.9433    1.6332 H   0  0  0  0  0  0  0  0  0  0  0  0
    2.8868    4.7600   -0.5521 H   0  0  0  0  0  0  0  0  0  0  0  0
  1  2  1  0  0  0  0
  1 30  1  0  0  0  0
  1 31  1  0  0  0  0
  1 32  1  0  0  0  0
  2  3  1  0  0  0  0
  2 20  1  0  0  0  0
  2 33  1  0  0  0  0
  3  4  1  0  0  0  0
  3 34  1  0  0  0  0
  4  5  2  0  0  0  0
  4  6  1  0  0  0  0
  6  7  2  0  0  0  0
  6 18  1  0  0  0  0
  7  8  1  0  0  0  0
  8  9  1  0  0  0  0
  8 16  1  0  0  0  0
  9 10  2  0  0  0  0
  9 14  1  0  0  0  0
 10 11  1  0  0  0  0
 10 35  1  0  0  0  0
 11 12  2  0  0  0  0
 11 36  1  0  0  0  0
 12 13  1  0  0  0  0
 12 37  1  0  0  0  0
 13 14  2  0  0  0  0
 13 38  1  0  0  0  0
 14 15  1  0  0  0  0
 16 17  2  0  0  0  0
 16 39  1  0  0  0  0
 17 18  1  0  0  0  0
 17 40  1  0  0  0  0
 18 19  2  0  0  0  0
 20 21  2  0  0  0  0
 20 29  1  0  0  0  0
 21 22  1  0  0  0  0
 21 41  1  0  0  0  0
 22 23  2  0  0  0  0
 22 42  1  0  0  0  0
 23 24  1  0  0  0  0
 23 43  1  0  0  0  0
 24 25  2  0  0  0  0
 24 29  1  0  0  0  0
 25 26  1  0  0  0  0
 25 44  1  0  0  0  0
 26 27  2  0  0  0  0
 26 45  1  0  0  0  0
 27 28  1  0  0  0  0
 27 46  1  0  0  0  0
 28 29  2  0  0  0  0
M  END
$$$$
