
 OpenBabel01122422483D

 45 48  0  0  0  0  0  0  0  0999 V2000
    2.7971    2.1570    4.1963 O   0  0  0  0  0  0  0  0  0  0  0  0
    3.4549    2.8653    3.4539 C   0  0  0  0  0  0  0  0  0  0  0  0
    4.1157    3.9637    3.8744 O   0  0  0  0  0  0  0  0  0  0  0  0
    3.5819    2.6092    1.9969 C   0  0  0  0  0  0  0  0  0  0  0  0
    2.5152    1.9905    1.3467 C   0  0  0  0  0  0  0  0  0  0  0  0
    2.6367    1.6487    0.0064 C   0  0  0  0  0  0  0  0  0  0  0  0
    3.8297    1.9064   -0.6774 C   0  0  0  0  0  0  0  0  0  0  0  0
    4.9153    2.5642   -0.0740 C   0  0  0  0  0  0  0  0  0  0  0  0
    6.2050    2.7985   -0.7932 C   0  0  0  0  0  0  0  0  0  0  0  0
    7.4125    2.6337   -0.0616 C   0  0  0  0  0  0  0  0  0  0  0  0
    8.6760    2.7376   -0.6466 C   0  0  0  0  0  0  0  0  0  0  0  0
    8.7799    2.9777   -2.0032 C   0  0  0  0  0  0  0  0  0  0  0  0
    7.6226    3.1742   -2.7523 C   0  0  0  0  0  0  0  0  0  0  0  0
    6.3289    3.1322   -2.1709 C   0  0  0  0  0  0  0  0  0  0  0  0
    5.1811    3.4222   -3.1220 C   0  0  0  0  0  0  0  0  0  0  0  0
    4.3129    4.4987   -2.7156 N   0  0  0  0  0  0  0  0  0  0  0  0
    3.2598    4.9149   -3.5117 C   0  0  0  0  0  0  0  0  0  0  0  0
    2.9720    4.3353   -4.5560 O   0  0  0  0  0  0  0  0  0  0  0  0
    2.5633    6.0888   -3.0020 C   0  0  0  0  0  0  0  0  0  0  0  0
    2.9427    6.7135   -1.8899 N   0  0  0  0  0  0  0  0  0  0  0  0
    2.0920    7.7823   -1.7477 C   0  0  0  0  0  0  0  0  0  0  0  0
    1.1793    7.8134   -2.7691 C   0  0  0  0  0  0  0  0  0  0  0  0
    0.1008    8.6474   -3.1448 C   0  0  0  0  0  0  0  0  0  0  0  0
   -0.1896    9.7207   -2.3811 F   0  0  0  0  0  0  0  0  0  0  0  0
   -0.6227    8.3735   -4.2448 C   0  0  0  0  0  0  0  0  0  0  0  0
   -0.3123    7.2193   -5.0723 C   0  0  0  0  0  0  0  0  0  0  0  0
    0.7182    6.4265   -4.7250 C   0  0  0  0  0  0  0  0  0  0  0  0
    1.4676    6.7195   -3.5776 N   0  0  0  0  0  0  0  0  0  0  0  0
    4.7626    2.8999    1.2900 C   0  0  0  0  0  0  0  0  0  0  0  0
    4.4367    4.5466    3.1624 H   0  0  0  0  0  0  0  0  0  0  0  0
    1.6020    1.7500    1.8875 H   0  0  0  0  0  0  0  0  0  0  0  0
    1.8179    1.1495   -0.5065 H   0  0  0  0  0  0  0  0  0  0  0  0
    3.8985    1.5328   -1.6933 H   0  0  0  0  0  0  0  0  0  0  0  0
    7.3922    2.3829    0.9978 H   0  0  0  0  0  0  0  0  0  0  0  0
    9.5699    2.6022   -0.0427 H   0  0  0  0  0  0  0  0  0  0  0  0
    9.7558    3.0126   -2.4802 H   0  0  0  0  0  0  0  0  0  0  0  0
    7.7375    3.3604   -3.8198 H   0  0  0  0  0  0  0  0  0  0  0  0
    4.5921    2.5231   -3.3204 H   0  0  0  0  0  0  0  0  0  0  0  0
    5.5754    3.7122   -4.1049 H   0  0  0  0  0  0  0  0  0  0  0  0
    4.5006    5.0389   -1.8768 H   0  0  0  0  0  0  0  0  0  0  0  0
    2.1828    8.4719   -0.9199 H   0  0  0  0  0  0  0  0  0  0  0  0
   -1.4486    9.0142   -4.5325 H   0  0  0  0  0  0  0  0  0  0  0  0
   -0.9190    7.0262   -5.9512 H   0  0  0  0  0  0  0  0  0  0  0  0
    0.9959    5.5544   -5.3048 H   0  0  0  0  0  0  0  0  0  0  0  0
    5.5974    3.3438    1.8270 H   0  0  0  0  0  0  0  0  0  0  0  0
  1  2  2  0  0  0  0
  2  3  1  0  0  0  0
  2  4  1  0  0  0  0
  3 30  1  0  0  0  0
  4  5  2  0  0  0  0
  4 29  1  0  0  0  0
  5  6  1  0  0  0  0
  5 31  1  0  0  0  0
  6  7  2  0  0  0  0
  6 32  1  0  0  0  0
  7  8  1  0  0  0  0
  7 33  1  0  0  0  0
  8  9  1  0  0  0  0
  8 29  2  0  0  0  0
  9 10  2  0  0  0  0
  9 14  1  0  0  0  0
 10 11  1  0  0  0  0
 10 34  1  0  0  0  0
 11 12  2  0  0  0  0
 11 35  1  0  0  0  0
 12 13  1  0  0  0  0
 12 36  1  0  0  0  0
 13 14  2  0  0  0  0
 13 37  1  0  0  0  0
 14 15  1  0  0  0  0
 15 16  1  0  0  0  0
 15 38  1  0  0  0  0
 15 39  1  0  0  0  0
 16 17  1  0  0  0  0
 16 40  1  0  0  0  0
 17 18  2  0  0  0  0
 17 19  1  0  0  0  0
 19 20  2  0  0  0  0
 19 28  1  0  0  0  0
 20 21  1  0  0  0  0
 21 22  2  0  0  0  0
 21 41  1  0  0  0  0
 22 23  1  0  0  0  0
 22 28  1  0  0  0  0
 23 24  1  0  0  0  0
 23 25  2  0  0  0  0
 25 26  1  0  0  0  0
 25 42  1  0  0  0  0
 26 27  2  0  0  0  0
 26 43  1  0  0  0  0
 27 28  1  0  0  0  0
 27 44  1  0  0  0  0
 29 45  1  0  0  0  0
M  END
$$$$
