
 OpenBabel01122422483D

 47 50  0  0  0  0  0  0  0  0999 V2000
    0.4413   -0.0938   -0.6678 O   0  0  0  0  0  0  0  0  0  0  0  0
    0.2798   -0.2816   -1.8713 C   0  0  0  0  0  0  0  0  0  0  0  0
    1.1785   -1.0247   -2.6013 N   0  0  0  0  0  0  0  0  0  0  0  0
    2.3629   -1.5165   -1.9254 C   0  0  0  0  0  0  0  0  0  0  0  0
    3.2676   -2.2773   -2.8500 C   0  0  0  0  0  0  0  0  0  0  0  0
    4.2518   -1.5822   -3.5490 C   0  0  0  0  0  0  0  0  0  0  0  0
    5.1261   -2.2545   -4.3985 C   0  0  0  0  0  0  0  0  0  0  0  0
    5.0468   -3.6364   -4.5841 C   0  0  0  0  0  0  0  0  0  0  0  0
    5.9322   -4.3541   -5.4339 N   0  0  0  0  0  0  0  0  0  0  0  0
    6.9665   -3.7802   -6.1640 C   0  0  0  0  0  0  0  0  0  0  0  0
    7.2746   -2.5920   -6.1789 O   0  0  0  0  0  0  0  0  0  0  0  0
    7.7950   -4.6614   -7.0087 C   0  0  0  0  0  0  0  0  0  0  0  0
    7.3477   -5.8387   -7.6047 C   0  0  0  0  0  0  0  0  0  0  0  0
    8.1990   -6.5172   -8.4790 C   0  0  0  0  0  0  0  0  0  0  0  0
    9.4670   -6.0027   -8.7151 C   0  0  0  0  0  0  0  0  0  0  0  0
    9.9340   -4.8748   -8.1415 N   0  0  0  0  0  0  0  0  0  0  0  0
    9.0826   -4.2236   -7.3142 C   0  0  0  0  0  0  0  0  0  0  0  0
    4.0457   -4.3375   -3.9004 C   0  0  0  0  0  0  0  0  0  0  0  0
    3.1577   -3.6607   -3.0445 C   0  0  0  0  0  0  0  0  0  0  0  0
   -0.9368    0.2826   -2.5420 C   0  0  0  0  0  0  0  0  0  0  0  0
   -1.7639    1.0445   -1.6880 C   0  0  0  0  0  0  0  0  0  0  0  0
   -3.0500    1.4126   -2.0662 C   0  0  0  0  0  0  0  0  0  0  0  0
   -3.4652    1.1077   -3.3413 C   0  0  0  0  0  0  0  0  0  0  0  0
   -4.8412    1.2923   -3.7779 C   0  0  0  0  0  0  0  0  0  0  0  0
   -5.1420    1.6441   -4.9836 N   0  0  0  0  0  0  0  0  0  0  0  0
   -4.0814    1.6755   -5.8644 N   0  0  0  0  0  0  0  0  0  0  0  0
   -2.9756    0.8566   -5.6921 C   0  0  0  0  0  0  0  0  0  0  0  0
   -2.2920    0.4422   -6.6326 O   0  0  0  0  0  0  0  0  0  0  0  0
   -2.5719    0.6092   -4.2891 C   0  0  0  0  0  0  0  0  0  0  0  0
   -1.3247    0.0992   -3.8824 C   0  0  0  0  0  0  0  0  0  0  0  0
    1.1771   -0.9999   -3.6080 H   0  0  0  0  0  0  0  0  0  0  0  0
    2.0702   -2.1362   -1.0674 H   0  0  0  0  0  0  0  0  0  0  0  0
    2.8975   -0.6521   -1.5077 H   0  0  0  0  0  0  0  0  0  0  0  0
    4.3634   -0.5061   -3.4323 H   0  0  0  0  0  0  0  0  0  0  0  0
    5.8724   -1.6442   -4.8923 H   0  0  0  0  0  0  0  0  0  0  0  0
    5.8180   -5.3519   -5.4556 H   0  0  0  0  0  0  0  0  0  0  0  0
    6.3405   -6.2098   -7.4506 H   0  0  0  0  0  0  0  0  0  0  0  0
    7.8764   -7.4170   -8.9902 H   0  0  0  0  0  0  0  0  0  0  0  0
   10.1552   -6.4869   -9.4010 H   0  0  0  0  0  0  0  0  0  0  0  0
    9.4764   -3.2961   -6.9018 H   0  0  0  0  0  0  0  0  0  0  0  0
    3.9354   -5.4127   -4.0156 H   0  0  0  0  0  0  0  0  0  0  0  0
    2.3857   -4.2230   -2.5211 H   0  0  0  0  0  0  0  0  0  0  0  0
   -1.4126    1.3217   -0.6941 H   0  0  0  0  0  0  0  0  0  0  0  0
   -3.6873    1.9610   -1.3795 H   0  0  0  0  0  0  0  0  0  0  0  0
   -5.6467    1.0765   -3.0536 H   0  0  0  0  0  0  0  0  0  0  0  0
   -4.3133    1.9796   -6.8004 H   0  0  0  0  0  0  0  0  0  0  0  0
   -0.7017   -0.4130   -4.6047 H   0  0  0  0  0  0  0  0  0  0  0  0
  1  2  2  0  0  0  0
  2  3  1  0  0  0  0
  2 20  1  0  0  0  0
  3  4  1  0  0  0  0
  3 31  1  0  0  0  0
  4  5  1  0  0  0  0
  4 32  1  0  0  0  0
  4 33  1  0  0  0  0
  5  6  2  0  0  0  0
  5 19  1  0  0  0  0
  6  7  1  0  0  0  0
  6 34  1  0  0  0  0
  7  8  2  0  0  0  0
  7 35  1  0  0  0  0
  8  9  1  0  0  0  0
  8 18  1  0  0  0  0
  9 10  1  0  0  0  0
  9 36  1  0  0  0  0
 10 11  2  0  0  0  0
 10 12  1  0  0  0  0
 12 13  2  0  0  0  0
 12 17  1  0  0  0  0
 13 14  1  0  0  0  0
 13 37  1  0  0  0  0
 14 15  2  0  0  0  0
 14 38  1  0  0  0  0
 15 16  1  0  0  0  0
 15 39  1  0  0  0  0
 16 17  2  0  0  0  0
 17 40  1  0  0  0  0
 18 19  2  0  0  0  0
 18 41  1  0  0  0  0
 19 42  1  0  0  0  0
 20 21  2  0  0  0  0
 20 30  1  0  0  0  0
 21 22  1  0  0  0  0
 21 43  1  0  0  0  0
 22 23  2  0  0  0  0
 22 44  1  0  0  0  0
 23 24  1  0  0  0  0
 23 29  1  0  0  0  0
 24 25  2  0  0  0  0
 24 45  1  0  0  0  0
 25 26  1  0  0  0  0
 26 27  1  0  0  0  0
 26 46  1  0  0  0  0
 27 28  2  0  0  0  0
 27 29  1  0  0  0  0
 29 30  2  0  0  0  0
 30 47  1  0  0  0  0
M  END
$$$$
