
 OpenBabel01122422483D

 53 56  0  0  0  0  0  0  0  0999 V2000
    1.0770    0.1315   -0.2667 O   0  0  0  0  0  0  0  0  0  0  0  0
    2.1284    0.6389   -0.6349 C   0  0  0  0  0  0  0  0  0  0  0  0
    2.8719    1.5029    0.1319 N   0  0  0  0  0  0  0  0  0  0  0  0
    2.3506    1.8962    1.4211 C   0  0  0  0  0  0  0  0  0  0  0  0
    3.2417    2.8697    2.1512 C   0  0  0  0  0  0  0  0  0  0  0  0
    3.0903    4.2514    1.9624 C   0  0  0  0  0  0  0  0  0  0  0  0
    3.8574    5.1585    2.6972 C   0  0  0  0  0  0  0  0  0  0  0  0
    4.7896    4.6985    3.6293 C   0  0  0  0  0  0  0  0  0  0  0  0
    4.9697    3.3234    3.8223 C   0  0  0  0  0  0  0  0  0  0  0  0
    5.9191    2.7807    4.8370 C   0  0  0  0  0  0  0  0  0  0  0  0
    6.1209    1.5863    4.9880 O   0  0  0  0  0  0  0  0  0  0  0  0
    6.4611    3.7828    5.5706 O   0  0  0  0  0  0  0  0  0  0  0  0
    7.2937    3.3865    6.6652 C   0  0  0  0  0  0  0  0  0  0  0  0
    8.6796    3.9514    6.4815 C   0  0  0  0  0  0  0  0  0  0  0  0
    9.0220    5.2057    7.0051 C   0  0  0  0  0  0  0  0  0  0  0  0
   10.3166    5.7082    6.8539 C   0  0  0  0  0  0  0  0  0  0  0  0
   11.2775    4.9659    6.1694 C   0  0  0  0  0  0  0  0  0  0  0  0
   10.9422    3.7273    5.6255 C   0  0  0  0  0  0  0  0  0  0  0  0
    9.6485    3.2237    5.7763 C   0  0  0  0  0  0  0  0  0  0  0  0
    4.2039    2.4158    3.0692 C   0  0  0  0  0  0  0  0  0  0  0  0
    2.6885    0.4284   -1.8647 N   0  0  0  0  0  0  0  0  0  0  0  0
    2.0850   -0.4977   -2.8069 C   0  0  0  0  0  0  0  0  0  0  0  0
    2.5515   -1.9313   -2.6273 C   0  0  0  0  0  0  0  0  0  0  0  0
    1.8035   -2.7980   -1.8232 C   0  0  0  0  0  0  0  0  0  0  0  0
    2.1860   -4.1356   -1.6950 C   0  0  0  0  0  0  0  0  0  0  0  0
    3.3320   -4.5487   -2.3878 C   0  0  0  0  0  0  0  0  0  0  0  0
    4.0401   -5.7715   -2.5448 C   0  0  0  0  0  0  0  0  0  0  0  0
    5.1173   -5.5264   -3.3720 C   0  0  0  0  0  0  0  0  0  0  0  0
    5.0841   -4.1989   -3.7175 N   0  0  0  0  0  0  0  0  0  0  0  0
    4.0045   -3.5887   -3.1354 C   0  0  0  0  0  0  0  0  0  0  0  0
    3.6840   -2.2901   -3.2921 N   0  0  0  0  0  0  0  0  0  0  0  0
    3.4110    2.1853   -0.3790 H   0  0  0  0  0  0  0  0  0  0  0  0
    2.1985    0.9927    2.0238 H   0  0  0  0  0  0  0  0  0  0  0  0
    1.3578    2.3407    1.2745 H   0  0  0  0  0  0  0  0  0  0  0  0
    2.3501    4.6314    1.2601 H   0  0  0  0  0  0  0  0  0  0  0  0
    3.7146    6.2280    2.5588 H   0  0  0  0  0  0  0  0  0  0  0  0
    5.3605    5.4239    4.2040 H   0  0  0  0  0  0  0  0  0  0  0  0
    7.3480    2.3005    6.8107 H   0  0  0  0  0  0  0  0  0  0  0  0
    6.8489    3.7932    7.5821 H   0  0  0  0  0  0  0  0  0  0  0  0
    8.2841    5.7970    7.5434 H   0  0  0  0  0  0  0  0  0  0  0  0
   10.5771    6.6763    7.2739 H   0  0  0  0  0  0  0  0  0  0  0  0
   12.2870    5.3528    6.0581 H   0  0  0  0  0  0  0  0  0  0  0  0
   11.6891    3.1488    5.0881 H   0  0  0  0  0  0  0  0  0  0  0  0
    9.3999    2.2538    5.3495 H   0  0  0  0  0  0  0  0  0  0  0  0
    4.3355    1.3449    3.2236 H   0  0  0  0  0  0  0  0  0  0  0  0
    3.6903    0.5299   -1.9267 H   0  0  0  0  0  0  0  0  0  0  0  0
    2.3657   -0.1581   -3.8102 H   0  0  0  0  0  0  0  0  0  0  0  0
    0.9919   -0.4422   -2.7415 H   0  0  0  0  0  0  0  0  0  0  0  0
    0.9188   -2.4393   -1.3024 H   0  0  0  0  0  0  0  0  0  0  0  0
    1.6120   -4.8264   -1.0871 H   0  0  0  0  0  0  0  0  0  0  0  0
    3.7889   -6.7267   -2.1027 H   0  0  0  0  0  0  0  0  0  0  0  0
    5.8976   -6.1773   -3.7414 H   0  0  0  0  0  0  0  0  0  0  0  0
    5.7372   -3.7182   -4.3178 H   0  0  0  0  0  0  0  0  0  0  0  0
  1  2  2  0  0  0  0
  2  3  1  0  0  0  0
  2 21  1  0  0  0  0
  3  4  1  0  0  0  0
  3 32  1  0  0  0  0
  4  5  1  0  0  0  0
  4 33  1  0  0  0  0
  4 34  1  0  0  0  0
  5  6  2  0  0  0  0
  5 20  1  0  0  0  0
  6  7  1  0  0  0  0
  6 35  1  0  0  0  0
  7  8  2  0  0  0  0
  7 36  1  0  0  0  0
  8  9  1  0  0  0  0
  8 37  1  0  0  0  0
  9 10  1  0  0  0  0
  9 20  2  0  0  0  0
 10 11  2  0  0  0  0
 10 12  1  0  0  0  0
 12 13  1  0  0  0  0
 13 14  1  0  0  0  0
 13 38  1  0  0  0  0
 13 39  1  0  0  0  0
 14 15  2  0  0  0  0
 14 19  1  0  0  0  0
 15 16  1  0  0  0  0
 15 40  1  0  0  0  0
 16 17  2  0  0  0  0
 16 41  1  0  0  0  0
 17 18  1  0  0  0  0
 17 42  1  0  0  0  0
 18 19  2  0  0  0  0
 18 43  1  0  0  0  0
 19 44  1  0  0  0  0
 20 45  1  0  0  0  0
 21 22  1  0  0  0  0
 21 46  1  0  0  0  0
 22 23  1  0  0  0  0
 22 47  1  0  0  0  0
 22 48  1  0  0  0  0
 23 24  2  0  0  0  0
 23 31  1  0  0  0  0
 24 25  1  0  0  0  0
 24 49  1  0  0  0  0
 25 26  2  0  0  0  0
 25 50  1  0  0  0  0
 26 27  1  0  0  0  0
 26 30  1  0  0  0  0
 27 28  2  0  0  0  0
 27 51  1  0  0  0  0
 28 29  1  0  0  0  0
 28 52  1  0  0  0  0
 29 30  1  0  0  0  0
 29 53  1  0  0  0  0
 30 31  2  0  0  0  0
M  END
$$$$
