
 OpenBabel01122422483D

 49 52  0  0  0  0  0  0  0  0999 V2000
    2.2634    1.1242    0.2262 O   0  0  0  0  0  0  0  0  0  0  0  0
    3.3785    0.7464    0.5714 C   0  0  0  0  0  0  0  0  0  0  0  0
    3.6029   -0.3423    1.3750 N   0  0  0  0  0  0  0  0  0  0  0  0
    2.5344   -1.1474    1.9304 C   0  0  0  0  0  0  0  0  0  0  0  0
    2.6209   -1.2053    3.4392 C   0  0  0  0  0  0  0  0  0  0  0  0
    1.8843   -0.3086    4.2265 C   0  0  0  0  0  0  0  0  0  0  0  0
    2.0096   -0.3090    5.6217 C   0  0  0  0  0  0  0  0  0  0  0  0
    2.8790   -1.2024    6.2582 C   0  0  0  0  0  0  0  0  0  0  0  0
    3.0968   -1.1168    7.7143 C   0  0  0  0  0  0  0  0  0  0  0  0
    2.2957   -1.7997    8.5533 C   0  0  0  0  0  0  0  0  0  0  0  0
    2.4600   -1.7120    9.9170 N   0  0  0  0  0  0  0  0  0  0  0  0
    3.4211   -0.9412   10.5306 C   0  0  0  0  0  0  0  0  0  0  0  0
    3.5362   -0.8667   11.7497 O   0  0  0  0  0  0  0  0  0  0  0  0
    4.3106   -0.1853    9.6195 C   0  0  0  0  0  0  0  0  0  0  0  0
    4.1436   -0.2833    8.2933 C   0  0  0  0  0  0  0  0  0  0  0  0
    3.5918   -2.1224    5.4799 C   0  0  0  0  0  0  0  0  0  0  0  0
    3.4642   -2.1234    4.0834 C   0  0  0  0  0  0  0  0  0  0  0  0
    4.6203    1.5033    0.1953 C   0  0  0  0  0  0  0  0  0  0  0  0
    4.4989    2.4677   -0.7379 C   0  0  0  0  0  0  0  0  0  0  0  0
    5.2818    3.6323   -0.5671 N   0  0  0  0  0  0  0  0  0  0  0  0
    4.6192    4.5987    0.3296 C   0  0  0  0  0  0  0  0  0  0  0  0
    5.3239    5.2002    1.3828 C   0  0  0  0  0  0  0  0  0  0  0  0
    4.6562    5.5350    2.5652 C   0  0  0  0  0  0  0  0  0  0  0  0
    3.2802    5.3452    2.6758 C   0  0  0  0  0  0  0  0  0  0  0  0
    2.5494    4.9326    1.5695 C   0  0  0  0  0  0  0  0  0  0  0  0
    3.2075    4.6171    0.3889 C   0  0  0  0  0  0  0  0  0  0  0  0
    6.6410    3.4167   -0.2734 C   0  0  0  0  0  0  0  0  0  0  0  0
    7.5801    4.1254   -0.5916 O   0  0  0  0  0  0  0  0  0  0  0  0
    6.9001    2.1904    0.5966 C   0  0  0  0  0  0  0  0  0  0  0  0
    5.8139    1.5273    1.0480 C   0  0  0  0  0  0  0  0  0  0  0  0
    4.5513   -0.6081    1.5970 H   0  0  0  0  0  0  0  0  0  0  0  0
    2.6432   -2.1533    1.5116 H   0  0  0  0  0  0  0  0  0  0  0  0
    1.5541   -0.7716    1.6168 H   0  0  0  0  0  0  0  0  0  0  0  0
    1.2139    0.4087    3.7554 H   0  0  0  0  0  0  0  0  0  0  0  0
    1.4381    0.4090    6.2066 H   0  0  0  0  0  0  0  0  0  0  0  0
    1.4871   -2.4380    8.2108 H   0  0  0  0  0  0  0  0  0  0  0  0
    1.8436   -2.2218   10.5392 H   0  0  0  0  0  0  0  0  0  0  0  0
    5.0687    0.4364   10.0784 H   0  0  0  0  0  0  0  0  0  0  0  0
    4.7829    0.2742    7.6162 H   0  0  0  0  0  0  0  0  0  0  0  0
    4.2647   -2.8335    5.9548 H   0  0  0  0  0  0  0  0  0  0  0  0
    4.0377   -2.8430    3.5028 H   0  0  0  0  0  0  0  0  0  0  0  0
    3.6129    2.5773   -1.3550 H   0  0  0  0  0  0  0  0  0  0  0  0
    6.4071    5.2972    1.3676 H   0  0  0  0  0  0  0  0  0  0  0  0
    5.2248    5.8804    3.4251 H   0  0  0  0  0  0  0  0  0  0  0  0
    2.7771    5.5136    3.6236 H   0  0  0  0  0  0  0  0  0  0  0  0
    1.4750    4.7850    1.6377 H   0  0  0  0  0  0  0  0  0  0  0  0
    2.6094    4.2279   -0.4348 H   0  0  0  0  0  0  0  0  0  0  0  0
    7.6983    1.6122    0.1327 H   0  0  0  0  0  0  0  0  0  0  0  0
    5.4897    1.8063    2.0617 H   0  0  0  0  0  0  0  0  0  0  0  0
  1  2  2  0  0  0  0
  2  3  1  0  0  0  0
  2 18  1  0  0  0  0
  3  4  1  0  0  0  0
  3 31  1  0  0  0  0
  4  5  1  0  0  0  0
  4 32  1  0  0  0  0
  4 33  1  0  0  0  0
  5  6  2  0  0  0  0
  5 17  1  0  0  0  0
  6  7  1  0  0  0  0
  6 34  1  0  0  0  0
  7  8  2  0  0  0  0
  7 35  1  0  0  0  0
  8  9  1  0  0  0  0
  8 16  1  0  0  0  0
  9 10  2  0  0  0  0
  9 15  1  0  0  0  0
 10 11  1  0  0  0  0
 10 36  1  0  0  0  0
 11 12  1  0  0  0  0
 11 37  1  0  0  0  0
 12 13  2  0  0  0  0
 12 14  1  0  0  0  0
 14 15  2  0  0  0  0
 14 38  1  0  0  0  0
 15 39  1  0  0  0  0
 16 17  2  0  0  0  0
 16 40  1  0  0  0  0
 17 41  1  0  0  0  0
 18 19  2  0  0  0  0
 18 30  1  0  0  0  0
 19 20  1  0  0  0  0
 19 42  1  0  0  0  0
 20 21  1  0  0  0  0
 20 27  1  0  0  0  0
 21 22  2  0  0  0  0
 21 26  1  0  0  0  0
 22 23  1  0  0  0  0
 22 43  1  0  0  0  0
 23 24  2  0  0  0  0
 23 44  1  0  0  0  0
 24 25  1  0  0  0  0
 24 45  1  0  0  0  0
 25 26  2  0  0  0  0
 25 46  1  0  0  0  0
 26 47  1  0  0  0  0
 27 28  2  0  0  0  0
 27 29  1  0  0  0  0
 29 30  2  0  0  0  0
 29 48  1  0  0  0  0
 30 49  1  0  0  0  0
M  END
$$$$
