
 OpenBabel01122422483D

 42 45  0  0  0  0  0  0  0  0999 V2000
    2.2285    1.3953   -0.2285 O   0  0  0  0  0  0  0  0  0  0  0  0
    2.2643    0.1865   -0.0304 C   0  0  0  0  0  0  0  0  0  0  0  0
    1.4985   -0.7398   -0.9256 C   0  0  0  0  0  0  0  0  0  0  0  0
    1.9325   -2.0517   -1.1716 C   0  0  0  0  0  0  0  0  0  0  0  0
    1.1261   -2.9394   -1.8859 C   0  0  0  0  0  0  0  0  0  0  0  0
   -0.0958   -2.5102   -2.3980 C   0  0  0  0  0  0  0  0  0  0  0  0
   -0.5061   -1.1899   -2.2092 C   0  0  0  0  0  0  0  0  0  0  0  0
    0.2895   -0.3024   -1.4758 C   0  0  0  0  0  0  0  0  0  0  0  0
    3.0132   -0.3637    1.1312 C   0  0  0  0  0  0  0  0  0  0  0  0
    2.4992   -1.4803    1.8031 C   0  0  0  0  0  0  0  0  0  0  0  0
    3.2311   -2.1586    2.7793 C   0  0  0  0  0  0  0  0  0  0  0  0
    2.7861   -3.3798    3.3516 N   0  0  0  0  0  0  0  0  0  0  0  0
    1.6742   -4.0999    2.9282 C   0  0  0  0  0  0  0  0  0  0  0  0
    0.9715   -3.8140    1.9625 O   0  0  0  0  0  0  0  0  0  0  0  0
    1.2720   -5.3148    3.6809 C   0  0  0  0  0  0  0  0  0  0  0  0
    2.0693   -5.9221    4.6525 C   0  0  0  0  0  0  0  0  0  0  0  0
    3.2835   -5.4499    4.9720 F   0  0  0  0  0  0  0  0  0  0  0  0
    1.5630   -7.0376    5.2856 C   0  0  0  0  0  0  0  0  0  0  0  0
    0.3034   -7.5537    4.9777 C   0  0  0  0  0  0  0  0  0  0  0  0
   -0.5065   -6.9961    4.0218 C   0  0  0  0  0  0  0  0  0  0  0  0
   -0.0067   -5.8657    3.3727 C   0  0  0  0  0  0  0  0  0  0  0  0
    0.0738   -8.6541    5.7898 N   0  0  0  0  0  0  0  0  0  0  0  0
    1.1871   -8.8411    6.6190 C   0  0  0  0  0  0  0  0  0  0  0  0
    1.3253   -9.7070    7.4639 O   0  0  0  0  0  0  0  0  0  0  0  0
    2.1076   -7.8357    6.2904 N   0  0  0  0  0  0  0  0  0  0  0  0
    4.4528   -1.6125    3.1839 C   0  0  0  0  0  0  0  0  0  0  0  0
    4.9319   -0.4351    2.5881 C   0  0  0  0  0  0  0  0  0  0  0  0
    4.2191    0.1769    1.5547 C   0  0  0  0  0  0  0  0  0  0  0  0
    4.7428    1.2634    0.9720 F   0  0  0  0  0  0  0  0  0  0  0  0
    2.8797   -2.4146   -0.7818 H   0  0  0  0  0  0  0  0  0  0  0  0
    1.4448   -3.9694   -2.0249 H   0  0  0  0  0  0  0  0  0  0  0  0
   -0.7297   -3.2058   -2.9421 H   0  0  0  0  0  0  0  0  0  0  0  0
   -1.4561   -0.8554   -2.6172 H   0  0  0  0  0  0  0  0  0  0  0  0
   -0.0511    0.7161   -1.3105 H   0  0  0  0  0  0  0  0  0  0  0  0
    1.5071   -1.8139    1.5233 H   0  0  0  0  0  0  0  0  0  0  0  0
    3.3648   -3.7787    4.0852 H   0  0  0  0  0  0  0  0  0  0  0  0
   -1.4827   -7.3993    3.7792 H   0  0  0  0  0  0  0  0  0  0  0  0
   -0.6285   -5.3929    2.6084 H   0  0  0  0  0  0  0  0  0  0  0  0
   -0.7504   -9.2338    5.8176 H   0  0  0  0  0  0  0  0  0  0  0  0
    3.0048   -7.7266    6.7385 H   0  0  0  0  0  0  0  0  0  0  0  0
    5.0534   -2.0901    3.9538 H   0  0  0  0  0  0  0  0  0  0  0  0
    5.8768   -0.0003    2.9047 H   0  0  0  0  0  0  0  0  0  0  0  0
  1  2  2  0  0  0  0
  2  3  1  0  0  0  0
  2  9  1  0  0  0  0
  3  4  2  0  0  0  0
  3  8  1  0  0  0  0
  4  5  1  0  0  0  0
  4 30  1  0  0  0  0
  5  6  2  0  0  0  0
  5 31  1  0  0  0  0
  6  7  1  0  0  0  0
  6 32  1  0  0  0  0
  7  8  2  0  0  0  0
  7 33  1  0  0  0  0
  8 34  1  0  0  0  0
  9 10  2  0  0  0  0
  9 28  1  0  0  0  0
 10 11  1  0  0  0  0
 10 35  1  0  0  0  0
 11 12  1  0  0  0  0
 11 26  2  0  0  0  0
 12 13  1  0  0  0  0
 12 36  1  0  0  0  0
 13 14  2  0  0  0  0
 13 15  1  0  0  0  0
 15 16  2  0  0  0  0
 15 21  1  0  0  0  0
 16 17  1  0  0  0  0
 16 18  1  0  0  0  0
 18 19  2  0  0  0  0
 18 25  1  0  0  0  0
 19 20  1  0  0  0  0
 19 22  1  0  0  0  0
 20 21  2  0  0  0  0
 20 37  1  0  0  0  0
 21 38  1  0  0  0  0
 22 23  1  0  0  0  0
 22 39  1  0  0  0  0
 23 24  2  0  0  0  0
 23 25  1  0  0  0  0
 25 40  1  0  0  0  0
 26 27  1  0  0  0  0
 26 41  1  0  0  0  0
 27 28  2  0  0  0  0
 27 42  1  0  0  0  0
 28 29  1  0  0  0  0
M  END
$$$$
