
 OpenBabel01122422453D

 50 53  0  0  0  0  0  0  0  0999 V2000
    0.6525   -0.4826   -0.4081 C   0  0  0  0  0  0  0  0  0  0  0  0
    1.8169   -1.2841   -0.2178 O   0  0  0  0  0  0  0  0  0  0  0  0
    2.7872   -1.1785   -1.1693 C   0  0  0  0  0  0  0  0  0  0  0  0
    2.7179   -0.3538   -2.2878 C   0  0  0  0  0  0  0  0  0  0  0  0
    3.7853   -0.2767   -3.1789 C   0  0  0  0  0  0  0  0  0  0  0  0
    4.9414   -1.0192   -2.9288 C   0  0  0  0  0  0  0  0  0  0  0  0
    5.0553   -1.8534   -1.8051 C   0  0  0  0  0  0  0  0  0  0  0  0
    6.3195   -2.5684   -1.5537 C   0  0  0  0  0  0  0  0  0  0  0  0
    6.3832   -3.7993   -0.9073 C   0  0  0  0  0  0  0  0  0  0  0  0
    7.6202   -4.4155   -0.7252 C   0  0  0  0  0  0  0  0  0  0  0  0
    8.7871   -3.7820   -1.1721 C   0  0  0  0  0  0  0  0  0  0  0  0
   10.1000   -4.4159   -0.8810 C   0  0  0  0  0  0  0  0  0  0  0  0
   10.1419   -5.6380   -0.7486 O   0  0  0  0  0  0  0  0  0  0  0  0
   11.1950   -3.5936   -0.6940 N   0  0  0  0  0  0  0  0  0  0  0  0
   12.4849   -4.1635   -0.3372 C   0  0  0  0  0  0  0  0  0  0  0  0
   13.3195   -3.2054    0.4803 C   0  0  0  0  0  0  0  0  0  0  0  0
   12.8813   -2.7506    1.7334 C   0  0  0  0  0  0  0  0  0  0  0  0
   13.6683   -1.8795    2.4929 C   0  0  0  0  0  0  0  0  0  0  0  0
   14.9145   -1.4483    2.0238 C   0  0  0  0  0  0  0  0  0  0  0  0
   15.6936   -0.4918    2.8060 C   0  0  0  0  0  0  0  0  0  0  0  0
   15.6955   -0.3555    4.1155 N   0  0  0  0  0  0  0  0  0  0  0  0
   16.5463    0.6833    4.3923 C   0  0  0  0  0  0  0  0  0  0  0  0
   17.0519    1.2172    3.2326 C   0  0  0  0  0  0  0  0  0  0  0  0
   16.5075    0.4624    2.2357 N   0  0  0  0  0  0  0  0  0  0  0  0
   15.3801   -1.9464    0.8001 C   0  0  0  0  0  0  0  0  0  0  0  0
   14.5914   -2.8151    0.0381 C   0  0  0  0  0  0  0  0  0  0  0  0
    8.6286   -2.5649   -1.8044 C   0  0  0  0  0  0  0  0  0  0  0  0
    9.7060   -1.8541   -2.2502 O   0  0  0  0  0  0  0  0  0  0  0  0
    7.4482   -1.9496   -2.0078 N   0  0  0  0  0  0  0  0  0  0  0  0
    3.9428   -1.9264   -0.9451 C   0  0  0  0  0  0  0  0  0  0  0  0
   -0.0218   -0.6532    0.4367 H   0  0  0  0  0  0  0  0  0  0  0  0
    0.1205   -0.7648   -1.3224 H   0  0  0  0  0  0  0  0  0  0  0  0
    0.9124    0.5824   -0.4148 H   0  0  0  0  0  0  0  0  0  0  0  0
    1.8488    0.2675   -2.4928 H   0  0  0  0  0  0  0  0  0  0  0  0
    3.7315    0.3698   -4.0448 H   0  0  0  0  0  0  0  0  0  0  0  0
    5.7762   -0.9289   -3.6241 H   0  0  0  0  0  0  0  0  0  0  0  0
    5.4806   -4.2891   -0.5417 H   0  0  0  0  0  0  0  0  0  0  0  0
    7.6752   -5.3767   -0.2232 H   0  0  0  0  0  0  0  0  0  0  0  0
   11.2224   -2.6994   -1.1225 H   0  0  0  0  0  0  0  0  0  0  0  0
   12.9853   -4.3764   -1.2973 H   0  0  0  0  0  0  0  0  0  0  0  0
   12.3637   -5.0945    0.1931 H   0  0  0  0  0  0  0  0  0  0  0  0
   11.9252   -3.0795    2.1365 H   0  0  0  0  0  0  0  0  0  0  0  0
   13.3083   -1.5259    3.4588 H   0  0  0  0  0  0  0  0  0  0  0  0
   16.7406    0.9985    5.4104 H   0  0  0  0  0  0  0  0  0  0  0  0
   17.7216    2.0410    3.0358 H   0  0  0  0  0  0  0  0  0  0  0  0
   16.6369    0.5935    1.2422 H   0  0  0  0  0  0  0  0  0  0  0  0
   16.3693   -1.6839    0.4348 H   0  0  0  0  0  0  0  0  0  0  0  0
   14.9894   -3.1964   -0.9001 H   0  0  0  0  0  0  0  0  0  0  0  0
   10.0111   -1.3958   -1.4498 H   0  0  0  0  0  0  0  0  0  0  0  0
    3.9878   -2.5542   -0.0428 H   0  0  0  0  0  0  0  0  0  0  0  0
  1  2  1  0  0  0  0
  1 31  1  0  0  0  0
  1 32  1  0  0  0  0
  1 33  1  0  0  0  0
  2  3  1  0  0  0  0
  3  4  2  0  0  0  0
  3 30  1  0  0  0  0
  4  5  1  0  0  0  0
  4 34  1  0  0  0  0
  5  6  2  0  0  0  0
  5 35  1  0  0  0  0
  6  7  1  0  0  0  0
  6 36  1  0  0  0  0
  7  8  1  0  0  0  0
  7 30  2  0  0  0  0
  8  9  2  0  0  0  0
  8 29  1  0  0  0  0
  9 10  1  0  0  0  0
  9 37  1  0  0  0  0
 10 11  2  0  0  0  0
 10 38  1  0  0  0  0
 11 12  1  0  0  0  0
 11 27  1  0  0  0  0
 12 13  2  0  0  0  0
 12 14  1  0  0  0  0
 14 15  1  0  0  0  0
 14 39  1  0  0  0  0
 15 16  1  0  0  0  0
 15 40  1  0  0  0  0
 15 41  1  0  0  0  0
 16 17  2  0  0  0  0
 16 26  1  0  0  0  0
 17 18  1  0  0  0  0
 17 42  1  0  0  0  0
 18 19  2  0  0  0  0
 18 43  1  0  0  0  0
 19 20  1  0  0  0  0
 19 25  1  0  0  0  0
 20 21  2  0  0  0  0
 20 24  1  0  0  0  0
 21 22  1  0  0  0  0
 22 23  2  0  0  0  0
 22 44  1  0  0  0  0
 23 24  1  0  0  0  0
 23 45  1  0  0  0  0
 24 46  1  0  0  0  0
 25 26  2  0  0  0  0
 25 47  1  0  0  0  0
 26 48  1  0  0  0  0
 27 28  1  0  0  0  0
 27 29  2  0  0  0  0
 28 49  1  0  0  0  0
 30 50  1  0  0  0  0
M  END
$$$$
