
 OpenBabel01122422483D

 53 56  0  0  0  0  0  0  0  0999 V2000
   10.6667    0.7086   -0.1023 C   0  0  0  0  0  0  0  0  0  0  0  0
    9.2373    0.4780   -0.1107 N   0  0  0  0  0  0  0  0  0  0  0  0
    8.2816    1.4663   -0.1058 C   0  0  0  0  0  0  0  0  0  0  0  0
    7.0335    0.9022    0.1082 C   0  0  0  0  0  0  0  0  0  0  0  0
    5.7128    1.5411    0.3527 C   0  0  0  0  0  0  0  0  0  0  0  0
    4.7654    0.8114    0.6654 O   0  0  0  0  0  0  0  0  0  0  0  0
    5.4693    2.9424    0.3006 N   0  0  0  0  0  0  0  0  0  0  0  0
    4.0413    3.3305    0.3088 C   0  0  0  0  0  0  0  0  0  0  0  0
    3.4291    3.5710    1.7006 C   0  0  0  0  0  0  0  0  0  0  0  0
    3.9230    2.7920    2.7231 N   0  0  0  0  0  0  0  0  0  0  0  0
    2.4476    4.2881    1.8692 O   0  0  0  0  0  0  0  0  0  0  0  0
    6.4742    3.9800    0.0063 C   0  0  0  0  0  0  0  0  0  0  0  0
    6.1048    5.4606    0.0858 C   0  0  0  0  0  0  0  0  0  0  0  0
    5.7111    6.0645    1.2824 C   0  0  0  0  0  0  0  0  0  0  0  0
    5.4713    7.4540    1.3574 C   0  0  0  0  0  0  0  0  0  0  0  0
    5.6457    8.3214    0.2619 C   0  0  0  0  0  0  0  0  0  0  0  0
    5.4150    9.7999    0.3878 C   0  0  0  0  0  0  0  0  0  0  0  0
    5.5602   10.4631    1.6263 C   0  0  0  0  0  0  0  0  0  0  0  0
    5.2889   11.8316    1.7831 C   0  0  0  0  0  0  0  0  0  0  0  0
    4.8836   12.5902    0.6936 C   0  0  0  0  0  0  0  0  0  0  0  0
    4.7598   11.9814   -0.5503 C   0  0  0  0  0  0  0  0  0  0  0  0
    5.0208   10.6049   -0.6991 C   0  0  0  0  0  0  0  0  0  0  0  0
    6.0434    7.7040   -0.9376 C   0  0  0  0  0  0  0  0  0  0  0  0
    6.2650    6.3060   -1.0205 C   0  0  0  0  0  0  0  0  0  0  0  0
    7.2744   -0.5456    0.0507 C   0  0  0  0  0  0  0  0  0  0  0  0
    6.4482   -1.6969    0.1087 C   0  0  0  0  0  0  0  0  0  0  0  0
    7.0193   -2.9722    0.0304 C   0  0  0  0  0  0  0  0  0  0  0  0
    6.2236   -4.0532    0.0724 F   0  0  0  0  0  0  0  0  0  0  0  0
    8.3853   -3.1552   -0.0884 C   0  0  0  0  0  0  0  0  0  0  0  0
    9.2299   -2.0480   -0.1434 C   0  0  0  0  0  0  0  0  0  0  0  0
    8.6530   -0.7626   -0.0817 C   0  0  0  0  0  0  0  0  0  0  0  0
   10.8631    1.7754    0.0290 H   0  0  0  0  0  0  0  0  0  0  0  0
   11.0830    0.3584   -1.0494 H   0  0  0  0  0  0  0  0  0  0  0  0
   11.0988    0.1559    0.7371 H   0  0  0  0  0  0  0  0  0  0  0  0
    8.6121    2.4866   -0.2080 H   0  0  0  0  0  0  0  0  0  0  0  0
    3.4434    2.5355   -0.1538 H   0  0  0  0  0  0  0  0  0  0  0  0
    3.8927    4.2215   -0.3057 H   0  0  0  0  0  0  0  0  0  0  0  0
    3.8866    1.8046    2.4629 H   0  0  0  0  0  0  0  0  0  0  0  0
    4.9181    2.9275    2.8538 H   0  0  0  0  0  0  0  0  0  0  0  0
    6.8427    3.7645   -1.0034 H   0  0  0  0  0  0  0  0  0  0  0  0
    7.3029    3.8369    0.7065 H   0  0  0  0  0  0  0  0  0  0  0  0
    5.5877    5.4751    2.1882 H   0  0  0  0  0  0  0  0  0  0  0  0
    5.1337    7.8459    2.3157 H   0  0  0  0  0  0  0  0  0  0  0  0
    5.8943    9.9204    2.5073 H   0  0  0  0  0  0  0  0  0  0  0  0
    5.3930   12.2950    2.7612 H   0  0  0  0  0  0  0  0  0  0  0  0
    4.6664   13.6501    0.8126 H   0  0  0  0  0  0  0  0  0  0  0  0
    4.4503   12.5735   -1.4093 H   0  0  0  0  0  0  0  0  0  0  0  0
    4.8873   10.1780   -1.6882 H   0  0  0  0  0  0  0  0  0  0  0  0
    6.2178    8.3028   -1.8277 H   0  0  0  0  0  0  0  0  0  0  0  0
    6.5886    5.9029   -1.9823 H   0  0  0  0  0  0  0  0  0  0  0  0
    5.3698   -1.6127    0.2008 H   0  0  0  0  0  0  0  0  0  0  0  0
    8.7906   -4.1616   -0.1396 H   0  0  0  0  0  0  0  0  0  0  0  0
   10.3032   -2.1859   -0.2367 H   0  0  0  0  0  0  0  0  0  0  0  0
  1  2  1  0  0  0  0
  1 32  1  0  0  0  0
  1 33  1  0  0  0  0
  1 34  1  0  0  0  0
  2  3  1  0  0  0  0
  2 31  1  0  0  0  0
  3  4  2  0  0  0  0
  3 35  1  0  0  0  0
  4  5  1  0  0  0  0
  4 25  1  0  0  0  0
  5  6  2  0  0  0  0
  5  7  1  0  0  0  0
  7  8  1  0  0  0  0
  7 12  1  0  0  0  0
  8  9  1  0  0  0  0
  8 36  1  0  0  0  0
  8 37  1  0  0  0  0
  9 10  1  0  0  0  0
  9 11  2  0  0  0  0
 10 38  1  0  0  0  0
 10 39  1  0  0  0  0
 12 13  1  0  0  0  0
 12 40  1  0  0  0  0
 12 41  1  0  0  0  0
 13 14  2  0  0  0  0
 13 24  1  0  0  0  0
 14 15  1  0  0  0  0
 14 42  1  0  0  0  0
 15 16  2  0  0  0  0
 15 43  1  0  0  0  0
 16 17  1  0  0  0  0
 16 23  1  0  0  0  0
 17 18  2  0  0  0  0
 17 22  1  0  0  0  0
 18 19  1  0  0  0  0
 18 44  1  0  0  0  0
 19 20  2  0  0  0  0
 19 45  1  0  0  0  0
 20 21  1  0  0  0  0
 20 46  1  0  0  0  0
 21 22  2  0  0  0  0
 21 47  1  0  0  0  0
 22 48  1  0  0  0  0
 23 24  2  0  0  0  0
 23 49  1  0  0  0  0
 24 50  1  0  0  0  0
 25 26  2  0  0  0  0
 25 31  1  0  0  0  0
 26 27  1  0  0  0  0
 26 51  1  0  0  0  0
 27 28  1  0  0  0  0
 27 29  2  0  0  0  0
 29 30  1  0  0  0  0
 29 52  1  0  0  0  0
 30 31  2  0  0  0  0
 30 53  1  0  0  0  0
M  END
$$$$
