
 OpenBabel01122422483D

 48 51  0  0  0  0  0  0  0  0999 V2000
    2.6344   -0.9932   -0.3285 O   0  0  0  0  0  0  0  0  0  0  0  0
    2.0684   -0.1298    0.3478 C   0  0  0  0  0  0  0  0  0  0  0  0
    2.8327    0.7520    1.0800 N   0  0  0  0  0  0  0  0  0  0  0  0
    2.3536    1.8319    1.8425 C   0  0  0  0  0  0  0  0  0  0  0  0
    2.4477    3.1069    1.2708 C   0  0  0  0  0  0  0  0  0  0  0  0
    1.7222    4.1618    1.8235 C   0  0  0  0  0  0  0  0  0  0  0  0
    1.0106    3.9736    3.0051 C   0  0  0  0  0  0  0  0  0  0  0  0
    1.0138    2.7282    3.6396 C   0  0  0  0  0  0  0  0  0  0  0  0
    1.6488    1.6328    3.0457 C   0  0  0  0  0  0  0  0  0  0  0  0
    1.6290    0.3567    3.5543 O   0  0  0  0  0  0  0  0  0  0  0  0
    0.7124    0.1226    4.6275 C   0  0  0  0  0  0  0  0  0  0  0  0
    0.5594   -1.3405    4.9382 C   0  0  0  0  0  0  0  0  0  0  0  0
    0.8873   -2.3573    4.0312 C   0  0  0  0  0  0  0  0  0  0  0  0
    0.6338   -3.6821    4.3675 C   0  0  0  0  0  0  0  0  0  0  0  0
    0.0594   -3.9546    5.5984 C   0  0  0  0  0  0  0  0  0  0  0  0
   -0.2674   -3.0074    6.4991 N   0  0  0  0  0  0  0  0  0  0  0  0
   -0.0141   -1.7261    6.1468 C   0  0  0  0  0  0  0  0  0  0  0  0
    0.5879   -0.0103    0.3130 C   0  0  0  0  0  0  0  0  0  0  0  0
   -0.1657   -1.0921    0.0920 C   0  0  0  0  0  0  0  0  0  0  0  0
   -1.6501   -1.0261    0.0747 C   0  0  0  0  0  0  0  0  0  0  0  0
   -2.2446   -2.0808   -0.1414 O   0  0  0  0  0  0  0  0  0  0  0  0
   -2.2127    0.2371    0.3045 N   0  0  0  0  0  0  0  0  0  0  0  0
   -3.6198    0.5020    0.3961 C   0  0  0  0  0  0  0  0  0  0  0  0
   -4.5628   -0.5076    0.6160 C   0  0  0  0  0  0  0  0  0  0  0  0
   -5.9285   -0.2113    0.7026 C   0  0  0  0  0  0  0  0  0  0  0  0
   -6.3762    1.1008    0.5676 C   0  0  0  0  0  0  0  0  0  0  0  0
   -5.4597    2.1229    0.3617 C   0  0  0  0  0  0  0  0  0  0  0  0
   -4.0969    1.8257    0.2866 C   0  0  0  0  0  0  0  0  0  0  0  0
   -1.4519    1.3785    0.3584 N   0  0  0  0  0  0  0  0  0  0  0  0
   -0.1727    1.2409    0.3332 C   0  0  0  0  0  0  0  0  0  0  0  0
    3.7923    0.7913    0.7539 H   0  0  0  0  0  0  0  0  0  0  0  0
    2.9498    3.2521    0.3173 H   0  0  0  0  0  0  0  0  0  0  0  0
    1.6717    5.1186    1.3092 H   0  0  0  0  0  0  0  0  0  0  0  0
    0.4317    4.7912    3.4296 H   0  0  0  0  0  0  0  0  0  0  0  0
    0.4779    2.6472    4.5799 H   0  0  0  0  0  0  0  0  0  0  0  0
   -0.2837    0.4909    4.3521 H   0  0  0  0  0  0  0  0  0  0  0  0
    1.0761    0.6371    5.5266 H   0  0  0  0  0  0  0  0  0  0  0  0
    1.3292   -2.1228    3.0681 H   0  0  0  0  0  0  0  0  0  0  0  0
    0.8721   -4.4875    3.6815 H   0  0  0  0  0  0  0  0  0  0  0  0
   -0.1621   -4.9757    5.8987 H   0  0  0  0  0  0  0  0  0  0  0  0
   -0.3106   -0.9955    6.8916 H   0  0  0  0  0  0  0  0  0  0  0  0
    0.2642   -2.0749   -0.0666 H   0  0  0  0  0  0  0  0  0  0  0  0
   -4.2650   -1.5420    0.7533 H   0  0  0  0  0  0  0  0  0  0  0  0
   -6.6403   -1.0129    0.8786 H   0  0  0  0  0  0  0  0  0  0  0  0
   -7.4377    1.3242    0.6270 H   0  0  0  0  0  0  0  0  0  0  0  0
   -5.7957    3.1510    0.2553 H   0  0  0  0  0  0  0  0  0  0  0  0
   -3.4093    2.6512    0.1172 H   0  0  0  0  0  0  0  0  0  0  0  0
    0.3963    2.1703    0.2690 H   0  0  0  0  0  0  0  0  0  0  0  0
  1  2  2  0  0  0  0
  2  3  1  0  0  0  0
  2 18  1  0  0  0  0
  3  4  1  0  0  0  0
  3 31  1  0  0  0  0
  4  5  2  0  0  0  0
  4  9  1  0  0  0  0
  5  6  1  0  0  0  0
  5 32  1  0  0  0  0
  6  7  2  0  0  0  0
  6 33  1  0  0  0  0
  7  8  1  0  0  0  0
  7 34  1  0  0  0  0
  8  9  2  0  0  0  0
  8 35  1  0  0  0  0
  9 10  1  0  0  0  0
 10 11  1  0  0  0  0
 11 12  1  0  0  0  0
 11 36  1  0  0  0  0
 11 37  1  0  0  0  0
 12 13  2  0  0  0  0
 12 17  1  0  0  0  0
 13 14  1  0  0  0  0
 13 38  1  0  0  0  0
 14 15  2  0  0  0  0
 14 39  1  0  0  0  0
 15 16  1  0  0  0  0
 15 40  1  0  0  0  0
 16 17  2  0  0  0  0
 17 41  1  0  0  0  0
 18 19  2  0  0  0  0
 18 30  1  0  0  0  0
 19 20  1  0  0  0  0
 19 42  1  0  0  0  0
 20 21  2  0  0  0  0
 20 22  1  0  0  0  0
 22 23  1  0  0  0  0
 22 29  1  0  0  0  0
 23 24  2  0  0  0  0
 23 28  1  0  0  0  0
 24 25  1  0  0  0  0
 24 43  1  0  0  0  0
 25 26  2  0  0  0  0
 25 44  1  0  0  0  0
 26 27  1  0  0  0  0
 26 45  1  0  0  0  0
 27 28  2  0  0  0  0
 27 46  1  0  0  0  0
 28 47  1  0  0  0  0
 29 30  2  0  0  0  0
 30 48  1  0  0  0  0
M  END
$$$$
