
 OpenBabel01122422483D

 48 51  0  0  0  0  0  0  0  0999 V2000
    1.0928   -0.2130    0.1122 O   0  0  0  0  0  0  0  0  0  0  0  0
    2.3120   -0.2759    0.2567 C   0  0  0  0  0  0  0  0  0  0  0  0
    3.0456   -1.3298   -0.2289 N   0  0  0  0  0  0  0  0  0  0  0  0
    2.4147   -2.4688   -0.8648 C   0  0  0  0  0  0  0  0  0  0  0  0
    2.9004   -2.6464   -2.2784 C   0  0  0  0  0  0  0  0  0  0  0  0
    3.9985   -3.4683   -2.5638 C   0  0  0  0  0  0  0  0  0  0  0  0
    4.4628   -3.6015   -3.8764 C   0  0  0  0  0  0  0  0  0  0  0  0
    3.8300   -2.9229   -4.9247 C   0  0  0  0  0  0  0  0  0  0  0  0
    4.3363   -3.0463   -6.3021 C   0  0  0  0  0  0  0  0  0  0  0  0
    3.8785   -4.0529   -7.0728 C   0  0  0  0  0  0  0  0  0  0  0  0
    4.3265   -4.2103   -8.3624 N   0  0  0  0  0  0  0  0  0  0  0  0
    5.2477   -3.3895   -8.9684 C   0  0  0  0  0  0  0  0  0  0  0  0
    5.6319   -3.5495  -10.1178 O   0  0  0  0  0  0  0  0  0  0  0  0
    5.7586   -2.2750   -8.1279 C   0  0  0  0  0  0  0  0  0  0  0  0
    5.3152   -2.1305   -6.8710 C   0  0  0  0  0  0  0  0  0  0  0  0
    2.7296   -2.1053   -4.6445 C   0  0  0  0  0  0  0  0  0  0  0  0
    2.2729   -1.9641   -3.3302 C   0  0  0  0  0  0  0  0  0  0  0  0
    3.0040    0.8088    1.0113 C   0  0  0  0  0  0  0  0  0  0  0  0
    2.1825    1.8198    1.5459 C   0  0  0  0  0  0  0  0  0  0  0  0
    2.7157    2.8343    2.3355 C   0  0  0  0  0  0  0  0  0  0  0  0
    4.0750    2.8323    2.5534 C   0  0  0  0  0  0  0  0  0  0  0  0
    4.9032    1.9107    2.0258 N   0  0  0  0  0  0  0  0  0  0  0  0
    4.3652    0.8970    1.2890 C   0  0  0  0  0  0  0  0  0  0  0  0
    5.2451   -0.0782    0.8090 O   0  0  0  0  0  0  0  0  0  0  0  0
    6.4884   -0.1384    1.4001 C   0  0  0  0  0  0  0  0  0  0  0  0
    6.6681   -0.1600    2.7837 C   0  0  0  0  0  0  0  0  0  0  0  0
    7.9527   -0.1209    3.3132 C   0  0  0  0  0  0  0  0  0  0  0  0
    9.0236   -0.1296    2.4336 C   0  0  0  0  0  0  0  0  0  0  0  0
    8.8915   -0.2018    1.0901 N   0  0  0  0  0  0  0  0  0  0  0  0
    7.6232   -0.2019    0.6027 C   0  0  0  0  0  0  0  0  0  0  0  0
    4.0518   -1.3492   -0.1210 H   0  0  0  0  0  0  0  0  0  0  0  0
    1.3212   -2.3792   -0.8519 H   0  0  0  0  0  0  0  0  0  0  0  0
    2.6610   -3.3515   -0.2629 H   0  0  0  0  0  0  0  0  0  0  0  0
    4.5016   -4.0118   -1.7667 H   0  0  0  0  0  0  0  0  0  0  0  0
    5.3241   -4.2355   -4.0756 H   0  0  0  0  0  0  0  0  0  0  0  0
    3.1497   -4.7780   -6.7275 H   0  0  0  0  0  0  0  0  0  0  0  0
    3.9758   -4.9703   -8.9331 H   0  0  0  0  0  0  0  0  0  0  0  0
    6.4857   -1.6130   -8.5794 H   0  0  0  0  0  0  0  0  0  0  0  0
    5.6804   -1.3212   -6.2486 H   0  0  0  0  0  0  0  0  0  0  0  0
    2.2241   -1.5687   -5.4443 H   0  0  0  0  0  0  0  0  0  0  0  0
    1.4220   -1.3146   -3.1270 H   0  0  0  0  0  0  0  0  0  0  0  0
    1.1084    1.8100    1.3643 H   0  0  0  0  0  0  0  0  0  0  0  0
    2.0811    3.5986    2.7723 H   0  0  0  0  0  0  0  0  0  0  0  0
    4.5504    3.5814    3.1817 H   0  0  0  0  0  0  0  0  0  0  0  0
    5.8124   -0.1416    3.4528 H   0  0  0  0  0  0  0  0  0  0  0  0
    8.1106   -0.0584    4.3827 H   0  0  0  0  0  0  0  0  0  0  0  0
   10.0448   -0.0713    2.8004 H   0  0  0  0  0  0  0  0  0  0  0  0
    7.5548   -0.2369   -0.4794 H   0  0  0  0  0  0  0  0  0  0  0  0
  1  2  2  0  0  0  0
  2  3  1  0  0  0  0
  2 18  1  0  0  0  0
  3  4  1  0  0  0  0
  3 31  1  0  0  0  0
  4  5  1  0  0  0  0
  4 32  1  0  0  0  0
  4 33  1  0  0  0  0
  5  6  2  0  0  0  0
  5 17  1  0  0  0  0
  6  7  1  0  0  0  0
  6 34  1  0  0  0  0
  7  8  2  0  0  0  0
  7 35  1  0  0  0  0
  8  9  1  0  0  0  0
  8 16  1  0  0  0  0
  9 10  2  0  0  0  0
  9 15  1  0  0  0  0
 10 11  1  0  0  0  0
 10 36  1  0  0  0  0
 11 12  1  0  0  0  0
 11 37  1  0  0  0  0
 12 13  2  0  0  0  0
 12 14  1  0  0  0  0
 14 15  2  0  0  0  0
 14 38  1  0  0  0  0
 15 39  1  0  0  0  0
 16 17  2  0  0  0  0
 16 40  1  0  0  0  0
 17 41  1  0  0  0  0
 18 19  2  0  0  0  0
 18 23  1  0  0  0  0
 19 20  1  0  0  0  0
 19 42  1  0  0  0  0
 20 21  2  0  0  0  0
 20 43  1  0  0  0  0
 21 22  1  0  0  0  0
 21 44  1  0  0  0  0
 22 23  2  0  0  0  0
 23 24  1  0  0  0  0
 24 25  1  0  0  0  0
 25 26  2  0  0  0  0
 25 30  1  0  0  0  0
 26 27  1  0  0  0  0
 26 45  1  0  0  0  0
 27 28  2  0  0  0  0
 27 46  1  0  0  0  0
 28 29  1  0  0  0  0
 28 47  1  0  0  0  0
 29 30  2  0  0  0  0
 30 48  1  0  0  0  0
M  END
$$$$
