
 OpenBabel01122422483D

 45 48  0  0  0  0  0  0  0  0999 V2000
    1.0102    0.3584   -0.5270 O   0  0  0  0  0  0  0  0  0  0  0  0
    2.2353    0.2576   -0.4227 C   0  0  0  0  0  0  0  0  0  0  0  0
    3.0229    1.3454   -0.1471 N   0  0  0  0  0  0  0  0  0  0  0  0
    2.4476    2.6700    0.0026 C   0  0  0  0  0  0  0  0  0  0  0  0
    2.3548    3.4171   -1.3085 C   0  0  0  0  0  0  0  0  0  0  0  0
    1.2286    3.2809   -2.1233 C   0  0  0  0  0  0  0  0  0  0  0  0
    1.1612    3.9932   -3.3203 C   0  0  0  0  0  0  0  0  0  0  0  0
    2.2137    4.8340   -3.6659 C   0  0  0  0  0  0  0  0  0  0  0  0
    2.2062    5.6429   -4.8831 C   0  0  0  0  0  0  0  0  0  0  0  0
    3.2089    6.5030   -5.1078 C   0  0  0  0  0  0  0  0  0  0  0  0
    4.3405    6.6313   -4.1543 C   0  0  0  0  0  0  0  0  0  0  0  0
    5.2259    7.4571   -4.3489 O   0  0  0  0  0  0  0  0  0  0  0  0
    4.3330    5.7967   -3.0781 N   0  0  0  0  0  0  0  0  0  0  0  0
    3.2985    4.9125   -2.7899 C   0  0  0  0  0  0  0  0  0  0  0  0
    3.4012    4.2167   -1.6400 N   0  0  0  0  0  0  0  0  0  0  0  0
    2.8842   -1.0871   -0.5798 C   0  0  0  0  0  0  0  0  0  0  0  0
    1.9954   -2.1550   -0.8276 C   0  0  0  0  0  0  0  0  0  0  0  0
    2.4498   -3.4648   -0.9842 C   0  0  0  0  0  0  0  0  0  0  0  0
    3.8002   -3.7414   -0.8445 C   0  0  0  0  0  0  0  0  0  0  0  0
    4.6904   -2.7063   -0.5620 C   0  0  0  0  0  0  0  0  0  0  0  0
    4.2602   -1.3641   -0.4870 C   0  0  0  0  0  0  0  0  0  0  0  0
    5.1600   -0.3235   -0.2985 O   0  0  0  0  0  0  0  0  0  0  0  0
    6.4779   -0.5213   -0.6639 C   0  0  0  0  0  0  0  0  0  0  0  0
    6.8400   -1.0482   -1.9114 C   0  0  0  0  0  0  0  0  0  0  0  0
    8.1724   -1.3708   -2.1688 C   0  0  0  0  0  0  0  0  0  0  0  0
    9.1402   -1.0948   -1.2099 C   0  0  0  0  0  0  0  0  0  0  0  0
   10.4147   -1.4323   -1.4454 F   0  0  0  0  0  0  0  0  0  0  0  0
    8.8031   -0.4808   -0.0072 C   0  0  0  0  0  0  0  0  0  0  0  0
    7.4645   -0.1892    0.2686 C   0  0  0  0  0  0  0  0  0  0  0  0
    4.0312    1.2632   -0.1672 H   0  0  0  0  0  0  0  0  0  0  0  0
    3.0901    3.2263    0.6942 H   0  0  0  0  0  0  0  0  0  0  0  0
    1.4567    2.6020    0.4671 H   0  0  0  0  0  0  0  0  0  0  0  0
    0.4073    2.6321   -1.8264 H   0  0  0  0  0  0  0  0  0  0  0  0
    0.2842    3.8992   -3.9540 H   0  0  0  0  0  0  0  0  0  0  0  0
    1.3846    5.5412   -5.5826 H   0  0  0  0  0  0  0  0  0  0  0  0
    3.2458    7.1400   -5.9823 H   0  0  0  0  0  0  0  0  0  0  0  0
    5.0855    5.8588   -2.4100 H   0  0  0  0  0  0  0  0  0  0  0  0
    0.9248   -1.9698   -0.9047 H   0  0  0  0  0  0  0  0  0  0  0  0
    1.7453   -4.2638   -1.1985 H   0  0  0  0  0  0  0  0  0  0  0  0
    4.1662   -4.7593   -0.9545 H   0  0  0  0  0  0  0  0  0  0  0  0
    5.7354   -2.9740   -0.4233 H   0  0  0  0  0  0  0  0  0  0  0  0
    6.0835   -1.2670   -2.6608 H   0  0  0  0  0  0  0  0  0  0  0  0
    8.4571   -1.8508   -3.0997 H   0  0  0  0  0  0  0  0  0  0  0  0
    9.5828   -0.2544    0.7135 H   0  0  0  0  0  0  0  0  0  0  0  0
    7.1947    0.2640    1.2185 H   0  0  0  0  0  0  0  0  0  0  0  0
  1  2  2  0  0  0  0
  2  3  1  0  0  0  0
  2 16  1  0  0  0  0
  3  4  1  0  0  0  0
  3 30  1  0  0  0  0
  4  5  1  0  0  0  0
  4 31  1  0  0  0  0
  4 32  1  0  0  0  0
  5  6  2  0  0  0  0
  5 15  1  0  0  0  0
  6  7  1  0  0  0  0
  6 33  1  0  0  0  0
  7  8  2  0  0  0  0
  7 34  1  0  0  0  0
  8  9  1  0  0  0  0
  8 14  1  0  0  0  0
  9 10  2  0  0  0  0
  9 35  1  0  0  0  0
 10 11  1  0  0  0  0
 10 36  1  0  0  0  0
 11 12  2  0  0  0  0
 11 13  1  0  0  0  0
 13 14  1  0  0  0  0
 13 37  1  0  0  0  0
 14 15  2  0  0  0  0
 16 17  2  0  0  0  0
 16 21  1  0  0  0  0
 17 18  1  0  0  0  0
 17 38  1  0  0  0  0
 18 19  2  0  0  0  0
 18 39  1  0  0  0  0
 19 20  1  0  0  0  0
 19 40  1  0  0  0  0
 20 21  2  0  0  0  0
 20 41  1  0  0  0  0
 21 22  1  0  0  0  0
 22 23  1  0  0  0  0
 23 24  2  0  0  0  0
 23 29  1  0  0  0  0
 24 25  1  0  0  0  0
 24 42  1  0  0  0  0
 25 26  2  0  0  0  0
 25 43  1  0  0  0  0
 26 27  1  0  0  0  0
 26 28  1  0  0  0  0
 28 29  2  0  0  0  0
 28 44  1  0  0  0  0
 29 45  1  0  0  0  0
M  END
$$$$
