
 OpenBabel01122422483D

 45 48  0  0  0  0  0  0  0  0999 V2000
    4.6071   -0.2709   -0.3196 O   0  0  0  0  0  0  0  0  0  0  0  0
    4.0450   -0.6491    0.7060 C   0  0  0  0  0  0  0  0  0  0  0  0
    3.0117    0.1189    1.2347 N   0  0  0  0  0  0  0  0  0  0  0  0
    2.2409   -0.1940    2.3736 C   0  0  0  0  0  0  0  0  0  0  0  0
    2.6693    0.3273    3.5958 C   0  0  0  0  0  0  0  0  0  0  0  0
    2.1575   -0.0343    4.7924 N   0  0  0  0  0  0  0  0  0  0  0  0
    1.1654   -0.9440    4.7697 C   0  0  0  0  0  0  0  0  0  0  0  0
    0.6334   -1.4771    3.6090 C   0  0  0  0  0  0  0  0  0  0  0  0
    1.1446   -1.0606    2.3747 C   0  0  0  0  0  0  0  0  0  0  0  0
    0.6598   -1.5125    1.1692 O   0  0  0  0  0  0  0  0  0  0  0  0
   -0.6640   -2.0639    1.2248 C   0  0  0  0  0  0  0  0  0  0  0  0
   -1.2844   -2.0722   -0.1453 C   0  0  0  0  0  0  0  0  0  0  0  0
   -0.8750   -2.9988   -1.1115 C   0  0  0  0  0  0  0  0  0  0  0  0
   -1.4547   -2.9937   -2.3802 C   0  0  0  0  0  0  0  0  0  0  0  0
   -2.4450   -2.0639   -2.6923 C   0  0  0  0  0  0  0  0  0  0  0  0
   -2.8657   -1.1419   -1.7363 C   0  0  0  0  0  0  0  0  0  0  0  0
   -2.2884   -1.1457   -0.4677 C   0  0  0  0  0  0  0  0  0  0  0  0
    4.3695   -2.0130    1.2360 C   0  0  0  0  0  0  0  0  0  0  0  0
    4.6827   -2.9948    0.2783 C   0  0  0  0  0  0  0  0  0  0  0  0
    4.5868   -4.3490    0.6060 C   0  0  0  0  0  0  0  0  0  0  0  0
    4.1779   -4.7090    1.8941 C   0  0  0  0  0  0  0  0  0  0  0  0
    3.8454   -6.0418    2.1690 N   0  0  0  0  0  0  0  0  0  0  0  0
    3.9001   -7.0353    1.2309 C   0  0  0  0  0  0  0  0  0  0  0  0
    3.4970   -8.1707    1.4488 O   0  0  0  0  0  0  0  0  0  0  0  0
    4.4882   -6.6685   -0.0827 C   0  0  0  0  0  0  0  0  0  0  0  0
    4.8188   -5.4023   -0.3775 C   0  0  0  0  0  0  0  0  0  0  0  0
    4.0339   -3.7385    2.8739 C   0  0  0  0  0  0  0  0  0  0  0  0
    3.6473   -4.0834    4.1126 F   0  0  0  0  0  0  0  0  0  0  0  0
    4.1946   -2.3976    2.5661 C   0  0  0  0  0  0  0  0  0  0  0  0
    2.5165    0.5880    0.4806 H   0  0  0  0  0  0  0  0  0  0  0  0
    3.5051    1.0163    3.6439 H   0  0  0  0  0  0  0  0  0  0  0  0
    0.8026   -1.2599    5.7470 H   0  0  0  0  0  0  0  0  0  0  0  0
   -0.1496   -2.2205    3.7052 H   0  0  0  0  0  0  0  0  0  0  0  0
   -1.3085   -1.4686    1.8861 H   0  0  0  0  0  0  0  0  0  0  0  0
   -0.6275   -3.0921    1.6101 H   0  0  0  0  0  0  0  0  0  0  0  0
   -0.1040   -3.7308   -0.8775 H   0  0  0  0  0  0  0  0  0  0  0  0
   -1.1311   -3.7119   -3.1266 H   0  0  0  0  0  0  0  0  0  0  0  0
   -2.8885   -2.0540   -3.6854 H   0  0  0  0  0  0  0  0  0  0  0  0
   -3.6416   -0.4197   -1.9787 H   0  0  0  0  0  0  0  0  0  0  0  0
   -2.6301   -0.4233    0.2702 H   0  0  0  0  0  0  0  0  0  0  0  0
    4.9159   -2.6971   -0.7427 H   0  0  0  0  0  0  0  0  0  0  0  0
    3.4526   -6.2814    3.0707 H   0  0  0  0  0  0  0  0  0  0  0  0
    4.6251   -7.4838   -0.7849 H   0  0  0  0  0  0  0  0  0  0  0  0
    5.2578   -5.1468   -1.3340 H   0  0  0  0  0  0  0  0  0  0  0  0
    4.0912   -1.6886    3.3718 H   0  0  0  0  0  0  0  0  0  0  0  0
  1  2  2  0  0  0  0
  2  3  1  0  0  0  0
  2 18  1  0  0  0  0
  3  4  1  0  0  0  0
  3 30  1  0  0  0  0
  4  5  2  0  0  0  0
  4  9  1  0  0  0  0
  5  6  1  0  0  0  0
  5 31  1  0  0  0  0
  6  7  2  0  0  0  0
  7  8  1  0  0  0  0
  7 32  1  0  0  0  0
  8  9  2  0  0  0  0
  8 33  1  0  0  0  0
  9 10  1  0  0  0  0
 10 11  1  0  0  0  0
 11 12  1  0  0  0  0
 11 34  1  0  0  0  0
 11 35  1  0  0  0  0
 12 13  2  0  0  0  0
 12 17  1  0  0  0  0
 13 14  1  0  0  0  0
 13 36  1  0  0  0  0
 14 15  2  0  0  0  0
 14 37  1  0  0  0  0
 15 16  1  0  0  0  0
 15 38  1  0  0  0  0
 16 17  2  0  0  0  0
 16 39  1  0  0  0  0
 17 40  1  0  0  0  0
 18 19  2  0  0  0  0
 18 29  1  0  0  0  0
 19 20  1  0  0  0  0
 19 41  1  0  0  0  0
 20 21  2  0  0  0  0
 20 26  1  0  0  0  0
 21 22  1  0  0  0  0
 21 27  1  0  0  0  0
 22 23  1  0  0  0  0
 22 42  1  0  0  0  0
 23 24  2  0  0  0  0
 23 25  1  0  0  0  0
 25 26  2  0  0  0  0
 25 43  1  0  0  0  0
 26 44  1  0  0  0  0
 27 28  1  0  0  0  0
 27 29  2  0  0  0  0
 29 45  1  0  0  0  0
M  END
$$$$
