
 OpenBabel01122422483D

 46 49  0  0  0  0  0  0  0  0999 V2000
    3.0260    1.1795   -0.7516 C   0  0  0  0  0  0  0  0  0  0  0  0
    2.3291   -0.0347   -0.3330 N   0  0  0  0  0  0  0  0  0  0  0  0
    0.9702   -0.0417   -0.0765 C   0  0  0  0  0  0  0  0  0  0  0  0
    0.2444   -1.1093    0.2640 C   0  0  0  0  0  0  0  0  0  0  0  0
    0.9318   -2.4085    0.3716 C   0  0  0  0  0  0  0  0  0  0  0  0
    0.2925   -3.4118    0.6688 O   0  0  0  0  0  0  0  0  0  0  0  0
    2.3937   -2.4316    0.1216 C   0  0  0  0  0  0  0  0  0  0  0  0
    3.0709   -3.6527    0.2364 C   0  0  0  0  0  0  0  0  0  0  0  0
    4.4467   -3.7245    0.0301 C   0  0  0  0  0  0  0  0  0  0  0  0
    5.1735   -4.9372    0.0916 N   0  0  0  0  0  0  0  0  0  0  0  0
    4.6038   -6.1980    0.0043 C   0  0  0  0  0  0  0  0  0  0  0  0
    3.4138   -6.4353   -0.1741 O   0  0  0  0  0  0  0  0  0  0  0  0
    5.5290   -7.3603    0.0314 C   0  0  0  0  0  0  0  0  0  0  0  0
    6.7417   -7.3775    0.7280 C   0  0  0  0  0  0  0  0  0  0  0  0
    7.5232   -8.5434    0.7342 C   0  0  0  0  0  0  0  0  0  0  0  0
    7.0937   -9.6903    0.0570 C   0  0  0  0  0  0  0  0  0  0  0  0
    7.9213  -10.7942    0.1165 O   0  0  0  0  0  0  0  0  0  0  0  0
    7.3327  -12.0457   -0.0001 C   0  0  0  0  0  0  0  0  0  0  0  0
    8.0319  -13.0160   -0.7029 C   0  0  0  0  0  0  0  0  0  0  0  0
    7.4048  -14.2419   -0.9336 C   0  0  0  0  0  0  0  0  0  0  0  0
    6.1123  -14.4532   -0.4509 C   0  0  0  0  0  0  0  0  0  0  0  0
    5.3967  -15.6571   -0.7322 C   0  0  0  0  0  0  0  0  0  0  0  0
    4.7988  -16.6195   -0.9750 N   0  0  0  0  0  0  0  0  0  0  0  0
    5.5187  -13.4452    0.2901 C   0  0  0  0  0  0  0  0  0  0  0  0
    6.1102  -12.2563    0.5433 N   0  0  0  0  0  0  0  0  0  0  0  0
    5.9019   -9.6517   -0.6698 C   0  0  0  0  0  0  0  0  0  0  0  0
    5.1136   -8.5051   -0.6599 C   0  0  0  0  0  0  0  0  0  0  0  0
    5.1387   -2.5454   -0.2548 C   0  0  0  0  0  0  0  0  0  0  0  0
    4.4540   -1.3245   -0.3908 C   0  0  0  0  0  0  0  0  0  0  0  0
    3.0639   -1.2378   -0.2116 C   0  0  0  0  0  0  0  0  0  0  0  0
    2.3409    2.0337   -0.8138 H   0  0  0  0  0  0  0  0  0  0  0  0
    3.4683    1.0528   -1.7454 H   0  0  0  0  0  0  0  0  0  0  0  0
    3.8072    1.4503   -0.0327 H   0  0  0  0  0  0  0  0  0  0  0  0
    0.4847    0.9260   -0.1672 H   0  0  0  0  0  0  0  0  0  0  0  0
   -0.8168   -1.0805    0.4637 H   0  0  0  0  0  0  0  0  0  0  0  0
    2.4900   -4.5314    0.5026 H   0  0  0  0  0  0  0  0  0  0  0  0
    6.1798   -4.8695    0.0234 H   0  0  0  0  0  0  0  0  0  0  0  0
    7.0748   -6.5194    1.3048 H   0  0  0  0  0  0  0  0  0  0  0  0
    8.4580   -8.5655    1.2889 H   0  0  0  0  0  0  0  0  0  0  0  0
    9.0224  -12.8118   -1.0939 H   0  0  0  0  0  0  0  0  0  0  0  0
    7.9160  -15.0108   -1.5076 H   0  0  0  0  0  0  0  0  0  0  0  0
    4.5155  -13.5449    0.6960 H   0  0  0  0  0  0  0  0  0  0  0  0
    5.5438  -10.5133   -1.2252 H   0  0  0  0  0  0  0  0  0  0  0  0
    4.1603   -8.5136   -1.1867 H   0  0  0  0  0  0  0  0  0  0  0  0
    6.2146   -2.5558   -0.4074 H   0  0  0  0  0  0  0  0  0  0  0  0
    5.0431   -0.4474   -0.6406 H   0  0  0  0  0  0  0  0  0  0  0  0
  1  2  1  0  0  0  0
  1 31  1  0  0  0  0
  1 32  1  0  0  0  0
  1 33  1  0  0  0  0
  2  3  1  0  0  0  0
  2 30  1  0  0  0  0
  3  4  2  0  0  0  0
  3 34  1  0  0  0  0
  4  5  1  0  0  0  0
  4 35  1  0  0  0  0
  5  6  2  0  0  0  0
  5  7  1  0  0  0  0
  7  8  2  0  0  0  0
  7 30  1  0  0  0  0
  8  9  1  0  0  0  0
  8 36  1  0  0  0  0
  9 10  1  0  0  0  0
  9 28  2  0  0  0  0
 10 11  1  0  0  0  0
 10 37  1  0  0  0  0
 11 12  2  0  0  0  0
 11 13  1  0  0  0  0
 13 14  2  0  0  0  0
 13 27  1  0  0  0  0
 14 15  1  0  0  0  0
 14 38  1  0  0  0  0
 15 16  2  0  0  0  0
 15 39  1  0  0  0  0
 16 17  1  0  0  0  0
 16 26  1  0  0  0  0
 17 18  1  0  0  0  0
 18 19  2  0  0  0  0
 18 25  1  0  0  0  0
 19 20  1  0  0  0  0
 19 40  1  0  0  0  0
 20 21  2  0  0  0  0
 20 41  1  0  0  0  0
 21 22  1  0  0  0  0
 21 24  1  0  0  0  0
 22 23  3  0  0  0  0
 24 25  2  0  0  0  0
 24 42  1  0  0  0  0
 26 27  2  0  0  0  0
 26 43  1  0  0  0  0
 27 44  1  0  0  0  0
 28 29  1  0  0  0  0
 28 45  1  0  0  0  0
 29 30  2  0  0  0  0
 29 46  1  0  0  0  0
M  END
$$$$
