
 OpenBabel01122422453D

 44 47  0  0  0  0  0  0  0  0999 V2000
    0.9769    0.0521   -0.3469 O   0  0  0  0  0  0  0  0  0  0  0  0
    2.1838   -0.0106   -0.1356 C   0  0  0  0  0  0  0  0  0  0  0  0
    2.8390   -0.9715    0.6236 N   0  0  0  0  0  0  0  0  0  0  0  0
    2.1895   -2.0756    1.2265 C   0  0  0  0  0  0  0  0  0  0  0  0
    0.9179   -2.4961    0.8557 C   0  0  0  0  0  0  0  0  0  0  0  0
    0.2998   -3.5393    1.5352 C   0  0  0  0  0  0  0  0  0  0  0  0
    0.9660   -4.1807    2.5726 C   0  0  0  0  0  0  0  0  0  0  0  0
    0.3184   -5.2546    3.3498 C   0  0  0  0  0  0  0  0  0  0  0  0
   -0.6164   -6.1222    2.7622 C   0  0  0  0  0  0  0  0  0  0  0  0
   -1.2647   -7.0626    3.5466 C   0  0  0  0  0  0  0  0  0  0  0  0
   -1.0446   -7.2119    4.8661 N   0  0  0  0  0  0  0  0  0  0  0  0
   -0.1276   -6.3908    5.4195 C   0  0  0  0  0  0  0  0  0  0  0  0
    0.5696   -5.4191    4.7165 C   0  0  0  0  0  0  0  0  0  0  0  0
    2.2246   -3.8186    2.9326 N   0  0  0  0  0  0  0  0  0  0  0  0
    2.8037   -2.7914    2.2506 C   0  0  0  0  0  0  0  0  0  0  0  0
    3.0127    1.0756   -0.7049 C   0  0  0  0  0  0  0  0  0  0  0  0
    2.4301    2.3474   -0.8094 C   0  0  0  0  0  0  0  0  0  0  0  0
    3.1034    3.3821   -1.4569 C   0  0  0  0  0  0  0  0  0  0  0  0
    4.3624    3.1480   -2.0188 C   0  0  0  0  0  0  0  0  0  0  0  0
    5.0302    4.2596   -2.7537 C   0  0  0  0  0  0  0  0  0  0  0  0
    4.7876    5.4182   -2.4259 O   0  0  0  0  0  0  0  0  0  0  0  0
    5.9751    3.9427   -3.8224 C   0  0  0  0  0  0  0  0  0  0  0  0
    5.9424    2.8598   -4.6874 C   0  0  0  0  0  0  0  0  0  0  0  0
    7.0476    2.9120   -5.4961 N   0  0  0  0  0  0  0  0  0  0  0  0
    7.7667    4.0391   -5.2061 C   0  0  0  0  0  0  0  0  0  0  0  0
    7.1094    4.7147   -4.2038 C   0  0  0  0  0  0  0  0  0  0  0  0
    4.9657    1.8869   -1.8628 C   0  0  0  0  0  0  0  0  0  0  0  0
    4.2876    0.8443   -1.2244 C   0  0  0  0  0  0  0  0  0  0  0  0
    3.7956   -0.7888    0.8972 H   0  0  0  0  0  0  0  0  0  0  0  0
    0.3688   -2.0337    0.0432 H   0  0  0  0  0  0  0  0  0  0  0  0
   -0.7159   -3.8074    1.2564 H   0  0  0  0  0  0  0  0  0  0  0  0
   -0.8493   -6.0758    1.7033 H   0  0  0  0  0  0  0  0  0  0  0  0
   -2.0038   -7.7323    3.1165 H   0  0  0  0  0  0  0  0  0  0  0  0
    0.0313   -6.5305    6.4849 H   0  0  0  0  0  0  0  0  0  0  0  0
    1.2813   -4.7838    5.2341 H   0  0  0  0  0  0  0  0  0  0  0  0
    3.8034   -2.5420    2.5953 H   0  0  0  0  0  0  0  0  0  0  0  0
    1.4335    2.5253   -0.4065 H   0  0  0  0  0  0  0  0  0  0  0  0
    2.6299    4.3589   -1.5430 H   0  0  0  0  0  0  0  0  0  0  0  0
    5.2334    2.0478   -4.7914 H   0  0  0  0  0  0  0  0  0  0  0  0
    7.2902    2.2272   -6.2013 H   0  0  0  0  0  0  0  0  0  0  0  0
    8.6785    4.2686   -5.7407 H   0  0  0  0  0  0  0  0  0  0  0  0
    7.4207    5.6530   -3.7586 H   0  0  0  0  0  0  0  0  0  0  0  0
    5.9614    1.6956   -2.2564 H   0  0  0  0  0  0  0  0  0  0  0  0
    4.7436   -0.1412   -1.1915 H   0  0  0  0  0  0  0  0  0  0  0  0
  1  2  2  0  0  0  0
  2  3  1  0  0  0  0
  2 16  1  0  0  0  0
  3  4  1  0  0  0  0
  3 29  1  0  0  0  0
  4  5  2  0  0  0  0
  4 15  1  0  0  0  0
  5  6  1  0  0  0  0
  5 30  1  0  0  0  0
  6  7  2  0  0  0  0
  6 31  1  0  0  0  0
  7  8  1  0  0  0  0
  7 14  1  0  0  0  0
  8  9  2  0  0  0  0
  8 13  1  0  0  0  0
  9 10  1  0  0  0  0
  9 32  1  0  0  0  0
 10 11  2  0  0  0  0
 10 33  1  0  0  0  0
 11 12  1  0  0  0  0
 12 13  2  0  0  0  0
 12 34  1  0  0  0  0
 13 35  1  0  0  0  0
 14 15  2  0  0  0  0
 15 36  1  0  0  0  0
 16 17  2  0  0  0  0
 16 28  1  0  0  0  0
 17 18  1  0  0  0  0
 17 37  1  0  0  0  0
 18 19  2  0  0  0  0
 18 38  1  0  0  0  0
 19 20  1  0  0  0  0
 19 27  1  0  0  0  0
 20 21  2  0  0  0  0
 20 22  1  0  0  0  0
 22 23  2  0  0  0  0
 22 26  1  0  0  0  0
 23 24  1  0  0  0  0
 23 39  1  0  0  0  0
 24 25  1  0  0  0  0
 24 40  1  0  0  0  0
 25 26  2  0  0  0  0
 25 41  1  0  0  0  0
 26 42  1  0  0  0  0
 27 28  2  0  0  0  0
 27 43  1  0  0  0  0
 28 44  1  0  0  0  0
M  END
$$$$
