
 OpenBabel01122422483D

 43 46  0  0  0  0  0  0  0  0999 V2000
    1.0017    0.2955   -0.4588 O   0  0  0  0  0  0  0  0  0  0  0  0
    2.1333   -0.0161   -0.0877 C   0  0  0  0  0  0  0  0  0  0  0  0
    2.6799   -1.2842   -0.2055 N   0  0  0  0  0  0  0  0  0  0  0  0
    2.1074   -2.3645   -0.8231 C   0  0  0  0  0  0  0  0  0  0  0  0
    1.0562   -2.3104   -1.6765 C   0  0  0  0  0  0  0  0  0  0  0  0
    0.4791   -3.4928   -2.2998 C   0  0  0  0  0  0  0  0  0  0  0  0
   -0.6412   -3.3941   -3.2453 C   0  0  0  0  0  0  0  0  0  0  0  0
   -1.9548   -3.4387   -2.7818 C   0  0  0  0  0  0  0  0  0  0  0  0
   -2.9749   -3.2929   -3.7042 C   0  0  0  0  0  0  0  0  0  0  0  0
   -2.7715   -3.1053   -5.0262 N   0  0  0  0  0  0  0  0  0  0  0  0
   -1.4891   -3.0454   -5.4445 C   0  0  0  0  0  0  0  0  0  0  0  0
   -0.3992   -3.1805   -4.6028 C   0  0  0  0  0  0  0  0  0  0  0  0
    0.9974   -4.6976   -2.0084 C   0  0  0  0  0  0  0  0  0  0  0  0
    2.0648   -4.8031   -1.1461 N   0  0  0  0  0  0  0  0  0  0  0  0
    2.6781   -3.7281   -0.5457 C   0  0  0  0  0  0  0  0  0  0  0  0
    3.6621   -3.8388    0.1850 O   0  0  0  0  0  0  0  0  0  0  0  0
    2.9641    0.9506    0.6285 C   0  0  0  0  0  0  0  0  0  0  0  0
    4.2875    1.0903    0.2256 C   0  0  0  0  0  0  0  0  0  0  0  0
    5.1914    1.6194    1.1358 C   0  0  0  0  0  0  0  0  0  0  0  0
    6.5508    1.5937    0.8629 C   0  0  0  0  0  0  0  0  0  0  0  0
    7.4192    1.2866    1.8889 C   0  0  0  0  0  0  0  0  0  0  0  0
    6.9978    1.5319    3.1859 C   0  0  0  0  0  0  0  0  0  0  0  0
    5.6952    1.9951    3.4230 C   0  0  0  0  0  0  0  0  0  0  0  0
    4.7404    1.9434    2.4186 C   0  0  0  0  0  0  0  0  0  0  0  0
    3.4277    2.0747    2.6890 N   0  0  0  0  0  0  0  0  0  0  0  0
    2.5231    1.5996    1.7786 C   0  0  0  0  0  0  0  0  0  0  0  0
    1.0444    1.7893    2.0556 C   0  0  0  0  0  0  0  0  0  0  0  0
    0.7902    2.4905    3.2032 F   0  0  0  0  0  0  0  0  0  0  0  0
    0.4155    2.5005    1.0733 F   0  0  0  0  0  0  0  0  0  0  0  0
    3.5109   -1.5195    0.3216 H   0  0  0  0  0  0  0  0  0  0  0  0
    0.6016   -1.3648   -1.9587 H   0  0  0  0  0  0  0  0  0  0  0  0
   -2.1800   -3.5644   -1.7286 H   0  0  0  0  0  0  0  0  0  0  0  0
   -4.0155   -3.3165   -3.3943 H   0  0  0  0  0  0  0  0  0  0  0  0
   -1.3575   -2.8739   -6.5090 H   0  0  0  0  0  0  0  0  0  0  0  0
    0.6085   -3.1031   -4.9971 H   0  0  0  0  0  0  0  0  0  0  0  0
    0.6189   -5.6269   -2.4290 H   0  0  0  0  0  0  0  0  0  0  0  0
    2.4592   -5.7126   -0.9415 H   0  0  0  0  0  0  0  0  0  0  0  0
    4.6291    0.6348   -0.7025 H   0  0  0  0  0  0  0  0  0  0  0  0
    6.9285    2.0197   -0.0637 H   0  0  0  0  0  0  0  0  0  0  0  0
    8.4179    0.9209    1.6701 H   0  0  0  0  0  0  0  0  0  0  0  0
    7.6874    1.3955    4.0112 H   0  0  0  0  0  0  0  0  0  0  0  0
    5.4004    2.2834    4.4276 H   0  0  0  0  0  0  0  0  0  0  0  0
    0.5481    0.8180    2.1561 H   0  0  0  0  0  0  0  0  0  0  0  0
  1  2  2  0  0  0  0
  2  3  1  0  0  0  0
  2 17  1  0  0  0  0
  3  4  1  0  0  0  0
  3 30  1  0  0  0  0
  4  5  2  0  0  0  0
  4 15  1  0  0  0  0
  5  6  1  0  0  0  0
  5 31  1  0  0  0  0
  6  7  1  0  0  0  0
  6 13  2  0  0  0  0
  7  8  2  0  0  0  0
  7 12  1  0  0  0  0
  8  9  1  0  0  0  0
  8 32  1  0  0  0  0
  9 10  2  0  0  0  0
  9 33  1  0  0  0  0
 10 11  1  0  0  0  0
 11 12  2  0  0  0  0
 11 34  1  0  0  0  0
 12 35  1  0  0  0  0
 13 14  1  0  0  0  0
 13 36  1  0  0  0  0
 14 15  1  0  0  0  0
 14 37  1  0  0  0  0
 15 16  2  0  0  0  0
 17 18  2  0  0  0  0
 17 26  1  0  0  0  0
 18 19  1  0  0  0  0
 18 38  1  0  0  0  0
 19 20  2  0  0  0  0
 19 24  1  0  0  0  0
 20 21  1  0  0  0  0
 20 39  1  0  0  0  0
 21 22  2  0  0  0  0
 21 40  1  0  0  0  0
 22 23  1  0  0  0  0
 22 41  1  0  0  0  0
 23 24  2  0  0  0  0
 23 42  1  0  0  0  0
 24 25  1  0  0  0  0
 25 26  2  0  0  0  0
 26 27  1  0  0  0  0
 27 28  1  0  0  0  0
 27 29  1  0  0  0  0
 27 43  1  0  0  0  0
M  END
$$$$
