
 OpenBabel01122422483D

 48 51  0  0  0  0  0  0  0  0999 V2000
    1.1703   -0.0600    0.0315 O   0  0  0  0  0  0  0  0  0  0  0  0
    2.3901    0.0543    0.0527 C   0  0  0  0  0  0  0  0  0  0  0  0
    3.0776    1.0622   -0.5889 N   0  0  0  0  0  0  0  0  0  0  0  0
    2.3858    2.0433   -1.3952 C   0  0  0  0  0  0  0  0  0  0  0  0
    2.2689    1.6069   -2.8334 C   0  0  0  0  0  0  0  0  0  0  0  0
    1.1562    0.8755   -3.2593 C   0  0  0  0  0  0  0  0  0  0  0  0
    1.0540    0.4583   -4.5853 C   0  0  0  0  0  0  0  0  0  0  0  0
    2.0689    0.7645   -5.5048 C   0  0  0  0  0  0  0  0  0  0  0  0
    1.9955    0.3532   -6.8424 C   0  0  0  0  0  0  0  0  0  0  0  0
    3.0197    0.6789   -7.7216 C   0  0  0  0  0  0  0  0  0  0  0  0
    4.0856    1.4087   -7.2302 C   0  0  0  0  0  0  0  0  0  0  0  0
    4.1945    1.8186   -5.9458 N   0  0  0  0  0  0  0  0  0  0  0  0
    3.2010    1.5001   -5.0951 C   0  0  0  0  0  0  0  0  0  0  0  0
    3.2797    1.9008   -3.7649 C   0  0  0  0  0  0  0  0  0  0  0  0
    3.2219   -0.9582    0.7586 C   0  0  0  0  0  0  0  0  0  0  0  0
    2.7520   -2.2689    0.7999 C   0  0  0  0  0  0  0  0  0  0  0  0
    3.4979   -3.2644    1.4356 C   0  0  0  0  0  0  0  0  0  0  0  0
    4.7206   -2.9807    2.0526 C   0  0  0  0  0  0  0  0  0  0  0  0
    5.5108   -3.9662    2.7058 N   0  0  0  0  0  0  0  0  0  0  0  0
    5.1775   -5.3049    2.8256 C   0  0  0  0  0  0  0  0  0  0  0  0
    4.1749   -5.8321    2.3545 O   0  0  0  0  0  0  0  0  0  0  0  0
    6.1463   -6.1797    3.5694 C   0  0  0  0  0  0  0  0  0  0  0  0
    6.0769   -7.4925    3.2712 C   0  0  0  0  0  0  0  0  0  0  0  0
    6.8034   -8.4221    3.9731 N   0  0  0  0  0  0  0  0  0  0  0  0
    7.6165   -8.1133    5.0339 C   0  0  0  0  0  0  0  0  0  0  0  0
    8.2259   -8.9573    5.6776 O   0  0  0  0  0  0  0  0  0  0  0  0
    7.7061   -6.6651    5.3688 C   0  0  0  0  0  0  0  0  0  0  0  0
    7.0052   -5.7595    4.6627 C   0  0  0  0  0  0  0  0  0  0  0  0
    5.1788   -1.6552    2.0273 C   0  0  0  0  0  0  0  0  0  0  0  0
    4.4323   -0.6467    1.3888 C   0  0  0  0  0  0  0  0  0  0  0  0
    4.0737    0.9657   -0.7239 H   0  0  0  0  0  0  0  0  0  0  0  0
    2.9517    2.9787   -1.3275 H   0  0  0  0  0  0  0  0  0  0  0  0
    1.3917    2.2391   -0.9760 H   0  0  0  0  0  0  0  0  0  0  0  0
    0.3649    0.6219   -2.5546 H   0  0  0  0  0  0  0  0  0  0  0  0
    0.1796   -0.1101   -4.8937 H   0  0  0  0  0  0  0  0  0  0  0  0
    1.1450   -0.2210   -7.2008 H   0  0  0  0  0  0  0  0  0  0  0  0
    2.9866    0.3717   -8.7607 H   0  0  0  0  0  0  0  0  0  0  0  0
    4.9106    1.6937   -7.8769 H   0  0  0  0  0  0  0  0  0  0  0  0
    4.1575    2.4631   -3.4538 H   0  0  0  0  0  0  0  0  0  0  0  0
    1.8043   -2.5304    0.3341 H   0  0  0  0  0  0  0  0  0  0  0  0
    3.0724   -4.2617    1.4147 H   0  0  0  0  0  0  0  0  0  0  0  0
    6.3922   -3.6560    3.0896 H   0  0  0  0  0  0  0  0  0  0  0  0
    5.4281   -7.8916    2.4958 H   0  0  0  0  0  0  0  0  0  0  0  0
    6.7071   -9.4078    3.7566 H   0  0  0  0  0  0  0  0  0  0  0  0
    8.3361   -6.4088    6.2107 H   0  0  0  0  0  0  0  0  0  0  0  0
    7.0533   -4.7141    4.9405 H   0  0  0  0  0  0  0  0  0  0  0  0
    6.1134   -1.3781    2.5093 H   0  0  0  0  0  0  0  0  0  0  0  0
    4.7921    0.3783    1.4144 H   0  0  0  0  0  0  0  0  0  0  0  0
  1  2  2  0  0  0  0
  2  3  1  0  0  0  0
  2 15  1  0  0  0  0
  3  4  1  0  0  0  0
  3 31  1  0  0  0  0
  4  5  1  0  0  0  0
  4 32  1  0  0  0  0
  4 33  1  0  0  0  0
  5  6  2  0  0  0  0
  5 14  1  0  0  0  0
  6  7  1  0  0  0  0
  6 34  1  0  0  0  0
  7  8  2  0  0  0  0
  7 35  1  0  0  0  0
  8  9  1  0  0  0  0
  8 13  1  0  0  0  0
  9 10  2  0  0  0  0
  9 36  1  0  0  0  0
 10 11  1  0  0  0  0
 10 37  1  0  0  0  0
 11 12  2  0  0  0  0
 11 38  1  0  0  0  0
 12 13  1  0  0  0  0
 13 14  2  0  0  0  0
 14 39  1  0  0  0  0
 15 16  2  0  0  0  0
 15 30  1  0  0  0  0
 16 17  1  0  0  0  0
 16 40  1  0  0  0  0
 17 18  2  0  0  0  0
 17 41  1  0  0  0  0
 18 19  1  0  0  0  0
 18 29  1  0  0  0  0
 19 20  1  0  0  0  0
 19 42  1  0  0  0  0
 20 21  2  0  0  0  0
 20 22  1  0  0  0  0
 22 23  2  0  0  0  0
 22 28  1  0  0  0  0
 23 24  1  0  0  0  0
 23 43  1  0  0  0  0
 24 25  1  0  0  0  0
 24 44  1  0  0  0  0
 25 26  2  0  0  0  0
 25 27  1  0  0  0  0
 27 28  2  0  0  0  0
 27 45  1  0  0  0  0
 28 46  1  0  0  0  0
 29 30  2  0  0  0  0
 29 47  1  0  0  0  0
 30 48  1  0  0  0  0
M  END
$$$$
