
 OpenBabel01122422483D

 49 52  0  0  0  0  0  0  0  0999 V2000
    0.9875    0.0322   -0.0074 O   0  0  0  0  0  0  0  0  0  0  0  0
    2.2027   -0.1022    0.1193 C   0  0  0  0  0  0  0  0  0  0  0  0
    2.8449   -1.2965   -0.0015 N   0  0  0  0  0  0  0  0  0  0  0  0
    2.1861   -2.5500   -0.3258 C   0  0  0  0  0  0  0  0  0  0  0  0
    1.7840   -3.3462    0.9020 C   0  0  0  0  0  0  0  0  0  0  0  0
    0.8576   -2.8476    1.8297 C   0  0  0  0  0  0  0  0  0  0  0  0
    0.5805   -3.5382    3.0174 C   0  0  0  0  0  0  0  0  0  0  0  0
    1.1468   -4.7902    3.2651 C   0  0  0  0  0  0  0  0  0  0  0  0
    0.8297   -5.5021    4.5189 C   0  0  0  0  0  0  0  0  0  0  0  0
   -0.2397   -6.3216    4.5476 C   0  0  0  0  0  0  0  0  0  0  0  0
   -0.5844   -7.0024    5.6933 N   0  0  0  0  0  0  0  0  0  0  0  0
    0.1053   -6.9005    6.8737 C   0  0  0  0  0  0  0  0  0  0  0  0
   -0.2193   -7.5106    7.8940 O   0  0  0  0  0  0  0  0  0  0  0  0
    1.2829   -5.9979    6.8688 C   0  0  0  0  0  0  0  0  0  0  0  0
    1.6016   -5.3409    5.7439 C   0  0  0  0  0  0  0  0  0  0  0  0
    2.0127   -5.3355    2.3087 C   0  0  0  0  0  0  0  0  0  0  0  0
    2.3387   -4.6130    1.1480 C   0  0  0  0  0  0  0  0  0  0  0  0
    2.9628    0.9469    0.5711 N   0  0  0  0  0  0  0  0  0  0  0  0
    4.3524    0.9946    0.7265 C   0  0  0  0  0  0  0  0  0  0  0  0
    5.0780    0.7021   -0.3683 N   0  0  0  0  0  0  0  0  0  0  0  0
    6.3945    0.9296   -0.2896 C   0  0  0  0  0  0  0  0  0  0  0  0
    7.0523    1.3712    0.7849 N   0  0  0  0  0  0  0  0  0  0  0  0
    6.2948    1.5719    1.8792 C   0  0  0  0  0  0  0  0  0  0  0  0
    4.9122    1.4022    1.9408 C   0  0  0  0  0  0  0  0  0  0  0  0
    4.2050    1.4681    3.2415 C   0  0  0  0  0  0  0  0  0  0  0  0
    4.6526    2.3155    4.2709 C   0  0  0  0  0  0  0  0  0  0  0  0
    4.1439    2.2159    5.5687 C   0  0  0  0  0  0  0  0  0  0  0  0
    3.1803    1.2589    5.8680 C   0  0  0  0  0  0  0  0  0  0  0  0
    2.6696    0.4555    4.8579 C   0  0  0  0  0  0  0  0  0  0  0  0
    3.1575    0.5807    3.5569 C   0  0  0  0  0  0  0  0  0  0  0  0
    3.7944   -1.3399    0.3312 H   0  0  0  0  0  0  0  0  0  0  0  0
    2.9202   -3.1223   -0.9078 H   0  0  0  0  0  0  0  0  0  0  0  0
    1.3246   -2.3670   -0.9750 H   0  0  0  0  0  0  0  0  0  0  0  0
    0.3413   -1.9064    1.6490 H   0  0  0  0  0  0  0  0  0  0  0  0
   -0.0838   -3.0833    3.7486 H   0  0  0  0  0  0  0  0  0  0  0  0
   -0.8765   -6.4954    3.6870 H   0  0  0  0  0  0  0  0  0  0  0  0
   -1.3861   -7.6075    5.7047 H   0  0  0  0  0  0  0  0  0  0  0  0
    1.8451   -5.9124    7.7882 H   0  0  0  0  0  0  0  0  0  0  0  0
    2.4562   -4.6724    5.7265 H   0  0  0  0  0  0  0  0  0  0  0  0
    2.4514   -6.3187    2.4616 H   0  0  0  0  0  0  0  0  0  0  0  0
    3.0379   -5.0520    0.4377 H   0  0  0  0  0  0  0  0  0  0  0  0
    2.4198    1.7041    0.9641 H   0  0  0  0  0  0  0  0  0  0  0  0
    6.9790    0.7426   -1.1815 H   0  0  0  0  0  0  0  0  0  0  0  0
    6.8775    1.8611    2.7532 H   0  0  0  0  0  0  0  0  0  0  0  0
    5.4371    3.0468    4.0871 H   0  0  0  0  0  0  0  0  0  0  0  0
    4.5284    2.8643    6.3512 H   0  0  0  0  0  0  0  0  0  0  0  0
    2.8349    1.1317    6.8898 H   0  0  0  0  0  0  0  0  0  0  0  0
    1.9187   -0.2987    5.0786 H   0  0  0  0  0  0  0  0  0  0  0  0
    2.7282   -0.0821    2.8113 H   0  0  0  0  0  0  0  0  0  0  0  0
  1  2  2  0  0  0  0
  2  3  1  0  0  0  0
  2 18  1  0  0  0  0
  3  4  1  0  0  0  0
  3 31  1  0  0  0  0
  4  5  1  0  0  0  0
  4 32  1  0  0  0  0
  4 33  1  0  0  0  0
  5  6  2  0  0  0  0
  5 17  1  0  0  0  0
  6  7  1  0  0  0  0
  6 34  1  0  0  0  0
  7  8  2  0  0  0  0
  7 35  1  0  0  0  0
  8  9  1  0  0  0  0
  8 16  1  0  0  0  0
  9 10  2  0  0  0  0
  9 15  1  0  0  0  0
 10 11  1  0  0  0  0
 10 36  1  0  0  0  0
 11 12  1  0  0  0  0
 11 37  1  0  0  0  0
 12 13  2  0  0  0  0
 12 14  1  0  0  0  0
 14 15  2  0  0  0  0
 14 38  1  0  0  0  0
 15 39  1  0  0  0  0
 16 17  2  0  0  0  0
 16 40  1  0  0  0  0
 17 41  1  0  0  0  0
 18 19  1  0  0  0  0
 18 42  1  0  0  0  0
 19 20  2  0  0  0  0
 19 24  1  0  0  0  0
 20 21  1  0  0  0  0
 21 22  2  0  0  0  0
 21 43  1  0  0  0  0
 22 23  1  0  0  0  0
 23 24  2  0  0  0  0
 23 44  1  0  0  0  0
 24 25  1  0  0  0  0
 25 26  2  0  0  0  0
 25 30  1  0  0  0  0
 26 27  1  0  0  0  0
 26 45  1  0  0  0  0
 27 28  2  0  0  0  0
 27 46  1  0  0  0  0
 28 29  1  0  0  0  0
 28 47  1  0  0  0  0
 29 30  2  0  0  0  0
 29 48  1  0  0  0  0
 30 49  1  0  0  0  0
M  END
$$$$
