
 OpenBabel01122422483D

 48 51  0  0  0  0  0  0  0  0999 V2000
    2.6480   -0.1090   -0.3947 C   0  0  0  0  0  0  0  0  0  0  0  0
    1.1726   -0.0501   -0.0954 C   0  0  0  0  0  0  0  0  0  0  0  0
    0.5094    1.1959    0.0027 C   0  0  0  0  0  0  0  0  0  0  0  0
    1.1525    2.4558   -0.0128 N   0  0  0  0  0  0  0  0  0  0  0  0
    2.1922    2.8319    0.8347 C   0  0  0  0  0  0  0  0  0  0  0  0
    2.7298    2.1148    1.6664 O   0  0  0  0  0  0  0  0  0  0  0  0
    2.5649    4.2739    0.7068 C   0  0  0  0  0  0  0  0  0  0  0  0
    2.6267    4.8022   -0.5841 C   0  0  0  0  0  0  0  0  0  0  0  0
    2.8146    6.1093   -0.8798 N   0  0  0  0  0  0  0  0  0  0  0  0
    2.9741    6.9437    0.1719 C   0  0  0  0  0  0  0  0  0  0  0  0
    2.9845    6.5119    1.4896 C   0  0  0  0  0  0  0  0  0  0  0  0
    2.7991    5.1464    1.7862 C   0  0  0  0  0  0  0  0  0  0  0  0
    2.8618    4.7503    3.2045 C   0  0  0  0  0  0  0  0  0  0  0  0
    3.0748    5.6734    4.1568 C   0  0  0  0  0  0  0  0  0  0  0  0
    3.2103    6.9984    3.8507 N   0  0  0  0  0  0  0  0  0  0  0  0
    3.1703    7.5048    2.5715 C   0  0  0  0  0  0  0  0  0  0  0  0
    3.2794    8.7025    2.3378 O   0  0  0  0  0  0  0  0  0  0  0  0
   -0.8933    1.2546    0.0319 C   0  0  0  0  0  0  0  0  0  0  0  0
   -1.6562    0.0951    0.0648 C   0  0  0  0  0  0  0  0  0  0  0  0
   -1.0185   -1.1377    0.0488 C   0  0  0  0  0  0  0  0  0  0  0  0
    0.3852   -1.2303   -0.0333 C   0  0  0  0  0  0  0  0  0  0  0  0
    0.9062   -2.6334   -0.1430 C   0  0  0  0  0  0  0  0  0  0  0  0
    0.2291   -3.4383   -0.7750 O   0  0  0  0  0  0  0  0  0  0  0  0
    2.0854   -2.9077    0.5234 N   0  0  0  0  0  0  0  0  0  0  0  0
    2.7404   -4.1573    0.6191 C   0  0  0  0  0  0  0  0  0  0  0  0
    2.2408   -5.3468    0.0834 C   0  0  0  0  0  0  0  0  0  0  0  0
    2.9009   -6.5606    0.3034 C   0  0  0  0  0  0  0  0  0  0  0  0
    4.0802   -6.5937    1.0419 C   0  0  0  0  0  0  0  0  0  0  0  0
    4.6145   -5.4085    1.5395 C   0  0  0  0  0  0  0  0  0  0  0  0
    3.9482   -4.1970    1.3287 C   0  0  0  0  0  0  0  0  0  0  0  0
    2.9891    0.7871   -0.9216 H   0  0  0  0  0  0  0  0  0  0  0  0
    2.8783   -0.9396   -1.0709 H   0  0  0  0  0  0  0  0  0  0  0  0
    3.2279   -0.2187    0.5254 H   0  0  0  0  0  0  0  0  0  0  0  0
    0.5733    3.2174   -0.3491 H   0  0  0  0  0  0  0  0  0  0  0  0
    2.5163    4.1657   -1.4612 H   0  0  0  0  0  0  0  0  0  0  0  0
    3.1003    7.9930   -0.0846 H   0  0  0  0  0  0  0  0  0  0  0  0
    2.7704    3.7048    3.4774 H   0  0  0  0  0  0  0  0  0  0  0  0
    3.1478    5.4107    5.2074 H   0  0  0  0  0  0  0  0  0  0  0  0
    3.3560    7.6795    4.5900 H   0  0  0  0  0  0  0  0  0  0  0  0
   -1.4100    2.2115    0.0620 H   0  0  0  0  0  0  0  0  0  0  0  0
   -2.7405    0.1507    0.1030 H   0  0  0  0  0  0  0  0  0  0  0  0
   -1.6252   -2.0430    0.0700 H   0  0  0  0  0  0  0  0  0  0  0  0
    2.4994   -2.1574    1.0589 H   0  0  0  0  0  0  0  0  0  0  0  0
    1.3226   -5.3733   -0.4939 H   0  0  0  0  0  0  0  0  0  0  0  0
    2.4807   -7.4803   -0.0958 H   0  0  0  0  0  0  0  0  0  0  0  0
    4.5798   -7.5409    1.2273 H   0  0  0  0  0  0  0  0  0  0  0  0
    5.5444   -5.4273    2.1015 H   0  0  0  0  0  0  0  0  0  0  0  0
    4.3873   -3.2876    1.7302 H   0  0  0  0  0  0  0  0  0  0  0  0
  1  2  1  0  0  0  0
  1 31  1  0  0  0  0
  1 32  1  0  0  0  0
  1 33  1  0  0  0  0
  2  3  2  0  0  0  0
  2 21  1  0  0  0  0
  3  4  1  0  0  0  0
  3 18  1  0  0  0  0
  4  5  1  0  0  0  0
  4 34  1  0  0  0  0
  5  6  2  0  0  0  0
  5  7  1  0  0  0  0
  7  8  2  0  0  0  0
  7 12  1  0  0  0  0
  8  9  1  0  0  0  0
  8 35  1  0  0  0  0
  9 10  2  0  0  0  0
 10 11  1  0  0  0  0
 10 36  1  0  0  0  0
 11 12  2  0  0  0  0
 11 16  1  0  0  0  0
 12 13  1  0  0  0  0
 13 14  2  0  0  0  0
 13 37  1  0  0  0  0
 14 15  1  0  0  0  0
 14 38  1  0  0  0  0
 15 16  1  0  0  0  0
 15 39  1  0  0  0  0
 16 17  2  0  0  0  0
 18 19  2  0  0  0  0
 18 40  1  0  0  0  0
 19 20  1  0  0  0  0
 19 41  1  0  0  0  0
 20 21  2  0  0  0  0
 20 42  1  0  0  0  0
 21 22  1  0  0  0  0
 22 23  2  0  0  0  0
 22 24  1  0  0  0  0
 24 25  1  0  0  0  0
 24 43  1  0  0  0  0
 25 26  2  0  0  0  0
 25 30  1  0  0  0  0
 26 27  1  0  0  0  0
 26 44  1  0  0  0  0
 27 28  2  0  0  0  0
 27 45  1  0  0  0  0
 28 29  1  0  0  0  0
 28 46  1  0  0  0  0
 29 30  2  0  0  0  0
 29 47  1  0  0  0  0
 30 48  1  0  0  0  0
M  END
$$$$
