
 OpenBabel01122422483D

 39 42  0  0  0  0  0  0  0  0999 V2000
    4.0525    1.8365    1.2140 N   0  0  0  0  0  0  0  0  0  0  0  0
    4.4008    0.7849    0.4186 C   0  0  0  0  0  0  0  0  0  0  0  0
    4.9438   -0.2113    0.8972 O   0  0  0  0  0  0  0  0  0  0  0  0
    4.0911    0.9361   -0.9823 C   0  0  0  0  0  0  0  0  0  0  0  0
    4.3549    0.1013   -2.0542 C   0  0  0  0  0  0  0  0  0  0  0  0
    4.9822   -1.1276   -1.9018 N   0  0  0  0  0  0  0  0  0  0  0  0
    5.9973   -1.5891   -2.7239 C   0  0  0  0  0  0  0  0  0  0  0  0
    6.4321   -0.9813   -3.6979 O   0  0  0  0  0  0  0  0  0  0  0  0
    6.5690   -2.8363   -2.2610 C   0  0  0  0  0  0  0  0  0  0  0  0
    7.6884   -3.5502   -2.6253 C   0  0  0  0  0  0  0  0  0  0  0  0
    7.6622   -4.7258   -1.8218 C   0  0  0  0  0  0  0  0  0  0  0  0
    8.5954   -5.8491   -1.8078 C   0  0  0  0  0  0  0  0  0  0  0  0
    9.9541   -5.6659   -2.0879 C   0  0  0  0  0  0  0  0  0  0  0  0
   10.4354   -4.4476   -2.3749 F   0  0  0  0  0  0  0  0  0  0  0  0
   10.8552   -6.7313   -2.0669 C   0  0  0  0  0  0  0  0  0  0  0  0
   10.3931   -8.0022   -1.7603 C   0  0  0  0  0  0  0  0  0  0  0  0
   11.2531   -9.0291   -1.7383 F   0  0  0  0  0  0  0  0  0  0  0  0
    9.0554   -8.2231   -1.4822 C   0  0  0  0  0  0  0  0  0  0  0  0
    8.1666   -7.1514   -1.5061 C   0  0  0  0  0  0  0  0  0  0  0  0
    6.8752   -7.4141   -1.2591 F   0  0  0  0  0  0  0  0  0  0  0  0
    6.6014   -4.6894   -1.0007 N   0  0  0  0  0  0  0  0  0  0  0  0
    5.9289   -3.5220   -1.2738 O   0  0  0  0  0  0  0  0  0  0  0  0
    3.8143    0.7431   -3.2092 C   0  0  0  0  0  0  0  0  0  0  0  0
    3.6333    0.4297   -4.5710 C   0  0  0  0  0  0  0  0  0  0  0  0
    2.9617    1.3397   -5.3992 C   0  0  0  0  0  0  0  0  0  0  0  0
    2.4937    2.5613   -4.9003 C   0  0  0  0  0  0  0  0  0  0  0  0
    2.6589    2.8948   -3.5573 C   0  0  0  0  0  0  0  0  0  0  0  0
    3.2978    1.9539   -2.7535 C   0  0  0  0  0  0  0  0  0  0  0  0
    3.4812    2.0816   -1.4115 O   0  0  0  0  0  0  0  0  0  0  0  0
    4.2607    1.7933    2.1991 H   0  0  0  0  0  0  0  0  0  0  0  0
    3.6145    2.6580    0.8178 H   0  0  0  0  0  0  0  0  0  0  0  0
    4.9907   -1.5052   -0.9525 H   0  0  0  0  0  0  0  0  0  0  0  0
    8.4124   -3.2638   -3.3747 H   0  0  0  0  0  0  0  0  0  0  0  0
   11.9041   -6.5664   -2.2827 H   0  0  0  0  0  0  0  0  0  0  0  0
    8.6980   -9.2229   -1.2469 H   0  0  0  0  0  0  0  0  0  0  0  0
    3.9808   -0.5216   -4.9721 H   0  0  0  0  0  0  0  0  0  0  0  0
    2.7981    1.0928   -6.4469 H   0  0  0  0  0  0  0  0  0  0  0  0
    1.9758    3.2488   -5.5709 H   0  0  0  0  0  0  0  0  0  0  0  0
    2.2884    3.8281   -3.1482 H   0  0  0  0  0  0  0  0  0  0  0  0
  1  2  1  0  0  0  0
  1 30  1  0  0  0  0
  1 31  1  0  0  0  0
  2  3  2  0  0  0  0
  2  4  1  0  0  0  0
  4  5  2  0  0  0  0
  4 29  1  0  0  0  0
  5  6  1  0  0  0  0
  5 23  1  0  0  0  0
  6  7  1  0  0  0  0
  6 32  1  0  0  0  0
  7  8  2  0  0  0  0
  7  9  1  0  0  0  0
  9 10  2  0  0  0  0
  9 22  1  0  0  0  0
 10 11  1  0  0  0  0
 10 33  1  0  0  0  0
 11 12  1  0  0  0  0
 11 21  2  0  0  0  0
 12 13  2  0  0  0  0
 12 19  1  0  0  0  0
 13 14  1  0  0  0  0
 13 15  1  0  0  0  0
 15 16  2  0  0  0  0
 15 34  1  0  0  0  0
 16 17  1  0  0  0  0
 16 18  1  0  0  0  0
 18 19  2  0  0  0  0
 18 35  1  0  0  0  0
 19 20  1  0  0  0  0
 21 22  1  0  0  0  0
 23 24  2  0  0  0  0
 23 28  1  0  0  0  0
 24 25  1  0  0  0  0
 24 36  1  0  0  0  0
 25 26  2  0  0  0  0
 25 37  1  0  0  0  0
 26 27  1  0  0  0  0
 26 38  1  0  0  0  0
 27 28  2  0  0  0  0
 27 39  1  0  0  0  0
 28 29  1  0  0  0  0
M  END
$$$$
