
 OpenBabel01122422483D

 56 59  0  0  1  0  0  0  0  0999 V2000
    2.4061   -1.4809    1.2322 C   0  0  0  0  0  0  0  0  0  0  0  0
    3.2192   -0.3739    1.6697 N   0  0  0  0  0  0  0  0  0  0  0  0
    4.3539   -0.4858    2.4260 C   0  0  0  0  0  0  0  0  0  0  0  0
    4.8151    0.7991    2.5687 C   0  0  0  0  0  0  0  0  0  0  0  0
    3.9718    1.6875    1.9552 N   0  0  0  0  0  0  0  0  0  0  0  0
    2.9845    0.9666    1.4557 C   0  0  0  0  0  0  0  0  0  0  0  0
    1.7072    1.5158    0.8975 C   0  0  0  0  0  0  0  0  0  0  0  0
    1.8870    2.5328   -0.2529 C   0  0  3  0  0  0  0  0  0  0  0  0
    2.4199    1.9549   -1.4862 N   0  0  0  0  0  0  0  0  0  0  0  0
    1.8193    0.9560   -2.2106 C   0  0  0  0  0  0  0  0  0  0  0  0
    0.8066    0.3606   -1.8464 O   0  0  0  0  0  0  0  0  0  0  0  0
    2.5392    0.5765   -3.5090 C   0  0  0  0  0  0  0  0  0  0  0  0
    3.6768    1.3932   -3.7854 O   0  0  0  0  0  0  0  0  0  0  0  0
    4.4151    1.0344   -4.8855 C   0  0  0  0  0  0  0  0  0  0  0  0
    4.5073   -0.2619   -5.3999 C   0  0  0  0  0  0  0  0  0  0  0  0
    5.3445   -0.5336   -6.4833 C   0  0  0  0  0  0  0  0  0  0  0  0
    6.0839    0.4901   -7.0686 C   0  0  0  0  0  0  0  0  0  0  0  0
    5.9573    1.7997   -6.6018 C   0  0  0  0  0  0  0  0  0  0  0  0
    6.6478    2.8620   -7.1463 O   0  0  0  0  0  0  0  0  0  0  0  0
    6.7916    2.9088   -8.5323 C   0  0  0  0  0  0  0  0  0  0  0  0
    7.8748    3.6247   -9.0215 C   0  0  0  0  0  0  0  0  0  0  0  0
    8.0608    3.6778  -10.4019 C   0  0  0  0  0  0  0  0  0  0  0  0
    7.1649    3.0194  -11.2385 C   0  0  0  0  0  0  0  0  0  0  0  0
    6.1029    2.3475  -10.6584 C   0  0  0  0  0  0  0  0  0  0  0  0
    5.8871    2.2910   -9.3261 N   0  0  0  0  0  0  0  0  0  0  0  0
    5.1566    2.0604   -5.4828 C   0  0  0  0  0  0  0  0  0  0  0  0
    0.6185    3.3402   -0.5513 C   0  0  0  0  0  0  0  0  0  0  0  0
    0.7217    4.6165   -1.1304 C   0  0  0  0  0  0  0  0  0  0  0  0
   -0.4195    5.3757   -1.4094 C   0  0  0  0  0  0  0  0  0  0  0  0
   -1.6863    4.8722   -1.1133 C   0  0  0  0  0  0  0  0  0  0  0  0
   -1.8116    3.6049   -0.5536 C   0  0  0  0  0  0  0  0  0  0  0  0
   -0.6698    2.8440   -0.2863 C   0  0  0  0  0  0  0  0  0  0  0  0
    2.8319   -2.4187    1.6054 H   0  0  0  0  0  0  0  0  0  0  0  0
    2.4031   -1.4960    0.1382 H   0  0  0  0  0  0  0  0  0  0  0  0
    1.3954   -1.3616    1.6260 H   0  0  0  0  0  0  0  0  0  0  0  0
    4.7255   -1.4330    2.7915 H   0  0  0  0  0  0  0  0  0  0  0  0
    5.6971    1.1322    3.0997 H   0  0  0  0  0  0  0  0  0  0  0  0
    1.2096    2.0212    1.7370 H   0  0  0  0  0  0  0  0  0  0  0  0
    1.0435    0.7006    0.5990 H   0  0  0  0  0  0  0  0  0  0  0  0
    2.6474    3.2583    0.0692 H   0  0  0  0  0  0  0  0  0  0  0  0
    3.2811    2.3400   -1.8592 H   0  0  0  0  0  0  0  0  0  0  0  0
    1.8171    0.6764   -4.3280 H   0  0  0  0  0  0  0  0  0  0  0  0
    2.8271   -0.4698   -3.3699 H   0  0  0  0  0  0  0  0  0  0  0  0
    3.9641   -1.0965   -4.9723 H   0  0  0  0  0  0  0  0  0  0  0  0
    5.4216   -1.5453   -6.8738 H   0  0  0  0  0  0  0  0  0  0  0  0
    6.7377    0.2579   -7.9049 H   0  0  0  0  0  0  0  0  0  0  0  0
    8.5590    4.1234   -8.3465 H   0  0  0  0  0  0  0  0  0  0  0  0
    8.9008    4.2231  -10.8220 H   0  0  0  0  0  0  0  0  0  0  0  0
    7.2886    3.0299  -12.3155 H   0  0  0  0  0  0  0  0  0  0  0  0
    5.3756    1.8136  -11.2653 H   0  0  0  0  0  0  0  0  0  0  0  0
    5.0967    3.0720   -5.0896 H   0  0  0  0  0  0  0  0  0  0  0  0
    1.6985    5.0310   -1.3704 H   0  0  0  0  0  0  0  0  0  0  0  0
   -0.3254    6.3607   -1.8575 H   0  0  0  0  0  0  0  0  0  0  0  0
   -2.5749    5.4583   -1.3276 H   0  0  0  0  0  0  0  0  0  0  0  0
   -2.7939    3.1998   -0.3311 H   0  0  0  0  0  0  0  0  0  0  0  0
   -0.8127    1.8483    0.1261 H   0  0  0  0  0  0  0  0  0  0  0  0
  1  2  1  0  0  0  0
  1 33  1  0  0  0  0
  1 34  1  0  0  0  0
  1 35  1  0  0  0  0
  2  3  1  0  0  0  0
  2  6  1  0  0  0  0
  3  4  2  0  0  0  0
  3 36  1  0  0  0  0
  4  5  1  0  0  0  0
  4 37  1  0  0  0  0
  5  6  2  0  0  0  0
  6  7  1  0  0  0  0
  7  8  1  0  0  0  0
  7 38  1  0  0  0  0
  7 39  1  0  0  0  0
  8  9  1  0  0  0  0
  8 27  1  0  0  0  0
  8 40  1  0  0  0  0
  9 10  1  0  0  0  0
  9 41  1  0  0  0  0
 10 11  2  0  0  0  0
 10 12  1  0  0  0  0
 12 13  1  0  0  0  0
 12 42  1  0  0  0  0
 12 43  1  0  0  0  0
 13 14  1  0  0  0  0
 14 15  2  0  0  0  0
 14 26  1  0  0  0  0
 15 16  1  0  0  0  0
 15 44  1  0  0  0  0
 16 17  2  0  0  0  0
 16 45  1  0  0  0  0
 17 18  1  0  0  0  0
 17 46  1  0  0  0  0
 18 19  1  0  0  0  0
 18 26  2  0  0  0  0
 19 20  1  0  0  0  0
 20 21  2  0  0  0  0
 20 25  1  0  0  0  0
 21 22  1  0  0  0  0
 21 47  1  0  0  0  0
 22 23  2  0  0  0  0
 22 48  1  0  0  0  0
 23 24  1  0  0  0  0
 23 49  1  0  0  0  0
 24 25  2  0  0  0  0
 24 50  1  0  0  0  0
 26 51  1  0  0  0  0
 27 28  2  0  0  0  0
 27 32  1  0  0  0  0
 28 29  1  0  0  0  0
 28 52  1  0  0  0  0
 29 30  2  0  0  0  0
 29 53  1  0  0  0  0
 30 31  1  0  0  0  0
 30 54  1  0  0  0  0
 31 32  2  0  0  0  0
 31 55  1  0  0  0  0
 32 56  1  0  0  0  0
M  END
$$$$
