
 OpenBabel01122422453D

 47 50  0  0  0  0  0  0  0  0999 V2000
    1.0906    0.3029    0.6779 O   0  0  0  0  0  0  0  0  0  0  0  0
    2.2275    0.1558    0.2425 C   0  0  0  0  0  0  0  0  0  0  0  0
    2.7767    0.8476   -0.8157 N   0  0  0  0  0  0  0  0  0  0  0  0
    2.0610    1.7979   -1.5437 C   0  0  0  0  0  0  0  0  0  0  0  0
    1.2902    2.7723   -0.9276 C   0  0  0  0  0  0  0  0  0  0  0  0
    0.5437    3.6275   -1.7295 C   0  0  0  0  0  0  0  0  0  0  0  0
    0.5656    3.4559   -3.1098 C   0  0  0  0  0  0  0  0  0  0  0  0
    1.3957    2.4771   -3.6525 C   0  0  0  0  0  0  0  0  0  0  0  0
    1.4389    2.2459   -5.1439 C   0  0  0  0  0  0  0  0  0  0  0  0
    0.4897    1.1899   -5.6680 C   0  0  0  0  0  0  0  0  0  0  0  0
    0.5635   -0.1317   -5.2251 C   0  0  0  0  0  0  0  0  0  0  0  0
   -0.2262   -1.1003   -5.8429 C   0  0  0  0  0  0  0  0  0  0  0  0
   -1.0719   -0.7314   -6.8792 C   0  0  0  0  0  0  0  0  0  0  0  0
   -1.1062    0.6041   -7.2456 C   0  0  0  0  0  0  0  0  0  0  0  0
   -0.3485    1.5653   -6.6701 N   0  0  0  0  0  0  0  0  0  0  0  0
    2.1826    1.6824   -2.8803 N   0  0  0  0  0  0  0  0  0  0  0  0
    3.1212   -0.9154    0.7886 C   0  0  0  0  0  0  0  0  0  0  0  0
    2.5612   -2.0048    1.3428 C   0  0  0  0  0  0  0  0  0  0  0  0
    3.3278   -3.0518    1.8586 N   0  0  0  0  0  0  0  0  0  0  0  0
    2.7086   -4.2110    2.4192 C   0  0  0  0  0  0  0  0  0  0  0  0
    1.7044   -4.0866    3.3909 C   0  0  0  0  0  0  0  0  0  0  0  0
    1.1543   -5.2301    3.9779 C   0  0  0  0  0  0  0  0  0  0  0  0
    1.5745   -6.4932    3.5655 C   0  0  0  0  0  0  0  0  0  0  0  0
    1.0411   -7.5820    4.1277 F   0  0  0  0  0  0  0  0  0  0  0  0
    2.5389   -6.6322    2.5771 C   0  0  0  0  0  0  0  0  0  0  0  0
    3.1161   -5.4928    2.0176 C   0  0  0  0  0  0  0  0  0  0  0  0
    4.7338   -2.9945    1.8596 C   0  0  0  0  0  0  0  0  0  0  0  0
    5.5007   -3.8347    2.3256 O   0  0  0  0  0  0  0  0  0  0  0  0
    5.3310   -1.7608    1.2806 C   0  0  0  0  0  0  0  0  0  0  0  0
    4.5601   -0.7916    0.7948 C   0  0  0  0  0  0  0  0  0  0  0  0
    3.4819    0.3821   -1.3693 H   0  0  0  0  0  0  0  0  0  0  0  0
    1.2715    2.8777    0.1519 H   0  0  0  0  0  0  0  0  0  0  0  0
   -0.0682    4.4042   -1.2789 H   0  0  0  0  0  0  0  0  0  0  0  0
   -0.0553    4.0781   -3.7476 H   0  0  0  0  0  0  0  0  0  0  0  0
    2.4583    1.9528   -5.4274 H   0  0  0  0  0  0  0  0  0  0  0  0
    1.2485    3.1951   -5.6593 H   0  0  0  0  0  0  0  0  0  0  0  0
    1.2418   -0.4144   -4.4257 H   0  0  0  0  0  0  0  0  0  0  0  0
   -0.1671   -2.1381   -5.5273 H   0  0  0  0  0  0  0  0  0  0  0  0
   -1.6820   -1.4631   -7.3956 H   0  0  0  0  0  0  0  0  0  0  0  0
   -1.7537    0.9458   -8.0475 H   0  0  0  0  0  0  0  0  0  0  0  0
    1.4823   -2.1360    1.3643 H   0  0  0  0  0  0  0  0  0  0  0  0
    1.3943   -3.1078    3.7487 H   0  0  0  0  0  0  0  0  0  0  0  0
    0.4159   -5.1462    4.7702 H   0  0  0  0  0  0  0  0  0  0  0  0
    2.8472   -7.6223    2.2587 H   0  0  0  0  0  0  0  0  0  0  0  0
    3.8801   -5.6118    1.2506 H   0  0  0  0  0  0  0  0  0  0  0  0
    6.4141   -1.6996    1.3192 H   0  0  0  0  0  0  0  0  0  0  0  0
    5.0247    0.1148    0.4030 H   0  0  0  0  0  0  0  0  0  0  0  0
  1  2  2  0  0  0  0
  2  3  1  0  0  0  0
  2 17  1  0  0  0  0
  3  4  1  0  0  0  0
  3 31  1  0  0  0  0
  4  5  2  0  0  0  0
  4 16  1  0  0  0  0
  5  6  1  0  0  0  0
  5 32  1  0  0  0  0
  6  7  2  0  0  0  0
  6 33  1  0  0  0  0
  7  8  1  0  0  0  0
  7 34  1  0  0  0  0
  8  9  1  0  0  0  0
  8 16  2  0  0  0  0
  9 10  1  0  0  0  0
  9 35  1  0  0  0  0
  9 36  1  0  0  0  0
 10 11  2  0  0  0  0
 10 15  1  0  0  0  0
 11 12  1  0  0  0  0
 11 37  1  0  0  0  0
 12 13  2  0  0  0  0
 12 38  1  0  0  0  0
 13 14  1  0  0  0  0
 13 39  1  0  0  0  0
 14 15  2  0  0  0  0
 14 40  1  0  0  0  0
 17 18  2  0  0  0  0
 17 30  1  0  0  0  0
 18 19  1  0  0  0  0
 18 41  1  0  0  0  0
 19 20  1  0  0  0  0
 19 27  1  0  0  0  0
 20 21  2  0  0  0  0
 20 26  1  0  0  0  0
 21 22  1  0  0  0  0
 21 42  1  0  0  0  0
 22 23  2  0  0  0  0
 22 43  1  0  0  0  0
 23 24  1  0  0  0  0
 23 25  1  0  0  0  0
 25 26  2  0  0  0  0
 25 44  1  0  0  0  0
 26 45  1  0  0  0  0
 27 28  2  0  0  0  0
 27 29  1  0  0  0  0
 29 30  2  0  0  0  0
 29 46  1  0  0  0  0
 30 47  1  0  0  0  0
M  END
$$$$
