
 OpenBabel01122422453D

 47 50  0  0  0  0  0  0  0  0999 V2000
    4.4543    0.4220    5.5179 C   0  0  0  0  0  0  0  0  0  0  0  0
    4.9846    0.3326    4.1237 C   0  0  0  0  0  0  0  0  0  0  0  0
    5.4185    1.4521    3.4245 C   0  0  0  0  0  0  0  0  0  0  0  0
    5.9388    1.2864    2.1441 C   0  0  0  0  0  0  0  0  0  0  0  0
    5.9914    0.0080    1.6291 C   0  0  0  0  0  0  0  0  0  0  0  0
    6.5786   -0.1703    0.3820 O   0  0  0  0  0  0  0  0  0  0  0  0
    7.2610   -1.3531    0.1812 C   0  0  0  0  0  0  0  0  0  0  0  0
    7.2843   -1.8720   -1.1113 C   0  0  0  0  0  0  0  0  0  0  0  0
    7.9302   -3.0862   -1.3587 C   0  0  0  0  0  0  0  0  0  0  0  0
    8.5669   -3.7787   -0.3276 C   0  0  0  0  0  0  0  0  0  0  0  0
    9.2347   -5.0007   -0.4997 N   0  0  0  0  0  0  0  0  0  0  0  0
    9.3707   -5.7123   -1.6720 C   0  0  0  0  0  0  0  0  0  0  0  0
    8.9576   -5.4113   -2.7847 O   0  0  0  0  0  0  0  0  0  0  0  0
   10.1757   -6.9547   -1.5463 C   0  0  0  0  0  0  0  0  0  0  0  0
   10.1801   -7.7213   -0.3798 C   0  0  0  0  0  0  0  0  0  0  0  0
   10.9866   -8.8519   -0.2935 C   0  0  0  0  0  0  0  0  0  0  0  0
   11.7889   -9.2224   -1.3740 C   0  0  0  0  0  0  0  0  0  0  0  0
   11.7769   -8.4645   -2.5505 C   0  0  0  0  0  0  0  0  0  0  0  0
   12.7291   -8.7844   -3.6453 C   0  0  0  0  0  0  0  0  0  0  0  0
   13.8730   -9.3232   -3.3534 N   0  0  0  0  0  0  0  0  0  0  0  0
   14.7651   -9.4643   -4.3788 N   0  0  0  0  0  0  0  0  0  0  0  0
   14.5904   -9.0003   -5.6546 C   0  0  0  0  0  0  0  0  0  0  0  0
   15.4670   -9.0324   -6.5102 O   0  0  0  0  0  0  0  0  0  0  0  0
   13.2483   -8.4761   -5.9690 C   0  0  0  0  0  0  0  0  0  0  0  0
   12.3183   -8.4048   -5.0224 C   0  0  0  0  0  0  0  0  0  0  0  0
   10.9634   -7.3334   -2.6371 C   0  0  0  0  0  0  0  0  0  0  0  0
    8.5696   -3.2354    0.9578 C   0  0  0  0  0  0  0  0  0  0  0  0
    7.9475   -2.0147    1.2003 C   0  0  0  0  0  0  0  0  0  0  0  0
    5.5141   -1.0591    2.3103 N   0  0  0  0  0  0  0  0  0  0  0  0
    5.0360   -0.8999    3.5771 N   0  0  0  0  0  0  0  0  0  0  0  0
    4.3318    1.4609    5.8384 H   0  0  0  0  0  0  0  0  0  0  0  0
    5.1416   -0.0743    6.2106 H   0  0  0  0  0  0  0  0  0  0  0  0
    3.4784   -0.0695    5.5774 H   0  0  0  0  0  0  0  0  0  0  0  0
    5.3633    2.4405    3.8672 H   0  0  0  0  0  0  0  0  0  0  0  0
    6.3128    2.1300    1.5764 H   0  0  0  0  0  0  0  0  0  0  0  0
    6.7966   -1.3546   -1.9327 H   0  0  0  0  0  0  0  0  0  0  0  0
    7.9155   -3.4712   -2.3747 H   0  0  0  0  0  0  0  0  0  0  0  0
    9.7128   -5.3480    0.3213 H   0  0  0  0  0  0  0  0  0  0  0  0
    9.5551   -7.4570    0.4702 H   0  0  0  0  0  0  0  0  0  0  0  0
   11.0016   -9.4399    0.6222 H   0  0  0  0  0  0  0  0  0  0  0  0
   12.4336  -10.0953   -1.2863 H   0  0  0  0  0  0  0  0  0  0  0  0
   15.6834   -9.8199   -4.1341 H   0  0  0  0  0  0  0  0  0  0  0  0
   13.0629   -8.1784   -6.9922 H   0  0  0  0  0  0  0  0  0  0  0  0
   11.3093   -8.0668   -5.2391 H   0  0  0  0  0  0  0  0  0  0  0  0
   10.9692   -6.6966   -3.5189 H   0  0  0  0  0  0  0  0  0  0  0  0
    9.0365   -3.7466    1.7953 H   0  0  0  0  0  0  0  0  0  0  0  0
    7.9762   -1.6131    2.2082 H   0  0  0  0  0  0  0  0  0  0  0  0
  1  2  1  0  0  0  0
  1 31  1  0  0  0  0
  1 32  1  0  0  0  0
  1 33  1  0  0  0  0
  2  3  2  0  0  0  0
  2 30  1  0  0  0  0
  3  4  1  0  0  0  0
  3 34  1  0  0  0  0
  4  5  2  0  0  0  0
  4 35  1  0  0  0  0
  5  6  1  0  0  0  0
  5 29  1  0  0  0  0
  6  7  1  0  0  0  0
  7  8  2  0  0  0  0
  7 28  1  0  0  0  0
  8  9  1  0  0  0  0
  8 36  1  0  0  0  0
  9 10  2  0  0  0  0
  9 37  1  0  0  0  0
 10 11  1  0  0  0  0
 10 27  1  0  0  0  0
 11 12  1  0  0  0  0
 11 38  1  0  0  0  0
 12 13  2  0  0  0  0
 12 14  1  0  0  0  0
 14 15  2  0  0  0  0
 14 26  1  0  0  0  0
 15 16  1  0  0  0  0
 15 39  1  0  0  0  0
 16 17  2  0  0  0  0
 16 40  1  0  0  0  0
 17 18  1  0  0  0  0
 17 41  1  0  0  0  0
 18 19  1  0  0  0  0
 18 26  2  0  0  0  0
 19 20  2  0  0  0  0
 19 25  1  0  0  0  0
 20 21  1  0  0  0  0
 21 22  1  0  0  0  0
 21 42  1  0  0  0  0
 22 23  2  0  0  0  0
 22 24  1  0  0  0  0
 24 25  2  0  0  0  0
 24 43  1  0  0  0  0
 25 44  1  0  0  0  0
 26 45  1  0  0  0  0
 27 28  2  0  0  0  0
 27 46  1  0  0  0  0
 28 47  1  0  0  0  0
 29 30  2  0  0  0  0
M  END
$$$$
