
 OpenBabel01122422483D

 45 48  0  0  0  0  0  0  0  0999 V2000
    2.3055   -1.9344    0.6579 N   0  0  0  0  0  0  0  0  0  0  0  0
    3.0265   -0.7849    0.6013 C   0  0  0  0  0  0  0  0  0  0  0  0
    4.3284   -0.6155    0.2082 C   0  0  0  0  0  0  0  0  0  0  0  0
    4.5638    0.7794    0.2379 C   0  0  0  0  0  0  0  0  0  0  0  0
    5.8463    1.4350   -0.0578 C   0  0  0  0  0  0  0  0  0  0  0  0
    6.8176    0.7641   -0.4044 O   0  0  0  0  0  0  0  0  0  0  0  0
    5.8322    2.8026    0.1541 N   0  0  0  0  0  0  0  0  0  0  0  0
    6.9149    3.6876   -0.0152 C   0  0  0  0  0  0  0  0  0  0  0  0
    8.0743    3.3352   -0.7172 C   0  0  0  0  0  0  0  0  0  0  0  0
    9.1876    4.1906   -0.8290 C   0  0  0  0  0  0  0  0  0  0  0  0
   10.4087    3.7511   -1.5451 C   0  0  0  0  0  0  0  0  0  0  0  0
   10.7918    2.4001   -1.6098 C   0  0  0  0  0  0  0  0  0  0  0  0
   11.9477    2.0097   -2.2868 C   0  0  0  0  0  0  0  0  0  0  0  0
   12.7130    2.9945   -2.8784 C   0  0  0  0  0  0  0  0  0  0  0  0
   13.8745    2.6905   -3.5229 O   0  0  0  0  0  0  0  0  0  0  0  0
   12.3968    4.2968   -2.8645 N   0  0  0  0  0  0  0  0  0  0  0  0
   11.2585    4.6391   -2.2088 C   0  0  0  0  0  0  0  0  0  0  0  0
    9.0811    5.4527   -0.2225 C   0  0  0  0  0  0  0  0  0  0  0  0
    7.9129    5.8402    0.4441 C   0  0  0  0  0  0  0  0  0  0  0  0
    6.8312    4.9629    0.5423 C   0  0  0  0  0  0  0  0  0  0  0  0
    3.4525    1.4616    0.5732 N   0  0  0  0  0  0  0  0  0  0  0  0
    2.5469    0.4925    0.9014 N   0  0  0  0  0  0  0  0  0  0  0  0
    1.3103    0.8539    1.5007 C   0  0  0  0  0  0  0  0  0  0  0  0
    0.7387    2.1000    1.2036 C   0  0  0  0  0  0  0  0  0  0  0  0
   -0.4824    2.4561    1.7788 C   0  0  0  0  0  0  0  0  0  0  0  0
   -1.1029    1.5873    2.6701 C   0  0  0  0  0  0  0  0  0  0  0  0
   -2.2677    1.9381    3.2300 F   0  0  0  0  0  0  0  0  0  0  0  0
   -0.5296    0.3642    2.9974 C   0  0  0  0  0  0  0  0  0  0  0  0
    0.6785   -0.0098    2.4088 C   0  0  0  0  0  0  0  0  0  0  0  0
    2.6736   -2.7724    0.2101 H   0  0  0  0  0  0  0  0  0  0  0  0
    1.2875   -1.9053    0.6192 H   0  0  0  0  0  0  0  0  0  0  0  0
    5.0329   -1.3843   -0.0766 H   0  0  0  0  0  0  0  0  0  0  0  0
    4.9720    3.1533    0.5667 H   0  0  0  0  0  0  0  0  0  0  0  0
    8.1158    2.3748   -1.2207 H   0  0  0  0  0  0  0  0  0  0  0  0
   10.1996    1.6269   -1.1240 H   0  0  0  0  0  0  0  0  0  0  0  0
   12.2203    0.9633   -2.3348 H   0  0  0  0  0  0  0  0  0  0  0  0
   14.0754    1.7610   -3.3450 H   0  0  0  0  0  0  0  0  0  0  0  0
   11.0443    5.7037   -2.2491 H   0  0  0  0  0  0  0  0  0  0  0  0
    9.9126    6.1543   -0.2464 H   0  0  0  0  0  0  0  0  0  0  0  0
    7.8572    6.8254    0.9029 H   0  0  0  0  0  0  0  0  0  0  0  0
    5.9442    5.2799    1.0839 H   0  0  0  0  0  0  0  0  0  0  0  0
    1.2141    2.7809    0.5000 H   0  0  0  0  0  0  0  0  0  0  0  0
   -0.9534    3.4036    1.5378 H   0  0  0  0  0  0  0  0  0  0  0  0
   -1.0183   -0.2835    3.7193 H   0  0  0  0  0  0  0  0  0  0  0  0
    1.1378   -0.9469    2.7155 H   0  0  0  0  0  0  0  0  0  0  0  0
  1  2  1  0  0  0  0
  1 30  1  0  0  0  0
  1 31  1  0  0  0  0
  2  3  2  0  0  0  0
  2 22  1  0  0  0  0
  3  4  1  0  0  0  0
  3 32  1  0  0  0  0
  4  5  1  0  0  0  0
  4 21  2  0  0  0  0
  5  6  2  0  0  0  0
  5  7  1  0  0  0  0
  7  8  1  0  0  0  0
  7 33  1  0  0  0  0
  8  9  2  0  0  0  0
  8 20  1  0  0  0  0
  9 10  1  0  0  0  0
  9 34  1  0  0  0  0
 10 11  1  0  0  0  0
 10 18  2  0  0  0  0
 11 12  2  0  0  0  0
 11 17  1  0  0  0  0
 12 13  1  0  0  0  0
 12 35  1  0  0  0  0
 13 14  2  0  0  0  0
 13 36  1  0  0  0  0
 14 15  1  0  0  0  0
 14 16  1  0  0  0  0
 15 37  1  0  0  0  0
 16 17  2  0  0  0  0
 17 38  1  0  0  0  0
 18 19  1  0  0  0  0
 18 39  1  0  0  0  0
 19 20  2  0  0  0  0
 19 40  1  0  0  0  0
 20 41  1  0  0  0  0
 21 22  1  0  0  0  0
 22 23  1  0  0  0  0
 23 24  2  0  0  0  0
 23 29  1  0  0  0  0
 24 25  1  0  0  0  0
 24 42  1  0  0  0  0
 25 26  2  0  0  0  0
 25 43  1  0  0  0  0
 26 27  1  0  0  0  0
 26 28  1  0  0  0  0
 28 29  2  0  0  0  0
 28 44  1  0  0  0  0
 29 45  1  0  0  0  0
M  END
$$$$
