
 OpenBabel01122422483D

 45 48  0  0  0  0  0  0  0  0999 V2000
    0.6797    1.0465    1.4443 N   0  0  0  0  0  0  0  0  0  0  0  0
    1.7025    0.6520    1.0618 C   0  0  0  0  0  0  0  0  0  0  0  0
    3.0041    0.1843    0.5676 C   0  0  0  0  0  0  0  0  0  0  0  0
    3.5609   -0.8536    1.4297 N   0  0  0  0  0  0  0  0  0  0  0  0
    4.4225   -0.6318    2.4825 C   0  0  0  0  0  0  0  0  0  0  0  0
    4.6242   -1.8358    3.1463 C   0  0  0  0  0  0  0  0  0  0  0  0
    5.4080   -2.0983    4.3597 C   0  0  0  0  0  0  0  0  0  0  0  0
    5.5306   -3.2400    4.7975 O   0  0  0  0  0  0  0  0  0  0  0  0
    5.9178   -0.9895    5.0459 N   0  0  0  0  0  0  0  0  0  0  0  0
    6.6606   -1.1183    6.2220 C   0  0  0  0  0  0  0  0  0  0  0  0
    7.7277   -1.9377    6.3834 C   0  0  0  0  0  0  0  0  0  0  0  0
    8.2545   -2.7526    5.2134 C   0  0  0  0  0  0  0  0  0  0  0  0
    8.6916   -3.4286    4.2429 N   0  0  0  0  0  0  0  0  0  0  0  0
    8.3679   -2.1337    7.7056 C   0  0  0  0  0  0  0  0  0  0  0  0
    9.3632   -2.8513    7.7877 O   0  0  0  0  0  0  0  0  0  0  0  0
    7.7783   -1.4346    8.7777 N   0  0  0  0  0  0  0  0  0  0  0  0
    8.3373   -1.6232   10.0811 C   0  0  0  0  0  0  0  0  0  0  0  0
    8.6537   -0.5190   10.8789 C   0  0  0  0  0  0  0  0  0  0  0  0
    9.2894   -0.7009   12.1093 C   0  0  0  0  0  0  0  0  0  0  0  0
    9.5698   -1.9876   12.5689 C   0  0  0  0  0  0  0  0  0  0  0  0
    9.2185   -3.0950   11.8008 C   0  0  0  0  0  0  0  0  0  0  0  0
    8.6128   -2.9135   10.5578 C   0  0  0  0  0  0  0  0  0  0  0  0
    6.7340   -0.5424    8.5659 C   0  0  0  0  0  0  0  0  0  0  0  0
    6.1977   -0.3489    7.3536 C   0  0  0  0  0  0  0  0  0  0  0  0
    3.9096   -2.8316    2.3866 C   0  0  0  0  0  0  0  0  0  0  0  0
    3.7469   -4.2296    2.5234 C   0  0  0  0  0  0  0  0  0  0  0  0
    2.9478   -4.9393    1.6215 C   0  0  0  0  0  0  0  0  0  0  0  0
    2.3118   -4.2818    0.5777 C   0  0  0  0  0  0  0  0  0  0  0  0
    2.4585   -2.9025    0.4081 C   0  0  0  0  0  0  0  0  0  0  0  0
    3.2616   -2.1965    1.3244 C   0  0  0  0  0  0  0  0  0  0  0  0
    3.7263    1.0068    0.5301 H   0  0  0  0  0  0  0  0  0  0  0  0
    2.9219   -0.2194   -0.4442 H   0  0  0  0  0  0  0  0  0  0  0  0
    4.7992    0.3629    2.6763 H   0  0  0  0  0  0  0  0  0  0  0  0
    5.3760   -0.1443    4.9141 H   0  0  0  0  0  0  0  0  0  0  0  0
    8.4854    0.4926   10.5205 H   0  0  0  0  0  0  0  0  0  0  0  0
    9.5891    0.1622   12.6971 H   0  0  0  0  0  0  0  0  0  0  0  0
   10.0744   -2.1271   13.5216 H   0  0  0  0  0  0  0  0  0  0  0  0
    9.4303   -4.0991   12.1582 H   0  0  0  0  0  0  0  0  0  0  0  0
    8.3557   -3.7907    9.9687 H   0  0  0  0  0  0  0  0  0  0  0  0
    6.3251   -0.0404    9.4395 H   0  0  0  0  0  0  0  0  0  0  0  0
    5.3476    0.3163    7.2392 H   0  0  0  0  0  0  0  0  0  0  0  0
    4.2394   -4.7642    3.3322 H   0  0  0  0  0  0  0  0  0  0  0  0
    2.8239   -6.0132    1.7464 H   0  0  0  0  0  0  0  0  0  0  0  0
    1.6891   -4.8467   -0.1125 H   0  0  0  0  0  0  0  0  0  0  0  0
    1.9509   -2.4080   -0.4149 H   0  0  0  0  0  0  0  0  0  0  0  0
  1  2  3  0  0  0  0
  2  3  1  0  0  0  0
  3  4  1  0  0  0  0
  3 31  1  0  0  0  0
  3 32  1  0  0  0  0
  4  5  1  0  0  0  0
  4 30  1  0  0  0  0
  5  6  2  0  0  0  0
  5 33  1  0  0  0  0
  6  7  1  0  0  0  0
  6 25  1  0  0  0  0
  7  8  2  0  0  0  0
  7  9  1  0  0  0  0
  9 10  1  0  0  0  0
  9 34  1  0  0  0  0
 10 11  2  0  0  0  0
 10 24  1  0  0  0  0
 11 12  1  0  0  0  0
 11 14  1  0  0  0  0
 12 13  3  0  0  0  0
 14 15  2  0  0  0  0
 14 16  1  0  0  0  0
 16 17  1  0  0  0  0
 16 23  1  0  0  0  0
 17 18  2  0  0  0  0
 17 22  1  0  0  0  0
 18 19  1  0  0  0  0
 18 35  1  0  0  0  0
 19 20  2  0  0  0  0
 19 36  1  0  0  0  0
 20 21  1  0  0  0  0
 20 37  1  0  0  0  0
 21 22  2  0  0  0  0
 21 38  1  0  0  0  0
 22 39  1  0  0  0  0
 23 24  2  0  0  0  0
 23 40  1  0  0  0  0
 24 41  1  0  0  0  0
 25 26  2  0  0  0  0
 25 30  1  0  0  0  0
 26 27  1  0  0  0  0
 26 42  1  0  0  0  0
 27 28  2  0  0  0  0
 27 43  1  0  0  0  0
 28 29  1  0  0  0  0
 28 44  1  0  0  0  0
 29 30  2  0  0  0  0
 29 45  1  0  0  0  0
M  END
$$$$
