
 OpenBabel01122422483D

 42 45  0  0  0  0  0  0  0  0999 V2000
    1.0657    0.2421   -0.0689 O   0  0  0  0  0  0  0  0  0  0  0  0
    2.2628   -0.0045   -0.0952 C   0  0  0  0  0  0  0  0  0  0  0  0
    2.9369   -0.9258    0.6864 N   0  0  0  0  0  0  0  0  0  0  0  0
    2.2692   -1.7963    1.5622 C   0  0  0  0  0  0  0  0  0  0  0  0
    2.9981   -2.3996    2.5845 C   0  0  0  0  0  0  0  0  0  0  0  0
    2.3235   -3.2040    3.5059 C   0  0  0  0  0  0  0  0  0  0  0  0
    0.9585   -3.4144    3.3379 C   0  0  0  0  0  0  0  0  0  0  0  0
    0.1637   -4.2575    4.2392 C   0  0  0  0  0  0  0  0  0  0  0  0
    0.6585   -4.7582    5.2433 O   0  0  0  0  0  0  0  0  0  0  0  0
   -1.1501   -4.4540    3.8815 N   0  0  0  0  0  0  0  0  0  0  0  0
   -1.7674   -3.9241    2.7837 C   0  0  0  0  0  0  0  0  0  0  0  0
   -2.9331   -4.1917    2.5113 O   0  0  0  0  0  0  0  0  0  0  0  0
   -1.0160   -3.0922    2.0147 N   0  0  0  0  0  0  0  0  0  0  0  0
    0.3239   -2.8319    2.2614 C   0  0  0  0  0  0  0  0  0  0  0  0
    0.9538   -2.0292    1.3885 N   0  0  0  0  0  0  0  0  0  0  0  0
    3.1018    0.8166   -1.0027 C   0  0  0  0  0  0  0  0  0  0  0  0
    2.7066    2.1411   -1.2229 C   0  0  0  0  0  0  0  0  0  0  0  0
    3.3953    2.9346   -2.1367 C   0  0  0  0  0  0  0  0  0  0  0  0
    4.5265    2.4328   -2.7875 C   0  0  0  0  0  0  0  0  0  0  0  0
    5.3057    3.1596   -3.6619 O   0  0  0  0  0  0  0  0  0  0  0  0
    5.4405    4.5183   -3.4783 C   0  0  0  0  0  0  0  0  0  0  0  0
    5.5906    5.2863   -4.6384 C   0  0  0  0  0  0  0  0  0  0  0  0
    5.6755    6.6794   -4.5490 C   0  0  0  0  0  0  0  0  0  0  0  0
    5.6104    7.3096   -3.3054 C   0  0  0  0  0  0  0  0  0  0  0  0
    5.5160    6.5453   -2.1454 C   0  0  0  0  0  0  0  0  0  0  0  0
    5.4722    5.1581   -2.2366 C   0  0  0  0  0  0  0  0  0  0  0  0
    5.4348    4.4610   -1.0904 F   0  0  0  0  0  0  0  0  0  0  0  0
    4.8992    1.0984   -2.5943 C   0  0  0  0  0  0  0  0  0  0  0  0
    4.1905    0.2866   -1.7014 C   0  0  0  0  0  0  0  0  0  0  0  0
    3.9417   -0.8635    0.7525 H   0  0  0  0  0  0  0  0  0  0  0  0
    4.0640   -2.2303    2.6978 H   0  0  0  0  0  0  0  0  0  0  0  0
    2.8544   -3.6609    4.3370 H   0  0  0  0  0  0  0  0  0  0  0  0
   -1.7072   -5.0513    4.4722 H   0  0  0  0  0  0  0  0  0  0  0  0
   -1.4267   -2.6659    1.1956 H   0  0  0  0  0  0  0  0  0  0  0  0
    1.8552    2.5570   -0.6865 H   0  0  0  0  0  0  0  0  0  0  0  0
    3.0494    3.9516   -2.3002 H   0  0  0  0  0  0  0  0  0  0  0  0
    5.6307    4.8048   -5.6115 H   0  0  0  0  0  0  0  0  0  0  0  0
    5.7815    7.2762   -5.4525 H   0  0  0  0  0  0  0  0  0  0  0  0
    5.6443    8.3937   -3.2373 H   0  0  0  0  0  0  0  0  0  0  0  0
    5.4712    7.0135   -1.1679 H   0  0  0  0  0  0  0  0  0  0  0  0
    5.7405    0.6892   -3.1491 H   0  0  0  0  0  0  0  0  0  0  0  0
    4.4744   -0.7559   -1.5927 H   0  0  0  0  0  0  0  0  0  0  0  0
  1  2  2  0  0  0  0
  2  3  1  0  0  0  0
  2 16  1  0  0  0  0
  3  4  1  0  0  0  0
  3 30  1  0  0  0  0
  4  5  2  0  0  0  0
  4 15  1  0  0  0  0
  5  6  1  0  0  0  0
  5 31  1  0  0  0  0
  6  7  2  0  0  0  0
  6 32  1  0  0  0  0
  7  8  1  0  0  0  0
  7 14  1  0  0  0  0
  8  9  2  0  0  0  0
  8 10  1  0  0  0  0
 10 11  1  0  0  0  0
 10 33  1  0  0  0  0
 11 12  2  0  0  0  0
 11 13  1  0  0  0  0
 13 14  1  0  0  0  0
 13 34  1  0  0  0  0
 14 15  2  0  0  0  0
 16 17  2  0  0  0  0
 16 29  1  0  0  0  0
 17 18  1  0  0  0  0
 17 35  1  0  0  0  0
 18 19  2  0  0  0  0
 18 36  1  0  0  0  0
 19 20  1  0  0  0  0
 19 28  1  0  0  0  0
 20 21  1  0  0  0  0
 21 22  2  0  0  0  0
 21 26  1  0  0  0  0
 22 23  1  0  0  0  0
 22 37  1  0  0  0  0
 23 24  2  0  0  0  0
 23 38  1  0  0  0  0
 24 25  1  0  0  0  0
 24 39  1  0  0  0  0
 25 26  2  0  0  0  0
 25 40  1  0  0  0  0
 26 27  1  0  0  0  0
 28 29  2  0  0  0  0
 28 41  1  0  0  0  0
 29 42  1  0  0  0  0
M  END
$$$$
