
 OpenBabel01122422483D

 42 45  0  0  0  0  0  0  0  0999 V2000
    1.0892    0.5772    0.5388 O   0  0  0  0  0  0  0  0  0  0  0  0
    2.2043    0.2352    0.1730 C   0  0  0  0  0  0  0  0  0  0  0  0
    2.7726    0.5284   -1.0556 N   0  0  0  0  0  0  0  0  0  0  0  0
    2.1003    1.2498   -2.0592 C   0  0  0  0  0  0  0  0  0  0  0  0
    1.2301    2.2978   -1.8390 C   0  0  0  0  0  0  0  0  0  0  0  0
    0.5868    2.9548   -2.8314 N   0  0  0  0  0  0  0  0  0  0  0  0
    0.8036    2.5200   -4.0878 C   0  0  0  0  0  0  0  0  0  0  0  0
    0.0744    3.1782   -5.1885 C   0  0  0  0  0  0  0  0  0  0  0  0
   -0.7103    4.3227   -4.9685 C   0  0  0  0  0  0  0  0  0  0  0  0
   -1.3791    4.9430   -6.0228 C   0  0  0  0  0  0  0  0  0  0  0  0
   -2.1104    6.0379   -5.7875 F   0  0  0  0  0  0  0  0  0  0  0  0
   -1.3087    4.4351   -7.3137 C   0  0  0  0  0  0  0  0  0  0  0  0
   -0.5418    3.3053   -7.5620 C   0  0  0  0  0  0  0  0  0  0  0  0
    0.1392    2.6814   -6.5062 C   0  0  0  0  0  0  0  0  0  0  0  0
    1.6468    1.5162   -4.4092 N   0  0  0  0  0  0  0  0  0  0  0  0
    2.2831    0.9161   -3.3841 C   0  0  0  0  0  0  0  0  0  0  0  0
    3.0453   -0.6180    1.0398 C   0  0  0  0  0  0  0  0  0  0  0  0
    4.3606   -0.1855    1.2790 C   0  0  0  0  0  0  0  0  0  0  0  0
    5.1778   -0.9045    2.1396 C   0  0  0  0  0  0  0  0  0  0  0  0
    4.6487   -2.0268    2.7425 C   0  0  0  0  0  0  0  0  0  0  0  0
    3.3944   -2.4775    2.5167 N   0  0  0  0  0  0  0  0  0  0  0  0
    2.5828   -1.7860    1.6607 C   0  0  0  0  0  0  0  0  0  0  0  0
    1.2703   -2.4465    1.4442 C   0  0  0  0  0  0  0  0  0  0  0  0
    0.6416   -3.1369    2.4961 C   0  0  0  0  0  0  0  0  0  0  0  0
   -0.5609   -3.7928    2.2695 C   0  0  0  0  0  0  0  0  0  0  0  0
   -1.1913   -3.8134    1.0796 N   0  0  0  0  0  0  0  0  0  0  0  0
   -0.5850   -3.1547    0.0727 C   0  0  0  0  0  0  0  0  0  0  0  0
    0.6259   -2.4886    0.2006 C   0  0  0  0  0  0  0  0  0  0  0  0
    3.5788   -0.0172   -1.3395 H   0  0  0  0  0  0  0  0  0  0  0  0
    1.0354    2.6842   -0.8420 H   0  0  0  0  0  0  0  0  0  0  0  0
   -0.7910    4.7573   -3.9750 H   0  0  0  0  0  0  0  0  0  0  0  0
   -1.8497    4.9277   -8.1154 H   0  0  0  0  0  0  0  0  0  0  0  0
   -0.4803    2.8923   -8.5631 H   0  0  0  0  0  0  0  0  0  0  0  0
    0.7363    1.7983   -6.7261 H   0  0  0  0  0  0  0  0  0  0  0  0
    2.9230    0.0899   -3.6775 H   0  0  0  0  0  0  0  0  0  0  0  0
    4.7404    0.7252    0.8218 H   0  0  0  0  0  0  0  0  0  0  0  0
    6.1935   -0.5862    2.3482 H   0  0  0  0  0  0  0  0  0  0  0  0
    5.2331   -2.6151    3.4449 H   0  0  0  0  0  0  0  0  0  0  0  0
    1.0904   -3.1790    3.4829 H   0  0  0  0  0  0  0  0  0  0  0  0
   -1.0585   -4.3385    3.0663 H   0  0  0  0  0  0  0  0  0  0  0  0
   -1.1097   -3.1808   -0.8784 H   0  0  0  0  0  0  0  0  0  0  0  0
    1.0467   -2.0192   -0.6834 H   0  0  0  0  0  0  0  0  0  0  0  0
  1  2  2  0  0  0  0
  2  3  1  0  0  0  0
  2 17  1  0  0  0  0
  3  4  1  0  0  0  0
  3 29  1  0  0  0  0
  4  5  2  0  0  0  0
  4 16  1  0  0  0  0
  5  6  1  0  0  0  0
  5 30  1  0  0  0  0
  6  7  2  0  0  0  0
  7  8  1  0  0  0  0
  7 15  1  0  0  0  0
  8  9  2  0  0  0  0
  8 14  1  0  0  0  0
  9 10  1  0  0  0  0
  9 31  1  0  0  0  0
 10 11  1  0  0  0  0
 10 12  2  0  0  0  0
 12 13  1  0  0  0  0
 12 32  1  0  0  0  0
 13 14  2  0  0  0  0
 13 33  1  0  0  0  0
 14 34  1  0  0  0  0
 15 16  2  0  0  0  0
 16 35  1  0  0  0  0
 17 18  2  0  0  0  0
 17 22  1  0  0  0  0
 18 19  1  0  0  0  0
 18 36  1  0  0  0  0
 19 20  2  0  0  0  0
 19 37  1  0  0  0  0
 20 21  1  0  0  0  0
 20 38  1  0  0  0  0
 21 22  2  0  0  0  0
 22 23  1  0  0  0  0
 23 24  2  0  0  0  0
 23 28  1  0  0  0  0
 24 25  1  0  0  0  0
 24 39  1  0  0  0  0
 25 26  2  0  0  0  0
 25 40  1  0  0  0  0
 26 27  1  0  0  0  0
 27 28  2  0  0  0  0
 27 41  1  0  0  0  0
 28 42  1  0  0  0  0
M  END
$$$$
