
 OpenBabel01122422453D

 41 44  0  0  0  0  0  0  0  0999 V2000
    0.9326    0.1518    0.2061 O   0  0  0  0  0  0  0  0  0  0  0  0
    2.1410    0.0970   -0.0086 C   0  0  0  0  0  0  0  0  0  0  0  0
    2.7652    0.5899   -1.1404 N   0  0  0  0  0  0  0  0  0  0  0  0
    2.1418    1.2290   -2.1832 C   0  0  0  0  0  0  0  0  0  0  0  0
    2.8508    1.6107   -3.2571 C   0  0  0  0  0  0  0  0  0  0  0  0
    2.1700    2.2317   -4.3963 C   0  0  0  0  0  0  0  0  0  0  0  0
    2.8703    2.5673   -5.5594 C   0  0  0  0  0  0  0  0  0  0  0  0
    2.1900    3.1068   -6.6545 C   0  0  0  0  0  0  0  0  0  0  0  0
    0.8134    3.3298   -6.5899 C   0  0  0  0  0  0  0  0  0  0  0  0
    0.1087    3.0128   -5.4287 C   0  0  0  0  0  0  0  0  0  0  0  0
    0.7875    2.4589   -4.3397 C   0  0  0  0  0  0  0  0  0  0  0  0
    0.0496    2.0703   -3.1115 C   0  0  0  0  0  0  0  0  0  0  0  0
   -1.1540    2.2713   -2.9988 O   0  0  0  0  0  0  0  0  0  0  0  0
    0.7972    1.4622   -2.1304 N   0  0  0  0  0  0  0  0  0  0  0  0
    3.0215   -0.5713    0.9825 C   0  0  0  0  0  0  0  0  0  0  0  0
    2.4877   -1.6334    1.7307 C   0  0  0  0  0  0  0  0  0  0  0  0
    3.2446   -2.2934    2.7172 C   0  0  0  0  0  0  0  0  0  0  0  0
    2.6809   -3.3838    3.5406 C   0  0  0  0  0  0  0  0  0  0  0  0
    1.3259   -3.4642    3.8676 C   0  0  0  0  0  0  0  0  0  0  0  0
    0.8755   -4.5098    4.6706 C   0  0  0  0  0  0  0  0  0  0  0  0
    1.7833   -5.4517    5.1322 C   0  0  0  0  0  0  0  0  0  0  0  0
    3.1097   -5.3063    4.7693 C   0  0  0  0  0  0  0  0  0  0  0  0
    3.5737   -4.3013    3.9928 N   0  0  0  0  0  0  0  0  0  0  0  0
    4.5697   -1.8624    2.9045 C   0  0  0  0  0  0  0  0  0  0  0  0
    5.0904   -0.8035    2.1657 C   0  0  0  0  0  0  0  0  0  0  0  0
    6.3473   -0.3981    2.3895 F   0  0  0  0  0  0  0  0  0  0  0  0
    4.3285   -0.1442    1.2121 C   0  0  0  0  0  0  0  0  0  0  0  0
    3.7521    0.3998   -1.2567 H   0  0  0  0  0  0  0  0  0  0  0  0
    3.9211    1.4541   -3.3300 H   0  0  0  0  0  0  0  0  0  0  0  0
    3.9415    2.3972   -5.6341 H   0  0  0  0  0  0  0  0  0  0  0  0
    2.7343    3.3486   -7.5653 H   0  0  0  0  0  0  0  0  0  0  0  0
    0.2867    3.7416   -7.4475 H   0  0  0  0  0  0  0  0  0  0  0  0
   -0.9649    3.1796   -5.3779 H   0  0  0  0  0  0  0  0  0  0  0  0
    0.2952    1.1560   -1.2960 H   0  0  0  0  0  0  0  0  0  0  0  0
    1.4651   -1.9480    1.5234 H   0  0  0  0  0  0  0  0  0  0  0  0
    0.6167   -2.7165    3.5275 H   0  0  0  0  0  0  0  0  0  0  0  0
   -0.1753   -4.5801    4.9372 H   0  0  0  0  0  0  0  0  0  0  0  0
    1.4663   -6.2743    5.7627 H   0  0  0  0  0  0  0  0  0  0  0  0
    3.8616   -6.0149    5.1055 H   0  0  0  0  0  0  0  0  0  0  0  0
    5.2041   -2.3400    3.6492 H   0  0  0  0  0  0  0  0  0  0  0  0
    4.7624    0.7044    0.6960 H   0  0  0  0  0  0  0  0  0  0  0  0
  1  2  2  0  0  0  0
  2  3  1  0  0  0  0
  2 15  1  0  0  0  0
  3  4  1  0  0  0  0
  3 28  1  0  0  0  0
  4  5  2  0  0  0  0
  4 14  1  0  0  0  0
  5  6  1  0  0  0  0
  5 29  1  0  0  0  0
  6  7  2  0  0  0  0
  6 11  1  0  0  0  0
  7  8  1  0  0  0  0
  7 30  1  0  0  0  0
  8  9  2  0  0  0  0
  8 31  1  0  0  0  0
  9 10  1  0  0  0  0
  9 32  1  0  0  0  0
 10 11  2  0  0  0  0
 10 33  1  0  0  0  0
 11 12  1  0  0  0  0
 12 13  2  0  0  0  0
 12 14  1  0  0  0  0
 14 34  1  0  0  0  0
 15 16  2  0  0  0  0
 15 27  1  0  0  0  0
 16 17  1  0  0  0  0
 16 35  1  0  0  0  0
 17 18  1  0  0  0  0
 17 24  2  0  0  0  0
 18 19  2  0  0  0  0
 18 23  1  0  0  0  0
 19 20  1  0  0  0  0
 19 36  1  0  0  0  0
 20 21  2  0  0  0  0
 20 37  1  0  0  0  0
 21 22  1  0  0  0  0
 21 38  1  0  0  0  0
 22 23  2  0  0  0  0
 22 39  1  0  0  0  0
 24 25  1  0  0  0  0
 24 40  1  0  0  0  0
 25 26  1  0  0  0  0
 25 27  2  0  0  0  0
 27 41  1  0  0  0  0
M  END
$$$$
