
 OpenBabel01122422483D

 47 50  0  0  1  0  0  0  0  0999 V2000
    2.1550   -0.7508   -1.9387 O   0  0  0  0  0  0  0  0  0  0  0  0
    2.8932   -0.2866   -1.0758 C   0  0  0  0  0  0  0  0  0  0  0  0
    3.0410    1.0683   -0.9182 N   0  0  0  0  0  0  0  0  0  0  0  0
    2.2353    2.0499   -1.6381 C   0  0  3  0  0  0  0  0  0  0  0  0
    1.4472    2.8428   -0.5766 C   0  0  0  0  0  0  0  0  0  0  0  0
    1.8464    2.9416    0.5863 O   0  0  0  0  0  0  0  0  0  0  0  0
    0.1709    3.5190   -0.9515 C   0  0  0  0  0  0  0  0  0  0  0  0
   -0.8041    3.6741    0.0481 C   0  0  0  0  0  0  0  0  0  0  0  0
   -2.0068    4.3280   -0.2282 C   0  0  0  0  0  0  0  0  0  0  0  0
   -2.2375    4.8474   -1.4997 C   0  0  0  0  0  0  0  0  0  0  0  0
   -1.2719    4.7092   -2.4951 C   0  0  0  0  0  0  0  0  0  0  0  0
   -0.0718    4.0403   -2.2274 C   0  0  0  0  0  0  0  0  0  0  0  0
    3.1497    2.9042   -2.4979 C   0  0  0  0  0  0  0  0  0  0  0  0
    3.4246    2.5008   -3.8160 C   0  0  0  0  0  0  0  0  0  0  0  0
    4.2334    3.2791   -4.6462 C   0  0  0  0  0  0  0  0  0  0  0  0
    4.7897    4.4623   -4.1665 C   0  0  0  0  0  0  0  0  0  0  0  0
    4.5623    4.8532   -2.8491 C   0  0  0  0  0  0  0  0  0  0  0  0
    3.7584    4.0739   -2.0148 C   0  0  0  0  0  0  0  0  0  0  0  0
    3.6517   -1.0953   -0.1480 C   0  0  0  0  0  0  0  0  0  0  0  0
    4.0775   -0.7826    1.1360 C   0  0  0  0  0  0  0  0  0  0  0  0
    4.5667   -1.9774    1.6733 C   0  0  0  0  0  0  0  0  0  0  0  0
    4.4613   -2.9908    0.8202 N   0  0  0  0  0  0  0  0  0  0  0  0
    4.0291   -2.4228   -0.3432 N   0  0  0  0  0  0  0  0  0  0  0  0
    4.1308   -3.1861   -1.5387 C   0  0  0  0  0  0  0  0  0  0  0  0
    4.1062   -4.5828   -1.4625 C   0  0  0  0  0  0  0  0  0  0  0  0
    4.2612   -5.3058   -2.6328 C   0  0  0  0  0  0  0  0  0  0  0  0
    4.4644   -4.7413   -3.8418 N   0  0  0  0  0  0  0  0  0  0  0  0
    4.5060   -3.3924   -3.8826 C   0  0  0  0  0  0  0  0  0  0  0  0
    4.3422   -2.5765   -2.7750 C   0  0  0  0  0  0  0  0  0  0  0  0
    3.5864    1.4326   -0.1495 H   0  0  0  0  0  0  0  0  0  0  0  0
    1.5025    1.5327   -2.2689 H   0  0  0  0  0  0  0  0  0  0  0  0
   -0.6278    3.2856    1.0490 H   0  0  0  0  0  0  0  0  0  0  0  0
   -2.7566    4.4382    0.5513 H   0  0  0  0  0  0  0  0  0  0  0  0
   -3.1696    5.3689   -1.7111 H   0  0  0  0  0  0  0  0  0  0  0  0
   -1.4506    5.1337   -3.4805 H   0  0  0  0  0  0  0  0  0  0  0  0
    0.6649    3.9753   -3.0238 H   0  0  0  0  0  0  0  0  0  0  0  0
    3.0053    1.5736   -4.2052 H   0  0  0  0  0  0  0  0  0  0  0  0
    4.4289    2.9630   -5.6680 H   0  0  0  0  0  0  0  0  0  0  0  0
    5.4091    5.0757   -4.8161 H   0  0  0  0  0  0  0  0  0  0  0  0
    5.0114    5.7675   -2.4689 H   0  0  0  0  0  0  0  0  0  0  0  0
    3.6106    4.3991   -0.9864 H   0  0  0  0  0  0  0  0  0  0  0  0
    3.9747    0.1634    1.6496 H   0  0  0  0  0  0  0  0  0  0  0  0
    4.9674   -2.1625    2.6622 H   0  0  0  0  0  0  0  0  0  0  0  0
    3.9521   -5.1044   -0.5229 H   0  0  0  0  0  0  0  0  0  0  0  0
    4.2283   -6.3917   -2.6280 H   0  0  0  0  0  0  0  0  0  0  0  0
    4.6977   -2.9665   -4.8634 H   0  0  0  0  0  0  0  0  0  0  0  0
    4.4317   -1.5044   -2.8980 H   0  0  0  0  0  0  0  0  0  0  0  0
  1  2  2  0  0  0  0
  2  3  1  0  0  0  0
  2 19  1  0  0  0  0
  3  4  1  0  0  0  0
  3 30  1  0  0  0  0
  4  5  1  0  0  0  0
  4 13  1  0  0  0  0
  4 31  1  0  0  0  0
  5  6  2  0  0  0  0
  5  7  1  0  0  0  0
  7  8  2  0  0  0  0
  7 12  1  0  0  0  0
  8  9  1  0  0  0  0
  8 32  1  0  0  0  0
  9 10  2  0  0  0  0
  9 33  1  0  0  0  0
 10 11  1  0  0  0  0
 10 34  1  0  0  0  0
 11 12  2  0  0  0  0
 11 35  1  0  0  0  0
 12 36  1  0  0  0  0
 13 14  2  0  0  0  0
 13 18  1  0  0  0  0
 14 15  1  0  0  0  0
 14 37  1  0  0  0  0
 15 16  2  0  0  0  0
 15 38  1  0  0  0  0
 16 17  1  0  0  0  0
 16 39  1  0  0  0  0
 17 18  2  0  0  0  0
 17 40  1  0  0  0  0
 18 41  1  0  0  0  0
 19 20  2  0  0  0  0
 19 23  1  0  0  0  0
 20 21  1  0  0  0  0
 20 42  1  0  0  0  0
 21 22  2  0  0  0  0
 21 43  1  0  0  0  0
 22 23  1  0  0  0  0
 23 24  1  0  0  0  0
 24 25  2  0  0  0  0
 24 29  1  0  0  0  0
 25 26  1  0  0  0  0
 25 44  1  0  0  0  0
 26 27  2  0  0  0  0
 26 45  1  0  0  0  0
 27 28  1  0  0  0  0
 28 29  2  0  0  0  0
 28 46  1  0  0  0  0
 29 47  1  0  0  0  0
M  END
$$$$
