
 OpenBabel01122422483D

 50 53  0  0  0  0  0  0  0  0999 V2000
    6.8273    6.1671   -0.9437 N   0  0  0  0  0  0  0  0  0  0  0  0
    6.1198    5.1082   -0.5521 C   0  0  0  0  0  0  0  0  0  0  0  0
    6.5726    3.8682   -0.6062 N   0  0  0  0  0  0  0  0  0  0  0  0
    5.5469    3.1086   -0.1646 N   0  0  0  0  0  0  0  0  0  0  0  0
    5.7154    1.6670   -0.0829 C   0  0  0  0  0  0  0  0  0  0  0  0
    7.0498    1.1340   -0.5369 C   0  0  0  0  0  0  0  0  0  0  0  0
    7.1222    0.2129   -1.3576 O   0  0  0  0  0  0  0  0  0  0  0  0
    8.1595    1.6243    0.1141 N   0  0  0  0  0  0  0  0  0  0  0  0
    9.4544    1.1439   -0.2973 C   0  0  0  0  0  0  0  0  0  0  0  0
   10.6352    1.6517    0.5009 C   0  0  0  0  0  0  0  0  0  0  0  0
   10.3206    2.5193    1.5151 N   0  0  0  0  0  0  0  0  0  0  0  0
   11.3236    3.0101    2.2656 C   0  0  0  0  0  0  0  0  0  0  0  0
   12.6471    2.6877    2.0632 C   0  0  0  0  0  0  0  0  0  0  0  0
   12.9594    1.8042    1.0306 C   0  0  0  0  0  0  0  0  0  0  0  0
   11.9624    1.2507    0.1992 C   0  0  0  0  0  0  0  0  0  0  0  0
   12.3600    0.3483   -0.9302 C   0  0  0  0  0  0  0  0  0  0  0  0
   11.6004   -0.7683   -1.3324 C   0  0  0  0  0  0  0  0  0  0  0  0
   11.9256   -1.5331   -2.4581 C   0  0  0  0  0  0  0  0  0  0  0  0
   13.0862   -1.2576   -3.1546 C   0  0  0  0  0  0  0  0  0  0  0  0
   13.4164   -2.0044   -4.2153 F   0  0  0  0  0  0  0  0  0  0  0  0
   13.9166   -0.2259   -2.7488 C   0  0  0  0  0  0  0  0  0  0  0  0
   13.5460    0.5795   -1.6620 C   0  0  0  0  0  0  0  0  0  0  0  0
    4.4413    3.8539    0.2119 C   0  0  0  0  0  0  0  0  0  0  0  0
    3.1512    3.3723    0.7269 C   0  0  0  0  0  0  0  0  0  0  0  0
    2.4699    4.1340    1.6912 C   0  0  0  0  0  0  0  0  0  0  0  0
    1.1787    3.7919    2.1039 C   0  0  0  0  0  0  0  0  0  0  0  0
    0.5546    2.6670    1.5749 C   0  0  0  0  0  0  0  0  0  0  0  0
    1.2255    1.8814    0.6432 C   0  0  0  0  0  0  0  0  0  0  0  0
    2.5084    2.2385    0.2146 C   0  0  0  0  0  0  0  0  0  0  0  0
    4.8218    5.1663   -0.0336 C   0  0  0  0  0  0  0  0  0  0  0  0
    7.8033    6.0292   -1.1783 H   0  0  0  0  0  0  0  0  0  0  0  0
    6.5588    7.1171   -0.7295 H   0  0  0  0  0  0  0  0  0  0  0  0
    4.9671    1.2244   -0.7442 H   0  0  0  0  0  0  0  0  0  0  0  0
    5.5319    1.3574    0.9486 H   0  0  0  0  0  0  0  0  0  0  0  0
    8.1179    2.5751    0.4778 H   0  0  0  0  0  0  0  0  0  0  0  0
    9.5838    1.3843   -1.3580 H   0  0  0  0  0  0  0  0  0  0  0  0
    9.3741    0.0677   -0.1553 H   0  0  0  0  0  0  0  0  0  0  0  0
   11.0250    3.6898    3.0583 H   0  0  0  0  0  0  0  0  0  0  0  0
   13.4234    3.1097    2.6923 H   0  0  0  0  0  0  0  0  0  0  0  0
   14.0068    1.5478    0.8865 H   0  0  0  0  0  0  0  0  0  0  0  0
   10.7308   -1.0997   -0.7786 H   0  0  0  0  0  0  0  0  0  0  0  0
   11.2779   -2.3439   -2.7776 H   0  0  0  0  0  0  0  0  0  0  0  0
   14.8421   -0.0438   -3.2850 H   0  0  0  0  0  0  0  0  0  0  0  0
   14.2079    1.4034   -1.4021 H   0  0  0  0  0  0  0  0  0  0  0  0
    2.9305    5.0234    2.1163 H   0  0  0  0  0  0  0  0  0  0  0  0
    0.6559    4.4164    2.8237 H   0  0  0  0  0  0  0  0  0  0  0  0
   -0.4579    2.4111    1.8754 H   0  0  0  0  0  0  0  0  0  0  0  0
    0.7398    1.0051    0.2210 H   0  0  0  0  0  0  0  0  0  0  0  0
    2.9556    1.6350   -0.5666 H   0  0  0  0  0  0  0  0  0  0  0  0
    4.2144    6.0460    0.1179 H   0  0  0  0  0  0  0  0  0  0  0  0
  1  2  1  0  0  0  0
  1 31  1  0  0  0  0
  1 32  1  0  0  0  0
  2  3  2  0  0  0  0
  2 30  1  0  0  0  0
  3  4  1  0  0  0  0
  4  5  1  0  0  0  0
  4 23  1  0  0  0  0
  5  6  1  0  0  0  0
  5 33  1  0  0  0  0
  5 34  1  0  0  0  0
  6  7  2  0  0  0  0
  6  8  1  0  0  0  0
  8  9  1  0  0  0  0
  8 35  1  0  0  0  0
  9 10  1  0  0  0  0
  9 36  1  0  0  0  0
  9 37  1  0  0  0  0
 10 11  2  0  0  0  0
 10 15  1  0  0  0  0
 11 12  1  0  0  0  0
 12 13  2  0  0  0  0
 12 38  1  0  0  0  0
 13 14  1  0  0  0  0
 13 39  1  0  0  0  0
 14 15  2  0  0  0  0
 14 40  1  0  0  0  0
 15 16  1  0  0  0  0
 16 17  2  0  0  0  0
 16 22  1  0  0  0  0
 17 18  1  0  0  0  0
 17 41  1  0  0  0  0
 18 19  2  0  0  0  0
 18 42  1  0  0  0  0
 19 20  1  0  0  0  0
 19 21  1  0  0  0  0
 21 22  2  0  0  0  0
 21 43  1  0  0  0  0
 22 44  1  0  0  0  0
 23 24  1  0  0  0  0
 23 30  2  0  0  0  0
 24 25  2  0  0  0  0
 24 29  1  0  0  0  0
 25 26  1  0  0  0  0
 25 45  1  0  0  0  0
 26 27  2  0  0  0  0
 26 46  1  0  0  0  0
 27 28  1  0  0  0  0
 27 47  1  0  0  0  0
 28 29  2  0  0  0  0
 28 48  1  0  0  0  0
 29 49  1  0  0  0  0
 30 50  1  0  0  0  0
M  END
$$$$
