
 OpenBabel01122422483D

 47 50  0  0  0  0  0  0  0  0999 V2000
    2.6612   -0.7778    1.5619 C   0  0  0  0  0  0  0  0  0  0  0  0
    2.6127   -0.0030   -0.0307 S   0  0  0  0  0  0  0  0  0  0  0  0
    3.5465   -0.6952   -0.8981 O   0  0  0  0  0  0  0  0  0  0  0  0
    1.2232    0.1590   -0.4133 O   0  0  0  0  0  0  0  0  0  0  0  0
    3.2745    1.6201    0.2579 C   0  0  0  0  0  0  0  0  0  0  0  0
    2.4170    2.6872    0.5362 C   0  0  0  0  0  0  0  0  0  0  0  0
    2.9442    3.9776    0.6729 C   0  0  0  0  0  0  0  0  0  0  0  0
    4.3228    4.2243    0.5236 C   0  0  0  0  0  0  0  0  0  0  0  0
    4.8432    5.6124    0.6572 C   0  0  0  0  0  0  0  0  0  0  0  0
    5.8575    6.0261   -0.1102 C   0  0  0  0  0  0  0  0  0  0  0  0
    6.3371    7.4078    0.0228 C   0  0  0  0  0  0  0  0  0  0  0  0
    7.2864    7.7698   -0.6719 O   0  0  0  0  0  0  0  0  0  0  0  0
    5.6562    8.2004    0.9328 N   0  0  0  0  0  0  0  0  0  0  0  0
    6.0613    9.5193    1.0932 C   0  0  0  0  0  0  0  0  0  0  0  0
    5.4587   10.3439    1.9551 C   0  0  0  0  0  0  0  0  0  0  0  0
    4.3590    9.8679    2.7444 C   0  0  0  0  0  0  0  0  0  0  0  0
    3.8997    8.6133    2.6406 C   0  0  0  0  0  0  0  0  0  0  0  0
    2.8390    8.2446    3.4557 O   0  0  0  0  0  0  0  0  0  0  0  0
    1.9508    7.2527    2.9451 C   0  0  0  0  0  0  0  0  0  0  0  0
    0.5764    7.4693    3.5326 C   0  0  0  0  0  0  0  0  0  0  0  0
   -0.1124    8.6657    3.2832 C   0  0  0  0  0  0  0  0  0  0  0  0
   -1.4069    8.8537    3.7689 C   0  0  0  0  0  0  0  0  0  0  0  0
   -2.0256    7.8480    4.5085 C   0  0  0  0  0  0  0  0  0  0  0  0
   -1.3478    6.6585    4.7711 C   0  0  0  0  0  0  0  0  0  0  0  0
   -0.0522    6.4686    4.2865 C   0  0  0  0  0  0  0  0  0  0  0  0
    4.5954    7.6672    1.6690 C   0  0  0  0  0  0  0  0  0  0  0  0
    4.2038    6.4331    1.5502 N   0  0  0  0  0  0  0  0  0  0  0  0
    5.1536    3.1217    0.2636 C   0  0  0  0  0  0  0  0  0  0  0  0
    6.4804    3.2792    0.1440 F   0  0  0  0  0  0  0  0  0  0  0  0
    4.6441    1.8334    0.1183 C   0  0  0  0  0  0  0  0  0  0  0  0
    2.3123   -1.8063    1.4446 H   0  0  0  0  0  0  0  0  0  0  0  0
    2.0014   -0.2379    2.2432 H   0  0  0  0  0  0  0  0  0  0  0  0
    3.6886   -0.7775    1.9303 H   0  0  0  0  0  0  0  0  0  0  0  0
    1.3428    2.5342    0.6262 H   0  0  0  0  0  0  0  0  0  0  0  0
    2.2615    4.8016    0.8769 H   0  0  0  0  0  0  0  0  0  0  0  0
    6.3682    5.4145   -0.8420 H   0  0  0  0  0  0  0  0  0  0  0  0
    6.8980    9.8585    0.4859 H   0  0  0  0  0  0  0  0  0  0  0  0
    5.7846   11.3725    2.0727 H   0  0  0  0  0  0  0  0  0  0  0  0
    3.8977   10.5621    3.4407 H   0  0  0  0  0  0  0  0  0  0  0  0
    2.3255    6.2638    3.2307 H   0  0  0  0  0  0  0  0  0  0  0  0
    1.8475    7.3123    1.8544 H   0  0  0  0  0  0  0  0  0  0  0  0
    0.3600    9.4549    2.7023 H   0  0  0  0  0  0  0  0  0  0  0  0
   -1.9327    9.7823    3.5652 H   0  0  0  0  0  0  0  0  0  0  0  0
   -3.0366    7.9918    4.8804 H   0  0  0  0  0  0  0  0  0  0  0  0
   -1.8314    5.8762    5.3507 H   0  0  0  0  0  0  0  0  0  0  0  0
    0.4599    5.5328    4.4980 H   0  0  0  0  0  0  0  0  0  0  0  0
    5.3257    1.0207   -0.1190 H   0  0  0  0  0  0  0  0  0  0  0  0
  1  2  1  0  0  0  0
  1 31  1  0  0  0  0
  1 32  1  0  0  0  0
  1 33  1  0  0  0  0
  2  3  2  0  0  0  0
  2  4  2  0  0  0  0
  2  5  1  0  0  0  0
  5  6  2  0  0  0  0
  5 30  1  0  0  0  0
  6  7  1  0  0  0  0
  6 34  1  0  0  0  0
  7  8  2  0  0  0  0
  7 35  1  0  0  0  0
  8  9  1  0  0  0  0
  8 28  1  0  0  0  0
  9 10  2  0  0  0  0
  9 27  1  0  0  0  0
 10 11  1  0  0  0  0
 10 36  1  0  0  0  0
 11 12  2  0  0  0  0
 11 13  1  0  0  0  0
 13 14  1  0  0  0  0
 13 26  1  0  0  0  0
 14 15  2  0  0  0  0
 14 37  1  0  0  0  0
 15 16  1  0  0  0  0
 15 38  1  0  0  0  0
 16 17  2  0  0  0  0
 16 39  1  0  0  0  0
 17 18  1  0  0  0  0
 17 26  1  0  0  0  0
 18 19  1  0  0  0  0
 19 20  1  0  0  0  0
 19 40  1  0  0  0  0
 19 41  1  0  0  0  0
 20 21  2  0  0  0  0
 20 25  1  0  0  0  0
 21 22  1  0  0  0  0
 21 42  1  0  0  0  0
 22 23  2  0  0  0  0
 22 43  1  0  0  0  0
 23 24  1  0  0  0  0
 23 44  1  0  0  0  0
 24 25  2  0  0  0  0
 24 45  1  0  0  0  0
 25 46  1  0  0  0  0
 26 27  2  0  0  0  0
 28 29  1  0  0  0  0
 28 30  2  0  0  0  0
 30 47  1  0  0  0  0
M  END
$$$$
