
 OpenBabel01122422483D

 46 49  0  0  0  0  0  0  0  0999 V2000
    2.1319   -1.1600   -0.7304 C   0  0  0  0  0  0  0  0  0  0  0  0
    3.1812   -0.2256   -0.5042 O   0  0  0  0  0  0  0  0  0  0  0  0
    3.6036   -0.0784    0.7897 C   0  0  0  0  0  0  0  0  0  0  0  0
    3.0942   -0.7665    1.8929 C   0  0  0  0  0  0  0  0  0  0  0  0
    3.5859   -0.5032    3.1720 C   0  0  0  0  0  0  0  0  0  0  0  0
    4.5951    0.4402    3.3518 C   0  0  0  0  0  0  0  0  0  0  0  0
    5.1694    1.0729    2.2446 C   0  0  0  0  0  0  0  0  0  0  0  0
    6.2303    1.9545    2.3246 O   0  0  0  0  0  0  0  0  0  0  0  0
    7.1967    1.7492    3.2857 C   0  0  0  0  0  0  0  0  0  0  0  0
    7.5906    0.4827    3.7240 C   0  0  0  0  0  0  0  0  0  0  0  0
    8.4778    0.3517    4.7921 C   0  0  0  0  0  0  0  0  0  0  0  0
    9.0453    1.4767    5.3883 C   0  0  0  0  0  0  0  0  0  0  0  0
    9.9131    1.4082    6.4960 N   0  0  0  0  0  0  0  0  0  0  0  0
   10.2461    0.2932    7.2369 C   0  0  0  0  0  0  0  0  0  0  0  0
    9.7982   -0.8384    7.0630 O   0  0  0  0  0  0  0  0  0  0  0  0
   11.2331    0.5322    8.3454 C   0  0  0  0  0  0  0  0  0  0  0  0
   11.5339   -0.5309    9.1169 C   0  0  0  0  0  0  0  0  0  0  0  0
   12.4516   -0.4650   10.1334 N   0  0  0  0  0  0  0  0  0  0  0  0
   13.1673    0.6643   10.4551 C   0  0  0  0  0  0  0  0  0  0  0  0
   13.9959    0.6792   11.3569 O   0  0  0  0  0  0  0  0  0  0  0  0
   12.8814    1.8650    9.6439 C   0  0  0  0  0  0  0  0  0  0  0  0
   13.5586    3.0637    9.8710 C   0  0  0  0  0  0  0  0  0  0  0  0
   13.2502    4.1724    9.0897 C   0  0  0  0  0  0  0  0  0  0  0  0
   12.2704    4.0394    8.1204 C   0  0  0  0  0  0  0  0  0  0  0  0
   11.5997    2.8878    7.8761 N   0  0  0  0  0  0  0  0  0  0  0  0
   11.9226    1.8026    8.6353 C   0  0  0  0  0  0  0  0  0  0  0  0
    8.7448    2.7406    4.8622 C   0  0  0  0  0  0  0  0  0  0  0  0
    7.8184    2.8760    3.8187 C   0  0  0  0  0  0  0  0  0  0  0  0
    4.6427    0.8411    0.9722 C   0  0  0  0  0  0  0  0  0  0  0  0
    1.9264   -1.1822   -1.8047 H   0  0  0  0  0  0  0  0  0  0  0  0
    1.2124   -0.8519   -0.2208 H   0  0  0  0  0  0  0  0  0  0  0  0
    2.4304   -2.1699   -0.4296 H   0  0  0  0  0  0  0  0  0  0  0  0
    2.3102   -1.5096    1.7949 H   0  0  0  0  0  0  0  0  0  0  0  0
    3.1871   -1.0386    4.0298 H   0  0  0  0  0  0  0  0  0  0  0  0
    4.9474    0.6442    4.3594 H   0  0  0  0  0  0  0  0  0  0  0  0
    7.1834   -0.4196    3.2770 H   0  0  0  0  0  0  0  0  0  0  0  0
    8.6988   -0.6533    5.1350 H   0  0  0  0  0  0  0  0  0  0  0  0
   10.3294    2.2862    6.8049 H   0  0  0  0  0  0  0  0  0  0  0  0
   11.0748   -1.5074    8.9712 H   0  0  0  0  0  0  0  0  0  0  0  0
   12.6528   -1.2902   10.6869 H   0  0  0  0  0  0  0  0  0  0  0  0
   14.3198    3.1285   10.6449 H   0  0  0  0  0  0  0  0  0  0  0  0
   13.7629    5.1178    9.2342 H   0  0  0  0  0  0  0  0  0  0  0  0
   11.9920    4.8803    7.4905 H   0  0  0  0  0  0  0  0  0  0  0  0
    9.2029    3.6363    5.2744 H   0  0  0  0  0  0  0  0  0  0  0  0
    7.5696    3.8638    3.4385 H   0  0  0  0  0  0  0  0  0  0  0  0
    5.0519    1.3678    0.1142 H   0  0  0  0  0  0  0  0  0  0  0  0
  1  2  1  0  0  0  0
  1 30  1  0  0  0  0
  1 31  1  0  0  0  0
  1 32  1  0  0  0  0
  2  3  1  0  0  0  0
  3  4  2  0  0  0  0
  3 29  1  0  0  0  0
  4  5  1  0  0  0  0
  4 33  1  0  0  0  0
  5  6  2  0  0  0  0
  5 34  1  0  0  0  0
  6  7  1  0  0  0  0
  6 35  1  0  0  0  0
  7  8  1  0  0  0  0
  7 29  2  0  0  0  0
  8  9  1  0  0  0  0
  9 10  2  0  0  0  0
  9 28  1  0  0  0  0
 10 11  1  0  0  0  0
 10 36  1  0  0  0  0
 11 12  2  0  0  0  0
 11 37  1  0  0  0  0
 12 13  1  0  0  0  0
 12 27  1  0  0  0  0
 13 14  1  0  0  0  0
 13 38  1  0  0  0  0
 14 15  2  0  0  0  0
 14 16  1  0  0  0  0
 16 17  2  0  0  0  0
 16 26  1  0  0  0  0
 17 18  1  0  0  0  0
 17 39  1  0  0  0  0
 18 19  1  0  0  0  0
 18 40  1  0  0  0  0
 19 20  2  0  0  0  0
 19 21  1  0  0  0  0
 21 22  2  0  0  0  0
 21 26  1  0  0  0  0
 22 23  1  0  0  0  0
 22 41  1  0  0  0  0
 23 24  2  0  0  0  0
 23 42  1  0  0  0  0
 24 25  1  0  0  0  0
 24 43  1  0  0  0  0
 25 26  2  0  0  0  0
 27 28  2  0  0  0  0
 27 44  1  0  0  0  0
 28 45  1  0  0  0  0
 29 46  1  0  0  0  0
M  END
$$$$
