
 OpenBabel01122422483D

 45 48  0  0  0  0  0  0  0  0999 V2000
    1.1266   -0.1664   -0.7652 O   0  0  0  0  0  0  0  0  0  0  0  0
    2.1361   -0.0223   -0.0889 C   0  0  0  0  0  0  0  0  0  0  0  0
    2.6272    1.1987    0.3042 N   0  0  0  0  0  0  0  0  0  0  0  0
    1.9522    2.4245   -0.0610 C   0  0  0  0  0  0  0  0  0  0  0  0
    2.8387    3.3306   -0.8804 C   0  0  0  0  0  0  0  0  0  0  0  0
    2.8275    3.2197   -2.2827 C   0  0  0  0  0  0  0  0  0  0  0  0
    3.6384    4.0273   -3.0957 C   0  0  0  0  0  0  0  0  0  0  0  0
    4.4821    4.9670   -2.4828 C   0  0  0  0  0  0  0  0  0  0  0  0
    5.4301    5.9251   -2.9299 C   0  0  0  0  0  0  0  0  0  0  0  0
    5.9295    6.5324   -1.8008 C   0  0  0  0  0  0  0  0  0  0  0  0
    5.3546    6.0135   -0.6834 O   0  0  0  0  0  0  0  0  0  0  0  0
    4.4756    5.0570   -1.0961 C   0  0  0  0  0  0  0  0  0  0  0  0
    3.6847    4.2668   -0.2597 C   0  0  0  0  0  0  0  0  0  0  0  0
    2.9438   -1.1901    0.3764 C   0  0  0  0  0  0  0  0  0  0  0  0
    2.5384   -2.4116    0.0003 C   0  0  0  0  0  0  0  0  0  0  0  0
    3.3313   -3.5888    0.4067 C   0  0  0  0  0  0  0  0  0  0  0  0
    3.0187   -4.7038    0.0045 O   0  0  0  0  0  0  0  0  0  0  0  0
    4.4997   -3.3364    1.3076 C   0  0  0  0  0  0  0  0  0  0  0  0
    5.3182   -4.3245    1.8257 O   0  0  0  0  0  0  0  0  0  0  0  0
    4.7173   -5.5977    2.0730 C   0  0  0  0  0  0  0  0  0  0  0  0
    5.4476   -6.2570    3.2277 C   0  0  0  0  0  0  0  0  0  0  0  0
    4.7621   -6.6448    4.3909 C   0  0  0  0  0  0  0  0  0  0  0  0
    5.4432   -7.2683    5.4396 C   0  0  0  0  0  0  0  0  0  0  0  0
    6.8081   -7.5057    5.3278 C   0  0  0  0  0  0  0  0  0  0  0  0
    7.4590   -8.1066    6.3314 F   0  0  0  0  0  0  0  0  0  0  0  0
    7.5056   -7.1318    4.1883 C   0  0  0  0  0  0  0  0  0  0  0  0
    6.8279   -6.5066    3.1391 C   0  0  0  0  0  0  0  0  0  0  0  0
    4.7682   -2.0563    1.5960 C   0  0  0  0  0  0  0  0  0  0  0  0
    4.0638   -0.9649    1.1551 O   0  0  0  0  0  0  0  0  0  0  0  0
    3.4613    1.2432    0.8709 H   0  0  0  0  0  0  0  0  0  0  0  0
    1.6363    2.9193    0.8640 H   0  0  0  0  0  0  0  0  0  0  0  0
    1.0397    2.2024   -0.6250 H   0  0  0  0  0  0  0  0  0  0  0  0
    2.1765    2.4872   -2.7602 H   0  0  0  0  0  0  0  0  0  0  0  0
    3.6166    3.9157   -4.1756 H   0  0  0  0  0  0  0  0  0  0  0  0
    5.7176    6.1412   -3.9493 H   0  0  0  0  0  0  0  0  0  0  0  0
    6.6632    7.3084   -1.6308 H   0  0  0  0  0  0  0  0  0  0  0  0
    3.7369    4.3842    0.8161 H   0  0  0  0  0  0  0  0  0  0  0  0
    1.6594   -2.5866   -0.6085 H   0  0  0  0  0  0  0  0  0  0  0  0
    4.8206   -6.2306    1.1837 H   0  0  0  0  0  0  0  0  0  0  0  0
    3.6577   -5.4953    2.3322 H   0  0  0  0  0  0  0  0  0  0  0  0
    3.6930   -6.4686    4.4917 H   0  0  0  0  0  0  0  0  0  0  0  0
    4.9210   -7.5731    6.3415 H   0  0  0  0  0  0  0  0  0  0  0  0
    8.5711   -7.3247    4.1215 H   0  0  0  0  0  0  0  0  0  0  0  0
    7.3823   -6.2161    2.2505 H   0  0  0  0  0  0  0  0  0  0  0  0
    5.5921   -1.7584    2.2304 H   0  0  0  0  0  0  0  0  0  0  0  0
  1  2  2  0  0  0  0
  2  3  1  0  0  0  0
  2 14  1  0  0  0  0
  3  4  1  0  0  0  0
  3 30  1  0  0  0  0
  4  5  1  0  0  0  0
  4 31  1  0  0  0  0
  4 32  1  0  0  0  0
  5  6  2  0  0  0  0
  5 13  1  0  0  0  0
  6  7  1  0  0  0  0
  6 33  1  0  0  0  0
  7  8  2  0  0  0  0
  7 34  1  0  0  0  0
  8  9  1  0  0  0  0
  8 12  1  0  0  0  0
  9 10  2  0  0  0  0
  9 35  1  0  0  0  0
 10 11  1  0  0  0  0
 10 36  1  0  0  0  0
 11 12  1  0  0  0  0
 12 13  2  0  0  0  0
 13 37  1  0  0  0  0
 14 15  2  0  0  0  0
 14 29  1  0  0  0  0
 15 16  1  0  0  0  0
 15 38  1  0  0  0  0
 16 17  2  0  0  0  0
 16 18  1  0  0  0  0
 18 19  1  0  0  0  0
 18 28  2  0  0  0  0
 19 20  1  0  0  0  0
 20 21  1  0  0  0  0
 20 39  1  0  0  0  0
 20 40  1  0  0  0  0
 21 22  2  0  0  0  0
 21 27  1  0  0  0  0
 22 23  1  0  0  0  0
 22 41  1  0  0  0  0
 23 24  2  0  0  0  0
 23 42  1  0  0  0  0
 24 25  1  0  0  0  0
 24 26  1  0  0  0  0
 26 27  2  0  0  0  0
 26 43  1  0  0  0  0
 27 44  1  0  0  0  0
 28 29  1  0  0  0  0
 28 45  1  0  0  0  0
M  END
$$$$
