
 OpenBabel01122422483D

 47 50  0  0  0  0  0  0  0  0999 V2000
    1.1690    0.8354    0.4142 C   0  0  0  0  0  0  0  0  0  0  0  0
    2.3678    0.1538    0.0272 O   0  0  0  0  0  0  0  0  0  0  0  0
    3.0384    0.7141   -1.0382 C   0  0  0  0  0  0  0  0  0  0  0  0
    2.7360    1.9911   -1.5380 C   0  0  0  0  0  0  0  0  0  0  0  0
    3.4412    2.5305   -2.6125 C   0  0  0  0  0  0  0  0  0  0  0  0
    4.4750    1.8234   -3.2263 C   0  0  0  0  0  0  0  0  0  0  0  0
    5.2542    2.4331   -4.3215 C   0  0  0  0  0  0  0  0  0  0  0  0
    6.5961    2.1328   -4.5635 C   0  0  0  0  0  0  0  0  0  0  0  0
    7.2816    2.8311   -5.5557 C   0  0  0  0  0  0  0  0  0  0  0  0
    6.6150    3.8050   -6.2856 C   0  0  0  0  0  0  0  0  0  0  0  0
    5.2811    4.0322   -6.0028 C   0  0  0  0  0  0  0  0  0  0  0  0
    4.5955    3.3756   -5.0447 N   0  0  0  0  0  0  0  0  0  0  0  0
    4.7460    0.5367   -2.7337 C   0  0  0  0  0  0  0  0  0  0  0  0
    4.0786   -0.0287   -1.6307 C   0  0  0  0  0  0  0  0  0  0  0  0
    4.4309   -1.3256   -1.1230 N   0  0  0  0  0  0  0  0  0  0  0  0
    5.5518   -2.0551   -1.5123 C   0  0  0  0  0  0  0  0  0  0  0  0
    6.3891   -1.6271   -2.2979 O   0  0  0  0  0  0  0  0  0  0  0  0
    5.7330   -3.3834   -0.9649 C   0  0  0  0  0  0  0  0  0  0  0  0
    4.7954   -4.3373   -0.6171 C   0  0  0  0  0  0  0  0  0  0  0  0
    5.3668   -5.5757   -0.4757 N   0  0  0  0  0  0  0  0  0  0  0  0
    6.6438   -5.3917   -0.7221 C   0  0  0  0  0  0  0  0  0  0  0  0
    6.9549   -4.0656   -0.9248 N   0  0  0  0  0  0  0  0  0  0  0  0
    8.2751   -3.5374   -1.0577 C   0  0  0  0  0  0  0  0  0  0  0  0
    9.2856   -4.2939   -1.6754 C   0  0  0  0  0  0  0  0  0  0  0  0
   10.5647   -3.7449   -1.8488 C   0  0  0  0  0  0  0  0  0  0  0  0
   10.8344   -2.4615   -1.3825 C   0  0  0  0  0  0  0  0  0  0  0  0
   12.0611   -1.8866   -1.5353 O   0  0  0  0  0  0  0  0  0  0  0  0
    9.8522   -1.7196   -0.7424 C   0  0  0  0  0  0  0  0  0  0  0  0
    8.5740   -2.2579   -0.5766 C   0  0  0  0  0  0  0  0  0  0  0  0
    0.6785    0.2611    1.2039 H   0  0  0  0  0  0  0  0  0  0  0  0
    0.4702    0.9075   -0.4284 H   0  0  0  0  0  0  0  0  0  0  0  0
    1.3869    1.8297    0.8239 H   0  0  0  0  0  0  0  0  0  0  0  0
    1.9612    2.6198   -1.1122 H   0  0  0  0  0  0  0  0  0  0  0  0
    3.1788    3.5248   -2.9705 H   0  0  0  0  0  0  0  0  0  0  0  0
    7.1270    1.3919   -3.9727 H   0  0  0  0  0  0  0  0  0  0  0  0
    8.3317    2.6239   -5.7411 H   0  0  0  0  0  0  0  0  0  0  0  0
    7.1239    4.3794   -7.0507 H   0  0  0  0  0  0  0  0  0  0  0  0
    4.7104    4.7788   -6.5454 H   0  0  0  0  0  0  0  0  0  0  0  0
    5.4970   -0.0280   -3.2711 H   0  0  0  0  0  0  0  0  0  0  0  0
    3.8461   -1.6669   -0.3689 H   0  0  0  0  0  0  0  0  0  0  0  0
    3.7205   -4.2282   -0.5601 H   0  0  0  0  0  0  0  0  0  0  0  0
    7.3978   -6.1708   -0.7106 H   0  0  0  0  0  0  0  0  0  0  0  0
    9.0934   -5.2810   -2.0884 H   0  0  0  0  0  0  0  0  0  0  0  0
   11.3273   -4.3222   -2.3635 H   0  0  0  0  0  0  0  0  0  0  0  0
   12.6452   -2.5114   -1.9944 H   0  0  0  0  0  0  0  0  0  0  0  0
   10.0727   -0.7185   -0.3815 H   0  0  0  0  0  0  0  0  0  0  0  0
    7.8317   -1.6540   -0.0610 H   0  0  0  0  0  0  0  0  0  0  0  0
  1  2  1  0  0  0  0
  1 30  1  0  0  0  0
  1 31  1  0  0  0  0
  1 32  1  0  0  0  0
  2  3  1  0  0  0  0
  3  4  2  0  0  0  0
  3 14  1  0  0  0  0
  4  5  1  0  0  0  0
  4 33  1  0  0  0  0
  5  6  2  0  0  0  0
  5 34  1  0  0  0  0
  6  7  1  0  0  0  0
  6 13  1  0  0  0  0
  7  8  2  0  0  0  0
  7 12  1  0  0  0  0
  8  9  1  0  0  0  0
  8 35  1  0  0  0  0
  9 10  2  0  0  0  0
  9 36  1  0  0  0  0
 10 11  1  0  0  0  0
 10 37  1  0  0  0  0
 11 12  2  0  0  0  0
 11 38  1  0  0  0  0
 13 14  2  0  0  0  0
 13 39  1  0  0  0  0
 14 15  1  0  0  0  0
 15 16  1  0  0  0  0
 15 40  1  0  0  0  0
 16 17  2  0  0  0  0
 16 18  1  0  0  0  0
 18 19  2  0  0  0  0
 18 22  1  0  0  0  0
 19 20  1  0  0  0  0
 19 41  1  0  0  0  0
 20 21  2  0  0  0  0
 21 22  1  0  0  0  0
 21 42  1  0  0  0  0
 22 23  1  0  0  0  0
 23 24  2  0  0  0  0
 23 29  1  0  0  0  0
 24 25  1  0  0  0  0
 24 43  1  0  0  0  0
 25 26  2  0  0  0  0
 25 44  1  0  0  0  0
 26 27  1  0  0  0  0
 26 28  1  0  0  0  0
 27 45  1  0  0  0  0
 28 29  2  0  0  0  0
 28 46  1  0  0  0  0
 29 47  1  0  0  0  0
M  END
$$$$
