
 OpenBabel01122422483D

 50 53  0  0  0  0  0  0  0  0999 V2000
    0.7366   -0.2603    2.4615 C   0  0  0  0  0  0  0  0  0  0  0  0
    1.5046   -0.5112    1.2905 O   0  0  0  0  0  0  0  0  0  0  0  0
    2.4679   -1.4794    1.3854 C   0  0  0  0  0  0  0  0  0  0  0  0
    2.8001   -2.1877    2.5347 C   0  0  0  0  0  0  0  0  0  0  0  0
    3.7875   -3.1814    2.4944 C   0  0  0  0  0  0  0  0  0  0  0  0
    4.4585   -3.4783    1.3015 C   0  0  0  0  0  0  0  0  0  0  0  0
    5.4720   -4.5961    1.2456 C   0  0  0  0  0  0  0  0  0  0  0  0
    4.8602   -5.8398    0.7940 N   0  0  0  0  0  0  0  0  0  0  0  0
    4.7395   -6.1968   -0.5272 C   0  0  0  0  0  0  0  0  0  0  0  0
    4.0489   -7.3811   -0.5215 C   0  0  0  0  0  0  0  0  0  0  0  0
    3.8219   -7.8053    0.7626 N   0  0  0  0  0  0  0  0  0  0  0  0
    4.3248   -6.8625    1.5501 C   0  0  0  0  0  0  0  0  0  0  0  0
    4.3016   -6.9738    3.0063 C   0  0  0  0  0  0  0  0  0  0  0  0
    4.7392   -6.0924    3.7377 O   0  0  0  0  0  0  0  0  0  0  0  0
    3.8055   -8.1910    3.4695 N   0  0  0  0  0  0  0  0  0  0  0  0
    3.7223   -8.5802    4.7932 C   0  0  0  0  0  0  0  0  0  0  0  0
    3.7023   -7.7242    5.8259 C   0  0  0  0  0  0  0  0  0  0  0  0
    3.7090   -8.1279    7.1569 N   0  0  0  0  0  0  0  0  0  0  0  0
    3.7633   -7.1470    8.1954 C   0  0  0  0  0  0  0  0  0  0  0  0
    4.6555   -6.0679    8.0953 C   0  0  0  0  0  0  0  0  0  0  0  0
    4.7057   -5.0929    9.0919 C   0  0  0  0  0  0  0  0  0  0  0  0
    3.8384   -5.1667   10.1794 C   0  0  0  0  0  0  0  0  0  0  0  0
    2.9379   -6.2263   10.2823 C   0  0  0  0  0  0  0  0  0  0  0  0
    2.9121   -7.2237    9.3038 C   0  0  0  0  0  0  0  0  0  0  0  0
    3.7615   -9.4874    7.4983 C   0  0  0  0  0  0  0  0  0  0  0  0
    3.8765   -9.9560    8.6293 O   0  0  0  0  0  0  0  0  0  0  0  0
    3.7113  -10.4414    6.3496 C   0  0  0  0  0  0  0  0  0  0  0  0
    3.6670   -9.9989    5.0833 C   0  0  0  0  0  0  0  0  0  0  0  0
    4.1373   -2.7401    0.1536 C   0  0  0  0  0  0  0  0  0  0  0  0
    3.1505   -1.7512    0.1994 C   0  0  0  0  0  0  0  0  0  0  0  0
   -0.0432    0.4623    2.2037 H   0  0  0  0  0  0  0  0  0  0  0  0
    1.3591    0.1826    3.2458 H   0  0  0  0  0  0  0  0  0  0  0  0
    0.2387   -1.1688    2.8178 H   0  0  0  0  0  0  0  0  0  0  0  0
    2.3069   -2.0091    3.4851 H   0  0  0  0  0  0  0  0  0  0  0  0
    4.0200   -3.7237    3.4092 H   0  0  0  0  0  0  0  0  0  0  0  0
    5.9722   -4.7540    2.2047 H   0  0  0  0  0  0  0  0  0  0  0  0
    6.2666   -4.3425    0.5314 H   0  0  0  0  0  0  0  0  0  0  0  0
    5.1152   -5.5780   -1.3311 H   0  0  0  0  0  0  0  0  0  0  0  0
    3.7155   -7.9538   -1.3771 H   0  0  0  0  0  0  0  0  0  0  0  0
    3.6381   -8.8720    2.7370 H   0  0  0  0  0  0  0  0  0  0  0  0
    3.6497   -6.6524    5.6697 H   0  0  0  0  0  0  0  0  0  0  0  0
    5.3545   -6.0064    7.2643 H   0  0  0  0  0  0  0  0  0  0  0  0
    5.4261   -4.2825    9.0206 H   0  0  0  0  0  0  0  0  0  0  0  0
    3.8688   -4.4013   10.9506 H   0  0  0  0  0  0  0  0  0  0  0  0
    2.2545   -6.2788   11.1256 H   0  0  0  0  0  0  0  0  0  0  0  0
    2.1967   -8.0373    9.3954 H   0  0  0  0  0  0  0  0  0  0  0  0
    3.7281  -11.4898    6.6078 H   0  0  0  0  0  0  0  0  0  0  0  0
    3.6289  -10.7118    4.2690 H   0  0  0  0  0  0  0  0  0  0  0  0
    4.6406   -2.9342   -0.7904 H   0  0  0  0  0  0  0  0  0  0  0  0
    2.9029   -1.1944   -0.7026 H   0  0  0  0  0  0  0  0  0  0  0  0
  1  2  1  0  0  0  0
  1 31  1  0  0  0  0
  1 32  1  0  0  0  0
  1 33  1  0  0  0  0
  2  3  1  0  0  0  0
  3  4  2  0  0  0  0
  3 30  1  0  0  0  0
  4  5  1  0  0  0  0
  4 34  1  0  0  0  0
  5  6  2  0  0  0  0
  5 35  1  0  0  0  0
  6  7  1  0  0  0  0
  6 29  1  0  0  0  0
  7  8  1  0  0  0  0
  7 36  1  0  0  0  0
  7 37  1  0  0  0  0
  8  9  1  0  0  0  0
  8 12  1  0  0  0  0
  9 10  2  0  0  0  0
  9 38  1  0  0  0  0
 10 11  1  0  0  0  0
 10 39  1  0  0  0  0
 11 12  2  0  0  0  0
 12 13  1  0  0  0  0
 13 14  2  0  0  0  0
 13 15  1  0  0  0  0
 15 16  1  0  0  0  0
 15 40  1  0  0  0  0
 16 17  2  0  0  0  0
 16 28  1  0  0  0  0
 17 18  1  0  0  0  0
 17 41  1  0  0  0  0
 18 19  1  0  0  0  0
 18 25  1  0  0  0  0
 19 20  2  0  0  0  0
 19 24  1  0  0  0  0
 20 21  1  0  0  0  0
 20 42  1  0  0  0  0
 21 22  2  0  0  0  0
 21 43  1  0  0  0  0
 22 23  1  0  0  0  0
 22 44  1  0  0  0  0
 23 24  2  0  0  0  0
 23 45  1  0  0  0  0
 24 46  1  0  0  0  0
 25 26  2  0  0  0  0
 25 27  1  0  0  0  0
 27 28  2  0  0  0  0
 27 47  1  0  0  0  0
 28 48  1  0  0  0  0
 29 30  2  0  0  0  0
 29 49  1  0  0  0  0
 30 50  1  0  0  0  0
M  END
$$$$
