
 OpenBabel01122422483D

 43 46  0  0  0  0  0  0  0  0999 V2000
    0.8742    0.0878   -0.3111 O   0  0  0  0  0  0  0  0  0  0  0  0
    2.0952    0.0479   -0.1838 C   0  0  0  0  0  0  0  0  0  0  0  0
    2.8473    0.9037    0.6071 N   0  0  0  0  0  0  0  0  0  0  0  0
    2.2480    1.8751    1.4363 C   0  0  0  0  0  0  0  0  0  0  0  0
    1.3337    2.7751    0.8714 C   0  0  0  0  0  0  0  0  0  0  0  0
    0.7538    3.7654    1.6557 C   0  0  0  0  0  0  0  0  0  0  0  0
   -0.0834    4.6469    1.0941 F   0  0  0  0  0  0  0  0  0  0  0  0
    1.0399    3.8626    3.0103 C   0  0  0  0  0  0  0  0  0  0  0  0
    1.9498    2.9738    3.5843 C   0  0  0  0  0  0  0  0  0  0  0  0
    2.5755    1.9881    2.7998 C   0  0  0  0  0  0  0  0  0  0  0  0
    3.5037    1.0745    3.4907 C   0  0  0  0  0  0  0  0  0  0  0  0
    4.1993    1.3800    4.5492 N   0  0  0  0  0  0  0  0  0  0  0  0
    4.9017    0.2351    4.8250 N   0  0  0  0  0  0  0  0  0  0  0  0
    4.5927   -0.7620    3.9113 C   0  0  0  0  0  0  0  0  0  0  0  0
    5.0326   -1.8953    3.8715 O   0  0  0  0  0  0  0  0  0  0  0  0
    3.6878   -0.2012    3.0646 N   0  0  0  0  0  0  0  0  0  0  0  0
    2.8835   -1.0456   -0.8258 C   0  0  0  0  0  0  0  0  0  0  0  0
    2.2539   -1.9708   -1.6479 C   0  0  0  0  0  0  0  0  0  0  0  0
    3.0321   -2.9638   -2.2325 C   0  0  0  0  0  0  0  0  0  0  0  0
    4.4023   -2.9873   -1.9869 C   0  0  0  0  0  0  0  0  0  0  0  0
    4.9410   -2.0105   -1.1617 C   0  0  0  0  0  0  0  0  0  0  0  0
    6.3184   -2.0327   -0.9840 O   0  0  0  0  0  0  0  0  0  0  0  0
    6.9474   -0.8170   -0.8274 C   0  0  0  0  0  0  0  0  0  0  0  0
    8.0057   -0.7654    0.0793 C   0  0  0  0  0  0  0  0  0  0  0  0
    8.6901    0.4341    0.2856 C   0  0  0  0  0  0  0  0  0  0  0  0
    8.3221    1.5803   -0.4244 C   0  0  0  0  0  0  0  0  0  0  0  0
    7.2881    1.5194   -1.3546 C   0  0  0  0  0  0  0  0  0  0  0  0
    6.6121    0.3189   -1.5725 C   0  0  0  0  0  0  0  0  0  0  0  0
    4.2088   -1.0576   -0.5388 N   0  0  0  0  0  0  0  0  0  0  0  0
    3.8031    0.5991    0.7934 H   0  0  0  0  0  0  0  0  0  0  0  0
    1.0930    2.7410   -0.1874 H   0  0  0  0  0  0  0  0  0  0  0  0
    0.5544    4.6279    3.6090 H   0  0  0  0  0  0  0  0  0  0  0  0
    2.1555    3.0412    4.6513 H   0  0  0  0  0  0  0  0  0  0  0  0
    5.5443    0.1568    5.5995 H   0  0  0  0  0  0  0  0  0  0  0  0
    3.2310   -0.7053    2.3233 H   0  0  0  0  0  0  0  0  0  0  0  0
    1.1847   -1.9181   -1.8291 H   0  0  0  0  0  0  0  0  0  0  0  0
    2.5761   -3.7045   -2.8844 H   0  0  0  0  0  0  0  0  0  0  0  0
    5.0383   -3.7369   -2.4457 H   0  0  0  0  0  0  0  0  0  0  0  0
    8.2936   -1.6543    0.6354 H   0  0  0  0  0  0  0  0  0  0  0  0
    9.5076    0.4786    0.9980 H   0  0  0  0  0  0  0  0  0  0  0  0
    8.8468    2.5157   -0.2571 H   0  0  0  0  0  0  0  0  0  0  0  0
    7.0011    2.4077   -1.9148 H   0  0  0  0  0  0  0  0  0  0  0  0
    5.8183    0.2845   -2.3140 H   0  0  0  0  0  0  0  0  0  0  0  0
  1  2  2  0  0  0  0
  2  3  1  0  0  0  0
  2 17  1  0  0  0  0
  3  4  1  0  0  0  0
  3 30  1  0  0  0  0
  4  5  2  0  0  0  0
  4 10  1  0  0  0  0
  5  6  1  0  0  0  0
  5 31  1  0  0  0  0
  6  7  1  0  0  0  0
  6  8  2  0  0  0  0
  8  9  1  0  0  0  0
  8 32  1  0  0  0  0
  9 10  2  0  0  0  0
  9 33  1  0  0  0  0
 10 11  1  0  0  0  0
 11 12  2  0  0  0  0
 11 16  1  0  0  0  0
 12 13  1  0  0  0  0
 13 14  1  0  0  0  0
 13 34  1  0  0  0  0
 14 15  2  0  0  0  0
 14 16  1  0  0  0  0
 16 35  1  0  0  0  0
 17 18  2  0  0  0  0
 17 29  1  0  0  0  0
 18 19  1  0  0  0  0
 18 36  1  0  0  0  0
 19 20  2  0  0  0  0
 19 37  1  0  0  0  0
 20 21  1  0  0  0  0
 20 38  1  0  0  0  0
 21 22  1  0  0  0  0
 21 29  2  0  0  0  0
 22 23  1  0  0  0  0
 23 24  2  0  0  0  0
 23 28  1  0  0  0  0
 24 25  1  0  0  0  0
 24 39  1  0  0  0  0
 25 26  2  0  0  0  0
 25 40  1  0  0  0  0
 26 27  1  0  0  0  0
 26 41  1  0  0  0  0
 27 28  2  0  0  0  0
 27 42  1  0  0  0  0
 28 43  1  0  0  0  0
M  END
$$$$
