
 OpenBabel01122422483D

 51 54  0  0  0  0  0  0  0  0999 V2000
    1.8137    0.6258    0.9490 O   0  0  0  0  0  0  0  0  0  0  0  0
    2.4449    0.0244    0.0816 C   0  0  0  0  0  0  0  0  0  0  0  0
    3.0990    0.7380   -1.0981 C   0  0  0  0  0  0  0  0  0  0  0  0
    2.1262    1.3451   -2.0918 C   0  0  0  0  0  0  0  0  0  0  0  0
    2.6018    2.0133   -3.2275 C   0  0  0  0  0  0  0  0  0  0  0  0
    1.7097    2.5337   -4.1735 C   0  0  0  0  0  0  0  0  0  0  0  0
    0.3334    2.3618   -4.0155 C   0  0  0  0  0  0  0  0  0  0  0  0
   -0.1519    1.6751   -2.9085 C   0  0  0  0  0  0  0  0  0  0  0  0
   -1.5039    1.4505   -2.8563 O   0  0  0  0  0  0  0  0  0  0  0  0
   -1.8709    0.3292   -2.0421 C   0  0  0  0  0  0  0  0  0  0  0  0
   -3.2083   -0.1919   -2.4698 C   0  0  0  0  0  0  0  0  0  0  0  0
   -4.3729    0.5524   -2.2936 C   0  0  0  0  0  0  0  0  0  0  0  0
   -5.5897    0.0184   -2.6989 C   0  0  0  0  0  0  0  0  0  0  0  0
   -5.5976   -1.2483   -3.2617 C   0  0  0  0  0  0  0  0  0  0  0  0
   -4.4920   -2.0014   -3.4402 N   0  0  0  0  0  0  0  0  0  0  0  0
   -3.3244   -1.4546   -3.0453 C   0  0  0  0  0  0  0  0  0  0  0  0
    0.7403    1.2268   -1.9319 C   0  0  0  0  0  0  0  0  0  0  0  0
    2.5268   -1.3494    0.0412 N   0  0  0  0  0  0  0  0  0  0  0  0
    1.9597   -2.1615    1.0933 C   0  0  0  0  0  0  0  0  0  0  0  0
    3.0302   -2.7709    1.9293 C   0  0  0  0  0  0  0  0  0  0  0  0
    2.8936   -3.7115    2.9392 C   0  0  0  0  0  0  0  0  0  0  0  0
    1.7850   -4.4406    3.5450 C   0  0  0  0  0  0  0  0  0  0  0  0
    1.9866   -5.6980    4.1332 C   0  0  0  0  0  0  0  0  0  0  0  0
    0.9080   -6.4417    4.6229 C   0  0  0  0  0  0  0  0  0  0  0  0
   -0.3869   -5.9370    4.5357 C   0  0  0  0  0  0  0  0  0  0  0  0
   -0.6017   -4.6780    3.9860 C   0  0  0  0  0  0  0  0  0  0  0  0
    0.4776   -3.9328    3.5050 C   0  0  0  0  0  0  0  0  0  0  0  0
    4.1542   -4.0032    3.3946 O   0  0  0  0  0  0  0  0  0  0  0  0
    4.9746   -3.2284    2.6374 C   0  0  0  0  0  0  0  0  0  0  0  0
    4.3734   -2.4899    1.7337 N   0  0  0  0  0  0  0  0  0  0  0  0
    3.7350    0.0278   -1.6377 H   0  0  0  0  0  0  0  0  0  0  0  0
    3.7431    1.5218   -0.6867 H   0  0  0  0  0  0  0  0  0  0  0  0
    3.6697    2.1320   -3.3876 H   0  0  0  0  0  0  0  0  0  0  0  0
    2.0938    3.0602   -5.0442 H   0  0  0  0  0  0  0  0  0  0  0  0
   -0.3548    2.7441   -4.7644 H   0  0  0  0  0  0  0  0  0  0  0  0
   -1.9212    0.6341   -0.9901 H   0  0  0  0  0  0  0  0  0  0  0  0
   -1.1423   -0.4867   -2.1396 H   0  0  0  0  0  0  0  0  0  0  0  0
   -4.3310    1.5428   -1.8467 H   0  0  0  0  0  0  0  0  0  0  0  0
   -6.5116    0.5745   -2.5816 H   0  0  0  0  0  0  0  0  0  0  0  0
   -6.5239   -1.7037   -3.5989 H   0  0  0  0  0  0  0  0  0  0  0  0
   -2.4527   -2.0852   -3.2050 H   0  0  0  0  0  0  0  0  0  0  0  0
    0.3505    0.7686   -1.0311 H   0  0  0  0  0  0  0  0  0  0  0  0
    3.2559   -1.7805   -0.5117 H   0  0  0  0  0  0  0  0  0  0  0  0
    1.3748   -2.9498    0.6078 H   0  0  0  0  0  0  0  0  0  0  0  0
    1.2891   -1.5627    1.7157 H   0  0  0  0  0  0  0  0  0  0  0  0
    2.9864   -6.1224    4.1974 H   0  0  0  0  0  0  0  0  0  0  0  0
    1.0797   -7.4214    5.0613 H   0  0  0  0  0  0  0  0  0  0  0  0
   -1.2281   -6.5223    4.8983 H   0  0  0  0  0  0  0  0  0  0  0  0
   -1.6089   -4.2732    3.9252 H   0  0  0  0  0  0  0  0  0  0  0  0
    0.2669   -2.9461    3.1059 H   0  0  0  0  0  0  0  0  0  0  0  0
    6.0334   -3.3005    2.8438 H   0  0  0  0  0  0  0  0  0  0  0  0
  1  2  2  0  0  0  0
  2  3  1  0  0  0  0
  2 18  1  0  0  0  0
  3  4  1  0  0  0  0
  3 31  1  0  0  0  0
  3 32  1  0  0  0  0
  4  5  2  0  0  0  0
  4 17  1  0  0  0  0
  5  6  1  0  0  0  0
  5 33  1  0  0  0  0
  6  7  2  0  0  0  0
  6 34  1  0  0  0  0
  7  8  1  0  0  0  0
  7 35  1  0  0  0  0
  8  9  1  0  0  0  0
  8 17  2  0  0  0  0
  9 10  1  0  0  0  0
 10 11  1  0  0  0  0
 10 36  1  0  0  0  0
 10 37  1  0  0  0  0
 11 12  2  0  0  0  0
 11 16  1  0  0  0  0
 12 13  1  0  0  0  0
 12 38  1  0  0  0  0
 13 14  2  0  0  0  0
 13 39  1  0  0  0  0
 14 15  1  0  0  0  0
 14 40  1  0  0  0  0
 15 16  2  0  0  0  0
 16 41  1  0  0  0  0
 17 42  1  0  0  0  0
 18 19  1  0  0  0  0
 18 43  1  0  0  0  0
 19 20  1  0  0  0  0
 19 44  1  0  0  0  0
 19 45  1  0  0  0  0
 20 21  2  0  0  0  0
 20 30  1  0  0  0  0
 21 22  1  0  0  0  0
 21 28  1  0  0  0  0
 22 23  2  0  0  0  0
 22 27  1  0  0  0  0
 23 24  1  0  0  0  0
 23 46  1  0  0  0  0
 24 25  2  0  0  0  0
 24 47  1  0  0  0  0
 25 26  1  0  0  0  0
 25 48  1  0  0  0  0
 26 27  2  0  0  0  0
 26 49  1  0  0  0  0
 27 50  1  0  0  0  0
 28 29  1  0  0  0  0
 29 30  2  0  0  0  0
 29 51  1  0  0  0  0
M  END
$$$$
