
 OpenBabel01122422483D

 48 51  0  0  0  0  0  0  0  0999 V2000
    1.9121   -1.3272    0.1948 O   0  0  0  0  0  0  0  0  0  0  0  0
    2.1243   -0.1237    0.1195 C   0  0  0  0  0  0  0  0  0  0  0  0
    2.9050    0.6711    1.1478 C   0  0  0  0  0  0  0  0  0  0  0  0
    2.0143    1.2067    2.1187 O   0  0  0  0  0  0  0  0  0  0  0  0
    2.5857    1.9010    3.1541 C   0  0  0  0  0  0  0  0  0  0  0  0
    3.9562    2.1082    3.3322 C   0  0  0  0  0  0  0  0  0  0  0  0
    4.4240    2.8090    4.4451 C   0  0  0  0  0  0  0  0  0  0  0  0
    3.5257    3.3197    5.3779 C   0  0  0  0  0  0  0  0  0  0  0  0
    2.1512    3.1738    5.1785 C   0  0  0  0  0  0  0  0  0  0  0  0
    1.2053    3.6702    6.0506 O   0  0  0  0  0  0  0  0  0  0  0  0
    1.4287    4.9237    6.6148 C   0  0  0  0  0  0  0  0  0  0  0  0
    0.7963    5.1859    7.8220 C   0  0  0  0  0  0  0  0  0  0  0  0
    1.0213    6.4187    8.4313 C   0  0  0  0  0  0  0  0  0  0  0  0
    1.8591    7.3425    7.8145 C   0  0  0  0  0  0  0  0  0  0  0  0
    2.4238    7.0031    6.5972 C   0  0  0  0  0  0  0  0  0  0  0  0
    2.2157    5.8230    5.9787 N   0  0  0  0  0  0  0  0  0  0  0  0
    1.6867    2.4328    4.0867 C   0  0  0  0  0  0  0  0  0  0  0  0
    1.6832    0.6870   -0.8801 O   0  0  0  0  0  0  0  0  0  0  0  0
    0.9165    0.0610   -1.9139 C   0  0  0  0  0  0  0  0  0  0  0  0
   -0.3898    0.7571   -1.9486 C   0  0  0  0  0  0  0  0  0  0  0  0
   -1.0277    1.4885   -2.9254 C   0  0  0  0  0  0  0  0  0  0  0  0
   -2.2632    1.9002   -2.3564 C   0  0  0  0  0  0  0  0  0  0  0  0
   -3.3131    2.6996   -2.9824 C   0  0  0  0  0  0  0  0  0  0  0  0
   -3.5425    2.6256   -4.3580 C   0  0  0  0  0  0  0  0  0  0  0  0
   -4.5419    3.4133   -4.9010 C   0  0  0  0  0  0  0  0  0  0  0  0
   -5.3087    4.2588   -4.1818 N   0  0  0  0  0  0  0  0  0  0  0  0
   -5.0739    4.3084   -2.8526 C   0  0  0  0  0  0  0  0  0  0  0  0
   -4.1048    3.5559   -2.2131 C   0  0  0  0  0  0  0  0  0  0  0  0
   -2.3728    1.4512   -1.0964 N   0  0  0  0  0  0  0  0  0  0  0  0
   -1.2443    0.7575   -0.8826 N   0  0  0  0  0  0  0  0  0  0  0  0
    3.4516    1.4687    0.6295 H   0  0  0  0  0  0  0  0  0  0  0  0
    3.6259   -0.0190    1.6034 H   0  0  0  0  0  0  0  0  0  0  0  0
    4.6942    1.7375    2.6297 H   0  0  0  0  0  0  0  0  0  0  0  0
    5.4902    2.9671    4.5835 H   0  0  0  0  0  0  0  0  0  0  0  0
    3.9079    3.8567    6.2414 H   0  0  0  0  0  0  0  0  0  0  0  0
    0.1547    4.4447    8.2841 H   0  0  0  0  0  0  0  0  0  0  0  0
    0.5523    6.6556    9.3820 H   0  0  0  0  0  0  0  0  0  0  0  0
    2.0658    8.3053    8.2686 H   0  0  0  0  0  0  0  0  0  0  0  0
    3.0844    7.6876    6.0729 H   0  0  0  0  0  0  0  0  0  0  0  0
    0.6187    2.2809    3.9550 H   0  0  0  0  0  0  0  0  0  0  0  0
    0.7730   -1.0156   -1.7750 H   0  0  0  0  0  0  0  0  0  0  0  0
    1.4529    0.2071   -2.8576 H   0  0  0  0  0  0  0  0  0  0  0  0
   -0.6511    1.7104   -3.9142 H   0  0  0  0  0  0  0  0  0  0  0  0
   -2.9743    1.9590   -4.9953 H   0  0  0  0  0  0  0  0  0  0  0  0
   -4.7599    3.3816   -5.9647 H   0  0  0  0  0  0  0  0  0  0  0  0
   -5.7055    4.9944   -2.2956 H   0  0  0  0  0  0  0  0  0  0  0  0
   -3.9636    3.6404   -1.1403 H   0  0  0  0  0  0  0  0  0  0  0  0
   -1.1138    0.3148    0.0225 H   0  0  0  0  0  0  0  0  0  0  0  0
  1  2  2  0  0  0  0
  2  3  1  0  0  0  0
  2 18  1  0  0  0  0
  3  4  1  0  0  0  0
  3 31  1  0  0  0  0
  3 32  1  0  0  0  0
  4  5  1  0  0  0  0
  5  6  2  0  0  0  0
  5 17  1  0  0  0  0
  6  7  1  0  0  0  0
  6 33  1  0  0  0  0
  7  8  2  0  0  0  0
  7 34  1  0  0  0  0
  8  9  1  0  0  0  0
  8 35  1  0  0  0  0
  9 10  1  0  0  0  0
  9 17  2  0  0  0  0
 10 11  1  0  0  0  0
 11 12  2  0  0  0  0
 11 16  1  0  0  0  0
 12 13  1  0  0  0  0
 12 36  1  0  0  0  0
 13 14  2  0  0  0  0
 13 37  1  0  0  0  0
 14 15  1  0  0  0  0
 14 38  1  0  0  0  0
 15 16  2  0  0  0  0
 15 39  1  0  0  0  0
 17 40  1  0  0  0  0
 18 19  1  0  0  0  0
 19 20  1  0  0  0  0
 19 41  1  0  0  0  0
 19 42  1  0  0  0  0
 20 21  2  0  0  0  0
 20 30  1  0  0  0  0
 21 22  1  0  0  0  0
 21 43  1  0  0  0  0
 22 23  1  0  0  0  0
 22 29  2  0  0  0  0
 23 24  2  0  0  0  0
 23 28  1  0  0  0  0
 24 25  1  0  0  0  0
 24 44  1  0  0  0  0
 25 26  2  0  0  0  0
 25 45  1  0  0  0  0
 26 27  1  0  0  0  0
 27 28  2  0  0  0  0
 27 46  1  0  0  0  0
 28 47  1  0  0  0  0
 29 30  1  0  0  0  0
 30 48  1  0  0  0  0
M  END
$$$$
