
 OpenBabel01122422483D

 51 54  0  0  1  0  0  0  0  0999 V2000
    2.3308   -0.6066   -2.4463 O   0  0  0  0  0  0  0  0  0  0  0  0
    2.3986    0.5165   -1.9331 C   0  0  0  0  0  0  0  0  0  0  0  0
    1.0821    1.2529   -1.7048 C   0  0  0  0  0  0  0  0  0  0  0  0
    0.9834    2.3327   -0.6288 C   0  0  3  0  0  0  0  0  0  0  0  0
    1.8829    3.3837   -0.9923 O   0  0  0  0  0  0  0  0  0  0  0  0
   -0.4866    2.8460   -0.5569 C   0  0  0  0  0  0  0  0  0  0  0  0
   -0.7721    3.9504    0.4396 C   0  0  0  0  0  0  0  0  0  0  0  0
   -1.2467    5.1990    0.0020 C   0  0  0  0  0  0  0  0  0  0  0  0
   -1.5559    6.2103    0.9164 C   0  0  0  0  0  0  0  0  0  0  0  0
   -1.4065    5.9836    2.2813 C   0  0  0  0  0  0  0  0  0  0  0  0
   -0.9552    4.7447    2.7316 C   0  0  0  0  0  0  0  0  0  0  0  0
   -0.6421    3.7330    1.8175 C   0  0  0  0  0  0  0  0  0  0  0  0
    3.6048    1.1491   -1.6713 N   0  0  0  0  0  0  0  0  0  0  0  0
    4.8280    0.4370   -1.4517 C   0  0  0  0  0  0  0  0  0  0  0  0
    4.7453   -0.8544   -0.9199 C   0  0  0  0  0  0  0  0  0  0  0  0
    5.8390   -1.4270   -0.2919 C   0  0  0  0  0  0  0  0  0  0  0  0
    7.0600   -0.7795   -0.2983 C   0  0  0  0  0  0  0  0  0  0  0  0
    8.0413   -1.2320    0.5842 N   0  0  0  0  0  0  0  0  0  0  0  0
    9.2515   -1.0087    0.2161 C   0  0  0  0  0  0  0  0  0  0  0  0
    9.6060   -0.3987   -0.9718 N   0  0  0  0  0  0  0  0  0  0  0  0
   10.6708   -1.0618   -1.6761 C   0  0  0  0  0  0  0  0  0  0  0  0
   11.5496   -0.4182   -2.5376 C   0  0  0  0  0  0  0  0  0  0  0  0
   12.5039   -1.1661   -3.2504 C   0  0  0  0  0  0  0  0  0  0  0  0
   12.5676   -2.5586   -3.1350 C   0  0  0  0  0  0  0  0  0  0  0  0
   11.7190   -3.2133   -2.2578 C   0  0  0  0  0  0  0  0  0  0  0  0
   10.7966   -2.4698   -1.5246 C   0  0  0  0  0  0  0  0  0  0  0  0
    8.7051    0.5005   -1.5793 C   0  0  0  0  0  0  0  0  0  0  0  0
    8.9758    1.3335   -2.4439 O   0  0  0  0  0  0  0  0  0  0  0  0
    7.2515    0.3143   -1.1387 C   0  0  0  0  0  0  0  0  0  0  0  0
    6.1151    1.0021   -1.6323 C   0  0  0  0  0  0  0  0  0  0  0  0
    0.3578    0.4668   -1.4400 H   0  0  0  0  0  0  0  0  0  0  0  0
    0.7803    1.6595   -2.6766 H   0  0  0  0  0  0  0  0  0  0  0  0
    1.2986    1.9385    0.3438 H   0  0  0  0  0  0  0  0  0  0  0  0
    1.3974    4.0092   -1.5600 H   0  0  0  0  0  0  0  0  0  0  0  0
   -1.1644    2.0120   -0.3265 H   0  0  0  0  0  0  0  0  0  0  0  0
   -0.7813    3.2024   -1.5536 H   0  0  0  0  0  0  0  0  0  0  0  0
   -1.3964    5.3959   -1.0576 H   0  0  0  0  0  0  0  0  0  0  0  0
   -1.9226    7.1714    0.5637 H   0  0  0  0  0  0  0  0  0  0  0  0
   -1.6504    6.7674    2.9945 H   0  0  0  0  0  0  0  0  0  0  0  0
   -0.8518    4.5642    3.7988 H   0  0  0  0  0  0  0  0  0  0  0  0
   -0.3113    2.7692    2.1962 H   0  0  0  0  0  0  0  0  0  0  0  0
    3.5917    2.1506   -1.4846 H   0  0  0  0  0  0  0  0  0  0  0  0
    3.8085   -1.3988   -0.8693 H   0  0  0  0  0  0  0  0  0  0  0  0
    5.7347   -2.3714    0.2293 H   0  0  0  0  0  0  0  0  0  0  0  0
   10.0932   -1.3611    0.8309 H   0  0  0  0  0  0  0  0  0  0  0  0
   11.5332    0.6621   -2.6475 H   0  0  0  0  0  0  0  0  0  0  0  0
   13.1996   -0.6622   -3.9169 H   0  0  0  0  0  0  0  0  0  0  0  0
   13.2711   -3.1338   -3.7331 H   0  0  0  0  0  0  0  0  0  0  0  0
   11.7500   -4.2959   -2.1563 H   0  0  0  0  0  0  0  0  0  0  0  0
   10.1260   -3.0340   -0.8760 H   0  0  0  0  0  0  0  0  0  0  0  0
    6.2359    1.9276   -2.1941 H   0  0  0  0  0  0  0  0  0  0  0  0
  1  2  2  0  0  0  0
  2  3  1  0  0  0  0
  2 13  1  0  0  0  0
  3  4  1  0  0  0  0
  3 31  1  0  0  0  0
  3 32  1  0  0  0  0
  4  5  1  0  0  0  0
  4  6  1  0  0  0  0
  4 33  1  0  0  0  0
  5 34  1  0  0  0  0
  6  7  1  0  0  0  0
  6 35  1  0  0  0  0
  6 36  1  0  0  0  0
  7  8  2  0  0  0  0
  7 12  1  0  0  0  0
  8  9  1  0  0  0  0
  8 37  1  0  0  0  0
  9 10  2  0  0  0  0
  9 38  1  0  0  0  0
 10 11  1  0  0  0  0
 10 39  1  0  0  0  0
 11 12  2  0  0  0  0
 11 40  1  0  0  0  0
 12 41  1  0  0  0  0
 13 14  1  0  0  0  0
 13 42  1  0  0  0  0
 14 15  2  0  0  0  0
 14 30  1  0  0  0  0
 15 16  1  0  0  0  0
 15 43  1  0  0  0  0
 16 17  2  0  0  0  0
 16 44  1  0  0  0  0
 17 18  1  0  0  0  0
 17 29  1  0  0  0  0
 18 19  2  0  0  0  0
 19 20  1  0  0  0  0
 19 45  1  0  0  0  0
 20 21  1  0  0  0  0
 20 27  1  0  0  0  0
 21 22  2  0  0  0  0
 21 26  1  0  0  0  0
 22 23  1  0  0  0  0
 22 46  1  0  0  0  0
 23 24  2  0  0  0  0
 23 47  1  0  0  0  0
 24 25  1  0  0  0  0
 24 48  1  0  0  0  0
 25 26  2  0  0  0  0
 25 49  1  0  0  0  0
 26 50  1  0  0  0  0
 27 28  2  0  0  0  0
 27 29  1  0  0  0  0
 29 30  2  0  0  0  0
 30 51  1  0  0  0  0
M  END
$$$$
