
 OpenBabel01122422483D

 37 39  0  0  0  0  0  0  0  0999 V2000
    9.0690   -4.4963   -1.7661 N   0  0  0  0  0  0  0  0  0  0  0  0
    8.5143   -3.5678   -1.3418 C   0  0  0  0  0  0  0  0  0  0  0  0
    7.8620   -2.4026   -0.8279 C   0  0  0  0  0  0  0  0  0  0  0  0
    6.6091   -2.4999   -0.2393 C   0  0  0  0  0  0  0  0  0  0  0  0
    5.9923   -3.6884   -0.1399 F   0  0  0  0  0  0  0  0  0  0  0  0
    5.9799   -1.3574    0.2492 C   0  0  0  0  0  0  0  0  0  0  0  0
    4.7660   -1.4566    0.8073 F   0  0  0  0  0  0  0  0  0  0  0  0
    6.5818   -0.0996    0.1680 C   0  0  0  0  0  0  0  0  0  0  0  0
    7.8462    0.0106   -0.4112 C   0  0  0  0  0  0  0  0  0  0  0  0
    8.5893    1.2920   -0.5774 C   0  0  0  0  0  0  0  0  0  0  0  0
    9.6264    1.2270   -1.2345 O   0  0  0  0  0  0  0  0  0  0  0  0
    8.1053    2.4400    0.0294 N   0  0  0  0  0  0  0  0  0  0  0  0
    8.7100    3.7220   -0.0876 C   0  0  0  0  0  0  0  0  0  0  0  0
    9.6942    4.0093   -1.0326 C   0  0  0  0  0  0  0  0  0  0  0  0
   10.3110    5.2578   -1.0653 C   0  0  0  0  0  0  0  0  0  0  0  0
    9.9279    6.2709   -0.1818 C   0  0  0  0  0  0  0  0  0  0  0  0
   10.6046    7.5277   -0.2430 N   0  0  0  0  0  0  0  0  0  0  0  0
   11.9935    7.5661   -0.3495 C   0  0  0  0  0  0  0  0  0  0  0  0
   12.6662    8.7133   -0.4905 C   0  0  0  0  0  0  0  0  0  0  0  0
   11.9499    9.9581   -0.5514 C   0  0  0  0  0  0  0  0  0  0  0  0
   10.6159    9.9750   -0.4569 C   0  0  0  0  0  0  0  0  0  0  0  0
    9.8423    8.7086   -0.2940 C   0  0  0  0  0  0  0  0  0  0  0  0
    8.6149    8.7810   -0.2681 O   0  0  0  0  0  0  0  0  0  0  0  0
    8.8993    6.0169    0.7318 C   0  0  0  0  0  0  0  0  0  0  0  0
    8.3097    4.7490    0.7767 C   0  0  0  0  0  0  0  0  0  0  0  0
    7.3628    4.5039    1.6977 F   0  0  0  0  0  0  0  0  0  0  0  0
    8.4750   -1.1517   -0.9131 C   0  0  0  0  0  0  0  0  0  0  0  0
    6.0305    0.7532    0.5454 H   0  0  0  0  0  0  0  0  0  0  0  0
    7.3490    2.3876    0.7008 H   0  0  0  0  0  0  0  0  0  0  0  0
   10.0070    3.2909   -1.7819 H   0  0  0  0  0  0  0  0  0  0  0  0
   11.0613    5.4407   -1.8311 H   0  0  0  0  0  0  0  0  0  0  0  0
   12.5254    6.6206   -0.2801 H   0  0  0  0  0  0  0  0  0  0  0  0
   13.7489    8.7241   -0.5589 H   0  0  0  0  0  0  0  0  0  0  0  0
   12.5167   10.8740   -0.6792 H   0  0  0  0  0  0  0  0  0  0  0  0
   10.0377   10.8878   -0.5126 H   0  0  0  0  0  0  0  0  0  0  0  0
    8.5795    6.7746    1.4412 H   0  0  0  0  0  0  0  0  0  0  0  0
    9.4581   -1.0753   -1.3830 H   0  0  0  0  0  0  0  0  0  0  0  0
  1  2  3  0  0  0  0
  2  3  1  0  0  0  0
  3  4  2  0  0  0  0
  3 27  1  0  0  0  0
  4  5  1  0  0  0  0
  4  6  1  0  0  0  0
  6  7  1  0  0  0  0
  6  8  2  0  0  0  0
  8  9  1  0  0  0  0
  8 28  1  0  0  0  0
  9 10  1  0  0  0  0
  9 27  2  0  0  0  0
 10 11  2  0  0  0  0
 10 12  1  0  0  0  0
 12 13  1  0  0  0  0
 12 29  1  0  0  0  0
 13 14  2  0  0  0  0
 13 25  1  0  0  0  0
 14 15  1  0  0  0  0
 14 30  1  0  0  0  0
 15 16  2  0  0  0  0
 15 31  1  0  0  0  0
 16 17  1  0  0  0  0
 16 24  1  0  0  0  0
 17 18  1  0  0  0  0
 17 22  1  0  0  0  0
 18 19  2  0  0  0  0
 18 32  1  0  0  0  0
 19 20  1  0  0  0  0
 19 33  1  0  0  0  0
 20 21  2  0  0  0  0
 20 34  1  0  0  0  0
 21 22  1  0  0  0  0
 21 35  1  0  0  0  0
 22 23  2  0  0  0  0
 24 25  2  0  0  0  0
 24 36  1  0  0  0  0
 25 26  1  0  0  0  0
 27 37  1  0  0  0  0
M  END
$$$$
