
 OpenBabel01122422483D

 40 43  0  0  0  0  0  0  0  0999 V2000
   10.0238   -3.1139    7.5752 O   0  0  0  0  0  0  0  0  0  0  0  0
    9.7827   -2.5432    6.5223 C   0  0  0  0  0  0  0  0  0  0  0  0
    9.7106   -1.1760    6.3686 N   0  0  0  0  0  0  0  0  0  0  0  0
    9.4185   -0.9186    5.0608 C   0  0  0  0  0  0  0  0  0  0  0  0
    9.3193   -2.1465    4.4380 C   0  0  0  0  0  0  0  0  0  0  0  0
    9.0241   -2.2578    3.0965 C   0  0  0  0  0  0  0  0  0  0  0  0
    8.8296   -1.0605    2.3922 C   0  0  0  0  0  0  0  0  0  0  0  0
    8.3744   -1.1027    0.6847 S   0  0  0  0  0  0  0  0  0  0  0  0
    8.3932   -2.4868    0.2593 O   0  0  0  0  0  0  0  0  0  0  0  0
    7.1797   -0.2992    0.5452 O   0  0  0  0  0  0  0  0  0  0  0  0
    9.6140   -0.2880   -0.1184 N   0  0  0  0  0  0  0  0  0  0  0  0
   10.9391   -0.7879   -0.0422 C   0  0  0  0  0  0  0  0  0  0  0  0
   11.3558   -1.7829   -0.9196 C   0  0  0  0  0  0  0  0  0  0  0  0
   12.6583   -2.2675   -0.8333 C   0  0  0  0  0  0  0  0  0  0  0  0
   13.5203   -1.7790    0.1507 C   0  0  0  0  0  0  0  0  0  0  0  0
   14.7667   -2.2756    0.1780 F   0  0  0  0  0  0  0  0  0  0  0  0
   13.1173   -0.8007    1.0779 C   0  0  0  0  0  0  0  0  0  0  0  0
   13.9959   -0.3188    2.1720 C   0  0  0  0  0  0  0  0  0  0  0  0
   13.9305    1.0090    2.6390 C   0  0  0  0  0  0  0  0  0  0  0  0
   14.7303    1.4554    3.6960 C   0  0  0  0  0  0  0  0  0  0  0  0
   15.6293    0.5866    4.3044 C   0  0  0  0  0  0  0  0  0  0  0  0
   15.7210   -0.7281    3.8619 C   0  0  0  0  0  0  0  0  0  0  0  0
   14.9084   -1.1752    2.8149 C   0  0  0  0  0  0  0  0  0  0  0  0
   11.8061   -0.3032    0.9410 C   0  0  0  0  0  0  0  0  0  0  0  0
    8.9316    0.1845    3.0386 C   0  0  0  0  0  0  0  0  0  0  0  0
    8.7813    1.3233    2.3478 F   0  0  0  0  0  0  0  0  0  0  0  0
    9.2348    0.2726    4.3980 C   0  0  0  0  0  0  0  0  0  0  0  0
    9.5401   -3.2019    5.3099 O   0  0  0  0  0  0  0  0  0  0  0  0
    9.8524   -0.5265    7.1236 H   0  0  0  0  0  0  0  0  0  0  0  0
    8.9365   -3.2285    2.6220 H   0  0  0  0  0  0  0  0  0  0  0  0
    9.4748    0.7223   -0.1347 H   0  0  0  0  0  0  0  0  0  0  0  0
   10.6813   -2.1710   -1.6791 H   0  0  0  0  0  0  0  0  0  0  0  0
   13.0132   -3.0273   -1.5238 H   0  0  0  0  0  0  0  0  0  0  0  0
   13.2583    1.7284    2.1770 H   0  0  0  0  0  0  0  0  0  0  0  0
   14.6544    2.4848    4.0366 H   0  0  0  0  0  0  0  0  0  0  0  0
   16.2600    0.9336    5.1182 H   0  0  0  0  0  0  0  0  0  0  0  0
   16.4242   -1.4128    4.3294 H   0  0  0  0  0  0  0  0  0  0  0  0
   14.9985   -2.2169    2.5119 H   0  0  0  0  0  0  0  0  0  0  0  0
   11.4472    0.4609    1.6228 H   0  0  0  0  0  0  0  0  0  0  0  0
    9.3165    1.2333    4.8927 H   0  0  0  0  0  0  0  0  0  0  0  0
  1  2  2  0  0  0  0
  2  3  1  0  0  0  0
  2 28  1  0  0  0  0
  3  4  1  0  0  0  0
  3 29  1  0  0  0  0
  4  5  2  0  0  0  0
  4 27  1  0  0  0  0
  5  6  1  0  0  0  0
  5 28  1  0  0  0  0
  6  7  2  0  0  0  0
  6 30  1  0  0  0  0
  7  8  1  0  0  0  0
  7 25  1  0  0  0  0
  8  9  2  0  0  0  0
  8 10  2  0  0  0  0
  8 11  1  0  0  0  0
 11 12  1  0  0  0  0
 11 31  1  0  0  0  0
 12 13  2  0  0  0  0
 12 24  1  0  0  0  0
 13 14  1  0  0  0  0
 13 32  1  0  0  0  0
 14 15  2  0  0  0  0
 14 33  1  0  0  0  0
 15 16  1  0  0  0  0
 15 17  1  0  0  0  0
 17 18  1  0  0  0  0
 17 24  2  0  0  0  0
 18 19  2  0  0  0  0
 18 23  1  0  0  0  0
 19 20  1  0  0  0  0
 19 34  1  0  0  0  0
 20 21  2  0  0  0  0
 20 35  1  0  0  0  0
 21 22  1  0  0  0  0
 21 36  1  0  0  0  0
 22 23  2  0  0  0  0
 22 37  1  0  0  0  0
 23 38  1  0  0  0  0
 24 39  1  0  0  0  0
 25 26  1  0  0  0  0
 25 27  2  0  0  0  0
 27 40  1  0  0  0  0
M  END
$$$$
