
 OpenBabel01122422483D

 41 44  0  0  0  0  0  0  0  0999 V2000
    1.1046   -0.0691    0.8012 O   0  0  0  0  0  0  0  0  0  0  0  0
    2.2146   -0.0532    0.2829 C   0  0  0  0  0  0  0  0  0  0  0  0
    2.7738    1.0013   -0.4194 N   0  0  0  0  0  0  0  0  0  0  0  0
    2.1922    2.2664   -0.6405 C   0  0  0  0  0  0  0  0  0  0  0  0
    1.0790    2.7210    0.0603 C   0  0  0  0  0  0  0  0  0  0  0  0
    0.5309    3.9801   -0.2001 C   0  0  0  0  0  0  0  0  0  0  0  0
   -0.5908    4.4594    0.5962 C   0  0  0  0  0  0  0  0  0  0  0  0
   -1.2154    5.6381    0.4157 N   0  0  0  0  0  0  0  0  0  0  0  0
   -2.1062    5.5852    1.4169 N   0  0  0  0  0  0  0  0  0  0  0  0
   -2.0656    4.4969    2.1891 N   0  0  0  0  0  0  0  0  0  0  0  0
   -1.0968    3.7605    1.6713 N   0  0  0  0  0  0  0  0  0  0  0  0
    1.1032    4.7757   -1.2050 C   0  0  0  0  0  0  0  0  0  0  0  0
    2.2556    4.3723   -1.9074 C   0  0  0  0  0  0  0  0  0  0  0  0
    2.9016    5.2597   -2.9065 C   0  0  0  0  0  0  0  0  0  0  0  0
    2.8797    6.6554   -2.7649 C   0  0  0  0  0  0  0  0  0  0  0  0
    3.5269    7.4533   -3.6973 C   0  0  0  0  0  0  0  0  0  0  0  0
    4.2013    6.9703   -4.7582 N   0  0  0  0  0  0  0  0  0  0  0  0
    4.2135    5.6302   -4.8973 C   0  0  0  0  0  0  0  0  0  0  0  0
    3.5858    4.7537   -4.0220 C   0  0  0  0  0  0  0  0  0  0  0  0
    2.7894    3.1060   -1.5921 C   0  0  0  0  0  0  0  0  0  0  0  0
    3.0432   -1.2797    0.3639 C   0  0  0  0  0  0  0  0  0  0  0  0
    2.4013   -2.5248    0.3337 C   0  0  0  0  0  0  0  0  0  0  0  0
    1.0763   -2.6233    0.1549 F   0  0  0  0  0  0  0  0  0  0  0  0
    3.1250   -3.7139    0.4451 C   0  0  0  0  0  0  0  0  0  0  0  0
    4.5086   -3.6729    0.5962 C   0  0  0  0  0  0  0  0  0  0  0  0
    5.1482   -2.4389    0.6292 C   0  0  0  0  0  0  0  0  0  0  0  0
    6.4791   -2.3884    0.7738 F   0  0  0  0  0  0  0  0  0  0  0  0
    4.4329   -1.2463    0.5064 C   0  0  0  0  0  0  0  0  0  0  0  0
    5.1217   -0.0608    0.5349 O   0  0  0  0  0  0  0  0  0  0  0  0
    3.6908    0.8428   -0.8229 H   0  0  0  0  0  0  0  0  0  0  0  0
    0.6372    2.1166    0.8487 H   0  0  0  0  0  0  0  0  0  0  0  0
   -2.7727    6.3325    1.5892 H   0  0  0  0  0  0  0  0  0  0  0  0
    0.6402    5.7359   -1.4276 H   0  0  0  0  0  0  0  0  0  0  0  0
    2.3819    7.1355   -1.9286 H   0  0  0  0  0  0  0  0  0  0  0  0
    3.5224    8.5354   -3.6025 H   0  0  0  0  0  0  0  0  0  0  0  0
    4.7646    5.2618   -5.7584 H   0  0  0  0  0  0  0  0  0  0  0  0
    3.6368    3.6898   -4.2270 H   0  0  0  0  0  0  0  0  0  0  0  0
    3.6867    2.7622   -2.1006 H   0  0  0  0  0  0  0  0  0  0  0  0
    2.5952   -4.6621    0.4123 H   0  0  0  0  0  0  0  0  0  0  0  0
    5.0853   -4.5868    0.6889 H   0  0  0  0  0  0  0  0  0  0  0  0
    6.0388   -0.2594    0.8119 H   0  0  0  0  0  0  0  0  0  0  0  0
  1  2  2  0  0  0  0
  2  3  1  0  0  0  0
  2 21  1  0  0  0  0
  3  4  1  0  0  0  0
  3 30  1  0  0  0  0
  4  5  2  0  0  0  0
  4 20  1  0  0  0  0
  5  6  1  0  0  0  0
  5 31  1  0  0  0  0
  6  7  1  0  0  0  0
  6 12  2  0  0  0  0
  7  8  2  0  0  0  0
  7 11  1  0  0  0  0
  8  9  1  0  0  0  0
  9 10  1  0  0  0  0
  9 32  1  0  0  0  0
 10 11  2  0  0  0  0
 12 13  1  0  0  0  0
 12 33  1  0  0  0  0
 13 14  1  0  0  0  0
 13 20  2  0  0  0  0
 14 15  2  0  0  0  0
 14 19  1  0  0  0  0
 15 16  1  0  0  0  0
 15 34  1  0  0  0  0
 16 17  2  0  0  0  0
 16 35  1  0  0  0  0
 17 18  1  0  0  0  0
 18 19  2  0  0  0  0
 18 36  1  0  0  0  0
 19 37  1  0  0  0  0
 20 38  1  0  0  0  0
 21 22  2  0  0  0  0
 21 28  1  0  0  0  0
 22 23  1  0  0  0  0
 22 24  1  0  0  0  0
 24 25  2  0  0  0  0
 24 39  1  0  0  0  0
 25 26  1  0  0  0  0
 25 40  1  0  0  0  0
 26 27  1  0  0  0  0
 26 28  2  0  0  0  0
 28 29  1  0  0  0  0
 29 41  1  0  0  0  0
M  END
$$$$
