
 OpenBabel01122422483D

 48 51  0  0  0  0  0  0  0  0999 V2000
    3.0220    2.3871   -2.2088 O   0  0  0  0  0  0  0  0  0  0  0  0
    3.9354    1.6181   -2.4520 C   0  0  0  0  0  0  0  0  0  0  0  0
    5.0948    2.0018   -3.0272 O   0  0  0  0  0  0  0  0  0  0  0  0
    3.8493    0.1566   -2.2171 C   0  0  0  0  0  0  0  0  0  0  0  0
    2.6209   -0.4702   -2.4047 C   0  0  0  0  0  0  0  0  0  0  0  0
    2.5291   -1.8473   -2.2419 C   0  0  0  0  0  0  0  0  0  0  0  0
    3.6624   -2.5985   -1.8967 C   0  0  0  0  0  0  0  0  0  0  0  0
    4.9016   -1.9976   -1.6227 C   0  0  0  0  0  0  0  0  0  0  0  0
    6.1229   -2.7464   -1.1730 C   0  0  0  0  0  0  0  0  0  0  0  0
    7.3790   -2.2947   -1.6594 C   0  0  0  0  0  0  0  0  0  0  0  0
    8.5965   -2.7885   -1.1896 C   0  0  0  0  0  0  0  0  0  0  0  0
    8.6030   -3.7691   -0.2175 C   0  0  0  0  0  0  0  0  0  0  0  0
    7.3949   -4.2845    0.2427 C   0  0  0  0  0  0  0  0  0  0  0  0
    6.1426   -3.8226   -0.2354 C   0  0  0  0  0  0  0  0  0  0  0  0
    4.8718   -4.4909    0.2666 C   0  0  0  0  0  0  0  0  0  0  0  0
    5.0623   -5.5600    1.2227 N   0  0  0  0  0  0  0  0  0  0  0  0
    4.0807   -5.9392    2.1127 C   0  0  0  0  0  0  0  0  0  0  0  0
    2.9909   -5.3885    2.2064 O   0  0  0  0  0  0  0  0  0  0  0  0
    4.4539   -7.0944    2.9895 C   0  0  0  0  0  0  0  0  0  0  0  0
    3.5763   -7.5082    3.9848 C   0  0  0  0  0  0  0  0  0  0  0  0
    4.0074   -8.5096    4.8556 C   0  0  0  0  0  0  0  0  0  0  0  0
    3.1879   -8.9576    5.9265 N   0  0  0  0  0  0  0  0  0  0  0  0
    1.8971   -8.5786    6.2295 C   0  0  0  0  0  0  0  0  0  0  0  0
    1.5362   -9.2486    7.3745 C   0  0  0  0  0  0  0  0  0  0  0  0
    2.6592  -10.0204    7.6977 C   0  0  0  0  0  0  0  0  0  0  0  0
    3.6542   -9.8655    6.8236 N   0  0  0  0  0  0  0  0  0  0  0  0
    5.2831   -9.0622    4.6842 C   0  0  0  0  0  0  0  0  0  0  0  0
    6.0711   -8.6024    3.6415 C   0  0  0  0  0  0  0  0  0  0  0  0
    5.6904   -7.6311    2.7841 N   0  0  0  0  0  0  0  0  0  0  0  0
    4.9598   -0.5919   -1.7910 C   0  0  0  0  0  0  0  0  0  0  0  0
    5.6548    1.2720   -3.3489 H   0  0  0  0  0  0  0  0  0  0  0  0
    1.7413    0.1077   -2.6815 H   0  0  0  0  0  0  0  0  0  0  0  0
    1.5737   -2.3470   -2.3886 H   0  0  0  0  0  0  0  0  0  0  0  0
    3.5317   -3.6736   -1.8516 H   0  0  0  0  0  0  0  0  0  0  0  0
    7.4272   -1.5189   -2.4213 H   0  0  0  0  0  0  0  0  0  0  0  0
    9.5331   -2.3890   -1.5692 H   0  0  0  0  0  0  0  0  0  0  0  0
    9.5418   -4.1423    0.1828 H   0  0  0  0  0  0  0  0  0  0  0  0
    7.4560   -5.0532    1.0099 H   0  0  0  0  0  0  0  0  0  0  0  0
    4.3810   -4.9855   -0.5757 H   0  0  0  0  0  0  0  0  0  0  0  0
    4.2009   -3.7439    0.7026 H   0  0  0  0  0  0  0  0  0  0  0  0
    5.7939   -6.2508    1.0857 H   0  0  0  0  0  0  0  0  0  0  0  0
    2.6125   -7.0208    4.0727 H   0  0  0  0  0  0  0  0  0  0  0  0
    1.3426   -7.8782    5.6239 H   0  0  0  0  0  0  0  0  0  0  0  0
    0.5928   -9.1862    7.8987 H   0  0  0  0  0  0  0  0  0  0  0  0
    2.7956  -10.6951    8.5339 H   0  0  0  0  0  0  0  0  0  0  0  0
    5.6657   -9.8348    5.3456 H   0  0  0  0  0  0  0  0  0  0  0  0
    7.0639   -9.0101    3.4734 H   0  0  0  0  0  0  0  0  0  0  0  0
    5.8798   -0.0612   -1.5523 H   0  0  0  0  0  0  0  0  0  0  0  0
  1  2  2  0  0  0  0
  2  3  1  0  0  0  0
  2  4  1  0  0  0  0
  3 31  1  0  0  0  0
  4  5  2  0  0  0  0
  4 30  1  0  0  0  0
  5  6  1  0  0  0  0
  5 32  1  0  0  0  0
  6  7  2  0  0  0  0
  6 33  1  0  0  0  0
  7  8  1  0  0  0  0
  7 34  1  0  0  0  0
  8  9  1  0  0  0  0
  8 30  2  0  0  0  0
  9 10  2  0  0  0  0
  9 14  1  0  0  0  0
 10 11  1  0  0  0  0
 10 35  1  0  0  0  0
 11 12  2  0  0  0  0
 11 36  1  0  0  0  0
 12 13  1  0  0  0  0
 12 37  1  0  0  0  0
 13 14  2  0  0  0  0
 13 38  1  0  0  0  0
 14 15  1  0  0  0  0
 15 16  1  0  0  0  0
 15 39  1  0  0  0  0
 15 40  1  0  0  0  0
 16 17  1  0  0  0  0
 16 41  1  0  0  0  0
 17 18  2  0  0  0  0
 17 19  1  0  0  0  0
 19 20  2  0  0  0  0
 19 29  1  0  0  0  0
 20 21  1  0  0  0  0
 20 42  1  0  0  0  0
 21 22  1  0  0  0  0
 21 27  2  0  0  0  0
 22 23  1  0  0  0  0
 22 26  1  0  0  0  0
 23 24  2  0  0  0  0
 23 43  1  0  0  0  0
 24 25  1  0  0  0  0
 24 44  1  0  0  0  0
 25 26  2  0  0  0  0
 25 45  1  0  0  0  0
 27 28  1  0  0  0  0
 27 46  1  0  0  0  0
 28 29  2  0  0  0  0
 28 47  1  0  0  0  0
 30 48  1  0  0  0  0
M  END
$$$$
