
 OpenBabel01122422453D

 41 44  0  0  0  0  0  0  0  0999 V2000
    0.9467    0.2642   -0.0468 O   0  0  0  0  0  0  0  0  0  0  0  0
    2.1466    0.0125   -0.0263 C   0  0  0  0  0  0  0  0  0  0  0  0
    2.8123   -0.8924   -0.8164 N   0  0  0  0  0  0  0  0  0  0  0  0
    2.2011   -1.6282   -1.8238 C   0  0  0  0  0  0  0  0  0  0  0  0
    2.8847   -2.7084   -2.2273 N   0  0  0  0  0  0  0  0  0  0  0  0
    2.2942   -3.4976   -3.1555 C   0  0  0  0  0  0  0  0  0  0  0  0
    3.0359   -4.7141   -3.5350 C   0  0  0  0  0  0  0  0  0  0  0  0
    3.8521   -5.3856   -2.6067 C   0  0  0  0  0  0  0  0  0  0  0  0
    4.5634   -6.5261   -2.9762 C   0  0  0  0  0  0  0  0  0  0  0  0
    5.3363   -7.1399   -2.0711 F   0  0  0  0  0  0  0  0  0  0  0  0
    4.4899   -7.0331   -4.2636 C   0  0  0  0  0  0  0  0  0  0  0  0
    3.6816   -6.3866   -5.1828 C   0  0  0  0  0  0  0  0  0  0  0  0
    3.5966   -6.8537   -6.4349 F   0  0  0  0  0  0  0  0  0  0  0  0
    2.9590   -5.2483   -4.8340 C   0  0  0  0  0  0  0  0  0  0  0  0
    1.0612   -3.1904   -3.6993 C   0  0  0  0  0  0  0  0  0  0  0  0
    0.4674   -2.0405   -3.2490 C   0  0  0  0  0  0  0  0  0  0  0  0
    1.0198   -1.2553   -2.3189 N   0  0  0  0  0  0  0  0  0  0  0  0
    2.9566    0.6927    1.0052 C   0  0  0  0  0  0  0  0  0  0  0  0
    4.2873    1.0275    0.8089 C   0  0  0  0  0  0  0  0  0  0  0  0
    5.0302    1.7032    1.7128 N   0  0  0  0  0  0  0  0  0  0  0  0
    4.4049    2.0862    2.8567 C   0  0  0  0  0  0  0  0  0  0  0  0
    3.0751    1.8002    3.1467 C   0  0  0  0  0  0  0  0  0  0  0  0
    2.4823    2.2324    4.3646 N   0  0  0  0  0  0  0  0  0  0  0  0
    1.1906    1.9713    4.7864 C   0  0  0  0  0  0  0  0  0  0  0  0
    0.9944    2.5439    6.0254 C   0  0  0  0  0  0  0  0  0  0  0  0
    2.1905    3.1940    6.3777 C   0  0  0  0  0  0  0  0  0  0  0  0
    3.0869    2.9874    5.3488 C   0  0  0  0  0  0  0  0  0  0  0  0
    2.3437    1.0851    2.1981 C   0  0  0  0  0  0  0  0  0  0  0  0
    3.7379   -1.2191   -0.5899 H   0  0  0  0  0  0  0  0  0  0  0  0
    3.9396   -5.0280   -1.5830 H   0  0  0  0  0  0  0  0  0  0  0  0
    5.0552   -7.9120   -4.5468 H   0  0  0  0  0  0  0  0  0  0  0  0
    2.3532   -4.7794   -5.6046 H   0  0  0  0  0  0  0  0  0  0  0  0
    0.5663   -3.8143   -4.4308 H   0  0  0  0  0  0  0  0  0  0  0  0
   -0.4983   -1.7170   -3.6204 H   0  0  0  0  0  0  0  0  0  0  0  0
    4.8126    0.7898   -0.1097 H   0  0  0  0  0  0  0  0  0  0  0  0
    5.0517    2.6442    3.5245 H   0  0  0  0  0  0  0  0  0  0  0  0
    0.4969    1.3954    4.1954 H   0  0  0  0  0  0  0  0  0  0  0  0
    0.0814    2.4955    6.6034 H   0  0  0  0  0  0  0  0  0  0  0  0
    2.3913    3.7537    7.2792 H   0  0  0  0  0  0  0  0  0  0  0  0
    4.1036    3.3368    5.2648 H   0  0  0  0  0  0  0  0  0  0  0  0
    1.2949    0.8356    2.3427 H   0  0  0  0  0  0  0  0  0  0  0  0
  1  2  2  0  0  0  0
  2  3  1  0  0  0  0
  2 18  1  0  0  0  0
  3  4  1  0  0  0  0
  3 29  1  0  0  0  0
  4  5  2  0  0  0  0
  4 17  1  0  0  0  0
  5  6  1  0  0  0  0
  6  7  1  0  0  0  0
  6 15  2  0  0  0  0
  7  8  2  0  0  0  0
  7 14  1  0  0  0  0
  8  9  1  0  0  0  0
  8 30  1  0  0  0  0
  9 10  1  0  0  0  0
  9 11  2  0  0  0  0
 11 12  1  0  0  0  0
 11 31  1  0  0  0  0
 12 13  1  0  0  0  0
 12 14  2  0  0  0  0
 14 32  1  0  0  0  0
 15 16  1  0  0  0  0
 15 33  1  0  0  0  0
 16 17  2  0  0  0  0
 16 34  1  0  0  0  0
 18 19  2  0  0  0  0
 18 28  1  0  0  0  0
 19 20  1  0  0  0  0
 19 35  1  0  0  0  0
 20 21  2  0  0  0  0
 21 22  1  0  0  0  0
 21 36  1  0  0  0  0
 22 23  1  0  0  0  0
 22 28  2  0  0  0  0
 23 24  1  0  0  0  0
 23 27  1  0  0  0  0
 24 25  2  0  0  0  0
 24 37  1  0  0  0  0
 25 26  1  0  0  0  0
 25 38  1  0  0  0  0
 26 27  2  0  0  0  0
 26 39  1  0  0  0  0
 27 40  1  0  0  0  0
 28 41  1  0  0  0  0
M  END
$$$$
