
 OpenBabel01122422483D

 51 54  0  0  1  0  0  0  0  0999 V2000
    0.8960    0.3935    0.3500 O   0  0  0  0  0  0  0  0  0  0  0  0
    2.0786    0.3428    0.0167 C   0  0  0  0  0  0  0  0  0  0  0  0
    2.5410    0.6610   -1.4165 C   0  0  0  0  0  0  0  0  0  0  0  0
    2.8926    2.0175   -1.6856 O   0  0  0  0  0  0  0  0  0  0  0  0
    3.2845    2.2640   -2.9873 C   0  0  0  0  0  0  0  0  0  0  0  0
    2.9625    1.4388   -4.0711 C   0  0  0  0  0  0  0  0  0  0  0  0
    3.4862    1.6846   -5.3386 C   0  0  0  0  0  0  0  0  0  0  0  0
    4.2910    2.7938   -5.5508 C   0  0  0  0  0  0  0  0  0  0  0  0
    4.4880    3.7204   -4.5230 C   0  0  0  0  0  0  0  0  0  0  0  0
    5.1558    4.9114   -4.7475 O   0  0  0  0  0  0  0  0  0  0  0  0
    4.8391    5.5948   -5.9272 C   0  0  0  0  0  0  0  0  0  0  0  0
    5.7932    6.4587   -6.4454 C   0  0  0  0  0  0  0  0  0  0  0  0
    5.5124    7.1072   -7.6497 C   0  0  0  0  0  0  0  0  0  0  0  0
    4.3006    6.8702   -8.2921 C   0  0  0  0  0  0  0  0  0  0  0  0
    3.4035    6.0063   -7.6918 C   0  0  0  0  0  0  0  0  0  0  0  0
    3.6387    5.3836   -6.5202 N   0  0  0  0  0  0  0  0  0  0  0  0
    4.0275    3.4346   -3.2251 C   0  0  0  0  0  0  0  0  0  0  0  0
    3.0684   -0.0787    0.8844 N   0  0  0  0  0  0  0  0  0  0  0  0
    2.7588   -0.5639    2.2395 C   0  0  3  0  0  0  0  0  0  0  0  0
    3.9188   -0.3135    3.1851 C   0  0  0  0  0  0  0  0  0  0  0  0
    4.7628   -1.5532    3.0184 C   0  0  0  0  0  0  0  0  0  0  0  0
    5.9640   -1.5582    3.2328 O   0  0  0  0  0  0  0  0  0  0  0  0
    3.9398   -2.5870    2.5494 N   0  0  0  0  0  0  0  0  0  0  0  0
    4.3345   -3.9546    2.3724 C   0  0  0  0  0  0  0  0  0  0  0  0
    5.4517   -4.5131    3.0290 C   0  0  0  0  0  0  0  0  0  0  0  0
    6.1004   -3.8498    3.9916 F   0  0  0  0  0  0  0  0  0  0  0  0
    5.8869   -5.8229    2.7820 C   0  0  0  0  0  0  0  0  0  0  0  0
    5.1989   -6.6371    1.8982 C   0  0  0  0  0  0  0  0  0  0  0  0
    4.0579   -6.1398    1.2819 C   0  0  0  0  0  0  0  0  0  0  0  0
    3.6346   -4.8275    1.5252 C   0  0  0  0  0  0  0  0  0  0  0  0
    2.5413   -4.4298    0.8610 F   0  0  0  0  0  0  0  0  0  0  0  0
    2.5972   -2.0882    2.3077 C   0  0  0  0  0  0  0  0  0  0  0  0
    1.6940    0.3517   -2.0401 H   0  0  0  0  0  0  0  0  0  0  0  0
    3.3973    0.0129   -1.6449 H   0  0  0  0  0  0  0  0  0  0  0  0
    2.2937    0.5919   -3.9756 H   0  0  0  0  0  0  0  0  0  0  0  0
    3.2437    1.0262   -6.1681 H   0  0  0  0  0  0  0  0  0  0  0  0
    4.7000    2.9688   -6.5423 H   0  0  0  0  0  0  0  0  0  0  0  0
    6.7390    6.6135   -5.9400 H   0  0  0  0  0  0  0  0  0  0  0  0
    6.2363    7.7863   -8.0919 H   0  0  0  0  0  0  0  0  0  0  0  0
    4.0586    7.3455   -9.2364 H   0  0  0  0  0  0  0  0  0  0  0  0
    2.4469    5.7752   -8.1514 H   0  0  0  0  0  0  0  0  0  0  0  0
    4.2359    4.1228   -2.4152 H   0  0  0  0  0  0  0  0  0  0  0  0
    4.0124   -0.1862    0.5287 H   0  0  0  0  0  0  0  0  0  0  0  0
    1.8476   -0.0620    2.5811 H   0  0  0  0  0  0  0  0  0  0  0  0
    3.5901   -0.2552    4.2275 H   0  0  0  0  0  0  0  0  0  0  0  0
    4.4906    0.5802    2.9208 H   0  0  0  0  0  0  0  0  0  0  0  0
    6.7623   -6.1931    3.3136 H   0  0  0  0  0  0  0  0  0  0  0  0
    5.5349   -7.6521    1.7036 H   0  0  0  0  0  0  0  0  0  0  0  0
    3.4897   -6.7597    0.5945 H   0  0  0  0  0  0  0  0  0  0  0  0
    1.9840   -2.3740    3.1719 H   0  0  0  0  0  0  0  0  0  0  0  0
    2.1430   -2.4675    1.3937 H   0  0  0  0  0  0  0  0  0  0  0  0
  1  2  2  0  0  0  0
  2  3  1  0  0  0  0
  2 18  1  0  0  0  0
  3  4  1  0  0  0  0
  3 33  1  0  0  0  0
  3 34  1  0  0  0  0
  4  5  1  0  0  0  0
  5  6  2  0  0  0  0
  5 17  1  0  0  0  0
  6  7  1  0  0  0  0
  6 35  1  0  0  0  0
  7  8  2  0  0  0  0
  7 36  1  0  0  0  0
  8  9  1  0  0  0  0
  8 37  1  0  0  0  0
  9 10  1  0  0  0  0
  9 17  2  0  0  0  0
 10 11  1  0  0  0  0
 11 12  2  0  0  0  0
 11 16  1  0  0  0  0
 12 13  1  0  0  0  0
 12 38  1  0  0  0  0
 13 14  2  0  0  0  0
 13 39  1  0  0  0  0
 14 15  1  0  0  0  0
 14 40  1  0  0  0  0
 15 16  2  0  0  0  0
 15 41  1  0  0  0  0
 17 42  1  0  0  0  0
 18 19  1  0  0  0  0
 18 43  1  0  0  0  0
 19 20  1  0  0  0  0
 19 32  1  0  0  0  0
 19 44  1  0  0  0  0
 20 21  1  0  0  0  0
 20 45  1  0  0  0  0
 20 46  1  0  0  0  0
 21 22  2  0  0  0  0
 21 23  1  0  0  0  0
 23 24  1  0  0  0  0
 23 32  1  0  0  0  0
 24 25  2  0  0  0  0
 24 30  1  0  0  0  0
 25 26  1  0  0  0  0
 25 27  1  0  0  0  0
 27 28  2  0  0  0  0
 27 47  1  0  0  0  0
 28 29  1  0  0  0  0
 28 48  1  0  0  0  0
 29 30  2  0  0  0  0
 29 49  1  0  0  0  0
 30 31  1  0  0  0  0
 32 50  1  0  0  0  0
 32 51  1  0  0  0  0
M  END
$$$$
