
 OpenBabel01122422483D

 41 44  0  0  0  0  0  0  0  0999 V2000
    7.4478    1.9532   -1.3744 N   0  0  0  0  0  0  0  0  0  0  0  0
    6.5482    1.2219   -1.3290 C   0  0  0  0  0  0  0  0  0  0  0  0
    5.4700    0.2789   -1.2424 C   0  0  0  0  0  0  0  0  0  0  0  0
    4.2275    0.7602   -1.4575 N   0  0  0  0  0  0  0  0  0  0  0  0
    3.2104   -0.1271   -1.3469 C   0  0  0  0  0  0  0  0  0  0  0  0
    3.3726   -1.4644   -1.0242 C   0  0  0  0  0  0  0  0  0  0  0  0
    2.2861   -2.2381   -0.9265 F   0  0  0  0  0  0  0  0  0  0  0  0
    4.6638   -1.9647   -0.8172 C   0  0  0  0  0  0  0  0  0  0  0  0
    4.9902   -3.3848   -0.4975 C   0  0  0  0  0  0  0  0  0  0  0  0
    4.0899   -4.3755   -0.5191 C   0  0  0  0  0  0  0  0  0  0  0  0
    4.5732   -5.7480   -0.2843 C   0  0  0  0  0  0  0  0  0  0  0  0
    3.7805   -6.6217    0.0586 O   0  0  0  0  0  0  0  0  0  0  0  0
    5.9188   -5.9269   -0.5419 N   0  0  0  0  0  0  0  0  0  0  0  0
    6.3951   -7.1789   -0.8867 C   0  0  0  0  0  0  0  0  0  0  0  0
    7.6797   -7.3607   -1.2137 C   0  0  0  0  0  0  0  0  0  0  0  0
    8.6211   -6.2806   -1.0567 C   0  0  0  0  0  0  0  0  0  0  0  0
    8.2466   -5.0867   -0.5744 C   0  0  0  0  0  0  0  0  0  0  0  0
    9.1986   -4.0997   -0.3558 O   0  0  0  0  0  0  0  0  0  0  0  0
    8.9359   -3.2653    0.7810 C   0  0  0  0  0  0  0  0  0  0  0  0
   10.2013   -2.7389    1.4226 C   0  0  0  0  0  0  0  0  0  0  0  0
   11.4671   -2.8940    0.8452 C   0  0  0  0  0  0  0  0  0  0  0  0
   12.6054   -2.4137    1.4971 C   0  0  0  0  0  0  0  0  0  0  0  0
   12.4898   -1.7613    2.7235 C   0  0  0  0  0  0  0  0  0  0  0  0
   11.2338   -1.5693    3.2926 C   0  0  0  0  0  0  0  0  0  0  0  0
   10.0964   -2.0501    2.6436 C   0  0  0  0  0  0  0  0  0  0  0  0
    6.7629   -4.8343   -0.4429 C   0  0  0  0  0  0  0  0  0  0  0  0
    6.3258   -3.6237   -0.2970 N   0  0  0  0  0  0  0  0  0  0  0  0
    5.7236   -1.0400   -0.9391 C   0  0  0  0  0  0  0  0  0  0  0  0
    2.2173    0.2730   -1.5232 H   0  0  0  0  0  0  0  0  0  0  0  0
    3.0391   -4.2839   -0.7506 H   0  0  0  0  0  0  0  0  0  0  0  0
    5.6660   -7.9835   -0.9466 H   0  0  0  0  0  0  0  0  0  0  0  0
    8.0409   -8.3237   -1.5586 H   0  0  0  0  0  0  0  0  0  0  0  0
    9.6628   -6.4737   -1.2897 H   0  0  0  0  0  0  0  0  0  0  0  0
    8.3856   -3.8224    1.5506 H   0  0  0  0  0  0  0  0  0  0  0  0
    8.3571   -2.3964    0.4551 H   0  0  0  0  0  0  0  0  0  0  0  0
   11.5804   -3.3945   -0.1137 H   0  0  0  0  0  0  0  0  0  0  0  0
   13.5847   -2.5517    1.0471 H   0  0  0  0  0  0  0  0  0  0  0  0
   13.3785   -1.3990    3.2332 H   0  0  0  0  0  0  0  0  0  0  0  0
   11.1393   -1.0486    4.2419 H   0  0  0  0  0  0  0  0  0  0  0  0
    9.1216   -1.8892    3.1002 H   0  0  0  0  0  0  0  0  0  0  0  0
    6.7548   -1.3607   -0.8004 H   0  0  0  0  0  0  0  0  0  0  0  0
  1  2  3  0  0  0  0
  2  3  1  0  0  0  0
  3  4  2  0  0  0  0
  3 28  1  0  0  0  0
  4  5  1  0  0  0  0
  5  6  2  0  0  0  0
  5 29  1  0  0  0  0
  6  7  1  0  0  0  0
  6  8  1  0  0  0  0
  8  9  1  0  0  0  0
  8 28  2  0  0  0  0
  9 10  2  0  0  0  0
  9 27  1  0  0  0  0
 10 11  1  0  0  0  0
 10 30  1  0  0  0  0
 11 12  2  0  0  0  0
 11 13  1  0  0  0  0
 13 14  1  0  0  0  0
 13 26  1  0  0  0  0
 14 15  2  0  0  0  0
 14 31  1  0  0  0  0
 15 16  1  0  0  0  0
 15 32  1  0  0  0  0
 16 17  2  0  0  0  0
 16 33  1  0  0  0  0
 17 18  1  0  0  0  0
 17 26  1  0  0  0  0
 18 19  1  0  0  0  0
 19 20  1  0  0  0  0
 19 34  1  0  0  0  0
 19 35  1  0  0  0  0
 20 21  2  0  0  0  0
 20 25  1  0  0  0  0
 21 22  1  0  0  0  0
 21 36  1  0  0  0  0
 22 23  2  0  0  0  0
 22 37  1  0  0  0  0
 23 24  1  0  0  0  0
 23 38  1  0  0  0  0
 24 25  2  0  0  0  0
 24 39  1  0  0  0  0
 25 40  1  0  0  0  0
 26 27  2  0  0  0  0
 28 41  1  0  0  0  0
M  END
$$$$
