
 OpenBabel01122422483D

 48 51  0  0  0  0  0  0  0  0999 V2000
    6.3933   -2.7349    3.2902 C   0  0  0  0  0  0  0  0  0  0  0  0
    5.4787   -1.7077    2.9243 O   0  0  0  0  0  0  0  0  0  0  0  0
    4.8670   -1.8032    1.7094 C   0  0  0  0  0  0  0  0  0  0  0  0
    4.6803   -3.0909    1.2458 C   0  0  0  0  0  0  0  0  0  0  0  0
    3.7478   -3.3794    0.2633 C   0  0  0  0  0  0  0  0  0  0  0  0
    3.4252   -4.7794    0.0314 C   0  0  0  0  0  0  0  0  0  0  0  0
    3.0401   -5.2208   -1.2367 C   0  0  0  0  0  0  0  0  0  0  0  0
    2.6286   -6.5346   -1.4134 C   0  0  0  0  0  0  0  0  0  0  0  0
    2.6366   -7.3791   -0.3136 C   0  0  0  0  0  0  0  0  0  0  0  0
    3.0623   -6.8688    0.9083 C   0  0  0  0  0  0  0  0  0  0  0  0
    3.4528   -5.5938    1.1106 N   0  0  0  0  0  0  0  0  0  0  0  0
    3.0537   -2.3155   -0.3338 C   0  0  0  0  0  0  0  0  0  0  0  0
    3.2522   -0.9930    0.1114 C   0  0  0  0  0  0  0  0  0  0  0  0
    4.1882   -0.7095    1.1293 C   0  0  0  0  0  0  0  0  0  0  0  0
    4.4850    0.6528    1.4876 N   0  0  0  0  0  0  0  0  0  0  0  0
    3.6273    1.6924    1.1732 C   0  0  0  0  0  0  0  0  0  0  0  0
    2.5512    1.6656    0.5742 O   0  0  0  0  0  0  0  0  0  0  0  0
    3.9008    2.9730    1.8737 C   0  0  0  0  0  0  0  0  0  0  0  0
    2.9618    3.7375    1.1523 C   0  0  0  0  0  0  0  0  0  0  0  0
    3.4236    4.9886    1.6691 C   0  0  0  0  0  0  0  0  0  0  0  0
    2.9650    5.3552    2.7423 O   0  0  0  0  0  0  0  0  0  0  0  0
    4.6285    5.3085    1.0636 N   0  0  0  0  0  0  0  0  0  0  0  0
    4.6917    6.1234   -0.1049 C   0  0  0  0  0  0  0  0  0  0  0  0
    5.7156    4.4879    1.4211 C   0  0  0  0  0  0  0  0  0  0  0  0
    7.0346    4.8402    1.1089 C   0  0  0  0  0  0  0  0  0  0  0  0
    8.0989    4.2529    1.7697 C   0  0  0  0  0  0  0  0  0  0  0  0
    7.8189    3.2709    2.7138 C   0  0  0  0  0  0  0  0  0  0  0  0
    6.4613    2.8402    2.9477 C   0  0  0  0  0  0  0  0  0  0  0  0
    5.3696    3.3952    2.2117 C   0  0  0  0  0  0  0  0  0  0  0  0
    7.0309   -2.3367    4.0843 H   0  0  0  0  0  0  0  0  0  0  0  0
    7.0460   -3.0528    2.4687 H   0  0  0  0  0  0  0  0  0  0  0  0
    5.8382   -3.5795    3.7003 H   0  0  0  0  0  0  0  0  0  0  0  0
    5.1805   -3.8965    1.7754 H   0  0  0  0  0  0  0  0  0  0  0  0
    3.0540   -4.5315   -2.0766 H   0  0  0  0  0  0  0  0  0  0  0  0
    2.3452   -6.8937   -2.3985 H   0  0  0  0  0  0  0  0  0  0  0  0
    2.3202   -8.4139   -0.4068 H   0  0  0  0  0  0  0  0  0  0  0  0
    3.0740   -7.4957    1.7925 H   0  0  0  0  0  0  0  0  0  0  0  0
    2.3142   -2.5369   -1.1015 H   0  0  0  0  0  0  0  0  0  0  0  0
    2.5959   -0.2228   -0.2978 H   0  0  0  0  0  0  0  0  0  0  0  0
    5.0880    0.7504    2.3014 H   0  0  0  0  0  0  0  0  0  0  0  0
    2.2572    4.3648    0.5968 H   0  0  0  0  0  0  0  0  0  0  0  0
    3.6832    6.3656   -0.4408 H   0  0  0  0  0  0  0  0  0  0  0  0
    5.2313    5.6233   -0.9202 H   0  0  0  0  0  0  0  0  0  0  0  0
    5.2089    7.0192    0.2262 H   0  0  0  0  0  0  0  0  0  0  0  0
    7.2316    5.6186    0.3830 H   0  0  0  0  0  0  0  0  0  0  0  0
    9.1099    4.6186    1.5851 H   0  0  0  0  0  0  0  0  0  0  0  0
    8.6776    2.8451    3.2480 H   0  0  0  0  0  0  0  0  0  0  0  0
    6.3600    2.1264    3.7667 H   0  0  0  0  0  0  0  0  0  0  0  0
  1  2  1  0  0  0  0
  1 30  1  0  0  0  0
  1 31  1  0  0  0  0
  1 32  1  0  0  0  0
  2  3  1  0  0  0  0
  3  4  2  0  0  0  0
  3 14  1  0  0  0  0
  4  5  1  0  0  0  0
  4 33  1  0  0  0  0
  5  6  1  0  0  0  0
  5 12  2  0  0  0  0
  6  7  2  0  0  0  0
  6 11  1  0  0  0  0
  7  8  1  0  0  0  0
  7 34  1  0  0  0  0
  8  9  2  0  0  0  0
  8 35  1  0  0  0  0
  9 10  1  0  0  0  0
  9 36  1  0  0  0  0
 10 11  2  0  0  0  0
 10 37  1  0  0  0  0
 12 13  1  0  0  0  0
 12 38  1  0  0  0  0
 13 14  2  0  0  0  0
 13 39  1  0  0  0  0
 14 15  1  0  0  0  0
 15 16  1  0  0  0  0
 15 40  1  0  0  0  0
 16 17  2  0  0  0  0
 16 18  1  0  0  0  0
 18 19  2  0  0  0  0
 18 29  1  0  0  0  0
 19 20  1  0  0  0  0
 19 41  1  0  0  0  0
 20 21  2  0  0  0  0
 20 22  1  0  0  0  0
 22 23  1  0  0  0  0
 22 24  1  0  0  0  0
 23 42  1  0  0  0  0
 23 43  1  0  0  0  0
 23 44  1  0  0  0  0
 24 25  2  0  0  0  0
 24 29  1  0  0  0  0
 25 26  1  0  0  0  0
 25 45  1  0  0  0  0
 26 27  2  0  0  0  0
 26 46  1  0  0  0  0
 27 28  1  0  0  0  0
 27 47  1  0  0  0  0
 28 29  2  0  0  0  0
 28 48  1  0  0  0  0
M  END
$$$$
