
 OpenBabel01122422483D

 46 49  0  0  0  0  0  0  0  0999 V2000
    2.0901    0.4471    1.2410 O   0  0  0  0  0  0  0  0  0  0  0  0
    2.2544    0.1712    0.0453 C   0  0  0  0  0  0  0  0  0  0  0  0
    2.8389   -1.1803   -0.3612 C   0  0  0  0  0  0  0  0  0  0  0  0
    1.8501   -2.3043   -0.5819 C   0  0  0  0  0  0  0  0  0  0  0  0
    0.7196   -2.4596    0.2281 C   0  0  0  0  0  0  0  0  0  0  0  0
   -0.1166   -3.5665    0.0728 C   0  0  0  0  0  0  0  0  0  0  0  0
    0.1607   -4.5289   -0.8980 C   0  0  0  0  0  0  0  0  0  0  0  0
    1.2390   -4.3545   -1.7662 C   0  0  0  0  0  0  0  0  0  0  0  0
    1.5720   -5.2246   -2.7823 O   0  0  0  0  0  0  0  0  0  0  0  0
    0.5890   -5.9188   -3.4546 C   0  0  0  0  0  0  0  0  0  0  0  0
   -0.7010   -5.4371   -3.6947 C   0  0  0  0  0  0  0  0  0  0  0  0
   -1.6398   -6.2384   -4.3487 C   0  0  0  0  0  0  0  0  0  0  0  0
   -1.2753   -7.4978   -4.8213 C   0  0  0  0  0  0  0  0  0  0  0  0
    0.0318   -7.9519   -4.6523 C   0  0  0  0  0  0  0  0  0  0  0  0
    0.9615   -7.1631   -3.9699 C   0  0  0  0  0  0  0  0  0  0  0  0
    2.1030   -3.2716   -1.5752 C   0  0  0  0  0  0  0  0  0  0  0  0
    1.9870    1.1304   -0.8833 N   0  0  0  0  0  0  0  0  0  0  0  0
    1.9043    0.9935   -2.2536 C   0  0  0  0  0  0  0  0  0  0  0  0
    1.8676   -0.2217   -2.7944 N   0  0  0  0  0  0  0  0  0  0  0  0
    1.7846   -0.3073   -4.1345 C   0  0  0  0  0  0  0  0  0  0  0  0
    1.7670    0.7789   -4.9828 C   0  0  0  0  0  0  0  0  0  0  0  0
    1.7184    0.6302   -6.4279 C   0  0  0  0  0  0  0  0  0  0  0  0
    1.6308   -0.6235   -6.9165 N   0  0  0  0  0  0  0  0  0  0  0  0
    1.5900   -0.7526   -8.2536 C   0  0  0  0  0  0  0  0  0  0  0  0
    1.6388    0.3143   -9.1127 C   0  0  0  0  0  0  0  0  0  0  0  0
    1.7327    1.5520   -8.5187 C   0  0  0  0  0  0  0  0  0  0  0  0
    1.7741    1.7403   -7.1864 N   0  0  0  0  0  0  0  0  0  0  0  0
    1.8025    1.9890   -4.3143 C   0  0  0  0  0  0  0  0  0  0  0  0
    1.8471    2.1267   -2.9627 N   0  0  0  0  0  0  0  0  0  0  0  0
    3.5175   -1.4899    0.4450 H   0  0  0  0  0  0  0  0  0  0  0  0
    3.4957   -1.0470   -1.2286 H   0  0  0  0  0  0  0  0  0  0  0  0
    0.4877   -1.7315    1.0032 H   0  0  0  0  0  0  0  0  0  0  0  0
   -0.9831   -3.6820    0.7180 H   0  0  0  0  0  0  0  0  0  0  0  0
   -0.4823   -5.4009   -0.9699 H   0  0  0  0  0  0  0  0  0  0  0  0
   -0.9977   -4.4460   -3.3635 H   0  0  0  0  0  0  0  0  0  0  0  0
   -2.6553   -5.8767   -4.4877 H   0  0  0  0  0  0  0  0  0  0  0  0
   -2.0074   -8.1203   -5.3292 H   0  0  0  0  0  0  0  0  0  0  0  0
    0.3256   -8.9220   -5.0451 H   0  0  0  0  0  0  0  0  0  0  0  0
    1.9787   -7.5231   -3.8362 H   0  0  0  0  0  0  0  0  0  0  0  0
    2.9769   -3.1761   -2.2153 H   0  0  0  0  0  0  0  0  0  0  0  0
    1.7773    2.0509   -0.5344 H   0  0  0  0  0  0  0  0  0  0  0  0
    1.7374   -1.3274   -4.5106 H   0  0  0  0  0  0  0  0  0  0  0  0
    1.5142   -1.7742   -8.6188 H   0  0  0  0  0  0  0  0  0  0  0  0
    1.6029    0.1897  -10.1852 H   0  0  0  0  0  0  0  0  0  0  0  0
    1.7785    2.4557   -9.1163 H   0  0  0  0  0  0  0  0  0  0  0  0
    1.8042    2.9300   -4.8603 H   0  0  0  0  0  0  0  0  0  0  0  0
  1  2  2  0  0  0  0
  2  3  1  0  0  0  0
  2 17  1  0  0  0  0
  3  4  1  0  0  0  0
  3 30  1  0  0  0  0
  3 31  1  0  0  0  0
  4  5  2  0  0  0  0
  4 16  1  0  0  0  0
  5  6  1  0  0  0  0
  5 32  1  0  0  0  0
  6  7  2  0  0  0  0
  6 33  1  0  0  0  0
  7  8  1  0  0  0  0
  7 34  1  0  0  0  0
  8  9  1  0  0  0  0
  8 16  2  0  0  0  0
  9 10  1  0  0  0  0
 10 11  2  0  0  0  0
 10 15  1  0  0  0  0
 11 12  1  0  0  0  0
 11 35  1  0  0  0  0
 12 13  2  0  0  0  0
 12 36  1  0  0  0  0
 13 14  1  0  0  0  0
 13 37  1  0  0  0  0
 14 15  2  0  0  0  0
 14 38  1  0  0  0  0
 15 39  1  0  0  0  0
 16 40  1  0  0  0  0
 17 18  1  0  0  0  0
 17 41  1  0  0  0  0
 18 19  2  0  0  0  0
 18 29  1  0  0  0  0
 19 20  1  0  0  0  0
 20 21  2  0  0  0  0
 20 42  1  0  0  0  0
 21 22  1  0  0  0  0
 21 28  1  0  0  0  0
 22 23  2  0  0  0  0
 22 27  1  0  0  0  0
 23 24  1  0  0  0  0
 24 25  2  0  0  0  0
 24 43  1  0  0  0  0
 25 26  1  0  0  0  0
 25 44  1  0  0  0  0
 26 27  2  0  0  0  0
 26 45  1  0  0  0  0
 28 29  2  0  0  0  0
 28 46  1  0  0  0  0
M  END
$$$$
