
 OpenBabel01122422483D

 40 43  0  0  0  0  0  0  0  0999 V2000
    1.0344    0.0392   -0.2110 O   0  0  0  0  0  0  0  0  0  0  0  0
    2.2525   -0.0216   -0.0498 C   0  0  0  0  0  0  0  0  0  0  0  0
    2.9635   -1.1072    0.4346 N   0  0  0  0  0  0  0  0  0  0  0  0
    2.3248   -2.2803    0.8764 C   0  0  0  0  0  0  0  0  0  0  0  0
    0.9854   -2.3204    0.8352 N   0  0  0  0  0  0  0  0  0  0  0  0
    0.3174   -3.3971    1.2415 C   0  0  0  0  0  0  0  0  0  0  0  0
   -1.0630   -3.3578    1.1800 C   0  0  0  0  0  0  0  0  0  0  0  0
   -1.8457   -4.4429    1.5737 C   0  0  0  0  0  0  0  0  0  0  0  0
   -1.2323   -5.6160    1.9950 C   0  0  0  0  0  0  0  0  0  0  0  0
   -1.8768   -6.7633    2.3442 O   0  0  0  0  0  0  0  0  0  0  0  0
   -3.1447   -7.0558    1.7637 C   0  0  0  0  0  0  0  0  0  0  0  0
   -3.4508   -6.3027    0.6863 F   0  0  0  0  0  0  0  0  0  0  0  0
   -3.1410   -8.3486    1.3659 F   0  0  0  0  0  0  0  0  0  0  0  0
   -4.1133   -6.9051    2.6924 F   0  0  0  0  0  0  0  0  0  0  0  0
    0.1662   -5.6501    2.1113 C   0  0  0  0  0  0  0  0  0  0  0  0
    0.9565   -4.5422    1.7276 C   0  0  0  0  0  0  0  0  0  0  0  0
    2.3636   -4.4992    1.7866 C   0  0  0  0  0  0  0  0  0  0  0  0
    3.0569   -3.3558    1.3559 C   0  0  0  0  0  0  0  0  0  0  0  0
    3.0895    1.1889   -0.3995 C   0  0  0  0  0  0  0  0  0  0  0  0
    2.3597    2.2759   -0.6696 C   0  0  0  0  0  0  0  0  0  0  0  0
    3.0359    3.5094   -1.0451 C   0  0  0  0  0  0  0  0  0  0  0  0
    2.3615    4.5125   -1.2711 O   0  0  0  0  0  0  0  0  0  0  0  0
    4.4144    3.4327   -1.1192 N   0  0  0  0  0  0  0  0  0  0  0  0
    5.1194    4.5679   -1.5012 C   0  0  0  0  0  0  0  0  0  0  0  0
    6.4526    4.5687   -1.6013 C   0  0  0  0  0  0  0  0  0  0  0  0
    7.1893    3.3689   -1.3101 C   0  0  0  0  0  0  0  0  0  0  0  0
    6.5540    2.2533   -0.9264 C   0  0  0  0  0  0  0  0  0  0  0  0
    5.0670    2.2381   -0.8095 C   0  0  0  0  0  0  0  0  0  0  0  0
    4.4661    1.1413   -0.4424 N   0  0  0  0  0  0  0  0  0  0  0  0
    3.9705   -1.0276    0.4793 H   0  0  0  0  0  0  0  0  0  0  0  0
   -1.5391   -2.4514    0.8095 H   0  0  0  0  0  0  0  0  0  0  0  0
   -2.9244   -4.3268    1.5263 H   0  0  0  0  0  0  0  0  0  0  0  0
    0.6438   -6.5530    2.4861 H   0  0  0  0  0  0  0  0  0  0  0  0
    2.9210   -5.3539    2.1644 H   0  0  0  0  0  0  0  0  0  0  0  0
    4.1395   -3.3317    1.4022 H   0  0  0  0  0  0  0  0  0  0  0  0
    1.2764    2.3078   -0.6396 H   0  0  0  0  0  0  0  0  0  0  0  0
    4.5398    5.4629   -1.7178 H   0  0  0  0  0  0  0  0  0  0  0  0
    6.9902    5.4635   -1.9014 H   0  0  0  0  0  0  0  0  0  0  0  0
    8.2692    3.3943   -1.4142 H   0  0  0  0  0  0  0  0  0  0  0  0
    7.0802    1.3345   -0.7057 H   0  0  0  0  0  0  0  0  0  0  0  0
  1  2  2  0  0  0  0
  2  3  1  0  0  0  0
  2 19  1  0  0  0  0
  3  4  1  0  0  0  0
  3 30  1  0  0  0  0
  4  5  2  0  0  0  0
  4 18  1  0  0  0  0
  5  6  1  0  0  0  0
  6  7  2  0  0  0  0
  6 16  1  0  0  0  0
  7  8  1  0  0  0  0
  7 31  1  0  0  0  0
  8  9  2  0  0  0  0
  8 32  1  0  0  0  0
  9 10  1  0  0  0  0
  9 15  1  0  0  0  0
 10 11  1  0  0  0  0
 11 12  1  0  0  0  0
 11 13  1  0  0  0  0
 11 14  1  0  0  0  0
 15 16  2  0  0  0  0
 15 33  1  0  0  0  0
 16 17  1  0  0  0  0
 17 18  2  0  0  0  0
 17 34  1  0  0  0  0
 18 35  1  0  0  0  0
 19 20  2  0  0  0  0
 19 29  1  0  0  0  0
 20 21  1  0  0  0  0
 20 36  1  0  0  0  0
 21 22  2  0  0  0  0
 21 23  1  0  0  0  0
 23 24  1  0  0  0  0
 23 28  1  0  0  0  0
 24 25  2  0  0  0  0
 24 37  1  0  0  0  0
 25 26  1  0  0  0  0
 25 38  1  0  0  0  0
 26 27  2  0  0  0  0
 26 39  1  0  0  0  0
 27 28  1  0  0  0  0
 27 40  1  0  0  0  0
 28 29  2  0  0  0  0
M  END
$$$$
