
 OpenBabel01122422483D

 41 44  0  0  0  0  0  0  0  0999 V2000
    1.1177    0.4448   -0.6475 O   0  0  0  0  0  0  0  0  0  0  0  0
    2.2282    0.1655   -0.2141 C   0  0  0  0  0  0  0  0  0  0  0  0
    2.7477   -1.1012   -0.0247 N   0  0  0  0  0  0  0  0  0  0  0  0
    2.0885   -2.3106   -0.3213 C   0  0  0  0  0  0  0  0  0  0  0  0
    0.9535   -2.4048   -1.1234 C   0  0  0  0  0  0  0  0  0  0  0  0
    0.3476   -3.6435   -1.3241 C   0  0  0  0  0  0  0  0  0  0  0  0
    0.9142   -4.7548   -0.7250 C   0  0  0  0  0  0  0  0  0  0  0  0
    0.2898   -5.9729   -0.9508 O   0  0  0  0  0  0  0  0  0  0  0  0
    1.0818   -7.0987   -0.9566 C   0  0  0  0  0  0  0  0  0  0  0  0
    2.3651   -7.1322   -1.5080 C   0  0  0  0  0  0  0  0  0  0  0  0
    3.0868   -8.3161   -1.4827 C   0  0  0  0  0  0  0  0  0  0  0  0
    4.3322   -8.3376   -1.9774 F   0  0  0  0  0  0  0  0  0  0  0  0
    2.5404   -9.4788   -0.9514 C   0  0  0  0  0  0  0  0  0  0  0  0
    1.2457   -9.4588   -0.4337 C   0  0  0  0  0  0  0  0  0  0  0  0
    0.5148   -8.2670   -0.4395 C   0  0  0  0  0  0  0  0  0  0  0  0
    2.0130   -4.7043    0.0618 N   0  0  0  0  0  0  0  0  0  0  0  0
    2.5833   -3.4921    0.2254 C   0  0  0  0  0  0  0  0  0  0  0  0
    3.0979    1.2790    0.2452 C   0  0  0  0  0  0  0  0  0  0  0  0
    2.4829    2.4262    0.7746 C   0  0  0  0  0  0  0  0  0  0  0  0
    3.2562    3.4896    1.2445 C   0  0  0  0  0  0  0  0  0  0  0  0
    4.6456    3.3923    1.1775 C   0  0  0  0  0  0  0  0  0  0  0  0
    5.5033    4.4661    1.6730 C   0  0  0  0  0  0  0  0  0  0  0  0
    6.7992    4.4213    1.6535 N   0  0  0  0  0  0  0  0  0  0  0  0
    7.3857    3.3024    1.1316 N   0  0  0  0  0  0  0  0  0  0  0  0
    6.7315    2.2112    0.6137 C   0  0  0  0  0  0  0  0  0  0  0  0
    7.3108    1.2284    0.1633 O   0  0  0  0  0  0  0  0  0  0  0  0
    5.2600    2.2668    0.6432 C   0  0  0  0  0  0  0  0  0  0  0  0
    4.4922    1.2051    0.1587 C   0  0  0  0  0  0  0  0  0  0  0  0
    3.6029   -1.1852    0.5117 H   0  0  0  0  0  0  0  0  0  0  0  0
    0.5267   -1.5373   -1.6163 H   0  0  0  0  0  0  0  0  0  0  0  0
   -0.5365   -3.7340   -1.9444 H   0  0  0  0  0  0  0  0  0  0  0  0
    2.8229   -6.2477   -1.9368 H   0  0  0  0  0  0  0  0  0  0  0  0
    3.1265  -10.3912   -0.9478 H   0  0  0  0  0  0  0  0  0  0  0  0
    0.8074  -10.3624   -0.0228 H   0  0  0  0  0  0  0  0  0  0  0  0
   -0.4934   -8.2452   -0.0314 H   0  0  0  0  0  0  0  0  0  0  0  0
    3.4729   -3.5041    0.8488 H   0  0  0  0  0  0  0  0  0  0  0  0
    1.3957    2.4842    0.8275 H   0  0  0  0  0  0  0  0  0  0  0  0
    2.7686    4.3688    1.6578 H   0  0  0  0  0  0  0  0  0  0  0  0
    5.0167    5.3636    2.0899 H   0  0  0  0  0  0  0  0  0  0  0  0
    8.4009    3.2839    1.1318 H   0  0  0  0  0  0  0  0  0  0  0  0
    4.9892    0.3487   -0.2906 H   0  0  0  0  0  0  0  0  0  0  0  0
  1  2  2  0  0  0  0
  2  3  1  0  0  0  0
  2 18  1  0  0  0  0
  3  4  1  0  0  0  0
  3 29  1  0  0  0  0
  4  5  2  0  0  0  0
  4 17  1  0  0  0  0
  5  6  1  0  0  0  0
  5 30  1  0  0  0  0
  6  7  2  0  0  0  0
  6 31  1  0  0  0  0
  7  8  1  0  0  0  0
  7 16  1  0  0  0  0
  8  9  1  0  0  0  0
  9 10  2  0  0  0  0
  9 15  1  0  0  0  0
 10 11  1  0  0  0  0
 10 32  1  0  0  0  0
 11 12  1  0  0  0  0
 11 13  2  0  0  0  0
 13 14  1  0  0  0  0
 13 33  1  0  0  0  0
 14 15  2  0  0  0  0
 14 34  1  0  0  0  0
 15 35  1  0  0  0  0
 16 17  2  0  0  0  0
 17 36  1  0  0  0  0
 18 19  2  0  0  0  0
 18 28  1  0  0  0  0
 19 20  1  0  0  0  0
 19 37  1  0  0  0  0
 20 21  2  0  0  0  0
 20 38  1  0  0  0  0
 21 22  1  0  0  0  0
 21 27  1  0  0  0  0
 22 23  2  0  0  0  0
 22 39  1  0  0  0  0
 23 24  1  0  0  0  0
 24 25  1  0  0  0  0
 24 40  1  0  0  0  0
 25 26  2  0  0  0  0
 25 27  1  0  0  0  0
 27 28  2  0  0  0  0
 28 41  1  0  0  0  0
M  END
$$$$
