
 OpenBabel01122422483D

 47 50  0  0  1  0  0  0  0  0999 V2000
    6.4482    1.8194   -1.4883 C   0  0  0  0  0  0  0  0  0  0  0  0
    5.4195    1.0407   -0.7614 C   0  0  0  0  0  0  0  0  0  0  0  0
    5.4733   -0.2567   -0.5311 N   0  0  0  0  0  0  0  0  0  0  0  0
    4.4916   -0.5294    0.3789 N   0  0  0  0  0  0  0  0  0  0  0  0
    3.8399    0.5716    0.7202 N   0  0  0  0  0  0  0  0  0  0  0  0
    4.3392    1.5591   -0.0595 N   0  0  0  0  0  0  0  0  0  0  0  0
    3.7622    2.8556   -0.0564 C   0  0  0  0  0  0  0  0  0  0  0  0
    3.0449    3.2960    1.0723 C   0  0  0  0  0  0  0  0  0  0  0  0
    2.5304    4.6007    1.1066 C   0  0  0  0  0  0  0  0  0  0  0  0
    1.9140    5.2151    2.3176 C   0  0  0  0  0  0  0  0  0  0  0  0
    1.9115    6.4353    2.4273 O   0  0  0  0  0  0  0  0  0  0  0  0
    1.3833    4.3726    3.2616 N   0  0  0  0  0  0  0  0  0  0  0  0
    0.7648    4.8922    4.4631 C   0  0  3  0  0  0  0  0  0  0  0  0
   -0.7270    4.6167    4.5446 C   0  0  0  0  0  0  0  0  0  0  0  0
   -1.3223    3.4706    3.9857 C   0  0  0  0  0  0  0  0  0  0  0  0
   -2.7006    3.2611    4.0729 C   0  0  0  0  0  0  0  0  0  0  0  0
   -3.5091    4.1908    4.7197 C   0  0  0  0  0  0  0  0  0  0  0  0
   -2.9419    5.3305    5.2826 C   0  0  0  0  0  0  0  0  0  0  0  0
   -1.5634    5.5413    5.1981 C   0  0  0  0  0  0  0  0  0  0  0  0
    1.4008    4.2349    5.6485 C   0  0  0  0  0  0  0  0  0  0  0  0
    2.1151    4.8757    6.6457 C   0  0  0  0  0  0  0  0  0  0  0  0
    2.5903    3.9900    7.5566 O   0  0  0  0  0  0  0  0  0  0  0  0
    2.1881    2.7596    7.1555 C   0  0  0  0  0  0  0  0  0  0  0  0
    1.4604    2.8487    5.9928 C   0  0  0  0  0  0  0  0  0  0  0  0
    2.6862    5.4369   -0.0101 C   0  0  0  0  0  0  0  0  0  0  0  0
    3.3730    5.0018   -1.1479 C   0  0  0  0  0  0  0  0  0  0  0  0
    3.5821    5.9156   -2.3314 C   0  0  0  0  0  0  0  0  0  0  0  0
    3.0428    7.1528   -2.1770 F   0  0  0  0  0  0  0  0  0  0  0  0
    4.9056    6.1073   -2.5899 F   0  0  0  0  0  0  0  0  0  0  0  0
    3.0496    5.4071   -3.4755 F   0  0  0  0  0  0  0  0  0  0  0  0
    3.9046    3.7035   -1.1626 C   0  0  0  0  0  0  0  0  0  0  0  0
    7.3136    1.1867   -1.7123 H   0  0  0  0  0  0  0  0  0  0  0  0
    6.8055    2.6564   -0.8792 H   0  0  0  0  0  0  0  0  0  0  0  0
    6.0788    2.1978   -2.4437 H   0  0  0  0  0  0  0  0  0  0  0  0
    2.9633    2.6514    1.9447 H   0  0  0  0  0  0  0  0  0  0  0  0
    1.3431    3.3797    3.1090 H   0  0  0  0  0  0  0  0  0  0  0  0
    0.9260    5.9790    4.5143 H   0  0  0  0  0  0  0  0  0  0  0  0
   -0.7250    2.7229    3.4734 H   0  0  0  0  0  0  0  0  0  0  0  0
   -3.1424    2.3709    3.6324 H   0  0  0  0  0  0  0  0  0  0  0  0
   -4.5816    4.0271    4.7845 H   0  0  0  0  0  0  0  0  0  0  0  0
   -3.5728    6.0582    5.7869 H   0  0  0  0  0  0  0  0  0  0  0  0
   -1.1442    6.4423    5.6430 H   0  0  0  0  0  0  0  0  0  0  0  0
    2.3702    5.9109    6.8318 H   0  0  0  0  0  0  0  0  0  0  0  0
    2.4945    1.9373    7.7869 H   0  0  0  0  0  0  0  0  0  0  0  0
    1.0232    2.0167    5.4600 H   0  0  0  0  0  0  0  0  0  0  0  0
    2.2812    6.4500    0.0198 H   0  0  0  0  0  0  0  0  0  0  0  0
    4.3913    3.3756   -2.0768 H   0  0  0  0  0  0  0  0  0  0  0  0
  1  2  1  0  0  0  0
  1 32  1  0  0  0  0
  1 33  1  0  0  0  0
  1 34  1  0  0  0  0
  2  3  2  0  0  0  0
  2  6  1  0  0  0  0
  3  4  1  0  0  0  0
  4  5  2  0  0  0  0
  5  6  1  0  0  0  0
  6  7  1  0  0  0  0
  7  8  2  0  0  0  0
  7 31  1  0  0  0  0
  8  9  1  0  0  0  0
  8 35  1  0  0  0  0
  9 10  1  0  0  0  0
  9 25  2  0  0  0  0
 10 11  2  0  0  0  0
 10 12  1  0  0  0  0
 12 13  1  0  0  0  0
 12 36  1  0  0  0  0
 13 14  1  0  0  0  0
 13 20  1  0  0  0  0
 13 37  1  0  0  0  0
 14 15  2  0  0  0  0
 14 19  1  0  0  0  0
 15 16  1  0  0  0  0
 15 38  1  0  0  0  0
 16 17  2  0  0  0  0
 16 39  1  0  0  0  0
 17 18  1  0  0  0  0
 17 40  1  0  0  0  0
 18 19  2  0  0  0  0
 18 41  1  0  0  0  0
 19 42  1  0  0  0  0
 20 21  2  0  0  0  0
 20 24  1  0  0  0  0
 21 22  1  0  0  0  0
 21 43  1  0  0  0  0
 22 23  1  0  0  0  0
 23 24  2  0  0  0  0
 23 44  1  0  0  0  0
 24 45  1  0  0  0  0
 25 26  1  0  0  0  0
 25 46  1  0  0  0  0
 26 27  1  0  0  0  0
 26 31  2  0  0  0  0
 27 28  1  0  0  0  0
 27 29  1  0  0  0  0
 27 30  1  0  0  0  0
 31 47  1  0  0  0  0
M  END
$$$$
