
 OpenBabel01122422483D

 51 54  0  0  0  0  0  0  0  0999 V2000
    7.3616    5.3861   -1.9285 C   0  0  0  0  0  0  0  0  0  0  0  0
    7.7853    4.2260   -1.2251 O   0  0  0  0  0  0  0  0  0  0  0  0
    6.8920    3.6596   -0.3581 C   0  0  0  0  0  0  0  0  0  0  0  0
    5.6058    4.1080   -0.0896 C   0  0  0  0  0  0  0  0  0  0  0  0
    4.7925    3.3822    0.7808 C   0  0  0  0  0  0  0  0  0  0  0  0
    5.2604    2.2073    1.3853 C   0  0  0  0  0  0  0  0  0  0  0  0
    6.5716    1.7515    1.1847 C   0  0  0  0  0  0  0  0  0  0  0  0
    7.1334    0.5243    1.8296 C   0  0  0  0  0  0  0  0  0  0  0  0
    8.0731   -0.2463    1.0965 C   0  0  0  0  0  0  0  0  0  0  0  0
    8.7337   -1.3539    1.6360 C   0  0  0  0  0  0  0  0  0  0  0  0
    8.4525   -1.7564    2.9289 C   0  0  0  0  0  0  0  0  0  0  0  0
    7.4661   -1.0898    3.6469 C   0  0  0  0  0  0  0  0  0  0  0  0
    6.7931    0.0273    3.1115 C   0  0  0  0  0  0  0  0  0  0  0  0
    5.8252    0.6296    3.9451 N   0  0  0  0  0  0  0  0  0  0  0  0
    4.7859   -0.1042    4.5130 C   0  0  0  0  0  0  0  0  0  0  0  0
    4.5728   -1.2998    4.3307 O   0  0  0  0  0  0  0  0  0  0  0  0
    3.8543    0.6891    5.3668 C   0  0  0  0  0  0  0  0  0  0  0  0
    2.7266    0.0786    5.9336 C   0  0  0  0  0  0  0  0  0  0  0  0
    1.9109    0.8350    6.7744 C   0  0  0  0  0  0  0  0  0  0  0  0
    2.2479    2.1684    7.0148 C   0  0  0  0  0  0  0  0  0  0  0  0
    1.4362    3.0406    7.8915 C   0  0  0  0  0  0  0  0  0  0  0  0
    0.4552    2.5597    8.4507 O   0  0  0  0  0  0  0  0  0  0  0  0
    1.8481    4.3820    8.0183 N   0  0  0  0  0  0  0  0  0  0  0  0
    1.0179    5.2530    8.8405 C   0  0  0  0  0  0  0  0  0  0  0  0
    2.9917    4.8772    7.3842 C   0  0  0  0  0  0  0  0  0  0  0  0
    3.4231    6.3107    7.5420 C   0  0  0  0  0  0  0  0  0  0  0  0
    3.7411    4.0760    6.6072 C   0  0  0  0  0  0  0  0  0  0  0  0
    3.3681    2.6926    6.3961 C   0  0  0  0  0  0  0  0  0  0  0  0
    4.1809    1.9911    5.5669 N   0  0  0  0  0  0  0  0  0  0  0  0
    7.3634    2.5129    0.2937 C   0  0  0  0  0  0  0  0  0  0  0  0
    8.1415    5.6406   -2.6533 H   0  0  0  0  0  0  0  0  0  0  0  0
    7.2514    6.2310   -1.2416 H   0  0  0  0  0  0  0  0  0  0  0  0
    6.4385    5.2078   -2.4899 H   0  0  0  0  0  0  0  0  0  0  0  0
    5.2028    5.0044   -0.5476 H   0  0  0  0  0  0  0  0  0  0  0  0
    3.7789    3.7224    0.9797 H   0  0  0  0  0  0  0  0  0  0  0  0
    4.5623    1.6480    2.0015 H   0  0  0  0  0  0  0  0  0  0  0  0
    8.3055    0.0071    0.0632 H   0  0  0  0  0  0  0  0  0  0  0  0
    9.4677   -1.8920    1.0424 H   0  0  0  0  0  0  0  0  0  0  0  0
    8.9832   -2.5915    3.3761 H   0  0  0  0  0  0  0  0  0  0  0  0
    7.2458   -1.4233    4.6591 H   0  0  0  0  0  0  0  0  0  0  0  0
    5.7079    1.6378    3.9261 H   0  0  0  0  0  0  0  0  0  0  0  0
    2.4968   -0.9624    5.7286 H   0  0  0  0  0  0  0  0  0  0  0  0
    1.0313    0.3918    7.2342 H   0  0  0  0  0  0  0  0  0  0  0  0
    0.1612    4.7290    9.2705 H   0  0  0  0  0  0  0  0  0  0  0  0
    0.6321    6.0690    8.2189 H   0  0  0  0  0  0  0  0  0  0  0  0
    1.6166    5.6550    9.6650 H   0  0  0  0  0  0  0  0  0  0  0  0
    2.7400    6.9271    8.1341 H   0  0  0  0  0  0  0  0  0  0  0  0
    3.5024    6.7876    6.5592 H   0  0  0  0  0  0  0  0  0  0  0  0
    4.4036    6.3594    8.0273 H   0  0  0  0  0  0  0  0  0  0  0  0
    4.6395    4.4298    6.1118 H   0  0  0  0  0  0  0  0  0  0  0  0
    8.3892    2.2158    0.0814 H   0  0  0  0  0  0  0  0  0  0  0  0
  1  2  1  0  0  0  0
  1 31  1  0  0  0  0
  1 32  1  0  0  0  0
  1 33  1  0  0  0  0
  2  3  1  0  0  0  0
  3  4  2  0  0  0  0
  3 30  1  0  0  0  0
  4  5  1  0  0  0  0
  4 34  1  0  0  0  0
  5  6  2  0  0  0  0
  5 35  1  0  0  0  0
  6  7  1  0  0  0  0
  6 36  1  0  0  0  0
  7  8  1  0  0  0  0
  7 30  2  0  0  0  0
  8  9  2  0  0  0  0
  8 13  1  0  0  0  0
  9 10  1  0  0  0  0
  9 37  1  0  0  0  0
 10 11  2  0  0  0  0
 10 38  1  0  0  0  0
 11 12  1  0  0  0  0
 11 39  1  0  0  0  0
 12 13  2  0  0  0  0
 12 40  1  0  0  0  0
 13 14  1  0  0  0  0
 14 15  1  0  0  0  0
 14 41  1  0  0  0  0
 15 16  2  0  0  0  0
 15 17  1  0  0  0  0
 17 18  2  0  0  0  0
 17 29  1  0  0  0  0
 18 19  1  0  0  0  0
 18 42  1  0  0  0  0
 19 20  2  0  0  0  0
 19 43  1  0  0  0  0
 20 21  1  0  0  0  0
 20 28  1  0  0  0  0
 21 22  2  0  0  0  0
 21 23  1  0  0  0  0
 23 24  1  0  0  0  0
 23 25  1  0  0  0  0
 24 44  1  0  0  0  0
 24 45  1  0  0  0  0
 24 46  1  0  0  0  0
 25 26  1  0  0  0  0
 25 27  2  0  0  0  0
 26 47  1  0  0  0  0
 26 48  1  0  0  0  0
 26 49  1  0  0  0  0
 27 28  1  0  0  0  0
 27 50  1  0  0  0  0
 28 29  2  0  0  0  0
 30 51  1  0  0  0  0
M  END
$$$$
