
 OpenBabel01122422483D

 40 43  0  0  0  0  0  0  0  0999 V2000
    0.9673   -0.0369   -0.1425 O   0  0  0  0  0  0  0  0  0  0  0  0
    2.1778    0.0933    0.0084 C   0  0  0  0  0  0  0  0  0  0  0  0
    2.8567    0.0678    1.2173 N   0  0  0  0  0  0  0  0  0  0  0  0
    2.2452   -0.1620    2.4698 C   0  0  0  0  0  0  0  0  0  0  0  0
    0.9768   -0.7374    2.5800 C   0  0  0  0  0  0  0  0  0  0  0  0
    0.3620   -0.9037    3.8197 C   0  0  0  0  0  0  0  0  0  0  0  0
    1.0088   -0.5045    4.9900 C   0  0  0  0  0  0  0  0  0  0  0  0
    0.3315   -0.6551    6.2728 C   0  0  0  0  0  0  0  0  0  0  0  0
    0.9987   -0.8340    7.4246 N   0  0  0  0  0  0  0  0  0  0  0  0
    0.0421   -0.9551    8.4157 O   0  0  0  0  0  0  0  0  0  0  0  0
   -1.1954   -0.8358    7.8691 C   0  0  0  0  0  0  0  0  0  0  0  0
   -2.3477   -0.9166    8.7817 C   0  0  0  0  0  0  0  0  0  0  0  0
   -1.9970   -1.0996   10.0797 F   0  0  0  0  0  0  0  0  0  0  0  0
   -3.1002    0.2132    8.7329 F   0  0  0  0  0  0  0  0  0  0  0  0
   -3.1758   -1.9428    8.4491 F   0  0  0  0  0  0  0  0  0  0  0  0
   -1.0690   -0.6490    6.5151 C   0  0  0  0  0  0  0  0  0  0  0  0
    2.2979    0.0394    4.8920 C   0  0  0  0  0  0  0  0  0  0  0  0
    2.9184    0.1992    3.6400 C   0  0  0  0  0  0  0  0  0  0  0  0
    3.0055    0.3355   -1.2099 C   0  0  0  0  0  0  0  0  0  0  0  0
    2.3327    0.4988   -2.4242 C   0  0  0  0  0  0  0  0  0  0  0  0
    3.0727    0.6697   -3.5847 C   0  0  0  0  0  0  0  0  0  0  0  0
    4.4586    0.6560   -3.4889 C   0  0  0  0  0  0  0  0  0  0  0  0
    5.3062    0.7815   -4.6917 C   0  0  0  0  0  0  0  0  0  0  0  0
    4.8252    0.9394   -5.8063 O   0  0  0  0  0  0  0  0  0  0  0  0
    6.6664    0.7001   -4.4823 N   0  0  0  0  0  0  0  0  0  0  0  0
    7.2490    0.5248   -3.2535 C   0  0  0  0  0  0  0  0  0  0  0  0
    6.5161    0.4268   -2.1419 C   0  0  0  0  0  0  0  0  0  0  0  0
    5.0576    0.4913   -2.2369 C   0  0  0  0  0  0  0  0  0  0  0  0
    4.3613    0.3442   -1.0773 N   0  0  0  0  0  0  0  0  0  0  0  0
    3.8353    0.3357    1.1898 H   0  0  0  0  0  0  0  0  0  0  0  0
    0.4316   -1.0898    1.7106 H   0  0  0  0  0  0  0  0  0  0  0  0
   -0.6252   -1.3573    3.8406 H   0  0  0  0  0  0  0  0  0  0  0  0
   -1.8713   -0.5155    5.8051 H   0  0  0  0  0  0  0  0  0  0  0  0
    2.8222    0.3638    5.7894 H   0  0  0  0  0  0  0  0  0  0  0  0
    3.9093    0.6435    3.6017 H   0  0  0  0  0  0  0  0  0  0  0  0
    1.2465    0.4779   -2.4652 H   0  0  0  0  0  0  0  0  0  0  0  0
    2.5753    0.7873   -4.5437 H   0  0  0  0  0  0  0  0  0  0  0  0
    7.2401    0.7723   -5.3161 H   0  0  0  0  0  0  0  0  0  0  0  0
    8.3366    0.4677   -3.2391 H   0  0  0  0  0  0  0  0  0  0  0  0
    6.9600    0.2813   -1.1644 H   0  0  0  0  0  0  0  0  0  0  0  0
  1  2  2  0  0  0  0
  2  3  1  0  0  0  0
  2 19  1  0  0  0  0
  3  4  1  0  0  0  0
  3 30  1  0  0  0  0
  4  5  2  0  0  0  0
  4 18  1  0  0  0  0
  5  6  1  0  0  0  0
  5 31  1  0  0  0  0
  6  7  2  0  0  0  0
  6 32  1  0  0  0  0
  7  8  1  0  0  0  0
  7 17  1  0  0  0  0
  8  9  2  0  0  0  0
  8 16  1  0  0  0  0
  9 10  1  0  0  0  0
 10 11  1  0  0  0  0
 11 12  1  0  0  0  0
 11 16  2  0  0  0  0
 12 13  1  0  0  0  0
 12 14  1  0  0  0  0
 12 15  1  0  0  0  0
 16 33  1  0  0  0  0
 17 18  2  0  0  0  0
 17 34  1  0  0  0  0
 18 35  1  0  0  0  0
 19 20  2  0  0  0  0
 19 29  1  0  0  0  0
 20 21  1  0  0  0  0
 20 36  1  0  0  0  0
 21 22  2  0  0  0  0
 21 37  1  0  0  0  0
 22 23  1  0  0  0  0
 22 28  1  0  0  0  0
 23 24  2  0  0  0  0
 23 25  1  0  0  0  0
 25 26  1  0  0  0  0
 25 38  1  0  0  0  0
 26 27  2  0  0  0  0
 26 39  1  0  0  0  0
 27 28  1  0  0  0  0
 27 40  1  0  0  0  0
 28 29  2  0  0  0  0
M  END
$$$$
