
 OpenBabel01122422483D

 41 44  0  0  0  0  0  0  0  0999 V2000
    1.0052   -0.3694    0.0092 O   0  0  0  0  0  0  0  0  0  0  0  0
    2.2153   -0.1759   -0.0311 C   0  0  0  0  0  0  0  0  0  0  0  0
    2.8829    0.5049   -1.0315 N   0  0  0  0  0  0  0  0  0  0  0  0
    2.1939    1.2097   -2.0538 C   0  0  0  0  0  0  0  0  0  0  0  0
    1.0234    1.9249   -1.7854 C   0  0  0  0  0  0  0  0  0  0  0  0
    0.3820    2.6267   -2.8055 C   0  0  0  0  0  0  0  0  0  0  0  0
    0.9412    2.6073   -4.0700 C   0  0  0  0  0  0  0  0  0  0  0  0
    2.0733    1.9421   -4.3724 N   0  0  0  0  0  0  0  0  0  0  0  0
    2.6582    1.2353   -3.3713 C   0  0  0  0  0  0  0  0  0  0  0  0
    3.7603    0.4442   -3.6887 O   0  0  0  0  0  0  0  0  0  0  0  0
    3.7827   -0.1281   -4.9410 C   0  0  0  0  0  0  0  0  0  0  0  0
    2.6702   -0.6688   -5.5889 C   0  0  0  0  0  0  0  0  0  0  0  0
    2.8176   -1.2343   -6.8533 C   0  0  0  0  0  0  0  0  0  0  0  0
    4.0841   -1.2754   -7.4112 C   0  0  0  0  0  0  0  0  0  0  0  0
    5.1888   -0.7970   -6.7962 N   0  0  0  0  0  0  0  0  0  0  0  0
    5.0099   -0.2327   -5.5775 C   0  0  0  0  0  0  0  0  0  0  0  0
    3.0367   -0.7532    1.0640 C   0  0  0  0  0  0  0  0  0  0  0  0
    2.6674   -2.0123    1.5666 C   0  0  0  0  0  0  0  0  0  0  0  0
    3.2107   -2.4749    2.7665 C   0  0  0  0  0  0  0  0  0  0  0  0
    4.1185   -1.6689    3.4614 C   0  0  0  0  0  0  0  0  0  0  0  0
    4.5330   -2.0529    4.7452 N   0  0  0  0  0  0  0  0  0  0  0  0
    4.0494   -3.1604    5.3928 C   0  0  0  0  0  0  0  0  0  0  0  0
    4.3104   -3.4101    6.5635 O   0  0  0  0  0  0  0  0  0  0  0  0
    3.1854   -4.0684    4.5967 C   0  0  0  0  0  0  0  0  0  0  0  0
    2.7994   -3.7516    3.3532 C   0  0  0  0  0  0  0  0  0  0  0  0
    4.5354   -0.4524    2.9152 C   0  0  0  0  0  0  0  0  0  0  0  0
    5.4098    0.3126    3.5859 F   0  0  0  0  0  0  0  0  0  0  0  0
    4.0010    0.0173    1.7181 C   0  0  0  0  0  0  0  0  0  0  0  0
    3.8495    0.2593   -1.2155 H   0  0  0  0  0  0  0  0  0  0  0  0
    0.6046    1.9595   -0.7829 H   0  0  0  0  0  0  0  0  0  0  0  0
   -0.5316    3.1787   -2.6129 H   0  0  0  0  0  0  0  0  0  0  0  0
    0.4754    3.1323   -4.8994 H   0  0  0  0  0  0  0  0  0  0  0  0
    1.6828   -0.6333   -5.1346 H   0  0  0  0  0  0  0  0  0  0  0  0
    1.9625   -1.6279   -7.3911 H   0  0  0  0  0  0  0  0  0  0  0  0
    4.2510   -1.7034   -8.3965 H   0  0  0  0  0  0  0  0  0  0  0  0
    5.9143    0.1455   -5.1109 H   0  0  0  0  0  0  0  0  0  0  0  0
    1.9031   -2.5919    1.0499 H   0  0  0  0  0  0  0  0  0  0  0  0
    5.1253   -1.4349    5.2879 H   0  0  0  0  0  0  0  0  0  0  0  0
    2.8870   -4.9890    5.0815 H   0  0  0  0  0  0  0  0  0  0  0  0
    2.1755   -4.4244    2.7740 H   0  0  0  0  0  0  0  0  0  0  0  0
    4.2754    1.0084    1.3699 H   0  0  0  0  0  0  0  0  0  0  0  0
  1  2  2  0  0  0  0
  2  3  1  0  0  0  0
  2 17  1  0  0  0  0
  3  4  1  0  0  0  0
  3 29  1  0  0  0  0
  4  5  2  0  0  0  0
  4  9  1  0  0  0  0
  5  6  1  0  0  0  0
  5 30  1  0  0  0  0
  6  7  2  0  0  0  0
  6 31  1  0  0  0  0
  7  8  1  0  0  0  0
  7 32  1  0  0  0  0
  8  9  2  0  0  0  0
  9 10  1  0  0  0  0
 10 11  1  0  0  0  0
 11 12  2  0  0  0  0
 11 16  1  0  0  0  0
 12 13  1  0  0  0  0
 12 33  1  0  0  0  0
 13 14  2  0  0  0  0
 13 34  1  0  0  0  0
 14 15  1  0  0  0  0
 14 35  1  0  0  0  0
 15 16  2  0  0  0  0
 16 36  1  0  0  0  0
 17 18  2  0  0  0  0
 17 28  1  0  0  0  0
 18 19  1  0  0  0  0
 18 37  1  0  0  0  0
 19 20  2  0  0  0  0
 19 25  1  0  0  0  0
 20 21  1  0  0  0  0
 20 26  1  0  0  0  0
 21 22  1  0  0  0  0
 21 38  1  0  0  0  0
 22 23  2  0  0  0  0
 22 24  1  0  0  0  0
 24 25  2  0  0  0  0
 24 39  1  0  0  0  0
 25 40  1  0  0  0  0
 26 27  1  0  0  0  0
 26 28  2  0  0  0  0
 28 41  1  0  0  0  0
M  END
$$$$
