
 OpenBabel01122422483D

 49 52  0  0  0  0  0  0  0  0999 V2000
    2.8580   -0.7393    0.7363 O   0  0  0  0  0  0  0  0  0  0  0  0
    2.3591   -0.0755   -0.1634 C   0  0  0  0  0  0  0  0  0  0  0  0
    1.0004    0.1423   -0.3530 N   0  0  0  0  0  0  0  0  0  0  0  0
   -0.0596   -0.2931    0.4740 C   0  0  0  0  0  0  0  0  0  0  0  0
    0.1060   -0.7058    1.7945 C   0  0  0  0  0  0  0  0  0  0  0  0
   -0.9939   -1.1427    2.5496 C   0  0  0  0  0  0  0  0  0  0  0  0
   -2.2806   -1.1899    1.9977 C   0  0  0  0  0  0  0  0  0  0  0  0
   -3.4117   -1.6934    2.7816 C   0  0  0  0  0  0  0  0  0  0  0  0
   -3.6249   -1.6288    4.1040 C   0  0  0  0  0  0  0  0  0  0  0  0
   -4.7999   -2.2753    4.4045 N   0  0  0  0  0  0  0  0  0  0  0  0
   -5.3566   -2.7816    3.2225 C   0  0  0  0  0  0  0  0  0  0  0  0
   -6.3797   -3.4284    3.1037 O   0  0  0  0  0  0  0  0  0  0  0  0
   -4.4653   -2.3933    2.2168 N   0  0  0  0  0  0  0  0  0  0  0  0
   -2.4454   -0.7494    0.6786 C   0  0  0  0  0  0  0  0  0  0  0  0
   -1.3476   -0.2986   -0.0717 C   0  0  0  0  0  0  0  0  0  0  0  0
    3.0817    0.5890   -1.1541 N   0  0  0  0  0  0  0  0  0  0  0  0
    4.4886    0.4890   -1.1146 C   0  0  0  0  0  0  0  0  0  0  0  0
    5.1201    1.5206   -0.5128 N   0  0  0  0  0  0  0  0  0  0  0  0
    6.4666    1.4425   -0.4380 C   0  0  0  0  0  0  0  0  0  0  0  0
    7.2149    0.4255   -1.0093 C   0  0  0  0  0  0  0  0  0  0  0  0
    6.5456   -0.5802   -1.7043 C   0  0  0  0  0  0  0  0  0  0  0  0
    5.1511   -0.5546   -1.7723 C   0  0  0  0  0  0  0  0  0  0  0  0
    4.4030   -1.4756   -2.4556 O   0  0  0  0  0  0  0  0  0  0  0  0
    5.0006   -2.0248   -3.6349 C   0  0  0  0  0  0  0  0  0  0  0  0
    4.0118   -2.9280   -4.3387 C   0  0  0  0  0  0  0  0  0  0  0  0
    4.0745   -3.1049   -5.7285 C   0  0  0  0  0  0  0  0  0  0  0  0
    3.2171   -4.0046   -6.3685 C   0  0  0  0  0  0  0  0  0  0  0  0
    2.2958   -4.7411   -5.6259 C   0  0  0  0  0  0  0  0  0  0  0  0
    2.2239   -4.5739   -4.2451 C   0  0  0  0  0  0  0  0  0  0  0  0
    3.0792   -3.6789   -3.6051 C   0  0  0  0  0  0  0  0  0  0  0  0
    0.7587    0.4414   -1.2861 H   0  0  0  0  0  0  0  0  0  0  0  0
    1.0807   -0.6967    2.2705 H   0  0  0  0  0  0  0  0  0  0  0  0
   -0.8161   -1.4773    3.5698 H   0  0  0  0  0  0  0  0  0  0  0  0
   -3.0241   -1.1653    4.8734 H   0  0  0  0  0  0  0  0  0  0  0  0
   -5.2107   -2.4036    5.3144 H   0  0  0  0  0  0  0  0  0  0  0  0
   -4.5738   -2.6461    1.2553 H   0  0  0  0  0  0  0  0  0  0  0  0
   -3.4290   -0.7532    0.2133 H   0  0  0  0  0  0  0  0  0  0  0  0
   -1.5196    0.0235   -1.0942 H   0  0  0  0  0  0  0  0  0  0  0  0
    2.8207    1.5653   -1.1244 H   0  0  0  0  0  0  0  0  0  0  0  0
    6.9468    2.2447    0.1139 H   0  0  0  0  0  0  0  0  0  0  0  0
    8.2977    0.4182   -0.9187 H   0  0  0  0  0  0  0  0  0  0  0  0
    7.1323   -1.3745   -2.1532 H   0  0  0  0  0  0  0  0  0  0  0  0
    5.8720   -2.6394   -3.3809 H   0  0  0  0  0  0  0  0  0  0  0  0
    5.2999   -1.2106   -4.3076 H   0  0  0  0  0  0  0  0  0  0  0  0
    4.7948   -2.5500   -6.3257 H   0  0  0  0  0  0  0  0  0  0  0  0
    3.2740   -4.1393   -7.4456 H   0  0  0  0  0  0  0  0  0  0  0  0
    1.6368   -5.4491   -6.1211 H   0  0  0  0  0  0  0  0  0  0  0  0
    1.5093   -5.1475   -3.6613 H   0  0  0  0  0  0  0  0  0  0  0  0
    3.0188   -3.5694   -2.5235 H   0  0  0  0  0  0  0  0  0  0  0  0
  1  2  2  0  0  0  0
  2  3  1  0  0  0  0
  2 16  1  0  0  0  0
  3  4  1  0  0  0  0
  3 31  1  0  0  0  0
  4  5  2  0  0  0  0
  4 15  1  0  0  0  0
  5  6  1  0  0  0  0
  5 32  1  0  0  0  0
  6  7  2  0  0  0  0
  6 33  1  0  0  0  0
  7  8  1  0  0  0  0
  7 14  1  0  0  0  0
  8  9  2  0  0  0  0
  8 13  1  0  0  0  0
  9 10  1  0  0  0  0
  9 34  1  0  0  0  0
 10 11  1  0  0  0  0
 10 35  1  0  0  0  0
 11 12  2  0  0  0  0
 11 13  1  0  0  0  0
 13 36  1  0  0  0  0
 14 15  2  0  0  0  0
 14 37  1  0  0  0  0
 15 38  1  0  0  0  0
 16 17  1  0  0  0  0
 16 39  1  0  0  0  0
 17 18  2  0  0  0  0
 17 22  1  0  0  0  0
 18 19  1  0  0  0  0
 19 20  2  0  0  0  0
 19 40  1  0  0  0  0
 20 21  1  0  0  0  0
 20 41  1  0  0  0  0
 21 22  2  0  0  0  0
 21 42  1  0  0  0  0
 22 23  1  0  0  0  0
 23 24  1  0  0  0  0
 24 25  1  0  0  0  0
 24 43  1  0  0  0  0
 24 44  1  0  0  0  0
 25 26  2  0  0  0  0
 25 30  1  0  0  0  0
 26 27  1  0  0  0  0
 26 45  1  0  0  0  0
 27 28  2  0  0  0  0
 27 46  1  0  0  0  0
 28 29  1  0  0  0  0
 28 47  1  0  0  0  0
 29 30  2  0  0  0  0
 29 48  1  0  0  0  0
 30 49  1  0  0  0  0
M  END
$$$$
