
 OpenBabel01122422483D

 44 47  0  0  1  0  0  0  0  0999 V2000
    0.9845    0.1530    0.2276 O   0  0  0  0  0  0  0  0  0  0  0  0
    2.2116    0.0369    0.1965 C   0  0  0  0  0  0  0  0  0  0  0  0
    2.9241   -0.9805    0.7984 N   0  0  0  0  0  0  0  0  0  0  0  0
    2.3197   -2.1094    1.4045 C   0  0  0  0  0  0  0  0  0  0  0  0
    0.9942   -2.4801    1.1314 C   0  0  0  0  0  0  0  0  0  0  0  0
    0.3316   -3.5360    1.7847 C   0  0  0  0  0  0  0  0  0  0  0  0
   -1.1979   -3.8086    1.4778 C   0  0  3  0  0  0  0  0  0  0  0  0
   -1.8044   -4.9147    2.2216 O   0  0  0  0  0  0  0  0  0  0  0  0
   -2.5293   -5.3031    1.0249 C   0  0  0  0  0  0  0  0  0  0  0  0
   -1.6039   -4.4638    0.1357 C   0  0  0  0  0  0  0  0  0  0  0  0
   -2.2120   -3.6599   -0.7696 F   0  0  0  0  0  0  0  0  0  0  0  0
   -0.6489   -5.1521   -0.5347 F   0  0  0  0  0  0  0  0  0  0  0  0
    1.0921   -4.2557    2.7157 C   0  0  0  0  0  0  0  0  0  0  0  0
    2.4340   -3.9447    2.9676 C   0  0  0  0  0  0  0  0  0  0  0  0
    3.0519   -2.8783    2.3086 C   0  0  0  0  0  0  0  0  0  0  0  0
    3.0022    1.0950   -0.4979 C   0  0  0  0  0  0  0  0  0  0  0  0
    2.3536    2.2592   -0.6823 C   0  0  0  0  0  0  0  0  0  0  0  0
    2.8850    3.3036   -1.4284 N   0  0  0  0  0  0  0  0  0  0  0  0
    2.1249    4.4951   -1.6254 C   0  0  0  0  0  0  0  0  0  0  0  0
    0.7886    4.4201   -2.0499 C   0  0  0  0  0  0  0  0  0  0  0  0
    0.0488    5.5865   -2.2069 C   0  0  0  0  0  0  0  0  0  0  0  0
   -1.2140    5.5107   -2.6455 F   0  0  0  0  0  0  0  0  0  0  0  0
    0.5981    6.8306   -1.9181 C   0  0  0  0  0  0  0  0  0  0  0  0
    1.9204    6.9126   -1.4872 C   0  0  0  0  0  0  0  0  0  0  0  0
    2.6857    5.7504   -1.3564 C   0  0  0  0  0  0  0  0  0  0  0  0
    4.1321    3.1772   -2.0589 C   0  0  0  0  0  0  0  0  0  0  0  0
    4.6663    4.0107   -2.7895 O   0  0  0  0  0  0  0  0  0  0  0  0
    4.8340    1.8731   -1.8560 C   0  0  0  0  0  0  0  0  0  0  0  0
    4.2910    0.8989   -1.1107 C   0  0  0  0  0  0  0  0  0  0  0  0
    3.9161   -0.8531    0.9483 H   0  0  0  0  0  0  0  0  0  0  0  0
    0.4191   -1.9444    0.3825 H   0  0  0  0  0  0  0  0  0  0  0  0
   -1.7831   -2.8953    1.6696 H   0  0  0  0  0  0  0  0  0  0  0  0
   -3.5708   -4.9678    1.0660 H   0  0  0  0  0  0  0  0  0  0  0  0
   -2.4878   -6.3808    0.8548 H   0  0  0  0  0  0  0  0  0  0  0  0
    0.6227   -5.0730    3.2636 H   0  0  0  0  0  0  0  0  0  0  0  0
    2.9876   -4.5265    3.6998 H   0  0  0  0  0  0  0  0  0  0  0  0
    4.0852   -2.6436    2.5424 H   0  0  0  0  0  0  0  0  0  0  0  0
    1.3734    2.4373   -0.2437 H   0  0  0  0  0  0  0  0  0  0  0  0
    0.3296    3.4711   -2.3055 H   0  0  0  0  0  0  0  0  0  0  0  0
   -0.0061    7.7245   -2.0344 H   0  0  0  0  0  0  0  0  0  0  0  0
    2.3580    7.8794   -1.2514 H   0  0  0  0  0  0  0  0  0  0  0  0
    3.7124    5.8273   -1.0054 H   0  0  0  0  0  0  0  0  0  0  0  0
    5.7788    1.7572   -2.3712 H   0  0  0  0  0  0  0  0  0  0  0  0
    4.8000   -0.0524   -1.0075 H   0  0  0  0  0  0  0  0  0  0  0  0
  1  2  2  0  0  0  0
  2  3  1  0  0  0  0
  2 16  1  0  0  0  0
  3  4  1  0  0  0  0
  3 30  1  0  0  0  0
  4  5  2  0  0  0  0
  4 15  1  0  0  0  0
  5  6  1  0  0  0  0
  5 31  1  0  0  0  0
  6  7  1  0  0  0  0
  6 13  2  0  0  0  0
  7  8  1  0  0  0  0
  7 10  1  0  0  0  0
  7 32  1  0  0  0  0
  8  9  1  0  0  0  0
  9 10  1  0  0  0  0
  9 33  1  0  0  0  0
  9 34  1  0  0  0  0
 10 11  1  0  0  0  0
 10 12  1  0  0  0  0
 13 14  1  0  0  0  0
 13 35  1  0  0  0  0
 14 15  2  0  0  0  0
 14 36  1  0  0  0  0
 15 37  1  0  0  0  0
 16 17  2  0  0  0  0
 16 29  1  0  0  0  0
 17 18  1  0  0  0  0
 17 38  1  0  0  0  0
 18 19  1  0  0  0  0
 18 26  1  0  0  0  0
 19 20  2  0  0  0  0
 19 25  1  0  0  0  0
 20 21  1  0  0  0  0
 20 39  1  0  0  0  0
 21 22  1  0  0  0  0
 21 23  2  0  0  0  0
 23 24  1  0  0  0  0
 23 40  1  0  0  0  0
 24 25  2  0  0  0  0
 24 41  1  0  0  0  0
 25 42  1  0  0  0  0
 26 27  2  0  0  0  0
 26 28  1  0  0  0  0
 28 29  2  0  0  0  0
 28 43  1  0  0  0  0
 29 44  1  0  0  0  0
M  END
$$$$
