
 OpenBabel01122422483D

 49 52  0  0  1  0  0  0  0  0999 V2000
    2.7003   -0.5124    1.4097 C   0  0  0  0  0  0  0  0  0  0  0  0
    2.4608   -0.0879    0.0259 N   0  0  0  0  0  0  0  0  0  0  0  0
    1.6682    1.0347   -0.3105 C   0  0  0  0  0  0  0  0  0  0  0  0
    1.7124    1.5855   -1.4107 O   0  0  0  0  0  0  0  0  0  0  0  0
    0.7863    1.6341    0.6856 C   0  0  0  0  0  0  0  0  0  0  0  0
    0.0682    1.0757    1.7228 C   0  0  0  0  0  0  0  0  0  0  0  0
   -0.6199    2.0937    2.3463 N   0  0  0  0  0  0  0  0  0  0  0  0
   -1.4161    1.9641    3.5221 C   0  0  0  0  0  0  0  0  0  0  0  0
   -2.1333    3.0681    3.9750 C   0  0  0  0  0  0  0  0  0  0  0  0
   -2.9037    2.9323    5.1254 C   0  0  0  0  0  0  0  0  0  0  0  0
   -2.9221    1.7114    5.7935 C   0  0  0  0  0  0  0  0  0  0  0  0
   -2.1740    0.6674    5.2781 C   0  0  0  0  0  0  0  0  0  0  0  0
   -1.4303    0.7589    4.1588 N   0  0  0  0  0  0  0  0  0  0  0  0
   -0.4471    3.2808    1.7105 N   0  0  0  0  0  0  0  0  0  0  0  0
    0.3882    2.9914    0.7112 C   0  0  0  0  0  0  0  0  0  0  0  0
    3.1832   -0.8158   -1.0022 C   0  0  0  0  0  0  0  0  0  0  0  0
    2.7552   -0.8224   -2.3375 C   0  0  0  0  0  0  0  0  0  0  0  0
    3.4518   -1.5270   -3.3247 C   0  0  0  0  0  0  0  0  0  0  0  0
    4.6094   -2.2291   -3.0016 C   0  0  0  0  0  0  0  0  0  0  0  0
    5.0781   -2.2444   -1.6856 C   0  0  0  0  0  0  0  0  0  0  0  0
    6.3925   -2.9099   -1.3073 C   0  0  3  0  0  0  0  0  0  0  0  0
    6.3371   -4.3104   -1.5814 O   0  0  0  0  0  0  0  0  0  0  0  0
    7.5976   -2.2638   -1.9766 C   0  0  0  0  0  0  0  0  0  0  0  0
    7.8861   -0.9072   -1.7403 C   0  0  0  0  0  0  0  0  0  0  0  0
    8.9500   -0.2782   -2.3889 C   0  0  0  0  0  0  0  0  0  0  0  0
    9.7508   -0.9979   -3.2722 C   0  0  0  0  0  0  0  0  0  0  0  0
    9.4991   -2.3494   -3.4932 C   0  0  0  0  0  0  0  0  0  0  0  0
    8.4338   -2.9796   -2.8473 C   0  0  0  0  0  0  0  0  0  0  0  0
    4.3360   -1.5577   -0.6963 C   0  0  0  0  0  0  0  0  0  0  0  0
    2.2063    0.1023    2.1560 H   0  0  0  0  0  0  0  0  0  0  0  0
    3.7617   -0.4303    1.6555 H   0  0  0  0  0  0  0  0  0  0  0  0
    2.3587   -1.5474    1.5199 H   0  0  0  0  0  0  0  0  0  0  0  0
   -0.0242    0.0621    2.0851 H   0  0  0  0  0  0  0  0  0  0  0  0
   -2.1087    4.0175    3.4454 H   0  0  0  0  0  0  0  0  0  0  0  0
   -3.4836    3.7719    5.4945 H   0  0  0  0  0  0  0  0  0  0  0  0
   -3.5119    1.5795    6.6946 H   0  0  0  0  0  0  0  0  0  0  0  0
   -2.1610   -0.3048    5.7681 H   0  0  0  0  0  0  0  0  0  0  0  0
    0.6862    3.7796    0.0293 H   0  0  0  0  0  0  0  0  0  0  0  0
    1.8572   -0.2980   -2.6516 H   0  0  0  0  0  0  0  0  0  0  0  0
    3.0920   -1.5105   -4.3499 H   0  0  0  0  0  0  0  0  0  0  0  0
    5.1534   -2.7417   -3.7931 H   0  0  0  0  0  0  0  0  0  0  0  0
    6.5533   -2.8339   -0.2237 H   0  0  0  0  0  0  0  0  0  0  0  0
    5.7539   -4.4328   -2.3455 H   0  0  0  0  0  0  0  0  0  0  0  0
    7.2694   -0.3233   -1.0599 H   0  0  0  0  0  0  0  0  0  0  0  0
    9.1481    0.7757   -2.2112 H   0  0  0  0  0  0  0  0  0  0  0  0
   10.5713   -0.5064   -3.7874 H   0  0  0  0  0  0  0  0  0  0  0  0
   10.1306   -2.9164   -4.1729 H   0  0  0  0  0  0  0  0  0  0  0  0
    8.2620   -4.0371   -3.0329 H   0  0  0  0  0  0  0  0  0  0  0  0
    4.7382   -1.5795    0.3105 H   0  0  0  0  0  0  0  0  0  0  0  0
  1  2  1  0  0  0  0
  1 30  1  0  0  0  0
  1 31  1  0  0  0  0
  1 32  1  0  0  0  0
  2  3  1  0  0  0  0
  2 16  1  0  0  0  0
  3  4  2  0  0  0  0
  3  5  1  0  0  0  0
  5  6  2  0  0  0  0
  5 15  1  0  0  0  0
  6  7  1  0  0  0  0
  6 33  1  0  0  0  0
  7  8  1  0  0  0  0
  7 14  1  0  0  0  0
  8  9  2  0  0  0  0
  8 13  1  0  0  0  0
  9 10  1  0  0  0  0
  9 34  1  0  0  0  0
 10 11  2  0  0  0  0
 10 35  1  0  0  0  0
 11 12  1  0  0  0  0
 11 36  1  0  0  0  0
 12 13  2  0  0  0  0
 12 37  1  0  0  0  0
 14 15  2  0  0  0  0
 15 38  1  0  0  0  0
 16 17  2  0  0  0  0
 16 29  1  0  0  0  0
 17 18  1  0  0  0  0
 17 39  1  0  0  0  0
 18 19  2  0  0  0  0
 18 40  1  0  0  0  0
 19 20  1  0  0  0  0
 19 41  1  0  0  0  0
 20 21  1  0  0  0  0
 20 29  2  0  0  0  0
 21 22  1  0  0  0  0
 21 23  1  0  0  0  0
 21 42  1  0  0  0  0
 22 43  1  0  0  0  0
 23 24  2  0  0  0  0
 23 28  1  0  0  0  0
 24 25  1  0  0  0  0
 24 44  1  0  0  0  0
 25 26  2  0  0  0  0
 25 45  1  0  0  0  0
 26 27  1  0  0  0  0
 26 46  1  0  0  0  0
 27 28  2  0  0  0  0
 27 47  1  0  0  0  0
 28 48  1  0  0  0  0
 29 49  1  0  0  0  0
M  END
$$$$
