
 OpenBabel01122422483D

 44 47  0  0  0  0  0  0  0  0999 V2000
   -1.9221    0.1839   -0.6309 C   0  0  0  0  0  0  0  0  0  0  0  0
   -0.5445   -0.0045   -0.2471 N   0  0  0  0  0  0  0  0  0  0  0  0
    0.2102   -1.1140   -0.4554 C   0  0  0  0  0  0  0  0  0  0  0  0
    1.4775   -0.8057   -0.0224 C   0  0  0  0  0  0  0  0  0  0  0  0
    2.5902   -1.6326   -0.0740 N   0  0  0  0  0  0  0  0  0  0  0  0
    2.5510   -2.9945   -0.2320 C   0  0  0  0  0  0  0  0  0  0  0  0
    1.5484   -3.7058   -0.2678 O   0  0  0  0  0  0  0  0  0  0  0  0
    3.9034   -3.6009   -0.3640 C   0  0  0  0  0  0  0  0  0  0  0  0
    4.1221   -4.9057   -0.1673 C   0  0  0  0  0  0  0  0  0  0  0  0
    5.4760   -5.1459   -0.7063 C   0  0  0  0  0  0  0  0  0  0  0  0
    5.9808   -6.2546   -0.7486 O   0  0  0  0  0  0  0  0  0  0  0  0
    5.9553   -3.9088   -1.1400 N   0  0  0  0  0  0  0  0  0  0  0  0
    7.1221   -3.6076   -1.8645 C   0  0  0  0  0  0  0  0  0  0  0  0
    7.8526   -4.6141   -2.5098 C   0  0  0  0  0  0  0  0  0  0  0  0
    8.9972   -4.3022   -3.2475 C   0  0  0  0  0  0  0  0  0  0  0  0
    9.4392   -2.9840   -3.3245 C   0  0  0  0  0  0  0  0  0  0  0  0
    8.7331   -1.9758   -2.6746 C   0  0  0  0  0  0  0  0  0  0  0  0
    7.5724   -2.2837   -1.9611 C   0  0  0  0  0  0  0  0  0  0  0  0
    5.0039   -2.9094   -0.8566 N   0  0  0  0  0  0  0  0  0  0  0  0
    1.3856    0.5429    0.4577 C   0  0  0  0  0  0  0  0  0  0  0  0
    2.4232    1.3839    1.0606 C   0  0  0  0  0  0  0  0  0  0  0  0
    2.0925    2.3134    2.0626 C   0  0  0  0  0  0  0  0  0  0  0  0
    3.0827    3.1077    2.6492 C   0  0  0  0  0  0  0  0  0  0  0  0
    4.4055    2.9722    2.2374 C   0  0  0  0  0  0  0  0  0  0  0  0
    5.3533    3.7289    2.7982 F   0  0  0  0  0  0  0  0  0  0  0  0
    4.7559    2.0676    1.2492 C   0  0  0  0  0  0  0  0  0  0  0  0
    3.7631    1.2893    0.6628 C   0  0  0  0  0  0  0  0  0  0  0  0
    4.1404    0.4365   -0.3021 F   0  0  0  0  0  0  0  0  0  0  0  0
    0.1259    1.0021    0.3378 N   0  0  0  0  0  0  0  0  0  0  0  0
   -2.3132   -0.7461   -1.0517 H   0  0  0  0  0  0  0  0  0  0  0  0
   -1.9617    0.9764   -1.3829 H   0  0  0  0  0  0  0  0  0  0  0  0
   -2.4971    0.4641    0.2551 H   0  0  0  0  0  0  0  0  0  0  0  0
   -0.1970   -2.0010   -0.9208 H   0  0  0  0  0  0  0  0  0  0  0  0
    3.4930   -1.1949    0.0812 H   0  0  0  0  0  0  0  0  0  0  0  0
    3.4501   -5.6770    0.1619 H   0  0  0  0  0  0  0  0  0  0  0  0
    7.5334   -5.6530   -2.4759 H   0  0  0  0  0  0  0  0  0  0  0  0
    9.5407   -5.0918   -3.7605 H   0  0  0  0  0  0  0  0  0  0  0  0
   10.3379   -2.7444   -3.8875 H   0  0  0  0  0  0  0  0  0  0  0  0
    9.0886   -0.9495   -2.7146 H   0  0  0  0  0  0  0  0  0  0  0  0
    7.0513   -1.4805   -1.4473 H   0  0  0  0  0  0  0  0  0  0  0  0
    4.7493   -2.3636   -1.6833 H   0  0  0  0  0  0  0  0  0  0  0  0
    1.0605    2.4198    2.3955 H   0  0  0  0  0  0  0  0  0  0  0  0
    2.8316    3.8295    3.4217 H   0  0  0  0  0  0  0  0  0  0  0  0
    5.7850    1.9652    0.9324 H   0  0  0  0  0  0  0  0  0  0  0  0
  1  2  1  0  0  0  0
  1 30  1  0  0  0  0
  1 31  1  0  0  0  0
  1 32  1  0  0  0  0
  2  3  1  0  0  0  0
  2 29  1  0  0  0  0
  3  4  2  0  0  0  0
  3 33  1  0  0  0  0
  4  5  1  0  0  0  0
  4 20  1  0  0  0  0
  5  6  1  0  0  0  0
  5 34  1  0  0  0  0
  6  7  2  0  0  0  0
  6  8  1  0  0  0  0
  8  9  2  0  0  0  0
  8 19  1  0  0  0  0
  9 10  1  0  0  0  0
  9 35  1  0  0  0  0
 10 11  2  0  0  0  0
 10 12  1  0  0  0  0
 12 13  1  0  0  0  0
 12 19  1  0  0  0  0
 13 14  2  0  0  0  0
 13 18  1  0  0  0  0
 14 15  1  0  0  0  0
 14 36  1  0  0  0  0
 15 16  2  0  0  0  0
 15 37  1  0  0  0  0
 16 17  1  0  0  0  0
 16 38  1  0  0  0  0
 17 18  2  0  0  0  0
 17 39  1  0  0  0  0
 18 40  1  0  0  0  0
 19 41  1  0  0  0  0
 20 21  1  0  0  0  0
 20 29  2  0  0  0  0
 21 22  2  0  0  0  0
 21 27  1  0  0  0  0
 22 23  1  0  0  0  0
 22 42  1  0  0  0  0
 23 24  2  0  0  0  0
 23 43  1  0  0  0  0
 24 25  1  0  0  0  0
 24 26  1  0  0  0  0
 26 27  2  0  0  0  0
 26 44  1  0  0  0  0
 27 28  1  0  0  0  0
M  END
$$$$
