
 OpenBabel01122422483D

 40 43  0  0  0  0  0  0  0  0999 V2000
    1.5793   -0.1003    0.3236 O   0  0  0  0  0  0  0  0  0  0  0  0
    2.7299   -0.5272    0.4145 C   0  0  0  0  0  0  0  0  0  0  0  0
    3.2602   -1.3577   -0.5387 N   0  0  0  0  0  0  0  0  0  0  0  0
    2.4919   -1.6344   -1.7392 C   0  0  0  0  0  0  0  0  0  0  0  0
    3.2316   -2.5164   -2.6848 C   0  0  0  0  0  0  0  0  0  0  0  0
    2.7053   -2.8713   -3.8655 N   0  0  0  0  0  0  0  0  0  0  0  0
    3.6702   -3.7188   -4.4027 O   0  0  0  0  0  0  0  0  0  0  0  0
    4.6861   -3.7936   -3.4932 C   0  0  0  0  0  0  0  0  0  0  0  0
    5.8001   -4.6800   -3.8263 C   0  0  0  0  0  0  0  0  0  0  0  0
    5.7734   -5.5024   -4.9705 C   0  0  0  0  0  0  0  0  0  0  0  0
    6.8295   -6.3787   -5.2432 C   0  0  0  0  0  0  0  0  0  0  0  0
    7.9164   -6.4269   -4.3828 C   0  0  0  0  0  0  0  0  0  0  0  0
    8.9208   -7.2743   -4.6402 F   0  0  0  0  0  0  0  0  0  0  0  0
    7.9741   -5.6173   -3.2549 C   0  0  0  0  0  0  0  0  0  0  0  0
    6.9174   -4.7440   -2.9777 C   0  0  0  0  0  0  0  0  0  0  0  0
    4.4777   -3.0458   -2.4246 N   0  0  0  0  0  0  0  0  0  0  0  0
    3.6138   -0.0884    1.5668 C   0  0  0  0  0  0  0  0  0  0  0  0
    4.9605   -0.1829    1.4394 C   0  0  0  0  0  0  0  0  0  0  0  0
    5.7121    0.7280    0.6843 N   0  0  0  0  0  0  0  0  0  0  0  0
    5.0686    1.9061    0.2309 C   0  0  0  0  0  0  0  0  0  0  0  0
    3.8133    2.2529    0.7829 C   0  0  0  0  0  0  0  0  0  0  0  0
    3.0111    3.2494    0.2451 C   0  0  0  0  0  0  0  0  0  0  0  0
    3.4718    3.8902   -0.8957 C   0  0  0  0  0  0  0  0  0  0  0  0
    2.6686    4.7580   -1.5251 F   0  0  0  0  0  0  0  0  0  0  0  0
    4.7324    3.5977   -1.4268 C   0  0  0  0  0  0  0  0  0  0  0  0
    5.1397    4.2056   -2.5494 F   0  0  0  0  0  0  0  0  0  0  0  0
    5.5548    2.6297   -0.8509 C   0  0  0  0  0  0  0  0  0  0  0  0
    3.3298    1.3625    1.8674 C   0  0  0  0  0  0  0  0  0  0  0  0
    2.8016    1.7694    2.8904 O   0  0  0  0  0  0  0  0  0  0  0  0
    4.2379   -1.6233   -0.5297 H   0  0  0  0  0  0  0  0  0  0  0  0
    2.2509   -0.6792   -2.2265 H   0  0  0  0  0  0  0  0  0  0  0  0
    1.5505   -2.1084   -1.4398 H   0  0  0  0  0  0  0  0  0  0  0  0
    4.9253   -5.4798   -5.6496 H   0  0  0  0  0  0  0  0  0  0  0  0
    6.8022   -7.0159   -6.1192 H   0  0  0  0  0  0  0  0  0  0  0  0
    8.8349   -5.6771   -2.5956 H   0  0  0  0  0  0  0  0  0  0  0  0
    6.9668   -4.1190   -2.0874 H   0  0  0  0  0  0  0  0  0  0  0  0
    5.5321   -0.3992    2.3453 H   0  0  0  0  0  0  0  0  0  0  0  0
    6.6920    0.8476    0.9417 H   0  0  0  0  0  0  0  0  0  0  0  0
    2.0214    3.4506    0.6405 H   0  0  0  0  0  0  0  0  0  0  0  0
    6.5068    2.3923   -1.3130 H   0  0  0  0  0  0  0  0  0  0  0  0
  1  2  2  0  0  0  0
  2  3  1  0  0  0  0
  2 17  1  0  0  0  0
  3  4  1  0  0  0  0
  3 30  1  0  0  0  0
  4  5  1  0  0  0  0
  4 31  1  0  0  0  0
  4 32  1  0  0  0  0
  5  6  2  0  0  0  0
  5 16  1  0  0  0  0
  6  7  1  0  0  0  0
  7  8  1  0  0  0  0
  8  9  1  0  0  0  0
  8 16  2  0  0  0  0
  9 10  2  0  0  0  0
  9 15  1  0  0  0  0
 10 11  1  0  0  0  0
 10 33  1  0  0  0  0
 11 12  2  0  0  0  0
 11 34  1  0  0  0  0
 12 13  1  0  0  0  0
 12 14  1  0  0  0  0
 14 15  2  0  0  0  0
 14 35  1  0  0  0  0
 15 36  1  0  0  0  0
 17 18  2  0  0  0  0
 17 28  1  0  0  0  0
 18 19  1  0  0  0  0
 18 37  1  0  0  0  0
 19 20  1  0  0  0  0
 19 38  1  0  0  0  0
 20 21  2  0  0  0  0
 20 27  1  0  0  0  0
 21 22  1  0  0  0  0
 21 28  1  0  0  0  0
 22 23  2  0  0  0  0
 22 39  1  0  0  0  0
 23 24  1  0  0  0  0
 23 25  1  0  0  0  0
 25 26  1  0  0  0  0
 25 27  2  0  0  0  0
 27 40  1  0  0  0  0
 28 29  2  0  0  0  0
M  END
$$$$
