
 OpenBabel01122422483D

 45 48  0  0  0  0  0  0  0  0999 V2000
    3.0138    0.0844   -2.5111 O   0  0  0  0  0  0  0  0  0  0  0  0
    3.3054    0.0571   -1.3190 C   0  0  0  0  0  0  0  0  0  0  0  0
    3.0518   -1.0332   -0.5169 N   0  0  0  0  0  0  0  0  0  0  0  0
    2.3420   -2.2029   -1.0087 C   0  0  0  0  0  0  0  0  0  0  0  0
    3.2531   -3.2509   -1.6101 C   0  0  0  0  0  0  0  0  0  0  0  0
    3.6252   -3.1620   -2.9468 C   0  0  0  0  0  0  0  0  0  0  0  0
    4.5530   -4.0711   -3.4530 C   0  0  0  0  0  0  0  0  0  0  0  0
    5.0553   -4.0361   -4.7364 O   0  0  0  0  0  0  0  0  0  0  0  0
    5.2172   -2.8219   -5.3692 C   0  0  0  0  0  0  0  0  0  0  0  0
    5.5665   -1.6379   -4.7170 C   0  0  0  0  0  0  0  0  0  0  0  0
    5.6308   -0.4527   -5.4388 C   0  0  0  0  0  0  0  0  0  0  0  0
    5.8930    0.6942   -4.7975 F   0  0  0  0  0  0  0  0  0  0  0  0
    5.4198   -0.4365   -6.8126 C   0  0  0  0  0  0  0  0  0  0  0  0
    5.1509   -1.6305   -7.4800 C   0  0  0  0  0  0  0  0  0  0  0  0
    5.0494   -2.8232   -6.7580 C   0  0  0  0  0  0  0  0  0  0  0  0
    4.9898   -5.1150   -2.6478 C   0  0  0  0  0  0  0  0  0  0  0  0
    4.5368   -5.1593   -1.3420 C   0  0  0  0  0  0  0  0  0  0  0  0
    3.7029   -4.2441   -0.7985 N   0  0  0  0  0  0  0  0  0  0  0  0
    3.9378    1.2469   -0.6524 C   0  0  0  0  0  0  0  0  0  0  0  0
    4.1609    2.3849   -1.4242 C   0  0  0  0  0  0  0  0  0  0  0  0
    4.6850    3.5157   -0.8109 C   0  0  0  0  0  0  0  0  0  0  0  0
    4.9701    3.4766    0.5479 C   0  0  0  0  0  0  0  0  0  0  0  0
    4.7299    2.2986    1.2601 C   0  0  0  0  0  0  0  0  0  0  0  0
    5.0314    2.2934    2.6597 N   0  0  0  0  0  0  0  0  0  0  0  0
    4.9249    1.2237    3.5240 C   0  0  0  0  0  0  0  0  0  0  0  0
    5.3089    1.6685    4.7678 C   0  0  0  0  0  0  0  0  0  0  0  0
    5.6299    3.0205    4.5747 C   0  0  0  0  0  0  0  0  0  0  0  0
    5.4804    3.4085    3.3079 N   0  0  0  0  0  0  0  0  0  0  0  0
    4.2158    1.1672    0.6834 N   0  0  0  0  0  0  0  0  0  0  0  0
    3.3665   -1.0034    0.4467 H   0  0  0  0  0  0  0  0  0  0  0  0
    1.5985   -1.8916   -1.7519 H   0  0  0  0  0  0  0  0  0  0  0  0
    1.7969   -2.6319   -0.1625 H   0  0  0  0  0  0  0  0  0  0  0  0
    3.2162   -2.3680   -3.5646 H   0  0  0  0  0  0  0  0  0  0  0  0
    5.7562   -1.6055   -3.6502 H   0  0  0  0  0  0  0  0  0  0  0  0
    5.4713    0.5042   -7.3505 H   0  0  0  0  0  0  0  0  0  0  0  0
    5.0087   -1.6314   -8.5577 H   0  0  0  0  0  0  0  0  0  0  0  0
    4.8278   -3.7516   -7.2783 H   0  0  0  0  0  0  0  0  0  0  0  0
    5.6725   -5.8686   -3.0258 H   0  0  0  0  0  0  0  0  0  0  0  0
    4.8478   -5.9565   -0.6720 H   0  0  0  0  0  0  0  0  0  0  0  0
    3.9206    2.3934   -2.4836 H   0  0  0  0  0  0  0  0  0  0  0  0
    4.8643    4.4208   -1.3853 H   0  0  0  0  0  0  0  0  0  0  0  0
    5.3758    4.3620    1.0339 H   0  0  0  0  0  0  0  0  0  0  0  0
    4.5968    0.2582    3.1705 H   0  0  0  0  0  0  0  0  0  0  0  0
    5.3503    1.0977    5.6840 H   0  0  0  0  0  0  0  0  0  0  0  0
    5.9715    3.7434    5.3063 H   0  0  0  0  0  0  0  0  0  0  0  0
  1  2  2  0  0  0  0
  2  3  1  0  0  0  0
  2 19  1  0  0  0  0
  3  4  1  0  0  0  0
  3 30  1  0  0  0  0
  4  5  1  0  0  0  0
  4 31  1  0  0  0  0
  4 32  1  0  0  0  0
  5  6  2  0  0  0  0
  5 18  1  0  0  0  0
  6  7  1  0  0  0  0
  6 33  1  0  0  0  0
  7  8  1  0  0  0  0
  7 16  2  0  0  0  0
  8  9  1  0  0  0  0
  9 10  2  0  0  0  0
  9 15  1  0  0  0  0
 10 11  1  0  0  0  0
 10 34  1  0  0  0  0
 11 12  1  0  0  0  0
 11 13  2  0  0  0  0
 13 14  1  0  0  0  0
 13 35  1  0  0  0  0
 14 15  2  0  0  0  0
 14 36  1  0  0  0  0
 15 37  1  0  0  0  0
 16 17  1  0  0  0  0
 16 38  1  0  0  0  0
 17 18  2  0  0  0  0
 17 39  1  0  0  0  0
 19 20  2  0  0  0  0
 19 29  1  0  0  0  0
 20 21  1  0  0  0  0
 20 40  1  0  0  0  0
 21 22  2  0  0  0  0
 21 41  1  0  0  0  0
 22 23  1  0  0  0  0
 22 42  1  0  0  0  0
 23 24  1  0  0  0  0
 23 29  2  0  0  0  0
 24 25  1  0  0  0  0
 24 28  1  0  0  0  0
 25 26  2  0  0  0  0
 25 43  1  0  0  0  0
 26 27  1  0  0  0  0
 26 44  1  0  0  0  0
 27 28  2  0  0  0  0
 27 45  1  0  0  0  0
M  END
$$$$
