
 OpenBabel01122422483D

 51 53  0  0  0  0  0  0  0  0999 V2000
    6.0288   -2.4420    4.4758 C   0  0  0  0  0  0  0  0  0  0  0  0
    5.9368   -1.5845    3.3366 O   0  0  0  0  0  0  0  0  0  0  0  0
    4.8835   -1.8310    2.4815 C   0  0  0  0  0  0  0  0  0  0  0  0
    4.3606   -3.1169    2.3109 C   0  0  0  0  0  0  0  0  0  0  0  0
    3.3110   -3.3632    1.4258 C   0  0  0  0  0  0  0  0  0  0  0  0
    2.7375   -4.7352    1.2251 C   0  0  0  0  0  0  0  0  0  0  0  0
    1.7747   -4.8966    0.4808 O   0  0  0  0  0  0  0  0  0  0  0  0
    3.3421   -5.7751    1.8974 N   0  0  0  0  0  0  0  0  0  0  0  0
    2.8735   -7.1398    1.8263 C   0  0  0  0  0  0  0  0  0  0  0  0
    1.8492   -7.4679    2.8877 C   0  0  0  0  0  0  0  0  0  0  0  0
    0.4988   -7.3372    2.5921 C   0  0  0  0  0  0  0  0  0  0  0  0
   -0.4341   -7.8513    3.4878 C   0  0  0  0  0  0  0  0  0  0  0  0
   -1.7894   -7.8997    3.2454 O   0  0  0  0  0  0  0  0  0  0  0  0
   -2.2387   -8.0747    1.9528 C   0  0  0  0  0  0  0  0  0  0  0  0
   -1.5845   -8.8545    0.9887 C   0  0  0  0  0  0  0  0  0  0  0  0
   -2.0738   -8.9178   -0.3179 C   0  0  0  0  0  0  0  0  0  0  0  0
   -3.2561   -8.2588   -0.6454 C   0  0  0  0  0  0  0  0  0  0  0  0
   -3.9418   -7.5533    0.3380 C   0  0  0  0  0  0  0  0  0  0  0  0
   -5.0979   -6.9520    0.0282 F   0  0  0  0  0  0  0  0  0  0  0  0
   -3.4455   -7.4547    1.6332 C   0  0  0  0  0  0  0  0  0  0  0  0
   -0.0055   -8.3362    4.7172 C   0  0  0  0  0  0  0  0  0  0  0  0
    1.3547   -8.3477    4.9706 C   0  0  0  0  0  0  0  0  0  0  0  0
    2.2917   -7.9448    4.0808 N   0  0  0  0  0  0  0  0  0  0  0  0
    2.7802   -2.2853    0.7114 C   0  0  0  0  0  0  0  0  0  0  0  0
    3.2964   -0.9844    0.8693 C   0  0  0  0  0  0  0  0  0  0  0  0
    2.4500    0.2496    0.0005 Cl  0  0  0  0  0  0  0  0  0  0  0  0
    4.3822   -0.7449    1.7328 C   0  0  0  0  0  0  0  0  0  0  0  0
    5.0000    0.4511    2.0109 O   0  0  0  0  0  0  0  0  0  0  0  0
    5.0491    1.4563    1.0058 C   0  0  0  0  0  0  0  0  0  0  0  0
    6.2531    2.3911    1.1574 C   0  0  0  0  0  0  0  0  0  0  0  0
    7.1296    2.0919    2.1578 N   0  0  0  0  0  0  0  0  0  0  0  0
    6.4448    3.3577    0.4243 O   0  0  0  0  0  0  0  0  0  0  0  0
    6.8421   -2.0771    5.1084 H   0  0  0  0  0  0  0  0  0  0  0  0
    6.2863   -3.4693    4.1963 H   0  0  0  0  0  0  0  0  0  0  0  0
    5.1020   -2.4175    5.0600 H   0  0  0  0  0  0  0  0  0  0  0  0
    4.7938   -3.9306    2.8688 H   0  0  0  0  0  0  0  0  0  0  0  0
    4.0957   -5.6347    2.5459 H   0  0  0  0  0  0  0  0  0  0  0  0
    3.7504   -7.7811    1.9741 H   0  0  0  0  0  0  0  0  0  0  0  0
    2.4787   -7.3537    0.8272 H   0  0  0  0  0  0  0  0  0  0  0  0
    0.1973   -6.8941    1.6478 H   0  0  0  0  0  0  0  0  0  0  0  0
   -0.6753   -9.3983    1.2318 H   0  0  0  0  0  0  0  0  0  0  0  0
   -1.5306   -9.4763   -1.0760 H   0  0  0  0  0  0  0  0  0  0  0  0
   -3.6507   -8.2962   -1.6557 H   0  0  0  0  0  0  0  0  0  0  0  0
   -3.9950   -6.8879    2.3770 H   0  0  0  0  0  0  0  0  0  0  0  0
   -0.7118   -8.7054    5.4520 H   0  0  0  0  0  0  0  0  0  0  0  0
    1.7401   -8.7135    5.9187 H   0  0  0  0  0  0  0  0  0  0  0  0
    1.9451   -2.4549    0.0311 H   0  0  0  0  0  0  0  0  0  0  0  0
    4.1626    2.0908    1.1043 H   0  0  0  0  0  0  0  0  0  0  0  0
    5.1328    1.0208    0.0047 H   0  0  0  0  0  0  0  0  0  0  0  0
    6.9760    1.2921    2.7605 H   0  0  0  0  0  0  0  0  0  0  0  0
    7.9391    2.6824    2.2900 H   0  0  0  0  0  0  0  0  0  0  0  0
  1  2  1  0  0  0  0
  1 33  1  0  0  0  0
  1 34  1  0  0  0  0
  1 35  1  0  0  0  0
  2  3  1  0  0  0  0
  3  4  2  0  0  0  0
  3 27  1  0  0  0  0
  4  5  1  0  0  0  0
  4 36  1  0  0  0  0
  5  6  1  0  0  0  0
  5 24  2  0  0  0  0
  6  7  2  0  0  0  0
  6  8  1  0  0  0  0
  8  9  1  0  0  0  0
  8 37  1  0  0  0  0
  9 10  1  0  0  0  0
  9 38  1  0  0  0  0
  9 39  1  0  0  0  0
 10 11  2  0  0  0  0
 10 23  1  0  0  0  0
 11 12  1  0  0  0  0
 11 40  1  0  0  0  0
 12 13  1  0  0  0  0
 12 21  2  0  0  0  0
 13 14  1  0  0  0  0
 14 15  2  0  0  0  0
 14 20  1  0  0  0  0
 15 16  1  0  0  0  0
 15 41  1  0  0  0  0
 16 17  2  0  0  0  0
 16 42  1  0  0  0  0
 17 18  1  0  0  0  0
 17 43  1  0  0  0  0
 18 19  1  0  0  0  0
 18 20  2  0  0  0  0
 20 44  1  0  0  0  0
 21 22  1  0  0  0  0
 21 45  1  0  0  0  0
 22 23  2  0  0  0  0
 22 46  1  0  0  0  0
 24 25  1  0  0  0  0
 24 47  1  0  0  0  0
 25 26  1  0  0  0  0
 25 27  2  0  0  0  0
 27 28  1  0  0  0  0
 28 29  1  0  0  0  0
 29 30  1  0  0  0  0
 29 48  1  0  0  0  0
 29 49  1  0  0  0  0
 30 31  1  0  0  0  0
 30 32  2  0  0  0  0
 31 50  1  0  0  0  0
 31 51  1  0  0  0  0
M  END
$$$$
