
 OpenBabel01122422483D

 41 44  0  0  0  0  0  0  0  0999 V2000
    1.0769   -0.2668    0.1392 O   0  0  0  0  0  0  0  0  0  0  0  0
    2.2966   -0.1302    0.0632 C   0  0  0  0  0  0  0  0  0  0  0  0
    3.0384   -0.7183   -0.9311 N   0  0  0  0  0  0  0  0  0  0  0  0
    2.3659   -1.5802   -1.8694 C   0  0  0  0  0  0  0  0  0  0  0  0
    3.3066   -2.1195   -2.8788 C   0  0  0  0  0  0  0  0  0  0  0  0
    4.3521   -2.8747   -2.5185 N   0  0  0  0  0  0  0  0  0  0  0  0
    4.9740   -3.2348   -3.7006 O   0  0  0  0  0  0  0  0  0  0  0  0
    4.3069   -2.6942   -4.7613 C   0  0  0  0  0  0  0  0  0  0  0  0
    4.8563   -2.9550   -6.0859 C   0  0  0  0  0  0  0  0  0  0  0  0
    5.9851   -3.7725   -6.2564 C   0  0  0  0  0  0  0  0  0  0  0  0
    6.5479   -3.9588   -7.5204 C   0  0  0  0  0  0  0  0  0  0  0  0
    5.9810   -3.3341   -8.6221 C   0  0  0  0  0  0  0  0  0  0  0  0
    6.5366   -3.4914   -9.8311 F   0  0  0  0  0  0  0  0  0  0  0  0
    4.8471   -2.5436   -8.4882 C   0  0  0  0  0  0  0  0  0  0  0  0
    4.2843   -2.3581   -7.2224 C   0  0  0  0  0  0  0  0  0  0  0  0
    3.2374   -1.9760   -4.2830 C   0  0  0  0  0  0  0  0  0  0  0  0
    3.0419    0.6630    1.0210 C   0  0  0  0  0  0  0  0  0  0  0  0
    2.5062    1.2686    2.1327 C   0  0  0  0  0  0  0  0  0  0  0  0
    3.5492    1.9108    2.7485 N   0  0  0  0  0  0  0  0  0  0  0  0
    3.5379    2.6444    3.9578 C   0  0  0  0  0  0  0  0  0  0  0  0
    2.3902    2.6877    4.7627 C   0  0  0  0  0  0  0  0  0  0  0  0
    1.2686    2.0375    4.4360 F   0  0  0  0  0  0  0  0  0  0  0  0
    2.3707    3.3961    5.9600 C   0  0  0  0  0  0  0  0  0  0  0  0
    3.4994    4.0847    6.3829 C   0  0  0  0  0  0  0  0  0  0  0  0
    4.6483    4.0555    5.5974 C   0  0  0  0  0  0  0  0  0  0  0  0
    4.6668    3.3379    4.3969 C   0  0  0  0  0  0  0  0  0  0  0  0
    5.8059    3.3643    3.6879 F   0  0  0  0  0  0  0  0  0  0  0  0
    4.6707    1.7296    2.0006 N   0  0  0  0  0  0  0  0  0  0  0  0
    4.3755    0.9532    0.9608 N   0  0  0  0  0  0  0  0  0  0  0  0
    4.0508   -0.7364   -0.8500 H   0  0  0  0  0  0  0  0  0  0  0  0
    1.5781   -0.9921   -2.3556 H   0  0  0  0  0  0  0  0  0  0  0  0
    1.8814   -2.3949   -1.3199 H   0  0  0  0  0  0  0  0  0  0  0  0
    6.4481   -4.2657   -5.4028 H   0  0  0  0  0  0  0  0  0  0  0  0
    7.4307   -4.5769   -7.6462 H   0  0  0  0  0  0  0  0  0  0  0  0
    4.4167   -2.0685   -9.3627 H   0  0  0  0  0  0  0  0  0  0  0  0
    3.4015   -1.7283   -7.1385 H   0  0  0  0  0  0  0  0  0  0  0  0
    2.5067   -1.4260   -4.8560 H   0  0  0  0  0  0  0  0  0  0  0  0
    1.4903    1.2762    2.4892 H   0  0  0  0  0  0  0  0  0  0  0  0
    1.4628    3.3981    6.5587 H   0  0  0  0  0  0  0  0  0  0  0  0
    3.4860    4.6404    7.3196 H   0  0  0  0  0  0  0  0  0  0  0  0
    5.5423    4.5905    5.9081 H   0  0  0  0  0  0  0  0  0  0  0  0
  1  2  2  0  0  0  0
  2  3  1  0  0  0  0
  2 17  1  0  0  0  0
  3  4  1  0  0  0  0
  3 30  1  0  0  0  0
  4  5  1  0  0  0  0
  4 31  1  0  0  0  0
  4 32  1  0  0  0  0
  5  6  2  0  0  0  0
  5 16  1  0  0  0  0
  6  7  1  0  0  0  0
  7  8  1  0  0  0  0
  8  9  1  0  0  0  0
  8 16  2  0  0  0  0
  9 10  2  0  0  0  0
  9 15  1  0  0  0  0
 10 11  1  0  0  0  0
 10 33  1  0  0  0  0
 11 12  2  0  0  0  0
 11 34  1  0  0  0  0
 12 13  1  0  0  0  0
 12 14  1  0  0  0  0
 14 15  2  0  0  0  0
 14 35  1  0  0  0  0
 15 36  1  0  0  0  0
 16 37  1  0  0  0  0
 17 18  2  0  0  0  0
 17 29  1  0  0  0  0
 18 19  1  0  0  0  0
 18 38  1  0  0  0  0
 19 20  1  0  0  0  0
 19 28  1  0  0  0  0
 20 21  2  0  0  0  0
 20 26  1  0  0  0  0
 21 22  1  0  0  0  0
 21 23  1  0  0  0  0
 23 24  2  0  0  0  0
 23 39  1  0  0  0  0
 24 25  1  0  0  0  0
 24 40  1  0  0  0  0
 25 26  2  0  0  0  0
 25 41  1  0  0  0  0
 26 27  1  0  0  0  0
 28 29  2  0  0  0  0
M  END
$$$$
