
 OpenBabel01122422483D

 53 56  0  0  0  0  0  0  0  0999 V2000
    2.0876   -0.7572   -0.9561 N   0  0  0  0  0  0  0  0  0  0  0  0
    1.9417   -0.1578    0.2600 C   0  0  0  0  0  0  0  0  0  0  0  0
    1.0180    0.6277    0.4557 O   0  0  0  0  0  0  0  0  0  0  0  0
    2.9118   -0.5985    1.3571 C   0  0  0  0  0  0  0  0  0  0  0  0
    4.3480   -0.4990    0.9848 N   0  0  0  0  0  0  0  0  0  0  0  0
    4.7380    0.8575    0.5243 C   0  0  0  0  0  0  0  0  0  0  0  0
    4.6528    1.9854    1.5351 C   0  0  0  0  0  0  0  0  0  0  0  0
    5.7540    2.3263    2.3304 C   0  0  0  0  0  0  0  0  0  0  0  0
    5.6704    3.3686    3.2608 C   0  0  0  0  0  0  0  0  0  0  0  0
    4.4940    4.1219    3.4209 C   0  0  0  0  0  0  0  0  0  0  0  0
    4.4201    5.2637    4.3634 C   0  0  0  0  0  0  0  0  0  0  0  0
    5.5380    6.0839    4.6137 C   0  0  0  0  0  0  0  0  0  0  0  0
    5.4665    7.1680    5.4971 C   0  0  0  0  0  0  0  0  0  0  0  0
    4.2691    7.4704    6.1370 C   0  0  0  0  0  0  0  0  0  0  0  0
    3.1467    6.6820    5.9034 C   0  0  0  0  0  0  0  0  0  0  0  0
    3.2252    5.5886    5.0342 C   0  0  0  0  0  0  0  0  0  0  0  0
    3.3986    3.7659    2.6175 C   0  0  0  0  0  0  0  0  0  0  0  0
    3.4745    2.7186    1.6941 C   0  0  0  0  0  0  0  0  0  0  0  0
    5.2060   -0.8935    2.1326 C   0  0  0  0  0  0  0  0  0  0  0  0
    5.0677   -2.3499    2.5492 C   0  0  0  0  0  0  0  0  0  0  0  0
    4.1608   -2.6096    3.6051 C   0  0  0  0  0  0  0  0  0  0  0  0
    3.8639   -3.9065    4.0137 C   0  0  0  0  0  0  0  0  0  0  0  0
    4.4713   -4.9756    3.3741 C   0  0  0  0  0  0  0  0  0  0  0  0
    4.1308   -6.5804    3.8925 Cl  0  0  0  0  0  0  0  0  0  0  0  0
    5.3735   -4.7594    2.3311 C   0  0  0  0  0  0  0  0  0  0  0  0
    5.6951   -3.4485    1.9188 C   0  0  0  0  0  0  0  0  0  0  0  0
    6.6928   -3.2968    0.9155 N   0  0  0  0  0  0  0  0  0  0  0  0
    7.0969   -4.2167   -0.0277 C   0  0  0  0  0  0  0  0  0  0  0  0
    8.1478   -3.7817   -0.6842 N   0  0  0  0  0  0  0  0  0  0  0  0
    8.3688   -2.5686   -0.1126 C   0  0  0  0  0  0  0  0  0  0  0  0
    7.5063   -2.2176    0.8401 N   0  0  0  0  0  0  0  0  0  0  0  0
    1.4717   -0.4467   -1.6957 H   0  0  0  0  0  0  0  0  0  0  0  0
    2.9693   -1.1888   -1.1982 H   0  0  0  0  0  0  0  0  0  0  0  0
    2.6542   -1.6489    1.5381 H   0  0  0  0  0  0  0  0  0  0  0  0
    2.6869   -0.0340    2.2641 H   0  0  0  0  0  0  0  0  0  0  0  0
    4.1593    1.1376   -0.3652 H   0  0  0  0  0  0  0  0  0  0  0  0
    5.7697    0.8101    0.1475 H   0  0  0  0  0  0  0  0  0  0  0  0
    6.6930    1.7833    2.2361 H   0  0  0  0  0  0  0  0  0  0  0  0
    6.5466    3.5835    3.8685 H   0  0  0  0  0  0  0  0  0  0  0  0
    6.4823    5.8991    4.1079 H   0  0  0  0  0  0  0  0  0  0  0  0
    6.3466    7.7832    5.6671 H   0  0  0  0  0  0  0  0  0  0  0  0
    4.2096    8.3150    6.8126 H   0  0  0  0  0  0  0  0  0  0  0  0
    2.2070    6.9154    6.3958 H   0  0  0  0  0  0  0  0  0  0  0  0
    2.3313    4.9859    4.8914 H   0  0  0  0  0  0  0  0  0  0  0  0
    2.4622    4.3163    2.6818 H   0  0  0  0  0  0  0  0  0  0  0  0
    2.5958    2.4967    1.0943 H   0  0  0  0  0  0  0  0  0  0  0  0
    4.9694   -0.2746    3.0104 H   0  0  0  0  0  0  0  0  0  0  0  0
    6.2540   -0.6628    1.9332 H   0  0  0  0  0  0  0  0  0  0  0  0
    3.6552   -1.7820    4.1029 H   0  0  0  0  0  0  0  0  0  0  0  0
    3.1577   -4.0680    4.8239 H   0  0  0  0  0  0  0  0  0  0  0  0
    5.8589   -5.6299    1.8969 H   0  0  0  0  0  0  0  0  0  0  0  0
    6.5868   -5.1524   -0.2024 H   0  0  0  0  0  0  0  0  0  0  0  0
    9.1856   -1.9173   -0.3977 H   0  0  0  0  0  0  0  0  0  0  0  0
  1  2  1  0  0  0  0
  1 32  1  0  0  0  0
  1 33  1  0  0  0  0
  2  3  2  0  0  0  0
  2  4  1  0  0  0  0
  4  5  1  0  0  0  0
  4 34  1  0  0  0  0
  4 35  1  0  0  0  0
  5  6  1  0  0  0  0
  5 19  1  0  0  0  0
  6  7  1  0  0  0  0
  6 36  1  0  0  0  0
  6 37  1  0  0  0  0
  7  8  2  0  0  0  0
  7 18  1  0  0  0  0
  8  9  1  0  0  0  0
  8 38  1  0  0  0  0
  9 10  2  0  0  0  0
  9 39  1  0  0  0  0
 10 11  1  0  0  0  0
 10 17  1  0  0  0  0
 11 12  2  0  0  0  0
 11 16  1  0  0  0  0
 12 13  1  0  0  0  0
 12 40  1  0  0  0  0
 13 14  2  0  0  0  0
 13 41  1  0  0  0  0
 14 15  1  0  0  0  0
 14 42  1  0  0  0  0
 15 16  2  0  0  0  0
 15 43  1  0  0  0  0
 16 44  1  0  0  0  0
 17 18  2  0  0  0  0
 17 45  1  0  0  0  0
 18 46  1  0  0  0  0
 19 20  1  0  0  0  0
 19 47  1  0  0  0  0
 19 48  1  0  0  0  0
 20 21  2  0  0  0  0
 20 26  1  0  0  0  0
 21 22  1  0  0  0  0
 21 49  1  0  0  0  0
 22 23  2  0  0  0  0
 22 50  1  0  0  0  0
 23 24  1  0  0  0  0
 23 25  1  0  0  0  0
 25 26  2  0  0  0  0
 25 51  1  0  0  0  0
 26 27  1  0  0  0  0
 27 28  1  0  0  0  0
 27 31  1  0  0  0  0
 28 29  2  0  0  0  0
 28 52  1  0  0  0  0
 29 30  1  0  0  0  0
 30 31  2  0  0  0  0
 30 53  1  0  0  0  0
M  END
$$$$
