
 OpenBabel01122422483D

 45 48  0  0  0  0  0  0  0  0999 V2000
    0.9481    0.0879    0.0806 O   0  0  0  0  0  0  0  0  0  0  0  0
    2.1612   -0.0152   -0.0982 C   0  0  0  0  0  0  0  0  0  0  0  0
    2.9216   -0.9518    0.5595 N   0  0  0  0  0  0  0  0  0  0  0  0
    2.3239   -1.7924    1.5985 C   0  0  0  0  0  0  0  0  0  0  0  0
    3.0169   -3.1560    1.8066 C   0  0  0  0  0  0  0  0  0  0  0  0
    3.0360   -3.7791    0.5792 F   0  0  0  0  0  0  0  0  0  0  0  0
    4.3385   -2.9381    2.0875 F   0  0  0  0  0  0  0  0  0  0  0  0
    2.3431   -4.0318    2.8498 C   0  0  0  0  0  0  0  0  0  0  0  0
    1.8146   -5.2825    2.4654 C   0  0  0  0  0  0  0  0  0  0  0  0
    1.2294   -6.1296    3.4006 C   0  0  0  0  0  0  0  0  0  0  0  0
    1.1636   -5.7371    4.7312 C   0  0  0  0  0  0  0  0  0  0  0  0
    1.6759   -4.4929    5.1275 C   0  0  0  0  0  0  0  0  0  0  0  0
    1.6066   -4.0869    6.4669 C   0  0  0  0  0  0  0  0  0  0  0  0
    2.1113   -2.8508    6.8435 C   0  0  0  0  0  0  0  0  0  0  0  0
    2.6732   -2.0619    5.8622 C   0  0  0  0  0  0  0  0  0  0  0  0
    2.7617   -2.4249    4.5628 N   0  0  0  0  0  0  0  0  0  0  0  0
    2.2746   -3.6222    4.1850 C   0  0  0  0  0  0  0  0  0  0  0  0
    2.8741    0.8649   -1.0331 C   0  0  0  0  0  0  0  0  0  0  0  0
    4.2001    0.8160   -1.2738 N   0  0  0  0  0  0  0  0  0  0  0  0
    4.3865    1.7779   -2.2084 N   0  0  0  0  0  0  0  0  0  0  0  0
    3.2495    2.4602   -2.5673 C   0  0  0  0  0  0  0  0  0  0  0  0
    3.2023    3.5533   -3.5496 C   0  0  0  0  0  0  0  0  0  0  0  0
    1.9641    4.1486   -3.8535 C   0  0  0  0  0  0  0  0  0  0  0  0
    1.8667    5.2074   -4.7597 C   0  0  0  0  0  0  0  0  0  0  0  0
    3.0093    5.6910   -5.3860 C   0  0  0  0  0  0  0  0  0  0  0  0
    4.2491    5.1108   -5.1134 C   0  0  0  0  0  0  0  0  0  0  0  0
    4.3421    4.0519   -4.2039 C   0  0  0  0  0  0  0  0  0  0  0  0
    5.5740    3.4997   -3.9512 O   0  0  0  0  0  0  0  0  0  0  0  0
    2.2592    1.8788   -1.8059 C   0  0  0  0  0  0  0  0  0  0  0  0
    3.9324   -0.8628    0.4768 H   0  0  0  0  0  0  0  0  0  0  0  0
    1.2759   -1.9701    1.3280 H   0  0  0  0  0  0  0  0  0  0  0  0
    2.3282   -1.1820    2.5050 H   0  0  0  0  0  0  0  0  0  0  0  0
    1.8694   -5.6046    1.4259 H   0  0  0  0  0  0  0  0  0  0  0  0
    0.8334   -7.0949    3.0943 H   0  0  0  0  0  0  0  0  0  0  0  0
    0.7113   -6.4075    5.4590 H   0  0  0  0  0  0  0  0  0  0  0  0
    1.1594   -4.7301    7.2209 H   0  0  0  0  0  0  0  0  0  0  0  0
    2.0673   -2.5141    7.8727 H   0  0  0  0  0  0  0  0  0  0  0  0
    3.0821   -1.0828    6.0964 H   0  0  0  0  0  0  0  0  0  0  0  0
    5.3191    1.9396   -2.5783 H   0  0  0  0  0  0  0  0  0  0  0  0
    1.0489    3.7970   -3.3833 H   0  0  0  0  0  0  0  0  0  0  0  0
    0.8962    5.6517   -4.9697 H   0  0  0  0  0  0  0  0  0  0  0  0
    2.9330    6.5192   -6.0861 H   0  0  0  0  0  0  0  0  0  0  0  0
    5.1273    5.5027   -5.6169 H   0  0  0  0  0  0  0  0  0  0  0  0
    6.2366    3.9875   -4.4707 H   0  0  0  0  0  0  0  0  0  0  0  0
    1.2083    2.1271   -1.7913 H   0  0  0  0  0  0  0  0  0  0  0  0
  1  2  2  0  0  0  0
  2  3  1  0  0  0  0
  2 18  1  0  0  0  0
  3  4  1  0  0  0  0
  3 30  1  0  0  0  0
  4  5  1  0  0  0  0
  4 31  1  0  0  0  0
  4 32  1  0  0  0  0
  5  6  1  0  0  0  0
  5  7  1  0  0  0  0
  5  8  1  0  0  0  0
  8  9  2  0  0  0  0
  8 17  1  0  0  0  0
  9 10  1  0  0  0  0
  9 33  1  0  0  0  0
 10 11  2  0  0  0  0
 10 34  1  0  0  0  0
 11 12  1  0  0  0  0
 11 35  1  0  0  0  0
 12 13  2  0  0  0  0
 12 17  1  0  0  0  0
 13 14  1  0  0  0  0
 13 36  1  0  0  0  0
 14 15  2  0  0  0  0
 14 37  1  0  0  0  0
 15 16  1  0  0  0  0
 15 38  1  0  0  0  0
 16 17  2  0  0  0  0
 18 19  2  0  0  0  0
 18 29  1  0  0  0  0
 19 20  1  0  0  0  0
 20 21  1  0  0  0  0
 20 39  1  0  0  0  0
 21 22  1  0  0  0  0
 21 29  2  0  0  0  0
 22 23  2  0  0  0  0
 22 27  1  0  0  0  0
 23 24  1  0  0  0  0
 23 40  1  0  0  0  0
 24 25  2  0  0  0  0
 24 41  1  0  0  0  0
 25 26  1  0  0  0  0
 25 42  1  0  0  0  0
 26 27  2  0  0  0  0
 26 43  1  0  0  0  0
 27 28  1  0  0  0  0
 28 44  1  0  0  0  0
 29 45  1  0  0  0  0
M  END
$$$$
