
 OpenBabel01122422483D

 44 47  0  0  0  0  0  0  0  0999 V2000
    5.1963    5.0910   -0.1948 C   0  0  0  0  0  0  0  0  0  0  0  0
    5.6443    3.7426   -0.3045 O   0  0  0  0  0  0  0  0  0  0  0  0
    4.9153    2.9820   -1.1787 C   0  0  0  0  0  0  0  0  0  0  0  0
    3.9339    3.4081   -1.7917 O   0  0  0  0  0  0  0  0  0  0  0  0
    5.4457    1.6092   -1.3241 C   0  0  0  0  0  0  0  0  0  0  0  0
    6.5114    1.1480   -0.6400 N   0  0  0  0  0  0  0  0  0  0  0  0
    6.6600   -0.1090   -1.1126 N   0  0  0  0  0  0  0  0  0  0  0  0
    7.7175   -0.9443   -0.6726 C   0  0  0  0  0  0  0  0  0  0  0  0
    8.6110   -0.4552    0.3021 C   0  0  0  0  0  0  0  0  0  0  0  0
    9.6862   -1.2324    0.7372 C   0  0  0  0  0  0  0  0  0  0  0  0
    9.9023   -2.5053    0.2038 C   0  0  0  0  0  0  0  0  0  0  0  0
   10.9932   -3.3226    0.5440 N   0  0  0  0  0  0  0  0  0  0  0  0
   12.0102   -3.0649    1.4601 C   0  0  0  0  0  0  0  0  0  0  0  0
   12.0585   -2.1176    2.2375 O   0  0  0  0  0  0  0  0  0  0  0  0
   13.0817   -4.0732    1.5528 C   0  0  0  0  0  0  0  0  0  0  0  0
   13.4243   -4.8450    0.4553 C   0  0  0  0  0  0  0  0  0  0  0  0
   12.8284   -4.6313   -0.7321 F   0  0  0  0  0  0  0  0  0  0  0  0
   14.2377   -5.9727    0.5951 C   0  0  0  0  0  0  0  0  0  0  0  0
   14.4981   -6.7883   -0.5056 C   0  0  0  0  0  0  0  0  0  0  0  0
   14.7883   -8.1277   -0.2982 C   0  0  0  0  0  0  0  0  0  0  0  0
   15.0893   -8.5742    0.9846 C   0  0  0  0  0  0  0  0  0  0  0  0
   15.1577   -7.6635    2.0448 C   0  0  0  0  0  0  0  0  0  0  0  0
   14.6731   -6.3557    1.8774 C   0  0  0  0  0  0  0  0  0  0  0  0
   14.5222   -5.4456    2.9398 C   0  0  0  0  0  0  0  0  0  0  0  0
   13.7184   -4.3031    2.7773 C   0  0  0  0  0  0  0  0  0  0  0  0
    9.0058   -2.9924   -0.7575 C   0  0  0  0  0  0  0  0  0  0  0  0
    7.9181   -2.2194   -1.1903 C   0  0  0  0  0  0  0  0  0  0  0  0
    5.6776   -0.3757   -2.0326 C   0  0  0  0  0  0  0  0  0  0  0  0
    4.8979    0.6773   -2.1799 N   0  0  0  0  0  0  0  0  0  0  0  0
    5.9015    5.6342    0.4405 H   0  0  0  0  0  0  0  0  0  0  0  0
    4.2078    5.1260    0.2731 H   0  0  0  0  0  0  0  0  0  0  0  0
    5.1794    5.5734   -1.1772 H   0  0  0  0  0  0  0  0  0  0  0  0
    8.4892    0.5333    0.7267 H   0  0  0  0  0  0  0  0  0  0  0  0
   10.3480   -0.8104    1.4829 H   0  0  0  0  0  0  0  0  0  0  0  0
   11.0687   -4.1916    0.0254 H   0  0  0  0  0  0  0  0  0  0  0  0
   14.4042   -6.3975   -1.5157 H   0  0  0  0  0  0  0  0  0  0  0  0
   14.7525   -8.8180   -1.1362 H   0  0  0  0  0  0  0  0  0  0  0  0
   15.2855   -9.6300    1.1526 H   0  0  0  0  0  0  0  0  0  0  0  0
   15.4908   -8.0139    3.0188 H   0  0  0  0  0  0  0  0  0  0  0  0
   14.9558   -5.6564    3.9159 H   0  0  0  0  0  0  0  0  0  0  0  0
   13.5392   -3.6510    3.6301 H   0  0  0  0  0  0  0  0  0  0  0  0
    9.1567   -3.9797   -1.1826 H   0  0  0  0  0  0  0  0  0  0  0  0
    7.2639   -2.6525   -1.9494 H   0  0  0  0  0  0  0  0  0  0  0  0
    5.5618   -1.3238   -2.5473 H   0  0  0  0  0  0  0  0  0  0  0  0
  1  2  1  0  0  0  0
  1 30  1  0  0  0  0
  1 31  1  0  0  0  0
  1 32  1  0  0  0  0
  2  3  1  0  0  0  0
  3  4  2  0  0  0  0
  3  5  1  0  0  0  0
  5  6  2  0  0  0  0
  5 29  1  0  0  0  0
  6  7  1  0  0  0  0
  7  8  1  0  0  0  0
  7 28  1  0  0  0  0
  8  9  2  0  0  0  0
  8 27  1  0  0  0  0
  9 10  1  0  0  0  0
  9 33  1  0  0  0  0
 10 11  2  0  0  0  0
 10 34  1  0  0  0  0
 11 12  1  0  0  0  0
 11 26  1  0  0  0  0
 12 13  1  0  0  0  0
 12 35  1  0  0  0  0
 13 14  2  0  0  0  0
 13 15  1  0  0  0  0
 15 16  2  0  0  0  0
 15 25  1  0  0  0  0
 16 17  1  0  0  0  0
 16 18  1  0  0  0  0
 18 19  2  0  0  0  0
 18 23  1  0  0  0  0
 19 20  1  0  0  0  0
 19 36  1  0  0  0  0
 20 21  2  0  0  0  0
 20 37  1  0  0  0  0
 21 22  1  0  0  0  0
 21 38  1  0  0  0  0
 22 23  2  0  0  0  0
 22 39  1  0  0  0  0
 23 24  1  0  0  0  0
 24 25  2  0  0  0  0
 24 40  1  0  0  0  0
 25 41  1  0  0  0  0
 26 27  2  0  0  0  0
 26 42  1  0  0  0  0
 27 43  1  0  0  0  0
 28 29  2  0  0  0  0
 28 44  1  0  0  0  0
M  END
$$$$
