
 OpenBabel01122422483D

 44 47  0  0  0  0  0  0  0  0999 V2000
    0.9422    1.3656    0.8916 C   0  0  0  0  0  0  0  0  0  0  0  0
    2.1934    1.5500    0.2449 O   0  0  0  0  0  0  0  0  0  0  0  0
    3.2694    1.9470    0.9997 C   0  0  0  0  0  0  0  0  0  0  0  0
    3.1923    2.2293    2.3707 C   0  0  0  0  0  0  0  0  0  0  0  0
    4.3388    2.5735    3.0869 C   0  0  0  0  0  0  0  0  0  0  0  0
    5.5739    2.6108    2.4467 C   0  0  0  0  0  0  0  0  0  0  0  0
    5.6586    2.3552    1.0742 C   0  0  0  0  0  0  0  0  0  0  0  0
    4.5087    2.0559    0.3225 C   0  0  0  0  0  0  0  0  0  0  0  0
    4.5876    1.9498   -1.1378 C   0  0  0  0  0  0  0  0  0  0  0  0
    3.6984    2.1753   -2.1706 C   0  0  0  0  0  0  0  0  0  0  0  0
    4.2983    1.9637   -3.3768 N   0  0  0  0  0  0  0  0  0  0  0  0
    5.5296    1.6117   -3.0647 C   0  0  0  0  0  0  0  0  0  0  0  0
    6.6603    1.2310   -3.9650 C   0  0  0  0  0  0  0  0  0  0  0  0
    6.2186    1.2623   -5.3400 O   0  0  0  0  0  0  0  0  0  0  0  0
    6.4847    2.4079   -6.0081 C   0  0  0  0  0  0  0  0  0  0  0  0
    7.1411    3.3404   -5.5560 O   0  0  0  0  0  0  0  0  0  0  0  0
    5.7225    2.4865   -7.2878 C   0  0  0  0  0  0  0  0  0  0  0  0
    5.5186    3.7653   -7.6685 C   0  0  0  0  0  0  0  0  0  0  0  0
    4.1696    4.2324   -7.2885 C   0  0  0  0  0  0  0  0  0  0  0  0
    4.0192    5.4979   -6.7176 C   0  0  0  0  0  0  0  0  0  0  0  0
    2.8332    5.8084   -6.0598 C   0  0  0  0  0  0  0  0  0  0  0  0
    1.7870    4.8877   -6.0437 C   0  0  0  0  0  0  0  0  0  0  0  0
    0.6836    5.1731   -5.3394 F   0  0  0  0  0  0  0  0  0  0  0  0
    1.8953    3.6477   -6.6641 C   0  0  0  0  0  0  0  0  0  0  0  0
    3.1101    3.3103   -7.2457 C   0  0  0  0  0  0  0  0  0  0  0  0
    3.3700    1.9844   -7.6126 N   0  0  0  0  0  0  0  0  0  0  0  0
    4.6584    1.4971   -7.6228 C   0  0  0  0  0  0  0  0  0  0  0  0
    4.9141    0.3250   -7.8769 O   0  0  0  0  0  0  0  0  0  0  0  0
    5.7818    1.5935   -1.7122 O   0  0  0  0  0  0  0  0  0  0  0  0
    0.2591    0.9139    0.1653 H   0  0  0  0  0  0  0  0  0  0  0  0
    0.5231    2.3305    1.1923 H   0  0  0  0  0  0  0  0  0  0  0  0
    1.0158    0.6792    1.7413 H   0  0  0  0  0  0  0  0  0  0  0  0
    2.2507    2.2014    2.9097 H   0  0  0  0  0  0  0  0  0  0  0  0
    4.2656    2.8126    4.1462 H   0  0  0  0  0  0  0  0  0  0  0  0
    6.4701    2.8619    3.0099 H   0  0  0  0  0  0  0  0  0  0  0  0
    6.6299    2.4240    0.5890 H   0  0  0  0  0  0  0  0  0  0  0  0
    2.6689    2.4930   -2.0902 H   0  0  0  0  0  0  0  0  0  0  0  0
    6.9634    0.2018   -3.7548 H   0  0  0  0  0  0  0  0  0  0  0  0
    7.5303    1.8743   -3.7943 H   0  0  0  0  0  0  0  0  0  0  0  0
    6.2900    4.5191   -7.5166 H   0  0  0  0  0  0  0  0  0  0  0  0
    4.8542    6.1943   -6.6804 H   0  0  0  0  0  0  0  0  0  0  0  0
    2.7476    6.7350   -5.5029 H   0  0  0  0  0  0  0  0  0  0  0  0
    1.0793    2.9402   -6.5905 H   0  0  0  0  0  0  0  0  0  0  0  0
    2.6306    1.2978   -7.6756 H   0  0  0  0  0  0  0  0  0  0  0  0
  1  2  1  0  0  0  0
  1 30  1  0  0  0  0
  1 31  1  0  0  0  0
  1 32  1  0  0  0  0
  2  3  1  0  0  0  0
  3  4  2  0  0  0  0
  3  8  1  0  0  0  0
  4  5  1  0  0  0  0
  4 33  1  0  0  0  0
  5  6  2  0  0  0  0
  5 34  1  0  0  0  0
  6  7  1  0  0  0  0
  6 35  1  0  0  0  0
  7  8  2  0  0  0  0
  7 36  1  0  0  0  0
  8  9  1  0  0  0  0
  9 10  2  0  0  0  0
  9 29  1  0  0  0  0
 10 11  1  0  0  0  0
 10 37  1  0  0  0  0
 11 12  2  0  0  0  0
 12 13  1  0  0  0  0
 12 29  1  0  0  0  0
 13 14  1  0  0  0  0
 13 38  1  0  0  0  0
 13 39  1  0  0  0  0
 14 15  1  0  0  0  0
 15 16  2  0  0  0  0
 15 17  1  0  0  0  0
 17 18  2  0  0  0  0
 17 27  1  0  0  0  0
 18 19  1  0  0  0  0
 18 40  1  0  0  0  0
 19 20  2  0  0  0  0
 19 25  1  0  0  0  0
 20 21  1  0  0  0  0
 20 41  1  0  0  0  0
 21 22  2  0  0  0  0
 21 42  1  0  0  0  0
 22 23  1  0  0  0  0
 22 24  1  0  0  0  0
 24 25  2  0  0  0  0
 24 43  1  0  0  0  0
 25 26  1  0  0  0  0
 26 27  1  0  0  0  0
 26 44  1  0  0  0  0
 27 28  2  0  0  0  0
M  END
$$$$
