
 OpenBabel01122422493D

 38 40  0  0  0  0  0  0  0  0999 V2000
    1.4445   -0.6737   -0.6195 N   0  0  0  0  0  0  0  0  0  0  0  0
    2.7732   -0.4034   -0.4182 C   0  0  0  0  0  0  0  0  0  0  0  0
    3.5575   -0.2585   -1.3448 O   0  0  0  0  0  0  0  0  0  0  0  0
    3.2326   -0.3636    0.9884 C   0  0  0  0  0  0  0  0  0  0  0  0
    2.7275   -1.3672    1.8241 C   0  0  0  0  0  0  0  0  0  0  0  0
    3.0353   -1.4454    3.1823 C   0  0  0  0  0  0  0  0  0  0  0  0
    2.3612   -2.3782    4.0159 N   0  0  0  0  0  0  0  0  0  0  0  0
    1.1008   -2.8834    3.6908 C   0  0  0  0  0  0  0  0  0  0  0  0
    0.4052   -2.4607    2.7646 O   0  0  0  0  0  0  0  0  0  0  0  0
    0.5248   -3.9869    4.5162 C   0  0  0  0  0  0  0  0  0  0  0  0
   -0.6439   -4.5733    4.0363 C   0  0  0  0  0  0  0  0  0  0  0  0
   -1.2367   -5.5894    4.7633 C   0  0  0  0  0  0  0  0  0  0  0  0
   -0.6746   -5.9617    5.9784 C   0  0  0  0  0  0  0  0  0  0  0  0
   -1.3196   -6.9219    6.7710 C   0  0  0  0  0  0  0  0  0  0  0  0
   -0.8003   -7.2324    8.0138 C   0  0  0  0  0  0  0  0  0  0  0  0
   -1.4541   -8.0924    8.8063 F   0  0  0  0  0  0  0  0  0  0  0  0
    0.3710   -6.6263    8.4428 C   0  0  0  0  0  0  0  0  0  0  0  0
    0.8668   -6.9139    9.6549 F   0  0  0  0  0  0  0  0  0  0  0  0
    1.0359   -5.6972    7.6379 C   0  0  0  0  0  0  0  0  0  0  0  0
    0.5237   -5.3208    6.4033 C   0  0  0  0  0  0  0  0  0  0  0  0
    1.1368   -4.3573    5.6721 N   0  0  0  0  0  0  0  0  0  0  0  0
    4.0168   -0.5893    3.6722 C   0  0  0  0  0  0  0  0  0  0  0  0
    4.5627    0.4056    2.8331 C   0  0  0  0  0  0  0  0  0  0  0  0
    4.1454    0.5675    1.4883 C   0  0  0  0  0  0  0  0  0  0  0  0
    4.6809    1.7318    0.6845 C   0  0  0  0  0  0  0  0  0  0  0  0
    4.0341    2.0352   -0.4628 F   0  0  0  0  0  0  0  0  0  0  0  0
    4.6304    2.8876    1.4201 F   0  0  0  0  0  0  0  0  0  0  0  0
    6.0003    1.5781    0.3708 F   0  0  0  0  0  0  0  0  0  0  0  0
    1.1245   -0.8068   -1.5670 H   0  0  0  0  0  0  0  0  0  0  0  0
    0.7918   -0.8701    0.1339 H   0  0  0  0  0  0  0  0  0  0  0  0
    2.0906   -2.1250    1.3757 H   0  0  0  0  0  0  0  0  0  0  0  0
    2.7220   -2.5884    4.9415 H   0  0  0  0  0  0  0  0  0  0  0  0
   -1.1042   -4.2343    3.1109 H   0  0  0  0  0  0  0  0  0  0  0  0
   -2.1473   -6.0505    4.3885 H   0  0  0  0  0  0  0  0  0  0  0  0
   -2.2383   -7.4036    6.4498 H   0  0  0  0  0  0  0  0  0  0  0  0
    1.9505   -5.2442    8.0075 H   0  0  0  0  0  0  0  0  0  0  0  0
    4.3429   -0.6412    4.7074 H   0  0  0  0  0  0  0  0  0  0  0  0
    5.3067    1.0912    3.2439 H   0  0  0  0  0  0  0  0  0  0  0  0
  1  2  1  0  0  0  0
  1 29  1  0  0  0  0
  1 30  1  0  0  0  0
  2  3  2  0  0  0  0
  2  4  1  0  0  0  0
  4  5  2  0  0  0  0
  4 24  1  0  0  0  0
  5  6  1  0  0  0  0
  5 31  1  0  0  0  0
  6  7  1  0  0  0  0
  6 22  2  0  0  0  0
  7  8  1  0  0  0  0
  7 32  1  0  0  0  0
  8  9  2  0  0  0  0
  8 10  1  0  0  0  0
 10 11  2  0  0  0  0
 10 21  1  0  0  0  0
 11 12  1  0  0  0  0
 11 33  1  0  0  0  0
 12 13  2  0  0  0  0
 12 34  1  0  0  0  0
 13 14  1  0  0  0  0
 13 20  1  0  0  0  0
 14 15  2  0  0  0  0
 14 35  1  0  0  0  0
 15 16  1  0  0  0  0
 15 17  1  0  0  0  0
 17 18  1  0  0  0  0
 17 19  2  0  0  0  0
 19 20  1  0  0  0  0
 19 36  1  0  0  0  0
 20 21  2  0  0  0  0
 22 23  1  0  0  0  0
 22 37  1  0  0  0  0
 23 24  2  0  0  0  0
 23 38  1  0  0  0  0
 24 25  1  0  0  0  0
 25 26  1  0  0  0  0
 25 27  1  0  0  0  0
 25 28  1  0  0  0  0
M  END
$$$$
