
 OpenBabel01122422493D

 43 46  0  0  0  0  0  0  0  0999 V2000
    2.5634    0.5052    1.1908 O   0  0  0  0  0  0  0  0  0  0  0  0
    2.1688   -0.0757    0.1893 C   0  0  0  0  0  0  0  0  0  0  0  0
    0.8388   -0.3281   -0.0941 N   0  0  0  0  0  0  0  0  0  0  0  0
   -0.2596    0.0193    0.7188 C   0  0  0  0  0  0  0  0  0  0  0  0
   -0.1922    0.9090    1.7949 C   0  0  0  0  0  0  0  0  0  0  0  0
   -1.3187    1.1572    2.5902 C   0  0  0  0  0  0  0  0  0  0  0  0
   -2.5394    0.5233    2.3241 C   0  0  0  0  0  0  0  0  0  0  0  0
   -3.6878    0.7793    3.1770 C   0  0  0  0  0  0  0  0  0  0  0  0
   -3.8133    1.5925    4.2089 N   0  0  0  0  0  0  0  0  0  0  0  0
   -5.1086    1.4529    4.6671 N   0  0  0  0  0  0  0  0  0  0  0  0
   -5.6730    0.5646    3.8836 C   0  0  0  0  0  0  0  0  0  0  0  0
   -4.8444    0.0896    2.9183 O   0  0  0  0  0  0  0  0  0  0  0  0
   -2.5952   -0.3428    1.2292 C   0  0  0  0  0  0  0  0  0  0  0  0
   -3.7278   -0.9862    0.9116 F   0  0  0  0  0  0  0  0  0  0  0  0
   -1.4789   -0.5898    0.4305 C   0  0  0  0  0  0  0  0  0  0  0  0
    3.0000   -0.5997   -0.7933 N   0  0  0  0  0  0  0  0  0  0  0  0
    4.3807   -0.6067   -0.7877 C   0  0  0  0  0  0  0  0  0  0  0  0
    5.1402   -0.1821    0.2291 C   0  0  0  0  0  0  0  0  0  0  0  0
    6.6191   -0.0992    0.1318 C   0  0  0  0  0  0  0  0  0  0  0  0
    7.1892    0.3914    1.1049 O   0  0  0  0  0  0  0  0  0  0  0  0
    7.1984   -0.5321   -1.0829 N   0  0  0  0  0  0  0  0  0  0  0  0
    8.6256   -0.3659   -1.2988 C   0  0  0  0  0  0  0  0  0  0  0  0
    9.5339   -0.2234   -0.2367 C   0  0  0  0  0  0  0  0  0  0  0  0
   10.8964    0.0054   -0.4572 C   0  0  0  0  0  0  0  0  0  0  0  0
   11.3922    0.0748   -1.7511 C   0  0  0  0  0  0  0  0  0  0  0  0
   10.5240   -0.0864   -2.8241 C   0  0  0  0  0  0  0  0  0  0  0  0
    9.1584   -0.3025   -2.6001 C   0  0  0  0  0  0  0  0  0  0  0  0
    6.3739   -1.0682   -2.0753 C   0  0  0  0  0  0  0  0  0  0  0  0
    5.0405   -1.1220   -1.9632 C   0  0  0  0  0  0  0  0  0  0  0  0
    0.6534   -0.9728   -0.8465 H   0  0  0  0  0  0  0  0  0  0  0  0
    0.7244    1.4354    2.0493 H   0  0  0  0  0  0  0  0  0  0  0  0
   -1.2258    1.8479    3.4288 H   0  0  0  0  0  0  0  0  0  0  0  0
   -6.6790    0.1765    3.9083 H   0  0  0  0  0  0  0  0  0  0  0  0
   -1.5880   -1.2824   -0.3972 H   0  0  0  0  0  0  0  0  0  0  0  0
    2.5504   -0.8968   -1.6461 H   0  0  0  0  0  0  0  0  0  0  0  0
    4.7532    0.1914    1.1670 H   0  0  0  0  0  0  0  0  0  0  0  0
    9.2212   -0.2982    0.8004 H   0  0  0  0  0  0  0  0  0  0  0  0
   11.5611    0.1330    0.3940 H   0  0  0  0  0  0  0  0  0  0  0  0
   12.4479    0.2620   -1.9214 H   0  0  0  0  0  0  0  0  0  0  0  0
   10.9013   -0.0226   -3.8410 H   0  0  0  0  0  0  0  0  0  0  0  0
    8.5241   -0.3629   -3.4791 H   0  0  0  0  0  0  0  0  0  0  0  0
    6.8457   -1.4877   -2.9565 H   0  0  0  0  0  0  0  0  0  0  0  0
    4.4537   -1.5766   -2.7548 H   0  0  0  0  0  0  0  0  0  0  0  0
  1  2  2  0  0  0  0
  2  3  1  0  0  0  0
  2 16  1  0  0  0  0
  3  4  1  0  0  0  0
  3 30  1  0  0  0  0
  4  5  2  0  0  0  0
  4 15  1  0  0  0  0
  5  6  1  0  0  0  0
  5 31  1  0  0  0  0
  6  7  2  0  0  0  0
  6 32  1  0  0  0  0
  7  8  1  0  0  0  0
  7 13  1  0  0  0  0
  8  9  2  0  0  0  0
  8 12  1  0  0  0  0
  9 10  1  0  0  0  0
 10 11  2  0  0  0  0
 11 12  1  0  0  0  0
 11 33  1  0  0  0  0
 13 14  1  0  0  0  0
 13 15  2  0  0  0  0
 15 34  1  0  0  0  0
 16 17  1  0  0  0  0
 16 35  1  0  0  0  0
 17 18  2  0  0  0  0
 17 29  1  0  0  0  0
 18 19  1  0  0  0  0
 18 36  1  0  0  0  0
 19 20  2  0  0  0  0
 19 21  1  0  0  0  0
 21 22  1  0  0  0  0
 21 28  1  0  0  0  0
 22 23  2  0  0  0  0
 22 27  1  0  0  0  0
 23 24  1  0  0  0  0
 23 37  1  0  0  0  0
 24 25  2  0  0  0  0
 24 38  1  0  0  0  0
 25 26  1  0  0  0  0
 25 39  1  0  0  0  0
 26 27  2  0  0  0  0
 26 40  1  0  0  0  0
 27 41  1  0  0  0  0
 28 29  2  0  0  0  0
 28 42  1  0  0  0  0
 29 43  1  0  0  0  0
M  END
$$$$
