
 OpenBabel01122422493D

 52 55  0  0  0  0  0  0  0  0999 V2000
    2.0645    0.8337   -0.6035 O   0  0  0  0  0  0  0  0  0  0  0  0
    2.2728   -0.3203   -0.2461 C   0  0  0  0  0  0  0  0  0  0  0  0
    1.7523   -1.4291   -0.8898 N   0  0  0  0  0  0  0  0  0  0  0  0
    1.0697   -1.3466   -2.1591 C   0  0  0  0  0  0  0  0  0  0  0  0
   -0.3117   -1.9517   -2.1158 C   0  0  0  0  0  0  0  0  0  0  0  0
   -1.4178   -1.1546   -1.7837 C   0  0  0  0  0  0  0  0  0  0  0  0
   -2.7095   -1.6851   -1.8071 C   0  0  0  0  0  0  0  0  0  0  0  0
   -2.8957   -3.0199   -2.1488 C   0  0  0  0  0  0  0  0  0  0  0  0
   -4.1361   -3.5248   -2.1899 F   0  0  0  0  0  0  0  0  0  0  0  0
   -1.8121   -3.8371   -2.4549 C   0  0  0  0  0  0  0  0  0  0  0  0
   -0.5215   -3.3045   -2.4340 C   0  0  0  0  0  0  0  0  0  0  0  0
    3.0534   -0.6226    0.9857 C   0  0  0  0  0  0  0  0  0  0  0  0
    2.6545   -1.7695    1.6421 N   0  0  0  0  0  0  0  0  0  0  0  0
    3.2216   -1.9887    2.8515 C   0  0  0  0  0  0  0  0  0  0  0  0
    4.1796   -1.1499    3.3819 C   0  0  0  0  0  0  0  0  0  0  0  0
    4.6148   -0.0566    2.7235 N   0  0  0  0  0  0  0  0  0  0  0  0
    4.0209    0.2206    1.5168 C   0  0  0  0  0  0  0  0  0  0  0  0
    4.5277    1.4643    0.8435 C   0  0  0  0  0  0  0  0  0  0  0  0
    4.8409    1.4100   -0.3434 O   0  0  0  0  0  0  0  0  0  0  0  0
    4.6973    2.6215    1.6338 N   0  0  0  0  0  0  0  0  0  0  0  0
    5.1656    3.8603    1.0117 C   0  0  0  0  0  0  0  0  0  0  0  0
    5.8357    4.8300    2.0000 C   0  0  0  0  0  0  0  0  0  0  0  0
    4.9902    5.0516    3.2270 C   0  0  0  0  0  0  0  0  0  0  0  0
    5.1177    6.1953    4.0225 C   0  0  0  0  0  0  0  0  0  0  0  0
    4.3262    6.3531    5.1682 C   0  0  0  0  0  0  0  0  0  0  0  0
    3.3857    5.3871    5.5220 C   0  0  0  0  0  0  0  0  0  0  0  0
    2.6409    5.6377    6.6380 O   0  0  0  0  0  0  0  0  0  0  0  0
    1.3565    5.0316    6.6461 C   0  0  0  0  0  0  0  0  0  0  0  0
    1.4752    3.7455    7.0685 F   0  0  0  0  0  0  0  0  0  0  0  0
    0.6067    5.6754    7.5729 F   0  0  0  0  0  0  0  0  0  0  0  0
    3.3026    4.2184    4.7663 C   0  0  0  0  0  0  0  0  0  0  0  0
    4.1050    4.0467    3.6287 C   0  0  0  0  0  0  0  0  0  0  0  0
    4.0968    2.7047    2.9585 C   0  0  0  0  0  0  0  0  0  0  0  0
    1.9129   -2.3374   -0.4676 H   0  0  0  0  0  0  0  0  0  0  0  0
    1.6851   -1.8813   -2.8921 H   0  0  0  0  0  0  0  0  0  0  0  0
    1.0119   -0.3070   -2.5021 H   0  0  0  0  0  0  0  0  0  0  0  0
   -1.2760   -0.1065   -1.5214 H   0  0  0  0  0  0  0  0  0  0  0  0
   -3.5683   -1.0673   -1.5738 H   0  0  0  0  0  0  0  0  0  0  0  0
   -1.9843   -4.8759   -2.7172 H   0  0  0  0  0  0  0  0  0  0  0  0
    0.3193   -3.9464   -2.6900 H   0  0  0  0  0  0  0  0  0  0  0  0
    2.8710   -2.8577    3.3978 H   0  0  0  0  0  0  0  0  0  0  0  0
    4.6195   -1.3207    4.3589 H   0  0  0  0  0  0  0  0  0  0  0  0
    4.2885    4.3350    0.5548 H   0  0  0  0  0  0  0  0  0  0  0  0
    5.8636    3.6242    0.2001 H   0  0  0  0  0  0  0  0  0  0  0  0
    6.0126    5.7853    1.4911 H   0  0  0  0  0  0  0  0  0  0  0  0
    6.8081    4.4317    2.3160 H   0  0  0  0  0  0  0  0  0  0  0  0
    5.8422    6.9668    3.7695 H   0  0  0  0  0  0  0  0  0  0  0  0
    4.4432    7.2394    5.7863 H   0  0  0  0  0  0  0  0  0  0  0  0
    0.8380    5.0742    5.6795 H   0  0  0  0  0  0  0  0  0  0  0  0
    2.6545    3.3998    5.0685 H   0  0  0  0  0  0  0  0  0  0  0  0
    3.0663    2.3375    2.8864 H   0  0  0  0  0  0  0  0  0  0  0  0
    4.6721    2.0527    3.6224 H   0  0  0  0  0  0  0  0  0  0  0  0
  1  2  2  0  0  0  0
  2  3  1  0  0  0  0
  2 12  1  0  0  0  0
  3  4  1  0  0  0  0
  3 34  1  0  0  0  0
  4  5  1  0  0  0  0
  4 35  1  0  0  0  0
  4 36  1  0  0  0  0
  5  6  2  0  0  0  0
  5 11  1  0  0  0  0
  6  7  1  0  0  0  0
  6 37  1  0  0  0  0
  7  8  2  0  0  0  0
  7 38  1  0  0  0  0
  8  9  1  0  0  0  0
  8 10  1  0  0  0  0
 10 11  2  0  0  0  0
 10 39  1  0  0  0  0
 11 40  1  0  0  0  0
 12 13  2  0  0  0  0
 12 17  1  0  0  0  0
 13 14  1  0  0  0  0
 14 15  2  0  0  0  0
 14 41  1  0  0  0  0
 15 16  1  0  0  0  0
 15 42  1  0  0  0  0
 16 17  2  0  0  0  0
 17 18  1  0  0  0  0
 18 19  2  0  0  0  0
 18 20  1  0  0  0  0
 20 21  1  0  0  0  0
 20 33  1  0  0  0  0
 21 22  1  0  0  0  0
 21 43  1  0  0  0  0
 21 44  1  0  0  0  0
 22 23  1  0  0  0  0
 22 45  1  0  0  0  0
 22 46  1  0  0  0  0
 23 24  2  0  0  0  0
 23 32  1  0  0  0  0
 24 25  1  0  0  0  0
 24 47  1  0  0  0  0
 25 26  2  0  0  0  0
 25 48  1  0  0  0  0
 26 27  1  0  0  0  0
 26 31  1  0  0  0  0
 27 28  1  0  0  0  0
 28 29  1  0  0  0  0
 28 30  1  0  0  0  0
 28 49  1  0  0  0  0
 31 32  2  0  0  0  0
 31 50  1  0  0  0  0
 32 33  1  0  0  0  0
 33 51  1  0  0  0  0
 33 52  1  0  0  0  0
M  END
$$$$
