
 OpenBabel01122422493D

 47 50  0  0  0  0  0  0  0  0999 V2000
    1.0064   -0.1424   -0.0166 O   0  0  0  0  0  0  0  0  0  0  0  0
    2.1981    0.1544   -0.0089 C   0  0  0  0  0  0  0  0  0  0  0  0
    2.8438    0.9498    0.9364 N   0  0  0  0  0  0  0  0  0  0  0  0
    2.2359    1.4378    2.1294 C   0  0  0  0  0  0  0  0  0  0  0  0
    1.0315    0.9123    2.6031 C   0  0  0  0  0  0  0  0  0  0  0  0
    0.4346    1.4144    3.7532 C   0  0  0  0  0  0  0  0  0  0  0  0
    1.0412    2.4398    4.4644 C   0  0  0  0  0  0  0  0  0  0  0  0
    2.2611    2.9813    4.0407 C   0  0  0  0  0  0  0  0  0  0  0  0
    2.9093    4.0107    4.7711 N   0  0  0  0  0  0  0  0  0  0  0  0
    2.4329    4.6199    5.9313 C   0  0  0  0  0  0  0  0  0  0  0  0
    1.3053    4.5142    6.4001 O   0  0  0  0  0  0  0  0  0  0  0  0
    3.3499    5.5550    6.6195 C   0  0  0  0  0  0  0  0  0  0  0  0
    2.7646    6.6747    7.1893 C   0  0  0  0  0  0  0  0  0  0  0  0
    3.4922    7.6868    7.6870 N   0  0  0  0  0  0  0  0  0  0  0  0
    4.8503    7.6324    7.5855 N   0  0  0  0  0  0  0  0  0  0  0  0
    5.4666    6.5422    7.1001 C   0  0  0  0  0  0  0  0  0  0  0  0
    6.8542    6.5346    7.0042 C   0  0  0  0  0  0  0  0  0  0  0  0
    7.5540    5.4068    6.5726 C   0  0  0  0  0  0  0  0  0  0  0  0
    6.8629    4.2398    6.2847 C   0  0  0  0  0  0  0  0  0  0  0  0
    5.4717    4.2378    6.3413 C   0  0  0  0  0  0  0  0  0  0  0  0
    4.7500    5.4123    6.6730 C   0  0  0  0  0  0  0  0  0  0  0  0
    2.8605    2.4624    2.8714 C   0  0  0  0  0  0  0  0  0  0  0  0
    2.9896   -0.3486   -1.1522 C   0  0  0  0  0  0  0  0  0  0  0  0
    2.3467   -0.5552   -2.3811 C   0  0  0  0  0  0  0  0  0  0  0  0
    3.0416   -1.1161   -3.4558 C   0  0  0  0  0  0  0  0  0  0  0  0
    2.3714   -1.3933   -4.7668 C   0  0  0  0  0  0  0  0  0  0  0  0
    3.0348   -0.6961   -5.8105 O   0  0  0  0  0  0  0  0  0  0  0  0
    4.3749   -1.4482   -3.2424 C   0  0  0  0  0  0  0  0  0  0  0  0
    5.0259   -1.2683   -2.0653 N   0  0  0  0  0  0  0  0  0  0  0  0
    4.3126   -0.7390   -1.0405 C   0  0  0  0  0  0  0  0  0  0  0  0
    3.7602    1.3143    0.7081 H   0  0  0  0  0  0  0  0  0  0  0  0
    0.5248    0.0897    2.1101 H   0  0  0  0  0  0  0  0  0  0  0  0
   -0.5088    0.9989    4.0979 H   0  0  0  0  0  0  0  0  0  0  0  0
    0.5238    2.7864    5.3504 H   0  0  0  0  0  0  0  0  0  0  0  0
    3.8005    4.3249    4.4009 H   0  0  0  0  0  0  0  0  0  0  0  0
    1.6887    6.8097    7.2450 H   0  0  0  0  0  0  0  0  0  0  0  0
    7.4026    7.4356    7.2701 H   0  0  0  0  0  0  0  0  0  0  0  0
    8.6374    5.4382    6.4933 H   0  0  0  0  0  0  0  0  0  0  0  0
    7.4014    3.3344    6.0152 H   0  0  0  0  0  0  0  0  0  0  0  0
    4.9531    3.2988    6.1547 H   0  0  0  0  0  0  0  0  0  0  0  0
    3.8036    2.8747    2.5246 H   0  0  0  0  0  0  0  0  0  0  0  0
    1.2925   -0.3005   -2.4839 H   0  0  0  0  0  0  0  0  0  0  0  0
    1.3220   -1.0794   -4.7604 H   0  0  0  0  0  0  0  0  0  0  0  0
    2.3957   -2.4657   -4.9865 H   0  0  0  0  0  0  0  0  0  0  0  0
    2.9776    0.2522   -5.6018 H   0  0  0  0  0  0  0  0  0  0  0  0
    4.9727   -1.8928   -4.0362 H   0  0  0  0  0  0  0  0  0  0  0  0
    4.8540   -0.6806   -0.1016 H   0  0  0  0  0  0  0  0  0  0  0  0
  1  2  2  0  0  0  0
  2  3  1  0  0  0  0
  2 23  1  0  0  0  0
  3  4  1  0  0  0  0
  3 31  1  0  0  0  0
  4  5  2  0  0  0  0
  4 22  1  0  0  0  0
  5  6  1  0  0  0  0
  5 32  1  0  0  0  0
  6  7  2  0  0  0  0
  6 33  1  0  0  0  0
  7  8  1  0  0  0  0
  7 34  1  0  0  0  0
  8  9  1  0  0  0  0
  8 22  2  0  0  0  0
  9 10  1  0  0  0  0
  9 35  1  0  0  0  0
 10 11  2  0  0  0  0
 10 12  1  0  0  0  0
 12 13  2  0  0  0  0
 12 21  1  0  0  0  0
 13 14  1  0  0  0  0
 13 36  1  0  0  0  0
 14 15  2  0  0  0  0
 15 16  1  0  0  0  0
 16 17  2  0  0  0  0
 16 21  1  0  0  0  0
 17 18  1  0  0  0  0
 17 37  1  0  0  0  0
 18 19  2  0  0  0  0
 18 38  1  0  0  0  0
 19 20  1  0  0  0  0
 19 39  1  0  0  0  0
 20 21  2  0  0  0  0
 20 40  1  0  0  0  0
 22 41  1  0  0  0  0
 23 24  2  0  0  0  0
 23 30  1  0  0  0  0
 24 25  1  0  0  0  0
 24 42  1  0  0  0  0
 25 26  1  0  0  0  0
 25 28  2  0  0  0  0
 26 27  1  0  0  0  0
 26 43  1  0  0  0  0
 26 44  1  0  0  0  0
 27 45  1  0  0  0  0
 28 29  1  0  0  0  0
 28 46  1  0  0  0  0
 29 30  2  0  0  0  0
 30 47  1  0  0  0  0
M  END
$$$$
