
 OpenBabel01122422493D

 56 59  0  0  0  0  0  0  0  0999 V2000
    0.7582    1.2640   -2.7664 C   0  0  0  0  0  0  0  0  0  0  0  0
    0.5161    2.4383   -1.8829 C   0  0  0  0  0  0  0  0  0  0  0  0
    1.3451    2.9908   -0.8964 C   0  0  0  0  0  0  0  0  0  0  0  0
    2.7162    2.5673   -0.5381 C   0  0  0  0  0  0  0  0  0  0  0  0
    3.0615    1.3993   -0.7230 O   0  0  0  0  0  0  0  0  0  0  0  0
    3.6396    3.5049   -0.0270 N   0  0  0  0  0  0  0  0  0  0  0  0
    5.0716    3.1345    0.0223 C   0  0  0  0  0  0  0  0  0  0  0  0
    5.6201    2.0636    0.9815 C   0  0  0  0  0  0  0  0  0  0  0  0
    4.8426    0.9824    1.2433 N   0  0  0  0  0  0  0  0  0  0  0  0
    6.7846    2.0881    1.3834 O   0  0  0  0  0  0  0  0  0  0  0  0
    3.4150    4.9514   -0.0794 C   0  0  0  0  0  0  0  0  0  0  0  0
    2.9832    5.5735    1.2280 C   0  0  0  0  0  0  0  0  0  0  0  0
    3.2768    5.0486    2.4924 C   0  0  0  0  0  0  0  0  0  0  0  0
    2.8321    5.6942    3.6649 C   0  0  0  0  0  0  0  0  0  0  0  0
    2.0990    6.8925    3.6136 C   0  0  0  0  0  0  0  0  0  0  0  0
    1.6064    7.6157    4.8186 C   0  0  0  0  0  0  0  0  0  0  0  0
    2.2335    7.5329    6.0746 C   0  0  0  0  0  0  0  0  0  0  0  0
    1.8017    8.3118    7.1601 C   0  0  0  0  0  0  0  0  0  0  0  0
    0.7372    9.1973    7.0152 C   0  0  0  0  0  0  0  0  0  0  0  0
    0.0732    9.2732    5.8002 C   0  0  0  0  0  0  0  0  0  0  0  0
    0.4891    8.4762    4.7315 C   0  0  0  0  0  0  0  0  0  0  0  0
    1.8552    7.4184    2.3315 C   0  0  0  0  0  0  0  0  0  0  0  0
    2.2761    6.7763    1.1677 C   0  0  0  0  0  0  0  0  0  0  0  0
    0.5231    3.9778   -0.3260 C   0  0  0  0  0  0  0  0  0  0  0  0
   -0.5635    4.2421   -1.0402 N   0  0  0  0  0  0  0  0  0  0  0  0
   -0.6181    3.2535   -1.9651 N   0  0  0  0  0  0  0  0  0  0  0  0
   -1.7641    3.2051   -2.8229 C   0  0  0  0  0  0  0  0  0  0  0  0
   -2.4937    4.3899   -3.0496 C   0  0  0  0  0  0  0  0  0  0  0  0
   -3.6226    4.3848   -3.8761 C   0  0  0  0  0  0  0  0  0  0  0  0
   -4.0341    3.1954   -4.4620 C   0  0  0  0  0  0  0  0  0  0  0  0
   -5.1189    3.1845   -5.2492 F   0  0  0  0  0  0  0  0  0  0  0  0
   -3.3425    2.0124   -4.2348 C   0  0  0  0  0  0  0  0  0  0  0  0
   -2.2070    2.0149   -3.4165 C   0  0  0  0  0  0  0  0  0  0  0  0
    1.7996    0.9371   -2.7519 H   0  0  0  0  0  0  0  0  0  0  0  0
    0.5177    1.4882   -3.8099 H   0  0  0  0  0  0  0  0  0  0  0  0
    0.1549    0.4144   -2.4284 H   0  0  0  0  0  0  0  0  0  0  0  0
    5.6244    4.0339    0.3220 H   0  0  0  0  0  0  0  0  0  0  0  0
    5.3836    2.8791   -0.9962 H   0  0  0  0  0  0  0  0  0  0  0  0
    4.0902    0.7619    0.5922 H   0  0  0  0  0  0  0  0  0  0  0  0
    5.3210    0.2008    1.6720 H   0  0  0  0  0  0  0  0  0  0  0  0
    2.6920    5.1779   -0.8694 H   0  0  0  0  0  0  0  0  0  0  0  0
    4.3326    5.4551   -0.4085 H   0  0  0  0  0  0  0  0  0  0  0  0
    3.8451    4.1258    2.5940 H   0  0  0  0  0  0  0  0  0  0  0  0
    3.0704    5.2291    4.6194 H   0  0  0  0  0  0  0  0  0  0  0  0
    3.0904    6.8821    6.2291 H   0  0  0  0  0  0  0  0  0  0  0  0
    2.3121    8.2396    8.1174 H   0  0  0  0  0  0  0  0  0  0  0  0
    0.4233    9.8242    7.8452 H   0  0  0  0  0  0  0  0  0  0  0  0
   -0.7634    9.9543    5.6697 H   0  0  0  0  0  0  0  0  0  0  0  0
   -0.0815    8.5504    3.8087 H   0  0  0  0  0  0  0  0  0  0  0  0
    1.3316    8.3626    2.2082 H   0  0  0  0  0  0  0  0  0  0  0  0
    2.0245    7.2252    0.2086 H   0  0  0  0  0  0  0  0  0  0  0  0
    0.6846    4.5746    0.5622 H   0  0  0  0  0  0  0  0  0  0  0  0
   -2.1866    5.3329   -2.5980 H   0  0  0  0  0  0  0  0  0  0  0  0
   -4.1817    5.2977   -4.0606 H   0  0  0  0  0  0  0  0  0  0  0  0
   -3.6953    1.0891   -4.6869 H   0  0  0  0  0  0  0  0  0  0  0  0
   -1.7368    1.0596   -3.2207 H   0  0  0  0  0  0  0  0  0  0  0  0
  1  2  1  0  0  0  0
  1 34  1  0  0  0  0
  1 35  1  0  0  0  0
  1 36  1  0  0  0  0
  2  3  2  0  0  0  0
  2 26  1  0  0  0  0
  3  4  1  0  0  0  0
  3 24  1  0  0  0  0
  4  5  2  0  0  0  0
  4  6  1  0  0  0  0
  6  7  1  0  0  0  0
  6 11  1  0  0  0  0
  7  8  1  0  0  0  0
  7 37  1  0  0  0  0
  7 38  1  0  0  0  0
  8  9  1  0  0  0  0
  8 10  2  0  0  0  0
  9 39  1  0  0  0  0
  9 40  1  0  0  0  0
 11 12  1  0  0  0  0
 11 41  1  0  0  0  0
 11 42  1  0  0  0  0
 12 13  2  0  0  0  0
 12 23  1  0  0  0  0
 13 14  1  0  0  0  0
 13 43  1  0  0  0  0
 14 15  2  0  0  0  0
 14 44  1  0  0  0  0
 15 16  1  0  0  0  0
 15 22  1  0  0  0  0
 16 17  2  0  0  0  0
 16 21  1  0  0  0  0
 17 18  1  0  0  0  0
 17 45  1  0  0  0  0
 18 19  2  0  0  0  0
 18 46  1  0  0  0  0
 19 20  1  0  0  0  0
 19 47  1  0  0  0  0
 20 21  2  0  0  0  0
 20 48  1  0  0  0  0
 21 49  1  0  0  0  0
 22 23  2  0  0  0  0
 22 50  1  0  0  0  0
 23 51  1  0  0  0  0
 24 25  2  0  0  0  0
 24 52  1  0  0  0  0
 25 26  1  0  0  0  0
 26 27  1  0  0  0  0
 27 28  2  0  0  0  0
 27 33  1  0  0  0  0
 28 29  1  0  0  0  0
 28 53  1  0  0  0  0
 29 30  2  0  0  0  0
 29 54  1  0  0  0  0
 30 31  1  0  0  0  0
 30 32  1  0  0  0  0
 32 33  2  0  0  0  0
 32 55  1  0  0  0  0
 33 56  1  0  0  0  0
M  END
$$$$
