
 OpenBabel01122422453D

 47 50  0  0  1  0  0  0  0  0999 V2000
    2.7669   -0.6280   -1.8333 O   0  0  0  0  0  0  0  0  0  0  0  0
    3.3571   -0.1583   -0.8633 C   0  0  0  0  0  0  0  0  0  0  0  0
    3.0799    1.1208   -0.4074 N   0  0  0  0  0  0  0  0  0  0  0  0
    2.3085    2.0522   -1.2957 C   0  0  3  0  0  0  0  0  0  0  0  0
    1.2529    2.8211   -0.4757 C   0  0  0  0  0  0  0  0  0  0  0  0
    0.6454    3.8204   -0.8219 O   0  0  0  0  0  0  0  0  0  0  0  0
    0.9865    2.2009    0.7211 O   0  0  0  0  0  0  0  0  0  0  0  0
    3.2654    2.9335   -2.1011 C   0  0  0  0  0  0  0  0  0  0  0  0
    3.6797    4.1838   -1.6227 C   0  0  0  0  0  0  0  0  0  0  0  0
    4.6032    4.9458   -2.3322 C   0  0  0  0  0  0  0  0  0  0  0  0
    5.1517    4.4577   -3.5178 C   0  0  0  0  0  0  0  0  0  0  0  0
    4.7897    3.2011   -4.0340 C   0  0  0  0  0  0  0  0  0  0  0  0
    5.4769    2.6731   -5.2377 C   0  0  0  0  0  0  0  0  0  0  0  0
    6.8626    2.8524   -5.3973 C   0  0  0  0  0  0  0  0  0  0  0  0
    7.4984    2.3684   -6.5304 C   0  0  0  0  0  0  0  0  0  0  0  0
    6.8626    1.7101   -7.5159 N   0  0  0  0  0  0  0  0  0  0  0  0
    5.5339    1.5346   -7.3571 C   0  0  0  0  0  0  0  0  0  0  0  0
    4.8097    1.9882   -6.2587 C   0  0  0  0  0  0  0  0  0  0  0  0
    3.8138    2.4672   -3.3238 C   0  0  0  0  0  0  0  0  0  0  0  0
    4.5083   -0.9269   -0.2898 C   0  0  0  0  0  0  0  0  0  0  0  0
    5.3620   -1.4202   -1.2978 C   0  0  0  0  0  0  0  0  0  0  0  0
    6.4513   -2.2182   -0.9912 C   0  0  0  0  0  0  0  0  0  0  0  0
    6.7330   -2.4941    0.3358 C   0  0  0  0  0  0  0  0  0  0  0  0
    5.9320   -2.0349    1.3587 C   0  0  0  0  0  0  0  0  0  0  0  0
    6.3419   -2.4107    2.5736 N   0  0  0  0  0  0  0  0  0  0  0  0
    5.5600   -2.1153    3.6058 C   0  0  0  0  0  0  0  0  0  0  0  0
    6.0596   -2.5477    4.7856 O   0  0  0  0  0  0  0  0  0  0  0  0
    4.3584   -1.4551    3.5059 C   0  0  0  0  0  0  0  0  0  0  0  0
    3.9575   -1.0136    2.2321 C   0  0  0  0  0  0  0  0  0  0  0  0
    4.7591   -1.2731    1.0835 C   0  0  0  0  0  0  0  0  0  0  0  0
    3.7527    1.5554    0.2163 H   0  0  0  0  0  0  0  0  0  0  0  0
    1.7104    1.4613   -2.0033 H   0  0  0  0  0  0  0  0  0  0  0  0
    1.5017    1.3707    0.7608 H   0  0  0  0  0  0  0  0  0  0  0  0
    3.2782    4.5970   -0.6996 H   0  0  0  0  0  0  0  0  0  0  0  0
    4.9091    5.9198   -1.9587 H   0  0  0  0  0  0  0  0  0  0  0  0
    5.8797    5.0779   -4.0383 H   0  0  0  0  0  0  0  0  0  0  0  0
    7.4561    3.3622   -4.6448 H   0  0  0  0  0  0  0  0  0  0  0  0
    8.5667    2.5061   -6.6728 H   0  0  0  0  0  0  0  0  0  0  0  0
    5.0441    1.0046   -8.1700 H   0  0  0  0  0  0  0  0  0  0  0  0
    3.7387    1.8158   -6.2251 H   0  0  0  0  0  0  0  0  0  0  0  0
    3.4922    1.4978   -3.7063 H   0  0  0  0  0  0  0  0  0  0  0  0
    5.1579   -1.2042   -2.3468 H   0  0  0  0  0  0  0  0  0  0  0  0
    7.0759   -2.6353   -1.7759 H   0  0  0  0  0  0  0  0  0  0  0  0
    7.5899   -3.1197    0.5814 H   0  0  0  0  0  0  0  0  0  0  0  0
    6.8955   -2.9516    4.4764 H   0  0  0  0  0  0  0  0  0  0  0  0
    3.7519   -1.3028    4.3921 H   0  0  0  0  0  0  0  0  0  0  0  0
    2.9976   -0.5115    2.1466 H   0  0  0  0  0  0  0  0  0  0  0  0
  1  2  2  0  0  0  0
  2  3  1  0  0  0  0
  2 20  1  0  0  0  0
  3  4  1  0  0  0  0
  3 31  1  0  0  0  0
  4  5  1  0  0  0  0
  4  8  1  0  0  0  0
  4 32  1  0  0  0  0
  5  6  2  0  0  0  0
  5  7  1  0  0  0  0
  7 33  1  0  0  0  0
  8  9  2  0  0  0  0
  8 19  1  0  0  0  0
  9 10  1  0  0  0  0
  9 34  1  0  0  0  0
 10 11  2  0  0  0  0
 10 35  1  0  0  0  0
 11 12  1  0  0  0  0
 11 36  1  0  0  0  0
 12 13  1  0  0  0  0
 12 19  2  0  0  0  0
 13 14  2  0  0  0  0
 13 18  1  0  0  0  0
 14 15  1  0  0  0  0
 14 37  1  0  0  0  0
 15 16  2  0  0  0  0
 15 38  1  0  0  0  0
 16 17  1  0  0  0  0
 17 18  2  0  0  0  0
 17 39  1  0  0  0  0
 18 40  1  0  0  0  0
 19 41  1  0  0  0  0
 20 21  2  0  0  0  0
 20 30  1  0  0  0  0
 21 22  1  0  0  0  0
 21 42  1  0  0  0  0
 22 23  2  0  0  0  0
 22 43  1  0  0  0  0
 23 24  1  0  0  0  0
 23 44  1  0  0  0  0
 24 25  2  0  0  0  0
 24 30  1  0  0  0  0
 25 26  1  0  0  0  0
 26 27  1  0  0  0  0
 26 28  2  0  0  0  0
 27 45  1  0  0  0  0
 28 29  1  0  0  0  0
 28 46  1  0  0  0  0
 29 30  2  0  0  0  0
 29 47  1  0  0  0  0
M  END
$$$$
