
 OpenBabel01122422493D

 48 51  0  0  1  0  0  0  0  0999 V2000
    1.4643    0.3708    1.0174 N   0  0  0  0  0  0  0  0  0  0  0  0
    2.2618    0.1130   -0.0678 C   0  0  0  0  0  0  0  0  0  0  0  0
    2.2012    0.8508   -1.0496 O   0  0  0  0  0  0  0  0  0  0  0  0
    3.1499   -1.1543    0.0307 C   0  0  3  0  0  0  0  0  0  0  0  0
    2.8023   -2.0452   -1.0659 N   0  0  0  0  0  0  0  0  0  0  0  0
    1.7460   -2.9220   -0.9510 C   0  0  0  0  0  0  0  0  0  0  0  0
    1.1290   -3.0809    0.1007 O   0  0  0  0  0  0  0  0  0  0  0  0
    1.3638   -3.6634   -2.1968 C   0  0  0  0  0  0  0  0  0  0  0  0
    2.0861   -3.4091   -3.3248 N   0  0  0  0  0  0  0  0  0  0  0  0
    1.7091   -4.0533   -4.4633 C   0  0  0  0  0  0  0  0  0  0  0  0
    2.4825   -3.7314   -5.6833 C   0  0  0  0  0  0  0  0  0  0  0  0
    3.8573   -3.4326   -5.6122 C   0  0  0  0  0  0  0  0  0  0  0  0
    4.5926   -3.1124   -6.7592 C   0  0  0  0  0  0  0  0  0  0  0  0
    3.9604   -3.0855   -7.9944 C   0  0  0  0  0  0  0  0  0  0  0  0
    4.6595   -2.7679   -9.0913 F   0  0  0  0  0  0  0  0  0  0  0  0
    2.6095   -3.3775   -8.1054 C   0  0  0  0  0  0  0  0  0  0  0  0
    1.8767   -3.6975   -6.9576 C   0  0  0  0  0  0  0  0  0  0  0  0
    0.6400   -4.9554   -4.4798 C   0  0  0  0  0  0  0  0  0  0  0  0
   -0.0746   -5.2018   -3.3113 C   0  0  0  0  0  0  0  0  0  0  0  0
    0.2904   -4.5447   -2.1467 C   0  0  0  0  0  0  0  0  0  0  0  0
    4.6474   -0.8904    0.0455 C   0  0  0  0  0  0  0  0  0  0  0  0
    5.4897   -1.8140    0.6867 C   0  0  0  0  0  0  0  0  0  0  0  0
    6.8778   -1.6477    0.6832 C   0  0  0  0  0  0  0  0  0  0  0  0
    7.4663   -0.5579    0.0269 C   0  0  0  0  0  0  0  0  0  0  0  0
    8.8599   -0.3870   -0.0159 C   0  0  0  0  0  0  0  0  0  0  0  0
    9.4262    0.6986   -0.6866 C   0  0  0  0  0  0  0  0  0  0  0  0
    8.6062    1.6325   -1.3125 C   0  0  0  0  0  0  0  0  0  0  0  0
    7.2198    1.4781   -1.2756 C   0  0  0  0  0  0  0  0  0  0  0  0
    6.6353    0.3841   -0.6180 C   0  0  0  0  0  0  0  0  0  0  0  0
    5.2403    0.2043   -0.6021 C   0  0  0  0  0  0  0  0  0  0  0  0
    0.8002    1.1254    0.8944 H   0  0  0  0  0  0  0  0  0  0  0  0
    1.1670   -0.3978    1.6078 H   0  0  0  0  0  0  0  0  0  0  0  0
    2.8938   -1.6504    0.9762 H   0  0  0  0  0  0  0  0  0  0  0  0
    3.1326   -1.8338   -2.0033 H   0  0  0  0  0  0  0  0  0  0  0  0
    4.3673   -3.4487   -4.6502 H   0  0  0  0  0  0  0  0  0  0  0  0
    5.6503   -2.8788   -6.6909 H   0  0  0  0  0  0  0  0  0  0  0  0
    2.1300   -3.3451   -9.0787 H   0  0  0  0  0  0  0  0  0  0  0  0
    0.8136   -3.8978   -7.0723 H   0  0  0  0  0  0  0  0  0  0  0  0
    0.3585   -5.4766   -5.3901 H   0  0  0  0  0  0  0  0  0  0  0  0
   -0.9114   -5.8949   -3.3131 H   0  0  0  0  0  0  0  0  0  0  0  0
   -0.2512   -4.7114   -1.2212 H   0  0  0  0  0  0  0  0  0  0  0  0
    5.0669   -2.6837    1.1873 H   0  0  0  0  0  0  0  0  0  0  0  0
    7.4975   -2.3860    1.1872 H   0  0  0  0  0  0  0  0  0  0  0  0
    9.5176   -1.1067    0.4675 H   0  0  0  0  0  0  0  0  0  0  0  0
   10.5062    0.8136   -0.7216 H   0  0  0  0  0  0  0  0  0  0  0  0
    9.0428    2.4800   -1.8341 H   0  0  0  0  0  0  0  0  0  0  0  0
    6.5943    2.2172   -1.7713 H   0  0  0  0  0  0  0  0  0  0  0  0
    4.6199    0.9336   -1.1199 H   0  0  0  0  0  0  0  0  0  0  0  0
  1  2  1  0  0  0  0
  1 31  1  0  0  0  0
  1 32  1  0  0  0  0
  2  3  2  0  0  0  0
  2  4  1  0  0  0  0
  4  5  1  0  0  0  0
  4 21  1  0  0  0  0
  4 33  1  0  0  0  0
  5  6  1  0  0  0  0
  5 34  1  0  0  0  0
  6  7  2  0  0  0  0
  6  8  1  0  0  0  0
  8  9  2  0  0  0  0
  8 20  1  0  0  0  0
  9 10  1  0  0  0  0
 10 11  1  0  0  0  0
 10 18  2  0  0  0  0
 11 12  2  0  0  0  0
 11 17  1  0  0  0  0
 12 13  1  0  0  0  0
 12 35  1  0  0  0  0
 13 14  2  0  0  0  0
 13 36  1  0  0  0  0
 14 15  1  0  0  0  0
 14 16  1  0  0  0  0
 16 17  2  0  0  0  0
 16 37  1  0  0  0  0
 17 38  1  0  0  0  0
 18 19  1  0  0  0  0
 18 39  1  0  0  0  0
 19 20  2  0  0  0  0
 19 40  1  0  0  0  0
 20 41  1  0  0  0  0
 21 22  2  0  0  0  0
 21 30  1  0  0  0  0
 22 23  1  0  0  0  0
 22 42  1  0  0  0  0
 23 24  2  0  0  0  0
 23 43  1  0  0  0  0
 24 25  1  0  0  0  0
 24 29  1  0  0  0  0
 25 26  2  0  0  0  0
 25 44  1  0  0  0  0
 26 27  1  0  0  0  0
 26 45  1  0  0  0  0
 27 28  2  0  0  0  0
 27 46  1  0  0  0  0
 28 29  1  0  0  0  0
 28 47  1  0  0  0  0
 29 30  2  0  0  0  0
 30 48  1  0  0  0  0
M  END
$$$$
