
 OpenBabel01122422493D

 43 46  0  0  0  0  0  0  0  0999 V2000
    1.0994   -0.0088   -0.0059 N   0  0  0  0  0  0  0  0  0  0  0  0
    2.3604   -0.0088   -0.0059 C   0  0  0  0  0  0  0  0  0  0  0  0
    3.8804   -0.0088   -0.0059 C   0  0  0  0  0  0  0  0  0  0  0  0
    4.5655    1.1474    0.1875 C   0  0  0  0  0  0  0  0  0  0  0  0
    3.9349    2.3933    0.3390 N   0  0  0  0  0  0  0  0  0  0  0  0
    4.5506    3.6238    0.5925 C   0  0  0  0  0  0  0  0  0  0  0  0
    5.7672    3.7702    0.6919 O   0  0  0  0  0  0  0  0  0  0  0  0
    3.7091    4.7874    0.7275 C   0  0  0  0  0  0  0  0  0  0  0  0
    4.1002    6.0814    0.9723 C   0  0  0  0  0  0  0  0  0  0  0  0
    2.9469    6.8687    0.7781 C   0  0  0  0  0  0  0  0  0  0  0  0
    2.9018    8.3240    0.6612 C   0  0  0  0  0  0  0  0  0  0  0  0
    1.7847    9.0646    1.0641 C   0  0  0  0  0  0  0  0  0  0  0  0
    1.7387   10.4468    0.8430 C   0  0  0  0  0  0  0  0  0  0  0  0
    2.8038   11.1029    0.2207 C   0  0  0  0  0  0  0  0  0  0  0  0
    3.9323   10.3827   -0.1543 C   0  0  0  0  0  0  0  0  0  0  0  0
    3.9767    9.0103    0.0718 C   0  0  0  0  0  0  0  0  0  0  0  0
    5.0770    8.3528   -0.3278 F   0  0  0  0  0  0  0  0  0  0  0  0
    1.8731    6.0739    0.6109 N   0  0  0  0  0  0  0  0  0  0  0  0
    2.3605    4.7661    0.5550 O   0  0  0  0  0  0  0  0  0  0  0  0
    6.0114    1.0451    0.2748 C   0  0  0  0  0  0  0  0  0  0  0  0
    6.6369   -0.1311    0.2243 C   0  0  0  0  0  0  0  0  0  0  0  0
    5.9493   -1.3185    0.0822 N   0  0  0  0  0  0  0  0  0  0  0  0
    6.6567   -2.5519    0.0061 C   0  0  0  0  0  0  0  0  0  0  0  0
    7.7602   -2.6691   -0.8502 C   0  0  0  0  0  0  0  0  0  0  0  0
    8.3972   -3.8987   -1.0015 C   0  0  0  0  0  0  0  0  0  0  0  0
    7.9668   -5.0018   -0.2652 C   0  0  0  0  0  0  0  0  0  0  0  0
    6.9050   -4.8772    0.6285 C   0  0  0  0  0  0  0  0  0  0  0  0
    6.2451   -3.6568    0.7584 C   0  0  0  0  0  0  0  0  0  0  0  0
    4.5507   -1.3357   -0.0494 C   0  0  0  0  0  0  0  0  0  0  0  0
    3.8628   -2.3398   -0.2198 O   0  0  0  0  0  0  0  0  0  0  0  0
    2.9227    2.4344    0.2784 H   0  0  0  0  0  0  0  0  0  0  0  0
    5.1177    6.4075    1.1364 H   0  0  0  0  0  0  0  0  0  0  0  0
    0.9391    8.5733    1.5418 H   0  0  0  0  0  0  0  0  0  0  0  0
    0.8606   11.0154    1.1428 H   0  0  0  0  0  0  0  0  0  0  0  0
    2.7514   12.1704    0.0218 H   0  0  0  0  0  0  0  0  0  0  0  0
    4.7722   10.8713   -0.6398 H   0  0  0  0  0  0  0  0  0  0  0  0
    6.6452    1.9103    0.4092 H   0  0  0  0  0  0  0  0  0  0  0  0
    7.7169   -0.1802    0.3414 H   0  0  0  0  0  0  0  0  0  0  0  0
    8.0846   -1.8290   -1.4580 H   0  0  0  0  0  0  0  0  0  0  0  0
    9.2120   -4.0006   -1.7124 H   0  0  0  0  0  0  0  0  0  0  0  0
    8.4538   -5.9642   -0.3957 H   0  0  0  0  0  0  0  0  0  0  0  0
    6.5754   -5.7322    1.2126 H   0  0  0  0  0  0  0  0  0  0  0  0
    5.4164   -3.5741    1.4577 H   0  0  0  0  0  0  0  0  0  0  0  0
  1  2  3  0  0  0  0
  2  3  1  0  0  0  0
  3  4  2  0  0  0  0
  3 29  1  0  0  0  0
  4  5  1  0  0  0  0
  4 20  1  0  0  0  0
  5  6  1  0  0  0  0
  5 31  1  0  0  0  0
  6  7  2  0  0  0  0
  6  8  1  0  0  0  0
  8  9  2  0  0  0  0
  8 19  1  0  0  0  0
  9 10  1  0  0  0  0
  9 32  1  0  0  0  0
 10 11  1  0  0  0  0
 10 18  2  0  0  0  0
 11 12  2  0  0  0  0
 11 16  1  0  0  0  0
 12 13  1  0  0  0  0
 12 33  1  0  0  0  0
 13 14  2  0  0  0  0
 13 34  1  0  0  0  0
 14 15  1  0  0  0  0
 14 35  1  0  0  0  0
 15 16  2  0  0  0  0
 15 36  1  0  0  0  0
 16 17  1  0  0  0  0
 18 19  1  0  0  0  0
 20 21  2  0  0  0  0
 20 37  1  0  0  0  0
 21 22  1  0  0  0  0
 21 38  1  0  0  0  0
 22 23  1  0  0  0  0
 22 29  1  0  0  0  0
 23 24  2  0  0  0  0
 23 28  1  0  0  0  0
 24 25  1  0  0  0  0
 24 39  1  0  0  0  0
 25 26  2  0  0  0  0
 25 40  1  0  0  0  0
 26 27  1  0  0  0  0
 26 41  1  0  0  0  0
 27 28  2  0  0  0  0
 27 42  1  0  0  0  0
 28 43  1  0  0  0  0
 29 30  2  0  0  0  0
M  END
$$$$
