
 OpenBabel01122422493D

 41 44  0  0  0  0  0  0  0  0999 V2000
    0.9464   -0.1062    0.2299 O   0  0  0  0  0  0  0  0  0  0  0  0
    2.1609   -0.0882    0.0846 C   0  0  0  0  0  0  0  0  0  0  0  0
    2.8636    0.0734   -1.0932 N   0  0  0  0  0  0  0  0  0  0  0  0
    2.2576    0.4502   -2.2814 C   0  0  0  0  0  0  0  0  0  0  0  0
    1.0569    1.0408   -2.3356 N   0  0  0  0  0  0  0  0  0  0  0  0
    0.7906    1.2831   -3.6599 O   0  0  0  0  0  0  0  0  0  0  0  0
    1.8169    0.8323   -4.4106 C   0  0  0  0  0  0  0  0  0  0  0  0
    2.7879    0.2824   -3.6014 C   0  0  0  0  0  0  0  0  0  0  0  0
    3.9748   -0.3811   -4.1228 C   0  0  0  0  0  0  0  0  0  0  0  0
    3.9200   -1.0677   -5.3495 C   0  0  0  0  0  0  0  0  0  0  0  0
    5.0391   -1.7424   -5.8482 C   0  0  0  0  0  0  0  0  0  0  0  0
    6.2322   -1.7424   -5.1299 C   0  0  0  0  0  0  0  0  0  0  0  0
    6.3048   -1.0637   -3.9152 C   0  0  0  0  0  0  0  0  0  0  0  0
    5.1854   -0.3928   -3.4222 C   0  0  0  0  0  0  0  0  0  0  0  0
    5.3002    0.2409   -2.2451 F   0  0  0  0  0  0  0  0  0  0  0  0
    3.0169   -0.3876    1.2967 C   0  0  0  0  0  0  0  0  0  0  0  0
    4.1502   -1.0157    1.0982 N   0  0  0  0  0  0  0  0  0  0  0  0
    4.8925   -1.3669    2.2133 N   0  0  0  0  0  0  0  0  0  0  0  0
    6.1601   -1.9813    1.9450 C   0  0  0  0  0  0  0  0  0  0  0  0
    6.3922   -2.6461    0.7254 C   0  0  0  0  0  0  0  0  0  0  0  0
    7.6121   -3.2784    0.4568 C   0  0  0  0  0  0  0  0  0  0  0  0
    8.6401   -3.2480    1.3955 C   0  0  0  0  0  0  0  0  0  0  0  0
    8.4485   -2.5815    2.6004 C   0  0  0  0  0  0  0  0  0  0  0  0
    7.2280   -1.9581    2.8647 C   0  0  0  0  0  0  0  0  0  0  0  0
    7.1223   -1.2991    4.0304 F   0  0  0  0  0  0  0  0  0  0  0  0
    4.3827   -1.2439    3.4930 C   0  0  0  0  0  0  0  0  0  0  0  0
    3.2501   -0.6199    3.8161 C   0  0  0  0  0  0  0  0  0  0  0  0
    2.5453   -0.0088    2.6893 C   0  0  0  0  0  0  0  0  0  0  0  0
    1.6389    0.7858    2.8775 O   0  0  0  0  0  0  0  0  0  0  0  0
    3.8502   -0.1604   -1.1086 H   0  0  0  0  0  0  0  0  0  0  0  0
    1.6938    0.9608   -5.4759 H   0  0  0  0  0  0  0  0  0  0  0  0
    2.9995   -1.1101   -5.9291 H   0  0  0  0  0  0  0  0  0  0  0  0
    4.9730   -2.2741   -6.7953 H   0  0  0  0  0  0  0  0  0  0  0  0
    7.0996   -2.2721   -5.5141 H   0  0  0  0  0  0  0  0  0  0  0  0
    7.2276   -1.0546   -3.3432 H   0  0  0  0  0  0  0  0  0  0  0  0
    5.6020   -2.7057   -0.0196 H   0  0  0  0  0  0  0  0  0  0  0  0
    7.7540   -3.8021   -0.4856 H   0  0  0  0  0  0  0  0  0  0  0  0
    9.5878   -3.7388    1.1881 H   0  0  0  0  0  0  0  0  0  0  0  0
    9.2418   -2.5356    3.3412 H   0  0  0  0  0  0  0  0  0  0  0  0
    4.9624   -1.7171    4.2796 H   0  0  0  0  0  0  0  0  0  0  0  0
    2.8654   -0.5129    4.8182 H   0  0  0  0  0  0  0  0  0  0  0  0
  1  2  2  0  0  0  0
  2  3  1  0  0  0  0
  2 16  1  0  0  0  0
  3  4  1  0  0  0  0
  3 30  1  0  0  0  0
  4  5  2  0  0  0  0
  4  8  1  0  0  0  0
  5  6  1  0  0  0  0
  6  7  1  0  0  0  0
  7  8  2  0  0  0  0
  7 31  1  0  0  0  0
  8  9  1  0  0  0  0
  9 10  2  0  0  0  0
  9 14  1  0  0  0  0
 10 11  1  0  0  0  0
 10 32  1  0  0  0  0
 11 12  2  0  0  0  0
 11 33  1  0  0  0  0
 12 13  1  0  0  0  0
 12 34  1  0  0  0  0
 13 14  2  0  0  0  0
 13 35  1  0  0  0  0
 14 15  1  0  0  0  0
 16 17  2  0  0  0  0
 16 28  1  0  0  0  0
 17 18  1  0  0  0  0
 18 19  1  0  0  0  0
 18 26  1  0  0  0  0
 19 20  2  0  0  0  0
 19 24  1  0  0  0  0
 20 21  1  0  0  0  0
 20 36  1  0  0  0  0
 21 22  2  0  0  0  0
 21 37  1  0  0  0  0
 22 23  1  0  0  0  0
 22 38  1  0  0  0  0
 23 24  2  0  0  0  0
 23 39  1  0  0  0  0
 24 25  1  0  0  0  0
 26 27  2  0  0  0  0
 26 40  1  0  0  0  0
 27 28  1  0  0  0  0
 27 41  1  0  0  0  0
 28 29  2  0  0  0  0
M  END
$$$$
