
 OpenBabel01122422493D

 45 48  0  0  0  0  0  0  0  0999 V2000
    1.1294   -0.4493   -0.5121 C   0  0  0  0  0  0  0  0  0  0  0  0
    2.3725   -0.0180    0.0502 O   0  0  0  0  0  0  0  0  0  0  0  0
    3.1520   -1.0100    0.6037 C   0  0  0  0  0  0  0  0  0  0  0  0
    2.8883   -2.3808    0.4312 C   0  0  0  0  0  0  0  0  0  0  0  0
    3.7143   -3.3575    0.9959 C   0  0  0  0  0  0  0  0  0  0  0  0
    4.8199   -3.0021    1.7688 C   0  0  0  0  0  0  0  0  0  0  0  0
    5.7205   -4.0116    2.3639 C   0  0  0  0  0  0  0  0  0  0  0  0
    7.1045   -3.8009    2.4769 C   0  0  0  0  0  0  0  0  0  0  0  0
    7.9324   -4.7752    3.0339 C   0  0  0  0  0  0  0  0  0  0  0  0
    7.3560   -5.9555    3.4639 C   0  0  0  0  0  0  0  0  0  0  0  0
    6.0361   -6.2137    3.3825 N   0  0  0  0  0  0  0  0  0  0  0  0
    5.2594   -5.2402    2.8417 C   0  0  0  0  0  0  0  0  0  0  0  0
    5.0545   -1.6254    1.9497 C   0  0  0  0  0  0  0  0  0  0  0  0
    4.2764   -0.6168    1.3553 C   0  0  0  0  0  0  0  0  0  0  0  0
    4.6083    0.7749    1.5037 N   0  0  0  0  0  0  0  0  0  0  0  0
    5.8353    1.2313    1.9825 C   0  0  0  0  0  0  0  0  0  0  0  0
    6.7867    0.5153    2.3076 O   0  0  0  0  0  0  0  0  0  0  0  0
    6.1142    2.6924    2.0706 C   0  0  0  0  0  0  0  0  0  0  0  0
    5.1808    3.6660    2.4609 C   0  0  0  0  0  0  0  0  0  0  0  0
    5.6008    5.0053    2.6142 C   0  0  0  0  0  0  0  0  0  0  0  0
    6.9313    5.3578    2.3331 C   0  0  0  0  0  0  0  0  0  0  0  0
    7.3171    6.7058    2.3294 N   0  0  0  0  0  0  0  0  0  0  0  0
    6.4447    7.7326    2.5589 C   0  0  0  0  0  0  0  0  0  0  0  0
    6.7380    8.9066    2.3754 O   0  0  0  0  0  0  0  0  0  0  0  0
    5.1101    7.3459    3.0800 C   0  0  0  0  0  0  0  0  0  0  0  0
    4.7111    6.0634    3.1053 C   0  0  0  0  0  0  0  0  0  0  0  0
    7.8585    4.3801    2.0065 C   0  0  0  0  0  0  0  0  0  0  0  0
    9.1450    4.7044    1.8150 F   0  0  0  0  0  0  0  0  0  0  0  0
    7.4598    3.0611    1.8810 C   0  0  0  0  0  0  0  0  0  0  0  0
    0.5843    0.4311   -0.8633 H   0  0  0  0  0  0  0  0  0  0  0  0
    0.5088   -0.9462    0.2436 H   0  0  0  0  0  0  0  0  0  0  0  0
    1.2842   -1.1020   -1.3797 H   0  0  0  0  0  0  0  0  0  0  0  0
    2.0498   -2.7413   -0.1586 H   0  0  0  0  0  0  0  0  0  0  0  0
    3.4838   -4.4036    0.8029 H   0  0  0  0  0  0  0  0  0  0  0  0
    7.5583   -2.8758    2.1250 H   0  0  0  0  0  0  0  0  0  0  0  0
    9.0005   -4.6129    3.1231 H   0  0  0  0  0  0  0  0  0  0  0  0
    7.9585   -6.7472    3.8984 H   0  0  0  0  0  0  0  0  0  0  0  0
    4.2024   -5.4919    2.8171 H   0  0  0  0  0  0  0  0  0  0  0  0
    5.8748   -1.3595    2.6064 H   0  0  0  0  0  0  0  0  0  0  0  0
    3.9532    1.4223    1.0704 H   0  0  0  0  0  0  0  0  0  0  0  0
    4.1552    3.3870    2.6840 H   0  0  0  0  0  0  0  0  0  0  0  0
    8.2522    6.9548    2.0279 H   0  0  0  0  0  0  0  0  0  0  0  0
    4.4973    8.1590    3.4476 H   0  0  0  0  0  0  0  0  0  0  0  0
    3.7497    5.7934    3.5267 H   0  0  0  0  0  0  0  0  0  0  0  0
    8.2146    2.3141    1.6439 H   0  0  0  0  0  0  0  0  0  0  0  0
  1  2  1  0  0  0  0
  1 30  1  0  0  0  0
  1 31  1  0  0  0  0
  1 32  1  0  0  0  0
  2  3  1  0  0  0  0
  3  4  2  0  0  0  0
  3 14  1  0  0  0  0
  4  5  1  0  0  0  0
  4 33  1  0  0  0  0
  5  6  2  0  0  0  0
  5 34  1  0  0  0  0
  6  7  1  0  0  0  0
  6 13  1  0  0  0  0
  7  8  2  0  0  0  0
  7 12  1  0  0  0  0
  8  9  1  0  0  0  0
  8 35  1  0  0  0  0
  9 10  2  0  0  0  0
  9 36  1  0  0  0  0
 10 11  1  0  0  0  0
 10 37  1  0  0  0  0
 11 12  2  0  0  0  0
 12 38  1  0  0  0  0
 13 14  2  0  0  0  0
 13 39  1  0  0  0  0
 14 15  1  0  0  0  0
 15 16  1  0  0  0  0
 15 40  1  0  0  0  0
 16 17  2  0  0  0  0
 16 18  1  0  0  0  0
 18 19  2  0  0  0  0
 18 29  1  0  0  0  0
 19 20  1  0  0  0  0
 19 41  1  0  0  0  0
 20 21  2  0  0  0  0
 20 26  1  0  0  0  0
 21 22  1  0  0  0  0
 21 27  1  0  0  0  0
 22 23  1  0  0  0  0
 22 42  1  0  0  0  0
 23 24  2  0  0  0  0
 23 25  1  0  0  0  0
 25 26  2  0  0  0  0
 25 43  1  0  0  0  0
 26 44  1  0  0  0  0
 27 28  1  0  0  0  0
 27 29  2  0  0  0  0
 29 45  1  0  0  0  0
M  END
$$$$
