
 OpenBabel01122422493D

 45 48  0  0  0  0  0  0  0  0999 V2000
    4.6807    0.4625   -0.7250 O   0  0  0  0  0  0  0  0  0  0  0  0
    4.2038   -0.6099   -1.1101 C   0  0  0  0  0  0  0  0  0  0  0  0
    2.8984   -0.9077   -0.7517 N   0  0  0  0  0  0  0  0  0  0  0  0
    2.0732   -1.9243   -1.2952 C   0  0  0  0  0  0  0  0  0  0  0  0
    0.9577   -1.5049   -2.0331 C   0  0  0  0  0  0  0  0  0  0  0  0
    0.6666   -0.1973   -2.1149 F   0  0  0  0  0  0  0  0  0  0  0  0
    0.2235   -2.3983   -2.8064 C   0  0  0  0  0  0  0  0  0  0  0  0
    0.5802   -3.7415   -2.8229 C   0  0  0  0  0  0  0  0  0  0  0  0
    1.6491   -4.1874   -2.0423 C   0  0  0  0  0  0  0  0  0  0  0  0
    2.3854   -3.2947   -1.2437 C   0  0  0  0  0  0  0  0  0  0  0  0
    3.4232   -3.6827   -0.4276 O   0  0  0  0  0  0  0  0  0  0  0  0
    3.4997   -5.0865   -0.1601 C   0  0  0  0  0  0  0  0  0  0  0  0
    4.3135   -5.3881    1.0748 C   0  0  0  0  0  0  0  0  0  0  0  0
    3.8655   -6.3835    1.9649 C   0  0  0  0  0  0  0  0  0  0  0  0
    4.6041   -6.7203    3.0914 C   0  0  0  0  0  0  0  0  0  0  0  0
    5.8137   -6.0811    3.3372 C   0  0  0  0  0  0  0  0  0  0  0  0
    6.2826   -5.1039    2.4597 C   0  0  0  0  0  0  0  0  0  0  0  0
    5.5368   -4.7599    1.3268 C   0  0  0  0  0  0  0  0  0  0  0  0
    4.9679   -1.5182   -2.0196 C   0  0  0  0  0  0  0  0  0  0  0  0
    4.3801   -1.9727   -3.1416 C   0  0  0  0  0  0  0  0  0  0  0  0
    4.9178   -2.9882   -3.8869 N   0  0  0  0  0  0  0  0  0  0  0  0
    6.1250   -3.5803   -3.6133 C   0  0  0  0  0  0  0  0  0  0  0  0
    6.5137   -4.5738   -4.2103 O   0  0  0  0  0  0  0  0  0  0  0  0
    6.9364   -2.9213   -2.5691 C   0  0  0  0  0  0  0  0  0  0  0  0
    8.2800   -3.2566   -2.4051 C   0  0  0  0  0  0  0  0  0  0  0  0
    9.0421   -2.5347   -1.4969 C   0  0  0  0  0  0  0  0  0  0  0  0
    8.4199   -1.5256   -0.7779 C   0  0  0  0  0  0  0  0  0  0  0  0
    7.1072   -1.2146   -0.8933 N   0  0  0  0  0  0  0  0  0  0  0  0
    6.3727   -1.9036   -1.7994 C   0  0  0  0  0  0  0  0  0  0  0  0
    2.4273   -0.0563   -0.4609 H   0  0  0  0  0  0  0  0  0  0  0  0
   -0.5907   -2.0341   -3.4253 H   0  0  0  0  0  0  0  0  0  0  0  0
    0.0346   -4.4469   -3.4458 H   0  0  0  0  0  0  0  0  0  0  0  0
    1.8987   -5.2436   -2.1004 H   0  0  0  0  0  0  0  0  0  0  0  0
    3.9586   -5.5981   -1.0154 H   0  0  0  0  0  0  0  0  0  0  0  0
    2.4924   -5.4851    0.0110 H   0  0  0  0  0  0  0  0  0  0  0  0
    2.9208   -6.8930    1.7757 H   0  0  0  0  0  0  0  0  0  0  0  0
    4.2328   -7.4815    3.7688 H   0  0  0  0  0  0  0  0  0  0  0  0
    6.3909   -6.3451    4.2191 H   0  0  0  0  0  0  0  0  0  0  0  0
    7.2273   -4.6090    2.6540 H   0  0  0  0  0  0  0  0  0  0  0  0
    5.9178   -3.9956    0.6523 H   0  0  0  0  0  0  0  0  0  0  0  0
    3.3987   -1.6518   -3.4684 H   0  0  0  0  0  0  0  0  0  0  0  0
    4.3655   -3.4281   -4.6142 H   0  0  0  0  0  0  0  0  0  0  0  0
    8.7297   -4.0455   -3.0032 H   0  0  0  0  0  0  0  0  0  0  0  0
   10.0991   -2.7410   -1.3647 H   0  0  0  0  0  0  0  0  0  0  0  0
    8.9784   -0.9134   -0.0750 H   0  0  0  0  0  0  0  0  0  0  0  0
  1  2  2  0  0  0  0
  2  3  1  0  0  0  0
  2 19  1  0  0  0  0
  3  4  1  0  0  0  0
  3 30  1  0  0  0  0
  4  5  2  0  0  0  0
  4 10  1  0  0  0  0
  5  6  1  0  0  0  0
  5  7  1  0  0  0  0
  7  8  2  0  0  0  0
  7 31  1  0  0  0  0
  8  9  1  0  0  0  0
  8 32  1  0  0  0  0
  9 10  2  0  0  0  0
  9 33  1  0  0  0  0
 10 11  1  0  0  0  0
 11 12  1  0  0  0  0
 12 13  1  0  0  0  0
 12 34  1  0  0  0  0
 12 35  1  0  0  0  0
 13 14  2  0  0  0  0
 13 18  1  0  0  0  0
 14 15  1  0  0  0  0
 14 36  1  0  0  0  0
 15 16  2  0  0  0  0
 15 37  1  0  0  0  0
 16 17  1  0  0  0  0
 16 38  1  0  0  0  0
 17 18  2  0  0  0  0
 17 39  1  0  0  0  0
 18 40  1  0  0  0  0
 19 20  2  0  0  0  0
 19 29  1  0  0  0  0
 20 21  1  0  0  0  0
 20 41  1  0  0  0  0
 21 22  1  0  0  0  0
 21 42  1  0  0  0  0
 22 23  2  0  0  0  0
 22 24  1  0  0  0  0
 24 25  2  0  0  0  0
 24 29  1  0  0  0  0
 25 26  1  0  0  0  0
 25 43  1  0  0  0  0
 26 27  2  0  0  0  0
 26 44  1  0  0  0  0
 27 28  1  0  0  0  0
 27 45  1  0  0  0  0
 28 29  2  0  0  0  0
M  END
$$$$
