
 OpenBabel01122422493D

 42 44  0  0  0  0  0  0  0  0999 V2000
    8.9061   -2.6457    6.4148 C   0  0  0  0  0  0  0  0  0  0  0  0
    8.6920   -2.4940    5.0077 O   0  0  0  0  0  0  0  0  0  0  0  0
    8.7225   -1.2125    4.5803 C   0  0  0  0  0  0  0  0  0  0  0  0
    8.8779   -0.2248    5.2842 O   0  0  0  0  0  0  0  0  0  0  0  0
    8.4617   -1.1266    3.1290 C   0  0  0  0  0  0  0  0  0  0  0  0
    7.8740    0.0449    2.6439 C   0  0  0  0  0  0  0  0  0  0  0  0
    7.6305    0.1797    1.2800 C   0  0  0  0  0  0  0  0  0  0  0  0
    7.9771   -0.8436    0.3937 C   0  0  0  0  0  0  0  0  0  0  0  0
    7.7240   -0.6103   -0.8968 F   0  0  0  0  0  0  0  0  0  0  0  0
    8.5648   -2.0292    0.8491 C   0  0  0  0  0  0  0  0  0  0  0  0
    8.9715   -3.1377    0.0528 N   0  0  0  0  0  0  0  0  0  0  0  0
    8.8801   -3.3025   -1.3140 C   0  0  0  0  0  0  0  0  0  0  0  0
    8.3301   -2.5470   -2.1045 O   0  0  0  0  0  0  0  0  0  0  0  0
    9.5160   -4.5704   -1.8328 C   0  0  0  0  0  0  0  0  0  0  0  0
    9.0803   -5.0453   -3.0166 C   0  0  0  0  0  0  0  0  0  0  0  0
    9.6494   -6.1616   -3.6357 N   0  0  0  0  0  0  0  0  0  0  0  0
    9.1295   -6.6783   -4.8698 C   0  0  0  0  0  0  0  0  0  0  0  0
    7.7461   -6.8400   -5.0463 C   0  0  0  0  0  0  0  0  0  0  0  0
    7.2509   -7.4790   -6.1886 C   0  0  0  0  0  0  0  0  0  0  0  0
    8.1310   -7.9128   -7.1726 C   0  0  0  0  0  0  0  0  0  0  0  0
    7.6553   -8.5496   -8.2504 F   0  0  0  0  0  0  0  0  0  0  0  0
    9.4974   -7.7077   -7.0468 C   0  0  0  0  0  0  0  0  0  0  0  0
    9.9955   -7.0984   -5.8931 C   0  0  0  0  0  0  0  0  0  0  0  0
   10.7142   -6.8570   -3.0304 C   0  0  0  0  0  0  0  0  0  0  0  0
   11.2564   -7.8793   -3.4458 O   0  0  0  0  0  0  0  0  0  0  0  0
   11.1905   -6.3156   -1.7299 C   0  0  0  0  0  0  0  0  0  0  0  0
   10.6240   -5.2356   -1.1802 C   0  0  0  0  0  0  0  0  0  0  0  0
    8.8036   -2.1467    2.2316 C   0  0  0  0  0  0  0  0  0  0  0  0
    9.4129   -3.2650    2.6676 F   0  0  0  0  0  0  0  0  0  0  0  0
    8.9156   -3.7152    6.6441 H   0  0  0  0  0  0  0  0  0  0  0  0
    8.0928   -2.1771    6.9779 H   0  0  0  0  0  0  0  0  0  0  0  0
    9.8724   -2.2212    6.7059 H   0  0  0  0  0  0  0  0  0  0  0  0
    7.6053    0.8543    3.3234 H   0  0  0  0  0  0  0  0  0  0  0  0
    7.1771    1.0864    0.8873 H   0  0  0  0  0  0  0  0  0  0  0  0
    9.3544   -3.9047    0.5940 H   0  0  0  0  0  0  0  0  0  0  0  0
    8.2886   -4.5407   -3.5674 H   0  0  0  0  0  0  0  0  0  0  0  0
    7.0470   -6.5469   -4.2693 H   0  0  0  0  0  0  0  0  0  0  0  0
    6.1882   -7.6669   -6.3013 H   0  0  0  0  0  0  0  0  0  0  0  0
   10.1699   -8.0414   -7.8305 H   0  0  0  0  0  0  0  0  0  0  0  0
   11.0700   -6.9549   -5.8017 H   0  0  0  0  0  0  0  0  0  0  0  0
   12.0157   -6.8452   -1.2700 H   0  0  0  0  0  0  0  0  0  0  0  0
   11.0264   -4.8493   -0.2513 H   0  0  0  0  0  0  0  0  0  0  0  0
  1  2  1  0  0  0  0
  1 30  1  0  0  0  0
  1 31  1  0  0  0  0
  1 32  1  0  0  0  0
  2  3  1  0  0  0  0
  3  4  2  0  0  0  0
  3  5  1  0  0  0  0
  5  6  2  0  0  0  0
  5 28  1  0  0  0  0
  6  7  1  0  0  0  0
  6 33  1  0  0  0  0
  7  8  2  0  0  0  0
  7 34  1  0  0  0  0
  8  9  1  0  0  0  0
  8 10  1  0  0  0  0
 10 11  1  0  0  0  0
 10 28  2  0  0  0  0
 11 12  1  0  0  0  0
 11 35  1  0  0  0  0
 12 13  2  0  0  0  0
 12 14  1  0  0  0  0
 14 15  2  0  0  0  0
 14 27  1  0  0  0  0
 15 16  1  0  0  0  0
 15 36  1  0  0  0  0
 16 17  1  0  0  0  0
 16 24  1  0  0  0  0
 17 18  2  0  0  0  0
 17 23  1  0  0  0  0
 18 19  1  0  0  0  0
 18 37  1  0  0  0  0
 19 20  2  0  0  0  0
 19 38  1  0  0  0  0
 20 21  1  0  0  0  0
 20 22  1  0  0  0  0
 22 23  2  0  0  0  0
 22 39  1  0  0  0  0
 23 40  1  0  0  0  0
 24 25  2  0  0  0  0
 24 26  1  0  0  0  0
 26 27  2  0  0  0  0
 26 41  1  0  0  0  0
 27 42  1  0  0  0  0
 28 29  1  0  0  0  0
M  END
$$$$
