
 OpenBabel01122422493D

 43 46  0  0  0  0  0  0  0  0999 V2000
    1.0890   -0.0163   -0.0425 N   0  0  0  0  0  0  0  0  0  0  0  0
    2.3500   -0.0163   -0.0425 C   0  0  0  0  0  0  0  0  0  0  0  0
    3.8700   -0.0163   -0.0425 C   0  0  0  0  0  0  0  0  0  0  0  0
    4.5361    1.1532    0.1612 C   0  0  0  0  0  0  0  0  0  0  0  0
    3.8989    2.4090    0.3246 N   0  0  0  0  0  0  0  0  0  0  0  0
    4.5046    3.6450    0.6043 C   0  0  0  0  0  0  0  0  0  0  0  0
    5.7150    3.7759    0.7595 O   0  0  0  0  0  0  0  0  0  0  0  0
    3.6605    4.8346    0.7186 C   0  0  0  0  0  0  0  0  0  0  0  0
    4.0793    6.1082    1.0723 C   0  0  0  0  0  0  0  0  0  0  0  0
    2.9773    6.9686    0.9332 C   0  0  0  0  0  0  0  0  0  0  0  0
    1.9244    6.1890    0.4994 C   0  0  0  0  0  0  0  0  0  0  0  0
    0.5879    6.5639    0.0489 C   0  0  0  0  0  0  0  0  0  0  0  0
   -0.4302    5.6496   -0.1664 C   0  0  0  0  0  0  0  0  0  0  0  0
   -1.6219    6.1047   -0.7287 C   0  0  0  0  0  0  0  0  0  0  0  0
   -1.7651    7.4502   -1.0514 C   0  0  0  0  0  0  0  0  0  0  0  0
   -0.7165    8.3027   -0.7611 C   0  0  0  0  0  0  0  0  0  0  0  0
    0.4489    7.8922   -0.2162 N   0  0  0  0  0  0  0  0  0  0  0  0
    2.3216    4.8658    0.4055 O   0  0  0  0  0  0  0  0  0  0  0  0
    5.9866    1.0556    0.2389 C   0  0  0  0  0  0  0  0  0  0  0  0
    6.6230   -0.1180    0.1682 C   0  0  0  0  0  0  0  0  0  0  0  0
    5.9438   -1.3070    0.0196 N   0  0  0  0  0  0  0  0  0  0  0  0
    6.6516   -2.5448   -0.0518 C   0  0  0  0  0  0  0  0  0  0  0  0
    7.7533   -2.6706   -0.9061 C   0  0  0  0  0  0  0  0  0  0  0  0
    8.3854   -3.9051   -1.0545 C   0  0  0  0  0  0  0  0  0  0  0  0
    7.9523   -5.0037   -0.3144 C   0  0  0  0  0  0  0  0  0  0  0  0
    6.8904   -4.8728    0.5787 C   0  0  0  0  0  0  0  0  0  0  0  0
    6.2355   -3.6489    0.7038 C   0  0  0  0  0  0  0  0  0  0  0  0
    4.5477   -1.3356   -0.1096 C   0  0  0  0  0  0  0  0  0  0  0  0
    3.8562   -2.3403   -0.2915 O   0  0  0  0  0  0  0  0  0  0  0  0
    2.8843    2.4522    0.2652 H   0  0  0  0  0  0  0  0  0  0  0  0
    5.0915    6.3802    1.3418 H   0  0  0  0  0  0  0  0  0  0  0  0
    2.9504    8.0429    1.0637 H   0  0  0  0  0  0  0  0  0  0  0  0
   -0.3014    4.6010    0.0747 H   0  0  0  0  0  0  0  0  0  0  0  0
   -2.4268    5.4052   -0.9348 H   0  0  0  0  0  0  0  0  0  0  0  0
   -2.6686    7.8228   -1.5218 H   0  0  0  0  0  0  0  0  0  0  0  0
   -0.7802    9.3656   -0.9791 H   0  0  0  0  0  0  0  0  0  0  0  0
    6.6119    1.9266    0.3785 H   0  0  0  0  0  0  0  0  0  0  0  0
    7.7014   -0.1609    0.2759 H   0  0  0  0  0  0  0  0  0  0  0  0
    8.0789   -1.8345   -1.5197 H   0  0  0  0  0  0  0  0  0  0  0  0
    9.1977   -4.0142   -1.7665 H   0  0  0  0  0  0  0  0  0  0  0  0
    8.4339   -5.9690   -0.4415 H   0  0  0  0  0  0  0  0  0  0  0  0
    6.5571   -5.7245    1.1658 H   0  0  0  0  0  0  0  0  0  0  0  0
    5.4055   -3.5628    1.4007 H   0  0  0  0  0  0  0  0  0  0  0  0
  1  2  3  0  0  0  0
  2  3  1  0  0  0  0
  3  4  2  0  0  0  0
  3 28  1  0  0  0  0
  4  5  1  0  0  0  0
  4 19  1  0  0  0  0
  5  6  1  0  0  0  0
  5 30  1  0  0  0  0
  6  7  2  0  0  0  0
  6  8  1  0  0  0  0
  8  9  2  0  0  0  0
  8 18  1  0  0  0  0
  9 10  1  0  0  0  0
  9 31  1  0  0  0  0
 10 11  2  0  0  0  0
 10 32  1  0  0  0  0
 11 12  1  0  0  0  0
 11 18  1  0  0  0  0
 12 13  2  0  0  0  0
 12 17  1  0  0  0  0
 13 14  1  0  0  0  0
 13 33  1  0  0  0  0
 14 15  2  0  0  0  0
 14 34  1  0  0  0  0
 15 16  1  0  0  0  0
 15 35  1  0  0  0  0
 16 17  2  0  0  0  0
 16 36  1  0  0  0  0
 19 20  2  0  0  0  0
 19 37  1  0  0  0  0
 20 21  1  0  0  0  0
 20 38  1  0  0  0  0
 21 22  1  0  0  0  0
 21 28  1  0  0  0  0
 22 23  2  0  0  0  0
 22 27  1  0  0  0  0
 23 24  1  0  0  0  0
 23 39  1  0  0  0  0
 24 25  2  0  0  0  0
 24 40  1  0  0  0  0
 25 26  1  0  0  0  0
 25 41  1  0  0  0  0
 26 27  2  0  0  0  0
 26 42  1  0  0  0  0
 27 43  1  0  0  0  0
 28 29  2  0  0  0  0
M  END
$$$$
