
 OpenBabel01122422493D

 46 49  0  0  0  0  0  0  0  0999 V2000
    1.0350    0.2387    0.0905 O   0  0  0  0  0  0  0  0  0  0  0  0
    2.2109   -0.0922    0.2074 C   0  0  0  0  0  0  0  0  0  0  0  0
    2.8164   -1.2074   -0.3454 N   0  0  0  0  0  0  0  0  0  0  0  0
    2.1594   -2.1364   -1.1557 C   0  0  0  0  0  0  0  0  0  0  0  0
    2.7656   -3.3685   -1.3951 C   0  0  0  0  0  0  0  0  0  0  0  0
    2.0828   -4.3308   -2.1578 C   0  0  0  0  0  0  0  0  0  0  0  0
    2.6411   -5.7217   -2.3593 C   0  0  0  0  0  0  0  0  0  0  0  0
    2.2208   -6.6919   -1.2766 C   0  0  0  0  0  0  0  0  0  0  0  0
    1.0528   -7.4572   -1.4135 C   0  0  0  0  0  0  0  0  0  0  0  0
    0.6296   -8.2992   -0.3823 C   0  0  0  0  0  0  0  0  0  0  0  0
    1.3706   -8.3886    0.7942 C   0  0  0  0  0  0  0  0  0  0  0  0
    2.5419   -7.6477    0.9356 C   0  0  0  0  0  0  0  0  0  0  0  0
    2.9657   -6.8039   -0.0934 C   0  0  0  0  0  0  0  0  0  0  0  0
    0.8307   -4.0013   -2.6794 C   0  0  0  0  0  0  0  0  0  0  0  0
    0.3190   -2.7445   -2.4129 C   0  0  0  0  0  0  0  0  0  0  0  0
    0.9583   -1.8256   -1.6718 N   0  0  0  0  0  0  0  0  0  0  0  0
    3.1330    0.6778    1.0597 C   0  0  0  0  0  0  0  0  0  0  0  0
    4.4458    0.3715    1.1400 N   0  0  0  0  0  0  0  0  0  0  0  0
    4.9456    1.2118    2.0872 N   0  0  0  0  0  0  0  0  0  0  0  0
    6.2975    1.0862    2.5064 C   0  0  0  0  0  0  0  0  0  0  0  0
    6.7994    1.8223    3.5910 C   0  0  0  0  0  0  0  0  0  0  0  0
    8.1188    1.6313    4.0149 C   0  0  0  0  0  0  0  0  0  0  0  0
    8.9409    0.7199    3.3528 C   0  0  0  0  0  0  0  0  0  0  0  0
    8.4421    0.0073    2.2726 C   0  0  0  0  0  0  0  0  0  0  0  0
    9.2339   -0.8682    1.6375 F   0  0  0  0  0  0  0  0  0  0  0  0
    7.1328    0.1762    1.8422 C   0  0  0  0  0  0  0  0  0  0  0  0
    3.9899    2.0804    2.5644 C   0  0  0  0  0  0  0  0  0  0  0  0
    2.8303    1.7586    1.9158 C   0  0  0  0  0  0  0  0  0  0  0  0
    1.6514    2.3587    2.1298 O   0  0  0  0  0  0  0  0  0  0  0  0
    3.7708   -1.3738   -0.0569 H   0  0  0  0  0  0  0  0  0  0  0  0
    3.7313   -3.6025   -0.9610 H   0  0  0  0  0  0  0  0  0  0  0  0
    3.7362   -5.6796   -2.4179 H   0  0  0  0  0  0  0  0  0  0  0  0
    2.3233   -6.1056   -3.3385 H   0  0  0  0  0  0  0  0  0  0  0  0
    0.4560   -7.3951   -2.3205 H   0  0  0  0  0  0  0  0  0  0  0  0
   -0.2835   -8.8780   -0.4925 H   0  0  0  0  0  0  0  0  0  0  0  0
    1.0325   -9.0310    1.6030 H   0  0  0  0  0  0  0  0  0  0  0  0
    3.1209   -7.7182    1.8526 H   0  0  0  0  0  0  0  0  0  0  0  0
    3.8766   -6.2258    0.0391 H   0  0  0  0  0  0  0  0  0  0  0  0
    0.2525   -4.7032   -3.2676 H   0  0  0  0  0  0  0  0  0  0  0  0
   -0.6495   -2.4325   -2.7914 H   0  0  0  0  0  0  0  0  0  0  0  0
    6.1896    2.5325    4.1419 H   0  0  0  0  0  0  0  0  0  0  0  0
    8.5025    2.1865    4.8669 H   0  0  0  0  0  0  0  0  0  0  0  0
    9.9646    0.5580    3.6758 H   0  0  0  0  0  0  0  0  0  0  0  0
    6.7870   -0.4063    0.9935 H   0  0  0  0  0  0  0  0  0  0  0  0
    4.2019    2.8211    3.3177 H   0  0  0  0  0  0  0  0  0  0  0  0
    1.7288    3.0752    2.7801 H   0  0  0  0  0  0  0  0  0  0  0  0
  1  2  2  0  0  0  0
  2  3  1  0  0  0  0
  2 17  1  0  0  0  0
  3  4  1  0  0  0  0
  3 30  1  0  0  0  0
  4  5  2  0  0  0  0
  4 16  1  0  0  0  0
  5  6  1  0  0  0  0
  5 31  1  0  0  0  0
  6  7  1  0  0  0  0
  6 14  2  0  0  0  0
  7  8  1  0  0  0  0
  7 32  1  0  0  0  0
  7 33  1  0  0  0  0
  8  9  2  0  0  0  0
  8 13  1  0  0  0  0
  9 10  1  0  0  0  0
  9 34  1  0  0  0  0
 10 11  2  0  0  0  0
 10 35  1  0  0  0  0
 11 12  1  0  0  0  0
 11 36  1  0  0  0  0
 12 13  2  0  0  0  0
 12 37  1  0  0  0  0
 13 38  1  0  0  0  0
 14 15  1  0  0  0  0
 14 39  1  0  0  0  0
 15 16  2  0  0  0  0
 15 40  1  0  0  0  0
 17 18  2  0  0  0  0
 17 28  1  0  0  0  0
 18 19  1  0  0  0  0
 19 20  1  0  0  0  0
 19 27  1  0  0  0  0
 20 21  2  0  0  0  0
 20 26  1  0  0  0  0
 21 22  1  0  0  0  0
 21 41  1  0  0  0  0
 22 23  2  0  0  0  0
 22 42  1  0  0  0  0
 23 24  1  0  0  0  0
 23 43  1  0  0  0  0
 24 25  1  0  0  0  0
 24 26  2  0  0  0  0
 26 44  1  0  0  0  0
 27 28  2  0  0  0  0
 27 45  1  0  0  0  0
 28 29  1  0  0  0  0
 29 46  1  0  0  0  0
M  END
$$$$
