
 OpenBabel01122422453D

 49 52  0  0  0  0  0  0  0  0999 V2000
    7.2711    2.7937   -0.7657 C   0  0  0  0  0  0  0  0  0  0  0  0
    6.3502    1.7988   -1.1855 O   0  0  0  0  0  0  0  0  0  0  0  0
    5.0269    1.9604   -0.8613 C   0  0  0  0  0  0  0  0  0  0  0  0
    4.5582    3.0775   -0.1641 C   0  0  0  0  0  0  0  0  0  0  0  0
    3.1973    3.2275    0.1067 C   0  0  0  0  0  0  0  0  0  0  0  0
    2.2658    2.2747   -0.2947 C   0  0  0  0  0  0  0  0  0  0  0  0
    0.8360    2.4023    0.0488 C   0  0  0  0  0  0  0  0  0  0  0  0
   -0.1815    1.9226   -0.7893 C   0  0  0  0  0  0  0  0  0  0  0  0
   -1.5013    2.0395   -0.3858 C   0  0  0  0  0  0  0  0  0  0  0  0
   -1.8864    2.6037    0.7754 N   0  0  0  0  0  0  0  0  0  0  0  0
   -0.9034    3.0669    1.5718 C   0  0  0  0  0  0  0  0  0  0  0  0
    0.4410    2.9845    1.2610 C   0  0  0  0  0  0  0  0  0  0  0  0
    2.7528    1.1564   -0.9892 C   0  0  0  0  0  0  0  0  0  0  0  0
    4.1230    0.9526   -1.2772 C   0  0  0  0  0  0  0  0  0  0  0  0
    4.5419   -0.3089   -1.9548 C   0  0  0  0  0  0  0  0  0  0  0  0
    3.6839   -0.9877   -2.8437 C   0  0  0  0  0  0  0  0  0  0  0  0
    4.0462   -2.1987   -3.4423 C   0  0  0  0  0  0  0  0  0  0  0  0
    5.2991   -2.7534   -3.1867 C   0  0  0  0  0  0  0  0  0  0  0  0
    5.7315   -4.0448   -3.7705 C   0  0  0  0  0  0  0  0  0  0  0  0
    6.9152   -4.2213   -4.0535 O   0  0  0  0  0  0  0  0  0  0  0  0
    4.7023   -5.1238   -3.9753 C   0  0  0  0  0  0  0  0  0  0  0  0
    4.0565   -5.0902   -5.3355 C   0  0  0  0  0  0  0  0  0  0  0  0
    2.7739   -4.8925   -5.3958 N   0  0  0  0  0  0  0  0  0  0  0  0
    2.2181   -4.8347   -6.6407 N   0  0  0  0  0  0  0  0  0  0  0  0
    2.8960   -4.9399   -7.8282 C   0  0  0  0  0  0  0  0  0  0  0  0
    2.3554   -4.8344   -8.9227 O   0  0  0  0  0  0  0  0  0  0  0  0
    4.3446   -5.1951   -7.7204 C   0  0  0  0  0  0  0  0  0  0  0  0
    4.9249   -5.2761   -6.5214 C   0  0  0  0  0  0  0  0  0  0  0  0
    6.1849   -2.0892   -2.3384 C   0  0  0  0  0  0  0  0  0  0  0  0
    5.7901   -0.9074   -1.7106 C   0  0  0  0  0  0  0  0  0  0  0  0
    8.2677    2.4858   -1.0937 H   0  0  0  0  0  0  0  0  0  0  0  0
    7.2924    2.8791    0.3261 H   0  0  0  0  0  0  0  0  0  0  0  0
    7.0421    3.7529   -1.2391 H   0  0  0  0  0  0  0  0  0  0  0  0
    5.2251    3.8561    0.1890 H   0  0  0  0  0  0  0  0  0  0  0  0
    2.8903    4.1233    0.6467 H   0  0  0  0  0  0  0  0  0  0  0  0
    0.0364    1.4593   -1.7474 H   0  0  0  0  0  0  0  0  0  0  0  0
   -2.3106    1.6639   -1.0086 H   0  0  0  0  0  0  0  0  0  0  0  0
   -1.2307    3.5151    2.5075 H   0  0  0  0  0  0  0  0  0  0  0  0
    1.1695    3.3613    1.9726 H   0  0  0  0  0  0  0  0  0  0  0  0
    2.0354    0.3921   -1.2824 H   0  0  0  0  0  0  0  0  0  0  0  0
    2.7024   -0.5873   -3.0883 H   0  0  0  0  0  0  0  0  0  0  0  0
    3.3339   -2.6718   -4.1115 H   0  0  0  0  0  0  0  0  0  0  0  0
    3.9391   -5.0580   -3.1905 H   0  0  0  0  0  0  0  0  0  0  0  0
    5.1941   -6.0933   -3.8368 H   0  0  0  0  0  0  0  0  0  0  0  0
    1.2185   -4.6663   -6.6889 H   0  0  0  0  0  0  0  0  0  0  0  0
    4.8916   -5.3083   -8.6469 H   0  0  0  0  0  0  0  0  0  0  0  0
    5.9842   -5.4566   -6.3907 H   0  0  0  0  0  0  0  0  0  0  0  0
    7.1731   -2.4921   -2.1424 H   0  0  0  0  0  0  0  0  0  0  0  0
    6.4949   -0.4661   -1.0083 H   0  0  0  0  0  0  0  0  0  0  0  0
  1  2  1  0  0  0  0
  1 31  1  0  0  0  0
  1 32  1  0  0  0  0
  1 33  1  0  0  0  0
  2  3  1  0  0  0  0
  3  4  2  0  0  0  0
  3 14  1  0  0  0  0
  4  5  1  0  0  0  0
  4 34  1  0  0  0  0
  5  6  2  0  0  0  0
  5 35  1  0  0  0  0
  6  7  1  0  0  0  0
  6 13  1  0  0  0  0
  7  8  2  0  0  0  0
  7 12  1  0  0  0  0
  8  9  1  0  0  0  0
  8 36  1  0  0  0  0
  9 10  2  0  0  0  0
  9 37  1  0  0  0  0
 10 11  1  0  0  0  0
 11 12  2  0  0  0  0
 11 38  1  0  0  0  0
 12 39  1  0  0  0  0
 13 14  2  0  0  0  0
 13 40  1  0  0  0  0
 14 15  1  0  0  0  0
 15 16  2  0  0  0  0
 15 30  1  0  0  0  0
 16 17  1  0  0  0  0
 16 41  1  0  0  0  0
 17 18  2  0  0  0  0
 17 42  1  0  0  0  0
 18 19  1  0  0  0  0
 18 29  1  0  0  0  0
 19 20  2  0  0  0  0
 19 21  1  0  0  0  0
 21 22  1  0  0  0  0
 21 43  1  0  0  0  0
 21 44  1  0  0  0  0
 22 23  2  0  0  0  0
 22 28  1  0  0  0  0
 23 24  1  0  0  0  0
 24 25  1  0  0  0  0
 24 45  1  0  0  0  0
 25 26  2  0  0  0  0
 25 27  1  0  0  0  0
 27 28  2  0  0  0  0
 27 46  1  0  0  0  0
 28 47  1  0  0  0  0
 29 30  2  0  0  0  0
 29 48  1  0  0  0  0
 30 49  1  0  0  0  0
M  END
$$$$
