
 OpenBabel01122422493D

 40 43  0  0  0  0  0  0  0  0999 V2000
    1.0411    0.3703   -0.0622 O   0  0  0  0  0  0  0  0  0  0  0  0
    2.2498    0.1559   -0.0892 C   0  0  0  0  0  0  0  0  0  0  0  0
    2.9140   -0.6982   -0.9420 N   0  0  0  0  0  0  0  0  0  0  0  0
    2.2541   -1.4342   -1.8898 C   0  0  0  0  0  0  0  0  0  0  0  0
    0.9920   -1.2543   -2.2605 N   0  0  0  0  0  0  0  0  0  0  0  0
    0.7471   -2.2980   -3.0647 N   0  0  0  0  0  0  0  0  0  0  0  0
   -0.5630   -2.5382   -3.5502 C   0  0  0  0  0  0  0  0  0  0  0  0
   -0.8680   -3.6807   -4.3030 C   0  0  0  0  0  0  0  0  0  0  0  0
   -2.1856   -3.9012   -4.7235 C   0  0  0  0  0  0  0  0  0  0  0  0
   -3.1839   -2.9847   -4.4018 C   0  0  0  0  0  0  0  0  0  0  0  0
   -4.4401   -3.2128   -4.8076 F   0  0  0  0  0  0  0  0  0  0  0  0
   -2.8831   -1.8490   -3.6638 C   0  0  0  0  0  0  0  0  0  0  0  0
   -3.8461   -0.9697   -3.3553 F   0  0  0  0  0  0  0  0  0  0  0  0
   -1.5818   -1.6186   -3.2328 C   0  0  0  0  0  0  0  0  0  0  0  0
    1.9120   -3.0074   -3.2371 C   0  0  0  0  0  0  0  0  0  0  0  0
    2.8803   -2.4692   -2.5223 N   0  0  0  0  0  0  0  0  0  0  0  0
    3.0898    0.8415    0.9339 C   0  0  0  0  0  0  0  0  0  0  0  0
    4.4371    0.7383    0.8311 N   0  0  0  0  0  0  0  0  0  0  0  0
    5.1314    1.4199    1.7654 C   0  0  0  0  0  0  0  0  0  0  0  0
    6.6090    1.4189    1.7023 C   0  0  0  0  0  0  0  0  0  0  0  0
    7.3116    0.7366    0.6902 C   0  0  0  0  0  0  0  0  0  0  0  0
    8.7106    0.7551    0.6375 C   0  0  0  0  0  0  0  0  0  0  0  0
    9.4276    1.4575    1.5967 C   0  0  0  0  0  0  0  0  0  0  0  0
   10.7654    1.4758    1.5423 F   0  0  0  0  0  0  0  0  0  0  0  0
    8.7745    2.1422    2.6091 C   0  0  0  0  0  0  0  0  0  0  0  0
    7.3777    2.1213    2.6590 C   0  0  0  0  0  0  0  0  0  0  0  0
    4.5722    2.1384    2.7639 N   0  0  0  0  0  0  0  0  0  0  0  0
    3.2334    2.1879    2.8215 C   0  0  0  0  0  0  0  0  0  0  0  0
    2.4324    1.5525    1.9186 C   0  0  0  0  0  0  0  0  0  0  0  0
    3.8942   -0.8975   -0.8035 H   0  0  0  0  0  0  0  0  0  0  0  0
   -0.1177   -4.4220   -4.5623 H   0  0  0  0  0  0  0  0  0  0  0  0
   -2.4450   -4.7875   -5.2951 H   0  0  0  0  0  0  0  0  0  0  0  0
   -1.3838   -0.7230   -2.6452 H   0  0  0  0  0  0  0  0  0  0  0  0
    1.9925   -3.8849   -3.8579 H   0  0  0  0  0  0  0  0  0  0  0  0
    6.7696    0.1847   -0.0752 H   0  0  0  0  0  0  0  0  0  0  0  0
    9.2414    0.2278   -0.1486 H   0  0  0  0  0  0  0  0  0  0  0  0
    9.3471    2.6895    3.3510 H   0  0  0  0  0  0  0  0  0  0  0  0
    6.8830    2.6697    3.4608 H   0  0  0  0  0  0  0  0  0  0  0  0
    2.8146    2.7751    3.6323 H   0  0  0  0  0  0  0  0  0  0  0  0
    1.3528    1.6083    1.9748 H   0  0  0  0  0  0  0  0  0  0  0  0
  1  2  2  0  0  0  0
  2  3  1  0  0  0  0
  2 17  1  0  0  0  0
  3  4  1  0  0  0  0
  3 30  1  0  0  0  0
  4  5  2  0  0  0  0
  4 16  1  0  0  0  0
  5  6  1  0  0  0  0
  6  7  1  0  0  0  0
  6 15  1  0  0  0  0
  7  8  2  0  0  0  0
  7 14  1  0  0  0  0
  8  9  1  0  0  0  0
  8 31  1  0  0  0  0
  9 10  2  0  0  0  0
  9 32  1  0  0  0  0
 10 11  1  0  0  0  0
 10 12  1  0  0  0  0
 12 13  1  0  0  0  0
 12 14  2  0  0  0  0
 14 33  1  0  0  0  0
 15 16  2  0  0  0  0
 15 34  1  0  0  0  0
 17 18  2  0  0  0  0
 17 29  1  0  0  0  0
 18 19  1  0  0  0  0
 19 20  1  0  0  0  0
 19 27  2  0  0  0  0
 20 21  2  0  0  0  0
 20 26  1  0  0  0  0
 21 22  1  0  0  0  0
 21 35  1  0  0  0  0
 22 23  2  0  0  0  0
 22 36  1  0  0  0  0
 23 24  1  0  0  0  0
 23 25  1  0  0  0  0
 25 26  2  0  0  0  0
 25 37  1  0  0  0  0
 26 38  1  0  0  0  0
 27 28  1  0  0  0  0
 28 29  2  0  0  0  0
 28 39  1  0  0  0  0
 29 40  1  0  0  0  0
M  END
$$$$
