
 OpenBabel01122422493D

 40 43  0  0  0  0  0  0  0  0999 V2000
    5.2816    0.9446    1.6504 O   0  0  0  0  0  0  0  0  0  0  0  0
    4.4669    0.3979    0.9103 C   0  0  0  0  0  0  0  0  0  0  0  0
    3.1290    0.2156    1.2106 N   0  0  0  0  0  0  0  0  0  0  0  0
    2.4945    0.6902    2.3416 C   0  0  0  0  0  0  0  0  0  0  0  0
    2.9298    1.7135    3.0988 C   0  0  0  0  0  0  0  0  0  0  0  0
    2.2489    2.1483    4.3005 C   0  0  0  0  0  0  0  0  0  0  0  0
    2.7230    3.2782    5.1093 C   0  0  0  0  0  0  0  0  0  0  0  0
    3.6640    3.0816    6.1266 C   0  0  0  0  0  0  0  0  0  0  0  0
    4.0920    4.1859    6.8447 C   0  0  0  0  0  0  0  0  0  0  0  0
    3.6569    5.4448    6.6172 N   0  0  0  0  0  0  0  0  0  0  0  0
    2.7639    5.6095    5.6177 C   0  0  0  0  0  0  0  0  0  0  0  0
    2.2756    4.5717    4.8437 C   0  0  0  0  0  0  0  0  0  0  0  0
    1.1380    1.4866    4.6866 C   0  0  0  0  0  0  0  0  0  0  0  0
    0.6521    0.4469    3.9337 N   0  0  0  0  0  0  0  0  0  0  0  0
    1.2200    0.0047    2.7613 C   0  0  0  0  0  0  0  0  0  0  0  0
    0.7372   -0.9119    2.0979 O   0  0  0  0  0  0  0  0  0  0  0  0
    4.9359   -0.1348   -0.3995 C   0  0  0  0  0  0  0  0  0  0  0  0
    4.0088   -0.6509   -1.2524 N   0  0  0  0  0  0  0  0  0  0  0  0
    4.4402   -1.0188   -2.4776 C   0  0  0  0  0  0  0  0  0  0  0  0
    3.5652   -1.6273   -3.3659 C   0  0  0  0  0  0  0  0  0  0  0  0
    3.9848   -2.0128   -4.6388 C   0  0  0  0  0  0  0  0  0  0  0  0
    3.1365   -2.6693   -5.4401 F   0  0  0  0  0  0  0  0  0  0  0  0
    5.2661   -1.7444   -5.0874 C   0  0  0  0  0  0  0  0  0  0  0  0
    6.1550   -1.1519   -4.2092 C   0  0  0  0  0  0  0  0  0  0  0  0
    7.4032   -0.8952   -4.6304 F   0  0  0  0  0  0  0  0  0  0  0  0
    5.7778   -0.8326   -2.8974 C   0  0  0  0  0  0  0  0  0  0  0  0
    6.7083   -0.3540   -1.9719 C   0  0  0  0  0  0  0  0  0  0  0  0
    6.2862   -0.0191   -0.6968 C   0  0  0  0  0  0  0  0  0  0  0  0
    2.6062   -0.4344    0.6231 H   0  0  0  0  0  0  0  0  0  0  0  0
    3.8197    2.2763    2.8305 H   0  0  0  0  0  0  0  0  0  0  0  0
    4.0608    2.0960    6.3500 H   0  0  0  0  0  0  0  0  0  0  0  0
    4.8195    4.0864    7.6428 H   0  0  0  0  0  0  0  0  0  0  0  0
    2.4432    6.6334    5.4480 H   0  0  0  0  0  0  0  0  0  0  0  0
    1.5681    4.7698    4.0484 H   0  0  0  0  0  0  0  0  0  0  0  0
    0.5800    1.7407    5.5802 H   0  0  0  0  0  0  0  0  0  0  0  0
   -0.1896   -0.0413    4.2307 H   0  0  0  0  0  0  0  0  0  0  0  0
    2.5425   -1.8334   -3.0631 H   0  0  0  0  0  0  0  0  0  0  0  0
    5.5752   -2.0120   -6.0906 H   0  0  0  0  0  0  0  0  0  0  0  0
    7.7595   -0.2539   -2.2343 H   0  0  0  0  0  0  0  0  0  0  0  0
    6.9954    0.3460    0.0420 H   0  0  0  0  0  0  0  0  0  0  0  0
  1  2  2  0  0  0  0
  2  3  1  0  0  0  0
  2 17  1  0  0  0  0
  3  4  1  0  0  0  0
  3 29  1  0  0  0  0
  4  5  2  0  0  0  0
  4 15  1  0  0  0  0
  5  6  1  0  0  0  0
  5 30  1  0  0  0  0
  6  7  1  0  0  0  0
  6 13  2  0  0  0  0
  7  8  2  0  0  0  0
  7 12  1  0  0  0  0
  8  9  1  0  0  0  0
  8 31  1  0  0  0  0
  9 10  2  0  0  0  0
  9 32  1  0  0  0  0
 10 11  1  0  0  0  0
 11 12  2  0  0  0  0
 11 33  1  0  0  0  0
 12 34  1  0  0  0  0
 13 14  1  0  0  0  0
 13 35  1  0  0  0  0
 14 15  1  0  0  0  0
 14 36  1  0  0  0  0
 15 16  2  0  0  0  0
 17 18  2  0  0  0  0
 17 28  1  0  0  0  0
 18 19  1  0  0  0  0
 19 20  2  0  0  0  0
 19 26  1  0  0  0  0
 20 21  1  0  0  0  0
 20 37  1  0  0  0  0
 21 22  1  0  0  0  0
 21 23  2  0  0  0  0
 23 24  1  0  0  0  0
 23 38  1  0  0  0  0
 24 25  1  0  0  0  0
 24 26  2  0  0  0  0
 26 27  1  0  0  0  0
 27 28  2  0  0  0  0
 27 39  1  0  0  0  0
 28 40  1  0  0  0  0
M  END
$$$$
