
 OpenBabel01122422493D

 48 51  0  0  0  0  0  0  0  0999 V2000
    2.8676   -0.4610   -1.1654 O   0  0  0  0  0  0  0  0  0  0  0  0
    2.2419    0.1889   -0.3336 C   0  0  0  0  0  0  0  0  0  0  0  0
    0.8681    0.1721   -0.2238 N   0  0  0  0  0  0  0  0  0  0  0  0
    0.0424   -0.6245   -1.1043 C   0  0  0  0  0  0  0  0  0  0  0  0
   -1.2716   -1.0067   -0.4585 C   0  0  0  0  0  0  0  0  0  0  0  0
   -1.3692   -2.1795    0.2902 C   0  0  0  0  0  0  0  0  0  0  0  0
   -2.5994   -2.5287    0.8423 C   0  0  0  0  0  0  0  0  0  0  0  0
   -3.6937   -1.6956    0.6488 C   0  0  0  0  0  0  0  0  0  0  0  0
   -3.5068   -0.5330   -0.0795 C   0  0  0  0  0  0  0  0  0  0  0  0
   -2.3256   -0.1659   -0.6283 N   0  0  0  0  0  0  0  0  0  0  0  0
    2.9644    1.0563    0.6335 C   0  0  0  0  0  0  0  0  0  0  0  0
    2.4446    1.2518    1.9181 C   0  0  0  0  0  0  0  0  0  0  0  0
    3.1175    2.0232    2.8687 C   0  0  0  0  0  0  0  0  0  0  0  0
    2.6285    2.2180    4.1798 N   0  0  0  0  0  0  0  0  0  0  0  0
    1.4342    1.7282    4.6899 C   0  0  0  0  0  0  0  0  0  0  0  0
    0.6328    1.0379    4.0680 O   0  0  0  0  0  0  0  0  0  0  0  0
    1.1524    2.1223    6.0717 C   0  0  0  0  0  0  0  0  0  0  0  0
    2.1477    2.4240    6.9258 N   0  0  0  0  0  0  0  0  0  0  0  0
    1.5393    2.6201    8.1526 O   0  0  0  0  0  0  0  0  0  0  0  0
    0.1972    2.4902    8.0211 C   0  0  0  0  0  0  0  0  0  0  0  0
   -0.1247    2.2075    6.7149 C   0  0  0  0  0  0  0  0  0  0  0  0
   -1.4835    2.0559    6.2088 C   0  0  0  0  0  0  0  0  0  0  0  0
   -1.8111    2.4773    4.9101 C   0  0  0  0  0  0  0  0  0  0  0  0
   -3.0917    2.2781    4.3871 C   0  0  0  0  0  0  0  0  0  0  0  0
   -4.0767    1.6857    5.1693 C   0  0  0  0  0  0  0  0  0  0  0  0
   -3.7821    1.2987    6.4750 C   0  0  0  0  0  0  0  0  0  0  0  0
   -2.4938    1.4800    6.9919 C   0  0  0  0  0  0  0  0  0  0  0  0
    4.3324    2.6148    2.5086 C   0  0  0  0  0  0  0  0  0  0  0  0
    4.8690    2.4120    1.2287 C   0  0  0  0  0  0  0  0  0  0  0  0
    4.1939    1.6242    0.2957 C   0  0  0  0  0  0  0  0  0  0  0  0
    0.3933    0.8945    0.3056 H   0  0  0  0  0  0  0  0  0  0  0  0
    0.5851   -1.5220   -1.4207 H   0  0  0  0  0  0  0  0  0  0  0  0
   -0.1509   -0.0255   -2.0009 H   0  0  0  0  0  0  0  0  0  0  0  0
   -0.5040   -2.8194    0.4336 H   0  0  0  0  0  0  0  0  0  0  0  0
   -2.7029   -3.4466    1.4143 H   0  0  0  0  0  0  0  0  0  0  0  0
   -4.6666   -1.9450    1.0565 H   0  0  0  0  0  0  0  0  0  0  0  0
   -4.3310    0.1530   -0.2534 H   0  0  0  0  0  0  0  0  0  0  0  0
    1.5221    0.7410    2.1619 H   0  0  0  0  0  0  0  0  0  0  0  0
    3.1942    2.7631    4.8258 H   0  0  0  0  0  0  0  0  0  0  0  0
   -0.3713    2.6387    8.9273 H   0  0  0  0  0  0  0  0  0  0  0  0
   -1.0713    2.9489    4.2680 H   0  0  0  0  0  0  0  0  0  0  0  0
   -3.3095    2.5755    3.3640 H   0  0  0  0  0  0  0  0  0  0  0  0
   -5.0701    1.5224    4.7598 H   0  0  0  0  0  0  0  0  0  0  0  0
   -4.5534    0.8399    7.0881 H   0  0  0  0  0  0  0  0  0  0  0  0
   -2.2927    1.1414    8.0050 H   0  0  0  0  0  0  0  0  0  0  0  0
    4.8857    3.2297    3.2137 H   0  0  0  0  0  0  0  0  0  0  0  0
    5.8249    2.8621    0.9634 H   0  0  0  0  0  0  0  0  0  0  0  0
    4.6230    1.4492   -0.6894 H   0  0  0  0  0  0  0  0  0  0  0  0
  1  2  2  0  0  0  0
  2  3  1  0  0  0  0
  2 11  1  0  0  0  0
  3  4  1  0  0  0  0
  3 31  1  0  0  0  0
  4  5  1  0  0  0  0
  4 32  1  0  0  0  0
  4 33  1  0  0  0  0
  5  6  2  0  0  0  0
  5 10  1  0  0  0  0
  6  7  1  0  0  0  0
  6 34  1  0  0  0  0
  7  8  2  0  0  0  0
  7 35  1  0  0  0  0
  8  9  1  0  0  0  0
  8 36  1  0  0  0  0
  9 10  2  0  0  0  0
  9 37  1  0  0  0  0
 11 12  2  0  0  0  0
 11 30  1  0  0  0  0
 12 13  1  0  0  0  0
 12 38  1  0  0  0  0
 13 14  1  0  0  0  0
 13 28  2  0  0  0  0
 14 15  1  0  0  0  0
 14 39  1  0  0  0  0
 15 16  2  0  0  0  0
 15 17  1  0  0  0  0
 17 18  2  0  0  0  0
 17 21  1  0  0  0  0
 18 19  1  0  0  0  0
 19 20  1  0  0  0  0
 20 21  2  0  0  0  0
 20 40  1  0  0  0  0
 21 22  1  0  0  0  0
 22 23  2  0  0  0  0
 22 27  1  0  0  0  0
 23 24  1  0  0  0  0
 23 41  1  0  0  0  0
 24 25  2  0  0  0  0
 24 42  1  0  0  0  0
 25 26  1  0  0  0  0
 25 43  1  0  0  0  0
 26 27  2  0  0  0  0
 26 44  1  0  0  0  0
 27 45  1  0  0  0  0
 28 29  1  0  0  0  0
 28 46  1  0  0  0  0
 29 30  2  0  0  0  0
 29 47  1  0  0  0  0
 30 48  1  0  0  0  0
M  END
$$$$
