
 OpenBabel01122422493D

 39 42  0  0  0  0  0  0  0  0999 V2000
    0.9647   -0.1118   -0.0735 O   0  0  0  0  0  0  0  0  0  0  0  0
    2.1723    0.0333    0.0920 C   0  0  0  0  0  0  0  0  0  0  0  0
    2.8802   -0.4383    1.1867 N   0  0  0  0  0  0  0  0  0  0  0  0
    2.3018   -1.2028    2.1841 C   0  0  0  0  0  0  0  0  0  0  0  0
    1.0899   -1.8437    2.1368 C   0  0  0  0  0  0  0  0  0  0  0  0
    0.8638   -2.4039    3.3690 N   0  0  0  0  0  0  0  0  0  0  0  0
   -0.2975   -3.0925    3.7841 C   0  0  0  0  0  0  0  0  0  0  0  0
   -0.6729   -3.0701    5.1336 C   0  0  0  0  0  0  0  0  0  0  0  0
   -1.8616   -3.6882    5.5328 C   0  0  0  0  0  0  0  0  0  0  0  0
   -2.6526   -4.3629    4.6008 C   0  0  0  0  0  0  0  0  0  0  0  0
   -2.2631   -4.4127    3.2640 C   0  0  0  0  0  0  0  0  0  0  0  0
   -1.0978   -3.7677    2.8585 C   0  0  0  0  0  0  0  0  0  0  0  0
   -0.7455   -3.8748    1.5689 F   0  0  0  0  0  0  0  0  0  0  0  0
    1.9008   -2.1634    4.2169 N   0  0  0  0  0  0  0  0  0  0  0  0
    2.7929   -1.5059    3.4668 C   0  0  0  0  0  0  0  0  0  0  0  0
    2.9821    0.7597   -0.8869 C   0  0  0  0  0  0  0  0  0  0  0  0
    4.1928    1.2537   -0.5662 N   0  0  0  0  0  0  0  0  0  0  0  0
    4.6159    1.9567   -1.6801 O   0  0  0  0  0  0  0  0  0  0  0  0
    3.6920    1.8501   -2.6644 C   0  0  0  0  0  0  0  0  0  0  0  0
    2.6419    1.0749   -2.2424 C   0  0  0  0  0  0  0  0  0  0  0  0
    1.4815    0.7229   -3.0502 C   0  0  0  0  0  0  0  0  0  0  0  0
    0.8986   -0.5523   -2.9379 C   0  0  0  0  0  0  0  0  0  0  0  0
   -0.2710   -0.8665   -3.6392 C   0  0  0  0  0  0  0  0  0  0  0  0
   -0.8395    0.0768   -4.4818 C   0  0  0  0  0  0  0  0  0  0  0  0
   -1.9659   -0.2211   -5.1431 F   0  0  0  0  0  0  0  0  0  0  0  0
   -0.2590    1.3272   -4.6465 C   0  0  0  0  0  0  0  0  0  0  0  0
    0.8922    1.6412   -3.9299 C   0  0  0  0  0  0  0  0  0  0  0  0
    1.4178    2.8647   -4.0923 F   0  0  0  0  0  0  0  0  0  0  0  0
    3.8347   -0.1127    1.3011 H   0  0  0  0  0  0  0  0  0  0  0  0
    0.3419   -1.8974    1.3598 H   0  0  0  0  0  0  0  0  0  0  0  0
   -0.0770   -2.5324    5.8691 H   0  0  0  0  0  0  0  0  0  0  0  0
   -2.1749   -3.6365    6.5730 H   0  0  0  0  0  0  0  0  0  0  0  0
   -3.5702   -4.8525    4.9170 H   0  0  0  0  0  0  0  0  0  0  0  0
   -2.8562   -4.9527    2.5326 H   0  0  0  0  0  0  0  0  0  0  0  0
    3.7406   -1.2311    3.9108 H   0  0  0  0  0  0  0  0  0  0  0  0
    3.9290    2.3707   -3.5818 H   0  0  0  0  0  0  0  0  0  0  0  0
    1.3165   -1.3089   -2.2820 H   0  0  0  0  0  0  0  0  0  0  0  0
   -0.7466   -1.8344   -3.5114 H   0  0  0  0  0  0  0  0  0  0  0  0
   -0.7072    2.0549   -5.3116 H   0  0  0  0  0  0  0  0  0  0  0  0
  1  2  2  0  0  0  0
  2  3  1  0  0  0  0
  2 16  1  0  0  0  0
  3  4  1  0  0  0  0
  3 29  1  0  0  0  0
  4  5  2  0  0  0  0
  4 15  1  0  0  0  0
  5  6  1  0  0  0  0
  5 30  1  0  0  0  0
  6  7  1  0  0  0  0
  6 14  1  0  0  0  0
  7  8  2  0  0  0  0
  7 12  1  0  0  0  0
  8  9  1  0  0  0  0
  8 31  1  0  0  0  0
  9 10  2  0  0  0  0
  9 32  1  0  0  0  0
 10 11  1  0  0  0  0
 10 33  1  0  0  0  0
 11 12  2  0  0  0  0
 11 34  1  0  0  0  0
 12 13  1  0  0  0  0
 14 15  2  0  0  0  0
 15 35  1  0  0  0  0
 16 17  2  0  0  0  0
 16 20  1  0  0  0  0
 17 18  1  0  0  0  0
 18 19  1  0  0  0  0
 19 20  2  0  0  0  0
 19 36  1  0  0  0  0
 20 21  1  0  0  0  0
 21 22  2  0  0  0  0
 21 27  1  0  0  0  0
 22 23  1  0  0  0  0
 22 37  1  0  0  0  0
 23 24  2  0  0  0  0
 23 38  1  0  0  0  0
 24 25  1  0  0  0  0
 24 26  1  0  0  0  0
 26 27  2  0  0  0  0
 26 39  1  0  0  0  0
 27 28  1  0  0  0  0
M  END
$$$$
