
 OpenBabel01122422493D

 49 52  0  0  0  0  0  0  0  0999 V2000
    2.0472   -1.2099   -0.3710 O   0  0  0  0  0  0  0  0  0  0  0  0
    2.1955   -0.0714    0.0624 C   0  0  0  0  0  0  0  0  0  0  0  0
    1.5650    0.3185    1.2212 N   0  0  0  0  0  0  0  0  0  0  0  0
    0.7430   -0.6021    1.9851 C   0  0  0  0  0  0  0  0  0  0  0  0
    1.5712   -1.3811    3.0020 C   0  0  0  0  0  0  0  0  0  0  0  0
    0.7238   -2.3267    3.7589 C   0  0  0  0  0  0  0  0  0  0  0  0
    0.0137   -2.1272    4.8449 N   0  0  0  0  0  0  0  0  0  0  0  0
   -0.5442   -3.3719    5.0643 C   0  0  0  0  0  0  0  0  0  0  0  0
   -1.4527   -3.6767    6.2069 C   0  0  0  0  0  0  0  0  0  0  0  0
   -0.8489   -3.4474    7.4081 F   0  0  0  0  0  0  0  0  0  0  0  0
   -2.5681   -2.8921    6.1896 F   0  0  0  0  0  0  0  0  0  0  0  0
   -0.1986   -4.2985    4.1541 N   0  0  0  0  0  0  0  0  0  0  0  0
    0.6446   -3.6035    3.2861 O   0  0  0  0  0  0  0  0  0  0  0  0
    3.0505    0.9707   -0.6155 C   0  0  0  0  0  0  0  0  0  0  0  0
    4.0741    0.6312   -1.4372 C   0  0  0  0  0  0  0  0  0  0  0  0
    4.4496   -0.7806   -1.6535 C   0  0  0  0  0  0  0  0  0  0  0  0
    3.8135   -1.5291   -2.6584 C   0  0  0  0  0  0  0  0  0  0  0  0
    4.2284   -2.8295   -2.9416 C   0  0  0  0  0  0  0  0  0  0  0  0
    5.2444   -3.4106   -2.1880 C   0  0  0  0  0  0  0  0  0  0  0  0
    5.8395   -2.6969   -1.1466 C   0  0  0  0  0  0  0  0  0  0  0  0
    5.4494   -1.3815   -0.8815 C   0  0  0  0  0  0  0  0  0  0  0  0
    4.8638    1.7723   -2.0608 C   0  0  0  0  0  0  0  0  0  0  0  0
    6.0479    1.4953   -2.9580 C   0  0  0  0  0  0  0  0  0  0  0  0
    6.0880    0.4487   -3.8822 C   0  0  0  0  0  0  0  0  0  0  0  0
    7.2392    0.1746   -4.6227 C   0  0  0  0  0  0  0  0  0  0  0  0
    8.3397    1.0156   -4.5252 C   0  0  0  0  0  0  0  0  0  0  0  0
    8.2837    2.1305   -3.6939 C   0  0  0  0  0  0  0  0  0  0  0  0
    7.1496    2.3644   -2.9060 C   0  0  0  0  0  0  0  0  0  0  0  0
    4.6042    3.0256   -1.8343 N   0  0  0  0  0  0  0  0  0  0  0  0
    3.5739    3.3182   -1.0121 N   0  0  0  0  0  0  0  0  0  0  0  0
    2.7875    2.4129   -0.3609 C   0  0  0  0  0  0  0  0  0  0  0  0
    1.9145    2.7934    0.4185 O   0  0  0  0  0  0  0  0  0  0  0  0
    1.5827    1.3034    1.4834 H   0  0  0  0  0  0  0  0  0  0  0  0
    0.2378   -1.2911    1.2969 H   0  0  0  0  0  0  0  0  0  0  0  0
   -0.0326   -0.0084    2.4815 H   0  0  0  0  0  0  0  0  0  0  0  0
    2.0461   -0.6821    3.7013 H   0  0  0  0  0  0  0  0  0  0  0  0
    2.3855   -1.9211    2.5042 H   0  0  0  0  0  0  0  0  0  0  0  0
   -1.7800   -4.7204    6.1932 H   0  0  0  0  0  0  0  0  0  0  0  0
    3.0134   -1.0863   -3.2492 H   0  0  0  0  0  0  0  0  0  0  0  0
    3.7621   -3.3817   -3.7530 H   0  0  0  0  0  0  0  0  0  0  0  0
    5.5660   -4.4259   -2.4052 H   0  0  0  0  0  0  0  0  0  0  0  0
    6.6121   -3.1672   -0.5432 H   0  0  0  0  0  0  0  0  0  0  0  0
    5.9317   -0.8399   -0.0707 H   0  0  0  0  0  0  0  0  0  0  0  0
    5.2270   -0.1733   -4.0722 H   0  0  0  0  0  0  0  0  0  0  0  0
    7.2621   -0.6915   -5.2798 H   0  0  0  0  0  0  0  0  0  0  0  0
    9.2304    0.8116   -5.1147 H   0  0  0  0  0  0  0  0  0  0  0  0
    9.1245    2.8181   -3.6562 H   0  0  0  0  0  0  0  0  0  0  0  0
    7.1333    3.2385   -2.2582 H   0  0  0  0  0  0  0  0  0  0  0  0
    3.3992    4.3026   -0.8370 H   0  0  0  0  0  0  0  0  0  0  0  0
  1  2  2  0  0  0  0
  2  3  1  0  0  0  0
  2 14  1  0  0  0  0
  3  4  1  0  0  0  0
  3 33  1  0  0  0  0
  4  5  1  0  0  0  0
  4 34  1  0  0  0  0
  4 35  1  0  0  0  0
  5  6  1  0  0  0  0
  5 36  1  0  0  0  0
  5 37  1  0  0  0  0
  6  7  2  0  0  0  0
  6 13  1  0  0  0  0
  7  8  1  0  0  0  0
  8  9  1  0  0  0  0
  8 12  2  0  0  0  0
  9 10  1  0  0  0  0
  9 11  1  0  0  0  0
  9 38  1  0  0  0  0
 12 13  1  0  0  0  0
 14 15  2  0  0  0  0
 14 31  1  0  0  0  0
 15 16  1  0  0  0  0
 15 22  1  0  0  0  0
 16 17  2  0  0  0  0
 16 21  1  0  0  0  0
 17 18  1  0  0  0  0
 17 39  1  0  0  0  0
 18 19  2  0  0  0  0
 18 40  1  0  0  0  0
 19 20  1  0  0  0  0
 19 41  1  0  0  0  0
 20 21  2  0  0  0  0
 20 42  1  0  0  0  0
 21 43  1  0  0  0  0
 22 23  1  0  0  0  0
 22 29  2  0  0  0  0
 23 24  2  0  0  0  0
 23 28  1  0  0  0  0
 24 25  1  0  0  0  0
 24 44  1  0  0  0  0
 25 26  2  0  0  0  0
 25 45  1  0  0  0  0
 26 27  1  0  0  0  0
 26 46  1  0  0  0  0
 27 28  2  0  0  0  0
 27 47  1  0  0  0  0
 28 48  1  0  0  0  0
 29 30  1  0  0  0  0
 30 31  1  0  0  0  0
 30 49  1  0  0  0  0
 31 32  2  0  0  0  0
M  END
$$$$
