
 OpenBabel01122422463D

 45 48  0  0  1  0  0  0  0  0999 V2000
    9.1435   -0.0081    1.8602 C   0  0  0  0  0  0  0  0  0  0  0  0
    8.7934   -0.3092    3.6132 S   0  0  0  0  0  0  0  0  0  0  0  0
    7.4904   -1.5119    3.4378 C   0  0  0  0  0  0  0  0  0  0  0  0
    7.7103   -2.7229    2.7792 C   0  0  0  0  0  0  0  0  0  0  0  0
    6.6662   -3.6295    2.6130 C   0  0  0  0  0  0  0  0  0  0  0  0
    5.4074   -3.3515    3.1480 C   0  0  0  0  0  0  0  0  0  0  0  0
    5.1837   -2.1807    3.8925 C   0  0  0  0  0  0  0  0  0  0  0  0
    3.8581   -1.8986    4.5963 C   0  0  3  0  0  0  0  0  0  0  0  0
    2.9565   -2.9972    4.4559 O   0  0  0  0  0  0  0  0  0  0  0  0
    3.9673   -1.6024    6.0870 C   0  0  0  0  0  0  0  0  0  0  0  0
    3.0940   -0.7022    6.7027 C   0  0  0  0  0  0  0  0  0  0  0  0
    3.2062   -0.4177    8.0675 C   0  0  0  0  0  0  0  0  0  0  0  0
    4.1531   -1.0752    8.8564 C   0  0  0  0  0  0  0  0  0  0  0  0
    4.9793   -2.0541    8.2969 C   0  0  0  0  0  0  0  0  0  0  0  0
    5.8401   -2.9430    9.1039 C   0  0  0  0  0  0  0  0  0  0  0  0
    7.0569   -3.4014    8.5636 C   0  0  0  0  0  0  0  0  0  0  0  0
    7.7217   -4.4905    9.1033 C   0  0  0  0  0  0  0  0  0  0  0  0
    7.2340   -5.0513   10.2687 C   0  0  0  0  0  0  0  0  0  0  0  0
    7.9334   -6.1592   10.7351 O   0  0  0  0  0  0  0  0  0  0  0  0
    7.9351   -6.3159   12.1040 C   0  0  0  0  0  0  0  0  0  0  0  0
    8.8406   -6.9319   12.6680 O   0  0  0  0  0  0  0  0  0  0  0  0
    6.8958   -5.7751   12.8160 N   0  0  0  0  0  0  0  0  0  0  0  0
    5.9147   -4.9641   12.3081 C   0  0  0  0  0  0  0  0  0  0  0  0
    4.9680   -4.5728   12.9800 O   0  0  0  0  0  0  0  0  0  0  0  0
    6.1512   -4.5045   10.9350 C   0  0  0  0  0  0  0  0  0  0  0  0
    5.4187   -3.4706   10.3423 C   0  0  0  0  0  0  0  0  0  0  0  0
    4.8897   -2.2741    6.9042 C   0  0  0  0  0  0  0  0  0  0  0  0
    6.2338   -1.2481    3.9923 C   0  0  0  0  0  0  0  0  0  0  0  0
    9.9057    0.7701    1.7738 H   0  0  0  0  0  0  0  0  0  0  0  0
    8.2396    0.3290    1.3447 H   0  0  0  0  0  0  0  0  0  0  0  0
    9.5199   -0.9130    1.3760 H   0  0  0  0  0  0  0  0  0  0  0  0
    8.6929   -2.9699    2.3857 H   0  0  0  0  0  0  0  0  0  0  0  0
    6.8351   -4.5574    2.0720 H   0  0  0  0  0  0  0  0  0  0  0  0
    4.6081   -4.0710    2.9822 H   0  0  0  0  0  0  0  0  0  0  0  0
    3.3988   -1.0430    4.0873 H   0  0  0  0  0  0  0  0  0  0  0  0
    3.3972   -3.7639    4.8589 H   0  0  0  0  0  0  0  0  0  0  0  0
    2.3093   -0.2221    6.1230 H   0  0  0  0  0  0  0  0  0  0  0  0
    2.5311    0.3013    8.5251 H   0  0  0  0  0  0  0  0  0  0  0  0
    4.2124   -0.8357    9.9165 H   0  0  0  0  0  0  0  0  0  0  0  0
    7.4731   -2.9420    7.6678 H   0  0  0  0  0  0  0  0  0  0  0  0
    8.6174   -4.8853    8.6346 H   0  0  0  0  0  0  0  0  0  0  0  0
    6.9042   -5.9528   13.7979 H   0  0  0  0  0  0  0  0  0  0  0  0
    4.5238   -3.1032   10.8323 H   0  0  0  0  0  0  0  0  0  0  0  0
    5.5346   -3.0211    6.4451 H   0  0  0  0  0  0  0  0  0  0  0  0
    6.0714   -0.3128    4.5272 H   0  0  0  0  0  0  0  0  0  0  0  0
  1  2  1  0  0  0  0
  1 29  1  0  0  0  0
  1 30  1  0  0  0  0
  1 31  1  0  0  0  0
  2  3  1  0  0  0  0
  3  4  2  0  0  0  0
  3 28  1  0  0  0  0
  4  5  1  0  0  0  0
  4 32  1  0  0  0  0
  5  6  2  0  0  0  0
  5 33  1  0  0  0  0
  6  7  1  0  0  0  0
  6 34  1  0  0  0  0
  7  8  1  0  0  0  0
  7 28  2  0  0  0  0
  8  9  1  0  0  0  0
  8 10  1  0  0  0  0
  8 35  1  0  0  0  0
  9 36  1  0  0  0  0
 10 11  2  0  0  0  0
 10 27  1  0  0  0  0
 11 12  1  0  0  0  0
 11 37  1  0  0  0  0
 12 13  2  0  0  0  0
 12 38  1  0  0  0  0
 13 14  1  0  0  0  0
 13 39  1  0  0  0  0
 14 15  1  0  0  0  0
 14 27  2  0  0  0  0
 15 16  2  0  0  0  0
 15 26  1  0  0  0  0
 16 17  1  0  0  0  0
 16 40  1  0  0  0  0
 17 18  2  0  0  0  0
 17 41  1  0  0  0  0
 18 19  1  0  0  0  0
 18 25  1  0  0  0  0
 19 20  1  0  0  0  0
 20 21  2  0  0  0  0
 20 22  1  0  0  0  0
 22 23  1  0  0  0  0
 22 42  1  0  0  0  0
 23 24  2  0  0  0  0
 23 25  1  0  0  0  0
 25 26  2  0  0  0  0
 26 43  1  0  0  0  0
 27 44  1  0  0  0  0
 28 45  1  0  0  0  0
M  END
$$$$
