
 OpenBabel01122422493D

 44 47  0  0  0  0  0  0  0  0999 V2000
    2.7200   -1.2707    0.4674 O   0  0  0  0  0  0  0  0  0  0  0  0
    3.6623   -0.6318    0.0210 C   0  0  0  0  0  0  0  0  0  0  0  0
    3.7547   -0.0839   -1.2210 N   0  0  0  0  0  0  0  0  0  0  0  0
    2.8291    0.1595   -2.1015 C   0  0  0  0  0  0  0  0  0  0  0  0
    3.5324    0.5866   -3.3920 C   0  0  0  0  0  0  0  0  0  0  0  0
    2.8470    0.7028   -4.5367 C   0  0  0  0  0  0  0  0  0  0  0  0
    1.4286    0.4793   -4.5748 C   0  0  0  0  0  0  0  0  0  0  0  0
    0.7871    0.2013   -3.4354 C   0  0  0  0  0  0  0  0  0  0  0  0
    1.4018    0.0828   -2.1733 N   0  0  0  0  0  0  0  0  0  0  0  0
    0.4778    0.1194   -1.0216 C   0  0  0  0  0  0  0  0  0  0  0  0
    0.0910    1.5439   -0.6541 C   0  0  0  0  0  0  0  0  0  0  0  0
   -0.9330    2.2440   -1.3249 C   0  0  0  0  0  0  0  0  0  0  0  0
   -1.2236    3.5717   -1.0030 C   0  0  0  0  0  0  0  0  0  0  0  0
   -0.5119    4.2104    0.0102 C   0  0  0  0  0  0  0  0  0  0  0  0
    0.4622    3.5248    0.7174 C   0  0  0  0  0  0  0  0  0  0  0  0
    0.7660    2.1966    0.3847 C   0  0  0  0  0  0  0  0  0  0  0  0
    4.8518   -0.3585    0.9184 C   0  0  0  0  0  0  0  0  0  0  0  0
    6.0298    0.2775    0.4626 C   0  0  0  0  0  0  0  0  0  0  0  0
    6.7727    1.0306    1.3730 C   0  0  0  0  0  0  0  0  0  0  0  0
    6.2597    1.1628    2.6622 C   0  0  0  0  0  0  0  0  0  0  0  0
    6.2389    2.4718    3.2001 N   0  0  0  0  0  0  0  0  0  0  0  0
    6.7660    3.5287    2.4894 C   0  0  0  0  0  0  0  0  0  0  0  0
    6.4078    4.6896    2.6367 O   0  0  0  0  0  0  0  0  0  0  0  0
    7.8525    3.1612    1.5432 C   0  0  0  0  0  0  0  0  0  0  0  0
    7.8696    1.9287    1.0136 C   0  0  0  0  0  0  0  0  0  0  0  0
    5.4031    0.2034    3.1720 C   0  0  0  0  0  0  0  0  0  0  0  0
    5.1526    0.1363    4.4851 F   0  0  0  0  0  0  0  0  0  0  0  0
    4.6641   -0.5480    2.2882 C   0  0  0  0  0  0  0  0  0  0  0  0
    4.6038    0.7374   -3.3523 H   0  0  0  0  0  0  0  0  0  0  0  0
    3.3469    0.9613   -5.4646 H   0  0  0  0  0  0  0  0  0  0  0  0
    0.8992    0.5708   -5.5181 H   0  0  0  0  0  0  0  0  0  0  0  0
   -0.2914    0.0690   -3.4413 H   0  0  0  0  0  0  0  0  0  0  0  0
    0.8373   -0.4128   -0.1451 H   0  0  0  0  0  0  0  0  0  0  0  0
   -0.4490   -0.4230   -1.2739 H   0  0  0  0  0  0  0  0  0  0  0  0
   -1.5053    1.7629   -2.1188 H   0  0  0  0  0  0  0  0  0  0  0  0
   -1.9991    4.1083   -1.5479 H   0  0  0  0  0  0  0  0  0  0  0  0
   -0.7164    5.2523    0.2427 H   0  0  0  0  0  0  0  0  0  0  0  0
    1.0178    4.0112    1.5049 H   0  0  0  0  0  0  0  0  0  0  0  0
    1.5313    1.6617    0.9459 H   0  0  0  0  0  0  0  0  0  0  0  0
    6.2738    0.3158   -0.5966 H   0  0  0  0  0  0  0  0  0  0  0  0
    5.4775    2.7029    3.8297 H   0  0  0  0  0  0  0  0  0  0  0  0
    8.5972    3.9177    1.3384 H   0  0  0  0  0  0  0  0  0  0  0  0
    8.6846    1.5740    0.3934 H   0  0  0  0  0  0  0  0  0  0  0  0
    3.8459   -1.1576    2.6655 H   0  0  0  0  0  0  0  0  0  0  0  0
  1  2  2  0  0  0  0
  2  3  1  0  0  0  0
  2 17  1  0  0  0  0
  3  4  2  3  0  0  0
  4  5  1  0  0  0  0
  4  9  1  0  0  0  0
  5  6  2  0  0  0  0
  5 29  1  0  0  0  0
  6  7  1  0  0  0  0
  6 30  1  0  0  0  0
  7  8  2  0  0  0  0
  7 31  1  0  0  0  0
  8  9  1  0  0  0  0
  8 32  1  0  0  0  0
  9 10  1  0  0  0  0
 10 11  1  0  0  0  0
 10 33  1  0  0  0  0
 10 34  1  0  0  0  0
 11 12  2  0  0  0  0
 11 16  1  0  0  0  0
 12 13  1  0  0  0  0
 12 35  1  0  0  0  0
 13 14  2  0  0  0  0
 13 36  1  0  0  0  0
 14 15  1  0  0  0  0
 14 37  1  0  0  0  0
 15 16  2  0  0  0  0
 15 38  1  0  0  0  0
 16 39  1  0  0  0  0
 17 18  2  0  0  0  0
 17 28  1  0  0  0  0
 18 19  1  0  0  0  0
 18 40  1  0  0  0  0
 19 20  2  0  0  0  0
 19 25  1  0  0  0  0
 20 21  1  0  0  0  0
 20 26  1  0  0  0  0
 21 22  1  0  0  0  0
 21 41  1  0  0  0  0
 22 23  2  0  0  0  0
 22 24  1  0  0  0  0
 24 25  2  0  0  0  0
 24 42  1  0  0  0  0
 25 43  1  0  0  0  0
 26 27  1  0  0  0  0
 26 28  2  0  0  0  0
 28 44  1  0  0  0  0
M  END
$$$$
