
 OpenBabel01122422493D

 44 47  0  0  0  0  0  0  0  0999 V2000
    1.0130    0.0710    0.0527 O   0  0  0  0  0  0  0  0  0  0  0  0
    2.2402    0.0819    0.1060 C   0  0  0  0  0  0  0  0  0  0  0  0
    2.9473    1.2002   -0.2856 N   0  0  0  0  0  0  0  0  0  0  0  0
    4.3857    1.3672   -0.2635 C   0  0  0  0  0  0  0  0  0  0  0  0
    4.9623    2.3180   -1.2583 C   0  0  0  0  0  0  0  0  0  0  0  0
    6.1716    2.9450   -0.9282 C   0  0  0  0  0  0  0  0  0  0  0  0
    6.6906    2.7423    0.2959 F   0  0  0  0  0  0  0  0  0  0  0  0
    6.8713    3.7357   -1.8440 C   0  0  0  0  0  0  0  0  0  0  0  0
    8.0863    4.3542   -1.5063 C   0  0  0  0  0  0  0  0  0  0  0  0
    8.7643    5.1348   -2.4389 C   0  0  0  0  0  0  0  0  0  0  0  0
    8.2380    5.2979   -3.7180 C   0  0  0  0  0  0  0  0  0  0  0  0
    7.0368    4.6776   -4.0685 C   0  0  0  0  0  0  0  0  0  0  0  0
    6.3388    3.8918   -3.1414 C   0  0  0  0  0  0  0  0  0  0  0  0
    5.1356    3.2474   -3.4802 C   0  0  0  0  0  0  0  0  0  0  0  0
    4.4544    2.4609   -2.5498 C   0  0  0  0  0  0  0  0  0  0  0  0
    2.9727   -1.1395    0.5426 C   0  0  0  0  0  0  0  0  0  0  0  0
    2.5505   -2.3860    0.0686 C   0  0  0  0  0  0  0  0  0  0  0  0
    3.2954   -3.5334    0.3653 C   0  0  0  0  0  0  0  0  0  0  0  0
    4.4712   -3.4290    1.1216 C   0  0  0  0  0  0  0  0  0  0  0  0
    5.3062   -4.6017    1.4874 C   0  0  0  0  0  0  0  0  0  0  0  0
    6.5972   -4.4564    1.5829 N   0  0  0  0  0  0  0  0  0  0  0  0
    7.3102   -5.5488    1.9857 N   0  0  0  0  0  0  0  0  0  0  0  0
    6.7842   -6.7654    2.3314 C   0  0  0  0  0  0  0  0  0  0  0  0
    7.4616   -7.7079    2.7251 O   0  0  0  0  0  0  0  0  0  0  0  0
    5.3250   -6.8898    2.2102 C   0  0  0  0  0  0  0  0  0  0  0  0
    4.5881   -5.8561    1.7983 C   0  0  0  0  0  0  0  0  0  0  0  0
    4.8766   -2.1867    1.6100 C   0  0  0  0  0  0  0  0  0  0  0  0
    4.0940   -1.0626    1.3744 C   0  0  0  0  0  0  0  0  0  0  0  0
    2.3692    2.0140   -0.4556 H   0  0  0  0  0  0  0  0  0  0  0  0
    4.8730    0.4078   -0.4574 H   0  0  0  0  0  0  0  0  0  0  0  0
    4.6268    1.7085    0.7492 H   0  0  0  0  0  0  0  0  0  0  0  0
    8.5089    4.2262   -0.5107 H   0  0  0  0  0  0  0  0  0  0  0  0
    9.7013    5.6140   -2.1675 H   0  0  0  0  0  0  0  0  0  0  0  0
    8.7653    5.9068   -4.4472 H   0  0  0  0  0  0  0  0  0  0  0  0
    6.6487    4.8113   -5.0759 H   0  0  0  0  0  0  0  0  0  0  0  0
    4.7302    3.3357   -4.4864 H   0  0  0  0  0  0  0  0  0  0  0  0
    3.5503    1.9352   -2.8506 H   0  0  0  0  0  0  0  0  0  0  0  0
    1.6523   -2.4604   -0.5411 H   0  0  0  0  0  0  0  0  0  0  0  0
    2.9579   -4.4883   -0.0280 H   0  0  0  0  0  0  0  0  0  0  0  0
    8.3146   -5.4302    2.0730 H   0  0  0  0  0  0  0  0  0  0  0  0
    4.8866   -7.8430    2.4873 H   0  0  0  0  0  0  0  0  0  0  0  0
    3.5095   -5.9108    1.7355 H   0  0  0  0  0  0  0  0  0  0  0  0
    5.7953   -2.0870    2.1853 H   0  0  0  0  0  0  0  0  0  0  0  0
    4.4004   -0.1252    1.8282 H   0  0  0  0  0  0  0  0  0  0  0  0
  1  2  2  0  0  0  0
  2  3  1  0  0  0  0
  2 16  1  0  0  0  0
  3  4  1  0  0  0  0
  3 29  1  0  0  0  0
  4  5  1  0  0  0  0
  4 30  1  0  0  0  0
  4 31  1  0  0  0  0
  5  6  2  0  0  0  0
  5 15  1  0  0  0  0
  6  7  1  0  0  0  0
  6  8  1  0  0  0  0
  8  9  2  0  0  0  0
  8 13  1  0  0  0  0
  9 10  1  0  0  0  0
  9 32  1  0  0  0  0
 10 11  2  0  0  0  0
 10 33  1  0  0  0  0
 11 12  1  0  0  0  0
 11 34  1  0  0  0  0
 12 13  2  0  0  0  0
 12 35  1  0  0  0  0
 13 14  1  0  0  0  0
 14 15  2  0  0  0  0
 14 36  1  0  0  0  0
 15 37  1  0  0  0  0
 16 17  2  0  0  0  0
 16 28  1  0  0  0  0
 17 18  1  0  0  0  0
 17 38  1  0  0  0  0
 18 19  2  0  0  0  0
 18 39  1  0  0  0  0
 19 20  1  0  0  0  0
 19 27  1  0  0  0  0
 20 21  2  0  0  0  0
 20 26  1  0  0  0  0
 21 22  1  0  0  0  0
 22 23  1  0  0  0  0
 22 40  1  0  0  0  0
 23 24  2  0  0  0  0
 23 25  1  0  0  0  0
 25 26  2  0  0  0  0
 25 41  1  0  0  0  0
 26 42  1  0  0  0  0
 27 28  2  0  0  0  0
 27 43  1  0  0  0  0
 28 44  1  0  0  0  0
M  END
$$$$
