
 OpenBabel01122422493D

 49 52  0  0  0  0  0  0  0  0999 V2000
    1.4599    5.0120   -0.8800 C   0  0  0  0  0  0  0  0  0  0  0  0
    2.8106    4.6426   -1.1399 O   0  0  0  0  0  0  0  0  0  0  0  0
    3.0324    3.3443   -1.4991 C   0  0  0  0  0  0  0  0  0  0  0  0
    2.0728    2.3401   -1.5596 C   0  0  0  0  0  0  0  0  0  0  0  0
    2.4354    1.0445   -1.9203 C   0  0  0  0  0  0  0  0  0  0  0  0
    3.7640    0.7336   -2.2473 C   0  0  0  0  0  0  0  0  0  0  0  0
    4.1854   -0.5382   -2.5477 O   0  0  0  0  0  0  0  0  0  0  0  0
    3.2059   -1.5594   -2.6790 C   0  0  0  0  0  0  0  0  0  0  0  0
    4.7530    1.7502   -2.2553 C   0  0  0  0  0  0  0  0  0  0  0  0
    6.1372    1.5268   -2.7384 C   0  0  0  0  0  0  0  0  0  0  0  0
    6.3966    0.7278   -3.8587 C   0  0  0  0  0  0  0  0  0  0  0  0
    7.6110    0.5037   -4.3995 N   0  0  0  0  0  0  0  0  0  0  0  0
    8.6597    1.1226   -3.8178 C   0  0  0  0  0  0  0  0  0  0  0  0
    8.5457    1.9721   -2.7106 C   0  0  0  0  0  0  0  0  0  0  0  0
    9.6357    2.6567   -2.1294 N   0  0  0  0  0  0  0  0  0  0  0  0
   10.9473    2.6231   -2.5594 C   0  0  0  0  0  0  0  0  0  0  0  0
   11.3838    1.9962   -3.5220 O   0  0  0  0  0  0  0  0  0  0  0  0
   11.9132    3.3757   -1.7353 C   0  0  0  0  0  0  0  0  0  0  0  0
   13.1428    2.7522   -1.4601 C   0  0  0  0  0  0  0  0  0  0  0  0
   14.0703    3.3693   -0.6221 C   0  0  0  0  0  0  0  0  0  0  0  0
   13.7913    4.6497   -0.1634 C   0  0  0  0  0  0  0  0  0  0  0  0
   14.7844    5.3891    0.6599 C   0  0  0  0  0  0  0  0  0  0  0  0
   15.4778    4.8352    1.4927 O   0  0  0  0  0  0  0  0  0  0  0  0
   14.8907    6.8222    0.3366 C   0  0  0  0  0  0  0  0  0  0  0  0
   13.7741    7.4073   -0.1145 C   0  0  0  0  0  0  0  0  0  0  0  0
   12.5792    6.7404   -0.3179 N   0  0  0  0  0  0  0  0  0  0  0  0
   12.6371    5.3567   -0.5692 C   0  0  0  0  0  0  0  0  0  0  0  0
   11.6541    4.6836   -1.2927 C   0  0  0  0  0  0  0  0  0  0  0  0
    7.2584    2.1455   -2.1555 C   0  0  0  0  0  0  0  0  0  0  0  0
    4.3542    3.0440   -1.8475 C   0  0  0  0  0  0  0  0  0  0  0  0
    1.4430    6.0814   -0.6452 H   0  0  0  0  0  0  0  0  0  0  0  0
    1.0634    4.4743   -0.0130 H   0  0  0  0  0  0  0  0  0  0  0  0
    0.8327    4.8559   -1.7636 H   0  0  0  0  0  0  0  0  0  0  0  0
    1.0298    2.5267   -1.3175 H   0  0  0  0  0  0  0  0  0  0  0  0
    1.6554    0.2921   -1.9411 H   0  0  0  0  0  0  0  0  0  0  0  0
    3.7255   -2.4905   -2.9250 H   0  0  0  0  0  0  0  0  0  0  0  0
    2.5144   -1.3361   -3.4986 H   0  0  0  0  0  0  0  0  0  0  0  0
    2.6691   -1.7209   -1.7382 H   0  0  0  0  0  0  0  0  0  0  0  0
    5.5857    0.2366   -4.3990 H   0  0  0  0  0  0  0  0  0  0  0  0
    9.6037    0.9065   -4.2955 H   0  0  0  0  0  0  0  0  0  0  0  0
    9.4282    3.1921   -1.2871 H   0  0  0  0  0  0  0  0  0  0  0  0
   13.3796    1.7883   -1.9038 H   0  0  0  0  0  0  0  0  0  0  0  0
   15.0179    2.8937   -0.3948 H   0  0  0  0  0  0  0  0  0  0  0  0
   15.8374    7.3138    0.4879 H   0  0  0  0  0  0  0  0  0  0  0  0
   13.7556    8.4570   -0.3895 H   0  0  0  0  0  0  0  0  0  0  0  0
   11.8201    7.2683   -0.7385 H   0  0  0  0  0  0  0  0  0  0  0  0
   10.7460    5.1960   -1.5914 H   0  0  0  0  0  0  0  0  0  0  0  0
    7.1393    2.7815   -1.2916 H   0  0  0  0  0  0  0  0  0  0  0  0
    5.0758    3.8595   -1.8332 H   0  0  0  0  0  0  0  0  0  0  0  0
  1  2  1  0  0  0  0
  1 31  1  0  0  0  0
  1 32  1  0  0  0  0
  1 33  1  0  0  0  0
  2  3  1  0  0  0  0
  3  4  2  0  0  0  0
  3 30  1  0  0  0  0
  4  5  1  0  0  0  0
  4 34  1  0  0  0  0
  5  6  2  0  0  0  0
  5 35  1  0  0  0  0
  6  7  1  0  0  0  0
  6  9  1  0  0  0  0
  7  8  1  0  0  0  0
  8 36  1  0  0  0  0
  8 37  1  0  0  0  0
  8 38  1  0  0  0  0
  9 10  1  0  0  0  0
  9 30  2  0  0  0  0
 10 11  2  0  0  0  0
 10 29  1  0  0  0  0
 11 12  1  0  0  0  0
 11 39  1  0  0  0  0
 12 13  2  0  0  0  0
 13 14  1  0  0  0  0
 13 40  1  0  0  0  0
 14 15  1  0  0  0  0
 14 29  2  0  0  0  0
 15 16  1  0  0  0  0
 15 41  1  0  0  0  0
 16 17  2  0  0  0  0
 16 18  1  0  0  0  0
 18 19  2  0  0  0  0
 18 28  1  0  0  0  0
 19 20  1  0  0  0  0
 19 42  1  0  0  0  0
 20 21  2  0  0  0  0
 20 43  1  0  0  0  0
 21 22  1  0  0  0  0
 21 27  1  0  0  0  0
 22 23  2  0  0  0  0
 22 24  1  0  0  0  0
 24 25  2  0  0  0  0
 24 44  1  0  0  0  0
 25 26  1  0  0  0  0
 25 45  1  0  0  0  0
 26 27  1  0  0  0  0
 26 46  1  0  0  0  0
 27 28  2  0  0  0  0
 28 47  1  0  0  0  0
 29 48  1  0  0  0  0
 30 49  1  0  0  0  0
M  END
$$$$
