
 OpenBabel01122422493D

 44 47  0  0  0  0  0  0  0  0999 V2000
    3.9375    2.4551   -0.3655 O   0  0  0  0  0  0  0  0  0  0  0  0
    3.0136    1.9636    0.2692 C   0  0  0  0  0  0  0  0  0  0  0  0
    3.1189    0.9085    1.1101 O   0  0  0  0  0  0  0  0  0  0  0  0
    4.4308    0.3470    1.2634 C   0  0  0  0  0  0  0  0  0  0  0  0
    4.8448    0.4552    2.7082 C   0  0  0  0  0  0  0  0  0  0  0  0
    4.9735    1.7132    3.3194 C   0  0  0  0  0  0  0  0  0  0  0  0
    5.3274    1.8166    4.6650 C   0  0  0  0  0  0  0  0  0  0  0  0
    5.3438    3.0876    5.1785 O   0  0  0  0  0  0  0  0  0  0  0  0
    5.1253    3.1563    6.5924 C   0  0  0  0  0  0  0  0  0  0  0  0
    4.5779    4.5009    6.9966 C   0  0  0  0  0  0  0  0  0  0  0  0
    3.8215    5.2976    6.1244 C   0  0  0  0  0  0  0  0  0  0  0  0
    3.2538    6.4886    6.5796 C   0  0  0  0  0  0  0  0  0  0  0  0
    3.4327    6.8761    7.9058 C   0  0  0  0  0  0  0  0  0  0  0  0
    2.8706    8.0117    8.3390 F   0  0  0  0  0  0  0  0  0  0  0  0
    4.1689    6.0992    8.7862 C   0  0  0  0  0  0  0  0  0  0  0  0
    4.7301    4.9162    8.3235 C   0  0  0  0  0  0  0  0  0  0  0  0
    5.4149    4.1484    9.1857 F   0  0  0  0  0  0  0  0  0  0  0  0
    5.6313    0.6646    5.3913 C   0  0  0  0  0  0  0  0  0  0  0  0
    5.5168   -0.5890    4.7922 C   0  0  0  0  0  0  0  0  0  0  0  0
    5.1155   -0.6936    3.4618 C   0  0  0  0  0  0  0  0  0  0  0  0
    1.6069    2.4628    0.1935 C   0  0  0  0  0  0  0  0  0  0  0  0
    1.3799    3.4946   -0.6528 C   0  0  0  0  0  0  0  0  0  0  0  0
    0.0518    4.0448   -0.8668 C   0  0  0  0  0  0  0  0  0  0  0  0
   -0.9868    3.4864   -0.2274 C   0  0  0  0  0  0  0  0  0  0  0  0
   -0.7710    2.4294    0.6541 N   0  0  0  0  0  0  0  0  0  0  0  0
   -1.6853    1.7576    1.3950 N   0  0  0  0  0  0  0  0  0  0  0  0
   -1.0500    0.8850    2.1643 N   0  0  0  0  0  0  0  0  0  0  0  0
    0.2838    0.9748    1.8976 C   0  0  0  0  0  0  0  0  0  0  0  0
    0.5011    1.9154    0.9178 C   0  0  0  0  0  0  0  0  0  0  0  0
    5.1933    0.8095    0.6270 H   0  0  0  0  0  0  0  0  0  0  0  0
    4.3602   -0.7052    0.9646 H   0  0  0  0  0  0  0  0  0  0  0  0
    4.7775    2.6196    2.7499 H   0  0  0  0  0  0  0  0  0  0  0  0
    6.0839    2.9791    7.0944 H   0  0  0  0  0  0  0  0  0  0  0  0
    4.3859    2.4115    6.9143 H   0  0  0  0  0  0  0  0  0  0  0  0
    3.6620    4.9887    5.0938 H   0  0  0  0  0  0  0  0  0  0  0  0
    2.6632    7.1088    5.9137 H   0  0  0  0  0  0  0  0  0  0  0  0
    4.2912    6.4043    9.8186 H   0  0  0  0  0  0  0  0  0  0  0  0
    5.9578    0.7108    6.4254 H   0  0  0  0  0  0  0  0  0  0  0  0
    5.7335   -1.4849    5.3691 H   0  0  0  0  0  0  0  0  0  0  0  0
    5.0222   -1.6821    3.0160 H   0  0  0  0  0  0  0  0  0  0  0  0
    2.1869    3.9456   -1.2291 H   0  0  0  0  0  0  0  0  0  0  0  0
   -0.0716    4.8814   -1.5469 H   0  0  0  0  0  0  0  0  0  0  0  0
   -2.0108    3.8179   -0.3387 H   0  0  0  0  0  0  0  0  0  0  0  0
    0.9990    0.3603    2.4254 H   0  0  0  0  0  0  0  0  0  0  0  0
  1  2  2  0  0  0  0
  2  3  1  0  0  0  0
  2 21  1  0  0  0  0
  3  4  1  0  0  0  0
  4  5  1  0  0  0  0
  4 30  1  0  0  0  0
  4 31  1  0  0  0  0
  5  6  2  0  0  0  0
  5 20  1  0  0  0  0
  6  7  1  0  0  0  0
  6 32  1  0  0  0  0
  7  8  1  0  0  0  0
  7 18  2  0  0  0  0
  8  9  1  0  0  0  0
  9 10  1  0  0  0  0
  9 33  1  0  0  0  0
  9 34  1  0  0  0  0
 10 11  2  0  0  0  0
 10 16  1  0  0  0  0
 11 12  1  0  0  0  0
 11 35  1  0  0  0  0
 12 13  2  0  0  0  0
 12 36  1  0  0  0  0
 13 14  1  0  0  0  0
 13 15  1  0  0  0  0
 15 16  2  0  0  0  0
 15 37  1  0  0  0  0
 16 17  1  0  0  0  0
 18 19  1  0  0  0  0
 18 38  1  0  0  0  0
 19 20  2  0  0  0  0
 19 39  1  0  0  0  0
 20 40  1  0  0  0  0
 21 22  2  0  0  0  0
 21 29  1  0  0  0  0
 22 23  1  0  0  0  0
 22 41  1  0  0  0  0
 23 24  2  0  0  0  0
 23 42  1  0  0  0  0
 24 25  1  0  0  0  0
 24 43  1  0  0  0  0
 25 26  1  0  0  0  0
 25 29  1  0  0  0  0
 26 27  2  0  0  0  0
 27 28  1  0  0  0  0
 28 29  2  0  0  0  0
 28 44  1  0  0  0  0
M  END
$$$$
