
 OpenBabel01122422493D

 42 45  0  0  1  0  0  0  0  0999 V2000
    1.0360   -1.8858   -1.0845 O   0  0  0  0  0  0  0  0  0  0  0  0
    2.3924   -1.9312   -1.0484 C   0  0  0  0  0  0  0  0  0  0  0  0
    2.9338   -2.9687   -1.6853 N   0  0  0  0  0  0  0  0  0  0  0  0
    4.2677   -2.9825   -1.6249 C   0  0  0  0  0  0  0  0  0  0  0  0
    4.8248   -4.0442   -2.2716 O   0  0  0  0  0  0  0  0  0  0  0  0
    5.0690   -2.0439   -0.9801 C   0  0  0  0  0  0  0  0  0  0  0  0
    6.4822   -2.0898   -0.9179 C   0  0  0  0  0  0  0  0  0  0  0  0
    7.2204   -1.1087   -0.2375 C   0  0  0  0  0  0  0  0  0  0  0  0
    8.6923   -1.1923   -0.1460 C   0  0  0  0  0  0  0  0  0  0  0  0
    9.4694   -1.5771   -1.2543 C   0  0  0  0  0  0  0  0  0  0  0  0
   10.8538   -1.7138   -1.1520 C   0  0  0  0  0  0  0  0  0  0  0  0
   11.4819   -1.4760    0.0659 C   0  0  0  0  0  0  0  0  0  0  0  0
   12.8085   -1.6513    0.1483 F   0  0  0  0  0  0  0  0  0  0  0  0
   10.7591   -1.1051    1.2000 C   0  0  0  0  0  0  0  0  0  0  0  0
   11.4244   -0.8977    2.5492 C   0  0  3  0  0  0  0  0  0  0  0  0
   12.4765   -1.8321    2.8014 O   0  0  0  0  0  0  0  0  0  0  0  0
   11.9335    0.5152    2.7652 C   0  0  0  0  0  0  0  0  0  0  0  0
   11.1041    1.4791    3.3628 C   0  0  0  0  0  0  0  0  0  0  0  0
   11.5427    2.7948    3.5272 C   0  0  0  0  0  0  0  0  0  0  0  0
   12.8158    3.1648    3.0998 C   0  0  0  0  0  0  0  0  0  0  0  0
   13.6569    2.2177    2.5210 C   0  0  0  0  0  0  0  0  0  0  0  0
   13.2189    0.9028    2.3532 C   0  0  0  0  0  0  0  0  0  0  0  0
    9.3652   -0.9396    1.0673 C   0  0  0  0  0  0  0  0  0  0  0  0
    6.4917   -0.0774    0.3708 C   0  0  0  0  0  0  0  0  0  0  0  0
    5.0890   -0.0406    0.3056 C   0  0  0  0  0  0  0  0  0  0  0  0
    4.3585   -1.0148   -0.3650 C   0  0  0  0  0  0  0  0  0  0  0  0
    3.0211   -0.9515   -0.3953 N   0  0  0  0  0  0  0  0  0  0  0  0
    0.8597   -2.6885   -1.5986 H   0  0  0  0  0  0  0  0  0  0  0  0
    4.0292   -4.4999   -2.5996 H   0  0  0  0  0  0  0  0  0  0  0  0
    6.9947   -2.9250   -1.3940 H   0  0  0  0  0  0  0  0  0  0  0  0
    8.9993   -1.7799   -2.2147 H   0  0  0  0  0  0  0  0  0  0  0  0
   11.4433   -2.0235   -2.0085 H   0  0  0  0  0  0  0  0  0  0  0  0
   10.6846   -1.1162    3.3298 H   0  0  0  0  0  0  0  0  0  0  0  0
   12.8884   -2.0483    1.9476 H   0  0  0  0  0  0  0  0  0  0  0  0
   10.1087    1.2101    3.7088 H   0  0  0  0  0  0  0  0  0  0  0  0
   10.8904    3.5316    3.9885 H   0  0  0  0  0  0  0  0  0  0  0  0
   13.1544    4.1903    3.2205 H   0  0  0  0  0  0  0  0  0  0  0  0
   14.6553    2.5007    2.1982 H   0  0  0  0  0  0  0  0  0  0  0  0
   13.8931    0.1780    1.9023 H   0  0  0  0  0  0  0  0  0  0  0  0
    8.7885   -0.6451    1.9437 H   0  0  0  0  0  0  0  0  0  0  0  0
    7.0029    0.7216    0.9047 H   0  0  0  0  0  0  0  0  0  0  0  0
    4.5537    0.7711    0.7941 H   0  0  0  0  0  0  0  0  0  0  0  0
  1  2  1  0  0  0  0
  1 28  1  0  0  0  0
  2  3  2  0  0  0  0
  2 27  1  0  0  0  0
  3  4  1  0  0  0  0
  4  5  1  0  0  0  0
  4  6  2  0  0  0  0
  5 29  1  0  0  0  0
  6  7  1  0  0  0  0
  6 26  1  0  0  0  0
  7  8  2  0  0  0  0
  7 30  1  0  0  0  0
  8  9  1  0  0  0  0
  8 24  1  0  0  0  0
  9 10  2  0  0  0  0
  9 23  1  0  0  0  0
 10 11  1  0  0  0  0
 10 31  1  0  0  0  0
 11 12  2  0  0  0  0
 11 32  1  0  0  0  0
 12 13  1  0  0  0  0
 12 14  1  0  0  0  0
 14 15  1  0  0  0  0
 14 23  2  0  0  0  0
 15 16  1  0  0  0  0
 15 17  1  0  0  0  0
 15 33  1  0  0  0  0
 16 34  1  0  0  0  0
 17 18  2  0  0  0  0
 17 22  1  0  0  0  0
 18 19  1  0  0  0  0
 18 35  1  0  0  0  0
 19 20  2  0  0  0  0
 19 36  1  0  0  0  0
 20 21  1  0  0  0  0
 20 37  1  0  0  0  0
 21 22  2  0  0  0  0
 21 38  1  0  0  0  0
 22 39  1  0  0  0  0
 23 40  1  0  0  0  0
 24 25  2  0  0  0  0
 24 41  1  0  0  0  0
 25 26  1  0  0  0  0
 25 42  1  0  0  0  0
 26 27  2  0  0  0  0
M  END
$$$$
