
 OpenBabel01122422493D

 42 45  0  0  0  0  0  0  0  0999 V2000
    1.0624    0.2688   -0.4095 O   0  0  0  0  0  0  0  0  0  0  0  0
    2.1729   -0.0011    0.0440 C   0  0  0  0  0  0  0  0  0  0  0  0
    2.7233   -1.2679    0.1324 N   0  0  0  0  0  0  0  0  0  0  0  0
    2.1106   -2.4706   -0.2942 C   0  0  0  0  0  0  0  0  0  0  0  0
    0.9956   -2.4796   -1.1340 C   0  0  0  0  0  0  0  0  0  0  0  0
    0.3742   -3.6749   -1.4723 C   0  0  0  0  0  0  0  0  0  0  0  0
    0.8923   -4.8800   -1.0129 C   0  0  0  0  0  0  0  0  0  0  0  0
    2.0596   -4.9139   -0.2455 C   0  0  0  0  0  0  0  0  0  0  0  0
    2.6643   -6.1331    0.1555 N   0  0  0  0  0  0  0  0  0  0  0  0
    2.4086   -7.3700   -0.4214 C   0  0  0  0  0  0  0  0  0  0  0  0
    1.6571   -7.5639   -1.3742 O   0  0  0  0  0  0  0  0  0  0  0  0
    3.0881   -8.5693    0.1413 C   0  0  0  0  0  0  0  0  0  0  0  0
    2.8462   -9.8028   -0.4863 C   0  0  0  0  0  0  0  0  0  0  0  0
    3.2708  -11.0054    0.0959 C   0  0  0  0  0  0  0  0  0  0  0  0
    3.0472  -12.2457   -0.5015 C   0  0  0  0  0  0  0  0  0  0  0  0
    3.2050  -13.4272    0.1319 N   0  0  0  0  0  0  0  0  0  0  0  0
    3.6488  -13.3727    1.4033 C   0  0  0  0  0  0  0  0  0  0  0  0
    4.0652  -12.2044    2.0263 C   0  0  0  0  0  0  0  0  0  0  0  0
    3.8925  -10.9855    1.3554 C   0  0  0  0  0  0  0  0  0  0  0  0
    4.2730   -9.7447    1.9000 C   0  0  0  0  0  0  0  0  0  0  0  0
    3.8774   -8.5520    1.2869 C   0  0  0  0  0  0  0  0  0  0  0  0
    4.2470   -7.3914    1.8502 F   0  0  0  0  0  0  0  0  0  0  0  0
    2.6505   -3.6974    0.1374 C   0  0  0  0  0  0  0  0  0  0  0  0
    2.9936    1.0648    0.5651 C   0  0  0  0  0  0  0  0  0  0  0  0
    4.3027    1.1524    0.9837 C   0  0  0  0  0  0  0  0  0  0  0  0
    4.4600    2.4889    1.3836 C   0  0  0  0  0  0  0  0  0  0  0  0
    5.5723    2.9772    1.8529 F   0  0  0  0  0  0  0  0  0  0  0  0
    3.3540    3.2136    1.2366 N   0  0  0  0  0  0  0  0  0  0  0  0
    2.4810    2.3317    0.7168 N   0  0  0  0  0  0  0  0  0  0  0  0
    3.5802   -1.3609    0.6570 H   0  0  0  0  0  0  0  0  0  0  0  0
    0.5805   -1.5706   -1.5554 H   0  0  0  0  0  0  0  0  0  0  0  0
   -0.5130   -3.6685   -2.0989 H   0  0  0  0  0  0  0  0  0  0  0  0
    0.3485   -5.7826   -1.2729 H   0  0  0  0  0  0  0  0  0  0  0  0
    3.4077   -6.0764    0.8431 H   0  0  0  0  0  0  0  0  0  0  0  0
    2.2468   -9.8379   -1.3967 H   0  0  0  0  0  0  0  0  0  0  0  0
    2.7204  -12.3230   -1.5358 H   0  0  0  0  0  0  0  0  0  0  0  0
    3.6520  -14.3238    1.9289 H   0  0  0  0  0  0  0  0  0  0  0  0
    4.4544  -12.2468    3.0379 H   0  0  0  0  0  0  0  0  0  0  0  0
    4.8540   -9.6950    2.8173 H   0  0  0  0  0  0  0  0  0  0  0  0
    3.5391   -3.7076    0.7628 H   0  0  0  0  0  0  0  0  0  0  0  0
    5.0636    0.3835    0.9863 H   0  0  0  0  0  0  0  0  0  0  0  0
    1.5413    2.6380    0.4941 H   0  0  0  0  0  0  0  0  0  0  0  0
  1  2  2  0  0  0  0
  2  3  1  0  0  0  0
  2 24  1  0  0  0  0
  3  4  1  0  0  0  0
  3 30  1  0  0  0  0
  4  5  2  0  0  0  0
  4 23  1  0  0  0  0
  5  6  1  0  0  0  0
  5 31  1  0  0  0  0
  6  7  2  0  0  0  0
  6 32  1  0  0  0  0
  7  8  1  0  0  0  0
  7 33  1  0  0  0  0
  8  9  1  0  0  0  0
  8 23  2  0  0  0  0
  9 10  1  0  0  0  0
  9 34  1  0  0  0  0
 10 11  2  0  0  0  0
 10 12  1  0  0  0  0
 12 13  2  0  0  0  0
 12 21  1  0  0  0  0
 13 14  1  0  0  0  0
 13 35  1  0  0  0  0
 14 15  2  0  0  0  0
 14 19  1  0  0  0  0
 15 16  1  0  0  0  0
 15 36  1  0  0  0  0
 16 17  2  0  0  0  0
 17 18  1  0  0  0  0
 17 37  1  0  0  0  0
 18 19  2  0  0  0  0
 18 38  1  0  0  0  0
 19 20  1  0  0  0  0
 20 21  2  0  0  0  0
 20 39  1  0  0  0  0
 21 22  1  0  0  0  0
 23 40  1  0  0  0  0
 24 25  2  0  0  0  0
 24 29  1  0  0  0  0
 25 26  1  0  0  0  0
 25 41  1  0  0  0  0
 26 27  1  0  0  0  0
 26 28  2  0  0  0  0
 28 29  1  0  0  0  0
 29 42  1  0  0  0  0
M  END
$$$$
