
 OpenBabel01122422493D

 41 44  0  0  0  0  0  0  0  0999 V2000
    3.5726    0.0982   -3.2250 O   0  0  0  0  0  0  0  0  0  0  0  0
    2.9295   -0.1694   -2.2207 C   0  0  0  0  0  0  0  0  0  0  0  0
    3.3940   -0.8443   -1.1396 O   0  0  0  0  0  0  0  0  0  0  0  0
    4.7648   -1.2575   -1.2216 C   0  0  0  0  0  0  0  0  0  0  0  0
    4.8596   -2.5583   -1.9332 C   0  0  0  0  0  0  0  0  0  0  0  0
    3.9545   -3.4836   -2.1596 N   0  0  0  0  0  0  0  0  0  0  0  0
    4.6804   -4.4398   -2.8339 C   0  0  0  0  0  0  0  0  0  0  0  0
    4.0590   -5.6691   -3.3828 C   0  0  0  0  0  0  0  0  0  0  0  0
    4.1473   -6.7321   -2.3117 C   0  0  0  0  0  0  0  0  0  0  0  0
    3.1222   -6.8852   -1.3697 C   0  0  0  0  0  0  0  0  0  0  0  0
    3.1929   -7.9011   -0.4201 C   0  0  0  0  0  0  0  0  0  0  0  0
    2.1985   -8.0477    0.4647 F   0  0  0  0  0  0  0  0  0  0  0  0
    4.2725   -8.7747   -0.3829 C   0  0  0  0  0  0  0  0  0  0  0  0
    5.3090   -8.6220   -1.3014 C   0  0  0  0  0  0  0  0  0  0  0  0
    5.2487   -7.6052   -2.2612 C   0  0  0  0  0  0  0  0  0  0  0  0
    5.9638   -4.1256   -3.0381 N   0  0  0  0  0  0  0  0  0  0  0  0
    6.0919   -2.8746   -2.4254 O   0  0  0  0  0  0  0  0  0  0  0  0
    1.5027    0.2310   -2.0205 C   0  0  0  0  0  0  0  0  0  0  0  0
    0.8767    0.9900   -3.0008 C   0  0  0  0  0  0  0  0  0  0  0  0
   -0.4672    1.3062   -2.8311 C   0  0  0  0  0  0  0  0  0  0  0  0
   -1.1588    0.8075   -1.7209 C   0  0  0  0  0  0  0  0  0  0  0  0
   -2.5429    0.9932   -1.5738 C   0  0  0  0  0  0  0  0  0  0  0  0
   -3.2026    0.3928   -0.5099 C   0  0  0  0  0  0  0  0  0  0  0  0
   -4.5350    0.4954   -0.4199 F   0  0  0  0  0  0  0  0  0  0  0  0
   -2.4900   -0.3341    0.4319 C   0  0  0  0  0  0  0  0  0  0  0  0
   -3.1301   -0.9313    1.4464 F   0  0  0  0  0  0  0  0  0  0  0  0
   -1.1118   -0.4781    0.3180 C   0  0  0  0  0  0  0  0  0  0  0  0
   -0.4333    0.0559   -0.7648 C   0  0  0  0  0  0  0  0  0  0  0  0
    0.8742   -0.2001   -0.8953 N   0  0  0  0  0  0  0  0  0  0  0  0
    5.1269   -1.3794   -0.1960 H   0  0  0  0  0  0  0  0  0  0  0  0
    5.3846   -0.4861   -1.6949 H   0  0  0  0  0  0  0  0  0  0  0  0
    4.5666   -6.0005   -4.2962 H   0  0  0  0  0  0  0  0  0  0  0  0
    3.0109   -5.4876   -3.6520 H   0  0  0  0  0  0  0  0  0  0  0  0
    2.2586   -6.2226   -1.3656 H   0  0  0  0  0  0  0  0  0  0  0  0
    4.3018   -9.5640    0.3612 H   0  0  0  0  0  0  0  0  0  0  0  0
    6.1623   -9.2957   -1.2772 H   0  0  0  0  0  0  0  0  0  0  0  0
    6.0652   -7.5010   -2.9723 H   0  0  0  0  0  0  0  0  0  0  0  0
    1.4131    1.3090   -3.8892 H   0  0  0  0  0  0  0  0  0  0  0  0
   -0.9759    1.8981   -3.5887 H   0  0  0  0  0  0  0  0  0  0  0  0
   -3.1212    1.5567   -2.3005 H   0  0  0  0  0  0  0  0  0  0  0  0
   -0.5726   -1.0550    1.0634 H   0  0  0  0  0  0  0  0  0  0  0  0
  1  2  2  0  0  0  0
  2  3  1  0  0  0  0
  2 18  1  0  0  0  0
  3  4  1  0  0  0  0
  4  5  1  0  0  0  0
  4 30  1  0  0  0  0
  4 31  1  0  0  0  0
  5  6  2  0  0  0  0
  5 17  1  0  0  0  0
  6  7  1  0  0  0  0
  7  8  1  0  0  0  0
  7 16  2  0  0  0  0
  8  9  1  0  0  0  0
  8 32  1  0  0  0  0
  8 33  1  0  0  0  0
  9 10  2  0  0  0  0
  9 15  1  0  0  0  0
 10 11  1  0  0  0  0
 10 34  1  0  0  0  0
 11 12  1  0  0  0  0
 11 13  2  0  0  0  0
 13 14  1  0  0  0  0
 13 35  1  0  0  0  0
 14 15  2  0  0  0  0
 14 36  1  0  0  0  0
 15 37  1  0  0  0  0
 16 17  1  0  0  0  0
 18 19  2  0  0  0  0
 18 29  1  0  0  0  0
 19 20  1  0  0  0  0
 19 38  1  0  0  0  0
 20 21  2  0  0  0  0
 20 39  1  0  0  0  0
 21 22  1  0  0  0  0
 21 28  1  0  0  0  0
 22 23  2  0  0  0  0
 22 40  1  0  0  0  0
 23 24  1  0  0  0  0
 23 25  1  0  0  0  0
 25 26  1  0  0  0  0
 25 27  2  0  0  0  0
 27 28  1  0  0  0  0
 27 41  1  0  0  0  0
 28 29  2  0  0  0  0
M  END
$$$$
