
 OpenBabel01122422493D

 49 52  0  0  0  0  0  0  0  0999 V2000
    2.8200    0.3055   -1.0138 O   0  0  0  0  0  0  0  0  0  0  0  0
    2.2670    0.0656    0.0587 C   0  0  0  0  0  0  0  0  0  0  0  0
    0.7479   -0.0245    0.1858 C   0  0  0  0  0  0  0  0  0  0  0  0
    0.1548    1.2971    0.2894 N   0  0  0  0  0  0  0  0  0  0  0  0
   -0.0271    1.8847    1.5285 C   0  0  0  0  0  0  0  0  0  0  0  0
    0.2997    1.3155    2.5671 O   0  0  0  0  0  0  0  0  0  0  0  0
   -0.6341    3.2424    1.5427 C   0  0  0  0  0  0  0  0  0  0  0  0
   -1.5424    3.6434    0.5423 C   0  0  0  0  0  0  0  0  0  0  0  0
   -2.1384    4.9038    0.5779 C   0  0  0  0  0  0  0  0  0  0  0  0
   -1.8589    5.8039    1.6084 C   0  0  0  0  0  0  0  0  0  0  0  0
   -0.9618    5.3943    2.6067 C   0  0  0  0  0  0  0  0  0  0  0  0
   -0.3502    4.1368    2.6039 C   0  0  0  0  0  0  0  0  0  0  0  0
    0.4719    4.0923    3.7710 C   0  0  0  0  0  0  0  0  0  0  0  0
    0.3371    5.2874    4.4387 C   0  0  0  0  0  0  0  0  0  0  0  0
   -0.5311    6.0663    3.7262 N   0  0  0  0  0  0  0  0  0  0  0  0
    2.9479   -0.0529    1.2475 N   0  0  0  0  0  0  0  0  0  0  0  0
    4.3813    0.1680    1.3033 C   0  0  0  0  0  0  0  0  0  0  0  0
    4.9414    0.1589    2.7126 C   0  0  0  0  0  0  0  0  0  0  0  0
    3.9810    0.0823    3.6919 N   0  0  0  0  0  0  0  0  0  0  0  0
    4.3715    0.0554    4.9790 C   0  0  0  0  0  0  0  0  0  0  0  0
    5.6901    0.1118    5.3654 C   0  0  0  0  0  0  0  0  0  0  0  0
    6.6603    0.2109    4.3697 C   0  0  0  0  0  0  0  0  0  0  0  0
    6.3260    0.2353    2.9969 C   0  0  0  0  0  0  0  0  0  0  0  0
    7.4245    0.3161    1.9856 C   0  0  0  0  0  0  0  0  0  0  0  0
    8.6581   -0.3422    2.1999 C   0  0  0  0  0  0  0  0  0  0  0  0
    9.7083   -0.2725    1.2747 C   0  0  0  0  0  0  0  0  0  0  0  0
    9.5331    0.4283    0.0934 C   0  0  0  0  0  0  0  0  0  0  0  0
   10.5233    0.4759   -0.8065 F   0  0  0  0  0  0  0  0  0  0  0  0
    8.3456    1.0931   -0.1563 C   0  0  0  0  0  0  0  0  0  0  0  0
    7.3208    1.0645    0.7978 C   0  0  0  0  0  0  0  0  0  0  0  0
    0.4737   -0.6397    1.0496 H   0  0  0  0  0  0  0  0  0  0  0  0
    0.3497   -0.5040   -0.7145 H   0  0  0  0  0  0  0  0  0  0  0  0
    0.1463    1.8750   -0.5395 H   0  0  0  0  0  0  0  0  0  0  0  0
   -1.8189    2.9625   -0.2578 H   0  0  0  0  0  0  0  0  0  0  0  0
   -2.8455    5.1883   -0.2002 H   0  0  0  0  0  0  0  0  0  0  0  0
   -2.3315    6.7818    1.6367 H   0  0  0  0  0  0  0  0  0  0  0  0
    1.0901    3.2605    4.0867 H   0  0  0  0  0  0  0  0  0  0  0  0
    0.7814    5.6434    5.3578 H   0  0  0  0  0  0  0  0  0  0  0  0
   -0.8212    6.9997    3.9827 H   0  0  0  0  0  0  0  0  0  0  0  0
    2.4429    0.1148    2.1173 H   0  0  0  0  0  0  0  0  0  0  0  0
    4.5359    1.1517    0.8563 H   0  0  0  0  0  0  0  0  0  0  0  0
    4.8592   -0.6038    0.6911 H   0  0  0  0  0  0  0  0  0  0  0  0
    3.5693   -0.0123    5.7081 H   0  0  0  0  0  0  0  0  0  0  0  0
    5.9625    0.0849    6.4139 H   0  0  0  0  0  0  0  0  0  0  0  0
    7.6986    0.2782    4.6895 H   0  0  0  0  0  0  0  0  0  0  0  0
    8.8266   -0.9266    3.1025 H   0  0  0  0  0  0  0  0  0  0  0  0
   10.6552   -0.7659    1.4699 H   0  0  0  0  0  0  0  0  0  0  0  0
    8.2200    1.6438   -1.0835 H   0  0  0  0  0  0  0  0  0  0  0  0
    6.4474    1.6699    0.5827 H   0  0  0  0  0  0  0  0  0  0  0  0
  1  2  2  0  0  0  0
  2  3  1  0  0  0  0
  2 16  1  0  0  0  0
  3  4  1  0  0  0  0
  3 31  1  0  0  0  0
  3 32  1  0  0  0  0
  4  5  1  0  0  0  0
  4 33  1  0  0  0  0
  5  6  2  0  0  0  0
  5  7  1  0  0  0  0
  7  8  2  0  0  0  0
  7 12  1  0  0  0  0
  8  9  1  0  0  0  0
  8 34  1  0  0  0  0
  9 10  2  0  0  0  0
  9 35  1  0  0  0  0
 10 11  1  0  0  0  0
 10 36  1  0  0  0  0
 11 12  2  0  0  0  0
 11 15  1  0  0  0  0
 12 13  1  0  0  0  0
 13 14  2  0  0  0  0
 13 37  1  0  0  0  0
 14 15  1  0  0  0  0
 14 38  1  0  0  0  0
 15 39  1  0  0  0  0
 16 17  1  0  0  0  0
 16 40  1  0  0  0  0
 17 18  1  0  0  0  0
 17 41  1  0  0  0  0
 17 42  1  0  0  0  0
 18 19  2  0  0  0  0
 18 23  1  0  0  0  0
 19 20  1  0  0  0  0
 20 21  2  0  0  0  0
 20 43  1  0  0  0  0
 21 22  1  0  0  0  0
 21 44  1  0  0  0  0
 22 23  2  0  0  0  0
 22 45  1  0  0  0  0
 23 24  1  0  0  0  0
 24 25  2  0  0  0  0
 24 30  1  0  0  0  0
 25 26  1  0  0  0  0
 25 46  1  0  0  0  0
 26 27  2  0  0  0  0
 26 47  1  0  0  0  0
 27 28  1  0  0  0  0
 27 29  1  0  0  0  0
 29 30  2  0  0  0  0
 29 48  1  0  0  0  0
 30 49  1  0  0  0  0
M  END
$$$$
