
 OpenBabel01122422493D

 46 49  0  0  1  0  0  0  0  0999 V2000
    2.2942    0.4737   -1.2542 N   0  0  0  0  0  0  0  0  0  0  0  0
    2.4559   -0.0761   -0.0110 C   0  0  0  0  0  0  0  0  0  0  0  0
    2.0574   -1.2169    0.2186 O   0  0  0  0  0  0  0  0  0  0  0  0
    3.2341    0.7860    1.0106 C   0  0  3  0  0  0  0  0  0  0  0  0
    2.8302    0.4460    2.3722 N   0  0  0  0  0  0  0  0  0  0  0  0
    1.7975    1.1295    2.9967 C   0  0  0  0  0  0  0  0  0  0  0  0
    1.2391    2.0718    2.4603 O   0  0  0  0  0  0  0  0  0  0  0  0
    1.4684    0.6906    4.3967 C   0  0  0  0  0  0  0  0  0  0  0  0
    2.4980    0.2096    5.2297 C   0  0  0  0  0  0  0  0  0  0  0  0
    3.8111    0.0936    4.8519 O   0  0  0  0  0  0  0  0  0  0  0  0
    2.2441   -0.1601    6.5460 C   0  0  0  0  0  0  0  0  0  0  0  0
    0.9620   -0.0174    7.0693 C   0  0  0  0  0  0  0  0  0  0  0  0
   -0.0872    0.4713    6.2817 C   0  0  0  0  0  0  0  0  0  0  0  0
   -1.3640    0.6005    6.8513 C   0  0  0  0  0  0  0  0  0  0  0  0
   -2.4427    1.0714    6.1081 C   0  0  0  0  0  0  0  0  0  0  0  0
   -2.2563    1.4075    4.7778 C   0  0  0  0  0  0  0  0  0  0  0  0
   -0.9899    1.2832    4.1946 C   0  0  0  0  0  0  0  0  0  0  0  0
    0.1420    0.8243    4.9216 C   0  0  0  0  0  0  0  0  0  0  0  0
    4.7437    0.6303    0.8940 C   0  0  0  0  0  0  0  0  0  0  0  0
    5.5706    1.6970    1.2762 C   0  0  0  0  0  0  0  0  0  0  0  0
    6.9613    1.5651    1.2569 C   0  0  0  0  0  0  0  0  0  0  0  0
    7.5632    0.3623    0.8596 C   0  0  0  0  0  0  0  0  0  0  0  0
    8.9587    0.2050    0.8641 C   0  0  0  0  0  0  0  0  0  0  0  0
    9.5423   -1.0004    0.4706 C   0  0  0  0  0  0  0  0  0  0  0  0
    8.7392   -2.0593    0.0584 C   0  0  0  0  0  0  0  0  0  0  0  0
    7.3504   -1.9190    0.0512 C   0  0  0  0  0  0  0  0  0  0  0  0
    6.7467   -0.7175    0.4582 C   0  0  0  0  0  0  0  0  0  0  0  0
    5.3482   -0.5722    0.4884 C   0  0  0  0  0  0  0  0  0  0  0  0
    1.8045   -0.0678   -1.9543 H   0  0  0  0  0  0  0  0  0  0  0  0
    2.6126    1.4032   -1.4929 H   0  0  0  0  0  0  0  0  0  0  0  0
    2.9719    1.8323    0.8088 H   0  0  0  0  0  0  0  0  0  0  0  0
    3.0237   -0.5060    2.6733 H   0  0  0  0  0  0  0  0  0  0  0  0
    3.9627    0.6293    4.0503 H   0  0  0  0  0  0  0  0  0  0  0  0
    3.0481   -0.5305    7.1742 H   0  0  0  0  0  0  0  0  0  0  0  0
    0.7933   -0.2917    8.1085 H   0  0  0  0  0  0  0  0  0  0  0  0
   -1.5317    0.3372    7.8962 H   0  0  0  0  0  0  0  0  0  0  0  0
   -3.4223    1.1675    6.5656 H   0  0  0  0  0  0  0  0  0  0  0  0
   -3.0916    1.7693    4.1823 H   0  0  0  0  0  0  0  0  0  0  0  0
   -0.9028    1.5551    3.1426 H   0  0  0  0  0  0  0  0  0  0  0  0
    5.1363    2.6391    1.6074 H   0  0  0  0  0  0  0  0  0  0  0  0
    7.5748    2.4083    1.5675 H   0  0  0  0  0  0  0  0  0  0  0  0
    9.6031    1.0204    1.1842 H   0  0  0  0  0  0  0  0  0  0  0  0
   10.6233   -1.1118    0.4884 H   0  0  0  0  0  0  0  0  0  0  0  0
    9.1919   -2.9976   -0.2515 H   0  0  0  0  0  0  0  0  0  0  0  0
    6.7398   -2.7604   -0.2706 H   0  0  0  0  0  0  0  0  0  0  0  0
    4.7300   -1.4230    0.2022 H   0  0  0  0  0  0  0  0  0  0  0  0
  1  2  1  0  0  0  0
  1 29  1  0  0  0  0
  1 30  1  0  0  0  0
  2  3  2  0  0  0  0
  2  4  1  0  0  0  0
  4  5  1  0  0  0  0
  4 19  1  0  0  0  0
  4 31  1  0  0  0  0
  5  6  1  0  0  0  0
  5 32  1  0  0  0  0
  6  7  2  0  0  0  0
  6  8  1  0  0  0  0
  8  9  2  0  0  0  0
  8 18  1  0  0  0  0
  9 10  1  0  0  0  0
  9 11  1  0  0  0  0
 10 33  1  0  0  0  0
 11 12  2  0  0  0  0
 11 34  1  0  0  0  0
 12 13  1  0  0  0  0
 12 35  1  0  0  0  0
 13 14  2  0  0  0  0
 13 18  1  0  0  0  0
 14 15  1  0  0  0  0
 14 36  1  0  0  0  0
 15 16  2  0  0  0  0
 15 37  1  0  0  0  0
 16 17  1  0  0  0  0
 16 38  1  0  0  0  0
 17 18  2  0  0  0  0
 17 39  1  0  0  0  0
 19 20  2  0  0  0  0
 19 28  1  0  0  0  0
 20 21  1  0  0  0  0
 20 40  1  0  0  0  0
 21 22  2  0  0  0  0
 21 41  1  0  0  0  0
 22 23  1  0  0  0  0
 22 27  1  0  0  0  0
 23 24  2  0  0  0  0
 23 42  1  0  0  0  0
 24 25  1  0  0  0  0
 24 43  1  0  0  0  0
 25 26  2  0  0  0  0
 25 44  1  0  0  0  0
 26 27  1  0  0  0  0
 26 45  1  0  0  0  0
 27 28  2  0  0  0  0
 28 46  1  0  0  0  0
M  END
$$$$
