
 OpenBabel01122422493D

 43 46  0  0  0  0  0  0  0  0999 V2000
    0.8704    0.1041    0.4820 O   0  0  0  0  0  0  0  0  0  0  0  0
    2.0386   -0.1622    0.2098 C   0  0  0  0  0  0  0  0  0  0  0  0
    2.4637   -1.2087   -0.5880 N   0  0  0  0  0  0  0  0  0  0  0  0
    1.6355   -2.1551   -1.2401 C   0  0  0  0  0  0  0  0  0  0  0  0
    0.2377   -2.0778   -1.2431 C   0  0  0  0  0  0  0  0  0  0  0  0
   -0.5359   -2.9714   -1.9849 C   0  0  0  0  0  0  0  0  0  0  0  0
    0.0786   -3.9662   -2.7323 C   0  0  0  0  0  0  0  0  0  0  0  0
    1.4714   -4.0838   -2.7080 C   0  0  0  0  0  0  0  0  0  0  0  0
    2.1231   -5.1357   -3.4969 C   0  0  0  0  0  0  0  0  0  0  0  0
    3.2123   -5.7738   -3.1736 N   0  0  0  0  0  0  0  0  0  0  0  0
    3.4023   -6.6389   -4.2237 N   0  0  0  0  0  0  0  0  0  0  0  0
    2.4162   -6.4729   -5.1851 C   0  0  0  0  0  0  0  0  0  0  0  0
    2.2987   -7.0558   -6.2446 O   0  0  0  0  0  0  0  0  0  0  0  0
    1.5934   -5.5071   -4.6906 N   0  0  0  0  0  0  0  0  0  0  0  0
    2.2495   -3.1939   -1.9524 C   0  0  0  0  0  0  0  0  0  0  0  0
    3.0687    0.7523    0.7792 C   0  0  0  0  0  0  0  0  0  0  0  0
    2.6345    2.0808    0.9479 C   0  0  0  0  0  0  0  0  0  0  0  0
    3.5008    3.0180    1.4752 C   0  0  0  0  0  0  0  0  0  0  0  0
    4.7612    2.7276    1.8405 N   0  0  0  0  0  0  0  0  0  0  0  0
    5.1583    1.4421    1.6847 C   0  0  0  0  0  0  0  0  0  0  0  0
    4.3613    0.4123    1.1877 C   0  0  0  0  0  0  0  0  0  0  0  0
    4.9919   -0.7993    1.0867 O   0  0  0  0  0  0  0  0  0  0  0  0
    4.3994   -1.9498    1.5509 C   0  0  0  0  0  0  0  0  0  0  0  0
    4.8855   -3.1266    0.9645 C   0  0  0  0  0  0  0  0  0  0  0  0
    4.2626   -4.3461    1.2220 C   0  0  0  0  0  0  0  0  0  0  0  0
    3.1701   -4.3814    2.0792 C   0  0  0  0  0  0  0  0  0  0  0  0
    2.5360   -5.5413    2.2893 F   0  0  0  0  0  0  0  0  0  0  0  0
    2.7219   -3.2297    2.7181 C   0  0  0  0  0  0  0  0  0  0  0  0
    3.3555   -2.0090    2.4766 C   0  0  0  0  0  0  0  0  0  0  0  0
    3.4615   -1.3293   -0.7097 H   0  0  0  0  0  0  0  0  0  0  0  0
   -0.2964   -1.3174   -0.6823 H   0  0  0  0  0  0  0  0  0  0  0  0
   -1.6191   -2.8768   -1.9767 H   0  0  0  0  0  0  0  0  0  0  0  0
   -0.5403   -4.6528   -3.3024 H   0  0  0  0  0  0  0  0  0  0  0  0
    4.1676   -7.2983   -4.2670 H   0  0  0  0  0  0  0  0  0  0  0  0
    0.8053   -5.1342   -5.1878 H   0  0  0  0  0  0  0  0  0  0  0  0
    3.3302   -3.3122   -1.9445 H   0  0  0  0  0  0  0  0  0  0  0  0
    1.6280    2.3829    0.6699 H   0  0  0  0  0  0  0  0  0  0  0  0
    3.1924    4.0502    1.6174 H   0  0  0  0  0  0  0  0  0  0  0  0
    6.1850    1.2521    1.9888 H   0  0  0  0  0  0  0  0  0  0  0  0
    5.7226   -3.0877    0.2710 H   0  0  0  0  0  0  0  0  0  0  0  0
    4.6010   -5.2581    0.7397 H   0  0  0  0  0  0  0  0  0  0  0  0
    1.8637   -3.2845    3.3809 H   0  0  0  0  0  0  0  0  0  0  0  0
    2.9842   -1.1205    2.9789 H   0  0  0  0  0  0  0  0  0  0  0  0
  1  2  2  0  0  0  0
  2  3  1  0  0  0  0
  2 16  1  0  0  0  0
  3  4  1  0  0  0  0
  3 30  1  0  0  0  0
  4  5  2  0  0  0  0
  4 15  1  0  0  0  0
  5  6  1  0  0  0  0
  5 31  1  0  0  0  0
  6  7  2  0  0  0  0
  6 32  1  0  0  0  0
  7  8  1  0  0  0  0
  7 33  1  0  0  0  0
  8  9  1  0  0  0  0
  8 15  2  0  0  0  0
  9 10  2  0  0  0  0
  9 14  1  0  0  0  0
 10 11  1  0  0  0  0
 11 12  1  0  0  0  0
 11 34  1  0  0  0  0
 12 13  2  0  0  0  0
 12 14  1  0  0  0  0
 14 35  1  0  0  0  0
 15 36  1  0  0  0  0
 16 17  2  0  0  0  0
 16 21  1  0  0  0  0
 17 18  1  0  0  0  0
 17 37  1  0  0  0  0
 18 19  2  0  0  0  0
 18 38  1  0  0  0  0
 19 20  1  0  0  0  0
 20 21  2  0  0  0  0
 20 39  1  0  0  0  0
 21 22  1  0  0  0  0
 22 23  1  0  0  0  0
 23 24  2  0  0  0  0
 23 29  1  0  0  0  0
 24 25  1  0  0  0  0
 24 40  1  0  0  0  0
 25 26  2  0  0  0  0
 25 41  1  0  0  0  0
 26 27  1  0  0  0  0
 26 28  1  0  0  0  0
 28 29  2  0  0  0  0
 28 42  1  0  0  0  0
 29 43  1  0  0  0  0
M  END
$$$$
