
 OpenBabel01122422493D

 42 45  0  0  0  0  0  0  0  0999 V2000
    1.0309   -0.1322   -0.1033 O   0  0  0  0  0  0  0  0  0  0  0  0
    2.2529   -0.0527   -0.0408 C   0  0  0  0  0  0  0  0  0  0  0  0
    2.9847    0.9010   -0.7039 N   0  0  0  0  0  0  0  0  0  0  0  0
    2.3552    1.8759   -1.5645 C   0  0  0  0  0  0  0  0  0  0  0  0
    2.2398    1.3281   -2.9383 C   0  0  0  0  0  0  0  0  0  0  0  0
    1.2622    0.5858   -3.5639 C   0  0  0  0  0  0  0  0  0  0  0  0
    1.7019    0.3854   -4.8911 C   0  0  0  0  0  0  0  0  0  0  0  0
    2.9205    1.0275   -5.0149 C   0  0  0  0  0  0  0  0  0  0  0  0
    3.8479    1.2322   -6.1268 C   0  0  0  0  0  0  0  0  0  0  0  0
    5.0615    1.9091   -5.9573 C   0  0  0  0  0  0  0  0  0  0  0  0
    5.9009    2.1281   -7.0466 C   0  0  0  0  0  0  0  0  0  0  0  0
    7.0529    2.7886   -6.8682 F   0  0  0  0  0  0  0  0  0  0  0  0
    5.5648    1.6832   -8.3198 C   0  0  0  0  0  0  0  0  0  0  0  0
    4.3704    0.9927   -8.5064 C   0  0  0  0  0  0  0  0  0  0  0  0
    3.5216    0.7693   -7.4160 C   0  0  0  0  0  0  0  0  0  0  0  0
    3.2559    1.5937   -3.8122 O   0  0  0  0  0  0  0  0  0  0  0  0
    3.0789   -1.0035    0.7723 C   0  0  0  0  0  0  0  0  0  0  0  0
    2.4388   -2.0257    1.3518 C   0  0  0  0  0  0  0  0  0  0  0  0
    3.1948   -2.9993    2.1549 C   0  0  0  0  0  0  0  0  0  0  0  0
    2.5934   -3.9263    2.6789 O   0  0  0  0  0  0  0  0  0  0  0  0
    4.6527   -2.7667    2.2739 C   0  0  0  0  0  0  0  0  0  0  0  0
    5.1854   -1.6371    1.6432 C   0  0  0  0  0  0  0  0  0  0  0  0
    6.5469   -1.3401    1.7537 C   0  0  0  0  0  0  0  0  0  0  0  0
    7.3867   -2.1795    2.4843 C   0  0  0  0  0  0  0  0  0  0  0  0
    6.8703   -3.3217    3.0956 C   0  0  0  0  0  0  0  0  0  0  0  0
    5.5076   -3.6156    2.9906 C   0  0  0  0  0  0  0  0  0  0  0  0
    5.0334   -4.7441    3.5934 O   0  0  0  0  0  0  0  0  0  0  0  0
    4.4375   -0.7662    0.8857 O   0  0  0  0  0  0  0  0  0  0  0  0
    3.9941    0.8392   -0.7055 H   0  0  0  0  0  0  0  0  0  0  0  0
    2.9676    2.7825   -1.5505 H   0  0  0  0  0  0  0  0  0  0  0  0
    1.3629    2.1288   -1.1729 H   0  0  0  0  0  0  0  0  0  0  0  0
    0.3428    0.2404   -3.1094 H   0  0  0  0  0  0  0  0  0  0  0  0
    1.1792   -0.1507   -5.6705 H   0  0  0  0  0  0  0  0  0  0  0  0
    5.3664    2.2825   -4.9833 H   0  0  0  0  0  0  0  0  0  0  0  0
    6.2304    1.8774   -9.1534 H   0  0  0  0  0  0  0  0  0  0  0  0
    4.0929    0.6379   -9.4946 H   0  0  0  0  0  0  0  0  0  0  0  0
    2.5909    0.2350   -7.5923 H   0  0  0  0  0  0  0  0  0  0  0  0
    1.3713   -2.1915    1.2642 H   0  0  0  0  0  0  0  0  0  0  0  0
    6.9546   -0.4544    1.2733 H   0  0  0  0  0  0  0  0  0  0  0  0
    8.4455   -1.9466    2.5740 H   0  0  0  0  0  0  0  0  0  0  0  0
    7.5411   -3.9699    3.6531 H   0  0  0  0  0  0  0  0  0  0  0  0
    5.7564   -5.2424    4.0050 H   0  0  0  0  0  0  0  0  0  0  0  0
  1  2  2  0  0  0  0
  2  3  1  0  0  0  0
  2 17  1  0  0  0  0
  3  4  1  0  0  0  0
  3 29  1  0  0  0  0
  4  5  1  0  0  0  0
  4 30  1  0  0  0  0
  4 31  1  0  0  0  0
  5  6  2  0  0  0  0
  5 16  1  0  0  0  0
  6  7  1  0  0  0  0
  6 32  1  0  0  0  0
  7  8  2  0  0  0  0
  7 33  1  0  0  0  0
  8  9  1  0  0  0  0
  8 16  1  0  0  0  0
  9 10  2  0  0  0  0
  9 15  1  0  0  0  0
 10 11  1  0  0  0  0
 10 34  1  0  0  0  0
 11 12  1  0  0  0  0
 11 13  2  0  0  0  0
 13 14  1  0  0  0  0
 13 35  1  0  0  0  0
 14 15  2  0  0  0  0
 14 36  1  0  0  0  0
 15 37  1  0  0  0  0
 17 18  2  0  0  0  0
 17 28  1  0  0  0  0
 18 19  1  0  0  0  0
 18 38  1  0  0  0  0
 19 20  2  0  0  0  0
 19 21  1  0  0  0  0
 21 22  2  0  0  0  0
 21 26  1  0  0  0  0
 22 23  1  0  0  0  0
 22 28  1  0  0  0  0
 23 24  2  0  0  0  0
 23 39  1  0  0  0  0
 24 25  1  0  0  0  0
 24 40  1  0  0  0  0
 25 26  2  0  0  0  0
 25 41  1  0  0  0  0
 26 27  1  0  0  0  0
 27 42  1  0  0  0  0
M  END
$$$$
