
 OpenBabel01122422493D

 43 46  0  0  0  0  0  0  0  0999 V2000
    2.8199   -2.1444   -1.6605 O   0  0  0  0  0  0  0  0  0  0  0  0
    3.1044   -1.1400   -1.0041 C   0  0  0  0  0  0  0  0  0  0  0  0
    2.8600   -1.0871    0.3460 N   0  0  0  0  0  0  0  0  0  0  0  0
    2.2558   -2.1995    1.0484 C   0  0  0  0  0  0  0  0  0  0  0  0
    3.2713   -3.1972    1.5568 C   0  0  0  0  0  0  0  0  0  0  0  0
    3.6835   -4.2462    0.7406 C   0  0  0  0  0  0  0  0  0  0  0  0
    4.5540   -5.2024    1.2575 C   0  0  0  0  0  0  0  0  0  0  0  0
    4.9951   -6.3006    0.5528 O   0  0  0  0  0  0  0  0  0  0  0  0
    4.1373   -6.9377   -0.3191 C   0  0  0  0  0  0  0  0  0  0  0  0
    2.7518   -7.0301   -0.1275 C   0  0  0  0  0  0  0  0  0  0  0  0
    1.9518   -7.6792   -1.0696 C   0  0  0  0  0  0  0  0  0  0  0  0
    2.5463   -8.2821   -2.1714 C   0  0  0  0  0  0  0  0  0  0  0  0
    1.7763   -8.9171   -3.0651 F   0  0  0  0  0  0  0  0  0  0  0  0
    3.9258   -8.2359   -2.3395 C   0  0  0  0  0  0  0  0  0  0  0  0
    4.4952   -8.8356   -3.3935 F   0  0  0  0  0  0  0  0  0  0  0  0
    4.7284   -7.5679   -1.4171 C   0  0  0  0  0  0  0  0  0  0  0  0
    5.0642   -5.0374    2.5387 C   0  0  0  0  0  0  0  0  0  0  0  0
    4.6347   -3.9452    3.2712 C   0  0  0  0  0  0  0  0  0  0  0  0
    3.7456   -3.0319    2.8171 N   0  0  0  0  0  0  0  0  0  0  0  0
    3.6822    0.0340   -1.6220 C   0  0  0  0  0  0  0  0  0  0  0  0
    3.8991    0.2191   -2.9718 C   0  0  0  0  0  0  0  0  0  0  0  0
    4.4547    1.4273   -3.3357 N   0  0  0  0  0  0  0  0  0  0  0  0
    4.6919    2.1592   -2.2614 C   0  0  0  0  0  0  0  0  0  0  0  0
    5.3326    3.4821   -2.2981 C   0  0  0  0  0  0  0  0  0  0  0  0
    5.6448    4.0838   -3.5157 C   0  0  0  0  0  0  0  0  0  0  0  0
    6.2772    5.2824   -3.6124 N   0  0  0  0  0  0  0  0  0  0  0  0
    6.5978    5.8580   -2.4341 C   0  0  0  0  0  0  0  0  0  0  0  0
    6.2893    5.2720   -1.2179 C   0  0  0  0  0  0  0  0  0  0  0  0
    5.6498    4.0815   -1.1187 N   0  0  0  0  0  0  0  0  0  0  0  0
    4.1993    1.4264   -0.7741 S   0  0  0  0  0  0  0  0  0  0  0  0
    3.1703   -0.2883    0.8831 H   0  0  0  0  0  0  0  0  0  0  0  0
    1.5346   -2.7034    0.3931 H   0  0  0  0  0  0  0  0  0  0  0  0
    1.6887   -1.7878    1.8901 H   0  0  0  0  0  0  0  0  0  0  0  0
    3.3020   -4.3223   -0.2736 H   0  0  0  0  0  0  0  0  0  0  0  0
    2.2747   -6.5878    0.7440 H   0  0  0  0  0  0  0  0  0  0  0  0
    0.8740   -7.7172   -0.9478 H   0  0  0  0  0  0  0  0  0  0  0  0
    5.8031   -7.5405   -1.5643 H   0  0  0  0  0  0  0  0  0  0  0  0
    5.7725   -5.7433    2.9577 H   0  0  0  0  0  0  0  0  0  0  0  0
    5.0000   -3.7716    4.2797 H   0  0  0  0  0  0  0  0  0  0  0  0
    3.6603   -0.5094   -3.7390 H   0  0  0  0  0  0  0  0  0  0  0  0
    5.4008    3.6097   -4.4617 H   0  0  0  0  0  0  0  0  0  0  0  0
    7.1154    6.8089   -2.4926 H   0  0  0  0  0  0  0  0  0  0  0  0
    6.5540    5.7476   -0.2798 H   0  0  0  0  0  0  0  0  0  0  0  0
  1  2  2  0  0  0  0
  2  3  1  0  0  0  0
  2 20  1  0  0  0  0
  3  4  1  0  0  0  0
  3 31  1  0  0  0  0
  4  5  1  0  0  0  0
  4 32  1  0  0  0  0
  4 33  1  0  0  0  0
  5  6  2  0  0  0  0
  5 19  1  0  0  0  0
  6  7  1  0  0  0  0
  6 34  1  0  0  0  0
  7  8  1  0  0  0  0
  7 17  2  0  0  0  0
  8  9  1  0  0  0  0
  9 10  2  0  0  0  0
  9 16  1  0  0  0  0
 10 11  1  0  0  0  0
 10 35  1  0  0  0  0
 11 12  2  0  0  0  0
 11 36  1  0  0  0  0
 12 13  1  0  0  0  0
 12 14  1  0  0  0  0
 14 15  1  0  0  0  0
 14 16  2  0  0  0  0
 16 37  1  0  0  0  0
 17 18  1  0  0  0  0
 17 38  1  0  0  0  0
 18 19  2  0  0  0  0
 18 39  1  0  0  0  0
 20 21  2  0  0  0  0
 20 30  1  0  0  0  0
 21 22  1  0  0  0  0
 21 40  1  0  0  0  0
 22 23  2  0  0  0  0
 23 24  1  0  0  0  0
 23 30  1  0  0  0  0
 24 25  2  0  0  0  0
 24 29  1  0  0  0  0
 25 26  1  0  0  0  0
 25 41  1  0  0  0  0
 26 27  2  0  0  0  0
 27 28  1  0  0  0  0
 27 42  1  0  0  0  0
 28 29  2  0  0  0  0
 28 43  1  0  0  0  0
M  END
$$$$
