
 OpenBabel01122422493D

 51 54  0  0  1  0  0  0  0  0999 V2000
  -10.9264   -1.3133    1.9482 C   0  0  0  0  0  0  0  0  0  0  0  0
   -9.6915   -0.7733    1.2900 C   0  0  0  0  0  0  0  0  0  0  0  0
   -8.5603   -1.3785    1.4353 N   0  0  0  0  0  0  0  0  0  0  0  0
   -7.4529   -0.8735    0.7395 C   0  0  0  0  0  0  0  0  0  0  0  0
   -6.2552   -1.5789    0.8256 C   0  0  0  0  0  0  0  0  0  0  0  0
   -5.1534   -1.2468    0.0343 C   0  0  0  0  0  0  0  0  0  0  0  0
   -3.8944   -2.0616    0.0019 C   0  0  0  0  0  0  0  0  0  0  0  0
   -2.8446   -1.4460   -0.1977 O   0  0  0  0  0  0  0  0  0  0  0  0
   -3.9137   -3.4519    0.1946 N   0  0  0  0  0  0  0  0  0  0  0  0
   -2.6651   -4.2106    0.1484 C   0  0  0  0  0  0  0  0  0  0  0  0
   -5.0711   -4.2587    0.2101 C   0  0  0  0  0  0  0  0  0  0  0  0
   -5.7220   -4.6115   -0.9702 C   0  0  0  0  0  0  0  0  0  0  0  0
   -6.8173   -5.4744   -0.9150 C   0  0  0  0  0  0  0  0  0  0  0  0
   -7.2646   -5.9728    0.3139 C   0  0  0  0  0  0  0  0  0  0  0  0
   -6.6180   -5.6188    1.5090 C   0  0  0  0  0  0  0  0  0  0  0  0
   -7.0054   -6.2075    2.8571 C   0  0  3  0  0  0  0  0  0  0  0  0
   -8.3947   -6.0327    3.1356 O   0  0  0  0  0  0  0  0  0  0  0  0
   -6.6075   -7.6700    2.9623 C   0  0  0  0  0  0  0  0  0  0  0  0
   -5.2612   -8.0400    2.7912 C   0  0  0  0  0  0  0  0  0  0  0  0
   -4.8833   -9.3859    2.8034 C   0  0  0  0  0  0  0  0  0  0  0  0
   -5.8396  -10.3689    3.0164 C   0  0  0  0  0  0  0  0  0  0  0  0
   -7.1715  -10.0183    3.2175 C   0  0  0  0  0  0  0  0  0  0  0  0
   -7.5555   -8.6769    3.1947 C   0  0  0  0  0  0  0  0  0  0  0  0
   -5.5014   -4.7760    1.4356 C   0  0  0  0  0  0  0  0  0  0  0  0
   -5.2167   -0.0726   -0.7355 C   0  0  0  0  0  0  0  0  0  0  0  0
   -6.3911    0.6904   -0.7799 C   0  0  0  0  0  0  0  0  0  0  0  0
   -7.5126    0.2601   -0.0667 C   0  0  0  0  0  0  0  0  0  0  0  0
   -8.8106    0.9576   -0.1426 C   0  0  0  0  0  0  0  0  0  0  0  0
   -8.9579    1.9897   -0.7823 O   0  0  0  0  0  0  0  0  0  0  0  0
   -9.8450    0.3606    0.5411 N   0  0  0  0  0  0  0  0  0  0  0  0
  -10.7037   -2.2604    2.4493 H   0  0  0  0  0  0  0  0  0  0  0  0
  -11.6992   -1.4883    1.1937 H   0  0  0  0  0  0  0  0  0  0  0  0
  -11.2978   -0.5959    2.6834 H   0  0  0  0  0  0  0  0  0  0  0  0
   -6.2262   -2.3998    1.5268 H   0  0  0  0  0  0  0  0  0  0  0  0
   -1.7918   -3.5623    0.0529 H   0  0  0  0  0  0  0  0  0  0  0  0
   -2.6881   -4.8914   -0.7108 H   0  0  0  0  0  0  0  0  0  0  0  0
   -2.5686   -4.7983    1.0676 H   0  0  0  0  0  0  0  0  0  0  0  0
   -5.3597   -4.2557   -1.9305 H   0  0  0  0  0  0  0  0  0  0  0  0
   -7.3097   -5.7832   -1.8343 H   0  0  0  0  0  0  0  0  0  0  0  0
   -8.0989   -6.6719    0.3250 H   0  0  0  0  0  0  0  0  0  0  0  0
   -6.4815   -5.6681    3.6587 H   0  0  0  0  0  0  0  0  0  0  0  0
   -8.8467   -5.8477    2.2994 H   0  0  0  0  0  0  0  0  0  0  0  0
   -4.4920   -7.2902    2.6219 H   0  0  0  0  0  0  0  0  0  0  0  0
   -3.8434   -9.6529    2.6518 H   0  0  0  0  0  0  0  0  0  0  0  0
   -5.5482  -11.4155    3.0214 H   0  0  0  0  0  0  0  0  0  0  0  0
   -7.9192  -10.7875    3.3879 H   0  0  0  0  0  0  0  0  0  0  0  0
   -8.6024   -8.4263    3.3511 H   0  0  0  0  0  0  0  0  0  0  0  0
   -4.9695   -4.4957    2.3436 H   0  0  0  0  0  0  0  0  0  0  0  0
   -4.3476    0.2500   -1.3077 H   0  0  0  0  0  0  0  0  0  0  0  0
   -6.4342    1.5940   -1.3840 H   0  0  0  0  0  0  0  0  0  0  0  0
  -10.7386    0.8262    0.4826 H   0  0  0  0  0  0  0  0  0  0  0  0
  1  2  1  0  0  0  0
  1 31  1  0  0  0  0
  1 32  1  0  0  0  0
  1 33  1  0  0  0  0
  2  3  2  0  0  0  0
  2 30  1  0  0  0  0
  3  4  1  0  0  0  0
  4  5  2  0  0  0  0
  4 27  1  0  0  0  0
  5  6  1  0  0  0  0
  5 34  1  0  0  0  0
  6  7  1  0  0  0  0
  6 25  2  0  0  0  0
  7  8  2  0  0  0  0
  7  9  1  0  0  0  0
  9 10  1  0  0  0  0
  9 11  1  0  0  0  0
 10 35  1  0  0  0  0
 10 36  1  0  0  0  0
 10 37  1  0  0  0  0
 11 12  2  0  0  0  0
 11 24  1  0  0  0  0
 12 13  1  0  0  0  0
 12 38  1  0  0  0  0
 13 14  2  0  0  0  0
 13 39  1  0  0  0  0
 14 15  1  0  0  0  0
 14 40  1  0  0  0  0
 15 16  1  0  0  0  0
 15 24  2  0  0  0  0
 16 17  1  0  0  0  0
 16 18  1  0  0  0  0
 16 41  1  0  0  0  0
 17 42  1  0  0  0  0
 18 19  2  0  0  0  0
 18 23  1  0  0  0  0
 19 20  1  0  0  0  0
 19 43  1  0  0  0  0
 20 21  2  0  0  0  0
 20 44  1  0  0  0  0
 21 22  1  0  0  0  0
 21 45  1  0  0  0  0
 22 23  2  0  0  0  0
 22 46  1  0  0  0  0
 23 47  1  0  0  0  0
 24 48  1  0  0  0  0
 25 26  1  0  0  0  0
 25 49  1  0  0  0  0
 26 27  2  0  0  0  0
 26 50  1  0  0  0  0
 27 28  1  0  0  0  0
 28 29  2  0  0  0  0
 28 30  1  0  0  0  0
 30 51  1  0  0  0  0
M  END
$$$$
