
 OpenBabel01122422493D

 46 49  0  0  0  0  0  0  0  0999 V2000
    8.5119   -4.6802   -3.0329 C   0  0  0  0  0  0  0  0  0  0  0  0
    7.7709   -3.8694   -2.1145 O   0  0  0  0  0  0  0  0  0  0  0  0
    7.3500   -2.6785   -2.6136 C   0  0  0  0  0  0  0  0  0  0  0  0
    7.5592   -2.2466   -3.7315 O   0  0  0  0  0  0  0  0  0  0  0  0
    6.5730   -1.9745   -1.5596 C   0  0  0  0  0  0  0  0  0  0  0  0
    7.2353   -1.8290   -0.3338 C   0  0  0  0  0  0  0  0  0  0  0  0
    6.6718   -1.0640    0.6784 C   0  0  0  0  0  0  0  0  0  0  0  0
    5.4481   -0.4479    0.5180 C   0  0  0  0  0  0  0  0  0  0  0  0
    5.0376    0.3085    1.5505 N   0  0  0  0  0  0  0  0  0  0  0  0
    3.8472    0.9293    1.4569 C   0  0  0  0  0  0  0  0  0  0  0  0
    3.0028    0.7763    0.3843 C   0  0  0  0  0  0  0  0  0  0  0  0
    3.4308   -0.0375   -0.6674 C   0  0  0  0  0  0  0  0  0  0  0  0
    4.7165   -0.6389   -0.6788 C   0  0  0  0  0  0  0  0  0  0  0  0
    5.2920   -1.3983   -1.7781 C   0  0  0  0  0  0  0  0  0  0  0  0
    4.5747   -1.5498   -3.0937 C   0  0  0  0  0  0  0  0  0  0  0  0
    3.9003   -0.4721   -3.6986 C   0  0  0  0  0  0  0  0  0  0  0  0
    3.1698   -0.6166   -4.8862 C   0  0  0  0  0  0  0  0  0  0  0  0
    3.1793   -1.8257   -5.5824 C   0  0  0  0  0  0  0  0  0  0  0  0
    2.4229   -1.9876   -6.8791 C   0  0  0  0  0  0  0  0  0  0  0  0
    3.1179   -1.4498   -8.0449 N   0  0  0  0  0  0  0  0  0  0  0  0
    2.9206   -0.1275   -8.4130 C   0  0  0  0  0  0  0  0  0  0  0  0
    3.4557    0.3710   -9.5338 C   0  0  0  0  0  0  0  0  0  0  0  0
    4.2511   -0.4740  -10.3859 C   0  0  0  0  0  0  0  0  0  0  0  0
    4.4981   -1.7438  -10.0428 C   0  0  0  0  0  0  0  0  0  0  0  0
    3.9211   -2.3128   -8.7914 C   0  0  0  0  0  0  0  0  0  0  0  0
    4.1443   -3.4882   -8.5122 O   0  0  0  0  0  0  0  0  0  0  0  0
    3.9084   -2.8889   -5.0445 C   0  0  0  0  0  0  0  0  0  0  0  0
    4.5497   -2.7657   -3.8024 C   0  0  0  0  0  0  0  0  0  0  0  0
    9.1091   -5.3925   -2.4535 H   0  0  0  0  0  0  0  0  0  0  0  0
    9.1957   -4.0894   -3.6510 H   0  0  0  0  0  0  0  0  0  0  0  0
    7.8138   -5.2420   -3.6596 H   0  0  0  0  0  0  0  0  0  0  0  0
    8.2127   -2.2795   -0.1698 H   0  0  0  0  0  0  0  0  0  0  0  0
    7.2119   -0.9354    1.6131 H   0  0  0  0  0  0  0  0  0  0  0  0
    3.5831    1.5602    2.3001 H   0  0  0  0  0  0  0  0  0  0  0  0
    2.0424    1.2776    0.3546 H   0  0  0  0  0  0  0  0  0  0  0  0
    2.7243   -0.1899   -1.4771 H   0  0  0  0  0  0  0  0  0  0  0  0
    3.9186    0.5161   -3.2438 H   0  0  0  0  0  0  0  0  0  0  0  0
    2.6040    0.2319   -5.2626 H   0  0  0  0  0  0  0  0  0  0  0  0
    1.4399   -1.5055   -6.7952 H   0  0  0  0  0  0  0  0  0  0  0  0
    2.2086   -3.0510   -7.0471 H   0  0  0  0  0  0  0  0  0  0  0  0
    2.3094    0.4877   -7.7606 H   0  0  0  0  0  0  0  0  0  0  0  0
    3.2999    1.4057   -9.8224 H   0  0  0  0  0  0  0  0  0  0  0  0
    4.6390   -0.0591  -11.3103 H   0  0  0  0  0  0  0  0  0  0  0  0
    5.0878   -2.4140  -10.6529 H   0  0  0  0  0  0  0  0  0  0  0  0
    3.9842   -3.8296   -5.5893 H   0  0  0  0  0  0  0  0  0  0  0  0
    5.0578   -3.6479   -3.4203 H   0  0  0  0  0  0  0  0  0  0  0  0
  1  2  1  0  0  0  0
  1 29  1  0  0  0  0
  1 30  1  0  0  0  0
  1 31  1  0  0  0  0
  2  3  1  0  0  0  0
  3  4  2  0  0  0  0
  3  5  1  0  0  0  0
  5  6  2  0  0  0  0
  5 14  1  0  0  0  0
  6  7  1  0  0  0  0
  6 32  1  0  0  0  0
  7  8  2  0  0  0  0
  7 33  1  0  0  0  0
  8  9  1  0  0  0  0
  8 13  1  0  0  0  0
  9 10  2  0  0  0  0
 10 11  1  0  0  0  0
 10 34  1  0  0  0  0
 11 12  2  0  0  0  0
 11 35  1  0  0  0  0
 12 13  1  0  0  0  0
 12 36  1  0  0  0  0
 13 14  2  0  0  0  0
 14 15  1  0  0  0  0
 15 16  2  0  0  0  0
 15 28  1  0  0  0  0
 16 17  1  0  0  0  0
 16 37  1  0  0  0  0
 17 18  2  0  0  0  0
 17 38  1  0  0  0  0
 18 19  1  0  0  0  0
 18 27  1  0  0  0  0
 19 20  1  0  0  0  0
 19 39  1  0  0  0  0
 19 40  1  0  0  0  0
 20 21  1  0  0  0  0
 20 25  1  0  0  0  0
 21 22  2  0  0  0  0
 21 41  1  0  0  0  0
 22 23  1  0  0  0  0
 22 42  1  0  0  0  0
 23 24  2  0  0  0  0
 23 43  1  0  0  0  0
 24 25  1  0  0  0  0
 24 44  1  0  0  0  0
 25 26  2  0  0  0  0
 27 28  2  0  0  0  0
 27 45  1  0  0  0  0
 28 46  1  0  0  0  0
M  END
$$$$
