
 OpenBabel01122422493D

 46 49  0  0  0  0  0  0  0  0999 V2000
    1.2522    0.6736   -0.5128 O   0  0  0  0  0  0  0  0  0  0  0  0
    2.2237    0.0610   -0.0863 C   0  0  0  0  0  0  0  0  0  0  0  0
    2.6659    0.1582    1.2100 N   0  0  0  0  0  0  0  0  0  0  0  0
    1.9814    1.0502    2.1191 C   0  0  0  0  0  0  0  0  0  0  0  0
    2.0934    0.5437    3.5164 C   0  0  0  0  0  0  0  0  0  0  0  0
    3.0631    0.8684    4.4488 C   0  0  0  0  0  0  0  0  0  0  0  0
    2.8237    0.1548    5.5942 N   0  0  0  0  0  0  0  0  0  0  0  0
    1.7116   -0.6387    5.4373 C   0  0  0  0  0  0  0  0  0  0  0  0
    1.1255   -1.5547    6.3236 C   0  0  0  0  0  0  0  0  0  0  0  0
   -0.0111   -2.2397    5.8874 C   0  0  0  0  0  0  0  0  0  0  0  0
   -0.5285   -2.0073    4.6206 C   0  0  0  0  0  0  0  0  0  0  0  0
   -1.6185   -2.6803    4.2273 F   0  0  0  0  0  0  0  0  0  0  0  0
    0.0612   -1.0972    3.7424 C   0  0  0  0  0  0  0  0  0  0  0  0
    1.2151   -0.3976    4.1541 C   0  0  0  0  0  0  0  0  0  0  0  0
    3.0010   -0.8651   -0.9664 C   0  0  0  0  0  0  0  0  0  0  0  0
    2.6009   -0.9658   -2.2381 C   0  0  0  0  0  0  0  0  0  0  0  0
    3.3019   -1.8950   -3.1470 C   0  0  0  0  0  0  0  0  0  0  0  0
    2.9947   -1.9341   -4.3292 O   0  0  0  0  0  0  0  0  0  0  0  0
    4.3593   -2.7606   -2.5303 C   0  0  0  0  0  0  0  0  0  0  0  0
    5.0562   -3.7465   -3.2071 O   0  0  0  0  0  0  0  0  0  0  0  0
    4.3813   -4.4305   -4.2647 C   0  0  0  0  0  0  0  0  0  0  0  0
    4.9342   -5.8370   -4.3387 C   0  0  0  0  0  0  0  0  0  0  0  0
    4.0921   -6.9443   -4.1559 C   0  0  0  0  0  0  0  0  0  0  0  0
    4.5943   -8.2429   -4.2603 C   0  0  0  0  0  0  0  0  0  0  0  0
    5.9417   -8.4493   -4.5499 C   0  0  0  0  0  0  0  0  0  0  0  0
    6.7911   -7.3585   -4.7253 C   0  0  0  0  0  0  0  0  0  0  0  0
    6.2917   -6.0587   -4.6170 C   0  0  0  0  0  0  0  0  0  0  0  0
    4.6471   -2.5293   -1.2477 C   0  0  0  0  0  0  0  0  0  0  0  0
    4.0562   -1.5850   -0.4382 O   0  0  0  0  0  0  0  0  0  0  0  0
    3.5015   -0.3245    1.5093 H   0  0  0  0  0  0  0  0  0  0  0  0
    0.9276    1.1144    1.8200 H   0  0  0  0  0  0  0  0  0  0  0  0
    2.4201    2.0500    2.0119 H   0  0  0  0  0  0  0  0  0  0  0  0
    3.9206    1.5268    4.3871 H   0  0  0  0  0  0  0  0  0  0  0  0
    3.3972    0.1750    6.4266 H   0  0  0  0  0  0  0  0  0  0  0  0
    1.5386   -1.7368    7.3104 H   0  0  0  0  0  0  0  0  0  0  0  0
   -0.4985   -2.9626    6.5355 H   0  0  0  0  0  0  0  0  0  0  0  0
   -0.3677   -0.9528    2.7564 H   0  0  0  0  0  0  0  0  0  0  0  0
    1.7691   -0.4062   -2.6518 H   0  0  0  0  0  0  0  0  0  0  0  0
    4.5690   -3.9289   -5.2200 H   0  0  0  0  0  0  0  0  0  0  0  0
    3.2999   -4.4799   -4.0845 H   0  0  0  0  0  0  0  0  0  0  0  0
    3.0358   -6.8009   -3.9416 H   0  0  0  0  0  0  0  0  0  0  0  0
    3.9318   -9.0937   -4.1235 H   0  0  0  0  0  0  0  0  0  0  0  0
    6.3293   -9.4603   -4.6426 H   0  0  0  0  0  0  0  0  0  0  0  0
    7.8414   -7.5187   -4.9539 H   0  0  0  0  0  0  0  0  0  0  0  0
    6.9647   -5.2161   -4.7598 H   0  0  0  0  0  0  0  0  0  0  0  0
    5.3898   -3.0949   -0.6978 H   0  0  0  0  0  0  0  0  0  0  0  0
  1  2  2  0  0  0  0
  2  3  1  0  0  0  0
  2 15  1  0  0  0  0
  3  4  1  0  0  0  0
  3 30  1  0  0  0  0
  4  5  1  0  0  0  0
  4 31  1  0  0  0  0
  4 32  1  0  0  0  0
  5  6  2  0  0  0  0
  5 14  1  0  0  0  0
  6  7  1  0  0  0  0
  6 33  1  0  0  0  0
  7  8  1  0  0  0  0
  7 34  1  0  0  0  0
  8  9  2  0  0  0  0
  8 14  1  0  0  0  0
  9 10  1  0  0  0  0
  9 35  1  0  0  0  0
 10 11  2  0  0  0  0
 10 36  1  0  0  0  0
 11 12  1  0  0  0  0
 11 13  1  0  0  0  0
 13 14  2  0  0  0  0
 13 37  1  0  0  0  0
 15 16  2  0  0  0  0
 15 29  1  0  0  0  0
 16 17  1  0  0  0  0
 16 38  1  0  0  0  0
 17 18  2  0  0  0  0
 17 19  1  0  0  0  0
 19 20  1  0  0  0  0
 19 28  2  0  0  0  0
 20 21  1  0  0  0  0
 21 22  1  0  0  0  0
 21 39  1  0  0  0  0
 21 40  1  0  0  0  0
 22 23  2  0  0  0  0
 22 27  1  0  0  0  0
 23 24  1  0  0  0  0
 23 41  1  0  0  0  0
 24 25  2  0  0  0  0
 24 42  1  0  0  0  0
 25 26  1  0  0  0  0
 25 43  1  0  0  0  0
 26 27  2  0  0  0  0
 26 44  1  0  0  0  0
 27 45  1  0  0  0  0
 28 29  1  0  0  0  0
 28 46  1  0  0  0  0
M  END
$$$$
