
 OpenBabel01122422493D

 46 49  0  0  1  0  0  0  0  0999 V2000
   -0.8704   -1.1989    2.1097 C   0  0  0  0  0  0  0  0  0  0  0  0
   -0.1130   -0.5999    1.0374 N   0  0  0  0  0  0  0  0  0  0  0  0
   -0.2742   -0.8164   -0.2977 C   0  0  0  0  0  0  0  0  0  0  0  0
    0.6481   -0.0163   -0.9262 C   0  0  0  0  0  0  0  0  0  0  0  0
    1.3295    0.6578    0.1195 C   0  0  0  0  0  0  0  0  0  0  0  0
    2.4202    1.6927   -0.0297 C   0  0  3  0  0  0  0  0  0  0  0  0
    2.4335    2.5795    1.1073 N   0  0  0  0  0  0  0  0  0  0  0  0
    1.6652    3.7148    1.1427 C   0  0  0  0  0  0  0  0  0  0  0  0
    0.9531    4.0752    0.2172 O   0  0  0  0  0  0  0  0  0  0  0  0
    1.7644    4.4544    2.3717 C   0  0  0  0  0  0  0  0  0  0  0  0
    2.7401    4.5877    3.3334 C   0  0  0  0  0  0  0  0  0  0  0  0
    4.0021    3.9945    3.3317 C   0  0  0  0  0  0  0  0  0  0  0  0
    4.7796    4.3968    4.4372 C   0  0  0  0  0  0  0  0  0  0  0  0
    4.3143    5.2771    5.4596 C   0  0  0  0  0  0  0  0  0  0  0  0
    5.0680    5.6699    6.5335 O   0  0  0  0  0  0  0  0  0  0  0  0
    6.0404    4.7891    7.0800 C   0  0  0  0  0  0  0  0  0  0  0  0
    5.9890    3.5308    6.5917 F   0  0  0  0  0  0  0  0  0  0  0  0
    7.2746    5.2908    6.8552 F   0  0  0  0  0  0  0  0  0  0  0  0
    5.8509    4.7169    8.4149 F   0  0  0  0  0  0  0  0  0  0  0  0
    3.0403    5.8937    5.4143 C   0  0  0  0  0  0  0  0  0  0  0  0
    2.2488    5.5274    4.3131 C   0  0  0  0  0  0  0  0  0  0  0  0
    1.0193    5.9340    3.9585 N   0  0  0  0  0  0  0  0  0  0  0  0
    0.7803    5.3164    2.7855 N   0  0  0  0  0  0  0  0  0  0  0  0
    3.7349    0.9282   -0.1443 C   0  0  0  0  0  0  0  0  0  0  0  0
    4.5542    1.1365   -1.2706 C   0  0  0  0  0  0  0  0  0  0  0  0
    5.7597    0.4444   -1.4183 C   0  0  0  0  0  0  0  0  0  0  0  0
    6.1622   -0.4514   -0.4370 C   0  0  0  0  0  0  0  0  0  0  0  0
    7.3088   -1.1264   -0.5887 F   0  0  0  0  0  0  0  0  0  0  0  0
    5.3914   -0.6566    0.7000 C   0  0  0  0  0  0  0  0  0  0  0  0
    4.1870    0.0357    0.8506 C   0  0  0  0  0  0  0  0  0  0  0  0
    0.8611    0.2829    1.3273 N   0  0  0  0  0  0  0  0  0  0  0  0
   -1.6055   -1.8911    1.6930 H   0  0  0  0  0  0  0  0  0  0  0  0
   -1.3773   -0.4010    2.6585 H   0  0  0  0  0  0  0  0  0  0  0  0
   -0.1780   -1.7360    2.7621 H   0  0  0  0  0  0  0  0  0  0  0  0
   -1.0191   -1.4971   -0.6850 H   0  0  0  0  0  0  0  0  0  0  0  0
    0.8074    0.0829   -1.9907 H   0  0  0  0  0  0  0  0  0  0  0  0
    2.2377    2.2770   -0.9392 H   0  0  0  0  0  0  0  0  0  0  0  0
    2.5619    2.1154    1.9945 H   0  0  0  0  0  0  0  0  0  0  0  0
    4.3960    3.3312    2.5728 H   0  0  0  0  0  0  0  0  0  0  0  0
    5.7969    4.0085    4.4667 H   0  0  0  0  0  0  0  0  0  0  0  0
    2.7013    6.6025    6.1576 H   0  0  0  0  0  0  0  0  0  0  0  0
   -0.0886    5.5163    2.2996 H   0  0  0  0  0  0  0  0  0  0  0  0
    4.2566    1.8402   -2.0461 H   0  0  0  0  0  0  0  0  0  0  0  0
    6.3835    0.5971   -2.2926 H   0  0  0  0  0  0  0  0  0  0  0  0
    5.7276   -1.3585    1.4568 H   0  0  0  0  0  0  0  0  0  0  0  0
    3.5911   -0.1428    1.7444 H   0  0  0  0  0  0  0  0  0  0  0  0
  1  2  1  0  0  0  0
  1 32  1  0  0  0  0
  1 33  1  0  0  0  0
  1 34  1  0  0  0  0
  2  3  1  0  0  0  0
  2 31  1  0  0  0  0
  3  4  2  0  0  0  0
  3 35  1  0  0  0  0
  4  5  1  0  0  0  0
  4 36  1  0  0  0  0
  5  6  1  0  0  0  0
  5 31  2  0  0  0  0
  6  7  1  0  0  0  0
  6 24  1  0  0  0  0
  6 37  1  0  0  0  0
  7  8  1  0  0  0  0
  7 38  1  0  0  0  0
  8  9  2  0  0  0  0
  8 10  1  0  0  0  0
 10 11  2  0  0  0  0
 10 23  1  0  0  0  0
 11 12  1  0  0  0  0
 11 21  1  0  0  0  0
 12 13  2  0  0  0  0
 12 39  1  0  0  0  0
 13 14  1  0  0  0  0
 13 40  1  0  0  0  0
 14 15  1  0  0  0  0
 14 20  2  0  0  0  0
 15 16  1  0  0  0  0
 16 17  1  0  0  0  0
 16 18  1  0  0  0  0
 16 19  1  0  0  0  0
 20 21  1  0  0  0  0
 20 41  1  0  0  0  0
 21 22  2  0  0  0  0
 22 23  1  0  0  0  0
 23 42  1  0  0  0  0
 24 25  2  0  0  0  0
 24 30  1  0  0  0  0
 25 26  1  0  0  0  0
 25 43  1  0  0  0  0
 26 27  2  0  0  0  0
 26 44  1  0  0  0  0
 27 28  1  0  0  0  0
 27 29  1  0  0  0  0
 29 30  2  0  0  0  0
 29 45  1  0  0  0  0
 30 46  1  0  0  0  0
M  END
$$$$
