
 OpenBabel01122422493D

 44 47  0  0  0  0  0  0  0  0999 V2000
    1.0355    0.0777    0.3128 O   0  0  0  0  0  0  0  0  0  0  0  0
    2.2340   -0.0663    0.0846 C   0  0  0  0  0  0  0  0  0  0  0  0
    2.9445   -1.1352    0.5604 N   0  0  0  0  0  0  0  0  0  0  0  0
    2.3008   -2.1591    1.3457 C   0  0  0  0  0  0  0  0  0  0  0  0
    3.3047   -3.1559    1.7970 C   0  0  0  0  0  0  0  0  0  0  0  0
    4.0354   -3.8426    0.9063 N   0  0  0  0  0  0  0  0  0  0  0  0
    4.8262   -4.6962    1.6507 O   0  0  0  0  0  0  0  0  0  0  0  0
    4.5708   -4.5199    2.9798 C   0  0  0  0  0  0  0  0  0  0  0  0
    5.2767   -5.3950    3.9008 C   0  0  0  0  0  0  0  0  0  0  0  0
    6.2026   -6.3413    3.4741 C   0  0  0  0  0  0  0  0  0  0  0  0
    6.7657   -7.1977    4.4151 C   0  0  0  0  0  0  0  0  0  0  0  0
    6.3977   -7.0791    5.7492 C   0  0  0  0  0  0  0  0  0  0  0  0
    5.4861   -6.0935    6.0916 C   0  0  0  0  0  0  0  0  0  0  0  0
    4.9180   -5.2499    5.2011 N   0  0  0  0  0  0  0  0  0  0  0  0
    3.6270   -3.5303    3.1212 C   0  0  0  0  0  0  0  0  0  0  0  0
    2.9654    0.9502   -0.7088 C   0  0  0  0  0  0  0  0  0  0  0  0
    2.2466    2.0540   -1.1848 C   0  0  0  0  0  0  0  0  0  0  0  0
    2.8714    3.0857   -1.9036 C   0  0  0  0  0  0  0  0  0  0  0  0
    2.1011    4.2465   -2.4042 C   0  0  0  0  0  0  0  0  0  0  0  0
    0.9857    4.7357   -1.6947 C   0  0  0  0  0  0  0  0  0  0  0  0
    0.1981    5.7802   -2.1944 C   0  0  0  0  0  0  0  0  0  0  0  0
    0.5206    6.3756   -3.4079 C   0  0  0  0  0  0  0  0  0  0  0  0
    1.6359    5.9377   -4.1137 C   0  0  0  0  0  0  0  0  0  0  0  0
    2.4096    4.8883   -3.6145 C   0  0  0  0  0  0  0  0  0  0  0  0
    3.4561    4.4884   -4.3520 F   0  0  0  0  0  0  0  0  0  0  0  0
    4.2430    2.9221   -2.1143 C   0  0  0  0  0  0  0  0  0  0  0  0
    4.9810    1.8632   -1.6857 N   0  0  0  0  0  0  0  0  0  0  0  0
    4.3170    0.9165   -1.0000 C   0  0  0  0  0  0  0  0  0  0  0  0
    5.1329   -0.1026   -0.6249 O   0  0  0  0  0  0  0  0  0  0  0  0
    3.8993   -1.2897    0.2414 H   0  0  0  0  0  0  0  0  0  0  0  0
    1.5241   -2.6347    0.7366 H   0  0  0  0  0  0  0  0  0  0  0  0
    1.8113   -1.6782    2.2007 H   0  0  0  0  0  0  0  0  0  0  0  0
    6.4740   -6.4312    2.4272 H   0  0  0  0  0  0  0  0  0  0  0  0
    7.4762   -7.9587    4.1051 H   0  0  0  0  0  0  0  0  0  0  0  0
    6.8067   -7.7406    6.5038 H   0  0  0  0  0  0  0  0  0  0  0  0
    5.1710   -5.9582    7.1229 H   0  0  0  0  0  0  0  0  0  0  0  0
    3.2137   -3.1636    4.0479 H   0  0  0  0  0  0  0  0  0  0  0  0
    1.1746    2.0908   -0.9956 H   0  0  0  0  0  0  0  0  0  0  0  0
    0.7026    4.3057   -0.7352 H   0  0  0  0  0  0  0  0  0  0  0  0
   -0.6703    6.1174   -1.6330 H   0  0  0  0  0  0  0  0  0  0  0  0
   -0.0959    7.1793   -3.8027 H   0  0  0  0  0  0  0  0  0  0  0  0
    1.9061    6.3943   -5.0607 H   0  0  0  0  0  0  0  0  0  0  0  0
    4.8254    3.6665   -2.6538 H   0  0  0  0  0  0  0  0  0  0  0  0
    5.9708    0.2049   -1.0171 H   0  0  0  0  0  0  0  0  0  0  0  0
  1  2  2  0  0  0  0
  2  3  1  0  0  0  0
  2 16  1  0  0  0  0
  3  4  1  0  0  0  0
  3 30  1  0  0  0  0
  4  5  1  0  0  0  0
  4 31  1  0  0  0  0
  4 32  1  0  0  0  0
  5  6  2  0  0  0  0
  5 15  1  0  0  0  0
  6  7  1  0  0  0  0
  7  8  1  0  0  0  0
  8  9  1  0  0  0  0
  8 15  2  0  0  0  0
  9 10  2  0  0  0  0
  9 14  1  0  0  0  0
 10 11  1  0  0  0  0
 10 33  1  0  0  0  0
 11 12  2  0  0  0  0
 11 34  1  0  0  0  0
 12 13  1  0  0  0  0
 12 35  1  0  0  0  0
 13 14  2  0  0  0  0
 13 36  1  0  0  0  0
 15 37  1  0  0  0  0
 16 17  2  0  0  0  0
 16 28  1  0  0  0  0
 17 18  1  0  0  0  0
 17 38  1  0  0  0  0
 18 19  1  0  0  0  0
 18 26  2  0  0  0  0
 19 20  2  0  0  0  0
 19 24  1  0  0  0  0
 20 21  1  0  0  0  0
 20 39  1  0  0  0  0
 21 22  2  0  0  0  0
 21 40  1  0  0  0  0
 22 23  1  0  0  0  0
 22 41  1  0  0  0  0
 23 24  2  0  0  0  0
 23 42  1  0  0  0  0
 24 25  1  0  0  0  0
 26 27  1  0  0  0  0
 26 43  1  0  0  0  0
 27 28  2  0  0  0  0
 28 29  1  0  0  0  0
 29 44  1  0  0  0  0
M  END
$$$$
