
 OpenBabel01122422493D

 45 48  0  0  0  0  0  0  0  0999 V2000
    0.9683    0.1416    0.0993 C   0  0  0  0  0  0  0  0  0  0  0  0
    2.4182    0.1483    0.1732 N   0  0  0  0  0  0  0  0  0  0  0  0
    3.1018   -1.0564    0.2336 C   0  0  0  0  0  0  0  0  0  0  0  0
    4.4389   -1.0739    0.2875 C   0  0  0  0  0  0  0  0  0  0  0  0
    5.2344   -2.3646    0.3952 C   0  0  0  0  0  0  0  0  0  0  0  0
    5.8943   -3.4354    0.4845 N   0  0  0  0  0  0  0  0  0  0  0  0
    5.1904    0.1210    0.2930 C   0  0  0  0  0  0  0  0  0  0  0  0
    4.6020    1.3155    0.3003 C   0  0  0  0  0  0  0  0  0  0  0  0
    5.3220    2.4810    0.3750 N   0  0  0  0  0  0  0  0  0  0  0  0
    6.6866    2.5447    0.6138 C   0  0  0  0  0  0  0  0  0  0  0  0
    7.4333    1.6190    0.9125 O   0  0  0  0  0  0  0  0  0  0  0  0
    7.3133    3.8404    0.3896 C   0  0  0  0  0  0  0  0  0  0  0  0
    6.6343    5.0151    0.6560 C   0  0  0  0  0  0  0  0  0  0  0  0
    7.1408    6.1797    0.1182 C   0  0  0  0  0  0  0  0  0  0  0  0
    8.3154    6.1739   -0.6668 C   0  0  0  0  0  0  0  0  0  0  0  0
    8.6900    7.3641   -1.3454 N   0  0  0  0  0  0  0  0  0  0  0  0
   10.0101    7.6928   -1.5278 C   0  0  0  0  0  0  0  0  0  0  0  0
   10.4817    8.8591   -1.2143 N   0  0  0  0  0  0  0  0  0  0  0  0
    9.5757    9.6878   -0.5300 C   0  0  0  0  0  0  0  0  0  0  0  0
   10.0158   10.4821    0.5171 C   0  0  0  0  0  0  0  0  0  0  0  0
    9.0911   11.1114    1.3564 C   0  0  0  0  0  0  0  0  0  0  0  0
    7.7186   11.0125    1.1219 C   0  0  0  0  0  0  0  0  0  0  0  0
    7.2548   10.2420    0.0567 C   0  0  0  0  0  0  0  0  0  0  0  0
    8.1954    9.5727   -0.7196 C   0  0  0  0  0  0  0  0  0  0  0  0
    7.7579    8.3933   -1.4537 C   0  0  0  0  0  0  0  0  0  0  0  0
    6.6439    8.3201   -1.9539 O   0  0  0  0  0  0  0  0  0  0  0  0
    9.1015    5.0243   -0.7094 C   0  0  0  0  0  0  0  0  0  0  0  0
    8.5812    3.8428   -0.2071 C   0  0  0  0  0  0  0  0  0  0  0  0
    3.0902    1.3861    0.1874 C   0  0  0  0  0  0  0  0  0  0  0  0
    2.5345    2.4820    0.1279 O   0  0  0  0  0  0  0  0  0  0  0  0
    0.5670   -0.8719    0.1344 H   0  0  0  0  0  0  0  0  0  0  0  0
    0.6558    0.6199   -0.8360 H   0  0  0  0  0  0  0  0  0  0  0  0
    0.5633    0.7164    0.9393 H   0  0  0  0  0  0  0  0  0  0  0  0
    2.5161   -1.9698    0.2403 H   0  0  0  0  0  0  0  0  0  0  0  0
    6.2611   -0.0302    0.3060 H   0  0  0  0  0  0  0  0  0  0  0  0
    4.7783    3.3242    0.2055 H   0  0  0  0  0  0  0  0  0  0  0  0
    5.7080    5.0354    1.2224 H   0  0  0  0  0  0  0  0  0  0  0  0
    6.5850    7.0938    0.3148 H   0  0  0  0  0  0  0  0  0  0  0  0
   10.6617    6.8993   -1.9283 H   0  0  0  0  0  0  0  0  0  0  0  0
   11.0799   10.5239    0.7370 H   0  0  0  0  0  0  0  0  0  0  0  0
    9.4463   11.6524    2.2295 H   0  0  0  0  0  0  0  0  0  0  0  0
    7.0046   11.4653    1.8048 H   0  0  0  0  0  0  0  0  0  0  0  0
    6.1897   10.0709   -0.0825 H   0  0  0  0  0  0  0  0  0  0  0  0
   10.0707    4.9855   -1.1933 H   0  0  0  0  0  0  0  0  0  0  0  0
    9.1286    2.9112   -0.3443 H   0  0  0  0  0  0  0  0  0  0  0  0
  1  2  1  0  0  0  0
  1 31  1  0  0  0  0
  1 32  1  0  0  0  0
  1 33  1  0  0  0  0
  2  3  1  0  0  0  0
  2 29  1  0  0  0  0
  3  4  2  0  0  0  0
  3 34  1  0  0  0  0
  4  5  1  0  0  0  0
  4  7  1  0  0  0  0
  5  6  3  0  0  0  0
  7  8  2  0  0  0  0
  7 35  1  0  0  0  0
  8  9  1  0  0  0  0
  8 29  1  0  0  0  0
  9 10  1  0  0  0  0
  9 36  1  0  0  0  0
 10 11  2  0  0  0  0
 10 12  1  0  0  0  0
 12 13  2  0  0  0  0
 12 28  1  0  0  0  0
 13 14  1  0  0  0  0
 13 37  1  0  0  0  0
 14 15  2  0  0  0  0
 14 38  1  0  0  0  0
 15 16  1  0  0  0  0
 15 27  1  0  0  0  0
 16 17  1  0  0  0  0
 16 25  1  0  0  0  0
 17 18  2  0  0  0  0
 17 39  1  0  0  0  0
 18 19  1  0  0  0  0
 19 20  2  0  0  0  0
 19 24  1  0  0  0  0
 20 21  1  0  0  0  0
 20 40  1  0  0  0  0
 21 22  2  0  0  0  0
 21 41  1  0  0  0  0
 22 23  1  0  0  0  0
 22 42  1  0  0  0  0
 23 24  2  0  0  0  0
 23 43  1  0  0  0  0
 24 25  1  0  0  0  0
 25 26  2  0  0  0  0
 27 28  2  0  0  0  0
 27 44  1  0  0  0  0
 28 45  1  0  0  0  0
 29 30  2  0  0  0  0
M  END
$$$$
