
 OpenBabel01122422493D

 43 46  0  0  0  0  0  0  0  0999 V2000
    4.4026    2.0845    3.0858 N   0  0  0  0  0  0  0  0  0  0  0  0
    4.4062    1.5814    1.8177 C   0  0  0  0  0  0  0  0  0  0  0  0
    4.8884    2.2304    0.8974 O   0  0  0  0  0  0  0  0  0  0  0  0
    3.8199    0.2351    1.5874 C   0  0  0  0  0  0  0  0  0  0  0  0
    3.8594   -0.2743    0.2789 C   0  0  0  0  0  0  0  0  0  0  0  0
    3.3395   -1.5339   -0.0055 C   0  0  0  0  0  0  0  0  0  0  0  0
    2.7756   -2.2903    1.0179 C   0  0  0  0  0  0  0  0  0  0  0  0
    2.7203   -1.7980    2.3355 C   0  0  0  0  0  0  0  0  0  0  0  0
    2.1007   -2.6807    3.3645 C   0  0  0  0  0  0  0  0  0  0  0  0
    1.7520   -3.7992    2.9968 O   0  0  0  0  0  0  0  0  0  0  0  0
    1.9543   -2.1886    4.6569 N   0  0  0  0  0  0  0  0  0  0  0  0
    1.3993   -2.8608    5.7297 C   0  0  0  0  0  0  0  0  0  0  0  0
    0.9213   -4.1172    5.6803 C   0  0  0  0  0  0  0  0  0  0  0  0
    0.3932   -4.7077    6.8176 N   0  0  0  0  0  0  0  0  0  0  0  0
   -0.1015   -5.9750    6.9761 C   0  0  0  0  0  0  0  0  0  0  0  0
   -0.4469   -6.0728    8.3063 C   0  0  0  0  0  0  0  0  0  0  0  0
   -0.9252   -7.2685    8.9840 C   0  0  0  0  0  0  0  0  0  0  0  0
   -1.0899   -8.4928    8.3179 C   0  0  0  0  0  0  0  0  0  0  0  0
   -1.4730   -9.6398    9.0198 C   0  0  0  0  0  0  0  0  0  0  0  0
   -1.7027   -9.5742   10.3921 C   0  0  0  0  0  0  0  0  0  0  0  0
   -1.5651   -8.3608   11.0617 C   0  0  0  0  0  0  0  0  0  0  0  0
   -1.1817   -7.2158   10.3606 C   0  0  0  0  0  0  0  0  0  0  0  0
   -0.2123   -4.8740    8.9551 N   0  0  0  0  0  0  0  0  0  0  0  0
    0.3073   -4.0762    8.0468 C   0  0  0  0  0  0  0  0  0  0  0  0
    0.8024   -2.7444    8.1192 C   0  0  0  0  0  0  0  0  0  0  0  0
    1.3312   -2.1635    7.0196 C   0  0  0  0  0  0  0  0  0  0  0  0
    3.2452   -0.5331    2.6090 C   0  0  0  0  0  0  0  0  0  0  0  0
    3.1958   -0.0556    3.8653 F   0  0  0  0  0  0  0  0  0  0  0  0
    4.8165    2.9969    3.2277 H   0  0  0  0  0  0  0  0  0  0  0  0
    4.0313    1.5914    3.8860 H   0  0  0  0  0  0  0  0  0  0  0  0
    4.3009    0.3111   -0.5273 H   0  0  0  0  0  0  0  0  0  0  0  0
    3.3741   -1.9289   -1.0186 H   0  0  0  0  0  0  0  0  0  0  0  0
    2.3758   -3.2769    0.7816 H   0  0  0  0  0  0  0  0  0  0  0  0
    2.2829   -1.2463    4.8368 H   0  0  0  0  0  0  0  0  0  0  0  0
    0.9162   -4.7437    4.8012 H   0  0  0  0  0  0  0  0  0  0  0  0
   -0.1204   -6.6756    6.1547 H   0  0  0  0  0  0  0  0  0  0  0  0
   -0.9088   -8.5812    7.2505 H   0  0  0  0  0  0  0  0  0  0  0  0
   -1.5805  -10.5858    8.4953 H   0  0  0  0  0  0  0  0  0  0  0  0
   -1.9852  -10.4684   10.9408 H   0  0  0  0  0  0  0  0  0  0  0  0
   -1.7434   -8.3023   12.1317 H   0  0  0  0  0  0  0  0  0  0  0  0
   -1.0655   -6.2766   10.8985 H   0  0  0  0  0  0  0  0  0  0  0  0
    0.7554   -2.2305    9.0719 H   0  0  0  0  0  0  0  0  0  0  0  0
    1.7212   -1.1532    7.0921 H   0  0  0  0  0  0  0  0  0  0  0  0
  1  2  1  0  0  0  0
  1 29  1  0  0  0  0
  1 30  1  0  0  0  0
  2  3  2  0  0  0  0
  2  4  1  0  0  0  0
  4  5  2  0  0  0  0
  4 27  1  0  0  0  0
  5  6  1  0  0  0  0
  5 31  1  0  0  0  0
  6  7  2  0  0  0  0
  6 32  1  0  0  0  0
  7  8  1  0  0  0  0
  7 33  1  0  0  0  0
  8  9  1  0  0  0  0
  8 27  2  0  0  0  0
  9 10  2  0  0  0  0
  9 11  1  0  0  0  0
 11 12  1  0  0  0  0
 11 34  1  0  0  0  0
 12 13  2  0  0  0  0
 12 26  1  0  0  0  0
 13 14  1  0  0  0  0
 13 35  1  0  0  0  0
 14 15  1  0  0  0  0
 14 24  1  0  0  0  0
 15 16  2  0  0  0  0
 15 36  1  0  0  0  0
 16 17  1  0  0  0  0
 16 23  1  0  0  0  0
 17 18  2  0  0  0  0
 17 22  1  0  0  0  0
 18 19  1  0  0  0  0
 18 37  1  0  0  0  0
 19 20  2  0  0  0  0
 19 38  1  0  0  0  0
 20 21  1  0  0  0  0
 20 39  1  0  0  0  0
 21 22  2  0  0  0  0
 21 40  1  0  0  0  0
 22 41  1  0  0  0  0
 23 24  2  0  0  0  0
 24 25  1  0  0  0  0
 25 26  2  0  0  0  0
 25 42  1  0  0  0  0
 26 43  1  0  0  0  0
 27 28  1  0  0  0  0
M  END
$$$$
