
 OpenBabel01122422493D

 40 43  0  0  0  0  0  0  0  0999 V2000
    0.9541   -0.1447    0.8434 O   0  0  0  0  0  0  0  0  0  0  0  0
    2.1636   -0.1835    0.6226 C   0  0  0  0  0  0  0  0  0  0  0  0
    2.7984   -1.0335   -0.2592 N   0  0  0  0  0  0  0  0  0  0  0  0
    2.1412   -1.8830   -1.1836 C   0  0  0  0  0  0  0  0  0  0  0  0
    0.8030   -1.6969   -1.5471 C   0  0  0  0  0  0  0  0  0  0  0  0
    0.1706   -2.5692   -2.4305 C   0  0  0  0  0  0  0  0  0  0  0  0
    0.8719   -3.6456   -2.9608 C   0  0  0  0  0  0  0  0  0  0  0  0
    2.2210   -3.8427   -2.6368 C   0  0  0  0  0  0  0  0  0  0  0  0
    2.9421   -4.9724   -3.1839 C   0  0  0  0  0  0  0  0  0  0  0  0
    2.3999   -6.1817   -3.5632 C   0  0  0  0  0  0  0  0  0  0  0  0
    3.4710   -6.8922   -4.0122 N   0  0  0  0  0  0  0  0  0  0  0  0
    4.6036   -6.1889   -3.9153 N   0  0  0  0  0  0  0  0  0  0  0  0
    4.2963   -5.0075   -3.3950 N   0  0  0  0  0  0  0  0  0  0  0  0
    2.8595   -2.9369   -1.7675 C   0  0  0  0  0  0  0  0  0  0  0  0
    3.0765    0.7799    1.3236 C   0  0  0  0  0  0  0  0  0  0  0  0
    2.5022    1.7122    2.0963 C   0  0  0  0  0  0  0  0  0  0  0  0
    3.2890    2.8715    2.4731 C   0  0  0  0  0  0  0  0  0  0  0  0
    2.6621    4.0072    3.0015 C   0  0  0  0  0  0  0  0  0  0  0  0
    3.3657    5.2161    3.1230 C   0  0  0  0  0  0  0  0  0  0  0  0
    2.6652    6.4832    3.5583 C   0  0  0  0  0  0  0  0  0  0  0  0
    1.3500    6.3014    3.8611 F   0  0  0  0  0  0  0  0  0  0  0  0
    3.2320    7.0406    4.6626 F   0  0  0  0  0  0  0  0  0  0  0  0
    2.6955    7.4431    2.5936 F   0  0  0  0  0  0  0  0  0  0  0  0
    4.7236    5.2493    2.7686 C   0  0  0  0  0  0  0  0  0  0  0  0
    5.3666    4.0989    2.3007 C   0  0  0  0  0  0  0  0  0  0  0  0
    4.6420    2.9127    2.1401 C   0  0  0  0  0  0  0  0  0  0  0  0
    5.2891    1.7193    1.5414 C   0  0  0  0  0  0  0  0  0  0  0  0
    6.5069    1.6395    1.4497 O   0  0  0  0  0  0  0  0  0  0  0  0
    4.4577    0.7501    1.0438 O   0  0  0  0  0  0  0  0  0  0  0  0
    3.8094   -1.0957   -0.2036 H   0  0  0  0  0  0  0  0  0  0  0  0
    0.2224   -0.8584   -1.1739 H   0  0  0  0  0  0  0  0  0  0  0  0
   -0.8700   -2.4066   -2.6987 H   0  0  0  0  0  0  0  0  0  0  0  0
    0.3545   -4.3155   -3.6422 H   0  0  0  0  0  0  0  0  0  0  0  0
    1.3980   -6.5881   -3.5487 H   0  0  0  0  0  0  0  0  0  0  0  0
    3.5088   -7.8353   -4.3912 H   0  0  0  0  0  0  0  0  0  0  0  0
    3.9070   -3.0910   -1.5175 H   0  0  0  0  0  0  0  0  0  0  0  0
    1.4348    1.7165    2.2995 H   0  0  0  0  0  0  0  0  0  0  0  0
    1.6013    3.9743    3.2555 H   0  0  0  0  0  0  0  0  0  0  0  0
    5.2800    6.1840    2.8294 H   0  0  0  0  0  0  0  0  0  0  0  0
    6.4159    4.1449    2.0138 H   0  0  0  0  0  0  0  0  0  0  0  0
  1  2  2  0  0  0  0
  2  3  1  0  0  0  0
  2 15  1  0  0  0  0
  3  4  1  0  0  0  0
  3 30  1  0  0  0  0
  4  5  2  0  0  0  0
  4 14  1  0  0  0  0
  5  6  1  0  0  0  0
  5 31  1  0  0  0  0
  6  7  2  0  0  0  0
  6 32  1  0  0  0  0
  7  8  1  0  0  0  0
  7 33  1  0  0  0  0
  8  9  1  0  0  0  0
  8 14  2  0  0  0  0
  9 10  2  0  0  0  0
  9 13  1  0  0  0  0
 10 11  1  0  0  0  0
 10 34  1  0  0  0  0
 11 12  1  0  0  0  0
 11 35  1  0  0  0  0
 12 13  2  0  0  0  0
 14 36  1  0  0  0  0
 15 16  2  0  0  0  0
 15 29  1  0  0  0  0
 16 17  1  0  0  0  0
 16 37  1  0  0  0  0
 17 18  2  0  0  0  0
 17 26  1  0  0  0  0
 18 19  1  0  0  0  0
 18 38  1  0  0  0  0
 19 20  1  0  0  0  0
 19 24  2  0  0  0  0
 20 21  1  0  0  0  0
 20 22  1  0  0  0  0
 20 23  1  0  0  0  0
 24 25  1  0  0  0  0
 24 39  1  0  0  0  0
 25 26  2  0  0  0  0
 25 40  1  0  0  0  0
 26 27  1  0  0  0  0
 27 28  2  0  0  0  0
 27 29  1  0  0  0  0
M  END
$$$$
