
 OpenBabel01122422463D

 44 47  0  0  0  0  0  0  0  0999 V2000
    1.4294    0.3521    0.8901 C   0  0  0  0  0  0  0  0  0  0  0  0
    2.4227   -0.1258   -0.0102 O   0  0  0  0  0  0  0  0  0  0  0  0
    3.0435    0.8004   -0.8075 C   0  0  0  0  0  0  0  0  0  0  0  0
    2.7276    2.1579   -0.8369 C   0  0  0  0  0  0  0  0  0  0  0  0
    3.4039    3.0266   -1.7023 C   0  0  0  0  0  0  0  0  0  0  0  0
    4.4124    2.5727   -2.5677 C   0  0  0  0  0  0  0  0  0  0  0  0
    5.0715    3.4866   -3.5269 C   0  0  0  0  0  0  0  0  0  0  0  0
    6.4265    3.3615   -3.8618 C   0  0  0  0  0  0  0  0  0  0  0  0
    6.9802    4.2278   -4.7942 C   0  0  0  0  0  0  0  0  0  0  0  0
    6.2926    5.2127   -5.4078 N   0  0  0  0  0  0  0  0  0  0  0  0
    4.9936    5.3301   -5.0786 C   0  0  0  0  0  0  0  0  0  0  0  0
    4.3518    4.5083   -4.1646 C   0  0  0  0  0  0  0  0  0  0  0  0
    4.7354    1.2067   -2.5126 C   0  0  0  0  0  0  0  0  0  0  0  0
    4.0576    0.3216   -1.6537 C   0  0  0  0  0  0  0  0  0  0  0  0
    4.4086   -1.1009   -1.6981 C   0  0  0  0  0  0  0  0  0  0  0  0
    5.3724   -1.6311   -0.9437 C   0  0  0  0  0  0  0  0  0  0  0  0
    5.6966   -3.0754   -1.0083 C   0  0  0  0  0  0  0  0  0  0  0  0
    6.6203   -3.4595   -0.2920 O   0  0  0  0  0  0  0  0  0  0  0  0
    4.9414   -3.8403   -1.9070 N   0  0  0  0  0  0  0  0  0  0  0  0
    5.0782   -5.2632   -2.0435 C   0  0  0  0  0  0  0  0  0  0  0  0
    5.6321   -6.0592   -1.0303 C   0  0  0  0  0  0  0  0  0  0  0  0
    5.7385   -7.4473   -1.1736 C   0  0  0  0  0  0  0  0  0  0  0  0
    5.3049   -8.0658   -2.3416 C   0  0  0  0  0  0  0  0  0  0  0  0
    4.7511   -7.2986   -3.3612 C   0  0  0  0  0  0  0  0  0  0  0  0
    4.6278   -5.9131   -3.2073 C   0  0  0  0  0  0  0  0  0  0  0  0
    3.9679   -3.2934   -2.7279 N   0  0  0  0  0  0  0  0  0  0  0  0
    3.7204   -2.0327   -2.6050 C   0  0  0  0  0  0  0  0  0  0  0  0
    1.0620   -0.4996    1.4700 H   0  0  0  0  0  0  0  0  0  0  0  0
    0.5789    0.7764    0.3462 H   0  0  0  0  0  0  0  0  0  0  0  0
    1.8505    1.0774    1.5945 H   0  0  0  0  0  0  0  0  0  0  0  0
    1.9479    2.5800   -0.2110 H   0  0  0  0  0  0  0  0  0  0  0  0
    3.1217    4.0780   -1.6875 H   0  0  0  0  0  0  0  0  0  0  0  0
    7.0604    2.6078   -3.4065 H   0  0  0  0  0  0  0  0  0  0  0  0
    8.0250    4.1471   -5.0810 H   0  0  0  0  0  0  0  0  0  0  0  0
    4.4559    6.1281   -5.5834 H   0  0  0  0  0  0  0  0  0  0  0  0
    3.2946    4.6628   -3.9751 H   0  0  0  0  0  0  0  0  0  0  0  0
    5.5054    0.8077   -3.1721 H   0  0  0  0  0  0  0  0  0  0  0  0
    5.9611   -1.0479   -0.2465 H   0  0  0  0  0  0  0  0  0  0  0  0
    5.9578   -5.6293   -0.0877 H   0  0  0  0  0  0  0  0  0  0  0  0
    6.1571   -8.0401   -0.3644 H   0  0  0  0  0  0  0  0  0  0  0  0
    5.3954   -9.1426   -2.4538 H   0  0  0  0  0  0  0  0  0  0  0  0
    4.4147   -7.7736   -4.2789 H   0  0  0  0  0  0  0  0  0  0  0  0
    4.1978   -5.3402   -4.0256 H   0  0  0  0  0  0  0  0  0  0  0  0
    2.9296   -1.5908   -3.2319 H   0  0  0  0  0  0  0  0  0  0  0  0
  1  2  1  0  0  0  0
  1 28  1  0  0  0  0
  1 29  1  0  0  0  0
  1 30  1  0  0  0  0
  2  3  1  0  0  0  0
  3  4  2  0  0  0  0
  3 14  1  0  0  0  0
  4  5  1  0  0  0  0
  4 31  1  0  0  0  0
  5  6  2  0  0  0  0
  5 32  1  0  0  0  0
  6  7  1  0  0  0  0
  6 13  1  0  0  0  0
  7  8  2  0  0  0  0
  7 12  1  0  0  0  0
  8  9  1  0  0  0  0
  8 33  1  0  0  0  0
  9 10  2  0  0  0  0
  9 34  1  0  0  0  0
 10 11  1  0  0  0  0
 11 12  2  0  0  0  0
 11 35  1  0  0  0  0
 12 36  1  0  0  0  0
 13 14  2  0  0  0  0
 13 37  1  0  0  0  0
 14 15  1  0  0  0  0
 15 16  2  0  0  0  0
 15 27  1  0  0  0  0
 16 17  1  0  0  0  0
 16 38  1  0  0  0  0
 17 18  2  0  0  0  0
 17 19  1  0  0  0  0
 19 20  1  0  0  0  0
 19 26  1  0  0  0  0
 20 21  2  0  0  0  0
 20 25  1  0  0  0  0
 21 22  1  0  0  0  0
 21 39  1  0  0  0  0
 22 23  2  0  0  0  0
 22 40  1  0  0  0  0
 23 24  1  0  0  0  0
 23 41  1  0  0  0  0
 24 25  2  0  0  0  0
 24 42  1  0  0  0  0
 25 43  1  0  0  0  0
 26 27  2  0  0  0  0
 27 44  1  0  0  0  0
M  END
$$$$
