
 OpenBabel01122422493D

 41 44  0  0  0  0  0  0  0  0999 V2000
    0.9075    0.4399    0.1638 O   0  0  0  0  0  0  0  0  0  0  0  0
    2.0870    0.1374   -0.0069 C   0  0  0  0  0  0  0  0  0  0  0  0
    2.7509   -0.8795    0.6531 N   0  0  0  0  0  0  0  0  0  0  0  0
    2.1243   -1.7821    1.5487 C   0  0  0  0  0  0  0  0  0  0  0  0
    0.7377   -1.9829    1.5663 C   0  0  0  0  0  0  0  0  0  0  0  0
    0.1408   -2.7859    2.5348 C   0  0  0  0  0  0  0  0  0  0  0  0
    0.9430   -3.4028    3.4885 C   0  0  0  0  0  0  0  0  0  0  0  0
    0.3446   -4.1796    4.5863 C   0  0  0  0  0  0  0  0  0  0  0  0
   -0.8639   -4.3486    4.6897 O   0  0  0  0  0  0  0  0  0  0  0  0
    1.2340   -4.6879    5.4950 N   0  0  0  0  0  0  0  0  0  0  0  0
    2.5854   -4.5341    5.3745 C   0  0  0  0  0  0  0  0  0  0  0  0
    3.1626   -3.8840    4.4217 N   0  0  0  0  0  0  0  0  0  0  0  0
    2.3356   -3.2753    3.4586 C   0  0  0  0  0  0  0  0  0  0  0  0
    2.9222   -2.4780    2.4656 C   0  0  0  0  0  0  0  0  0  0  0  0
    2.9050    0.9514   -0.9605 C   0  0  0  0  0  0  0  0  0  0  0  0
    2.4328    2.1856   -1.2150 C   0  0  0  0  0  0  0  0  0  0  0  0
    2.9258    2.9990   -2.2373 N   0  0  0  0  0  0  0  0  0  0  0  0
    2.3042    4.2778   -2.5085 C   0  0  0  0  0  0  0  0  0  0  0  0
    2.2239    4.7910   -3.8142 C   0  0  0  0  0  0  0  0  0  0  0  0
    1.5989    6.0150   -4.0768 C   0  0  0  0  0  0  0  0  0  0  0  0
    1.0480    6.7426   -3.0336 C   0  0  0  0  0  0  0  0  0  0  0  0
    0.4592    7.9188   -3.2834 F   0  0  0  0  0  0  0  0  0  0  0  0
    1.0989    6.2625   -1.7336 C   0  0  0  0  0  0  0  0  0  0  0  0
    1.7184    5.0341   -1.4733 C   0  0  0  0  0  0  0  0  0  0  0  0
    3.9785    2.5337   -3.0555 C   0  0  0  0  0  0  0  0  0  0  0  0
    4.5244    3.1368   -3.9771 O   0  0  0  0  0  0  0  0  0  0  0  0
    4.5079    1.1725   -2.7389 C   0  0  0  0  0  0  0  0  0  0  0  0
    3.9968    0.4353   -1.7452 C   0  0  0  0  0  0  0  0  0  0  0  0
    3.7594   -0.8799    0.6333 H   0  0  0  0  0  0  0  0  0  0  0  0
    0.0822   -1.5166    0.8358 H   0  0  0  0  0  0  0  0  0  0  0  0
   -0.9407   -2.8994    2.5555 H   0  0  0  0  0  0  0  0  0  0  0  0
    0.8349   -5.2061    6.2645 H   0  0  0  0  0  0  0  0  0  0  0  0
    3.1627   -5.0212    6.1754 H   0  0  0  0  0  0  0  0  0  0  0  0
    4.0036   -2.3705    2.4642 H   0  0  0  0  0  0  0  0  0  0  0  0
    1.5668    2.5573   -0.6737 H   0  0  0  0  0  0  0  0  0  0  0  0
    2.6077    4.2326   -4.6640 H   0  0  0  0  0  0  0  0  0  0  0  0
    1.5380    6.3949   -5.0917 H   0  0  0  0  0  0  0  0  0  0  0  0
    0.6639    6.8468   -0.9289 H   0  0  0  0  0  0  0  0  0  0  0  0
    1.7643    4.7073   -0.4377 H   0  0  0  0  0  0  0  0  0  0  0  0
    5.3143    0.8214   -3.3716 H   0  0  0  0  0  0  0  0  0  0  0  0
    4.3792   -0.5614   -1.5587 H   0  0  0  0  0  0  0  0  0  0  0  0
  1  2  2  0  0  0  0
  2  3  1  0  0  0  0
  2 15  1  0  0  0  0
  3  4  1  0  0  0  0
  3 29  1  0  0  0  0
  4  5  2  0  0  0  0
  4 14  1  0  0  0  0
  5  6  1  0  0  0  0
  5 30  1  0  0  0  0
  6  7  2  0  0  0  0
  6 31  1  0  0  0  0
  7  8  1  0  0  0  0
  7 13  1  0  0  0  0
  8  9  2  0  0  0  0
  8 10  1  0  0  0  0
 10 11  1  0  0  0  0
 10 32  1  0  0  0  0
 11 12  2  0  0  0  0
 11 33  1  0  0  0  0
 12 13  1  0  0  0  0
 13 14  2  0  0  0  0
 14 34  1  0  0  0  0
 15 16  2  0  0  0  0
 15 28  1  0  0  0  0
 16 17  1  0  0  0  0
 16 35  1  0  0  0  0
 17 18  1  0  0  0  0
 17 25  1  0  0  0  0
 18 19  2  0  0  0  0
 18 24  1  0  0  0  0
 19 20  1  0  0  0  0
 19 36  1  0  0  0  0
 20 21  2  0  0  0  0
 20 37  1  0  0  0  0
 21 22  1  0  0  0  0
 21 23  1  0  0  0  0
 23 24  2  0  0  0  0
 23 38  1  0  0  0  0
 24 39  1  0  0  0  0
 25 26  2  0  0  0  0
 25 27  1  0  0  0  0
 27 28  2  0  0  0  0
 27 40  1  0  0  0  0
 28 41  1  0  0  0  0
M  END
$$$$
