
 OpenBabel01122422493D

 48 51  0  0  0  0  0  0  0  0999 V2000
    0.7521    0.1113   -0.5584 O   0  0  0  0  0  0  0  0  0  0  0  0
    1.8918    0.0335   -0.1035 C   0  0  0  0  0  0  0  0  0  0  0  0
    2.5943   -1.1265    0.1968 N   0  0  0  0  0  0  0  0  0  0  0  0
    2.0866   -2.4305    0.0504 C   0  0  0  0  0  0  0  0  0  0  0  0
    0.9932   -2.6766   -0.7785 C   0  0  0  0  0  0  0  0  0  0  0  0
    0.4645   -3.9545   -0.8979 C   0  0  0  0  0  0  0  0  0  0  0  0
    1.0363   -5.0065   -0.1956 C   0  0  0  0  0  0  0  0  0  0  0  0
    2.1715   -4.7961    0.6009 C   0  0  0  0  0  0  0  0  0  0  0  0
    2.7748   -5.9511    1.3658 C   0  0  0  0  0  0  0  0  0  0  0  0
    2.7721   -5.7130    2.7758 O   0  0  0  0  0  0  0  0  0  0  0  0
    1.4458   -5.5480    3.2856 C   0  0  0  0  0  0  0  0  0  0  0  0
    1.4685   -5.2781    4.7684 C   0  0  0  0  0  0  0  0  0  0  0  0
    0.4551   -4.4928    5.3369 C   0  0  0  0  0  0  0  0  0  0  0  0
    0.4021   -4.2876    6.7165 C   0  0  0  0  0  0  0  0  0  0  0  0
    1.3558   -4.8719    7.5462 C   0  0  0  0  0  0  0  0  0  0  0  0
    2.3717   -5.6499    6.9950 C   0  0  0  0  0  0  0  0  0  0  0  0
    2.4274   -5.8535    5.6136 C   0  0  0  0  0  0  0  0  0  0  0  0
    2.6945   -3.4940    0.7232 C   0  0  0  0  0  0  0  0  0  0  0  0
    2.6185    1.2954    0.1299 C   0  0  0  0  0  0  0  0  0  0  0  0
    3.5956    1.4206    1.1167 C   0  0  0  0  0  0  0  0  0  0  0  0
    4.4233    2.5478    1.1179 C   0  0  0  0  0  0  0  0  0  0  0  0
    4.4087    3.4333    0.0264 C   0  0  0  0  0  0  0  0  0  0  0  0
    3.4492    3.2606   -0.9677 C   0  0  0  0  0  0  0  0  0  0  0  0
    2.4560    2.3279   -0.7785 C   0  0  0  0  0  0  0  0  0  0  0  0
    1.2629    2.5471   -1.5862 C   0  0  0  0  0  0  0  0  0  0  0  0
    1.3375    2.8921   -2.8308 N   0  0  0  0  0  0  0  0  0  0  0  0
    2.6018    3.2374   -3.2400 N   0  0  0  0  0  0  0  0  0  0  0  0
    3.5026    3.8306   -2.3416 C   0  0  0  0  0  0  0  0  0  0  0  0
    4.3180    4.6515   -2.6644 O   0  0  0  0  0  0  0  0  0  0  0  0
    3.5197   -1.0528    0.5959 H   0  0  0  0  0  0  0  0  0  0  0  0
    0.5560   -1.8824   -1.3794 H   0  0  0  0  0  0  0  0  0  0  0  0
   -0.3881   -4.1214   -1.5507 H   0  0  0  0  0  0  0  0  0  0  0  0
    0.5842   -5.9900   -0.2917 H   0  0  0  0  0  0  0  0  0  0  0  0
    3.8174   -6.0932    1.0504 H   0  0  0  0  0  0  0  0  0  0  0  0
    2.2331   -6.8853    1.1564 H   0  0  0  0  0  0  0  0  0  0  0  0
    0.8567   -6.4536    3.0945 H   0  0  0  0  0  0  0  0  0  0  0  0
    0.9673   -4.6997    2.7801 H   0  0  0  0  0  0  0  0  0  0  0  0
   -0.3045   -4.0378    4.7048 H   0  0  0  0  0  0  0  0  0  0  0  0
   -0.3898   -3.6780    7.1426 H   0  0  0  0  0  0  0  0  0  0  0  0
    1.3053   -4.7235    8.6217 H   0  0  0  0  0  0  0  0  0  0  0  0
    3.1177   -6.1054    7.6414 H   0  0  0  0  0  0  0  0  0  0  0  0
    3.2262   -6.4672    5.2016 H   0  0  0  0  0  0  0  0  0  0  0  0
    3.5482   -3.3395    1.3756 H   0  0  0  0  0  0  0  0  0  0  0  0
    3.7076    0.6533    1.8770 H   0  0  0  0  0  0  0  0  0  0  0  0
    5.1332    2.6887    1.9304 H   0  0  0  0  0  0  0  0  0  0  0  0
    5.1453    4.2310   -0.0423 H   0  0  0  0  0  0  0  0  0  0  0  0
    0.2852    2.5114   -1.0758 H   0  0  0  0  0  0  0  0  0  0  0  0
    2.6465    3.5547   -4.2041 H   0  0  0  0  0  0  0  0  0  0  0  0
  1  2  2  0  0  0  0
  2  3  1  0  0  0  0
  2 19  1  0  0  0  0
  3  4  1  0  0  0  0
  3 30  1  0  0  0  0
  4  5  2  0  0  0  0
  4 18  1  0  0  0  0
  5  6  1  0  0  0  0
  5 31  1  0  0  0  0
  6  7  2  0  0  0  0
  6 32  1  0  0  0  0
  7  8  1  0  0  0  0
  7 33  1  0  0  0  0
  8  9  1  0  0  0  0
  8 18  2  0  0  0  0
  9 10  1  0  0  0  0
  9 34  1  0  0  0  0
  9 35  1  0  0  0  0
 10 11  1  0  0  0  0
 11 12  1  0  0  0  0
 11 36  1  0  0  0  0
 11 37  1  0  0  0  0
 12 13  2  0  0  0  0
 12 17  1  0  0  0  0
 13 14  1  0  0  0  0
 13 38  1  0  0  0  0
 14 15  2  0  0  0  0
 14 39  1  0  0  0  0
 15 16  1  0  0  0  0
 15 40  1  0  0  0  0
 16 17  2  0  0  0  0
 16 41  1  0  0  0  0
 17 42  1  0  0  0  0
 18 43  1  0  0  0  0
 19 20  2  0  0  0  0
 19 24  1  0  0  0  0
 20 21  1  0  0  0  0
 20 44  1  0  0  0  0
 21 22  2  0  0  0  0
 21 45  1  0  0  0  0
 22 23  1  0  0  0  0
 22 46  1  0  0  0  0
 23 24  2  0  0  0  0
 23 28  1  0  0  0  0
 24 25  1  0  0  0  0
 25 26  2  0  0  0  0
 25 47  1  0  0  0  0
 26 27  1  0  0  0  0
 27 28  1  0  0  0  0
 27 48  1  0  0  0  0
 28 29  2  0  0  0  0
M  END
$$$$
