
 OpenBabel01122422493D

 43 46  0  0  0  0  0  0  0  0999 V2000
    2.4773    0.1955    1.3499 O   0  0  0  0  0  0  0  0  0  0  0  0
    2.2747    0.1216    0.1386 C   0  0  0  0  0  0  0  0  0  0  0  0
    2.9987    1.0710   -0.8229 C   0  0  0  0  0  0  0  0  0  0  0  0
    2.1225    1.9035   -1.5833 O   0  0  0  0  0  0  0  0  0  0  0  0
    1.5793    1.3120   -2.6710 C   0  0  0  0  0  0  0  0  0  0  0  0
    1.7966    0.1631   -3.0279 O   0  0  0  0  0  0  0  0  0  0  0  0
    0.5816    2.1923   -3.3187 C   0  0  0  0  0  0  0  0  0  0  0  0
   -0.1469    1.6533   -4.3927 C   0  0  0  0  0  0  0  0  0  0  0  0
   -1.1754    2.3880   -4.9816 C   0  0  0  0  0  0  0  0  0  0  0  0
   -1.4570    3.6754   -4.5102 C   0  0  0  0  0  0  0  0  0  0  0  0
   -2.5139    4.3988   -5.0809 N   0  0  0  0  0  0  0  0  0  0  0  0
   -3.3204    3.9023   -6.0671 C   0  0  0  0  0  0  0  0  0  0  0  0
   -4.2578    4.5390   -6.5373 O   0  0  0  0  0  0  0  0  0  0  0  0
   -3.0109    2.5354   -6.5581 C   0  0  0  0  0  0  0  0  0  0  0  0
   -1.9930    1.8262   -6.0555 C   0  0  0  0  0  0  0  0  0  0  0  0
   -0.7094    4.2193   -3.4673 C   0  0  0  0  0  0  0  0  0  0  0  0
   -0.9852    5.4519   -3.0173 F   0  0  0  0  0  0  0  0  0  0  0  0
    0.3042    3.4861   -2.8612 C   0  0  0  0  0  0  0  0  0  0  0  0
    1.4473   -0.8012   -0.4779 N   0  0  0  0  0  0  0  0  0  0  0  0
    0.6045   -1.7277    0.1729 C   0  0  0  0  0  0  0  0  0  0  0  0
    0.3222   -1.7156    1.5326 C   0  0  0  0  0  0  0  0  0  0  0  0
   -0.4763   -2.6160    2.1603 N   0  0  0  0  0  0  0  0  0  0  0  0
   -1.0339   -3.5846    1.4217 C   0  0  0  0  0  0  0  0  0  0  0  0
   -1.8376   -4.5280    2.0464 C   0  0  0  0  0  0  0  0  0  0  0  0
   -2.4564   -5.5545    1.3301 C   0  0  0  0  0  0  0  0  0  0  0  0
   -2.2665   -5.6480   -0.0441 C   0  0  0  0  0  0  0  0  0  0  0  0
   -1.4559   -4.7175   -0.6948 C   0  0  0  0  0  0  0  0  0  0  0  0
   -0.8356   -3.6809    0.0284 C   0  0  0  0  0  0  0  0  0  0  0  0
   -0.0089   -2.7236   -0.5890 C   0  0  0  0  0  0  0  0  0  0  0  0
    3.6815    0.5031   -1.4668 H   0  0  0  0  0  0  0  0  0  0  0  0
    3.6212    1.7416   -0.2193 H   0  0  0  0  0  0  0  0  0  0  0  0
    0.0741    0.6471   -4.7463 H   0  0  0  0  0  0  0  0  0  0  0  0
   -2.7279    5.3275   -4.7380 H   0  0  0  0  0  0  0  0  0  0  0  0
   -3.6561    2.1507   -7.3371 H   0  0  0  0  0  0  0  0  0  0  0  0
   -1.7741    0.8274   -6.4201 H   0  0  0  0  0  0  0  0  0  0  0  0
    0.8430    3.9292   -2.0275 H   0  0  0  0  0  0  0  0  0  0  0  0
    1.5059   -0.8634   -1.4946 H   0  0  0  0  0  0  0  0  0  0  0  0
    0.7139   -0.9565    2.2016 H   0  0  0  0  0  0  0  0  0  0  0  0
   -1.9835   -4.4601    3.1220 H   0  0  0  0  0  0  0  0  0  0  0  0
   -3.0836   -6.2739    1.8491 H   0  0  0  0  0  0  0  0  0  0  0  0
   -2.7470   -6.4445   -0.6065 H   0  0  0  0  0  0  0  0  0  0  0  0
   -1.3089   -4.8067   -1.7689 H   0  0  0  0  0  0  0  0  0  0  0  0
    0.1639   -2.7774   -1.6613 H   0  0  0  0  0  0  0  0  0  0  0  0
  1  2  2  0  0  0  0
  2  3  1  0  0  0  0
  2 19  1  0  0  0  0
  3  4  1  0  0  0  0
  3 30  1  0  0  0  0
  3 31  1  0  0  0  0
  4  5  1  0  0  0  0
  5  6  2  0  0  0  0
  5  7  1  0  0  0  0
  7  8  2  0  0  0  0
  7 18  1  0  0  0  0
  8  9  1  0  0  0  0
  8 32  1  0  0  0  0
  9 10  2  0  0  0  0
  9 15  1  0  0  0  0
 10 11  1  0  0  0  0
 10 16  1  0  0  0  0
 11 12  1  0  0  0  0
 11 33  1  0  0  0  0
 12 13  2  0  0  0  0
 12 14  1  0  0  0  0
 14 15  2  0  0  0  0
 14 34  1  0  0  0  0
 15 35  1  0  0  0  0
 16 17  1  0  0  0  0
 16 18  2  0  0  0  0
 18 36  1  0  0  0  0
 19 20  1  0  0  0  0
 19 37  1  0  0  0  0
 20 21  2  0  0  0  0
 20 29  1  0  0  0  0
 21 22  1  0  0  0  0
 21 38  1  0  0  0  0
 22 23  2  0  0  0  0
 23 24  1  0  0  0  0
 23 28  1  0  0  0  0
 24 25  2  0  0  0  0
 24 39  1  0  0  0  0
 25 26  1  0  0  0  0
 25 40  1  0  0  0  0
 26 27  2  0  0  0  0
 26 41  1  0  0  0  0
 27 28  1  0  0  0  0
 27 42  1  0  0  0  0
 28 29  2  0  0  0  0
 29 43  1  0  0  0  0
M  END
$$$$
