
 OpenBabel01122422493D

 50 53  0  0  1  0  0  0  0  0999 V2000
    3.4213    0.7331    1.3601 N   0  0  0  0  0  0  0  0  0  0  0  0
    3.1910    0.0451    0.1903 C   0  0  0  0  0  0  0  0  0  0  0  0
    3.7218   -1.1653    0.0648 N   0  0  0  0  0  0  0  0  0  0  0  0
    3.5088   -1.7795   -1.1295 C   0  0  0  0  0  0  0  0  0  0  0  0
    4.1290   -3.1478   -1.2171 C   0  0  0  0  0  0  0  0  0  0  0  0
    4.4961   -3.6500   -2.2714 O   0  0  0  0  0  0  0  0  0  0  0  0
    4.2617   -3.7862   -0.0004 N   0  0  0  0  0  0  0  0  0  0  0  0
    4.8441   -5.1144    0.1241 C   0  0  3  0  0  0  0  0  0  0  0  0
    5.5865   -5.2276    1.4695 C   0  0  0  0  0  0  0  0  0  0  0  0
    5.4278   -6.1683    2.2534 O   0  0  0  0  0  0  0  0  0  0  0  0
    6.6433   -4.1677    1.7440 C   0  0  0  0  0  0  0  0  0  0  0  0
    6.3693   -3.3318    2.9699 C   0  0  0  0  0  0  0  0  0  0  0  0
    6.2947   -3.9263    4.2387 C   0  0  0  0  0  0  0  0  0  0  0  0
    6.0971   -3.1482    5.3795 C   0  0  0  0  0  0  0  0  0  0  0  0
    5.9823   -1.7652    5.2678 C   0  0  0  0  0  0  0  0  0  0  0  0
    6.0540   -1.1608    4.0141 C   0  0  0  0  0  0  0  0  0  0  0  0
    6.2414   -1.9391    2.8690 C   0  0  0  0  0  0  0  0  0  0  0  0
    3.8326   -6.2267   -0.1171 C   0  0  0  0  0  0  0  0  0  0  0  0
    4.0080   -7.1102   -1.1966 C   0  0  0  0  0  0  0  0  0  0  0  0
    3.1429   -8.1887   -1.3925 C   0  0  0  0  0  0  0  0  0  0  0  0
    2.0846   -8.3988   -0.5159 C   0  0  0  0  0  0  0  0  0  0  0  0
    1.8800   -7.5216    0.5462 C   0  0  0  0  0  0  0  0  0  0  0  0
    2.7421   -6.4394    0.7416 C   0  0  0  0  0  0  0  0  0  0  0  0
    2.7419   -1.2471   -2.1767 C   0  0  0  0  0  0  0  0  0  0  0  0
    2.4608   -1.8463   -3.4337 C   0  0  0  0  0  0  0  0  0  0  0  0
    1.6150   -1.2279   -4.3497 C   0  0  0  0  0  0  0  0  0  0  0  0
    1.0450   -0.0056   -4.0291 C   0  0  0  0  0  0  0  0  0  0  0  0
    1.3443    0.5951   -2.8032 C   0  0  0  0  0  0  0  0  0  0  0  0
    2.1894   -0.0021   -1.8757 C   0  0  0  0  0  0  0  0  0  0  0  0
    2.4136    0.6365   -0.7175 N   0  0  0  0  0  0  0  0  0  0  0  0
    3.6210    0.1031    2.1230 H   0  0  0  0  0  0  0  0  0  0  0  0
    2.7010    1.4281    1.5062 H   0  0  0  0  0  0  0  0  0  0  0  0
    3.9834   -3.2683    0.8291 H   0  0  0  0  0  0  0  0  0  0  0  0
    5.6291   -5.2008   -0.6397 H   0  0  0  0  0  0  0  0  0  0  0  0
    6.7492   -3.5249    0.8626 H   0  0  0  0  0  0  0  0  0  0  0  0
    7.6080   -4.6776    1.8529 H   0  0  0  0  0  0  0  0  0  0  0  0
    6.3972   -5.0052    4.3487 H   0  0  0  0  0  0  0  0  0  0  0  0
    6.0450   -3.6241    6.3555 H   0  0  0  0  0  0  0  0  0  0  0  0
    5.8484   -1.1590    6.1597 H   0  0  0  0  0  0  0  0  0  0  0  0
    5.9814   -0.0794    3.9293 H   0  0  0  0  0  0  0  0  0  0  0  0
    6.3097   -1.4433    1.9022 H   0  0  0  0  0  0  0  0  0  0  0  0
    4.8347   -6.9739   -1.8929 H   0  0  0  0  0  0  0  0  0  0  0  0
    3.3059   -8.8738   -2.2210 H   0  0  0  0  0  0  0  0  0  0  0  0
    1.4238   -9.2530   -0.6524 H   0  0  0  0  0  0  0  0  0  0  0  0
    1.0609   -7.6934    1.2400 H   0  0  0  0  0  0  0  0  0  0  0  0
    2.5812   -5.7838    1.5941 H   0  0  0  0  0  0  0  0  0  0  0  0
    2.8920   -2.8068   -3.7071 H   0  0  0  0  0  0  0  0  0  0  0  0
    1.3993   -1.7060   -5.3021 H   0  0  0  0  0  0  0  0  0  0  0  0
    0.3676    0.4823   -4.7251 H   0  0  0  0  0  0  0  0  0  0  0  0
    0.8980    1.5598   -2.5663 H   0  0  0  0  0  0  0  0  0  0  0  0
  1  2  1  0  0  0  0
  1 31  1  0  0  0  0
  1 32  1  0  0  0  0
  2  3  2  0  0  0  0
  2 30  1  0  0  0  0
  3  4  1  0  0  0  0
  4  5  1  0  0  0  0
  4 24  2  0  0  0  0
  5  6  2  0  0  0  0
  5  7  1  0  0  0  0
  7  8  1  0  0  0  0
  7 33  1  0  0  0  0
  8  9  1  0  0  0  0
  8 18  1  0  0  0  0
  8 34  1  0  0  0  0
  9 10  2  0  0  0  0
  9 11  1  0  0  0  0
 11 12  1  0  0  0  0
 11 35  1  0  0  0  0
 11 36  1  0  0  0  0
 12 13  2  0  0  0  0
 12 17  1  0  0  0  0
 13 14  1  0  0  0  0
 13 37  1  0  0  0  0
 14 15  2  0  0  0  0
 14 38  1  0  0  0  0
 15 16  1  0  0  0  0
 15 39  1  0  0  0  0
 16 17  2  0  0  0  0
 16 40  1  0  0  0  0
 17 41  1  0  0  0  0
 18 19  2  0  0  0  0
 18 23  1  0  0  0  0
 19 20  1  0  0  0  0
 19 42  1  0  0  0  0
 20 21  2  0  0  0  0
 20 43  1  0  0  0  0
 21 22  1  0  0  0  0
 21 44  1  0  0  0  0
 22 23  2  0  0  0  0
 22 45  1  0  0  0  0
 23 46  1  0  0  0  0
 24 25  1  0  0  0  0
 24 29  1  0  0  0  0
 25 26  2  0  0  0  0
 25 47  1  0  0  0  0
 26 27  1  0  0  0  0
 26 48  1  0  0  0  0
 27 28  2  0  0  0  0
 27 49  1  0  0  0  0
 28 29  1  0  0  0  0
 28 50  1  0  0  0  0
 29 30  2  0  0  0  0
M  END
$$$$
