
 OpenBabel01122422493D

 45 47  0  0  0  0  0  0  0  0999 V2000
    3.0879    2.3282   -1.5828 C   0  0  0  0  0  0  0  0  0  0  0  0
    3.0288    2.5321   -0.1696 O   0  0  0  0  0  0  0  0  0  0  0  0
    2.9034    1.3975    0.5573 C   0  0  0  0  0  0  0  0  0  0  0  0
    2.8530    0.2574    0.1245 O   0  0  0  0  0  0  0  0  0  0  0  0
    2.6910    1.7270    1.9760 C   0  0  0  0  0  0  0  0  0  0  0  0
    1.7401    0.9740    2.6775 C   0  0  0  0  0  0  0  0  0  0  0  0
    1.4459    1.2609    4.0094 C   0  0  0  0  0  0  0  0  0  0  0  0
    0.4524    0.5777    4.7500 N   0  0  0  0  0  0  0  0  0  0  0  0
   -0.3572   -0.4518    4.2976 C   0  0  0  0  0  0  0  0  0  0  0  0
   -0.3854   -0.8943    3.1541 O   0  0  0  0  0  0  0  0  0  0  0  0
   -1.2860   -1.0305    5.3304 C   0  0  0  0  0  0  0  0  0  0  0  0
   -2.3736   -1.6855    4.8788 C   0  0  0  0  0  0  0  0  0  0  0  0
   -3.3128   -2.2905    5.7255 N   0  0  0  0  0  0  0  0  0  0  0  0
   -4.4804   -2.9734    5.1907 C   0  0  0  0  0  0  0  0  0  0  0  0
   -5.6594   -3.1086    5.9400 C   0  0  0  0  0  0  0  0  0  0  0  0
   -6.7712   -3.7720    5.4233 C   0  0  0  0  0  0  0  0  0  0  0  0
   -7.8786   -3.8782    6.1699 F   0  0  0  0  0  0  0  0  0  0  0  0
   -6.7563   -4.3142    4.1488 C   0  0  0  0  0  0  0  0  0  0  0  0
   -5.6085   -4.1853    3.3764 C   0  0  0  0  0  0  0  0  0  0  0  0
   -4.4841   -3.5191    3.8909 C   0  0  0  0  0  0  0  0  0  0  0  0
   -3.1080   -2.2536    7.1253 C   0  0  0  0  0  0  0  0  0  0  0  0
   -3.7939   -2.7869    7.9942 O   0  0  0  0  0  0  0  0  0  0  0  0
   -1.8977   -1.5350    7.6030 C   0  0  0  0  0  0  0  0  0  0  0  0
   -1.0364   -0.9781    6.7484 C   0  0  0  0  0  0  0  0  0  0  0  0
    2.1682    2.2779    4.6561 C   0  0  0  0  0  0  0  0  0  0  0  0
    3.1609    3.0073    3.9761 C   0  0  0  0  0  0  0  0  0  0  0  0
    3.9826    4.0540    4.6708 C   0  0  0  0  0  0  0  0  0  0  0  0
    3.3991    2.7319    2.6249 C   0  0  0  0  0  0  0  0  0  0  0  0
    4.3451    3.4316    1.9798 F   0  0  0  0  0  0  0  0  0  0  0  0
    2.7174    3.2348   -2.0687 H   0  0  0  0  0  0  0  0  0  0  0  0
    2.4606    1.4925   -1.9110 H   0  0  0  0  0  0  0  0  0  0  0  0
    4.1264    2.1654   -1.8837 H   0  0  0  0  0  0  0  0  0  0  0  0
    1.2373    0.1769    2.1386 H   0  0  0  0  0  0  0  0  0  0  0  0
    0.3039    0.9163    5.6898 H   0  0  0  0  0  0  0  0  0  0  0  0
   -2.5707   -1.7301    3.8117 H   0  0  0  0  0  0  0  0  0  0  0  0
   -5.7679   -2.6844    6.9322 H   0  0  0  0  0  0  0  0  0  0  0  0
   -7.6338   -4.8293    3.7721 H   0  0  0  0  0  0  0  0  0  0  0  0
   -5.5787   -4.6113    2.3763 H   0  0  0  0  0  0  0  0  0  0  0  0
   -3.6018   -3.4867    3.2574 H   0  0  0  0  0  0  0  0  0  0  0  0
   -1.7430   -1.5280    8.6752 H   0  0  0  0  0  0  0  0  0  0  0  0
   -0.1374   -0.5131    7.1362 H   0  0  0  0  0  0  0  0  0  0  0  0
    1.9748    2.5065    5.7027 H   0  0  0  0  0  0  0  0  0  0  0  0
    3.6798    4.1805    5.7149 H   0  0  0  0  0  0  0  0  0  0  0  0
    3.8742    5.0214    4.1692 H   0  0  0  0  0  0  0  0  0  0  0  0
    5.0395    3.7646    4.6628 H   0  0  0  0  0  0  0  0  0  0  0  0
  1  2  1  0  0  0  0
  1 30  1  0  0  0  0
  1 31  1  0  0  0  0
  1 32  1  0  0  0  0
  2  3  1  0  0  0  0
  3  4  2  0  0  0  0
  3  5  1  0  0  0  0
  5  6  2  0  0  0  0
  5 28  1  0  0  0  0
  6  7  1  0  0  0  0
  6 33  1  0  0  0  0
  7  8  1  0  0  0  0
  7 25  2  0  0  0  0
  8  9  1  0  0  0  0
  8 34  1  0  0  0  0
  9 10  2  0  0  0  0
  9 11  1  0  0  0  0
 11 12  2  0  0  0  0
 11 24  1  0  0  0  0
 12 13  1  0  0  0  0
 12 35  1  0  0  0  0
 13 14  1  0  0  0  0
 13 21  1  0  0  0  0
 14 15  2  0  0  0  0
 14 20  1  0  0  0  0
 15 16  1  0  0  0  0
 15 36  1  0  0  0  0
 16 17  1  0  0  0  0
 16 18  2  0  0  0  0
 18 19  1  0  0  0  0
 18 37  1  0  0  0  0
 19 20  2  0  0  0  0
 19 38  1  0  0  0  0
 20 39  1  0  0  0  0
 21 22  2  0  0  0  0
 21 23  1  0  0  0  0
 23 24  2  0  0  0  0
 23 40  1  0  0  0  0
 24 41  1  0  0  0  0
 25 26  1  0  0  0  0
 25 42  1  0  0  0  0
 26 27  1  0  0  0  0
 26 28  2  0  0  0  0
 27 43  1  0  0  0  0
 27 44  1  0  0  0  0
 27 45  1  0  0  0  0
 28 29  1  0  0  0  0
M  END
$$$$
