
 OpenBabel01122422493D

 45 48  0  0  0  0  0  0  0  0999 V2000
    2.4144    0.6384   -0.7194 C   0  0  0  0  0  0  0  0  0  0  0  0
    0.9587    0.4364   -0.4117 C   0  0  0  0  0  0  0  0  0  0  0  0
    0.0555    1.4727   -0.6618 C   0  0  0  0  0  0  0  0  0  0  0  0
   -1.2806    1.4042   -0.4554 N   0  0  0  0  0  0  0  0  0  0  0  0
   -1.7430    0.2309    0.0456 C   0  0  0  0  0  0  0  0  0  0  0  0
   -3.2147    0.1293    0.3022 C   0  0  0  0  0  0  0  0  0  0  0  0
   -3.6500   -0.8817    0.8395 O   0  0  0  0  0  0  0  0  0  0  0  0
   -3.9624    1.2081   -0.1497 N   0  0  0  0  0  0  0  0  0  0  0  0
   -5.3683    1.3193   -0.0820 C   0  0  0  0  0  0  0  0  0  0  0  0
   -6.1517    0.5074    0.7465 C   0  0  0  0  0  0  0  0  0  0  0  0
   -7.5440    0.5919    0.7239 C   0  0  0  0  0  0  0  0  0  0  0  0
   -8.1660    1.5011   -0.1205 C   0  0  0  0  0  0  0  0  0  0  0  0
   -9.5058    1.5475   -0.1190 F   0  0  0  0  0  0  0  0  0  0  0  0
   -7.4082    2.3523   -0.9234 C   0  0  0  0  0  0  0  0  0  0  0  0
   -8.1074    3.2714   -1.8513 C   0  0  0  0  0  0  0  0  0  0  0  0
   -9.1154    2.8836   -2.4359 O   0  0  0  0  0  0  0  0  0  0  0  0
   -7.5934    4.6357   -2.1402 C   0  0  0  0  0  0  0  0  0  0  0  0
   -6.8708    5.3768   -1.1976 C   0  0  0  0  0  0  0  0  0  0  0  0
   -6.4042    6.6526   -1.5229 C   0  0  0  0  0  0  0  0  0  0  0  0
   -6.6730    7.1964   -2.7799 C   0  0  0  0  0  0  0  0  0  0  0  0
   -7.4136    6.4731   -3.7125 C   0  0  0  0  0  0  0  0  0  0  0  0
   -7.8758    5.1965   -3.3929 C   0  0  0  0  0  0  0  0  0  0  0  0
   -6.0028    2.2640   -0.8998 C   0  0  0  0  0  0  0  0  0  0  0  0
   -0.9350   -0.8627    0.3256 C   0  0  0  0  0  0  0  0  0  0  0  0
    0.4422   -0.7665    0.1009 C   0  0  0  0  0  0  0  0  0  0  0  0
    1.2770   -1.9262    0.3969 C   0  0  0  0  0  0  0  0  0  0  0  0
    0.8579   -3.2001    0.3076 N   0  0  0  0  0  0  0  0  0  0  0  0
    1.9780   -3.8460    0.6663 N   0  0  0  0  0  0  0  0  0  0  0  0
    3.0234   -3.0746    0.9796 N   0  0  0  0  0  0  0  0  0  0  0  0
    2.5836   -1.8355    0.8164 N   0  0  0  0  0  0  0  0  0  0  0  0
    2.5943    1.6107   -1.1889 H   0  0  0  0  0  0  0  0  0  0  0  0
    2.7653   -0.1281   -1.4185 H   0  0  0  0  0  0  0  0  0  0  0  0
    3.0111    0.6068    0.1975 H   0  0  0  0  0  0  0  0  0  0  0  0
    0.3991    2.4273   -1.0563 H   0  0  0  0  0  0  0  0  0  0  0  0
   -3.4359    1.9024   -0.6747 H   0  0  0  0  0  0  0  0  0  0  0  0
   -5.7047   -0.2086    1.4304 H   0  0  0  0  0  0  0  0  0  0  0  0
   -8.1437   -0.0583    1.3539 H   0  0  0  0  0  0  0  0  0  0  0  0
   -6.6761    4.9874   -0.2021 H   0  0  0  0  0  0  0  0  0  0  0  0
   -5.8398    7.2278   -0.7945 H   0  0  0  0  0  0  0  0  0  0  0  0
   -6.3147    8.1945   -3.0284 H   0  0  0  0  0  0  0  0  0  0  0  0
   -7.6373    6.9025   -4.6858 H   0  0  0  0  0  0  0  0  0  0  0  0
   -8.4607    4.6384   -4.1230 H   0  0  0  0  0  0  0  0  0  0  0  0
   -5.4091    2.8902   -1.5608 H   0  0  0  0  0  0  0  0  0  0  0  0
   -1.3737   -1.7774    0.7171 H   0  0  0  0  0  0  0  0  0  0  0  0
    2.0360   -4.8605    0.6935 H   0  0  0  0  0  0  0  0  0  0  0  0
  1  2  1  0  0  0  0
  1 31  1  0  0  0  0
  1 32  1  0  0  0  0
  1 33  1  0  0  0  0
  2  3  2  0  0  0  0
  2 25  1  0  0  0  0
  3  4  1  0  0  0  0
  3 34  1  0  0  0  0
  4  5  2  0  0  0  0
  5  6  1  0  0  0  0
  5 24  1  0  0  0  0
  6  7  2  0  0  0  0
  6  8  1  0  0  0  0
  8  9  1  0  0  0  0
  8 35  1  0  0  0  0
  9 10  2  0  0  0  0
  9 23  1  0  0  0  0
 10 11  1  0  0  0  0
 10 36  1  0  0  0  0
 11 12  2  0  0  0  0
 11 37  1  0  0  0  0
 12 13  1  0  0  0  0
 12 14  1  0  0  0  0
 14 15  1  0  0  0  0
 14 23  2  0  0  0  0
 15 16  2  0  0  0  0
 15 17  1  0  0  0  0
 17 18  2  0  0  0  0
 17 22  1  0  0  0  0
 18 19  1  0  0  0  0
 18 38  1  0  0  0  0
 19 20  2  0  0  0  0
 19 39  1  0  0  0  0
 20 21  1  0  0  0  0
 20 40  1  0  0  0  0
 21 22  2  0  0  0  0
 21 41  1  0  0  0  0
 22 42  1  0  0  0  0
 23 43  1  0  0  0  0
 24 25  2  0  0  0  0
 24 44  1  0  0  0  0
 25 26  1  0  0  0  0
 26 27  2  0  0  0  0
 26 30  1  0  0  0  0
 27 28  1  0  0  0  0
 28 29  1  0  0  0  0
 28 45  1  0  0  0  0
 29 30  2  0  0  0  0
M  END
$$$$
