
 OpenBabel01122422493D

 46 49  0  0  0  0  0  0  0  0999 V2000
    1.0832    0.1271    0.1771 C   0  0  0  0  0  0  0  0  0  0  0  0
    2.5612   -0.0013    0.1784 C   0  0  0  0  0  0  0  0  0  0  0  0
    3.3395    1.0382    0.4972 N   0  0  0  0  0  0  0  0  0  0  0  0
    4.6040    0.5944    0.2772 N   0  0  0  0  0  0  0  0  0  0  0  0
    5.6923    1.5042    0.1711 C   0  0  0  0  0  0  0  0  0  0  0  0
    5.6175    2.7532    0.7933 C   0  0  0  0  0  0  0  0  0  0  0  0
    6.6874    3.6543    0.6991 C   0  0  0  0  0  0  0  0  0  0  0  0
    7.8379    3.3112   -0.0130 C   0  0  0  0  0  0  0  0  0  0  0  0
    8.9394    4.0877   -0.1863 O   0  0  0  0  0  0  0  0  0  0  0  0
    9.3306    4.9923    0.8353 C   0  0  0  0  0  0  0  0  0  0  0  0
    8.6468    4.8557    1.9900 F   0  0  0  0  0  0  0  0  0  0  0  0
   10.6393    4.7833    1.1078 F   0  0  0  0  0  0  0  0  0  0  0  0
    9.1911    6.2586    0.3893 F   0  0  0  0  0  0  0  0  0  0  0  0
    7.8783    2.0945   -0.6949 C   0  0  0  0  0  0  0  0  0  0  0  0
    6.8190    1.1929   -0.6048 C   0  0  0  0  0  0  0  0  0  0  0  0
    4.6253   -0.7805    0.0855 C   0  0  0  0  0  0  0  0  0  0  0  0
    5.7791   -1.5476    0.1195 N   0  0  0  0  0  0  0  0  0  0  0  0
    6.0559   -2.4099   -0.9236 C   0  0  0  0  0  0  0  0  0  0  0  0
    5.3425   -2.5830   -1.9058 O   0  0  0  0  0  0  0  0  0  0  0  0
    7.3482   -3.1383   -0.8317 C   0  0  0  0  0  0  0  0  0  0  0  0
    8.4670   -2.6543   -0.1509 C   0  0  0  0  0  0  0  0  0  0  0  0
    9.5776   -3.4737   -0.0780 C   0  0  0  0  0  0  0  0  0  0  0  0
    9.6395   -4.7095   -0.6164 N   0  0  0  0  0  0  0  0  0  0  0  0
    8.5499   -5.1514   -1.2971 C   0  0  0  0  0  0  0  0  0  0  0  0
    8.6008   -6.5158   -1.8391 C   0  0  0  0  0  0  0  0  0  0  0  0
    7.6025   -7.0319   -2.5795 N   0  0  0  0  0  0  0  0  0  0  0  0
    7.9950   -8.2795   -2.8502 N   0  0  0  0  0  0  0  0  0  0  0  0
    9.1999   -8.6056   -2.3153 C   0  0  0  0  0  0  0  0  0  0  0  0
    9.6294   -7.4787   -1.6555 C   0  0  0  0  0  0  0  0  0  0  0  0
    7.4031   -4.3878   -1.4420 C   0  0  0  0  0  0  0  0  0  0  0  0
    3.3174   -1.1655   -0.0866 C   0  0  0  0  0  0  0  0  0  0  0  0
    0.7732    1.1769    0.1754 H   0  0  0  0  0  0  0  0  0  0  0  0
    0.6576   -0.3557    1.0628 H   0  0  0  0  0  0  0  0  0  0  0  0
    0.6584   -0.3494   -0.7115 H   0  0  0  0  0  0  0  0  0  0  0  0
    4.7339    3.0345    1.3656 H   0  0  0  0  0  0  0  0  0  0  0  0
    6.5794    4.6202    1.1827 H   0  0  0  0  0  0  0  0  0  0  0  0
    8.7359    1.8513   -1.3210 H   0  0  0  0  0  0  0  0  0  0  0  0
    6.8688    0.2926   -1.2113 H   0  0  0  0  0  0  0  0  0  0  0  0
    6.5260   -1.2322    0.7225 H   0  0  0  0  0  0  0  0  0  0  0  0
    8.5027   -1.6728    0.3054 H   0  0  0  0  0  0  0  0  0  0  0  0
   10.4777   -3.1532    0.4430 H   0  0  0  0  0  0  0  0  0  0  0  0
    7.3765   -8.8677   -3.4097 H   0  0  0  0  0  0  0  0  0  0  0  0
    9.6357   -9.5854   -2.4428 H   0  0  0  0  0  0  0  0  0  0  0  0
   10.5479   -7.3547   -1.0981 H   0  0  0  0  0  0  0  0  0  0  0  0
    6.5477   -4.7713   -1.9935 H   0  0  0  0  0  0  0  0  0  0  0  0
    2.9534   -2.1642   -0.2828 H   0  0  0  0  0  0  0  0  0  0  0  0
  1  2  1  0  0  0  0
  1 32  1  0  0  0  0
  1 33  1  0  0  0  0
  1 34  1  0  0  0  0
  2  3  2  0  0  0  0
  2 31  1  0  0  0  0
  3  4  1  0  0  0  0
  4  5  1  0  0  0  0
  4 16  1  0  0  0  0
  5  6  2  0  0  0  0
  5 15  1  0  0  0  0
  6  7  1  0  0  0  0
  6 35  1  0  0  0  0
  7  8  2  0  0  0  0
  7 36  1  0  0  0  0
  8  9  1  0  0  0  0
  8 14  1  0  0  0  0
  9 10  1  0  0  0  0
 10 11  1  0  0  0  0
 10 12  1  0  0  0  0
 10 13  1  0  0  0  0
 14 15  2  0  0  0  0
 14 37  1  0  0  0  0
 15 38  1  0  0  0  0
 16 17  1  0  0  0  0
 16 31  2  0  0  0  0
 17 18  1  0  0  0  0
 17 39  1  0  0  0  0
 18 19  2  0  0  0  0
 18 20  1  0  0  0  0
 20 21  2  0  0  0  0
 20 30  1  0  0  0  0
 21 22  1  0  0  0  0
 21 40  1  0  0  0  0
 22 23  2  0  0  0  0
 22 41  1  0  0  0  0
 23 24  1  0  0  0  0
 24 25  1  0  0  0  0
 24 30  2  0  0  0  0
 25 26  2  0  0  0  0
 25 29  1  0  0  0  0
 26 27  1  0  0  0  0
 27 28  1  0  0  0  0
 27 42  1  0  0  0  0
 28 29  2  0  0  0  0
 28 43  1  0  0  0  0
 29 44  1  0  0  0  0
 30 45  1  0  0  0  0
 31 46  1  0  0  0  0
M  END
$$$$
