
 OpenBabel01122422493D

 45 48  0  0  0  0  0  0  0  0999 V2000
    5.1326    0.9243    1.9346 O   0  0  0  0  0  0  0  0  0  0  0  0
    4.4093    0.4619    1.0558 C   0  0  0  0  0  0  0  0  0  0  0  0
    3.0691    0.1536    1.2036 N   0  0  0  0  0  0  0  0  0  0  0  0
    2.3292    0.2813    2.3625 C   0  0  0  0  0  0  0  0  0  0  0  0
    2.6166    1.1311    3.3595 C   0  0  0  0  0  0  0  0  0  0  0  0
    1.8641    1.1429    4.5811 C   0  0  0  0  0  0  0  0  0  0  0  0
    0.8961    0.2453    4.7792 C   0  0  0  0  0  0  0  0  0  0  0  0
    0.5440   -0.6606    3.7926 N   0  0  0  0  0  0  0  0  0  0  0  0
   -0.3833   -1.7465    4.1255 C   0  0  0  0  0  0  0  0  0  0  0  0
    0.3648   -2.9213    4.7277 C   0  0  0  0  0  0  0  0  0  0  0  0
    0.5886   -3.0036    6.1129 C   0  0  0  0  0  0  0  0  0  0  0  0
    1.3963   -4.0136    6.6404 C   0  0  0  0  0  0  0  0  0  0  0  0
    1.9753   -4.9449    5.7871 C   0  0  0  0  0  0  0  0  0  0  0  0
    2.7794   -5.8909    6.2907 F   0  0  0  0  0  0  0  0  0  0  0  0
    1.7437   -4.9011    4.4183 C   0  0  0  0  0  0  0  0  0  0  0  0
    0.9392   -3.8915    3.8887 C   0  0  0  0  0  0  0  0  0  0  0  0
    1.1442   -0.6525    2.5254 C   0  0  0  0  0  0  0  0  0  0  0  0
    0.8143   -1.3813    1.5938 O   0  0  0  0  0  0  0  0  0  0  0  0
    4.9556    0.1128   -0.2596 C   0  0  0  0  0  0  0  0  0  0  0  0
    4.1762   -0.2501   -1.2958 N   0  0  0  0  0  0  0  0  0  0  0  0
    5.0404   -0.5271   -2.3071 N   0  0  0  0  0  0  0  0  0  0  0  0
    4.5623   -0.9617   -3.5639 C   0  0  0  0  0  0  0  0  0  0  0  0
    5.4196   -1.4253   -4.5654 C   0  0  0  0  0  0  0  0  0  0  0  0
    4.8798   -1.8412   -5.7812 C   0  0  0  0  0  0  0  0  0  0  0  0
    3.5064   -1.7672   -5.9551 C   0  0  0  0  0  0  0  0  0  0  0  0
    2.6549   -1.3247   -5.0078 N   0  0  0  0  0  0  0  0  0  0  0  0
    3.1975   -0.9366   -3.8288 C   0  0  0  0  0  0  0  0  0  0  0  0
    6.3481   -0.3370   -1.9215 C   0  0  0  0  0  0  0  0  0  0  0  0
    6.3238    0.0886   -0.6171 C   0  0  0  0  0  0  0  0  0  0  0  0
    2.6618   -0.4106    0.4612 H   0  0  0  0  0  0  0  0  0  0  0  0
    3.4486    1.8273    3.3006 H   0  0  0  0  0  0  0  0  0  0  0  0
    2.1464    1.8536    5.3555 H   0  0  0  0  0  0  0  0  0  0  0  0
    0.3627    0.1938    5.7218 H   0  0  0  0  0  0  0  0  0  0  0  0
   -0.9228   -2.0687    3.2284 H   0  0  0  0  0  0  0  0  0  0  0  0
   -1.1412   -1.3758    4.8277 H   0  0  0  0  0  0  0  0  0  0  0  0
    0.1590   -2.2662    6.7874 H   0  0  0  0  0  0  0  0  0  0  0  0
    1.5947   -4.0688    7.7057 H   0  0  0  0  0  0  0  0  0  0  0  0
    2.2064   -5.6372    3.7694 H   0  0  0  0  0  0  0  0  0  0  0  0
    0.7855   -3.8431    2.8112 H   0  0  0  0  0  0  0  0  0  0  0  0
    6.4934   -1.4963   -4.4269 H   0  0  0  0  0  0  0  0  0  0  0  0
    5.5150   -2.2179   -6.5756 H   0  0  0  0  0  0  0  0  0  0  0  0
    3.0425   -2.0743   -6.8883 H   0  0  0  0  0  0  0  0  0  0  0  0
    2.4727   -0.5855   -3.0986 H   0  0  0  0  0  0  0  0  0  0  0  0
    7.1797   -0.4999   -2.5902 H   0  0  0  0  0  0  0  0  0  0  0  0
    7.1686    0.3323    0.0129 H   0  0  0  0  0  0  0  0  0  0  0  0
  1  2  2  0  0  0  0
  2  3  1  0  0  0  0
  2 19  1  0  0  0  0
  3  4  1  0  0  0  0
  3 30  1  0  0  0  0
  4  5  2  0  0  0  0
  4 17  1  0  0  0  0
  5  6  1  0  0  0  0
  5 31  1  0  0  0  0
  6  7  2  0  0  0  0
  6 32  1  0  0  0  0
  7  8  1  0  0  0  0
  7 33  1  0  0  0  0
  8  9  1  0  0  0  0
  8 17  1  0  0  0  0
  9 10  1  0  0  0  0
  9 34  1  0  0  0  0
  9 35  1  0  0  0  0
 10 11  2  0  0  0  0
 10 16  1  0  0  0  0
 11 12  1  0  0  0  0
 11 36  1  0  0  0  0
 12 13  2  0  0  0  0
 12 37  1  0  0  0  0
 13 14  1  0  0  0  0
 13 15  1  0  0  0  0
 15 16  2  0  0  0  0
 15 38  1  0  0  0  0
 16 39  1  0  0  0  0
 17 18  2  0  0  0  0
 19 20  2  0  0  0  0
 19 29  1  0  0  0  0
 20 21  1  0  0  0  0
 21 22  1  0  0  0  0
 21 28  1  0  0  0  0
 22 23  2  0  0  0  0
 22 27  1  0  0  0  0
 23 24  1  0  0  0  0
 23 40  1  0  0  0  0
 24 25  2  0  0  0  0
 24 41  1  0  0  0  0
 25 26  1  0  0  0  0
 25 42  1  0  0  0  0
 26 27  2  0  0  0  0
 27 43  1  0  0  0  0
 28 29  2  0  0  0  0
 28 44  1  0  0  0  0
 29 45  1  0  0  0  0
M  END
$$$$
