
 OpenBabel01122422493D

 47 50  0  0  1  0  0  0  0  0999 V2000
    1.0693   -0.6073   -0.0697 O   0  0  0  0  0  0  0  0  0  0  0  0
    2.2521   -0.2885   -0.0416 C   0  0  0  0  0  0  0  0  0  0  0  0
    2.8257    0.9406   -0.7678 C   0  0  0  0  0  0  0  0  0  0  0  0
    1.8874    1.7028   -1.6557 C   0  0  0  0  0  0  0  0  0  0  0  0
    2.2363    2.3054   -2.8031 C   0  0  0  0  0  0  0  0  0  0  0  0
    0.9783    2.8124   -3.4009 C   0  0  0  0  0  0  0  0  0  0  0  0
    0.9479    3.3753   -4.4821 O   0  0  0  0  0  0  0  0  0  0  0  0
   -0.0389    2.4626   -2.5127 N   0  0  0  0  0  0  0  0  0  0  0  0
   -1.4377    2.5244   -2.6867 C   0  0  0  0  0  0  0  0  0  0  0  0
   -1.9982    2.8979   -3.9189 C   0  0  0  0  0  0  0  0  0  0  0  0
   -3.3821    2.8591   -4.1209 C   0  0  0  0  0  0  0  0  0  0  0  0
   -4.2149    2.4667   -3.0834 C   0  0  0  0  0  0  0  0  0  0  0  0
   -5.5375    2.4042   -3.2831 F   0  0  0  0  0  0  0  0  0  0  0  0
   -3.6916    2.1347   -1.8414 C   0  0  0  0  0  0  0  0  0  0  0  0
   -2.3074    2.1675   -1.6425 C   0  0  0  0  0  0  0  0  0  0  0  0
    0.5308    1.8393   -1.3841 N   0  0  0  0  0  0  0  0  0  0  0  0
    3.2291   -0.9644    0.6718 N   0  0  0  0  0  0  0  0  0  0  0  0
    2.9421   -2.0312    1.6133 C   0  0  3  0  0  0  0  0  0  0  0  0
    3.8545   -3.2350    1.4103 C   0  0  0  0  0  0  0  0  0  0  0  0
    5.2592   -3.1192    1.3636 C   0  0  0  0  0  0  0  0  0  0  0  0
    6.0750   -4.2529    1.3371 C   0  0  0  0  0  0  0  0  0  0  0  0
    5.5045   -5.5220    1.3013 C   0  0  0  0  0  0  0  0  0  0  0  0
    4.1190   -5.6568    1.2631 C   0  0  0  0  0  0  0  0  0  0  0  0
    3.3001   -4.5241    1.3190 C   0  0  0  0  0  0  0  0  0  0  0  0
    3.1830   -1.4827    3.0078 C   0  0  0  0  0  0  0  0  0  0  0  0
    4.0970   -1.8536    3.9843 C   0  0  0  0  0  0  0  0  0  0  0  0
    4.0192   -1.0505    5.0741 O   0  0  0  0  0  0  0  0  0  0  0  0
    3.0250   -0.1633    4.8383 C   0  0  0  0  0  0  0  0  0  0  0  0
    2.4676   -0.3919    3.6034 C   0  0  0  0  0  0  0  0  0  0  0  0
    3.6816    0.5928   -1.3632 H   0  0  0  0  0  0  0  0  0  0  0  0
    3.2062    1.6220    0.0012 H   0  0  0  0  0  0  0  0  0  0  0  0
    3.1921    2.3787   -3.2868 H   0  0  0  0  0  0  0  0  0  0  0  0
   -1.3740    3.1986   -4.7566 H   0  0  0  0  0  0  0  0  0  0  0  0
   -3.8065    3.1195   -5.0855 H   0  0  0  0  0  0  0  0  0  0  0  0
   -4.3598    1.8440   -1.0374 H   0  0  0  0  0  0  0  0  0  0  0  0
   -1.9223    1.9132   -0.6586 H   0  0  0  0  0  0  0  0  0  0  0  0
    0.1101    0.9328   -1.1390 H   0  0  0  0  0  0  0  0  0  0  0  0
    4.1481   -0.5517    0.7394 H   0  0  0  0  0  0  0  0  0  0  0  0
    1.8900   -2.3310    1.5271 H   0  0  0  0  0  0  0  0  0  0  0  0
    5.7364   -2.1422    1.4166 H   0  0  0  0  0  0  0  0  0  0  0  0
    7.1562   -4.1452    1.3675 H   0  0  0  0  0  0  0  0  0  0  0  0
    6.1394   -6.4046    1.3037 H   0  0  0  0  0  0  0  0  0  0  0  0
    3.6748   -6.6484    1.2085 H   0  0  0  0  0  0  0  0  0  0  0  0
    2.2200   -4.6620    1.3091 H   0  0  0  0  0  0  0  0  0  0  0  0
    4.8574   -2.6211    4.0492 H   0  0  0  0  0  0  0  0  0  0  0  0
    2.8396    0.5508    5.6285 H   0  0  0  0  0  0  0  0  0  0  0  0
    1.6536    0.1688    3.1646 H   0  0  0  0  0  0  0  0  0  0  0  0
  1  2  2  0  0  0  0
  2  3  1  0  0  0  0
  2 17  1  0  0  0  0
  3  4  1  0  0  0  0
  3 30  1  0  0  0  0
  3 31  1  0  0  0  0
  4  5  2  0  0  0  0
  4 16  1  0  0  0  0
  5  6  1  0  0  0  0
  5 32  1  0  0  0  0
  6  7  2  0  0  0  0
  6  8  1  0  0  0  0
  8  9  1  0  0  0  0
  8 16  1  0  0  0  0
  9 10  2  0  0  0  0
  9 15  1  0  0  0  0
 10 11  1  0  0  0  0
 10 33  1  0  0  0  0
 11 12  2  0  0  0  0
 11 34  1  0  0  0  0
 12 13  1  0  0  0  0
 12 14  1  0  0  0  0
 14 15  2  0  0  0  0
 14 35  1  0  0  0  0
 15 36  1  0  0  0  0
 16 37  1  0  0  0  0
 17 18  1  0  0  0  0
 17 38  1  0  0  0  0
 18 19  1  0  0  0  0
 18 25  1  0  0  0  0
 18 39  1  0  0  0  0
 19 20  2  0  0  0  0
 19 24  1  0  0  0  0
 20 21  1  0  0  0  0
 20 40  1  0  0  0  0
 21 22  2  0  0  0  0
 21 41  1  0  0  0  0
 22 23  1  0  0  0  0
 22 42  1  0  0  0  0
 23 24  2  0  0  0  0
 23 43  1  0  0  0  0
 24 44  1  0  0  0  0
 25 26  2  0  0  0  0
 25 29  1  0  0  0  0
 26 27  1  0  0  0  0
 26 45  1  0  0  0  0
 27 28  1  0  0  0  0
 28 29  2  0  0  0  0
 28 46  1  0  0  0  0
 29 47  1  0  0  0  0
M  END
$$$$
