
 OpenBabel01122422493D

 44 47  0  0  0  0  0  0  0  0999 V2000
    0.4172    1.3381   -1.2119 C   0  0  0  0  0  0  0  0  0  0  0  0
    1.6154    1.0279   -1.9117 O   0  0  0  0  0  0  0  0  0  0  0  0
    2.7549    1.6732   -1.5138 C   0  0  0  0  0  0  0  0  0  0  0  0
    3.9123    1.2765   -2.1967 C   0  0  0  0  0  0  0  0  0  0  0  0
    5.1638    1.8419   -1.8885 C   0  0  0  0  0  0  0  0  0  0  0  0
    6.3173    1.4266   -2.6114 N   0  0  0  0  0  0  0  0  0  0  0  0
    7.6268    1.8103   -2.4181 C   0  0  0  0  0  0  0  0  0  0  0  0
    8.3631    1.2208   -3.4181 C   0  0  0  0  0  0  0  0  0  0  0  0
    7.4324    0.4719   -4.1684 C   0  0  0  0  0  0  0  0  0  0  0  0
    7.7579   -0.2416   -5.3072 N   0  0  0  0  0  0  0  0  0  0  0  0
    6.9043   -1.1284   -5.9354 C   0  0  0  0  0  0  0  0  0  0  0  0
    5.8171   -1.5191   -5.5319 O   0  0  0  0  0  0  0  0  0  0  0  0
    7.4157   -1.7217   -7.2084 C   0  0  0  0  0  0  0  0  0  0  0  0
    8.7580   -2.1448   -7.2220 C   0  0  0  0  0  0  0  0  0  0  0  0
    9.2487   -2.8839   -8.2905 C   0  0  0  0  0  0  0  0  0  0  0  0
   10.5286   -3.2767   -8.2817 F   0  0  0  0  0  0  0  0  0  0  0  0
    8.4296   -3.2450   -9.3468 C   0  0  0  0  0  0  0  0  0  0  0  0
    7.0938   -2.8420   -9.3491 C   0  0  0  0  0  0  0  0  0  0  0  0
    6.5747   -2.0608   -8.2945 C   0  0  0  0  0  0  0  0  0  0  0  0
    5.2201   -1.6251   -8.4004 N   0  0  0  0  0  0  0  0  0  0  0  0
    4.6609   -0.4493   -7.9518 C   0  0  0  0  0  0  0  0  0  0  0  0
    3.3360   -0.4881   -8.3231 C   0  0  0  0  0  0  0  0  0  0  0  0
    3.0669   -1.6137   -9.0461 N   0  0  0  0  0  0  0  0  0  0  0  0
    4.2019   -2.2740   -9.0774 C   0  0  0  0  0  0  0  0  0  0  0  0
    6.2113    0.5764   -3.6553 N   0  0  0  0  0  0  0  0  0  0  0  0
    5.2510    2.8193   -0.8892 C   0  0  0  0  0  0  0  0  0  0  0  0
    4.0973    3.2249   -0.2161 C   0  0  0  0  0  0  0  0  0  0  0  0
    2.8635    2.6551   -0.5282 C   0  0  0  0  0  0  0  0  0  0  0  0
    1.7949    3.0941    0.1530 F   0  0  0  0  0  0  0  0  0  0  0  0
   -0.3775    0.6993   -1.6096 H   0  0  0  0  0  0  0  0  0  0  0  0
    0.1219    2.3783   -1.3832 H   0  0  0  0  0  0  0  0  0  0  0  0
    0.5113    1.1175   -0.1435 H   0  0  0  0  0  0  0  0  0  0  0  0
    3.8245    0.5125   -2.9704 H   0  0  0  0  0  0  0  0  0  0  0  0
    7.9271    2.4584   -1.6099 H   0  0  0  0  0  0  0  0  0  0  0  0
    9.4286    1.3147   -3.5699 H   0  0  0  0  0  0  0  0  0  0  0  0
    8.6848   -0.0816   -5.6645 H   0  0  0  0  0  0  0  0  0  0  0  0
    9.4286   -1.9696   -6.3867 H   0  0  0  0  0  0  0  0  0  0  0  0
    8.8321   -3.8392  -10.1617 H   0  0  0  0  0  0  0  0  0  0  0  0
    6.4875   -3.1171  -10.2110 H   0  0  0  0  0  0  0  0  0  0  0  0
    5.2175    0.3031   -7.4150 H   0  0  0  0  0  0  0  0  0  0  0  0
    2.5690    0.2449   -8.1109 H   0  0  0  0  0  0  0  0  0  0  0  0
    4.3315   -3.2437   -9.5357 H   0  0  0  0  0  0  0  0  0  0  0  0
    6.1885    3.2960   -0.6225 H   0  0  0  0  0  0  0  0  0  0  0  0
    4.1476    3.9901    0.5528 H   0  0  0  0  0  0  0  0  0  0  0  0
  1  2  1  0  0  0  0
  1 30  1  0  0  0  0
  1 31  1  0  0  0  0
  1 32  1  0  0  0  0
  2  3  1  0  0  0  0
  3  4  2  0  0  0  0
  3 28  1  0  0  0  0
  4  5  1  0  0  0  0
  4 33  1  0  0  0  0
  5  6  1  0  0  0  0
  5 26  2  0  0  0  0
  6  7  1  0  0  0  0
  6 25  1  0  0  0  0
  7  8  2  0  0  0  0
  7 34  1  0  0  0  0
  8  9  1  0  0  0  0
  8 35  1  0  0  0  0
  9 10  1  0  0  0  0
  9 25  2  0  0  0  0
 10 11  1  0  0  0  0
 10 36  1  0  0  0  0
 11 12  2  0  0  0  0
 11 13  1  0  0  0  0
 13 14  2  0  0  0  0
 13 19  1  0  0  0  0
 14 15  1  0  0  0  0
 14 37  1  0  0  0  0
 15 16  1  0  0  0  0
 15 17  2  0  0  0  0
 17 18  1  0  0  0  0
 17 38  1  0  0  0  0
 18 19  2  0  0  0  0
 18 39  1  0  0  0  0
 19 20  1  0  0  0  0
 20 21  1  0  0  0  0
 20 24  1  0  0  0  0
 21 22  2  0  0  0  0
 21 40  1  0  0  0  0
 22 23  1  0  0  0  0
 22 41  1  0  0  0  0
 23 24  2  0  0  0  0
 24 42  1  0  0  0  0
 26 27  1  0  0  0  0
 26 43  1  0  0  0  0
 27 28  2  0  0  0  0
 27 44  1  0  0  0  0
 28 29  1  0  0  0  0
M  END
$$$$
