
 OpenBabel01122422493D

 45 48  0  0  0  0  0  0  0  0999 V2000
    1.2191   -0.1817   -0.6893 C   0  0  0  0  0  0  0  0  0  0  0  0
    2.6416    0.0814   -0.6370 N   0  0  0  0  0  0  0  0  0  0  0  0
    3.3709    1.2324   -0.6049 C   0  0  0  0  0  0  0  0  0  0  0  0
    2.7755    2.5784   -0.4961 C   0  0  0  0  0  0  0  0  0  0  0  0
    1.6452    2.8250    0.2854 C   0  0  0  0  0  0  0  0  0  0  0  0
    1.0962    4.1068    0.3322 C   0  0  0  0  0  0  0  0  0  0  0  0
    1.6978    5.1643   -0.3639 C   0  0  0  0  0  0  0  0  0  0  0  0
    1.0824    6.5135   -0.2420 C   0  0  0  0  0  0  0  0  0  0  0  0
    0.4227    6.7465    0.7646 O   0  0  0  0  0  0  0  0  0  0  0  0
    1.2682    7.3668   -1.3180 N   0  0  0  0  0  0  0  0  0  0  0  0
    0.8208    8.7040   -1.3943 C   0  0  0  0  0  0  0  0  0  0  0  0
    0.3575    9.4110   -0.2841 C   0  0  0  0  0  0  0  0  0  0  0  0
   -0.1115   10.7121   -0.4248 C   0  0  0  0  0  0  0  0  0  0  0  0
   -0.1043   11.3185   -1.6740 C   0  0  0  0  0  0  0  0  0  0  0  0
   -0.6072   12.5614   -1.7549 F   0  0  0  0  0  0  0  0  0  0  0  0
    0.4006   10.6727   -2.8174 C   0  0  0  0  0  0  0  0  0  0  0  0
    0.4648   11.3545   -4.1336 C   0  0  0  0  0  0  0  0  0  0  0  0
    0.7196   12.7318   -4.2269 C   0  0  0  0  0  0  0  0  0  0  0  0
    0.7710   13.3434   -5.4699 C   0  0  0  0  0  0  0  0  0  0  0  0
    0.6064   12.6849   -6.6336 N   0  0  0  0  0  0  0  0  0  0  0  0
    0.3672   11.3632   -6.5432 C   0  0  0  0  0  0  0  0  0  0  0  0
    0.2838   10.6680   -5.3430 C   0  0  0  0  0  0  0  0  0  0  0  0
    0.8633    9.3482   -2.6446 C   0  0  0  0  0  0  0  0  0  0  0  0
    2.8741    4.9364   -1.0861 C   0  0  0  0  0  0  0  0  0  0  0  0
    3.4063    3.6444   -1.1549 C   0  0  0  0  0  0  0  0  0  0  0  0
    4.6600    1.0462   -0.7078 N   0  0  0  0  0  0  0  0  0  0  0  0
    4.7988   -0.3104   -0.7867 N   0  0  0  0  0  0  0  0  0  0  0  0
    3.5615   -0.9335   -0.7561 C   0  0  0  0  0  0  0  0  0  0  0  0
    3.3494   -2.1302   -0.8479 O   0  0  0  0  0  0  0  0  0  0  0  0
    0.6334    0.7242   -0.8404 H   0  0  0  0  0  0  0  0  0  0  0  0
    0.9239   -0.6705    0.2443 H   0  0  0  0  0  0  0  0  0  0  0  0
    1.0147   -0.8698   -1.5146 H   0  0  0  0  0  0  0  0  0  0  0  0
    1.1884    2.0420    0.8831 H   0  0  0  0  0  0  0  0  0  0  0  0
    0.2015    4.2837    0.9283 H   0  0  0  0  0  0  0  0  0  0  0  0
    1.6469    6.9717   -2.1673 H   0  0  0  0  0  0  0  0  0  0  0  0
    0.3546    8.9797    0.7122 H   0  0  0  0  0  0  0  0  0  0  0  0
   -0.4850   11.2565    0.4368 H   0  0  0  0  0  0  0  0  0  0  0  0
    0.8797   13.3415   -3.3430 H   0  0  0  0  0  0  0  0  0  0  0  0
    0.9515   14.4109   -5.5569 H   0  0  0  0  0  0  0  0  0  0  0  0
    0.2360   10.8553   -7.4946 H   0  0  0  0  0  0  0  0  0  0  0  0
    0.0655    9.6061   -5.3718 H   0  0  0  0  0  0  0  0  0  0  0  0
    1.2642    8.8092   -3.4998 H   0  0  0  0  0  0  0  0  0  0  0  0
    3.4093    5.7497   -1.5686 H   0  0  0  0  0  0  0  0  0  0  0  0
    4.3250    3.4741   -1.7144 H   0  0  0  0  0  0  0  0  0  0  0  0
    5.6911   -0.7691   -0.8970 H   0  0  0  0  0  0  0  0  0  0  0  0
  1  2  1  0  0  0  0
  1 30  1  0  0  0  0
  1 31  1  0  0  0  0
  1 32  1  0  0  0  0
  2  3  1  0  0  0  0
  2 28  1  0  0  0  0
  3  4  1  0  0  0  0
  3 26  2  0  0  0  0
  4  5  2  0  0  0  0
  4 25  1  0  0  0  0
  5  6  1  0  0  0  0
  5 33  1  0  0  0  0
  6  7  2  0  0  0  0
  6 34  1  0  0  0  0
  7  8  1  0  0  0  0
  7 24  1  0  0  0  0
  8  9  2  0  0  0  0
  8 10  1  0  0  0  0
 10 11  1  0  0  0  0
 10 35  1  0  0  0  0
 11 12  2  0  0  0  0
 11 23  1  0  0  0  0
 12 13  1  0  0  0  0
 12 36  1  0  0  0  0
 13 14  2  0  0  0  0
 13 37  1  0  0  0  0
 14 15  1  0  0  0  0
 14 16  1  0  0  0  0
 16 17  1  0  0  0  0
 16 23  2  0  0  0  0
 17 18  2  0  0  0  0
 17 22  1  0  0  0  0
 18 19  1  0  0  0  0
 18 38  1  0  0  0  0
 19 20  2  0  0  0  0
 19 39  1  0  0  0  0
 20 21  1  0  0  0  0
 21 22  2  0  0  0  0
 21 40  1  0  0  0  0
 22 41  1  0  0  0  0
 23 42  1  0  0  0  0
 24 25  2  0  0  0  0
 24 43  1  0  0  0  0
 25 44  1  0  0  0  0
 26 27  1  0  0  0  0
 27 28  1  0  0  0  0
 27 45  1  0  0  0  0
 28 29  2  0  0  0  0
M  END
$$$$
