
 OpenBabel01122422493D

 51 54  0  0  0  0  0  0  0  0999 V2000
    3.4597    4.8534    0.8886 C   0  0  0  0  0  0  0  0  0  0  0  0
    4.0474    3.5652    0.6968 O   0  0  0  0  0  0  0  0  0  0  0  0
    4.7058    3.0945    1.7851 C   0  0  0  0  0  0  0  0  0  0  0  0
    4.8122    3.6683    2.8587 O   0  0  0  0  0  0  0  0  0  0  0  0
    5.3236    1.7724    1.4965 C   0  0  0  0  0  0  0  0  0  0  0  0
    5.2525    1.1692    0.2419 C   0  0  0  0  0  0  0  0  0  0  0  0
    5.9243   -0.0286    0.0207 C   0  0  0  0  0  0  0  0  0  0  0  0
    6.6751   -0.6216    1.0457 C   0  0  0  0  0  0  0  0  0  0  0  0
    6.7195   -0.0879    2.3429 C   0  0  0  0  0  0  0  0  0  0  0  0
    7.4443   -0.7161    3.4964 C   0  0  0  0  0  0  0  0  0  0  0  0
    8.0777    0.1533    4.4247 C   0  0  0  0  0  0  0  0  0  0  0  0
    8.6363   -0.2929    5.6234 C   0  0  0  0  0  0  0  0  0  0  0  0
    8.5971   -1.6382    5.9341 C   0  0  0  0  0  0  0  0  0  0  0  0
    8.0452   -2.5330    5.0228 C   0  0  0  0  0  0  0  0  0  0  0  0
    7.4880   -2.1088    3.7897 C   0  0  0  0  0  0  0  0  0  0  0  0
    6.9749   -3.1614    2.8192 C   0  0  0  0  0  0  0  0  0  0  0  0
    7.1025   -4.5377    3.2620 N   0  0  0  0  0  0  0  0  0  0  0  0
    8.2422   -5.2723    3.0035 C   0  0  0  0  0  0  0  0  0  0  0  0
    9.1982   -4.8418    2.3692 O   0  0  0  0  0  0  0  0  0  0  0  0
    8.2251   -6.6766    3.5807 C   0  0  0  0  0  0  0  0  0  0  0  0
    7.7026   -7.7106    2.6133 C   0  0  0  0  0  0  0  0  0  0  0  0
    8.3149   -7.8828    1.3617 C   0  0  0  0  0  0  0  0  0  0  0  0
    7.8624   -8.8366    0.4425 C   0  0  0  0  0  0  0  0  0  0  0  0
    6.7895   -9.6365    0.8403 C   0  0  0  0  0  0  0  0  0  0  0  0
    6.1143  -10.6410    0.1976 N   0  0  0  0  0  0  0  0  0  0  0  0
    5.1566  -11.2236    0.9419 N   0  0  0  0  0  0  0  0  0  0  0  0
    5.2037  -10.5430    2.0905 C   0  0  0  0  0  0  0  0  0  0  0  0
    6.1816   -9.5245    2.0827 C   0  0  0  0  0  0  0  0  0  0  0  0
    6.6272   -8.5392    2.9834 C   0  0  0  0  0  0  0  0  0  0  0  0
    6.0251    1.1298    2.5317 C   0  0  0  0  0  0  0  0  0  0  0  0
    2.8563    5.0841    0.0061 H   0  0  0  0  0  0  0  0  0  0  0  0
    4.2410    5.6129    0.9840 H   0  0  0  0  0  0  0  0  0  0  0  0
    2.8052    4.8573    1.7656 H   0  0  0  0  0  0  0  0  0  0  0  0
    4.6984    1.6257   -0.5738 H   0  0  0  0  0  0  0  0  0  0  0  0
    5.8836   -0.4993   -0.9594 H   0  0  0  0  0  0  0  0  0  0  0  0
    7.2403   -1.5060    0.7761 H   0  0  0  0  0  0  0  0  0  0  0  0
    8.1353    1.2230    4.2238 H   0  0  0  0  0  0  0  0  0  0  0  0
    9.0875    0.4159    6.3115 H   0  0  0  0  0  0  0  0  0  0  0  0
    9.0113   -1.9987    6.8721 H   0  0  0  0  0  0  0  0  0  0  0  0
    8.0633   -3.5861    5.2943 H   0  0  0  0  0  0  0  0  0  0  0  0
    7.5518   -3.0950    1.8951 H   0  0  0  0  0  0  0  0  0  0  0  0
    5.9130   -2.9933    2.6146 H   0  0  0  0  0  0  0  0  0  0  0  0
    6.3159   -4.9641    3.7303 H   0  0  0  0  0  0  0  0  0  0  0  0
    7.6329   -6.6727    4.5049 H   0  0  0  0  0  0  0  0  0  0  0  0
    9.2473   -6.9403    3.8787 H   0  0  0  0  0  0  0  0  0  0  0  0
    9.1669   -7.2603    1.0846 H   0  0  0  0  0  0  0  0  0  0  0  0
    8.3405   -8.9514   -0.5244 H   0  0  0  0  0  0  0  0  0  0  0  0
    6.2620  -10.9785   -0.7463 H   0  0  0  0  0  0  0  0  0  0  0  0
    4.5295  -10.8199    2.8912 H   0  0  0  0  0  0  0  0  0  0  0  0
    6.1479   -8.4383    3.9520 H   0  0  0  0  0  0  0  0  0  0  0  0
    6.0265    1.6065    3.5122 H   0  0  0  0  0  0  0  0  0  0  0  0
  1  2  1  0  0  0  0
  1 31  1  0  0  0  0
  1 32  1  0  0  0  0
  1 33  1  0  0  0  0
  2  3  1  0  0  0  0
  3  4  2  0  0  0  0
  3  5  1  0  0  0  0
  5  6  2  0  0  0  0
  5 30  1  0  0  0  0
  6  7  1  0  0  0  0
  6 34  1  0  0  0  0
  7  8  2  0  0  0  0
  7 35  1  0  0  0  0
  8  9  1  0  0  0  0
  8 36  1  0  0  0  0
  9 10  1  0  0  0  0
  9 30  2  0  0  0  0
 10 11  2  0  0  0  0
 10 15  1  0  0  0  0
 11 12  1  0  0  0  0
 11 37  1  0  0  0  0
 12 13  2  0  0  0  0
 12 38  1  0  0  0  0
 13 14  1  0  0  0  0
 13 39  1  0  0  0  0
 14 15  2  0  0  0  0
 14 40  1  0  0  0  0
 15 16  1  0  0  0  0
 16 17  1  0  0  0  0
 16 41  1  0  0  0  0
 16 42  1  0  0  0  0
 17 18  1  0  0  0  0
 17 43  1  0  0  0  0
 18 19  2  0  0  0  0
 18 20  1  0  0  0  0
 20 21  1  0  0  0  0
 20 44  1  0  0  0  0
 20 45  1  0  0  0  0
 21 22  2  0  0  0  0
 21 29  1  0  0  0  0
 22 23  1  0  0  0  0
 22 46  1  0  0  0  0
 23 24  2  0  0  0  0
 23 47  1  0  0  0  0
 24 25  1  0  0  0  0
 24 28  1  0  0  0  0
 25 26  1  0  0  0  0
 25 48  1  0  0  0  0
 26 27  2  0  0  0  0
 27 28  1  0  0  0  0
 27 49  1  0  0  0  0
 28 29  2  0  0  0  0
 29 50  1  0  0  0  0
 30 51  1  0  0  0  0
M  END
$$$$
