
 OpenBabel01122422493D

 53 56  0  0  0  0  0  0  0  0999 V2000
    1.6076   -0.7450    3.9395 C   0  0  0  0  0  0  0  0  0  0  0  0
    1.8570   -2.0676    3.2836 C   0  0  0  0  0  0  0  0  0  0  0  0
    2.9497   -2.3618    2.5468 C   0  0  0  0  0  0  0  0  0  0  0  0
    3.0291   -3.5885    1.8702 N   0  0  0  0  0  0  0  0  0  0  0  0
    4.0179   -4.1315    1.0440 C   0  0  0  0  0  0  0  0  0  0  0  0
    5.3392   -3.5668    0.8343 C   0  0  0  0  0  0  0  0  0  0  0  0
    5.5047   -2.3503    0.9377 O   0  0  0  0  0  0  0  0  0  0  0  0
    6.4515   -4.3822    0.5258 N   0  0  0  0  0  0  0  0  0  0  0  0
    7.6875   -3.6786    0.1221 C   0  0  0  0  0  0  0  0  0  0  0  0
    8.8250   -3.5963    1.1442 C   0  0  0  0  0  0  0  0  0  0  0  0
    8.5332   -3.9142    2.4347 N   0  0  0  0  0  0  0  0  0  0  0  0
    9.9508   -3.2073    0.8408 O   0  0  0  0  0  0  0  0  0  0  0  0
    6.4532   -5.8343    0.3299 C   0  0  0  0  0  0  0  0  0  0  0  0
    7.2779   -6.6675    1.2860 C   0  0  0  0  0  0  0  0  0  0  0  0
    8.5609   -7.1133    0.9351 C   0  0  0  0  0  0  0  0  0  0  0  0
    9.2309   -8.0437    1.7343 C   0  0  0  0  0  0  0  0  0  0  0  0
    8.6116   -8.5685    2.8676 C   0  0  0  0  0  0  0  0  0  0  0  0
    7.3326   -8.1459    3.2231 C   0  0  0  0  0  0  0  0  0  0  0  0
    6.7806   -8.7688    4.3220 O   0  0  0  0  0  0  0  0  0  0  0  0
    5.4191   -8.9675    4.3895 C   0  0  0  0  0  0  0  0  0  0  0  0
    4.5898   -9.1795    3.2841 C   0  0  0  0  0  0  0  0  0  0  0  0
    3.2070   -9.2573    3.4529 C   0  0  0  0  0  0  0  0  0  0  0  0
    2.6575   -9.2051    4.7324 C   0  0  0  0  0  0  0  0  0  0  0  0
    3.4914   -9.1021    5.8451 C   0  0  0  0  0  0  0  0  0  0  0  0
    4.8714   -8.9846    5.6734 C   0  0  0  0  0  0  0  0  0  0  0  0
    6.7008   -7.1424    2.4752 C   0  0  0  0  0  0  0  0  0  0  0  0
    3.3517   -5.1746    0.4180 C   0  0  0  0  0  0  0  0  0  0  0  0
    2.1580   -5.4670    1.0132 N   0  0  0  0  0  0  0  0  0  0  0  0
    1.9849   -4.5139    1.8977 C   0  0  0  0  0  0  0  0  0  0  0  0
    0.8979   -4.2626    2.7774 C   0  0  0  0  0  0  0  0  0  0  0  0
    0.8291   -3.0925    3.4362 C   0  0  0  0  0  0  0  0  0  0  0  0
    2.4417   -0.0513    3.7952 H   0  0  0  0  0  0  0  0  0  0  0  0
    1.4526   -0.8673    5.0165 H   0  0  0  0  0  0  0  0  0  0  0  0
    0.7113   -0.2762    3.5164 H   0  0  0  0  0  0  0  0  0  0  0  0
    3.7550   -1.6529    2.3962 H   0  0  0  0  0  0  0  0  0  0  0  0
    7.4630   -2.6469   -0.1715 H   0  0  0  0  0  0  0  0  0  0  0  0
    8.0798   -4.1761   -0.7725 H   0  0  0  0  0  0  0  0  0  0  0  0
    7.6934   -4.4286    2.6596 H   0  0  0  0  0  0  0  0  0  0  0  0
    9.3084   -3.9586    3.0827 H   0  0  0  0  0  0  0  0  0  0  0  0
    6.7709   -6.0268   -0.7026 H   0  0  0  0  0  0  0  0  0  0  0  0
    5.4546   -6.2489    0.3907 H   0  0  0  0  0  0  0  0  0  0  0  0
    9.0393   -6.7696    0.0195 H   0  0  0  0  0  0  0  0  0  0  0  0
   10.2211   -8.3940    1.4521 H   0  0  0  0  0  0  0  0  0  0  0  0
    9.1166   -9.3270    3.4615 H   0  0  0  0  0  0  0  0  0  0  0  0
    4.9991   -9.2560    2.2812 H   0  0  0  0  0  0  0  0  0  0  0  0
    2.5596   -9.3487    2.5842 H   0  0  0  0  0  0  0  0  0  0  0  0
    1.5795   -9.2543    4.8613 H   0  0  0  0  0  0  0  0  0  0  0  0
    3.0662   -9.0982    6.8451 H   0  0  0  0  0  0  0  0  0  0  0  0
    5.5189   -8.8926    6.5414 H   0  0  0  0  0  0  0  0  0  0  0  0
    5.7161   -6.7834    2.7691 H   0  0  0  0  0  0  0  0  0  0  0  0
    3.6755   -5.7625   -0.4311 H   0  0  0  0  0  0  0  0  0  0  0  0
    0.1341   -5.0235    2.8889 H   0  0  0  0  0  0  0  0  0  0  0  0
   -0.0039   -2.8935    4.1040 H   0  0  0  0  0  0  0  0  0  0  0  0
  1  2  1  0  0  0  0
  1 32  1  0  0  0  0
  1 33  1  0  0  0  0
  1 34  1  0  0  0  0
  2  3  2  0  0  0  0
  2 31  1  0  0  0  0
  3  4  1  0  0  0  0
  3 35  1  0  0  0  0
  4  5  1  0  0  0  0
  4 29  1  0  0  0  0
  5  6  1  0  0  0  0
  5 27  2  0  0  0  0
  6  7  2  0  0  0  0
  6  8  1  0  0  0  0
  8  9  1  0  0  0  0
  8 13  1  0  0  0  0
  9 10  1  0  0  0  0
  9 36  1  0  0  0  0
  9 37  1  0  0  0  0
 10 11  1  0  0  0  0
 10 12  2  0  0  0  0
 11 38  1  0  0  0  0
 11 39  1  0  0  0  0
 13 14  1  0  0  0  0
 13 40  1  0  0  0  0
 13 41  1  0  0  0  0
 14 15  2  0  0  0  0
 14 26  1  0  0  0  0
 15 16  1  0  0  0  0
 15 42  1  0  0  0  0
 16 17  2  0  0  0  0
 16 43  1  0  0  0  0
 17 18  1  0  0  0  0
 17 44  1  0  0  0  0
 18 19  1  0  0  0  0
 18 26  2  0  0  0  0
 19 20  1  0  0  0  0
 20 21  2  0  0  0  0
 20 25  1  0  0  0  0
 21 22  1  0  0  0  0
 21 45  1  0  0  0  0
 22 23  2  0  0  0  0
 22 46  1  0  0  0  0
 23 24  1  0  0  0  0
 23 47  1  0  0  0  0
 24 25  2  0  0  0  0
 24 48  1  0  0  0  0
 25 49  1  0  0  0  0
 26 50  1  0  0  0  0
 27 28  1  0  0  0  0
 27 51  1  0  0  0  0
 28 29  2  0  0  0  0
 29 30  1  0  0  0  0
 30 31  2  0  0  0  0
 30 52  1  0  0  0  0
 31 53  1  0  0  0  0
M  END
$$$$
