
 OpenBabel01122422463D

 47 50  0  0  0  0  0  0  0  0999 V2000
    1.3088   -0.9492    0.0648 C   0  0  0  0  0  0  0  0  0  0  0  0
    2.4047   -0.0514   -0.0786 O   0  0  0  0  0  0  0  0  0  0  0  0
    3.0086    0.3933    1.0669 C   0  0  0  0  0  0  0  0  0  0  0  0
    2.5899    0.0150    2.3416 C   0  0  0  0  0  0  0  0  0  0  0  0
    3.2837    0.4292    3.4785 C   0  0  0  0  0  0  0  0  0  0  0  0
    4.4300    1.2150    3.3845 C   0  0  0  0  0  0  0  0  0  0  0  0
    5.1819    1.5952    4.5224 N   0  0  0  0  0  0  0  0  0  0  0  0
    4.9094    1.2688    5.8482 C   0  0  0  0  0  0  0  0  0  0  0  0
    3.9350    0.6404    6.2468 O   0  0  0  0  0  0  0  0  0  0  0  0
    5.9077    1.7167    6.7898 C   0  0  0  0  0  0  0  0  0  0  0  0
    6.9607    2.4566    6.5160 N   0  0  0  0  0  0  0  0  0  0  0  0
    7.6845    2.5941    7.6818 N   0  0  0  0  0  0  0  0  0  0  0  0
    7.0667    1.9285    8.6434 C   0  0  0  0  0  0  0  0  0  0  0  0
    7.4979    1.7171   10.0207 C   0  0  0  0  0  0  0  0  0  0  0  0
    8.7207    2.2017   10.4705 C   0  0  0  0  0  0  0  0  0  0  0  0
    9.1013    1.9354   11.7834 C   0  0  0  0  0  0  0  0  0  0  0  0
    8.2517    1.2042   12.6041 C   0  0  0  0  0  0  0  0  0  0  0  0
    7.0488    0.7617   12.0728 C   0  0  0  0  0  0  0  0  0  0  0  0
    6.6485    0.9969   10.7976 N   0  0  0  0  0  0  0  0  0  0  0  0
    5.9169    1.4051    8.1230 N   0  0  0  0  0  0  0  0  0  0  0  0
    4.8438    1.6256    2.1081 C   0  0  0  0  0  0  0  0  0  0  0  0
    4.1159    1.2507    0.9517 C   0  0  0  0  0  0  0  0  0  0  0  0
    4.5938    1.7677   -0.3688 C   0  0  0  0  0  0  0  0  0  0  0  0
    5.8056    1.8780   -0.5490 O   0  0  0  0  0  0  0  0  0  0  0  0
    3.6586    2.1989   -1.4548 C   0  0  0  0  0  0  0  0  0  0  0  0
    4.0946    2.1484   -2.7874 C   0  0  0  0  0  0  0  0  0  0  0  0
    3.2460    2.5455   -3.8271 C   0  0  0  0  0  0  0  0  0  0  0  0
    1.9586    2.9990   -3.5434 C   0  0  0  0  0  0  0  0  0  0  0  0
    1.5234    3.0705   -2.2214 C   0  0  0  0  0  0  0  0  0  0  0  0
    2.3744    2.6879   -1.1798 C   0  0  0  0  0  0  0  0  0  0  0  0
    0.9203   -1.1743   -0.9319 H   0  0  0  0  0  0  0  0  0  0  0  0
    0.4945   -0.4935    0.6394 H   0  0  0  0  0  0  0  0  0  0  0  0
    1.6348   -1.8906    0.5202 H   0  0  0  0  0  0  0  0  0  0  0  0
    1.7242   -0.6191    2.5044 H   0  0  0  0  0  0  0  0  0  0  0  0
    2.8926    0.0862    4.4294 H   0  0  0  0  0  0  0  0  0  0  0  0
    6.0329    2.1322    4.3715 H   0  0  0  0  0  0  0  0  0  0  0  0
    9.3699    2.7644    9.8089 H   0  0  0  0  0  0  0  0  0  0  0  0
   10.0570    2.2944   12.1564 H   0  0  0  0  0  0  0  0  0  0  0  0
    8.5234    0.9775   13.6300 H   0  0  0  0  0  0  0  0  0  0  0  0
    6.3551    0.1863   12.6781 H   0  0  0  0  0  0  0  0  0  0  0  0
    5.2408    0.8362    8.6196 H   0  0  0  0  0  0  0  0  0  0  0  0
    5.7345    2.2420    1.9899 H   0  0  0  0  0  0  0  0  0  0  0  0
    5.0964    1.7947   -3.0224 H   0  0  0  0  0  0  0  0  0  0  0  0
    3.5896    2.5007   -4.8580 H   0  0  0  0  0  0  0  0  0  0  0  0
    1.2967    3.3026   -4.3512 H   0  0  0  0  0  0  0  0  0  0  0  0
    0.5204    3.4254   -1.9988 H   0  0  0  0  0  0  0  0  0  0  0  0
    2.0136    2.7673   -0.1588 H   0  0  0  0  0  0  0  0  0  0  0  0
  1  2  1  0  0  0  0
  1 31  1  0  0  0  0
  1 32  1  0  0  0  0
  1 33  1  0  0  0  0
  2  3  1  0  0  0  0
  3  4  2  0  0  0  0
  3 22  1  0  0  0  0
  4  5  1  0  0  0  0
  4 34  1  0  0  0  0
  5  6  2  0  0  0  0
  5 35  1  0  0  0  0
  6  7  1  0  0  0  0
  6 21  1  0  0  0  0
  7  8  1  0  0  0  0
  7 36  1  0  0  0  0
  8  9  2  0  0  0  0
  8 10  1  0  0  0  0
 10 11  2  0  0  0  0
 10 20  1  0  0  0  0
 11 12  1  0  0  0  0
 12 13  2  0  0  0  0
 13 14  1  0  0  0  0
 13 20  1  0  0  0  0
 14 15  2  0  0  0  0
 14 19  1  0  0  0  0
 15 16  1  0  0  0  0
 15 37  1  0  0  0  0
 16 17  2  0  0  0  0
 16 38  1  0  0  0  0
 17 18  1  0  0  0  0
 17 39  1  0  0  0  0
 18 19  2  0  0  0  0
 18 40  1  0  0  0  0
 20 41  1  0  0  0  0
 21 22  2  0  0  0  0
 21 42  1  0  0  0  0
 22 23  1  0  0  0  0
 23 24  2  0  0  0  0
 23 25  1  0  0  0  0
 25 26  2  0  0  0  0
 25 30  1  0  0  0  0
 26 27  1  0  0  0  0
 26 43  1  0  0  0  0
 27 28  2  0  0  0  0
 27 44  1  0  0  0  0
 28 29  1  0  0  0  0
 28 45  1  0  0  0  0
 29 30  2  0  0  0  0
 29 46  1  0  0  0  0
 30 47  1  0  0  0  0
M  END
$$$$
