
 OpenBabel01122422493D

 46 49  0  0  0  0  0  0  0  0999 V2000
    1.2696    0.9243   -0.3386 O   0  0  0  0  0  0  0  0  0  0  0  0
    2.2695    0.2315   -0.2049 C   0  0  0  0  0  0  0  0  0  0  0  0
    2.7404   -0.6977   -1.1120 N   0  0  0  0  0  0  0  0  0  0  0  0
    2.0676   -1.0362   -2.2899 C   0  0  0  0  0  0  0  0  0  0  0  0
    1.4146   -0.1022   -3.0617 C   0  0  0  0  0  0  0  0  0  0  0  0
    0.7523   -0.5946   -4.1580 C   0  0  0  0  0  0  0  0  0  0  0  0
    0.6888   -1.9035   -4.4564 N   0  0  0  0  0  0  0  0  0  0  0  0
    1.3597   -2.7417   -3.6400 C   0  0  0  0  0  0  0  0  0  0  0  0
    1.1736   -4.2286   -3.8526 C   0  0  0  0  0  0  0  0  0  0  0  0
    2.1566   -4.7207   -4.7606 O   0  0  0  0  0  0  0  0  0  0  0  0
    2.0554   -6.0370   -5.1176 C   0  0  0  0  0  0  0  0  0  0  0  0
    1.1387   -6.9638   -4.6156 C   0  0  0  0  0  0  0  0  0  0  0  0
    1.1517   -8.2847   -5.0768 C   0  0  0  0  0  0  0  0  0  0  0  0
    2.0789   -8.6827   -6.0380 C   0  0  0  0  0  0  0  0  0  0  0  0
    2.9951   -7.7629   -6.5401 C   0  0  0  0  0  0  0  0  0  0  0  0
    2.9825   -6.4451   -6.0820 C   0  0  0  0  0  0  0  0  0  0  0  0
    2.0997   -2.3452   -2.5836 N   0  0  0  0  0  0  0  0  0  0  0  0
    3.0594    0.3204    1.0412 C   0  0  0  0  0  0  0  0  0  0  0  0
    4.4266    0.6129    0.9056 C   0  0  0  0  0  0  0  0  0  0  0  0
    5.2042    0.8049    2.0344 C   0  0  0  0  0  0  0  0  0  0  0  0
    4.5898    0.7089    3.2674 C   0  0  0  0  0  0  0  0  0  0  0  0
    3.2816    0.4133    3.4308 N   0  0  0  0  0  0  0  0  0  0  0  0
    2.5035    0.2081    2.3237 C   0  0  0  0  0  0  0  0  0  0  0  0
    1.1069   -0.1750    2.6600 C   0  0  0  0  0  0  0  0  0  0  0  0
    0.4898    0.3285    3.8200 C   0  0  0  0  0  0  0  0  0  0  0  0
   -0.7989   -0.0697    4.1499 C   0  0  0  0  0  0  0  0  0  0  0  0
   -1.5279   -0.9288    3.4125 N   0  0  0  0  0  0  0  0  0  0  0  0
   -0.9329   -1.4162    2.3067 C   0  0  0  0  0  0  0  0  0  0  0  0
    0.3580   -1.0897    1.9079 C   0  0  0  0  0  0  0  0  0  0  0  0
    3.3616   -1.4260   -0.7831 H   0  0  0  0  0  0  0  0  0  0  0  0
    1.4266    0.9566   -2.8430 H   0  0  0  0  0  0  0  0  0  0  0  0
    0.2226    0.0655   -4.8390 H   0  0  0  0  0  0  0  0  0  0  0  0
    0.1639   -4.3921   -4.2493 H   0  0  0  0  0  0  0  0  0  0  0  0
    1.2680   -4.7327   -2.8824 H   0  0  0  0  0  0  0  0  0  0  0  0
    0.4008   -6.6986   -3.8661 H   0  0  0  0  0  0  0  0  0  0  0  0
    0.4361   -9.0031   -4.6851 H   0  0  0  0  0  0  0  0  0  0  0  0
    2.0872   -9.7106   -6.3947 H   0  0  0  0  0  0  0  0  0  0  0  0
    3.7201   -8.0685   -7.2899 H   0  0  0  0  0  0  0  0  0  0  0  0
    3.6975   -5.7288   -6.4761 H   0  0  0  0  0  0  0  0  0  0  0  0
    4.8732    0.7170   -0.0807 H   0  0  0  0  0  0  0  0  0  0  0  0
    6.2595    1.0419    1.9559 H   0  0  0  0  0  0  0  0  0  0  0  0
    5.1449    0.8724    4.1849 H   0  0  0  0  0  0  0  0  0  0  0  0
    1.0121    1.0197    4.4749 H   0  0  0  0  0  0  0  0  0  0  0  0
   -1.2873    0.3024    5.0465 H   0  0  0  0  0  0  0  0  0  0  0  0
   -1.5355   -2.1085    1.7253 H   0  0  0  0  0  0  0  0  0  0  0  0
    0.7529   -1.5680    1.0199 H   0  0  0  0  0  0  0  0  0  0  0  0
  1  2  2  0  0  0  0
  2  3  1  0  0  0  0
  2 18  1  0  0  0  0
  3  4  1  0  0  0  0
  3 30  1  0  0  0  0
  4  5  2  0  0  0  0
  4 17  1  0  0  0  0
  5  6  1  0  0  0  0
  5 31  1  0  0  0  0
  6  7  2  0  0  0  0
  6 32  1  0  0  0  0
  7  8  1  0  0  0  0
  8  9  1  0  0  0  0
  8 17  2  0  0  0  0
  9 10  1  0  0  0  0
  9 33  1  0  0  0  0
  9 34  1  0  0  0  0
 10 11  1  0  0  0  0
 11 12  2  0  0  0  0
 11 16  1  0  0  0  0
 12 13  1  0  0  0  0
 12 35  1  0  0  0  0
 13 14  2  0  0  0  0
 13 36  1  0  0  0  0
 14 15  1  0  0  0  0
 14 37  1  0  0  0  0
 15 16  2  0  0  0  0
 15 38  1  0  0  0  0
 16 39  1  0  0  0  0
 18 19  2  0  0  0  0
 18 23  1  0  0  0  0
 19 20  1  0  0  0  0
 19 40  1  0  0  0  0
 20 21  2  0  0  0  0
 20 41  1  0  0  0  0
 21 22  1  0  0  0  0
 21 42  1  0  0  0  0
 22 23  2  0  0  0  0
 23 24  1  0  0  0  0
 24 25  2  0  0  0  0
 24 29  1  0  0  0  0
 25 26  1  0  0  0  0
 25 43  1  0  0  0  0
 26 27  2  0  0  0  0
 26 44  1  0  0  0  0
 27 28  1  0  0  0  0
 28 29  2  0  0  0  0
 28 45  1  0  0  0  0
 29 46  1  0  0  0  0
M  END
$$$$
