
 OpenBabel01122422493D

 50 53  0  0  0  0  0  0  0  0999 V2000
    1.3110   -0.0055   -1.5316 C   0  0  0  0  0  0  0  0  0  0  0  0
    2.7444   -0.0597   -1.1042 C   0  0  0  0  0  0  0  0  0  0  0  0
    3.4030   -1.2125   -0.8838 C   0  0  0  0  0  0  0  0  0  0  0  0
    4.7470   -1.1982   -0.4907 N   0  0  0  0  0  0  0  0  0  0  0  0
    5.6288   -2.2420   -0.2228 C   0  0  0  0  0  0  0  0  0  0  0  0
    5.2869   -3.6408   -0.3398 C   0  0  0  0  0  0  0  0  0  0  0  0
    4.1807   -3.9847   -0.7381 O   0  0  0  0  0  0  0  0  0  0  0  0
    6.2579   -4.5510    0.0667 N   0  0  0  0  0  0  0  0  0  0  0  0
    6.0974   -5.9624    0.0562 C   0  0  0  0  0  0  0  0  0  0  0  0
    5.0959   -6.5769   -0.7106 C   0  0  0  0  0  0  0  0  0  0  0  0
    4.8149   -7.9369   -0.5735 C   0  0  0  0  0  0  0  0  0  0  0  0
    3.4085   -8.6186   -1.3950 S   0  0  0  0  0  0  0  0  0  0  0  0
    3.0720   -7.7538   -2.5073 O   0  0  0  0  0  0  0  0  0  0  0  0
    3.6540  -10.0264   -1.6140 O   0  0  0  0  0  0  0  0  0  0  0  0
    2.1868   -8.5181   -0.2262 N   0  0  0  0  0  0  0  0  0  0  0  0
    1.7827   -7.2386    0.2493 C   0  0  0  0  0  0  0  0  0  0  0  0
    0.8332   -6.5096   -0.4663 C   0  0  0  0  0  0  0  0  0  0  0  0
    0.4409   -5.2453   -0.0207 C   0  0  0  0  0  0  0  0  0  0  0  0
    1.0169   -4.7003    1.1263 C   0  0  0  0  0  0  0  0  0  0  0  0
    1.9747   -5.4250    1.8357 C   0  0  0  0  0  0  0  0  0  0  0  0
    2.3519   -6.6992    1.4036 C   0  0  0  0  0  0  0  0  0  0  0  0
    5.6130   -8.7254    0.2331 C   0  0  0  0  0  0  0  0  0  0  0  0
    5.3644  -10.0274    0.4165 F   0  0  0  0  0  0  0  0  0  0  0  0
    6.6768   -8.1539    0.9290 C   0  0  0  0  0  0  0  0  0  0  0  0
    6.9241   -6.7682    0.8664 C   0  0  0  0  0  0  0  0  0  0  0  0
    8.0180   -6.2002    1.7303 C   0  0  0  0  0  0  0  0  0  0  0  0
    6.8062   -1.6075    0.1311 C   0  0  0  0  0  0  0  0  0  0  0  0
    6.6889   -0.2436    0.0917 N   0  0  0  0  0  0  0  0  0  0  0  0
    5.4536   -0.0141   -0.2950 C   0  0  0  0  0  0  0  0  0  0  0  0
    4.7624    1.2086   -0.5339 C   0  0  0  0  0  0  0  0  0  0  0  0
    3.4723    1.1911   -0.9219 C   0  0  0  0  0  0  0  0  0  0  0  0
    0.8769   -1.0080   -1.6221 H   0  0  0  0  0  0  0  0  0  0  0  0
    1.2181    0.4836   -2.5067 H   0  0  0  0  0  0  0  0  0  0  0  0
    0.7114    0.5486   -0.8022 H   0  0  0  0  0  0  0  0  0  0  0  0
    2.9155   -2.1712   -1.0061 H   0  0  0  0  0  0  0  0  0  0  0  0
    7.0639   -4.1827    0.5479 H   0  0  0  0  0  0  0  0  0  0  0  0
    4.4813   -6.0079   -1.4031 H   0  0  0  0  0  0  0  0  0  0  0  0
    2.2310   -9.2820    0.4458 H   0  0  0  0  0  0  0  0  0  0  0  0
    0.3883   -6.9242   -1.3673 H   0  0  0  0  0  0  0  0  0  0  0  0
   -0.3071   -4.6831   -0.5740 H   0  0  0  0  0  0  0  0  0  0  0  0
    0.7253   -3.7080    1.4618 H   0  0  0  0  0  0  0  0  0  0  0  0
    2.4326   -4.9919    2.7211 H   0  0  0  0  0  0  0  0  0  0  0  0
    3.1007   -7.2475    1.9658 H   0  0  0  0  0  0  0  0  0  0  0  0
    7.2857   -8.8017    1.5563 H   0  0  0  0  0  0  0  0  0  0  0  0
    8.5382   -6.9854    2.2903 H   0  0  0  0  0  0  0  0  0  0  0  0
    7.5959   -5.5042    2.4628 H   0  0  0  0  0  0  0  0  0  0  0  0
    8.7640   -5.6839    1.1186 H   0  0  0  0  0  0  0  0  0  0  0  0
    7.7517   -2.0554    0.4084 H   0  0  0  0  0  0  0  0  0  0  0  0
    5.3007    2.1397   -0.4022 H   0  0  0  0  0  0  0  0  0  0  0  0
    2.9457    2.1221   -1.1121 H   0  0  0  0  0  0  0  0  0  0  0  0
  1  2  1  0  0  0  0
  1 32  1  0  0  0  0
  1 33  1  0  0  0  0
  1 34  1  0  0  0  0
  2  3  2  0  0  0  0
  2 31  1  0  0  0  0
  3  4  1  0  0  0  0
  3 35  1  0  0  0  0
  4  5  1  0  0  0  0
  4 29  1  0  0  0  0
  5  6  1  0  0  0  0
  5 27  2  0  0  0  0
  6  7  2  0  0  0  0
  6  8  1  0  0  0  0
  8  9  1  0  0  0  0
  8 36  1  0  0  0  0
  9 10  2  0  0  0  0
  9 25  1  0  0  0  0
 10 11  1  0  0  0  0
 10 37  1  0  0  0  0
 11 12  1  0  0  0  0
 11 22  2  0  0  0  0
 12 13  2  0  0  0  0
 12 14  2  0  0  0  0
 12 15  1  0  0  0  0
 15 16  1  0  0  0  0
 15 38  1  0  0  0  0
 16 17  2  0  0  0  0
 16 21  1  0  0  0  0
 17 18  1  0  0  0  0
 17 39  1  0  0  0  0
 18 19  2  0  0  0  0
 18 40  1  0  0  0  0
 19 20  1  0  0  0  0
 19 41  1  0  0  0  0
 20 21  2  0  0  0  0
 20 42  1  0  0  0  0
 21 43  1  0  0  0  0
 22 23  1  0  0  0  0
 22 24  1  0  0  0  0
 24 25  2  0  0  0  0
 24 44  1  0  0  0  0
 25 26  1  0  0  0  0
 26 45  1  0  0  0  0
 26 46  1  0  0  0  0
 26 47  1  0  0  0  0
 27 28  1  0  0  0  0
 27 48  1  0  0  0  0
 28 29  2  0  0  0  0
 29 30  1  0  0  0  0
 30 31  2  0  0  0  0
 30 49  1  0  0  0  0
 31 50  1  0  0  0  0
M  END
$$$$
