
 OpenBabel01122422493D

 46 49  0  0  0  0  0  0  0  0999 V2000
    1.1112   -0.7761   -0.0296 C   0  0  0  0  0  0  0  0  0  0  0  0
    2.2896    0.0040    0.1778 O   0  0  0  0  0  0  0  0  0  0  0  0
    3.0565   -0.3280    1.2739 C   0  0  0  0  0  0  0  0  0  0  0  0
    2.7769   -1.4094    2.1246 C   0  0  0  0  0  0  0  0  0  0  0  0
    3.6075   -1.7430    3.2115 C   0  0  0  0  0  0  0  0  0  0  0  0
    3.3321   -2.9339    4.0484 C   0  0  0  0  0  0  0  0  0  0  0  0
    2.8031   -4.1113    3.4839 C   0  0  0  0  0  0  0  0  0  0  0  0
    2.5652   -5.2509    4.2562 C   0  0  0  0  0  0  0  0  0  0  0  0
    2.8650   -5.2445    5.6136 C   0  0  0  0  0  0  0  0  0  0  0  0
    3.3874   -4.0954    6.1994 C   0  0  0  0  0  0  0  0  0  0  0  0
    3.6093   -2.9509    5.4266 C   0  0  0  0  0  0  0  0  0  0  0  0
    4.7168   -0.9196    3.4471 C   0  0  0  0  0  0  0  0  0  0  0  0
    5.0104    0.1615    2.6118 C   0  0  0  0  0  0  0  0  0  0  0  0
    4.2011    0.4548    1.5137 C   0  0  0  0  0  0  0  0  0  0  0  0
    4.4711    1.5712    0.6889 N   0  0  0  0  0  0  0  0  0  0  0  0
    5.7028    2.2020    0.5667 C   0  0  0  0  0  0  0  0  0  0  0  0
    6.7891    1.7212    0.8692 O   0  0  0  0  0  0  0  0  0  0  0  0
    5.6762    3.5336   -0.0996 C   0  0  0  0  0  0  0  0  0  0  0  0
    4.9882    3.6186   -1.3247 C   0  0  0  0  0  0  0  0  0  0  0  0
    4.9703    4.8057   -2.0573 C   0  0  0  0  0  0  0  0  0  0  0  0
    5.6463    5.9237   -1.5849 C   0  0  0  0  0  0  0  0  0  0  0  0
    6.3745    5.8467   -0.3976 C   0  0  0  0  0  0  0  0  0  0  0  0
    6.4102    4.6516    0.3515 C   0  0  0  0  0  0  0  0  0  0  0  0
    7.2063    4.6311    1.5255 N   0  0  0  0  0  0  0  0  0  0  0  0
    8.3160    5.4079    1.7947 C   0  0  0  0  0  0  0  0  0  0  0  0
    8.8239    5.1047    2.9676 N   0  0  0  0  0  0  0  0  0  0  0  0
    7.9741    4.1408    3.4119 C   0  0  0  0  0  0  0  0  0  0  0  0
    6.9401    3.8772    2.6098 N   0  0  0  0  0  0  0  0  0  0  0  0
    0.6244   -0.4284   -0.9453 H   0  0  0  0  0  0  0  0  0  0  0  0
    0.4059   -0.6365    0.7972 H   0  0  0  0  0  0  0  0  0  0  0  0
    1.3448   -1.8382   -0.1713 H   0  0  0  0  0  0  0  0  0  0  0  0
    1.8978   -2.0230    1.9587 H   0  0  0  0  0  0  0  0  0  0  0  0
    2.5869   -4.1649    2.4191 H   0  0  0  0  0  0  0  0  0  0  0  0
    2.1568   -6.1441    3.7907 H   0  0  0  0  0  0  0  0  0  0  0  0
    2.6955   -6.1345    6.2130 H   0  0  0  0  0  0  0  0  0  0  0  0
    3.6271   -4.0867    7.2593 H   0  0  0  0  0  0  0  0  0  0  0  0
    4.0037   -2.0660    5.9216 H   0  0  0  0  0  0  0  0  0  0  0  0
    5.3893   -1.1121    4.2796 H   0  0  0  0  0  0  0  0  0  0  0  0
    5.8674    0.7843    2.8564 H   0  0  0  0  0  0  0  0  0  0  0  0
    3.6925    1.8627    0.1109 H   0  0  0  0  0  0  0  0  0  0  0  0
    4.4957    2.7443   -1.7460 H   0  0  0  0  0  0  0  0  0  0  0  0
    4.4362    4.8521   -3.0031 H   0  0  0  0  0  0  0  0  0  0  0  0
    5.6158    6.8546   -2.1463 H   0  0  0  0  0  0  0  0  0  0  0  0
    6.8754    6.7519   -0.0579 H   0  0  0  0  0  0  0  0  0  0  0  0
    8.7271    6.1186    1.0934 H   0  0  0  0  0  0  0  0  0  0  0  0
    8.1075    3.6212    4.3519 H   0  0  0  0  0  0  0  0  0  0  0  0
  1  2  1  0  0  0  0
  1 29  1  0  0  0  0
  1 30  1  0  0  0  0
  1 31  1  0  0  0  0
  2  3  1  0  0  0  0
  3  4  2  0  0  0  0
  3 14  1  0  0  0  0
  4  5  1  0  0  0  0
  4 32  1  0  0  0  0
  5  6  1  0  0  0  0
  5 12  2  0  0  0  0
  6  7  2  0  0  0  0
  6 11  1  0  0  0  0
  7  8  1  0  0  0  0
  7 33  1  0  0  0  0
  8  9  2  0  0  0  0
  8 34  1  0  0  0  0
  9 10  1  0  0  0  0
  9 35  1  0  0  0  0
 10 11  2  0  0  0  0
 10 36  1  0  0  0  0
 11 37  1  0  0  0  0
 12 13  1  0  0  0  0
 12 38  1  0  0  0  0
 13 14  2  0  0  0  0
 13 39  1  0  0  0  0
 14 15  1  0  0  0  0
 15 16  1  0  0  0  0
 15 40  1  0  0  0  0
 16 17  2  0  0  0  0
 16 18  1  0  0  0  0
 18 19  2  0  0  0  0
 18 23  1  0  0  0  0
 19 20  1  0  0  0  0
 19 41  1  0  0  0  0
 20 21  2  0  0  0  0
 20 42  1  0  0  0  0
 21 22  1  0  0  0  0
 21 43  1  0  0  0  0
 22 23  2  0  0  0  0
 22 44  1  0  0  0  0
 23 24  1  0  0  0  0
 24 25  1  0  0  0  0
 24 28  1  0  0  0  0
 25 26  2  0  0  0  0
 25 45  1  0  0  0  0
 26 27  1  0  0  0  0
 27 28  2  0  0  0  0
 27 46  1  0  0  0  0
M  END
$$$$
