
 OpenBabel01122422493D

 50 53  0  0  0  0  0  0  0  0999 V2000
    0.8955    2.3857   -3.6679 C   0  0  0  0  0  0  0  0  0  0  0  0
    2.0064    3.3909   -3.8118 C   0  0  0  0  0  0  0  0  0  0  0  0
    2.5635    3.5548   -5.0952 C   0  0  0  0  0  0  0  0  0  0  0  0
    3.6316    4.4198   -5.3455 C   0  0  0  0  0  0  0  0  0  0  0  0
    4.1243    5.1380   -4.2597 C   0  0  0  0  0  0  0  0  0  0  0  0
    5.1501    6.0439   -4.1695 N   0  0  0  0  0  0  0  0  0  0  0  0
    5.3318    6.5449   -2.9389 N   0  0  0  0  0  0  0  0  0  0  0  0
    4.4088    5.9122   -2.2081 C   0  0  0  0  0  0  0  0  0  0  0  0
    3.6102    5.0220   -2.9707 C   0  0  0  0  0  0  0  0  0  0  0  0
    2.5289    4.1392   -2.7202 C   0  0  0  0  0  0  0  0  0  0  0  0
    2.0667    4.0062   -1.3051 C   0  0  0  0  0  0  0  0  0  0  0  0
    2.8752    4.0535   -0.3827 O   0  0  0  0  0  0  0  0  0  0  0  0
    0.7139    3.8761   -1.0933 N   0  0  0  0  0  0  0  0  0  0  0  0
    0.1684    3.7541    0.2419 C   0  0  0  0  0  0  0  0  0  0  0  0
   -1.3091    3.4625    0.1800 C   0  0  0  0  0  0  0  0  0  0  0  0
   -1.7714    2.1434    0.1678 C   0  0  0  0  0  0  0  0  0  0  0  0
   -3.1371    1.8679    0.0324 C   0  0  0  0  0  0  0  0  0  0  0  0
   -4.0677    2.9001   -0.1006 C   0  0  0  0  0  0  0  0  0  0  0  0
   -5.4515    2.6832   -0.2790 N   0  0  0  0  0  0  0  0  0  0  0  0
   -6.1189    1.4751   -0.2029 C   0  0  0  0  0  0  0  0  0  0  0  0
   -5.6221    0.3977    0.1103 O   0  0  0  0  0  0  0  0  0  0  0  0
   -7.5746    1.4902   -0.5443 C   0  0  0  0  0  0  0  0  0  0  0  0
   -8.1426    0.2650   -0.9360 C   0  0  0  0  0  0  0  0  0  0  0  0
   -9.5015    0.1678   -1.2343 C   0  0  0  0  0  0  0  0  0  0  0  0
  -10.3130    1.2942   -1.1335 C   0  0  0  0  0  0  0  0  0  0  0  0
   -9.7646    2.5208   -0.7525 C   0  0  0  0  0  0  0  0  0  0  0  0
   -8.3980    2.6209   -0.4679 C   0  0  0  0  0  0  0  0  0  0  0  0
   -7.8829    3.8388   -0.1085 O   0  0  0  0  0  0  0  0  0  0  0  0
   -3.6072    4.2209   -0.0842 C   0  0  0  0  0  0  0  0  0  0  0  0
   -2.2412    4.5004    0.0590 C   0  0  0  0  0  0  0  0  0  0  0  0
    0.7647    1.8055   -4.5886 H   0  0  0  0  0  0  0  0  0  0  0  0
   -0.0590    2.8849   -3.4819 H   0  0  0  0  0  0  0  0  0  0  0  0
    1.1167    1.6715   -2.8696 H   0  0  0  0  0  0  0  0  0  0  0  0
    2.1748    2.9737   -5.9320 H   0  0  0  0  0  0  0  0  0  0  0  0
    4.0591    4.5108   -6.3392 H   0  0  0  0  0  0  0  0  0  0  0  0
    5.7619    6.3620   -4.9125 H   0  0  0  0  0  0  0  0  0  0  0  0
    4.3489    6.1219   -1.1467 H   0  0  0  0  0  0  0  0  0  0  0  0
    0.0721    4.0898   -1.8420 H   0  0  0  0  0  0  0  0  0  0  0  0
    0.3575    4.6879    0.7829 H   0  0  0  0  0  0  0  0  0  0  0  0
    0.7032    2.9606    0.7780 H   0  0  0  0  0  0  0  0  0  0  0  0
   -1.0757    1.3114    0.2552 H   0  0  0  0  0  0  0  0  0  0  0  0
   -3.4373    0.8255    0.0145 H   0  0  0  0  0  0  0  0  0  0  0  0
   -6.0343    3.5000   -0.4405 H   0  0  0  0  0  0  0  0  0  0  0  0
   -7.5195   -0.6259   -1.0082 H   0  0  0  0  0  0  0  0  0  0  0  0
   -9.9221   -0.7886   -1.5360 H   0  0  0  0  0  0  0  0  0  0  0  0
  -11.3754    1.2144   -1.3517 H   0  0  0  0  0  0  0  0  0  0  0  0
  -10.4202    3.3842   -0.6834 H   0  0  0  0  0  0  0  0  0  0  0  0
   -8.6235    4.4494    0.0578 H   0  0  0  0  0  0  0  0  0  0  0  0
   -4.3021    5.0510   -0.1790 H   0  0  0  0  0  0  0  0  0  0  0  0
   -1.9078    5.5360    0.0700 H   0  0  0  0  0  0  0  0  0  0  0  0
  1  2  1  0  0  0  0
  1 31  1  0  0  0  0
  1 32  1  0  0  0  0
  1 33  1  0  0  0  0
  2  3  2  0  0  0  0
  2 10  1  0  0  0  0
  3  4  1  0  0  0  0
  3 34  1  0  0  0  0
  4  5  2  0  0  0  0
  4 35  1  0  0  0  0
  5  6  1  0  0  0  0
  5  9  1  0  0  0  0
  6  7  1  0  0  0  0
  6 36  1  0  0  0  0
  7  8  2  0  0  0  0
  8  9  1  0  0  0  0
  8 37  1  0  0  0  0
  9 10  2  0  0  0  0
 10 11  1  0  0  0  0
 11 12  2  0  0  0  0
 11 13  1  0  0  0  0
 13 14  1  0  0  0  0
 13 38  1  0  0  0  0
 14 15  1  0  0  0  0
 14 39  1  0  0  0  0
 14 40  1  0  0  0  0
 15 16  2  0  0  0  0
 15 30  1  0  0  0  0
 16 17  1  0  0  0  0
 16 41  1  0  0  0  0
 17 18  2  0  0  0  0
 17 42  1  0  0  0  0
 18 19  1  0  0  0  0
 18 29  1  0  0  0  0
 19 20  1  0  0  0  0
 19 43  1  0  0  0  0
 20 21  2  0  0  0  0
 20 22  1  0  0  0  0
 22 23  2  0  0  0  0
 22 27  1  0  0  0  0
 23 24  1  0  0  0  0
 23 44  1  0  0  0  0
 24 25  2  0  0  0  0
 24 45  1  0  0  0  0
 25 26  1  0  0  0  0
 25 46  1  0  0  0  0
 26 27  2  0  0  0  0
 26 47  1  0  0  0  0
 27 28  1  0  0  0  0
 28 48  1  0  0  0  0
 29 30  2  0  0  0  0
 29 49  1  0  0  0  0
 30 50  1  0  0  0  0
M  END
$$$$
