
 OpenBabel01122422493D

 47 49  0  0  1  0  0  0  0  0999 V2000
    1.0844    1.3307   -0.5483 C   0  0  0  0  0  0  0  0  0  0  0  0
    2.5164    1.2062   -0.5272 N   0  0  0  0  0  0  0  0  0  0  0  0
    3.2736    1.7938    0.4603 C   0  0  0  0  0  0  0  0  0  0  0  0
    2.7837    2.4695    1.3576 O   0  0  0  0  0  0  0  0  0  0  0  0
    4.7472    1.5770    0.4088 C   0  0  0  0  0  0  0  0  0  0  0  0
    5.5338    2.1640    1.4071 C   0  0  0  0  0  0  0  0  0  0  0  0
    6.9151    1.9677    1.4144 C   0  0  0  0  0  0  0  0  0  0  0  0
    7.5344    1.1930    0.4215 C   0  0  0  0  0  0  0  0  0  0  0  0
    8.9928    0.9599    0.5517 C   0  0  0  0  0  0  0  0  0  0  0  0
    9.4429    0.9545    1.6958 O   0  0  0  0  0  0  0  0  0  0  0  0
    9.7268    0.8323   -0.6188 N   0  0  0  0  0  0  0  0  0  0  0  0
   11.1322    0.6522   -0.6573 C   0  0  0  0  0  0  0  0  0  0  0  0
   11.8656    0.2201    0.4486 C   0  0  0  0  0  0  0  0  0  0  0  0
   13.2598    0.1393    0.4087 C   0  0  0  0  0  0  0  0  0  0  0  0
   13.9622    0.4649   -0.7582 C   0  0  0  0  0  0  0  0  0  0  0  0
   15.4874    0.3785   -0.7728 C   0  0  3  0  0  0  0  0  0  0  0  0
   15.9654   -0.6068   -1.7730 C   0  0  0  0  0  0  0  0  0  0  0  0
   16.3337   -1.3777   -2.5611 N   0  0  0  0  0  0  0  0  0  0  0  0
   16.1655    1.7456   -0.8890 C   0  0  0  0  0  0  0  0  0  0  0  0
   16.4816    2.4654    0.2785 C   0  0  0  0  0  0  0  0  0  0  0  0
   17.0973    3.7178    0.2056 C   0  0  0  0  0  0  0  0  0  0  0  0
   17.4122    4.2706   -1.0327 C   0  0  0  0  0  0  0  0  0  0  0  0
   17.1051    3.5752   -2.1992 C   0  0  0  0  0  0  0  0  0  0  0  0
   16.4788    2.3276   -2.1304 C   0  0  0  0  0  0  0  0  0  0  0  0
   13.2195    0.8451   -1.8893 C   0  0  0  0  0  0  0  0  0  0  0  0
   11.8186    0.9319   -1.8422 C   0  0  0  0  0  0  0  0  0  0  0  0
    6.7597    0.6054   -0.5789 C   0  0  0  0  0  0  0  0  0  0  0  0
    5.3765    0.8025   -0.5726 C   0  0  0  0  0  0  0  0  0  0  0  0
    4.6638    0.2025   -1.5395 F   0  0  0  0  0  0  0  0  0  0  0  0
    0.6962    0.7249   -1.3702 H   0  0  0  0  0  0  0  0  0  0  0  0
    0.8186    2.3805   -0.6952 H   0  0  0  0  0  0  0  0  0  0  0  0
    0.6773    0.9793    0.4024 H   0  0  0  0  0  0  0  0  0  0  0  0
    2.9682    0.6666   -1.2574 H   0  0  0  0  0  0  0  0  0  0  0  0
    5.0773    2.7621    2.1951 H   0  0  0  0  0  0  0  0  0  0  0  0
    7.5118    2.4089    2.2135 H   0  0  0  0  0  0  0  0  0  0  0  0
    9.2753    1.0616   -1.4949 H   0  0  0  0  0  0  0  0  0  0  0  0
   11.3769   -0.0714    1.3734 H   0  0  0  0  0  0  0  0  0  0  0  0
   13.7776   -0.1813    1.3105 H   0  0  0  0  0  0  0  0  0  0  0  0
   15.8035   -0.0357    0.1969 H   0  0  0  0  0  0  0  0  0  0  0  0
   16.2542    2.0555    1.2608 H   0  0  0  0  0  0  0  0  0  0  0  0
   17.3321    4.2631    1.1166 H   0  0  0  0  0  0  0  0  0  0  0  0
   17.8952    5.2428   -1.0890 H   0  0  0  0  0  0  0  0  0  0  0  0
   17.3556    4.0047   -3.1663 H   0  0  0  0  0  0  0  0  0  0  0  0
   16.2496    1.8166   -3.0639 H   0  0  0  0  0  0  0  0  0  0  0  0
   13.7253    1.0865   -2.8225 H   0  0  0  0  0  0  0  0  0  0  0  0
   11.2900    1.2548   -2.7350 H   0  0  0  0  0  0  0  0  0  0  0  0
    7.1929   -0.0422   -1.3339 H   0  0  0  0  0  0  0  0  0  0  0  0
  1  2  1  0  0  0  0
  1 30  1  0  0  0  0
  1 31  1  0  0  0  0
  1 32  1  0  0  0  0
  2  3  1  0  0  0  0
  2 33  1  0  0  0  0
  3  4  2  0  0  0  0
  3  5  1  0  0  0  0
  5  6  2  0  0  0  0
  5 28  1  0  0  0  0
  6  7  1  0  0  0  0
  6 34  1  0  0  0  0
  7  8  2  0  0  0  0
  7 35  1  0  0  0  0
  8  9  1  0  0  0  0
  8 27  1  0  0  0  0
  9 10  2  0  0  0  0
  9 11  1  0  0  0  0
 11 12  1  0  0  0  0
 11 36  1  0  0  0  0
 12 13  2  0  0  0  0
 12 26  1  0  0  0  0
 13 14  1  0  0  0  0
 13 37  1  0  0  0  0
 14 15  2  0  0  0  0
 14 38  1  0  0  0  0
 15 16  1  0  0  0  0
 15 25  1  0  0  0  0
 16 17  1  0  0  0  0
 16 19  1  0  0  0  0
 16 39  1  0  0  0  0
 17 18  3  0  0  0  0
 19 20  2  0  0  0  0
 19 24  1  0  0  0  0
 20 21  1  0  0  0  0
 20 40  1  0  0  0  0
 21 22  2  0  0  0  0
 21 41  1  0  0  0  0
 22 23  1  0  0  0  0
 22 42  1  0  0  0  0
 23 24  2  0  0  0  0
 23 43  1  0  0  0  0
 24 44  1  0  0  0  0
 25 26  2  0  0  0  0
 25 45  1  0  0  0  0
 26 46  1  0  0  0  0
 27 28  2  0  0  0  0
 27 47  1  0  0  0  0
 28 29  1  0  0  0  0
M  END
$$$$
