
 OpenBabel01122422463D

 43 46  0  0  0  0  0  0  0  0999 V2000
    2.9369    0.7151    2.6367 O   0  0  0  0  0  0  0  0  0  0  0  0
    2.2828    0.8741    1.6157 C   0  0  0  0  0  0  0  0  0  0  0  0
    2.8037    1.1598    0.3902 O   0  0  0  0  0  0  0  0  0  0  0  0
    4.2350    1.2276    0.3244 C   0  0  0  0  0  0  0  0  0  0  0  0
    4.7346    2.5840    0.7547 C   0  0  0  0  0  0  0  0  0  0  0  0
    5.1791    2.7795    2.0751 C   0  0  0  0  0  0  0  0  0  0  0  0
    5.6188    4.0299    2.5530 C   0  0  0  0  0  0  0  0  0  0  0  0
    6.0742    4.1853    3.9519 C   0  0  0  0  0  0  0  0  0  0  0  0
    5.5229    3.4373    5.0053 C   0  0  0  0  0  0  0  0  0  0  0  0
    6.0054    3.5694    6.3069 C   0  0  0  0  0  0  0  0  0  0  0  0
    7.0290    4.4684    6.5391 C   0  0  0  0  0  0  0  0  0  0  0  0
    7.5873    5.2207    5.5706 N   0  0  0  0  0  0  0  0  0  0  0  0
    7.1030    5.0622    4.3141 C   0  0  0  0  0  0  0  0  0  0  0  0
    5.6148    5.0961    1.6408 C   0  0  0  0  0  0  0  0  0  0  0  0
    5.1933    4.9059    0.3249 C   0  0  0  0  0  0  0  0  0  0  0  0
    5.2182    5.9404   -0.5261 F   0  0  0  0  0  0  0  0  0  0  0  0
    4.7462    3.6683   -0.1233 C   0  0  0  0  0  0  0  0  0  0  0  0
    0.8544    0.7698    1.5233 C   0  0  0  0  0  0  0  0  0  0  0  0
    0.0694    0.3360    0.4688 C   0  0  0  0  0  0  0  0  0  0  0  0
   -1.2218    0.2122    0.9987 C   0  0  0  0  0  0  0  0  0  0  0  0
   -1.2648    0.5217    2.2927 N   0  0  0  0  0  0  0  0  0  0  0  0
   -0.0247    1.0141    2.5646 N   0  0  0  0  0  0  0  0  0  0  0  0
    0.1555    1.7935    3.7367 C   0  0  0  0  0  0  0  0  0  0  0  0
   -0.6217    1.5191    4.8645 C   0  0  0  0  0  0  0  0  0  0  0  0
   -0.4920    2.3527    5.9605 C   0  0  0  0  0  0  0  0  0  0  0  0
    0.3183    3.4329    5.9896 N   0  0  0  0  0  0  0  0  0  0  0  0
    1.0418    3.6852    4.8776 C   0  0  0  0  0  0  0  0  0  0  0  0
    1.0134    2.8950    3.7405 C   0  0  0  0  0  0  0  0  0  0  0  0
    4.5229    1.0467   -0.7177 H   0  0  0  0  0  0  0  0  0  0  0  0
    4.6988    0.4217    0.9070 H   0  0  0  0  0  0  0  0  0  0  0  0
    5.1866    1.9193    2.7454 H   0  0  0  0  0  0  0  0  0  0  0  0
    4.7082    2.7376    4.8295 H   0  0  0  0  0  0  0  0  0  0  0  0
    5.5904    2.9795    7.1169 H   0  0  0  0  0  0  0  0  0  0  0  0
    7.4388    4.6076    7.5339 H   0  0  0  0  0  0  0  0  0  0  0  0
    7.6079    5.6750    3.5746 H   0  0  0  0  0  0  0  0  0  0  0  0
    5.9292    6.0946    1.9323 H   0  0  0  0  0  0  0  0  0  0  0  0
    4.4187    3.5656   -1.1538 H   0  0  0  0  0  0  0  0  0  0  0  0
    0.4025    0.0718   -0.5255 H   0  0  0  0  0  0  0  0  0  0  0  0
   -2.1284   -0.1209    0.5083 H   0  0  0  0  0  0  0  0  0  0  0  0
   -1.3003    0.6725    4.9012 H   0  0  0  0  0  0  0  0  0  0  0  0
   -1.0601    2.1741    6.8691 H   0  0  0  0  0  0  0  0  0  0  0  0
    1.6492    4.5855    4.9171 H   0  0  0  0  0  0  0  0  0  0  0  0
    1.5951    3.1968    2.8777 H   0  0  0  0  0  0  0  0  0  0  0  0
  1  2  2  0  0  0  0
  2  3  1  0  0  0  0
  2 18  1  0  0  0  0
  3  4  1  0  0  0  0
  4  5  1  0  0  0  0
  4 29  1  0  0  0  0
  4 30  1  0  0  0  0
  5  6  2  0  0  0  0
  5 17  1  0  0  0  0
  6  7  1  0  0  0  0
  6 31  1  0  0  0  0
  7  8  1  0  0  0  0
  7 14  2  0  0  0  0
  8  9  2  0  0  0  0
  8 13  1  0  0  0  0
  9 10  1  0  0  0  0
  9 32  1  0  0  0  0
 10 11  2  0  0  0  0
 10 33  1  0  0  0  0
 11 12  1  0  0  0  0
 11 34  1  0  0  0  0
 12 13  2  0  0  0  0
 13 35  1  0  0  0  0
 14 15  1  0  0  0  0
 14 36  1  0  0  0  0
 15 16  1  0  0  0  0
 15 17  2  0  0  0  0
 17 37  1  0  0  0  0
 18 19  2  0  0  0  0
 18 22  1  0  0  0  0
 19 20  1  0  0  0  0
 19 38  1  0  0  0  0
 20 21  2  0  0  0  0
 20 39  1  0  0  0  0
 21 22  1  0  0  0  0
 22 23  1  0  0  0  0
 23 24  2  0  0  0  0
 23 28  1  0  0  0  0
 24 25  1  0  0  0  0
 24 40  1  0  0  0  0
 25 26  2  0  0  0  0
 25 41  1  0  0  0  0
 26 27  1  0  0  0  0
 27 28  2  0  0  0  0
 27 42  1  0  0  0  0
 28 43  1  0  0  0  0
M  END
$$$$
