
 OpenBabel01122422493D

 45 48  0  0  0  0  0  0  0  0999 V2000
    1.9314    1.1954    1.5445 O   0  0  0  0  0  0  0  0  0  0  0  0
    2.6959    0.5583    0.8279 C   0  0  0  0  0  0  0  0  0  0  0  0
    2.9028   -0.7839    1.0204 N   0  0  0  0  0  0  0  0  0  0  0  0
    2.2474   -1.5006    2.0925 C   0  0  0  0  0  0  0  0  0  0  0  0
    3.2409   -2.0494    3.0869 C   0  0  0  0  0  0  0  0  0  0  0  0
    3.6998   -1.2534    4.1325 C   0  0  0  0  0  0  0  0  0  0  0  0
    4.4966   -1.8392    5.1129 C   0  0  0  0  0  0  0  0  0  0  0  0
    4.9514   -1.1920    6.2407 O   0  0  0  0  0  0  0  0  0  0  0  0
    4.1776   -0.2212    6.8405 C   0  0  0  0  0  0  0  0  0  0  0  0
    2.7762   -0.2213    6.8571 C   0  0  0  0  0  0  0  0  0  0  0  0
    2.0811    0.8349    7.4502 C   0  0  0  0  0  0  0  0  0  0  0  0
    2.7881    1.8511    8.0821 C   0  0  0  0  0  0  0  0  0  0  0  0
    2.1172    2.8609    8.6518 F   0  0  0  0  0  0  0  0  0  0  0  0
    4.1763    1.8121    8.1345 C   0  0  0  0  0  0  0  0  0  0  0  0
    4.8527    2.7709    8.7822 F   0  0  0  0  0  0  0  0  0  0  0  0
    4.8776    0.7810    7.5173 C   0  0  0  0  0  0  0  0  0  0  0  0
    4.9107   -3.1572    4.9595 C   0  0  0  0  0  0  0  0  0  0  0  0
    4.4683   -3.8543    3.8507 C   0  0  0  0  0  0  0  0  0  0  0  0
    3.6388   -3.3352    2.9206 N   0  0  0  0  0  0  0  0  0  0  0  0
    3.4304    1.1434   -0.2549 C   0  0  0  0  0  0  0  0  0  0  0  0
    3.8265    0.5965   -1.4598 C   0  0  0  0  0  0  0  0  0  0  0  0
    4.3020    1.5687   -2.2831 N   0  0  0  0  0  0  0  0  0  0  0  0
    4.2092    2.7230   -1.6417 N   0  0  0  0  0  0  0  0  0  0  0  0
    3.7798    2.4801   -0.3754 N   0  0  0  0  0  0  0  0  0  0  0  0
    3.7858    3.5172    0.5929 C   0  0  0  0  0  0  0  0  0  0  0  0
    3.9559    3.2329    1.9533 C   0  0  0  0  0  0  0  0  0  0  0  0
    3.9093    4.2648    2.8809 C   0  0  0  0  0  0  0  0  0  0  0  0
    4.0700    3.9871    4.1806 F   0  0  0  0  0  0  0  0  0  0  0  0
    3.7008    5.5810    2.4814 C   0  0  0  0  0  0  0  0  0  0  0  0
    3.5670    5.8739    1.1246 C   0  0  0  0  0  0  0  0  0  0  0  0
    3.6298    4.8482    0.1766 C   0  0  0  0  0  0  0  0  0  0  0  0
    3.5844   -1.2953    0.4779 H   0  0  0  0  0  0  0  0  0  0  0  0
    1.6928   -2.3256    1.6344 H   0  0  0  0  0  0  0  0  0  0  0  0
    1.5153   -0.8713    2.6114 H   0  0  0  0  0  0  0  0  0  0  0  0
    3.4037   -0.2106    4.1871 H   0  0  0  0  0  0  0  0  0  0  0  0
    2.2086   -1.0271    6.3994 H   0  0  0  0  0  0  0  0  0  0  0  0
    0.9963    0.8695    7.4232 H   0  0  0  0  0  0  0  0  0  0  0  0
    5.9620    0.7695    7.5643 H   0  0  0  0  0  0  0  0  0  0  0  0
    5.5599   -3.6297    5.6875 H   0  0  0  0  0  0  0  0  0  0  0  0
    4.7671   -4.8850    3.6821 H   0  0  0  0  0  0  0  0  0  0  0  0
    3.7282   -0.4231   -1.8046 H   0  0  0  0  0  0  0  0  0  0  0  0
    4.1462    2.2319    2.3251 H   0  0  0  0  0  0  0  0  0  0  0  0
    3.6482    6.3662    3.2286 H   0  0  0  0  0  0  0  0  0  0  0  0
    3.4019    6.9000    0.8043 H   0  0  0  0  0  0  0  0  0  0  0  0
    3.5073    5.0973   -0.8763 H   0  0  0  0  0  0  0  0  0  0  0  0
  1  2  2  0  0  0  0
  2  3  1  0  0  0  0
  2 20  1  0  0  0  0
  3  4  1  0  0  0  0
  3 32  1  0  0  0  0
  4  5  1  0  0  0  0
  4 33  1  0  0  0  0
  4 34  1  0  0  0  0
  5  6  2  0  0  0  0
  5 19  1  0  0  0  0
  6  7  1  0  0  0  0
  6 35  1  0  0  0  0
  7  8  1  0  0  0  0
  7 17  2  0  0  0  0
  8  9  1  0  0  0  0
  9 10  2  0  0  0  0
  9 16  1  0  0  0  0
 10 11  1  0  0  0  0
 10 36  1  0  0  0  0
 11 12  2  0  0  0  0
 11 37  1  0  0  0  0
 12 13  1  0  0  0  0
 12 14  1  0  0  0  0
 14 15  1  0  0  0  0
 14 16  2  0  0  0  0
 16 38  1  0  0  0  0
 17 18  1  0  0  0  0
 17 39  1  0  0  0  0
 18 19  2  0  0  0  0
 18 40  1  0  0  0  0
 20 21  2  0  0  0  0
 20 24  1  0  0  0  0
 21 22  1  0  0  0  0
 21 41  1  0  0  0  0
 22 23  2  0  0  0  0
 23 24  1  0  0  0  0
 24 25  1  0  0  0  0
 25 26  2  0  0  0  0
 25 31  1  0  0  0  0
 26 27  1  0  0  0  0
 26 42  1  0  0  0  0
 27 28  1  0  0  0  0
 27 29  2  0  0  0  0
 29 30  1  0  0  0  0
 29 43  1  0  0  0  0
 30 31  2  0  0  0  0
 30 44  1  0  0  0  0
 31 45  1  0  0  0  0
M  END
$$$$
