
 OpenBabel01122422493D

 43 46  0  0  0  0  0  0  0  0999 V2000
   -0.7283    1.8588    5.8605 N   0  0  0  0  0  0  0  0  0  0  0  0
   -1.3861    1.6569    4.9242 C   0  0  0  0  0  0  0  0  0  0  0  0
   -2.1582    1.4513    3.7329 C   0  0  0  0  0  0  0  0  0  0  0  0
   -1.7809    2.0491    2.5402 C   0  0  0  0  0  0  0  0  0  0  0  0
   -2.6182    1.8902    1.4349 C   0  0  0  0  0  0  0  0  0  0  0  0
   -2.3725    2.4513    0.2003 O   0  0  0  0  0  0  0  0  0  0  0  0
   -1.8275    3.7132    0.1325 C   0  0  0  0  0  0  0  0  0  0  0  0
   -0.9957    3.9710   -0.9503 C   0  0  0  0  0  0  0  0  0  0  0  0
   -0.3657    5.2080   -1.0696 C   0  0  0  0  0  0  0  0  0  0  0  0
   -0.5625    6.2121   -0.1243 C   0  0  0  0  0  0  0  0  0  0  0  0
    0.1180    7.4780   -0.1459 N   0  0  0  0  0  0  0  0  0  0  0  0
    1.0750    7.8459   -1.0797 C   0  0  0  0  0  0  0  0  0  0  0  0
    1.4740    7.1411   -2.0030 O   0  0  0  0  0  0  0  0  0  0  0  0
    1.6976    9.1995   -1.0009 C   0  0  0  0  0  0  0  0  0  0  0  0
    1.9311    9.9122    0.1877 C   0  0  0  0  0  0  0  0  0  0  0  0
    2.6405   11.1246    0.1292 C   0  0  0  0  0  0  0  0  0  0  0  0
    3.0280   11.6496   -1.1180 C   0  0  0  0  0  0  0  0  0  0  0  0
    3.5160   12.9655   -1.1977 N   0  0  0  0  0  0  0  0  0  0  0  0
    3.4429   13.7869   -0.1064 C   0  0  0  0  0  0  0  0  0  0  0  0
    3.2853   14.9975   -0.1754 O   0  0  0  0  0  0  0  0  0  0  0  0
    3.5885   13.0883    1.1925 C   0  0  0  0  0  0  0  0  0  0  0  0
    3.1282   11.8341    1.3212 C   0  0  0  0  0  0  0  0  0  0  0  0
    2.8415   10.9175   -2.2764 C   0  0  0  0  0  0  0  0  0  0  0  0
    3.2977   11.3779   -3.4483 F   0  0  0  0  0  0  0  0  0  0  0  0
    2.1886    9.7002   -2.2224 C   0  0  0  0  0  0  0  0  0  0  0  0
   -1.4498    5.9809    0.9219 C   0  0  0  0  0  0  0  0  0  0  0  0
   -2.1046    4.7418    1.0372 C   0  0  0  0  0  0  0  0  0  0  0  0
   -3.7291    1.0731    1.5286 C   0  0  0  0  0  0  0  0  0  0  0  0
   -4.0220    0.5007    2.7573 C   0  0  0  0  0  0  0  0  0  0  0  0
   -3.2685    0.6857    3.8627 N   0  0  0  0  0  0  0  0  0  0  0  0
   -0.8665    2.6329    2.4824 H   0  0  0  0  0  0  0  0  0  0  0  0
   -0.8174    3.2067   -1.7033 H   0  0  0  0  0  0  0  0  0  0  0  0
    0.2683    5.3503   -1.9413 H   0  0  0  0  0  0  0  0  0  0  0  0
   -0.1445    8.1450    0.5707 H   0  0  0  0  0  0  0  0  0  0  0  0
    1.6129    9.5211    1.1496 H   0  0  0  0  0  0  0  0  0  0  0  0
    3.5763   13.4024   -2.1102 H   0  0  0  0  0  0  0  0  0  0  0  0
    4.0882   13.6374    1.9801 H   0  0  0  0  0  0  0  0  0  0  0  0
    3.2311   11.2941    2.2555 H   0  0  0  0  0  0  0  0  0  0  0  0
    2.0735    9.1372   -3.1451 H   0  0  0  0  0  0  0  0  0  0  0  0
   -1.6617    6.7370    1.6731 H   0  0  0  0  0  0  0  0  0  0  0  0
   -2.8098    4.5899    1.8456 H   0  0  0  0  0  0  0  0  0  0  0  0
   -4.3688    0.8918    0.6704 H   0  0  0  0  0  0  0  0  0  0  0  0
   -4.8954   -0.1326    2.8786 H   0  0  0  0  0  0  0  0  0  0  0  0
  1  2  3  0  0  0  0
  2  3  1  0  0  0  0
  3  4  2  0  0  0  0
  3 30  1  0  0  0  0
  4  5  1  0  0  0  0
  4 31  1  0  0  0  0
  5  6  1  0  0  0  0
  5 28  2  0  0  0  0
  6  7  1  0  0  0  0
  7  8  2  0  0  0  0
  7 27  1  0  0  0  0
  8  9  1  0  0  0  0
  8 32  1  0  0  0  0
  9 10  2  0  0  0  0
  9 33  1  0  0  0  0
 10 11  1  0  0  0  0
 10 26  1  0  0  0  0
 11 12  1  0  0  0  0
 11 34  1  0  0  0  0
 12 13  2  0  0  0  0
 12 14  1  0  0  0  0
 14 15  2  0  0  0  0
 14 25  1  0  0  0  0
 15 16  1  0  0  0  0
 15 35  1  0  0  0  0
 16 17  2  0  0  0  0
 16 22  1  0  0  0  0
 17 18  1  0  0  0  0
 17 23  1  0  0  0  0
 18 19  1  0  0  0  0
 18 36  1  0  0  0  0
 19 20  2  0  0  0  0
 19 21  1  0  0  0  0
 21 22  2  0  0  0  0
 21 37  1  0  0  0  0
 22 38  1  0  0  0  0
 23 24  1  0  0  0  0
 23 25  2  0  0  0  0
 25 39  1  0  0  0  0
 26 27  2  0  0  0  0
 26 40  1  0  0  0  0
 27 41  1  0  0  0  0
 28 29  1  0  0  0  0
 28 42  1  0  0  0  0
 29 30  2  0  0  0  0
 29 43  1  0  0  0  0
M  END
$$$$
