
 OpenBabel01122422493D

 47 50  0  0  0  0  0  0  0  0999 V2000
    1.0768   -0.2829    0.5578 O   0  0  0  0  0  0  0  0  0  0  0  0
    2.2129   -0.0405    0.1569 C   0  0  0  0  0  0  0  0  0  0  0  0
    2.9186   -0.9863   -0.8148 C   0  0  0  0  0  0  0  0  0  0  0  0
    3.3718   -2.1086   -0.0143 N   0  0  0  0  0  0  0  0  0  0  0  0
    2.5546   -3.1923    0.2060 C   0  0  0  0  0  0  0  0  0  0  0  0
    2.8147   -4.1529    1.0300 N   0  0  0  0  0  0  0  0  0  0  0  0
    3.9637   -4.0347    1.7624 C   0  0  0  0  0  0  0  0  0  0  0  0
    4.2256   -5.0023    2.8355 C   0  0  0  0  0  0  0  0  0  0  0  0
    3.7364   -4.7432    4.1233 C   0  0  0  0  0  0  0  0  0  0  0  0
    4.1045   -5.5585    5.1938 C   0  0  0  0  0  0  0  0  0  0  0  0
    4.9511   -6.6451    4.9795 C   0  0  0  0  0  0  0  0  0  0  0  0
    5.4113   -6.9311    3.6936 C   0  0  0  0  0  0  0  0  0  0  0  0
    5.0487   -6.1131    2.6216 C   0  0  0  0  0  0  0  0  0  0  0  0
    4.8523   -3.0448    1.6295 C   0  0  0  0  0  0  0  0  0  0  0  0
    4.5562   -1.9747    0.6715 C   0  0  0  0  0  0  0  0  0  0  0  0
    5.3214   -1.0198    0.5590 O   0  0  0  0  0  0  0  0  0  0  0  0
    2.9958    1.0156    0.5845 N   0  0  0  0  0  0  0  0  0  0  0  0
    2.6313    1.9035    1.6158 C   0  0  0  0  0  0  0  0  0  0  0  0
    2.9536    3.2564    1.4642 C   0  0  0  0  0  0  0  0  0  0  0  0
    3.5788    3.6239    0.3302 F   0  0  0  0  0  0  0  0  0  0  0  0
    2.5887    4.2268    2.4155 C   0  0  0  0  0  0  0  0  0  0  0  0
    2.7831    5.6726    2.1605 C   0  0  0  0  0  0  0  0  0  0  0  0
    2.5871    6.2150    0.8809 C   0  0  0  0  0  0  0  0  0  0  0  0
    2.7951    7.5679    0.6633 C   0  0  0  0  0  0  0  0  0  0  0  0
    3.1565    8.4321    1.6329 N   0  0  0  0  0  0  0  0  0  0  0  0
    3.3219    7.9117    2.8650 C   0  0  0  0  0  0  0  0  0  0  0  0
    3.1493    6.5682    3.1728 C   0  0  0  0  0  0  0  0  0  0  0  0
    1.9891    3.7581    3.5996 C   0  0  0  0  0  0  0  0  0  0  0  0
    1.7122    2.3974    3.7861 C   0  0  0  0  0  0  0  0  0  0  0  0
    2.0003    1.4747    2.7807 C   0  0  0  0  0  0  0  0  0  0  0  0
    3.7626   -0.4920   -1.3068 H   0  0  0  0  0  0  0  0  0  0  0  0
    2.2037   -1.3109   -1.5758 H   0  0  0  0  0  0  0  0  0  0  0  0
    1.6361   -3.2078   -0.4038 H   0  0  0  0  0  0  0  0  0  0  0  0
    3.0851   -3.8894    4.2994 H   0  0  0  0  0  0  0  0  0  0  0  0
    3.7417   -5.3377    6.1943 H   0  0  0  0  0  0  0  0  0  0  0  0
    5.2537   -7.2695    5.8162 H   0  0  0  0  0  0  0  0  0  0  0  0
    6.0650   -7.7833    3.5282 H   0  0  0  0  0  0  0  0  0  0  0  0
    5.4249   -6.3327    1.6259 H   0  0  0  0  0  0  0  0  0  0  0  0
    5.7444   -2.9441    2.2333 H   0  0  0  0  0  0  0  0  0  0  0  0
    3.7685    1.3134   -0.0044 H   0  0  0  0  0  0  0  0  0  0  0  0
    2.2730    5.5945    0.0437 H   0  0  0  0  0  0  0  0  0  0  0  0
    2.6655    7.9996   -0.3257 H   0  0  0  0  0  0  0  0  0  0  0  0
    3.6099    8.6271    3.6288 H   0  0  0  0  0  0  0  0  0  0  0  0
    3.3155    6.2386    4.1928 H   0  0  0  0  0  0  0  0  0  0  0  0
    1.7022    4.4506    4.3888 H   0  0  0  0  0  0  0  0  0  0  0  0
    1.2559    2.0583    4.7142 H   0  0  0  0  0  0  0  0  0  0  0  0
    1.7694    0.4240    2.9383 H   0  0  0  0  0  0  0  0  0  0  0  0
  1  2  2  0  0  0  0
  2  3  1  0  0  0  0
  2 17  1  0  0  0  0
  3  4  1  0  0  0  0
  3 31  1  0  0  0  0
  3 32  1  0  0  0  0
  4  5  1  0  0  0  0
  4 15  1  0  0  0  0
  5  6  2  0  0  0  0
  5 33  1  0  0  0  0
  6  7  1  0  0  0  0
  7  8  1  0  0  0  0
  7 14  2  0  0  0  0
  8  9  2  0  0  0  0
  8 13  1  0  0  0  0
  9 10  1  0  0  0  0
  9 34  1  0  0  0  0
 10 11  2  0  0  0  0
 10 35  1  0  0  0  0
 11 12  1  0  0  0  0
 11 36  1  0  0  0  0
 12 13  2  0  0  0  0
 12 37  1  0  0  0  0
 13 38  1  0  0  0  0
 14 15  1  0  0  0  0
 14 39  1  0  0  0  0
 15 16  2  0  0  0  0
 17 18  1  0  0  0  0
 17 40  1  0  0  0  0
 18 19  2  0  0  0  0
 18 30  1  0  0  0  0
 19 20  1  0  0  0  0
 19 21  1  0  0  0  0
 21 22  1  0  0  0  0
 21 28  2  0  0  0  0
 22 23  2  0  0  0  0
 22 27  1  0  0  0  0
 23 24  1  0  0  0  0
 23 41  1  0  0  0  0
 24 25  2  0  0  0  0
 24 42  1  0  0  0  0
 25 26  1  0  0  0  0
 26 27  2  0  0  0  0
 26 43  1  0  0  0  0
 27 44  1  0  0  0  0
 28 29  1  0  0  0  0
 28 45  1  0  0  0  0
 29 30  2  0  0  0  0
 29 46  1  0  0  0  0
 30 47  1  0  0  0  0
M  END
$$$$
