
 OpenBabel01122422493D

 45 48  0  0  0  0  0  0  0  0999 V2000
   -2.9962    0.3233    0.1619 N   0  0  0  0  0  0  0  0  0  0  0  0
   -1.8410    0.2515    0.1101 C   0  0  0  0  0  0  0  0  0  0  0  0
   -0.4092    0.1522    0.0542 C   0  0  0  0  0  0  0  0  0  0  0  0
    0.1944   -1.1123   -0.0158 C   0  0  0  0  0  0  0  0  0  0  0  0
    1.5885   -1.2484   -0.0445 C   0  0  0  0  0  0  0  0  0  0  0  0
    2.2613   -2.5689   -0.1020 C   0  0  0  0  0  0  0  0  0  0  0  0
    3.4960   -2.7354   -0.7515 C   0  0  0  0  0  0  0  0  0  0  0  0
    4.1159   -3.9761   -0.7471 C   0  0  0  0  0  0  0  0  0  0  0  0
    3.5946   -5.0694   -0.1597 N   0  0  0  0  0  0  0  0  0  0  0  0
    2.4061   -4.9088    0.4550 C   0  0  0  0  0  0  0  0  0  0  0  0
    1.7170   -3.7044    0.5119 C   0  0  0  0  0  0  0  0  0  0  0  0
    2.3476   -0.0616   -0.0040 C   0  0  0  0  0  0  0  0  0  0  0  0
    1.7726    1.2135    0.0422 C   0  0  0  0  0  0  0  0  0  0  0  0
    2.5400    2.3993    0.0571 N   0  0  0  0  0  0  0  0  0  0  0  0
    3.9244    2.5031    0.0230 C   0  0  0  0  0  0  0  0  0  0  0  0
    4.7216    1.5716   -0.0104 O   0  0  0  0  0  0  0  0  0  0  0  0
    4.4116    3.8917   -0.0144 C   0  0  0  0  0  0  0  0  0  0  0  0
    3.5938    4.9579    0.0677 N   0  0  0  0  0  0  0  0  0  0  0  0
    4.4037    6.0225   -0.2140 N   0  0  0  0  0  0  0  0  0  0  0  0
    3.8318    7.2990   -0.4526 C   0  0  0  0  0  0  0  0  0  0  0  0
    2.6592    7.6644    0.2241 C   0  0  0  0  0  0  0  0  0  0  0  0
    2.0823    8.9115   -0.0193 C   0  0  0  0  0  0  0  0  0  0  0  0
    2.6545    9.7638   -0.9585 C   0  0  0  0  0  0  0  0  0  0  0  0
    2.0811   10.9464   -1.2117 F   0  0  0  0  0  0  0  0  0  0  0  0
    3.8059    9.4026   -1.6495 C   0  0  0  0  0  0  0  0  0  0  0  0
    4.4050    8.1707   -1.3923 C   0  0  0  0  0  0  0  0  0  0  0  0
    5.7477    5.6508   -0.2783 C   0  0  0  0  0  0  0  0  0  0  0  0
    6.7939    6.5053   -0.4091 N   0  0  0  0  0  0  0  0  0  0  0  0
    5.7651    4.2855   -0.1540 C   0  0  0  0  0  0  0  0  0  0  0  0
    0.3822    1.3125    0.0747 C   0  0  0  0  0  0  0  0  0  0  0  0
   -0.4426   -1.9968   -0.0543 H   0  0  0  0  0  0  0  0  0  0  0  0
    3.9912   -1.9140   -1.2608 H   0  0  0  0  0  0  0  0  0  0  0  0
    5.0789   -4.1193   -1.2290 H   0  0  0  0  0  0  0  0  0  0  0  0
    2.0068   -5.8017    0.9268 H   0  0  0  0  0  0  0  0  0  0  0  0
    0.7784   -3.6673    1.0539 H   0  0  0  0  0  0  0  0  0  0  0  0
    3.4270   -0.1626    0.0056 H   0  0  0  0  0  0  0  0  0  0  0  0
    2.0588    3.2959    0.0668 H   0  0  0  0  0  0  0  0  0  0  0  0
    2.2110    7.0029    0.9630 H   0  0  0  0  0  0  0  0  0  0  0  0
    1.1888    9.2220    0.5129 H   0  0  0  0  0  0  0  0  0  0  0  0
    4.2191   10.0738   -2.3960 H   0  0  0  0  0  0  0  0  0  0  0  0
    5.2741    7.8810   -1.9787 H   0  0  0  0  0  0  0  0  0  0  0  0
    6.6879    7.4985   -0.2071 H   0  0  0  0  0  0  0  0  0  0  0  0
    7.7418    6.1780   -0.2302 H   0  0  0  0  0  0  0  0  0  0  0  0
    6.6292    3.6361   -0.1852 H   0  0  0  0  0  0  0  0  0  0  0  0
   -0.1039    2.2858    0.1210 H   0  0  0  0  0  0  0  0  0  0  0  0
  1  2  3  0  0  0  0
  2  3  1  0  0  0  0
  3  4  2  0  0  0  0
  3 30  1  0  0  0  0
  4  5  1  0  0  0  0
  4 31  1  0  0  0  0
  5  6  1  0  0  0  0
  5 12  2  0  0  0  0
  6  7  2  0  0  0  0
  6 11  1  0  0  0  0
  7  8  1  0  0  0  0
  7 32  1  0  0  0  0
  8  9  2  0  0  0  0
  8 33  1  0  0  0  0
  9 10  1  0  0  0  0
 10 11  2  0  0  0  0
 10 34  1  0  0  0  0
 11 35  1  0  0  0  0
 12 13  1  0  0  0  0
 12 36  1  0  0  0  0
 13 14  1  0  0  0  0
 13 30  2  0  0  0  0
 14 15  1  0  0  0  0
 14 37  1  0  0  0  0
 15 16  2  0  0  0  0
 15 17  1  0  0  0  0
 17 18  2  0  0  0  0
 17 29  1  0  0  0  0
 18 19  1  0  0  0  0
 19 20  1  0  0  0  0
 19 27  1  0  0  0  0
 20 21  2  0  0  0  0
 20 26  1  0  0  0  0
 21 22  1  0  0  0  0
 21 38  1  0  0  0  0
 22 23  2  0  0  0  0
 22 39  1  0  0  0  0
 23 24  1  0  0  0  0
 23 25  1  0  0  0  0
 25 26  2  0  0  0  0
 25 40  1  0  0  0  0
 26 41  1  0  0  0  0
 27 28  1  0  0  0  0
 27 29  2  0  0  0  0
 28 42  1  0  0  0  0
 28 43  1  0  0  0  0
 29 44  1  0  0  0  0
 30 45  1  0  0  0  0
M  END
$$$$
