
 OpenBabel01122422493D

 44 47  0  0  0  0  0  0  0  0999 V2000
    0.9973    0.0503   -0.0058 O   0  0  0  0  0  0  0  0  0  0  0  0
    2.2219    0.1172   -0.0379 C   0  0  0  0  0  0  0  0  0  0  0  0
    2.9761    0.5699    1.0150 N   0  0  0  0  0  0  0  0  0  0  0  0
    2.3264    1.1668    2.1615 C   0  0  0  0  0  0  0  0  0  0  0  0
    3.2801    1.7313    3.1948 C   0  0  0  0  0  0  0  0  0  0  0  0
    4.6058    1.6604    2.8392 N   0  0  0  0  0  0  0  0  0  0  0  0
    5.5227    2.1291    3.7062 C   0  0  0  0  0  0  0  0  0  0  0  0
    5.1962    2.6963    4.9171 C   0  0  0  0  0  0  0  0  0  0  0  0
    3.8481    2.7847    5.2599 C   0  0  0  0  0  0  0  0  0  0  0  0
    2.8291    2.2918    4.4158 C   0  0  0  0  0  0  0  0  0  0  0  0
    1.4052    2.3525    4.8772 C   0  0  0  0  0  0  0  0  0  0  0  0
    0.3195    2.5955    4.0138 C   0  0  0  0  0  0  0  0  0  0  0  0
   -1.0093    2.5549    4.4549 C   0  0  0  0  0  0  0  0  0  0  0  0
   -1.2792    2.3506    5.7958 C   0  0  0  0  0  0  0  0  0  0  0  0
   -2.5481    2.3258    6.2219 F   0  0  0  0  0  0  0  0  0  0  0  0
   -0.2442    2.1848    6.7000 C   0  0  0  0  0  0  0  0  0  0  0  0
    1.0801    2.1688    6.2414 C   0  0  0  0  0  0  0  0  0  0  0  0
    3.0176   -0.2474   -1.2496 C   0  0  0  0  0  0  0  0  0  0  0  0
    2.3402   -0.7010   -2.3141 C   0  0  0  0  0  0  0  0  0  0  0  0
    3.0782   -1.0584   -3.5345 C   0  0  0  0  0  0  0  0  0  0  0  0
    2.4975   -1.4671   -4.5305 O   0  0  0  0  0  0  0  0  0  0  0  0
    4.5361   -0.8999   -3.4828 C   0  0  0  0  0  0  0  0  0  0  0  0
    5.3303   -1.2343   -4.5855 C   0  0  0  0  0  0  0  0  0  0  0  0
    6.7170   -1.0880   -4.5077 C   0  0  0  0  0  0  0  0  0  0  0  0
    7.2909   -0.6078   -3.3299 C   0  0  0  0  0  0  0  0  0  0  0  0
    8.6368   -0.4562   -3.2105 O   0  0  0  0  0  0  0  0  0  0  0  0
    6.5021   -0.2687   -2.2326 C   0  0  0  0  0  0  0  0  0  0  0  0
    5.1198   -0.4201   -2.3112 C   0  0  0  0  0  0  0  0  0  0  0  0
    4.3906   -0.0811   -1.2003 O   0  0  0  0  0  0  0  0  0  0  0  0
    3.9766    0.7223    0.9277 H   0  0  0  0  0  0  0  0  0  0  0  0
    1.6713    0.4118    2.6067 H   0  0  0  0  0  0  0  0  0  0  0  0
    1.7363    1.9825    1.7405 H   0  0  0  0  0  0  0  0  0  0  0  0
    6.5579    2.0347    3.3907 H   0  0  0  0  0  0  0  0  0  0  0  0
    5.9680    3.0632    5.5849 H   0  0  0  0  0  0  0  0  0  0  0  0
    3.6028    3.2519    6.2118 H   0  0  0  0  0  0  0  0  0  0  0  0
    0.4646    2.8387    2.9680 H   0  0  0  0  0  0  0  0  0  0  0  0
   -1.8272    2.6904    3.7536 H   0  0  0  0  0  0  0  0  0  0  0  0
   -0.4692    2.0563    7.7539 H   0  0  0  0  0  0  0  0  0  0  0  0
    1.8600    2.0000    6.9815 H   0  0  0  0  0  0  0  0  0  0  0  0
    1.2637   -0.8117   -2.3379 H   0  0  0  0  0  0  0  0  0  0  0  0
    4.8703   -1.6090   -5.4983 H   0  0  0  0  0  0  0  0  0  0  0  0
    7.3273   -1.3520   -5.3653 H   0  0  0  0  0  0  0  0  0  0  0  0
    9.0643   -0.7562   -4.0291 H   0  0  0  0  0  0  0  0  0  0  0  0
    6.9670    0.1056   -1.3261 H   0  0  0  0  0  0  0  0  0  0  0  0
  1  2  2  0  0  0  0
  2  3  1  0  0  0  0
  2 18  1  0  0  0  0
  3  4  1  0  0  0  0
  3 30  1  0  0  0  0
  4  5  1  0  0  0  0
  4 31  1  0  0  0  0
  4 32  1  0  0  0  0
  5  6  2  0  0  0  0
  5 10  1  0  0  0  0
  6  7  1  0  0  0  0
  7  8  2  0  0  0  0
  7 33  1  0  0  0  0
  8  9  1  0  0  0  0
  8 34  1  0  0  0  0
  9 10  2  0  0  0  0
  9 35  1  0  0  0  0
 10 11  1  0  0  0  0
 11 12  2  0  0  0  0
 11 17  1  0  0  0  0
 12 13  1  0  0  0  0
 12 36  1  0  0  0  0
 13 14  2  0  0  0  0
 13 37  1  0  0  0  0
 14 15  1  0  0  0  0
 14 16  1  0  0  0  0
 16 17  2  0  0  0  0
 16 38  1  0  0  0  0
 17 39  1  0  0  0  0
 18 19  2  0  0  0  0
 18 29  1  0  0  0  0
 19 20  1  0  0  0  0
 19 40  1  0  0  0  0
 20 21  2  0  0  0  0
 20 22  1  0  0  0  0
 22 23  2  0  0  0  0
 22 28  1  0  0  0  0
 23 24  1  0  0  0  0
 23 41  1  0  0  0  0
 24 25  2  0  0  0  0
 24 42  1  0  0  0  0
 25 26  1  0  0  0  0
 25 27  1  0  0  0  0
 26 43  1  0  0  0  0
 27 28  2  0  0  0  0
 27 44  1  0  0  0  0
 28 29  1  0  0  0  0
M  END
$$$$
