
 OpenBabel01122422493D

 46 49  0  0  0  0  0  0  0  0999 V2000
    1.3744   -0.0188    0.9055 O   0  0  0  0  0  0  0  0  0  0  0  0
    2.5449   -0.0602    0.5187 C   0  0  0  0  0  0  0  0  0  0  0  0
    3.3873    1.1597    0.7528 C   0  0  0  0  0  0  0  0  0  0  0  0
    4.3021    1.4803   -0.1909 N   0  0  0  0  0  0  0  0  0  0  0  0
    5.1868    2.4314    0.1522 C   0  0  0  0  0  0  0  0  0  0  0  0
    6.3357    2.6594   -0.7521 C   0  0  0  0  0  0  0  0  0  0  0  0
    6.4616    1.9567   -1.9694 C   0  0  0  0  0  0  0  0  0  0  0  0
    7.5730    2.1357   -2.8007 C   0  0  0  0  0  0  0  0  0  0  0  0
    8.5733    3.0221   -2.4288 C   0  0  0  0  0  0  0  0  0  0  0  0
    9.6394    3.1888   -3.2209 F   0  0  0  0  0  0  0  0  0  0  0  0
    8.4834    3.7346   -1.2429 C   0  0  0  0  0  0  0  0  0  0  0  0
    7.3726    3.5544   -0.4127 C   0  0  0  0  0  0  0  0  0  0  0  0
    5.1564    3.1155    1.3155 N   0  0  0  0  0  0  0  0  0  0  0  0
    4.1800    2.8028    2.1857 C   0  0  0  0  0  0  0  0  0  0  0  0
    3.2541    1.8198    1.9566 C   0  0  0  0  0  0  0  0  0  0  0  0
    3.1141   -1.1903   -0.1061 N   0  0  0  0  0  0  0  0  0  0  0  0
    2.2733   -2.3891   -0.2277 C   0  0  0  0  0  0  0  0  0  0  0  0
    1.4360   -2.5420   -1.4835 C   0  0  0  0  0  0  0  0  0  0  0  0
    1.6932   -3.5930   -2.3796 C   0  0  0  0  0  0  0  0  0  0  0  0
    0.7870   -3.9025   -3.3984 C   0  0  0  0  0  0  0  0  0  0  0  0
   -0.3831   -3.1616   -3.5412 C   0  0  0  0  0  0  0  0  0  0  0  0
   -0.6248   -2.0836   -2.6935 C   0  0  0  0  0  0  0  0  0  0  0  0
    0.2831   -1.7692   -1.6772 C   0  0  0  0  0  0  0  0  0  0  0  0
    4.5178   -1.4413    0.0102 C   0  0  0  0  0  0  0  0  0  0  0  0
    5.1771   -0.9246    1.0702 N   0  0  0  0  0  0  0  0  0  0  0  0
    6.4831   -1.2031    1.1790 C   0  0  0  0  0  0  0  0  0  0  0  0
    7.1808   -2.0013    0.3686 N   0  0  0  0  0  0  0  0  0  0  0  0
    6.4739   -2.4986   -0.6459 C   0  0  0  0  0  0  0  0  0  0  0  0
    7.1763   -3.3408   -1.4456 O   0  0  0  0  0  0  0  0  0  0  0  0
    5.1504   -2.2544   -0.9024 C   0  0  0  0  0  0  0  0  0  0  0  0
    5.6941    1.2489   -2.2728 H   0  0  0  0  0  0  0  0  0  0  0  0
    7.6606    1.5837   -3.7312 H   0  0  0  0  0  0  0  0  0  0  0  0
    9.2765    4.4204   -0.9627 H   0  0  0  0  0  0  0  0  0  0  0  0
    7.3233    4.1142    0.5203 H   0  0  0  0  0  0  0  0  0  0  0  0
    4.1905    3.3604    3.1178 H   0  0  0  0  0  0  0  0  0  0  0  0
    2.5094    1.5429    2.6903 H   0  0  0  0  0  0  0  0  0  0  0  0
    1.5892   -2.4267    0.6326 H   0  0  0  0  0  0  0  0  0  0  0  0
    2.8921   -3.2885   -0.1089 H   0  0  0  0  0  0  0  0  0  0  0  0
    2.5731   -4.2216   -2.2625 H   0  0  0  0  0  0  0  0  0  0  0  0
    0.9752   -4.7465   -4.0577 H   0  0  0  0  0  0  0  0  0  0  0  0
   -1.1118   -3.4319   -4.3011 H   0  0  0  0  0  0  0  0  0  0  0  0
   -1.5407   -1.5072   -2.7969 H   0  0  0  0  0  0  0  0  0  0  0  0
    0.0461   -0.9510   -1.0001 H   0  0  0  0  0  0  0  0  0  0  0  0
    7.0146   -0.7399    2.0035 H   0  0  0  0  0  0  0  0  0  0  0  0
    8.0351   -3.3443   -0.9844 H   0  0  0  0  0  0  0  0  0  0  0  0
    4.6596   -2.6741   -1.7670 H   0  0  0  0  0  0  0  0  0  0  0  0
  1  2  2  0  0  0  0
  2  3  1  0  0  0  0
  2 16  1  0  0  0  0
  3  4  2  0  0  0  0
  3 15  1  0  0  0  0
  4  5  1  0  0  0  0
  5  6  1  0  0  0  0
  5 13  2  0  0  0  0
  6  7  2  0  0  0  0
  6 12  1  0  0  0  0
  7  8  1  0  0  0  0
  7 31  1  0  0  0  0
  8  9  2  0  0  0  0
  8 32  1  0  0  0  0
  9 10  1  0  0  0  0
  9 11  1  0  0  0  0
 11 12  2  0  0  0  0
 11 33  1  0  0  0  0
 12 34  1  0  0  0  0
 13 14  1  0  0  0  0
 14 15  2  0  0  0  0
 14 35  1  0  0  0  0
 15 36  1  0  0  0  0
 16 17  1  0  0  0  0
 16 24  1  0  0  0  0
 17 18  1  0  0  0  0
 17 37  1  0  0  0  0
 17 38  1  0  0  0  0
 18 19  2  0  0  0  0
 18 23  1  0  0  0  0
 19 20  1  0  0  0  0
 19 39  1  0  0  0  0
 20 21  2  0  0  0  0
 20 40  1  0  0  0  0
 21 22  1  0  0  0  0
 21 41  1  0  0  0  0
 22 23  2  0  0  0  0
 22 42  1  0  0  0  0
 23 43  1  0  0  0  0
 24 25  2  0  0  0  0
 24 30  1  0  0  0  0
 25 26  1  0  0  0  0
 26 27  2  0  0  0  0
 26 44  1  0  0  0  0
 27 28  1  0  0  0  0
 28 29  1  0  0  0  0
 28 30  2  0  0  0  0
 29 45  1  0  0  0  0
 30 46  1  0  0  0  0
M  END
$$$$
