
 OpenBabel01122422493D

 42 45  0  0  0  0  0  0  0  0999 V2000
    1.0225   -0.0108    0.1680 O   0  0  0  0  0  0  0  0  0  0  0  0
    2.2322    0.0376   -0.0035 C   0  0  0  0  0  0  0  0  0  0  0  0
    2.8950    0.8146   -0.9401 N   0  0  0  0  0  0  0  0  0  0  0  0
    2.2590    1.7143   -1.8188 C   0  0  0  0  0  0  0  0  0  0  0  0
    0.9544    2.1584   -1.6002 C   0  0  0  0  0  0  0  0  0  0  0  0
    0.3020    2.9537   -2.5353 C   0  0  0  0  0  0  0  0  0  0  0  0
    0.9795    3.3997   -3.6669 C   0  0  0  0  0  0  0  0  0  0  0  0
    0.4130    4.2000   -4.6342 O   0  0  0  0  0  0  0  0  0  0  0  0
   -0.5357    5.1263   -4.2740 C   0  0  0  0  0  0  0  0  0  0  0  0
   -0.5763    5.7897   -3.0482 C   0  0  0  0  0  0  0  0  0  0  0  0
   -1.6134    6.6753   -2.7755 C   0  0  0  0  0  0  0  0  0  0  0  0
   -2.5430    6.9205   -3.7711 C   0  0  0  0  0  0  0  0  0  0  0  0
   -2.5031    6.3458   -4.9932 N   0  0  0  0  0  0  0  0  0  0  0  0
   -1.4994    5.4615   -5.2164 C   0  0  0  0  0  0  0  0  0  0  0  0
    2.2965    2.9874   -3.8825 C   0  0  0  0  0  0  0  0  0  0  0  0
    2.9418    2.1559   -2.9559 C   0  0  0  0  0  0  0  0  0  0  0  0
    3.0991   -0.8191    0.7794 C   0  0  0  0  0  0  0  0  0  0  0  0
    2.6626   -1.7772    1.6646 C   0  0  0  0  0  0  0  0  0  0  0  0
    3.7968   -2.3621    2.1591 N   0  0  0  0  0  0  0  0  0  0  0  0
    3.9073   -3.4675    3.0268 C   0  0  0  0  0  0  0  0  0  0  0  0
    2.7799   -4.1971    3.4215 C   0  0  0  0  0  0  0  0  0  0  0  0
    1.5399   -3.8580    3.0455 F   0  0  0  0  0  0  0  0  0  0  0  0
    2.9014   -5.3376    4.2139 C   0  0  0  0  0  0  0  0  0  0  0  0
    4.1572   -5.7637    4.6322 C   0  0  0  0  0  0  0  0  0  0  0  0
    5.2865   -5.0320    4.2763 C   0  0  0  0  0  0  0  0  0  0  0  0
    5.1591   -3.8918    3.4816 C   0  0  0  0  0  0  0  0  0  0  0  0
    6.2837   -3.2242    3.1889 F   0  0  0  0  0  0  0  0  0  0  0  0
    4.8781   -1.7321    1.6248 N   0  0  0  0  0  0  0  0  0  0  0  0
    4.4614   -0.8103    0.7642 N   0  0  0  0  0  0  0  0  0  0  0  0
    3.8806    0.6174   -1.0795 H   0  0  0  0  0  0  0  0  0  0  0  0
    0.4029    1.9057   -0.7000 H   0  0  0  0  0  0  0  0  0  0  0  0
   -0.7332    3.2200   -2.3411 H   0  0  0  0  0  0  0  0  0  0  0  0
    0.1745    5.6088   -2.2852 H   0  0  0  0  0  0  0  0  0  0  0  0
   -1.6900    7.1564   -1.8071 H   0  0  0  0  0  0  0  0  0  0  0  0
   -3.3660    7.6102   -3.6062 H   0  0  0  0  0  0  0  0  0  0  0  0
   -1.4955    5.0133   -6.2059 H   0  0  0  0  0  0  0  0  0  0  0  0
    2.8196    3.3035   -4.7817 H   0  0  0  0  0  0  0  0  0  0  0  0
    3.9608    1.8360   -3.1582 H   0  0  0  0  0  0  0  0  0  0  0  0
    1.6572   -2.0594    1.9328 H   0  0  0  0  0  0  0  0  0  0  0  0
    2.0093   -5.8934    4.4922 H   0  0  0  0  0  0  0  0  0  0  0  0
    4.2556   -6.6624    5.2379 H   0  0  0  0  0  0  0  0  0  0  0  0
    6.2741   -5.3426    4.6067 H   0  0  0  0  0  0  0  0  0  0  0  0
  1  2  2  0  0  0  0
  2  3  1  0  0  0  0
  2 17  1  0  0  0  0
  3  4  1  0  0  0  0
  3 30  1  0  0  0  0
  4  5  2  0  0  0  0
  4 16  1  0  0  0  0
  5  6  1  0  0  0  0
  5 31  1  0  0  0  0
  6  7  2  0  0  0  0
  6 32  1  0  0  0  0
  7  8  1  0  0  0  0
  7 15  1  0  0  0  0
  8  9  1  0  0  0  0
  9 10  2  0  0  0  0
  9 14  1  0  0  0  0
 10 11  1  0  0  0  0
 10 33  1  0  0  0  0
 11 12  2  0  0  0  0
 11 34  1  0  0  0  0
 12 13  1  0  0  0  0
 12 35  1  0  0  0  0
 13 14  2  0  0  0  0
 14 36  1  0  0  0  0
 15 16  2  0  0  0  0
 15 37  1  0  0  0  0
 16 38  1  0  0  0  0
 17 18  2  0  0  0  0
 17 29  1  0  0  0  0
 18 19  1  0  0  0  0
 18 39  1  0  0  0  0
 19 20  1  0  0  0  0
 19 28  1  0  0  0  0
 20 21  2  0  0  0  0
 20 26  1  0  0  0  0
 21 22  1  0  0  0  0
 21 23  1  0  0  0  0
 23 24  2  0  0  0  0
 23 40  1  0  0  0  0
 24 25  1  0  0  0  0
 24 41  1  0  0  0  0
 25 26  2  0  0  0  0
 25 42  1  0  0  0  0
 26 27  1  0  0  0  0
 28 29  2  0  0  0  0
M  END
$$$$
