
 OpenBabel01122422493D

 45 48  0  0  1  0  0  0  0  0999 V2000
    1.1224    1.2143   -0.4032 O   0  0  0  0  0  0  0  0  0  0  0  0
    2.2753    0.8116   -0.2375 C   0  0  0  0  0  0  0  0  0  0  0  0
    2.9129   -0.1452   -1.0671 N   0  0  0  0  0  0  0  0  0  0  0  0
    2.2660   -0.7434   -2.2114 C   0  0  0  0  0  0  0  0  0  0  0  0
    1.1574   -0.0689   -2.7356 C   0  0  0  0  0  0  0  0  0  0  0  0
    0.4801   -0.5184   -3.8678 C   0  0  0  0  0  0  0  0  0  0  0  0
    0.9120   -1.6508   -4.5412 C   0  0  0  0  0  0  0  0  0  0  0  0
    2.0193   -2.3389   -4.0642 C   0  0  0  0  0  0  0  0  0  0  0  0
    2.6759   -1.9477   -2.8622 C   0  0  0  0  0  0  0  0  0  0  0  0
    3.6063   -3.0116   -2.2842 C   0  0  3  0  0  0  0  0  0  0  0  0
    3.0962   -4.3104   -2.6368 O   0  0  0  0  0  0  0  0  0  0  0  0
    5.0783   -2.8712   -2.6201 C   0  0  0  0  0  0  0  0  0  0  0  0
    5.8519   -4.0258   -2.7095 C   0  0  0  0  0  0  0  0  0  0  0  0
    7.2231   -3.8968   -2.8390 C   0  0  0  0  0  0  0  0  0  0  0  0
    7.7983   -2.6334   -2.8628 C   0  0  0  0  0  0  0  0  0  0  0  0
    6.9611   -1.5362   -2.8120 C   0  0  0  0  0  0  0  0  0  0  0  0
    5.6225   -1.6250   -2.6600 N   0  0  0  0  0  0  0  0  0  0  0  0
    2.9968    1.2606    1.0271 C   0  0  0  0  0  0  0  0  0  0  0  0
    4.4231    1.4378    1.0846 C   0  0  0  0  0  0  0  0  0  0  0  0
    5.0412    2.0423    2.2051 C   0  0  0  0  0  0  0  0  0  0  0  0
    4.2343    2.2488    3.3282 C   0  0  0  0  0  0  0  0  0  0  0  0
    4.9157    2.4280    4.5478 N   0  0  0  0  0  0  0  0  0  0  0  0
    6.2748    2.2414    4.4269 C   0  0  0  0  0  0  0  0  0  0  0  0
    6.8825    1.2086    4.6977 O   0  0  0  0  0  0  0  0  0  0  0  0
    6.8981    3.2654    3.4683 C   0  0  0  0  0  0  0  0  0  0  0  0
    6.4262    2.6710    2.3529 C   0  0  0  0  0  0  0  0  0  0  0  0
    2.8500    2.1662    3.2562 C   0  0  0  0  0  0  0  0  0  0  0  0
    2.1073    2.6099    4.2772 F   0  0  0  0  0  0  0  0  0  0  0  0
    2.2210    1.6527    2.1272 C   0  0  0  0  0  0  0  0  0  0  0  0
    3.6765   -0.6731   -0.6621 H   0  0  0  0  0  0  0  0  0  0  0  0
    0.8077    0.8411   -2.2599 H   0  0  0  0  0  0  0  0  0  0  0  0
   -0.3798    0.0377   -4.2273 H   0  0  0  0  0  0  0  0  0  0  0  0
    0.3714   -2.0066   -5.4150 H   0  0  0  0  0  0  0  0  0  0  0  0
    2.3439   -3.2299   -4.6071 H   0  0  0  0  0  0  0  0  0  0  0  0
    3.5531   -2.9626   -1.1923 H   0  0  0  0  0  0  0  0  0  0  0  0
    3.2522   -4.3942   -3.5913 H   0  0  0  0  0  0  0  0  0  0  0  0
    5.4228   -5.0063   -2.5008 H   0  0  0  0  0  0  0  0  0  0  0  0
    7.8301   -4.7933   -2.8066 H   0  0  0  0  0  0  0  0  0  0  0  0
    8.8748   -2.5090   -2.8711 H   0  0  0  0  0  0  0  0  0  0  0  0
    7.3603   -0.5289   -2.8759 H   0  0  0  0  0  0  0  0  0  0  0  0
    5.0181    1.1749    0.2112 H   0  0  0  0  0  0  0  0  0  0  0  0
    4.5340    3.1074    5.1913 H   0  0  0  0  0  0  0  0  0  0  0  0
    7.2361    3.7298    4.3933 H   0  0  0  0  0  0  0  0  0  0  0  0
    7.0766    2.7167    1.4869 H   0  0  0  0  0  0  0  0  0  0  0  0
    1.1415    1.5437    2.1290 H   0  0  0  0  0  0  0  0  0  0  0  0
  1  2  2  0  0  0  0
  2  3  1  0  0  0  0
  2 18  1  0  0  0  0
  3  4  1  0  0  0  0
  3 30  1  0  0  0  0
  4  5  2  0  0  0  0
  4  9  1  0  0  0  0
  5  6  1  0  0  0  0
  5 31  1  0  0  0  0
  6  7  2  0  0  0  0
  6 32  1  0  0  0  0
  7  8  1  0  0  0  0
  7 33  1  0  0  0  0
  8  9  2  0  0  0  0
  8 34  1  0  0  0  0
  9 10  1  0  0  0  0
 10 11  1  0  0  0  0
 10 12  1  0  0  0  0
 10 35  1  0  0  0  0
 11 36  1  0  0  0  0
 12 13  2  0  0  0  0
 12 17  1  0  0  0  0
 13 14  1  0  0  0  0
 13 37  1  0  0  0  0
 14 15  2  0  0  0  0
 14 38  1  0  0  0  0
 15 16  1  0  0  0  0
 15 39  1  0  0  0  0
 16 17  2  0  0  0  0
 16 40  1  0  0  0  0
 18 19  2  0  0  0  0
 18 29  1  0  0  0  0
 19 20  1  0  0  0  0
 19 41  1  0  0  0  0
 20 21  2  0  0  0  0
 20 26  1  0  0  0  0
 21 22  1  0  0  0  0
 21 27  1  0  0  0  0
 22 23  1  0  0  0  0
 22 42  1  0  0  0  0
 23 24  2  0  0  0  0
 23 25  1  0  0  0  0
 25 26  2  0  0  0  0
 25 43  1  0  0  0  0
 26 44  1  0  0  0  0
 27 28  1  0  0  0  0
 27 29  2  0  0  0  0
 29 45  1  0  0  0  0
M  END
$$$$
