
 OpenBabel01122422493D

 45 48  0  0  0  0  0  0  0  0999 V2000
    2.7255   -1.5270    1.2625 O   0  0  0  0  0  0  0  0  0  0  0  0
    2.2005   -1.0794    0.2503 C   0  0  0  0  0  0  0  0  0  0  0  0
    0.6960   -0.8908    0.0828 C   0  0  0  0  0  0  0  0  0  0  0  0
   -0.0046   -2.1302   -0.2466 N   0  0  0  0  0  0  0  0  0  0  0  0
   -0.2504   -2.3814   -1.5910 C   0  0  0  0  0  0  0  0  0  0  0  0
    0.0483   -1.6558   -2.5278 O   0  0  0  0  0  0  0  0  0  0  0  0
   -0.9697   -3.6652   -1.9128 C   0  0  0  0  0  0  0  0  0  0  0  0
   -1.3010   -4.5550   -1.0352 N   0  0  0  0  0  0  0  0  0  0  0  0
   -0.9647   -4.3014    0.3039 C   0  0  0  0  0  0  0  0  0  0  0  0
   -1.2526   -5.3066    1.2341 C   0  0  0  0  0  0  0  0  0  0  0  0
   -0.9388   -5.1430    2.5813 C   0  0  0  0  0  0  0  0  0  0  0  0
   -0.3682   -3.9505    3.0130 C   0  0  0  0  0  0  0  0  0  0  0  0
   -0.0840   -2.9312    2.0978 C   0  0  0  0  0  0  0  0  0  0  0  0
   -0.3502   -3.1032    0.7321 C   0  0  0  0  0  0  0  0  0  0  0  0
    2.8669   -0.7229   -0.8760 O   0  0  0  0  0  0  0  0  0  0  0  0
    4.3005   -0.8687   -0.8626 C   0  0  0  0  0  0  0  0  0  0  0  0
    4.7508   -1.8731   -1.8616 C   0  0  0  0  0  0  0  0  0  0  0  0
    5.0312   -3.2089   -1.6898 C   0  0  0  0  0  0  0  0  0  0  0  0
    5.3304   -3.7429   -2.9064 O   0  0  0  0  0  0  0  0  0  0  0  0
    5.2158   -2.6882   -3.7753 C   0  0  0  0  0  0  0  0  0  0  0  0
    5.3463   -2.9788   -5.2008 C   0  0  0  0  0  0  0  0  0  0  0  0
    5.2673   -1.9247   -6.1258 C   0  0  0  0  0  0  0  0  0  0  0  0
    5.2782   -2.1640   -7.5101 C   0  0  0  0  0  0  0  0  0  0  0  0
    5.1379   -1.0295   -8.4950 C   0  0  0  0  0  0  0  0  0  0  0  0
    5.0027    0.1924   -7.9093 F   0  0  0  0  0  0  0  0  0  0  0  0
    6.2111   -0.9267   -9.3273 F   0  0  0  0  0  0  0  0  0  0  0  0
    4.0520   -1.1767   -9.3040 F   0  0  0  0  0  0  0  0  0  0  0  0
    5.3924   -3.4849   -7.9669 C   0  0  0  0  0  0  0  0  0  0  0  0
    5.4957   -4.5398   -7.0604 C   0  0  0  0  0  0  0  0  0  0  0  0
    5.4734   -4.2877   -5.6865 C   0  0  0  0  0  0  0  0  0  0  0  0
    4.9172   -1.5433   -3.1903 N   0  0  0  0  0  0  0  0  0  0  0  0
    0.5271   -0.1395   -0.7003 H   0  0  0  0  0  0  0  0  0  0  0  0
    0.2848   -0.4439    0.9919 H   0  0  0  0  0  0  0  0  0  0  0  0
   -1.2062   -3.8087   -2.9792 H   0  0  0  0  0  0  0  0  0  0  0  0
   -1.7120   -6.2316    0.8945 H   0  0  0  0  0  0  0  0  0  0  0  0
   -1.1385   -5.9437    3.2878 H   0  0  0  0  0  0  0  0  0  0  0  0
   -0.1269   -3.8152    4.0651 H   0  0  0  0  0  0  0  0  0  0  0  0
    0.3664   -2.0258    2.4888 H   0  0  0  0  0  0  0  0  0  0  0  0
    4.6932   -1.1181    0.1292 H   0  0  0  0  0  0  0  0  0  0  0  0
    4.7157    0.1104   -1.1266 H   0  0  0  0  0  0  0  0  0  0  0  0
    5.0349   -3.8892   -0.8506 H   0  0  0  0  0  0  0  0  0  0  0  0
    5.1683   -0.9022   -5.7576 H   0  0  0  0  0  0  0  0  0  0  0  0
    5.3888   -3.6963   -9.0356 H   0  0  0  0  0  0  0  0  0  0  0  0
    5.5736   -5.5627   -7.4220 H   0  0  0  0  0  0  0  0  0  0  0  0
    5.5295   -5.1284   -4.9976 H   0  0  0  0  0  0  0  0  0  0  0  0
  1  2  2  0  0  0  0
  2  3  1  0  0  0  0
  2 15  1  0  0  0  0
  3  4  1  0  0  0  0
  3 32  1  0  0  0  0
  3 33  1  0  0  0  0
  4  5  1  0  0  0  0
  4 14  1  0  0  0  0
  5  6  2  0  0  0  0
  5  7  1  0  0  0  0
  7  8  2  0  0  0  0
  7 34  1  0  0  0  0
  8  9  1  0  0  0  0
  9 10  2  0  0  0  0
  9 14  1  0  0  0  0
 10 11  1  0  0  0  0
 10 35  1  0  0  0  0
 11 12  2  0  0  0  0
 11 36  1  0  0  0  0
 12 13  1  0  0  0  0
 12 37  1  0  0  0  0
 13 14  2  0  0  0  0
 13 38  1  0  0  0  0
 15 16  1  0  0  0  0
 16 17  1  0  0  0  0
 16 39  1  0  0  0  0
 16 40  1  0  0  0  0
 17 18  2  0  0  0  0
 17 31  1  0  0  0  0
 18 19  1  0  0  0  0
 18 41  1  0  0  0  0
 19 20  1  0  0  0  0
 20 21  1  0  0  0  0
 20 31  2  0  0  0  0
 21 22  2  0  0  0  0
 21 30  1  0  0  0  0
 22 23  1  0  0  0  0
 22 42  1  0  0  0  0
 23 24  1  0  0  0  0
 23 28  2  0  0  0  0
 24 25  1  0  0  0  0
 24 26  1  0  0  0  0
 24 27  1  0  0  0  0
 28 29  1  0  0  0  0
 28 43  1  0  0  0  0
 29 30  2  0  0  0  0
 29 44  1  0  0  0  0
 30 45  1  0  0  0  0
M  END
$$$$
