
 OpenBabel01122422493D

 50 53  0  0  0  0  0  0  0  0999 V2000
   -1.3986   -1.3527    4.4795 C   0  0  0  0  0  0  0  0  0  0  0  0
   -0.4278   -1.3989    3.3977 N   0  0  0  0  0  0  0  0  0  0  0  0
   -0.5859   -2.3115    2.3762 C   0  0  0  0  0  0  0  0  0  0  0  0
    0.2358   -2.3920    1.3138 C   0  0  0  0  0  0  0  0  0  0  0  0
    0.0986   -3.4300    0.2178 C   0  0  0  0  0  0  0  0  0  0  0  0
   -1.1043   -4.3520    0.3503 C   0  0  0  0  0  0  0  0  0  0  0  0
   -2.2587   -3.9256    0.2723 O   0  0  0  0  0  0  0  0  0  0  0  0
   -0.8332   -5.6852    0.5719 N   0  0  0  0  0  0  0  0  0  0  0  0
   -1.9553   -6.5946    0.5730 C   0  0  0  0  0  0  0  0  0  0  0  0
   -1.6388   -8.0716    0.6638 C   0  0  0  0  0  0  0  0  0  0  0  0
   -0.3077   -8.3954    0.5846 N   0  0  0  0  0  0  0  0  0  0  0  0
    0.0263   -9.6982    0.6872 C   0  0  0  0  0  0  0  0  0  0  0  0
   -0.8940  -10.7099    0.8653 C   0  0  0  0  0  0  0  0  0  0  0  0
   -2.2451  -10.3713    0.9178 C   0  0  0  0  0  0  0  0  0  0  0  0
   -2.6736   -9.0329    0.8113 C   0  0  0  0  0  0  0  0  0  0  0  0
   -4.1346   -8.7156    0.8968 C   0  0  0  0  0  0  0  0  0  0  0  0
   -4.9800   -9.4097    1.7897 C   0  0  0  0  0  0  0  0  0  0  0  0
   -6.3397   -9.0919    1.9184 C   0  0  0  0  0  0  0  0  0  0  0  0
   -6.8743   -8.0473    1.1816 C   0  0  0  0  0  0  0  0  0  0  0  0
   -8.1613   -7.7122    1.3344 F   0  0  0  0  0  0  0  0  0  0  0  0
   -6.0897   -7.3575    0.2762 C   0  0  0  0  0  0  0  0  0  0  0  0
   -4.7504   -7.7249    0.1054 C   0  0  0  0  0  0  0  0  0  0  0  0
    1.3401   -1.4032    1.2231 C   0  0  0  0  0  0  0  0  0  0  0  0
    2.1918   -1.3147    0.1087 C   0  0  0  0  0  0  0  0  0  0  0  0
    3.2349   -0.3821    0.0674 C   0  0  0  0  0  0  0  0  0  0  0  0
    3.4540    0.4735    1.1426 C   0  0  0  0  0  0  0  0  0  0  0  0
    2.6123    0.4162    2.2491 C   0  0  0  0  0  0  0  0  0  0  0  0
    1.5545   -0.5044    2.2813 C   0  0  0  0  0  0  0  0  0  0  0  0
    0.6280   -0.4931    3.4417 C   0  0  0  0  0  0  0  0  0  0  0  0
    0.8047    0.3007    4.3647 O   0  0  0  0  0  0  0  0  0  0  0  0
   -2.1494   -2.1433    4.3877 H   0  0  0  0  0  0  0  0  0  0  0  0
   -1.8980   -0.3784    4.4600 H   0  0  0  0  0  0  0  0  0  0  0  0
   -0.8782   -1.4599    5.4363 H   0  0  0  0  0  0  0  0  0  0  0  0
   -1.4337   -2.9824    2.4896 H   0  0  0  0  0  0  0  0  0  0  0  0
    1.0106   -4.0358    0.1639 H   0  0  0  0  0  0  0  0  0  0  0  0
   -0.0261   -2.9339   -0.7535 H   0  0  0  0  0  0  0  0  0  0  0  0
    0.0945   -6.0874    0.4695 H   0  0  0  0  0  0  0  0  0  0  0  0
   -2.4509   -6.4069   -0.3817 H   0  0  0  0  0  0  0  0  0  0  0  0
   -2.6074   -6.3015    1.4036 H   0  0  0  0  0  0  0  0  0  0  0  0
    1.0900   -9.9158    0.6260 H   0  0  0  0  0  0  0  0  0  0  0  0
   -0.5745  -11.7424    0.9595 H   0  0  0  0  0  0  0  0  0  0  0  0
   -2.9665  -11.1776    1.0402 H   0  0  0  0  0  0  0  0  0  0  0  0
   -4.5908  -10.2120    2.4135 H   0  0  0  0  0  0  0  0  0  0  0  0
   -6.9780   -9.6457    2.5993 H   0  0  0  0  0  0  0  0  0  0  0  0
   -6.5159   -6.5422   -0.3007 H   0  0  0  0  0  0  0  0  0  0  0  0
   -4.2103   -7.2062   -0.6789 H   0  0  0  0  0  0  0  0  0  0  0  0
    2.0582   -1.9547   -0.7592 H   0  0  0  0  0  0  0  0  0  0  0  0
    3.8756   -0.3241   -0.8095 H   0  0  0  0  0  0  0  0  0  0  0  0
    4.2684    1.1929    1.1149 H   0  0  0  0  0  0  0  0  0  0  0  0
    2.7711    1.0951    3.0845 H   0  0  0  0  0  0  0  0  0  0  0  0
  1  2  1  0  0  0  0
  1 31  1  0  0  0  0
  1 32  1  0  0  0  0
  1 33  1  0  0  0  0
  2  3  1  0  0  0  0
  2 29  1  0  0  0  0
  3  4  2  0  0  0  0
  3 34  1  0  0  0  0
  4  5  1  0  0  0  0
  4 23  1  0  0  0  0
  5  6  1  0  0  0  0
  5 35  1  0  0  0  0
  5 36  1  0  0  0  0
  6  7  2  0  0  0  0
  6  8  1  0  0  0  0
  8  9  1  0  0  0  0
  8 37  1  0  0  0  0
  9 10  1  0  0  0  0
  9 38  1  0  0  0  0
  9 39  1  0  0  0  0
 10 11  2  0  0  0  0
 10 15  1  0  0  0  0
 11 12  1  0  0  0  0
 12 13  2  0  0  0  0
 12 40  1  0  0  0  0
 13 14  1  0  0  0  0
 13 41  1  0  0  0  0
 14 15  2  0  0  0  0
 14 42  1  0  0  0  0
 15 16  1  0  0  0  0
 16 17  2  0  0  0  0
 16 22  1  0  0  0  0
 17 18  1  0  0  0  0
 17 43  1  0  0  0  0
 18 19  2  0  0  0  0
 18 44  1  0  0  0  0
 19 20  1  0  0  0  0
 19 21  1  0  0  0  0
 21 22  2  0  0  0  0
 21 45  1  0  0  0  0
 22 46  1  0  0  0  0
 23 24  2  0  0  0  0
 23 28  1  0  0  0  0
 24 25  1  0  0  0  0
 24 47  1  0  0  0  0
 25 26  2  0  0  0  0
 25 48  1  0  0  0  0
 26 27  1  0  0  0  0
 26 49  1  0  0  0  0
 27 28  2  0  0  0  0
 27 50  1  0  0  0  0
 28 29  1  0  0  0  0
 29 30  2  0  0  0  0
M  END
$$$$
