
 OpenBabel01122422493D

 45 48  0  0  1  0  0  0  0  0999 V2000
    0.9855    0.0289   -0.8605 O   0  0  0  0  0  0  0  0  0  0  0  0
    2.1614    0.0291   -0.5229 C   0  0  0  0  0  0  0  0  0  0  0  0
    2.8572    1.1519   -0.1407 N   0  0  0  0  0  0  0  0  0  0  0  0
    2.1953    2.4274   -0.0039 C   0  0  3  0  0  0  0  0  0  0  0  0
    1.6837    2.6473    1.4102 C   0  0  0  0  0  0  0  0  0  0  0  0
    2.5361    2.6986    2.5279 C   0  0  0  0  0  0  0  0  0  0  0  0
    2.0223    2.8613    3.8173 C   0  0  0  0  0  0  0  0  0  0  0  0
    0.6480    2.9601    4.0156 C   0  0  0  0  0  0  0  0  0  0  0  0
   -0.2150    2.8949    2.9251 C   0  0  0  0  0  0  0  0  0  0  0  0
    0.2973    2.7380    1.6344 C   0  0  0  0  0  0  0  0  0  0  0  0
    3.1550    3.5365   -0.3237 C   0  0  0  0  0  0  0  0  0  0  0  0
    2.8320    4.7552   -0.8959 C   0  0  0  0  0  0  0  0  0  0  0  0
    3.9397    5.5093   -1.1076 O   0  0  0  0  0  0  0  0  0  0  0  0
    4.9991    4.7862   -0.6714 C   0  0  0  0  0  0  0  0  0  0  0  0
    4.5790    3.5758   -0.1751 C   0  0  0  0  0  0  0  0  0  0  0  0
    2.9574   -1.2748   -0.5151 C   0  0  0  0  0  0  0  0  0  0  0  0
    2.5679   -2.2024   -1.3457 N   0  0  0  0  0  0  0  0  0  0  0  0
    3.2198   -3.4103   -1.3400 N   0  0  0  0  0  0  0  0  0  0  0  0
    2.8117   -4.3040   -2.3783 C   0  0  0  0  0  0  0  0  0  0  0  0
    2.4322   -3.7944   -3.6322 C   0  0  0  0  0  0  0  0  0  0  0  0
    2.0827   -4.6504   -4.6697 C   0  0  0  0  0  0  0  0  0  0  0  0
    1.7663   -4.1395   -5.8670 F   0  0  0  0  0  0  0  0  0  0  0  0
    2.0706   -6.0264   -4.4896 C   0  0  0  0  0  0  0  0  0  0  0  0
    2.4117   -6.5547   -3.2476 C   0  0  0  0  0  0  0  0  0  0  0  0
    2.7844   -5.7000   -2.2019 C   0  0  0  0  0  0  0  0  0  0  0  0
    4.2485   -3.6926   -0.4634 C   0  0  0  0  0  0  0  0  0  0  0  0
    4.7620   -2.8245    0.4075 C   0  0  0  0  0  0  0  0  0  0  0  0
    4.1546   -1.4882    0.3851 C   0  0  0  0  0  0  0  0  0  0  0  0
    4.6194   -0.5562    1.0291 O   0  0  0  0  0  0  0  0  0  0  0  0
    3.7375    1.0188    0.3476 H   0  0  0  0  0  0  0  0  0  0  0  0
    1.3615    2.4708   -0.7169 H   0  0  0  0  0  0  0  0  0  0  0  0
    3.6127    2.6110    2.4080 H   0  0  0  0  0  0  0  0  0  0  0  0
    2.6979    2.9054    4.6680 H   0  0  0  0  0  0  0  0  0  0  0  0
    0.2496    3.0801    5.0196 H   0  0  0  0  0  0  0  0  0  0  0  0
   -1.2895    2.9567    3.0793 H   0  0  0  0  0  0  0  0  0  0  0  0
   -0.4006    2.6680    0.8011 H   0  0  0  0  0  0  0  0  0  0  0  0
    1.9009    5.2071   -1.2108 H   0  0  0  0  0  0  0  0  0  0  0  0
    5.9667    5.2551   -0.7841 H   0  0  0  0  0  0  0  0  0  0  0  0
    5.2234    2.8094    0.2318 H   0  0  0  0  0  0  0  0  0  0  0  0
    2.4346   -2.7244   -3.8179 H   0  0  0  0  0  0  0  0  0  0  0  0
    1.7907   -6.6726   -5.3151 H   0  0  0  0  0  0  0  0  0  0  0  0
    2.3841   -7.6300   -3.0897 H   0  0  0  0  0  0  0  0  0  0  0  0
    3.0186   -6.1395   -1.2358 H   0  0  0  0  0  0  0  0  0  0  0  0
    4.6827   -4.6860   -0.5575 H   0  0  0  0  0  0  0  0  0  0  0  0
    5.6002   -3.0255    1.0579 H   0  0  0  0  0  0  0  0  0  0  0  0
  1  2  2  0  0  0  0
  2  3  1  0  0  0  0
  2 16  1  0  0  0  0
  3  4  1  0  0  0  0
  3 30  1  0  0  0  0
  4  5  1  0  0  0  0
  4 11  1  0  0  0  0
  4 31  1  0  0  0  0
  5  6  2  0  0  0  0
  5 10  1  0  0  0  0
  6  7  1  0  0  0  0
  6 32  1  0  0  0  0
  7  8  2  0  0  0  0
  7 33  1  0  0  0  0
  8  9  1  0  0  0  0
  8 34  1  0  0  0  0
  9 10  2  0  0  0  0
  9 35  1  0  0  0  0
 10 36  1  0  0  0  0
 11 12  2  0  0  0  0
 11 15  1  0  0  0  0
 12 13  1  0  0  0  0
 12 37  1  0  0  0  0
 13 14  1  0  0  0  0
 14 15  2  0  0  0  0
 14 38  1  0  0  0  0
 15 39  1  0  0  0  0
 16 17  2  0  0  0  0
 16 28  1  0  0  0  0
 17 18  1  0  0  0  0
 18 19  1  0  0  0  0
 18 26  1  0  0  0  0
 19 20  2  0  0  0  0
 19 25  1  0  0  0  0
 20 21  1  0  0  0  0
 20 40  1  0  0  0  0
 21 22  1  0  0  0  0
 21 23  2  0  0  0  0
 23 24  1  0  0  0  0
 23 41  1  0  0  0  0
 24 25  2  0  0  0  0
 24 42  1  0  0  0  0
 25 43  1  0  0  0  0
 26 27  2  0  0  0  0
 26 44  1  0  0  0  0
 27 28  1  0  0  0  0
 27 45  1  0  0  0  0
 28 29  2  0  0  0  0
M  END
$$$$
