
 OpenBabel01122422493D

 43 46  0  0  0  0  0  0  0  0999 V2000
    0.9623   -0.0986   -0.1462 O   0  0  0  0  0  0  0  0  0  0  0  0
    2.1877   -0.0138   -0.0425 C   0  0  0  0  0  0  0  0  0  0  0  0
    2.9338    0.6971   -0.9530 N   0  0  0  0  0  0  0  0  0  0  0  0
    2.3167    1.3524   -2.0865 C   0  0  0  0  0  0  0  0  0  0  0  0
    1.7873    2.7283   -1.7622 C   0  0  0  0  0  0  0  0  0  0  0  0
    0.5249    2.8860   -1.2222 C   0  0  0  0  0  0  0  0  0  0  0  0
    0.1252    4.1757   -0.9735 C   0  0  0  0  0  0  0  0  0  0  0  0
    0.8899    5.2504   -1.2300 N   0  0  0  0  0  0  0  0  0  0  0  0
    2.1143    5.0144   -1.7557 C   0  0  0  0  0  0  0  0  0  0  0  0
    2.9561    6.1951   -2.0856 C   0  0  0  0  0  0  0  0  0  0  0  0
    2.5187    7.4971   -1.8135 C   0  0  0  0  0  0  0  0  0  0  0  0
    3.3183    8.5832   -2.1609 C   0  0  0  0  0  0  0  0  0  0  0  0
    4.5413    8.3560   -2.7762 C   0  0  0  0  0  0  0  0  0  0  0  0
    4.9171    7.0474   -3.0114 C   0  0  0  0  0  0  0  0  0  0  0  0
    4.1618    5.9772   -2.6831 N   0  0  0  0  0  0  0  0  0  0  0  0
    2.5940    3.7801   -2.0249 N   0  0  0  0  0  0  0  0  0  0  0  0
    2.9519   -0.6986    0.9788 C   0  0  0  0  0  0  0  0  0  0  0  0
    2.7727   -1.9286    1.6054 C   0  0  0  0  0  0  0  0  0  0  0  0
    1.7638   -2.9215    1.2466 C   0  0  0  0  0  0  0  0  0  0  0  0
    1.3529   -3.0962   -0.0884 C   0  0  0  0  0  0  0  0  0  0  0  0
    0.3807   -4.0392   -0.4296 C   0  0  0  0  0  0  0  0  0  0  0  0
   -0.1604   -4.8462    0.5605 C   0  0  0  0  0  0  0  0  0  0  0  0
   -1.0818   -5.7604    0.2308 F   0  0  0  0  0  0  0  0  0  0  0  0
    0.2591   -4.7104    1.8771 C   0  0  0  0  0  0  0  0  0  0  0  0
   -0.2513   -5.5052    2.8282 F   0  0  0  0  0  0  0  0  0  0  0  0
    1.2124   -3.7551    2.2286 C   0  0  0  0  0  0  0  0  0  0  0  0
    3.7708   -1.9920    2.6218 C   0  0  0  0  0  0  0  0  0  0  0  0
    4.5196   -0.8456    2.5120 C   0  0  0  0  0  0  0  0  0  0  0  0
    4.0537   -0.0698    1.5004 O   0  0  0  0  0  0  0  0  0  0  0  0
    3.9367    0.7639   -0.8269 H   0  0  0  0  0  0  0  0  0  0  0  0
    1.5043    0.7250   -2.4738 H   0  0  0  0  0  0  0  0  0  0  0  0
    3.0722    1.4223   -2.8765 H   0  0  0  0  0  0  0  0  0  0  0  0
   -0.1231    2.0467   -1.0051 H   0  0  0  0  0  0  0  0  0  0  0  0
   -0.8532    4.3887   -0.5534 H   0  0  0  0  0  0  0  0  0  0  0  0
    1.5580    7.6671   -1.3364 H   0  0  0  0  0  0  0  0  0  0  0  0
    2.9831    9.5958   -1.9543 H   0  0  0  0  0  0  0  0  0  0  0  0
    5.1853    9.1806   -3.0625 H   0  0  0  0  0  0  0  0  0  0  0  0
    5.8647    6.8139   -3.4888 H   0  0  0  0  0  0  0  0  0  0  0  0
    1.7754   -2.4967   -0.8913 H   0  0  0  0  0  0  0  0  0  0  0  0
    0.0496   -4.1435   -1.4579 H   0  0  0  0  0  0  0  0  0  0  0  0
    1.5025   -3.6752    3.2716 H   0  0  0  0  0  0  0  0  0  0  0  0
    3.9382   -2.7867    3.3363 H   0  0  0  0  0  0  0  0  0  0  0  0
    5.3731   -0.4557    3.0502 H   0  0  0  0  0  0  0  0  0  0  0  0
  1  2  2  0  0  0  0
  2  3  1  0  0  0  0
  2 17  1  0  0  0  0
  3  4  1  0  0  0  0
  3 30  1  0  0  0  0
  4  5  1  0  0  0  0
  4 31  1  0  0  0  0
  4 32  1  0  0  0  0
  5  6  2  0  0  0  0
  5 16  1  0  0  0  0
  6  7  1  0  0  0  0
  6 33  1  0  0  0  0
  7  8  2  0  0  0  0
  7 34  1  0  0  0  0
  8  9  1  0  0  0  0
  9 10  1  0  0  0  0
  9 16  2  0  0  0  0
 10 11  2  0  0  0  0
 10 15  1  0  0  0  0
 11 12  1  0  0  0  0
 11 35  1  0  0  0  0
 12 13  2  0  0  0  0
 12 36  1  0  0  0  0
 13 14  1  0  0  0  0
 13 37  1  0  0  0  0
 14 15  2  0  0  0  0
 14 38  1  0  0  0  0
 17 18  2  0  0  0  0
 17 29  1  0  0  0  0
 18 19  1  0  0  0  0
 18 27  1  0  0  0  0
 19 20  2  0  0  0  0
 19 26  1  0  0  0  0
 20 21  1  0  0  0  0
 20 39  1  0  0  0  0
 21 22  2  0  0  0  0
 21 40  1  0  0  0  0
 22 23  1  0  0  0  0
 22 24  1  0  0  0  0
 24 25  1  0  0  0  0
 24 26  2  0  0  0  0
 26 41  1  0  0  0  0
 27 28  2  0  0  0  0
 27 42  1  0  0  0  0
 28 29  1  0  0  0  0
 28 43  1  0  0  0  0
M  END
$$$$
