
 OpenBabel01122422493D

 43 46  0  0  0  0  0  0  0  0999 V2000
    4.3659   -4.0333   -5.4958 N   0  0  0  0  0  0  0  0  0  0  0  0
    4.0258   -3.2964   -4.6667 C   0  0  0  0  0  0  0  0  0  0  0  0
    3.5824   -2.3900   -3.6468 C   0  0  0  0  0  0  0  0  0  0  0  0
    3.2811   -2.8667   -2.3625 C   0  0  0  0  0  0  0  0  0  0  0  0
    2.7584   -1.9977   -1.3983 C   0  0  0  0  0  0  0  0  0  0  0  0
    2.3516   -2.4242   -0.1434 O   0  0  0  0  0  0  0  0  0  0  0  0
    1.6185   -3.5994   -0.0673 C   0  0  0  0  0  0  0  0  0  0  0  0
    0.7518   -3.9871   -1.1028 C   0  0  0  0  0  0  0  0  0  0  0  0
    0.1370   -5.2402   -1.0873 C   0  0  0  0  0  0  0  0  0  0  0  0
    0.3203   -6.0748   -0.0052 C   0  0  0  0  0  0  0  0  0  0  0  0
    1.0869   -5.6506    1.0806 C   0  0  0  0  0  0  0  0  0  0  0  0
    1.7373   -4.4079    1.0868 C   0  0  0  0  0  0  0  0  0  0  0  0
    2.5062   -3.9450    2.1951 N   0  0  0  0  0  0  0  0  0  0  0  0
    2.7016   -4.6247    3.3924 C   0  0  0  0  0  0  0  0  0  0  0  0
    2.2927   -5.7565    3.6383 O   0  0  0  0  0  0  0  0  0  0  0  0
    3.4728   -3.9656    4.4931 C   0  0  0  0  0  0  0  0  0  0  0  0
    3.9553   -4.8154    5.5176 C   0  0  0  0  0  0  0  0  0  0  0  0
    4.5509   -4.3062    6.6717 C   0  0  0  0  0  0  0  0  0  0  0  0
    4.7334   -2.9365    6.7662 C   0  0  0  0  0  0  0  0  0  0  0  0
    5.2960   -2.3263    7.9652 C   0  0  0  0  0  0  0  0  0  0  0  0
    5.8318   -1.1488    7.9792 N   0  0  0  0  0  0  0  0  0  0  0  0
    5.7801   -0.4408    6.8096 N   0  0  0  0  0  0  0  0  0  0  0  0
    4.9525   -0.7334    5.7438 C   0  0  0  0  0  0  0  0  0  0  0  0
    4.7409    0.0485    4.8243 O   0  0  0  0  0  0  0  0  0  0  0  0
    4.4055   -2.1016    5.7063 C   0  0  0  0  0  0  0  0  0  0  0  0
    3.7061   -2.5902    4.5909 C   0  0  0  0  0  0  0  0  0  0  0  0
    2.6317   -0.6375   -1.6873 C   0  0  0  0  0  0  0  0  0  0  0  0
    2.9644   -0.1559   -2.9513 C   0  0  0  0  0  0  0  0  0  0  0  0
    3.4267   -1.0332   -3.9371 C   0  0  0  0  0  0  0  0  0  0  0  0
    3.4145   -3.9219   -2.1402 H   0  0  0  0  0  0  0  0  0  0  0  0
    0.5742   -3.3448   -1.9668 H   0  0  0  0  0  0  0  0  0  0  0  0
   -0.4746   -5.5582   -1.9310 H   0  0  0  0  0  0  0  0  0  0  0  0
   -0.1417   -7.0628    0.0143 H   0  0  0  0  0  0  0  0  0  0  0  0
    1.1487   -6.3409    1.9150 H   0  0  0  0  0  0  0  0  0  0  0  0
    2.9118   -3.0201    2.0756 H   0  0  0  0  0  0  0  0  0  0  0  0
    3.8509   -5.8967    5.4208 H   0  0  0  0  0  0  0  0  0  0  0  0
    4.8938   -4.9791    7.4529 H   0  0  0  0  0  0  0  0  0  0  0  0
    5.2508   -2.9007    8.9071 H   0  0  0  0  0  0  0  0  0  0  0  0
    6.2553    0.4579    6.8099 H   0  0  0  0  0  0  0  0  0  0  0  0
    3.3710   -1.8908    3.8316 H   0  0  0  0  0  0  0  0  0  0  0  0
    2.2496    0.0465   -0.9288 H   0  0  0  0  0  0  0  0  0  0  0  0
    2.8523    0.9015   -3.1789 H   0  0  0  0  0  0  0  0  0  0  0  0
    3.6600   -0.6490   -4.9286 H   0  0  0  0  0  0  0  0  0  0  0  0
  1  2  3  0  0  0  0
  2  3  1  0  0  0  0
  3  4  2  0  0  0  0
  3 29  1  0  0  0  0
  4  5  1  0  0  0  0
  4 30  1  0  0  0  0
  5  6  1  0  0  0  0
  5 27  2  0  0  0  0
  6  7  1  0  0  0  0
  7  8  2  0  0  0  0
  7 12  1  0  0  0  0
  8  9  1  0  0  0  0
  8 31  1  0  0  0  0
  9 10  2  0  0  0  0
  9 32  1  0  0  0  0
 10 11  1  0  0  0  0
 10 33  1  0  0  0  0
 11 12  2  0  0  0  0
 11 34  1  0  0  0  0
 12 13  1  0  0  0  0
 13 14  1  0  0  0  0
 13 35  1  0  0  0  0
 14 15  2  0  0  0  0
 14 16  1  0  0  0  0
 16 17  2  0  0  0  0
 16 26  1  0  0  0  0
 17 18  1  0  0  0  0
 17 36  1  0  0  0  0
 18 19  2  0  0  0  0
 18 37  1  0  0  0  0
 19 20  1  0  0  0  0
 19 25  1  0  0  0  0
 20 21  2  0  0  0  0
 20 38  1  0  0  0  0
 21 22  1  0  0  0  0
 22 23  1  0  0  0  0
 22 39  1  0  0  0  0
 23 24  2  0  0  0  0
 23 25  1  0  0  0  0
 25 26  2  0  0  0  0
 26 40  1  0  0  0  0
 27 28  1  0  0  0  0
 27 41  1  0  0  0  0
 28 29  2  0  0  0  0
 28 42  1  0  0  0  0
 29 43  1  0  0  0  0
M  END
$$$$
