
 OpenBabel01122422493D

 45 48  0  0  0  0  0  0  0  0999 V2000
    2.2172    0.0864   -0.0252 C   0  0  0  0  0  0  0  0  0  0  0  0
    0.7688   -0.0039   -0.0444 N   0  0  0  0  0  0  0  0  0  0  0  0
    0.0172   -1.1713   -0.1128 C   0  0  0  0  0  0  0  0  0  0  0  0
    0.5315   -2.5349   -0.1256 C   0  0  0  0  0  0  0  0  0  0  0  0
    1.5840   -2.8435    0.4209 O   0  0  0  0  0  0  0  0  0  0  0  0
   -0.2724   -3.4183   -0.8354 N   0  0  0  0  0  0  0  0  0  0  0  0
   -0.1021   -4.8147   -0.9454 C   0  0  0  0  0  0  0  0  0  0  0  0
    0.7514   -5.5403   -0.1038 C   0  0  0  0  0  0  0  0  0  0  0  0
    0.8971   -6.9240   -0.2398 C   0  0  0  0  0  0  0  0  0  0  0  0
    0.1899   -7.6068   -1.2262 C   0  0  0  0  0  0  0  0  0  0  0  0
    0.3351   -9.0544   -1.3818 C   0  0  0  0  0  0  0  0  0  0  0  0
   -0.3517   -9.6800   -2.3428 C   0  0  0  0  0  0  0  0  0  0  0  0
   -1.1851   -8.9926   -3.1853 N   0  0  0  0  0  0  0  0  0  0  0  0
   -1.4032   -7.6300   -3.1289 C   0  0  0  0  0  0  0  0  0  0  0  0
   -2.1562   -7.0616   -3.9114 O   0  0  0  0  0  0  0  0  0  0  0  0
   -0.6717   -6.8875   -2.0681 C   0  0  0  0  0  0  0  0  0  0  0  0
   -0.8302   -5.5004   -1.9209 C   0  0  0  0  0  0  0  0  0  0  0  0
   -1.3131   -0.7838   -0.1121 C   0  0  0  0  0  0  0  0  0  0  0  0
   -1.3627    0.6197   -0.1081 C   0  0  0  0  0  0  0  0  0  0  0  0
   -0.0691    1.1085   -0.0185 C   0  0  0  0  0  0  0  0  0  0  0  0
    0.3601    2.5058    0.0682 C   0  0  0  0  0  0  0  0  0  0  0  0
    1.4783    2.8909   -0.2687 O   0  0  0  0  0  0  0  0  0  0  0  0
   -0.6142    3.5400    0.5149 C   0  0  0  0  0  0  0  0  0  0  0  0
   -0.6517    4.7794   -0.1391 C   0  0  0  0  0  0  0  0  0  0  0  0
   -1.6393    5.7144    0.1903 C   0  0  0  0  0  0  0  0  0  0  0  0
   -2.5884    5.4183    1.1705 C   0  0  0  0  0  0  0  0  0  0  0  0
   -2.5179    4.2113    1.8620 C   0  0  0  0  0  0  0  0  0  0  0  0
   -1.5163    3.2952    1.5524 C   0  0  0  0  0  0  0  0  0  0  0  0
   -1.4532    2.1694    2.2775 F   0  0  0  0  0  0  0  0  0  0  0  0
    2.6750   -0.8745    0.1953 H   0  0  0  0  0  0  0  0  0  0  0  0
    2.5210    0.7895    0.7545 H   0  0  0  0  0  0  0  0  0  0  0  0
    2.5469    0.4264   -1.0104 H   0  0  0  0  0  0  0  0  0  0  0  0
   -0.9994   -3.0038   -1.4045 H   0  0  0  0  0  0  0  0  0  0  0  0
    1.3094   -5.0558    0.6922 H   0  0  0  0  0  0  0  0  0  0  0  0
    1.5699   -7.4501    0.4329 H   0  0  0  0  0  0  0  0  0  0  0  0
    0.9943   -9.5953   -0.7124 H   0  0  0  0  0  0  0  0  0  0  0  0
   -0.2802  -10.7527   -2.4956 H   0  0  0  0  0  0  0  0  0  0  0  0
   -1.6883   -9.4884   -3.9118 H   0  0  0  0  0  0  0  0  0  0  0  0
   -1.5075   -4.9726   -2.5918 H   0  0  0  0  0  0  0  0  0  0  0  0
   -2.1684   -1.4478   -0.0999 H   0  0  0  0  0  0  0  0  0  0  0  0
   -2.2695    1.2128   -0.1230 H   0  0  0  0  0  0  0  0  0  0  0  0
    0.0726    5.0124   -0.9175 H   0  0  0  0  0  0  0  0  0  0  0  0
   -1.6779    6.6705   -0.3278 H   0  0  0  0  0  0  0  0  0  0  0  0
   -3.3756    6.1315    1.4039 H   0  0  0  0  0  0  0  0  0  0  0  0
   -3.2381    3.9707    2.6382 H   0  0  0  0  0  0  0  0  0  0  0  0
  1  2  1  0  0  0  0
  1 30  1  0  0  0  0
  1 31  1  0  0  0  0
  1 32  1  0  0  0  0
  2  3  1  0  0  0  0
  2 20  1  0  0  0  0
  3  4  1  0  0  0  0
  3 18  2  0  0  0  0
  4  5  2  0  0  0  0
  4  6  1  0  0  0  0
  6  7  1  0  0  0  0
  6 33  1  0  0  0  0
  7  8  2  0  0  0  0
  7 17  1  0  0  0  0
  8  9  1  0  0  0  0
  8 34  1  0  0  0  0
  9 10  2  0  0  0  0
  9 35  1  0  0  0  0
 10 11  1  0  0  0  0
 10 16  1  0  0  0  0
 11 12  2  0  0  0  0
 11 36  1  0  0  0  0
 12 13  1  0  0  0  0
 12 37  1  0  0  0  0
 13 14  1  0  0  0  0
 13 38  1  0  0  0  0
 14 15  2  0  0  0  0
 14 16  1  0  0  0  0
 16 17  2  0  0  0  0
 17 39  1  0  0  0  0
 18 19  1  0  0  0  0
 18 40  1  0  0  0  0
 19 20  2  0  0  0  0
 19 41  1  0  0  0  0
 20 21  1  0  0  0  0
 21 22  2  0  0  0  0
 21 23  1  0  0  0  0
 23 24  2  0  0  0  0
 23 28  1  0  0  0  0
 24 25  1  0  0  0  0
 24 42  1  0  0  0  0
 25 26  2  0  0  0  0
 25 43  1  0  0  0  0
 26 27  1  0  0  0  0
 26 44  1  0  0  0  0
 27 28  2  0  0  0  0
 27 45  1  0  0  0  0
 28 29  1  0  0  0  0
M  END
$$$$
