
 OpenBabel01122422493D

 56 59  0  0  1  0  0  0  0  0999 V2000
    1.6074   -1.0144   -0.5612 O   0  0  0  0  0  0  0  0  0  0  0  0
    2.5886   -0.3533   -0.2470 C   0  0  0  0  0  0  0  0  0  0  0  0
    2.9272    0.9688   -0.8993 C   0  0  0  0  0  0  0  0  0  0  0  0
    3.7560    0.8636   -2.1538 C   0  0  0  0  0  0  0  0  0  0  0  0
    3.0747    0.7459   -3.3796 C   0  0  0  0  0  0  0  0  0  0  0  0
    3.7584    0.8254   -4.5895 C   0  0  0  0  0  0  0  0  0  0  0  0
    5.1313    1.0282   -4.5919 C   0  0  0  0  0  0  0  0  0  0  0  0
    5.8276    1.0800   -3.3822 C   0  0  0  0  0  0  0  0  0  0  0  0
    5.1612    0.9422   -2.1547 C   0  0  0  0  0  0  0  0  0  0  0  0
    5.8155    0.8875   -0.9395 O   0  0  0  0  0  0  0  0  0  0  0  0
    7.2151    0.5608   -1.0399 C   0  0  0  0  0  0  0  0  0  0  0  0
    7.8449    0.1319    0.2640 C   0  0  0  0  0  0  0  0  0  0  0  0
    8.8969   -0.7953    0.2417 C   0  0  0  0  0  0  0  0  0  0  0  0
    9.5174   -1.1442    1.4314 C   0  0  0  0  0  0  0  0  0  0  0  0
    9.1740   -0.6268    2.6268 N   0  0  0  0  0  0  0  0  0  0  0  0
    8.1651    0.2693    2.6307 C   0  0  0  0  0  0  0  0  0  0  0  0
    7.4890    0.6878    1.4915 C   0  0  0  0  0  0  0  0  0  0  0  0
    3.4680   -0.7057    0.7490 N   0  0  0  0  0  0  0  0  0  0  0  0
    3.2180   -1.7683    1.7201 C   0  0  3  0  0  0  0  0  0  0  0  0
    2.8920   -3.1473    1.1255 C   0  0  0  0  0  0  0  0  0  0  0  0
    3.9710   -3.9223    0.4153 C   0  0  0  0  0  0  0  0  0  0  0  0
    4.9324   -3.3780   -0.4229 C   0  0  0  0  0  0  0  0  0  0  0  0
    5.9472   -4.0905   -0.9763 N   0  0  0  0  0  0  0  0  0  0  0  0
    6.0580   -5.3944   -0.6558 C   0  0  0  0  0  0  0  0  0  0  0  0
    7.1568   -6.1371   -1.0726 C   0  0  0  0  0  0  0  0  0  0  0  0
    7.3615   -7.4522   -0.6350 C   0  0  0  0  0  0  0  0  0  0  0  0
    6.4274   -8.0657    0.1913 C   0  0  0  0  0  0  0  0  0  0  0  0
    5.2753   -7.3766    0.5498 C   0  0  0  0  0  0  0  0  0  0  0  0
    5.1037   -6.0439    0.1486 C   0  0  0  0  0  0  0  0  0  0  0  0
    4.0165   -5.3048    0.6094 C   0  0  0  0  0  0  0  0  0  0  0  0
    4.3629   -1.6644    2.7496 C   0  0  0  0  0  0  0  0  0  0  0  0
    4.8279   -0.5778    3.0713 O   0  0  0  0  0  0  0  0  0  0  0  0
    4.7884   -2.8006    3.3343 O   0  0  0  0  0  0  0  0  0  0  0  0
    3.4132    1.6360   -0.1777 H   0  0  0  0  0  0  0  0  0  0  0  0
    1.9743    1.4641   -1.1280 H   0  0  0  0  0  0  0  0  0  0  0  0
    1.9938    0.6149   -3.3945 H   0  0  0  0  0  0  0  0  0  0  0  0
    3.2162    0.7533   -5.5283 H   0  0  0  0  0  0  0  0  0  0  0  0
    5.6666    1.1363   -5.5300 H   0  0  0  0  0  0  0  0  0  0  0  0
    6.8992    1.2389   -3.4412 H   0  0  0  0  0  0  0  0  0  0  0  0
    7.7660    1.4410   -1.3947 H   0  0  0  0  0  0  0  0  0  0  0  0
    7.3422   -0.2706   -1.7465 H   0  0  0  0  0  0  0  0  0  0  0  0
    9.2366   -1.2443   -0.6865 H   0  0  0  0  0  0  0  0  0  0  0  0
   10.3297   -1.8654    1.4503 H   0  0  0  0  0  0  0  0  0  0  0  0
    7.9007    0.6613    3.6090 H   0  0  0  0  0  0  0  0  0  0  0  0
    6.7007    1.4281    1.5745 H   0  0  0  0  0  0  0  0  0  0  0  0
    4.1134    0.0170    1.0658 H   0  0  0  0  0  0  0  0  0  0  0  0
    2.3188   -1.4573    2.2772 H   0  0  0  0  0  0  0  0  0  0  0  0
    2.0240   -3.1019    0.4630 H   0  0  0  0  0  0  0  0  0  0  0  0
    2.5605   -3.7631    1.9749 H   0  0  0  0  0  0  0  0  0  0  0  0
    4.9475   -2.3229   -0.6827 H   0  0  0  0  0  0  0  0  0  0  0  0
    7.8947   -5.6670   -1.7168 H   0  0  0  0  0  0  0  0  0  0  0  0
    8.2638   -7.9851   -0.9254 H   0  0  0  0  0  0  0  0  0  0  0  0
    6.6016   -9.0693    0.5703 H   0  0  0  0  0  0  0  0  0  0  0  0
    4.5461   -7.8595    1.1953 H   0  0  0  0  0  0  0  0  0  0  0  0
    3.2306   -5.8007    1.1750 H   0  0  0  0  0  0  0  0  0  0  0  0
    4.4637   -3.6432    2.9817 H   0  0  0  0  0  0  0  0  0  0  0  0
  1  2  2  0  0  0  0
  2  3  1  0  0  0  0
  2 18  1  0  0  0  0
  3  4  1  0  0  0  0
  3 34  1  0  0  0  0
  3 35  1  0  0  0  0
  4  5  2  0  0  0  0
  4  9  1  0  0  0  0
  5  6  1  0  0  0  0
  5 36  1  0  0  0  0
  6  7  2  0  0  0  0
  6 37  1  0  0  0  0
  7  8  1  0  0  0  0
  7 38  1  0  0  0  0
  8  9  2  0  0  0  0
  8 39  1  0  0  0  0
  9 10  1  0  0  0  0
 10 11  1  0  0  0  0
 11 12  1  0  0  0  0
 11 40  1  0  0  0  0
 11 41  1  0  0  0  0
 12 13  2  0  0  0  0
 12 17  1  0  0  0  0
 13 14  1  0  0  0  0
 13 42  1  0  0  0  0
 14 15  2  0  0  0  0
 14 43  1  0  0  0  0
 15 16  1  0  0  0  0
 16 17  2  0  0  0  0
 16 44  1  0  0  0  0
 17 45  1  0  0  0  0
 18 19  1  0  0  0  0
 18 46  1  0  0  0  0
 19 20  1  0  0  0  0
 19 31  1  0  0  0  0
 19 47  1  0  0  0  0
 20 21  1  0  0  0  0
 20 48  1  0  0  0  0
 20 49  1  0  0  0  0
 21 22  2  0  0  0  0
 21 30  1  0  0  0  0
 22 23  1  0  0  0  0
 22 50  1  0  0  0  0
 23 24  2  0  0  0  0
 24 25  1  0  0  0  0
 24 29  1  0  0  0  0
 25 26  2  0  0  0  0
 25 51  1  0  0  0  0
 26 27  1  0  0  0  0
 26 52  1  0  0  0  0
 27 28  2  0  0  0  0
 27 53  1  0  0  0  0
 28 29  1  0  0  0  0
 28 54  1  0  0  0  0
 29 30  2  0  0  0  0
 30 55  1  0  0  0  0
 31 32  2  0  0  0  0
 31 33  1  0  0  0  0
 33 56  1  0  0  0  0
M  END
$$$$
