
 OpenBabel01122422493D

 42 45  0  0  0  0  0  0  0  0999 V2000
    2.8596    0.2225    1.0416 O   0  0  0  0  0  0  0  0  0  0  0  0
    2.2525    0.2452   -0.0240 C   0  0  0  0  0  0  0  0  0  0  0  0
    0.9196    0.5612   -0.1338 N   0  0  0  0  0  0  0  0  0  0  0  0
    0.1082    0.9127    1.0048 C   0  0  0  0  0  0  0  0  0  0  0  0
   -0.3728    2.3069    0.8269 C   0  0  0  0  0  0  0  0  0  0  0  0
   -1.5570    2.7147    0.2420 C   0  0  0  0  0  0  0  0  0  0  0  0
   -1.6878    4.0644    0.2872 O   0  0  0  0  0  0  0  0  0  0  0  0
   -0.5782    4.5513    0.9060 C   0  0  0  0  0  0  0  0  0  0  0  0
   -0.3272    5.8973    1.1687 C   0  0  0  0  0  0  0  0  0  0  0  0
    0.8779    6.1890    1.8219 C   0  0  0  0  0  0  0  0  0  0  0  0
    1.7588    5.1663    2.1736 C   0  0  0  0  0  0  0  0  0  0  0  0
    2.9019    5.4829    2.7952 F   0  0  0  0  0  0  0  0  0  0  0  0
    1.4842    3.8228    1.9009 C   0  0  0  0  0  0  0  0  0  0  0  0
    0.2765    3.5093    1.2512 C   0  0  0  0  0  0  0  0  0  0  0  0
    2.9308   -0.1390   -1.3066 C   0  0  0  0  0  0  0  0  0  0  0  0
    2.5000    0.3465   -2.4802 C   0  0  0  0  0  0  0  0  0  0  0  0
    3.0805    0.0096   -3.6987 N   0  0  0  0  0  0  0  0  0  0  0  0
    2.4637    0.4566   -4.9121 C   0  0  0  0  0  0  0  0  0  0  0  0
    3.2185    1.0232   -5.9446 C   0  0  0  0  0  0  0  0  0  0  0  0
    2.5831    1.5289   -7.0838 C   0  0  0  0  0  0  0  0  0  0  0  0
    1.1979    1.4362   -7.2200 C   0  0  0  0  0  0  0  0  0  0  0  0
    0.4370    0.8478   -6.2144 C   0  0  0  0  0  0  0  0  0  0  0  0
    1.0684    0.3789   -5.0684 C   0  0  0  0  0  0  0  0  0  0  0  0
    0.3070   -0.1918   -4.1193 F   0  0  0  0  0  0  0  0  0  0  0  0
    4.2161   -0.8157   -3.7591 C   0  0  0  0  0  0  0  0  0  0  0  0
    4.7995   -1.1792   -4.7778 O   0  0  0  0  0  0  0  0  0  0  0  0
    4.7083   -1.3298   -2.4456 C   0  0  0  0  0  0  0  0  0  0  0  0
    4.0887   -1.0066   -1.3024 C   0  0  0  0  0  0  0  0  0  0  0  0
    0.4408    0.4690   -1.0175 H   0  0  0  0  0  0  0  0  0  0  0  0
    0.6630    0.8009    1.9407 H   0  0  0  0  0  0  0  0  0  0  0  0
   -0.7349    0.2141    1.0231 H   0  0  0  0  0  0  0  0  0  0  0  0
   -2.3812    2.1903   -0.2224 H   0  0  0  0  0  0  0  0  0  0  0  0
   -1.0299    6.6702    0.8873 H   0  0  0  0  0  0  0  0  0  0  0  0
    1.1344    7.2167    2.0605 H   0  0  0  0  0  0  0  0  0  0  0  0
    2.1925    3.0532    2.1915 H   0  0  0  0  0  0  0  0  0  0  0  0
    1.6852    1.0608   -2.5387 H   0  0  0  0  0  0  0  0  0  0  0  0
    4.2981    1.1201   -5.8547 H   0  0  0  0  0  0  0  0  0  0  0  0
    3.1735    2.0017   -7.8656 H   0  0  0  0  0  0  0  0  0  0  0  0
    0.7095    1.8242   -8.1124 H   0  0  0  0  0  0  0  0  0  0  0  0
   -0.6393    0.7498   -6.3120 H   0  0  0  0  0  0  0  0  0  0  0  0
    5.5708   -1.9844   -2.4779 H   0  0  0  0  0  0  0  0  0  0  0  0
    4.4468   -1.3845   -0.3486 H   0  0  0  0  0  0  0  0  0  0  0  0
  1  2  2  0  0  0  0
  2  3  1  0  0  0  0
  2 15  1  0  0  0  0
  3  4  1  0  0  0  0
  3 29  1  0  0  0  0
  4  5  1  0  0  0  0
  4 30  1  0  0  0  0
  4 31  1  0  0  0  0
  5  6  2  0  0  0  0
  5 14  1  0  0  0  0
  6  7  1  0  0  0  0
  6 32  1  0  0  0  0
  7  8  1  0  0  0  0
  8  9  2  0  0  0  0
  8 14  1  0  0  0  0
  9 10  1  0  0  0  0
  9 33  1  0  0  0  0
 10 11  2  0  0  0  0
 10 34  1  0  0  0  0
 11 12  1  0  0  0  0
 11 13  1  0  0  0  0
 13 14  2  0  0  0  0
 13 35  1  0  0  0  0
 15 16  2  0  0  0  0
 15 28  1  0  0  0  0
 16 17  1  0  0  0  0
 16 36  1  0  0  0  0
 17 18  1  0  0  0  0
 17 25  1  0  0  0  0
 18 19  2  0  0  0  0
 18 23  1  0  0  0  0
 19 20  1  0  0  0  0
 19 37  1  0  0  0  0
 20 21  2  0  0  0  0
 20 38  1  0  0  0  0
 21 22  1  0  0  0  0
 21 39  1  0  0  0  0
 22 23  2  0  0  0  0
 22 40  1  0  0  0  0
 23 24  1  0  0  0  0
 25 26  2  0  0  0  0
 25 27  1  0  0  0  0
 27 28  2  0  0  0  0
 27 41  1  0  0  0  0
 28 42  1  0  0  0  0
M  END
$$$$
