
 OpenBabel01122422493D

 47 50  0  0  1  0  0  0  0  0999 V2000
    1.0684   -0.1959   -0.4696 O   0  0  0  0  0  0  0  0  0  0  0  0
    2.2268    0.0380   -0.1173 C   0  0  0  0  0  0  0  0  0  0  0  0
    2.7876   -0.4532    1.0618 N   0  0  0  0  0  0  0  0  0  0  0  0
    2.2102   -1.3772    1.9187 C   0  0  0  0  0  0  0  0  0  0  0  0
    1.1713   -2.1714    1.6032 C   0  0  0  0  0  0  0  0  0  0  0  0
    0.6130   -3.0954    2.5450 C   0  0  0  0  0  0  0  0  0  0  0  0
    1.0914   -3.1546    3.7892 C   0  0  0  0  0  0  0  0  0  0  0  0
    2.1625   -2.3729    4.2074 N   0  0  0  0  0  0  0  0  0  0  0  0
    2.5751   -2.4170    5.5776 C   0  0  0  0  0  0  0  0  0  0  0  0
    1.6125   -2.3529    6.5999 C   0  0  0  0  0  0  0  0  0  0  0  0
    1.9959   -2.3528    7.9425 C   0  0  0  0  0  0  0  0  0  0  0  0
    3.3426   -2.4607    8.2791 C   0  0  0  0  0  0  0  0  0  0  0  0
    4.3043   -2.5645    7.2751 C   0  0  0  0  0  0  0  0  0  0  0  0
    3.9242   -2.5269    5.9297 C   0  0  0  0  0  0  0  0  0  0  0  0
    2.8127   -1.4931    3.3133 C   0  0  0  0  0  0  0  0  0  0  0  0
    3.7773   -0.7683    3.5718 O   0  0  0  0  0  0  0  0  0  0  0  0
    3.1630    0.9172   -0.9538 C   0  0  3  0  0  0  0  0  0  0  0  0
    3.0816    0.5874   -2.4456 C   0  0  0  0  0  0  0  0  0  0  0  0
    2.0986    1.1359   -3.2905 C   0  0  0  0  0  0  0  0  0  0  0  0
    2.0512    0.8033   -4.6462 C   0  0  0  0  0  0  0  0  0  0  0  0
    2.9737   -0.0962   -5.1807 C   0  0  0  0  0  0  0  0  0  0  0  0
    3.9281   -0.6777   -4.3527 C   0  0  0  0  0  0  0  0  0  0  0  0
    3.9790   -0.3478   -2.9962 C   0  0  0  0  0  0  0  0  0  0  0  0
    2.9813    2.3572   -0.6790 N   0  0  0  0  0  0  0  0  0  0  0  0
    1.8381    2.9799   -0.2385 C   0  0  0  0  0  0  0  0  0  0  0  0
    2.1099    4.3207   -0.0758 C   0  0  0  0  0  0  0  0  0  0  0  0
    3.4652    4.5211   -0.4193 C   0  0  0  0  0  0  0  0  0  0  0  0
    3.9826    3.2967   -0.7831 C   0  0  0  0  0  0  0  0  0  0  0  0
    3.6137    0.0023    1.4430 H   0  0  0  0  0  0  0  0  0  0  0  0
    0.7093   -2.1570    0.6233 H   0  0  0  0  0  0  0  0  0  0  0  0
   -0.2064   -3.7275    2.2224 H   0  0  0  0  0  0  0  0  0  0  0  0
    0.6761   -3.8600    4.5062 H   0  0  0  0  0  0  0  0  0  0  0  0
    0.5580   -2.2384    6.3604 H   0  0  0  0  0  0  0  0  0  0  0  0
    1.2452   -2.2527    8.7219 H   0  0  0  0  0  0  0  0  0  0  0  0
    3.6436   -2.4571    9.3238 H   0  0  0  0  0  0  0  0  0  0  0  0
    5.3536   -2.6668    7.5381 H   0  0  0  0  0  0  0  0  0  0  0  0
    4.6902   -2.6163    5.1630 H   0  0  0  0  0  0  0  0  0  0  0  0
    4.1948    0.7131   -0.6273 H   0  0  0  0  0  0  0  0  0  0  0  0
    1.3525    1.8260   -2.8993 H   0  0  0  0  0  0  0  0  0  0  0  0
    1.2896    1.2428   -5.2858 H   0  0  0  0  0  0  0  0  0  0  0  0
    2.9375   -0.3470   -6.2398 H   0  0  0  0  0  0  0  0  0  0  0  0
    4.6343   -1.3945   -4.7665 H   0  0  0  0  0  0  0  0  0  0  0  0
    4.7235   -0.8311   -2.3739 H   0  0  0  0  0  0  0  0  0  0  0  0
    0.9157    2.4330   -0.0803 H   0  0  0  0  0  0  0  0  0  0  0  0
    1.4047    5.0714    0.2559 H   0  0  0  0  0  0  0  0  0  0  0  0
    4.0077    5.4579   -0.4045 H   0  0  0  0  0  0  0  0  0  0  0  0
    4.9752    3.0230   -1.1138 H   0  0  0  0  0  0  0  0  0  0  0  0
  1  2  2  0  0  0  0
  2  3  1  0  0  0  0
  2 17  1  0  0  0  0
  3  4  1  0  0  0  0
  3 29  1  0  0  0  0
  4  5  2  0  0  0  0
  4 15  1  0  0  0  0
  5  6  1  0  0  0  0
  5 30  1  0  0  0  0
  6  7  2  0  0  0  0
  6 31  1  0  0  0  0
  7  8  1  0  0  0  0
  7 32  1  0  0  0  0
  8  9  1  0  0  0  0
  8 15  1  0  0  0  0
  9 10  2  0  0  0  0
  9 14  1  0  0  0  0
 10 11  1  0  0  0  0
 10 33  1  0  0  0  0
 11 12  2  0  0  0  0
 11 34  1  0  0  0  0
 12 13  1  0  0  0  0
 12 35  1  0  0  0  0
 13 14  2  0  0  0  0
 13 36  1  0  0  0  0
 14 37  1  0  0  0  0
 15 16  2  0  0  0  0
 17 18  1  0  0  0  0
 17 24  1  0  0  0  0
 17 38  1  0  0  0  0
 18 19  2  0  0  0  0
 18 23  1  0  0  0  0
 19 20  1  0  0  0  0
 19 39  1  0  0  0  0
 20 21  2  0  0  0  0
 20 40  1  0  0  0  0
 21 22  1  0  0  0  0
 21 41  1  0  0  0  0
 22 23  2  0  0  0  0
 22 42  1  0  0  0  0
 23 43  1  0  0  0  0
 24 25  1  0  0  0  0
 24 28  1  0  0  0  0
 25 26  2  0  0  0  0
 25 44  1  0  0  0  0
 26 27  1  0  0  0  0
 26 45  1  0  0  0  0
 27 28  2  0  0  0  0
 27 46  1  0  0  0  0
 28 47  1  0  0  0  0
M  END
$$$$
