
 OpenBabel01122422493D

 42 45  0  0  0  0  0  0  0  0999 V2000
    3.8366   -2.3835    1.4060 O   0  0  0  0  0  0  0  0  0  0  0  0
    3.7188   -1.4197    0.6515 C   0  0  0  0  0  0  0  0  0  0  0  0
    2.9496   -1.4585   -0.4910 N   0  0  0  0  0  0  0  0  0  0  0  0
    2.2757   -2.5620   -0.9966 C   0  0  0  0  0  0  0  0  0  0  0  0
    2.5186   -3.8411   -0.6742 C   0  0  0  0  0  0  0  0  0  0  0  0
    1.8192   -4.9215   -1.3092 C   0  0  0  0  0  0  0  0  0  0  0  0
    0.9323   -4.6742   -2.2787 C   0  0  0  0  0  0  0  0  0  0  0  0
    0.6058   -3.3749   -2.6490 N   0  0  0  0  0  0  0  0  0  0  0  0
   -0.3039   -3.1492   -3.7260 C   0  0  0  0  0  0  0  0  0  0  0  0
   -0.0776   -3.7749   -4.9600 C   0  0  0  0  0  0  0  0  0  0  0  0
   -0.9151   -3.5181   -6.0456 C   0  0  0  0  0  0  0  0  0  0  0  0
   -2.0123   -2.6728   -5.8931 C   0  0  0  0  0  0  0  0  0  0  0  0
   -2.2696   -2.0788   -4.6577 C   0  0  0  0  0  0  0  0  0  0  0  0
   -1.4087   -2.3019   -3.5800 C   0  0  0  0  0  0  0  0  0  0  0  0
    1.2055   -2.2610   -2.0294 C   0  0  0  0  0  0  0  0  0  0  0  0
    0.9771   -1.0734   -2.2773 O   0  0  0  0  0  0  0  0  0  0  0  0
    4.3720   -0.1723    0.9655 C   0  0  0  0  0  0  0  0  0  0  0  0
    5.6235   -0.0177    1.5780 C   0  0  0  0  0  0  0  0  0  0  0  0
    6.6411   -1.0379    2.0279 C   0  0  0  0  0  0  0  0  0  0  0  0
    6.2553   -2.3292    1.8953 F   0  0  0  0  0  0  0  0  0  0  0  0
    7.8075   -0.9229    1.3367 F   0  0  0  0  0  0  0  0  0  0  0  0
    6.9533   -0.8661    3.3430 F   0  0  0  0  0  0  0  0  0  0  0  0
    5.8460    1.3165    1.8796 N   0  0  0  0  0  0  0  0  0  0  0  0
    4.7105    1.9225    1.6473 C   0  0  0  0  0  0  0  0  0  0  0  0
    4.2641    3.2040    2.0677 C   0  0  0  0  0  0  0  0  0  0  0  0
    3.0145    3.6038    1.7721 C   0  0  0  0  0  0  0  0  0  0  0  0
    2.1355    2.7819    0.9601 C   0  0  0  0  0  0  0  0  0  0  0  0
    2.5338    1.5485    0.6048 C   0  0  0  0  0  0  0  0  0  0  0  0
    3.8029    1.0949    0.9884 N   0  0  0  0  0  0  0  0  0  0  0  0
    2.7831   -0.6066   -1.0183 H   0  0  0  0  0  0  0  0  0  0  0  0
    3.2861   -4.1281    0.0355 H   0  0  0  0  0  0  0  0  0  0  0  0
    2.0411   -5.9359   -1.0025 H   0  0  0  0  0  0  0  0  0  0  0  0
    0.3982   -5.4811   -2.7685 H   0  0  0  0  0  0  0  0  0  0  0  0
    0.7904   -4.4134   -5.1022 H   0  0  0  0  0  0  0  0  0  0  0  0
   -0.7007   -3.9646   -7.0129 H   0  0  0  0  0  0  0  0  0  0  0  0
   -2.6634   -2.4709   -6.7399 H   0  0  0  0  0  0  0  0  0  0  0  0
   -3.1353   -1.4329   -4.5358 H   0  0  0  0  0  0  0  0  0  0  0  0
   -1.6217   -1.8310   -2.6237 H   0  0  0  0  0  0  0  0  0  0  0  0
    4.9203    3.7941    2.6970 H   0  0  0  0  0  0  0  0  0  0  0  0
    2.6249    4.5354    2.1698 H   0  0  0  0  0  0  0  0  0  0  0  0
    1.1557    3.1671    0.6965 H   0  0  0  0  0  0  0  0  0  0  0  0
    1.8775    0.8932    0.0500 H   0  0  0  0  0  0  0  0  0  0  0  0
  1  2  2  0  0  0  0
  2  3  1  0  0  0  0
  2 17  1  0  0  0  0
  3  4  1  0  0  0  0
  3 30  1  0  0  0  0
  4  5  2  0  0  0  0
  4 15  1  0  0  0  0
  5  6  1  0  0  0  0
  5 31  1  0  0  0  0
  6  7  2  0  0  0  0
  6 32  1  0  0  0  0
  7  8  1  0  0  0  0
  7 33  1  0  0  0  0
  8  9  1  0  0  0  0
  8 15  1  0  0  0  0
  9 10  2  0  0  0  0
  9 14  1  0  0  0  0
 10 11  1  0  0  0  0
 10 34  1  0  0  0  0
 11 12  2  0  0  0  0
 11 35  1  0  0  0  0
 12 13  1  0  0  0  0
 12 36  1  0  0  0  0
 13 14  2  0  0  0  0
 13 37  1  0  0  0  0
 14 38  1  0  0  0  0
 15 16  2  0  0  0  0
 17 18  2  0  0  0  0
 17 29  1  0  0  0  0
 18 19  1  0  0  0  0
 18 23  1  0  0  0  0
 19 20  1  0  0  0  0
 19 21  1  0  0  0  0
 19 22  1  0  0  0  0
 23 24  2  0  0  0  0
 24 25  1  0  0  0  0
 24 29  1  0  0  0  0
 25 26  2  0  0  0  0
 25 39  1  0  0  0  0
 26 27  1  0  0  0  0
 26 40  1  0  0  0  0
 27 28  2  0  0  0  0
 27 41  1  0  0  0  0
 28 29  1  0  0  0  0
 28 42  1  0  0  0  0
M  END
$$$$
