
 OpenBabel01122422503D

 48 51  0  0  0  0  0  0  0  0999 V2000
    1.0499  -11.3154    3.4198 N   0  0  0  0  0  0  0  0  0  0  0  0
    1.7707  -10.7967    4.8604 S   0  0  0  0  0  0  0  0  0  0  0  0
    0.6935  -10.7020    5.8272 O   0  0  0  0  0  0  0  0  0  0  0  0
    2.9109  -11.6557    5.0548 O   0  0  0  0  0  0  0  0  0  0  0  0
    2.3196   -9.1756    4.4330 C   0  0  0  0  0  0  0  0  0  0  0  0
    1.5018   -8.0677    4.6589 C   0  0  0  0  0  0  0  0  0  0  0  0
    1.9828   -6.7854    4.3652 C   0  0  0  0  0  0  0  0  0  0  0  0
    3.2799   -6.6095    3.8634 C   0  0  0  0  0  0  0  0  0  0  0  0
    3.9137   -4.9741    3.5218 S   0  0  0  0  0  0  0  0  0  0  0  0
    4.6728   -4.6027    5.1050 C   0  0  0  0  0  0  0  0  0  0  0  0
    3.8807   -3.8821    6.0186 C   0  0  0  0  0  0  0  0  0  0  0  0
    4.3386   -3.6013    7.3080 C   0  0  0  0  0  0  0  0  0  0  0  0
    5.5951   -4.0396    7.7073 C   0  0  0  0  0  0  0  0  0  0  0  0
    6.4017   -4.7364    6.8080 C   0  0  0  0  0  0  0  0  0  0  0  0
    5.9621   -5.0077    5.4976 C   0  0  0  0  0  0  0  0  0  0  0  0
    6.9465   -5.7209    4.6330 C   0  0  0  0  0  0  0  0  0  0  0  0
    7.6979   -6.5536    5.1293 O   0  0  0  0  0  0  0  0  0  0  0  0
    7.0145   -5.3439    3.3132 N   0  0  0  0  0  0  0  0  0  0  0  0
    8.0213   -5.8621    2.4071 C   0  0  0  0  0  0  0  0  0  0  0  0
    8.8796   -4.7538    1.8422 C   0  0  0  0  0  0  0  0  0  0  0  0
    9.4229   -3.7741    2.6935 C   0  0  0  0  0  0  0  0  0  0  0  0
   10.1195   -2.6662    2.1904 C   0  0  0  0  0  0  0  0  0  0  0  0
   10.3823   -2.6138    0.8140 C   0  0  0  0  0  0  0  0  0  0  0  0
   10.9904   -1.6908   -0.0734 C   0  0  0  0  0  0  0  0  0  0  0  0
   11.2131   -2.3883   -1.2383 C   0  0  0  0  0  0  0  0  0  0  0  0
   10.5435   -3.5720   -1.2181 O   0  0  0  0  0  0  0  0  0  0  0  0
    9.9966   -3.6895    0.0253 C   0  0  0  0  0  0  0  0  0  0  0  0
    9.1916   -4.7362    0.4710 C   0  0  0  0  0  0  0  0  0  0  0  0
    4.0849   -7.7298    3.6321 C   0  0  0  0  0  0  0  0  0  0  0  0
    3.6125   -9.0107    3.9255 C   0  0  0  0  0  0  0  0  0  0  0  0
    0.1244  -11.6915    3.6231 H   0  0  0  0  0  0  0  0  0  0  0  0
    1.6686  -11.9776    2.9514 H   0  0  0  0  0  0  0  0  0  0  0  0
    0.4985   -8.1908    5.0624 H   0  0  0  0  0  0  0  0  0  0  0  0
    1.3416   -5.9245    4.5444 H   0  0  0  0  0  0  0  0  0  0  0  0
    2.8856   -3.5416    5.7372 H   0  0  0  0  0  0  0  0  0  0  0  0
    3.7077   -3.0511    8.0024 H   0  0  0  0  0  0  0  0  0  0  0  0
    5.9511   -3.8396    8.7152 H   0  0  0  0  0  0  0  0  0  0  0  0
    7.3879   -5.0690    7.1310 H   0  0  0  0  0  0  0  0  0  0  0  0
    6.3754   -4.6418    2.9611 H   0  0  0  0  0  0  0  0  0  0  0  0
    7.4733   -6.3653    1.6028 H   0  0  0  0  0  0  0  0  0  0  0  0
    8.6600   -6.6016    2.8996 H   0  0  0  0  0  0  0  0  0  0  0  0
    9.2950   -3.8653    3.7716 H   0  0  0  0  0  0  0  0  0  0  0  0
   10.4937   -1.8985    2.8601 H   0  0  0  0  0  0  0  0  0  0  0  0
   11.3096   -0.6810    0.1390 H   0  0  0  0  0  0  0  0  0  0  0  0
   11.7763   -2.1818   -2.1373 H   0  0  0  0  0  0  0  0  0  0  0  0
    8.8457   -5.4982   -0.2174 H   0  0  0  0  0  0  0  0  0  0  0  0
    5.0932   -7.6169    3.2398 H   0  0  0  0  0  0  0  0  0  0  0  0
    4.2642   -9.8670    3.7643 H   0  0  0  0  0  0  0  0  0  0  0  0
  1  2  1  0  0  0  0
  1 31  1  0  0  0  0
  1 32  1  0  0  0  0
  2  3  2  0  0  0  0
  2  4  2  0  0  0  0
  2  5  1  0  0  0  0
  5  6  2  0  0  0  0
  5 30  1  0  0  0  0
  6  7  1  0  0  0  0
  6 33  1  0  0  0  0
  7  8  2  0  0  0  0
  7 34  1  0  0  0  0
  8  9  1  0  0  0  0
  8 29  1  0  0  0  0
  9 10  1  0  0  0  0
 10 11  2  0  0  0  0
 10 15  1  0  0  0  0
 11 12  1  0  0  0  0
 11 35  1  0  0  0  0
 12 13  2  0  0  0  0
 12 36  1  0  0  0  0
 13 14  1  0  0  0  0
 13 37  1  0  0  0  0
 14 15  2  0  0  0  0
 14 38  1  0  0  0  0
 15 16  1  0  0  0  0
 16 17  2  0  0  0  0
 16 18  1  0  0  0  0
 18 19  1  0  0  0  0
 18 39  1  0  0  0  0
 19 20  1  0  0  0  0
 19 40  1  0  0  0  0
 19 41  1  0  0  0  0
 20 21  2  0  0  0  0
 20 28  1  0  0  0  0
 21 22  1  0  0  0  0
 21 42  1  0  0  0  0
 22 23  2  0  0  0  0
 22 43  1  0  0  0  0
 23 24  1  0  0  0  0
 23 27  1  0  0  0  0
 24 25  2  0  0  0  0
 24 44  1  0  0  0  0
 25 26  1  0  0  0  0
 25 45  1  0  0  0  0
 26 27  1  0  0  0  0
 27 28  2  0  0  0  0
 28 46  1  0  0  0  0
 29 30  2  0  0  0  0
 29 47  1  0  0  0  0
 30 48  1  0  0  0  0
M  END
$$$$
