
 OpenBabel01122422503D

 44 47  0  0  0  0  0  0  0  0999 V2000
    4.2978   -2.9810    1.0862 N   0  0  0  0  0  0  0  0  0  0  0  0
    4.0642   -1.7319    0.5914 C   0  0  0  0  0  0  0  0  0  0  0  0
    3.5723   -1.5868   -0.5171 O   0  0  0  0  0  0  0  0  0  0  0  0
    4.4169   -0.5966    1.4612 C   0  0  0  0  0  0  0  0  0  0  0  0
    5.4299   -0.6859    2.4298 C   0  0  0  0  0  0  0  0  0  0  0  0
    5.7115    0.4185    3.2309 C   0  0  0  0  0  0  0  0  0  0  0  0
    5.0115    1.6361    3.0565 C   0  0  0  0  0  0  0  0  0  0  0  0
    5.3493    2.8346    3.8895 C   0  0  0  0  0  0  0  0  0  0  0  0
    6.4293    3.6094    3.2971 N   0  0  0  0  0  0  0  0  0  0  0  0
    6.0722    4.7347    2.5844 N   0  0  0  0  0  0  0  0  0  0  0  0
    7.0398    5.4120    2.0549 C   0  0  0  0  0  0  0  0  0  0  0  0
    6.8014    6.7501    1.4953 C   0  0  0  0  0  0  0  0  0  0  0  0
    7.2522    7.0166    0.1925 C   0  0  0  0  0  0  0  0  0  0  0  0
    7.1581    8.3020   -0.3047 C   0  0  0  0  0  0  0  0  0  0  0  0
    6.5758    9.2734    0.4942 C   0  0  0  0  0  0  0  0  0  0  0  0
    6.4944    9.0983    1.8776 C   0  0  0  0  0  0  0  0  0  0  0  0
    6.5629   10.1947    2.7528 C   0  0  0  0  0  0  0  0  0  0  0  0
    6.5180   10.0053    4.1325 C   0  0  0  0  0  0  0  0  0  0  0  0
    6.2531    8.7407    4.6398 C   0  0  0  0  0  0  0  0  0  0  0  0
    6.2004    7.6472    3.7761 C   0  0  0  0  0  0  0  0  0  0  0  0
    6.4633    7.7971    2.3922 C   0  0  0  0  0  0  0  0  0  0  0  0
    8.4619    5.0266    2.0584 C   0  0  0  0  0  0  0  0  0  0  0  0
    8.7859    4.0082    2.8477 C   0  0  0  0  0  0  0  0  0  0  0  0
    7.7452    3.2628    3.5706 C   0  0  0  0  0  0  0  0  0  0  0  0
    8.0891    2.3707    4.3405 O   0  0  0  0  0  0  0  0  0  0  0  0
    4.0620    1.7079    2.0422 C   0  0  0  0  0  0  0  0  0  0  0  0
    3.3958    2.8516    1.8433 F   0  0  0  0  0  0  0  0  0  0  0  0
    3.7624    0.6157    1.2422 C   0  0  0  0  0  0  0  0  0  0  0  0
    4.0005   -3.7370    0.5120 H   0  0  0  0  0  0  0  0  0  0  0  0
    4.5353   -3.1789    2.0332 H   0  0  0  0  0  0  0  0  0  0  0  0
    5.9968   -1.6035    2.5751 H   0  0  0  0  0  0  0  0  0  0  0  0
    6.4911    0.3337    3.9921 H   0  0  0  0  0  0  0  0  0  0  0  0
    5.6398    2.5164    4.8987 H   0  0  0  0  0  0  0  0  0  0  0  0
    4.4698    3.4762    4.0110 H   0  0  0  0  0  0  0  0  0  0  0  0
    7.6645    6.2301   -0.4331 H   0  0  0  0  0  0  0  0  0  0  0  0
    7.5135    8.5492   -1.3012 H   0  0  0  0  0  0  0  0  0  0  0  0
    6.0913   10.1269    0.0275 H   0  0  0  0  0  0  0  0  0  0  0  0
    6.7818   11.1878    2.3638 H   0  0  0  0  0  0  0  0  0  0  0  0
    6.6904   10.8394    4.8072 H   0  0  0  0  0  0  0  0  0  0  0  0
    6.1413    8.5906    5.7097 H   0  0  0  0  0  0  0  0  0  0  0  0
    6.0109    6.6655    4.2050 H   0  0  0  0  0  0  0  0  0  0  0  0
    9.1939    5.5908    1.4973 H   0  0  0  0  0  0  0  0  0  0  0  0
    9.8086    3.6843    2.9783 H   0  0  0  0  0  0  0  0  0  0  0  0
    3.0175    0.7127    0.4586 H   0  0  0  0  0  0  0  0  0  0  0  0
  1  2  1  0  0  0  0
  1 29  1  0  0  0  0
  1 30  1  0  0  0  0
  2  3  2  0  0  0  0
  2  4  1  0  0  0  0
  4  5  2  0  0  0  0
  4 28  1  0  0  0  0
  5  6  1  0  0  0  0
  5 31  1  0  0  0  0
  6  7  2  0  0  0  0
  6 32  1  0  0  0  0
  7  8  1  0  0  0  0
  7 26  1  0  0  0  0
  8  9  1  0  0  0  0
  8 33  1  0  0  0  0
  8 34  1  0  0  0  0
  9 10  1  0  0  0  0
  9 24  1  0  0  0  0
 10 11  2  0  0  0  0
 11 12  1  0  0  0  0
 11 22  1  0  0  0  0
 12 13  2  0  0  0  0
 12 21  1  0  0  0  0
 13 14  1  0  0  0  0
 13 35  1  0  0  0  0
 14 15  2  0  0  0  0
 14 36  1  0  0  0  0
 15 16  1  0  0  0  0
 15 37  1  0  0  0  0
 16 17  2  0  0  0  0
 16 21  1  0  0  0  0
 17 18  1  0  0  0  0
 17 38  1  0  0  0  0
 18 19  2  0  0  0  0
 18 39  1  0  0  0  0
 19 20  1  0  0  0  0
 19 40  1  0  0  0  0
 20 21  2  0  0  0  0
 20 41  1  0  0  0  0
 22 23  2  0  0  0  0
 22 42  1  0  0  0  0
 23 24  1  0  0  0  0
 23 43  1  0  0  0  0
 24 25  2  0  0  0  0
 26 27  1  0  0  0  0
 26 28  2  0  0  0  0
 28 44  1  0  0  0  0
M  END
$$$$
