
 OpenBabel01122422503D

 49 52  0  0  1  0  0  0  0  0999 V2000
    3.8338    1.3392    1.4963 C   0  0  0  0  0  0  0  0  0  0  0  0
    3.0015    0.2113    1.0841 N   0  0  0  0  0  0  0  0  0  0  0  0
    1.6617    0.3643    0.7739 C   0  0  0  0  0  0  0  0  0  0  0  0
    0.8441   -0.6017    0.3501 C   0  0  0  0  0  0  0  0  0  0  0  0
    1.4052   -1.9535    0.1662 C   0  0  0  0  0  0  0  0  0  0  0  0
    0.6919   -2.8573   -0.2562 O   0  0  0  0  0  0  0  0  0  0  0  0
    2.8332   -2.1574    0.5136 C   0  0  0  0  0  0  0  0  0  0  0  0
    3.3860   -3.4376    0.3624 C   0  0  0  0  0  0  0  0  0  0  0  0
    4.7119   -3.6879    0.7021 C   0  0  0  0  0  0  0  0  0  0  0  0
    5.3218   -4.9575    0.5269 N   0  0  0  0  0  0  0  0  0  0  0  0
    4.6472   -6.1509    0.3269 C   0  0  0  0  0  0  0  0  0  0  0  0
    3.4410   -6.3093    0.4187 O   0  0  0  0  0  0  0  0  0  0  0  0
    5.4920   -7.1999    0.0545 N   0  0  0  0  0  0  0  0  0  0  0  0
    4.9528   -8.5297   -0.2360 C   0  0  3  0  0  0  0  0  0  0  0  0
    4.6917   -8.6942   -1.7444 C   0  0  0  0  0  0  0  0  0  0  0  0
    5.6857   -9.1499   -2.6268 C   0  0  0  0  0  0  0  0  0  0  0  0
    5.3718   -9.3535   -3.9647 C   0  0  0  0  0  0  0  0  0  0  0  0
    4.1552   -9.1249   -4.4896 N   0  0  0  0  0  0  0  0  0  0  0  0
    3.2067   -8.6696   -3.6449 C   0  0  0  0  0  0  0  0  0  0  0  0
    3.4217   -8.4427   -2.2857 C   0  0  0  0  0  0  0  0  0  0  0  0
    5.8571   -9.6430    0.3224 C   0  0  0  0  0  0  0  0  0  0  0  0
    7.0199   -9.3800    1.0699 C   0  0  0  0  0  0  0  0  0  0  0  0
    7.9043  -10.4112    1.3956 C   0  0  0  0  0  0  0  0  0  0  0  0
    7.6263  -11.7101    0.9917 C   0  0  0  0  0  0  0  0  0  0  0  0
    8.5141  -12.6819    1.2368 F   0  0  0  0  0  0  0  0  0  0  0  0
    6.4456  -12.0120    0.3296 C   0  0  0  0  0  0  0  0  0  0  0  0
    5.5480  -10.9882    0.0272 C   0  0  0  0  0  0  0  0  0  0  0  0
    5.4761   -2.6241    1.2042 C   0  0  0  0  0  0  0  0  0  0  0  0
    4.9268   -1.3394    1.3365 C   0  0  0  0  0  0  0  0  0  0  0  0
    3.5944   -1.0721    0.9840 C   0  0  0  0  0  0  0  0  0  0  0  0
    3.2601    2.2725    1.5345 H   0  0  0  0  0  0  0  0  0  0  0  0
    4.6548    1.4969    0.7877 H   0  0  0  0  0  0  0  0  0  0  0  0
    4.2420    1.1753    2.4992 H   0  0  0  0  0  0  0  0  0  0  0  0
    1.2764    1.3722    0.9050 H   0  0  0  0  0  0  0  0  0  0  0  0
   -0.2031   -0.4533    0.1272 H   0  0  0  0  0  0  0  0  0  0  0  0
    2.7501   -4.2186   -0.0483 H   0  0  0  0  0  0  0  0  0  0  0  0
    6.3130   -5.0135    0.6938 H   0  0  0  0  0  0  0  0  0  0  0  0
    6.4315   -7.0017   -0.2368 H   0  0  0  0  0  0  0  0  0  0  0  0
    3.9945   -8.6360    0.2915 H   0  0  0  0  0  0  0  0  0  0  0  0
    6.6834   -9.3983   -2.2784 H   0  0  0  0  0  0  0  0  0  0  0  0
    6.1142   -9.7331   -4.6621 H   0  0  0  0  0  0  0  0  0  0  0  0
    2.2322   -8.5027   -4.0907 H   0  0  0  0  0  0  0  0  0  0  0  0
    2.5998   -8.0883   -1.6668 H   0  0  0  0  0  0  0  0  0  0  0  0
    7.2693   -8.3725    1.3914 H   0  0  0  0  0  0  0  0  0  0  0  0
    8.8195  -10.2053    1.9417 H   0  0  0  0  0  0  0  0  0  0  0  0
    6.2408  -13.0339    0.0280 H   0  0  0  0  0  0  0  0  0  0  0  0
    4.6280  -11.2377   -0.5011 H   0  0  0  0  0  0  0  0  0  0  0  0
    6.5046   -2.7823    1.5246 H   0  0  0  0  0  0  0  0  0  0  0  0
    5.5698   -0.5589    1.7325 H   0  0  0  0  0  0  0  0  0  0  0  0
  1  2  1  0  0  0  0
  1 31  1  0  0  0  0
  1 32  1  0  0  0  0
  1 33  1  0  0  0  0
  2  3  1  0  0  0  0
  2 30  1  0  0  0  0
  3  4  2  0  0  0  0
  3 34  1  0  0  0  0
  4  5  1  0  0  0  0
  4 35  1  0  0  0  0
  5  6  2  0  0  0  0
  5  7  1  0  0  0  0
  7  8  2  0  0  0  0
  7 30  1  0  0  0  0
  8  9  1  0  0  0  0
  8 36  1  0  0  0  0
  9 10  1  0  0  0  0
  9 28  2  0  0  0  0
 10 11  1  0  0  0  0
 10 37  1  0  0  0  0
 11 12  2  0  0  0  0
 11 13  1  0  0  0  0
 13 14  1  0  0  0  0
 13 38  1  0  0  0  0
 14 15  1  0  0  0  0
 14 21  1  0  0  0  0
 14 39  1  0  0  0  0
 15 16  2  0  0  0  0
 15 20  1  0  0  0  0
 16 17  1  0  0  0  0
 16 40  1  0  0  0  0
 17 18  2  0  0  0  0
 17 41  1  0  0  0  0
 18 19  1  0  0  0  0
 19 20  2  0  0  0  0
 19 42  1  0  0  0  0
 20 43  1  0  0  0  0
 21 22  2  0  0  0  0
 21 27  1  0  0  0  0
 22 23  1  0  0  0  0
 22 44  1  0  0  0  0
 23 24  2  0  0  0  0
 23 45  1  0  0  0  0
 24 25  1  0  0  0  0
 24 26  1  0  0  0  0
 26 27  2  0  0  0  0
 26 46  1  0  0  0  0
 27 47  1  0  0  0  0
 28 29  1  0  0  0  0
 28 48  1  0  0  0  0
 29 30  2  0  0  0  0
 29 49  1  0  0  0  0
M  END
$$$$
