
 OpenBabel01122422503D

 50 53  0  0  0  0  0  0  0  0999 V2000
    1.2847    0.1368   -2.0321 N   0  0  0  0  0  0  0  0  0  0  0  0
    1.8183   -0.3243   -0.7564 C   0  0  0  0  0  0  0  0  0  0  0  0
    2.7138   -1.5359   -0.9042 C   0  0  0  0  0  0  0  0  0  0  0  0
    2.2920   -2.7372   -0.2968 C   0  0  0  0  0  0  0  0  0  0  0  0
    3.0614   -3.8935   -0.3770 C   0  0  0  0  0  0  0  0  0  0  0  0
    4.2620   -3.8747   -1.0728 C   0  0  0  0  0  0  0  0  0  0  0  0
    4.7176   -2.7002   -1.6810 C   0  0  0  0  0  0  0  0  0  0  0  0
    5.9295   -2.7279   -2.3781 C   0  0  0  0  0  0  0  0  0  0  0  0
    6.4141   -1.5836   -2.9965 C   0  0  0  0  0  0  0  0  0  0  0  0
    5.6985   -0.3857   -2.9228 C   0  0  0  0  0  0  0  0  0  0  0  0
    6.2388    0.7553   -3.6943 C   0  0  0  0  0  0  0  0  0  0  0  0
    6.8280    0.4806   -4.7401 O   0  0  0  0  0  0  0  0  0  0  0  0
    6.1341    2.0289   -3.1483 N   0  0  0  0  0  0  0  0  0  0  0  0
    6.6806    3.1591   -3.7397 C   0  0  0  0  0  0  0  0  0  0  0  0
    6.9388    3.2470   -5.0545 C   0  0  0  0  0  0  0  0  0  0  0  0
    7.6221    4.3108   -5.6171 N   0  0  0  0  0  0  0  0  0  0  0  0
    7.8773    4.2934   -7.0603 C   0  0  0  0  0  0  0  0  0  0  0  0
    6.7331    4.9164   -7.8276 C   0  0  0  0  0  0  0  0  0  0  0  0
    6.7600    6.2829   -8.1354 C   0  0  0  0  0  0  0  0  0  0  0  0
    5.6471    6.9007   -8.7066 C   0  0  0  0  0  0  0  0  0  0  0  0
    4.5004    6.1579   -8.9801 C   0  0  0  0  0  0  0  0  0  0  0  0
    4.4773    4.7893   -8.7192 C   0  0  0  0  0  0  0  0  0  0  0  0
    5.5907    4.1684   -8.1516 C   0  0  0  0  0  0  0  0  0  0  0  0
    8.0866    5.3687   -4.8499 C   0  0  0  0  0  0  0  0  0  0  0  0
    8.7461    6.3162   -5.2721 O   0  0  0  0  0  0  0  0  0  0  0  0
    7.7273    5.3182   -3.4028 C   0  0  0  0  0  0  0  0  0  0  0  0
    7.0474    4.2786   -2.8959 C   0  0  0  0  0  0  0  0  0  0  0  0
    4.4838   -0.3402   -2.2326 C   0  0  0  0  0  0  0  0  0  0  0  0
    3.9568   -1.4987   -1.6003 C   0  0  0  0  0  0  0  0  0  0  0  0
    0.6430    0.9100   -1.8683 H   0  0  0  0  0  0  0  0  0  0  0  0
    0.7306   -0.6104   -2.4493 H   0  0  0  0  0  0  0  0  0  0  0  0
    0.9747   -0.5536   -0.0941 H   0  0  0  0  0  0  0  0  0  0  0  0
    2.3821    0.4794   -0.2697 H   0  0  0  0  0  0  0  0  0  0  0  0
    1.3541   -2.7773    0.2543 H   0  0  0  0  0  0  0  0  0  0  0  0
    2.7257   -4.8094    0.1012 H   0  0  0  0  0  0  0  0  0  0  0  0
    4.8446   -4.7924   -1.1352 H   0  0  0  0  0  0  0  0  0  0  0  0
    6.5037   -3.6485   -2.4659 H   0  0  0  0  0  0  0  0  0  0  0  0
    7.3454   -1.6328   -3.5585 H   0  0  0  0  0  0  0  0  0  0  0  0
    5.8442    2.0992   -2.1800 H   0  0  0  0  0  0  0  0  0  0  0  0
    6.6401    2.4713   -5.7505 H   0  0  0  0  0  0  0  0  0  0  0  0
    8.0381    3.2587   -7.3913 H   0  0  0  0  0  0  0  0  0  0  0  0
    8.8107    4.8268   -7.2764 H   0  0  0  0  0  0  0  0  0  0  0  0
    7.6402    6.8783   -7.8988 H   0  0  0  0  0  0  0  0  0  0  0  0
    5.6698    7.9667   -8.9136 H   0  0  0  0  0  0  0  0  0  0  0  0
    3.6213    6.6484   -9.3891 H   0  0  0  0  0  0  0  0  0  0  0  0
    3.5844    4.2088   -8.9363 H   0  0  0  0  0  0  0  0  0  0  0  0
    5.5487    3.1033   -7.9345 H   0  0  0  0  0  0  0  0  0  0  0  0
    8.0530    6.1582   -2.8009 H   0  0  0  0  0  0  0  0  0  0  0  0
    6.8001    4.2581   -1.8421 H   0  0  0  0  0  0  0  0  0  0  0  0
    3.9081    0.5823   -2.2375 H   0  0  0  0  0  0  0  0  0  0  0  0
  1  2  1  0  0  0  0
  1 30  1  0  0  0  0
  1 31  1  0  0  0  0
  2  3  1  0  0  0  0
  2 32  1  0  0  0  0
  2 33  1  0  0  0  0
  3  4  2  0  0  0  0
  3 29  1  0  0  0  0
  4  5  1  0  0  0  0
  4 34  1  0  0  0  0
  5  6  2  0  0  0  0
  5 35  1  0  0  0  0
  6  7  1  0  0  0  0
  6 36  1  0  0  0  0
  7  8  2  0  0  0  0
  7 29  1  0  0  0  0
  8  9  1  0  0  0  0
  8 37  1  0  0  0  0
  9 10  2  0  0  0  0
  9 38  1  0  0  0  0
 10 11  1  0  0  0  0
 10 28  1  0  0  0  0
 11 12  2  0  0  0  0
 11 13  1  0  0  0  0
 13 14  1  0  0  0  0
 13 39  1  0  0  0  0
 14 15  2  0  0  0  0
 14 27  1  0  0  0  0
 15 16  1  0  0  0  0
 15 40  1  0  0  0  0
 16 17  1  0  0  0  0
 16 24  1  0  0  0  0
 17 18  1  0  0  0  0
 17 41  1  0  0  0  0
 17 42  1  0  0  0  0
 18 19  2  0  0  0  0
 18 23  1  0  0  0  0
 19 20  1  0  0  0  0
 19 43  1  0  0  0  0
 20 21  2  0  0  0  0
 20 44  1  0  0  0  0
 21 22  1  0  0  0  0
 21 45  1  0  0  0  0
 22 23  2  0  0  0  0
 22 46  1  0  0  0  0
 23 47  1  0  0  0  0
 24 25  2  0  0  0  0
 24 26  1  0  0  0  0
 26 27  2  0  0  0  0
 26 48  1  0  0  0  0
 27 49  1  0  0  0  0
 28 29  2  0  0  0  0
 28 50  1  0  0  0  0
M  END
$$$$
