
 OpenBabel01122422503D

 45 48  0  0  0  0  0  0  0  0999 V2000
   -3.2563    0.1568   -0.7904 C   0  0  0  0  0  0  0  0  0  0  0  0
   -2.0006   -0.2285   -0.1786 N   0  0  0  0  0  0  0  0  0  0  0  0
   -1.6542   -1.5449    0.1338 C   0  0  0  0  0  0  0  0  0  0  0  0
   -2.5909   -2.7408    0.2101 C   0  0  0  0  0  0  0  0  0  0  0  0
   -2.1115   -3.8700    0.0859 O   0  0  0  0  0  0  0  0  0  0  0  0
   -3.9367   -2.5059    0.4368 N   0  0  0  0  0  0  0  0  0  0  0  0
   -4.9206   -3.5154    0.6124 C   0  0  0  0  0  0  0  0  0  0  0  0
   -4.5885   -4.8136    0.9957 C   0  0  0  0  0  0  0  0  0  0  0  0
   -5.5772   -5.7740    1.1974 C   0  0  0  0  0  0  0  0  0  0  0  0
   -5.2131   -7.0799    1.6497 C   0  0  0  0  0  0  0  0  0  0  0  0
   -4.9247   -8.1377    2.0350 N   0  0  0  0  0  0  0  0  0  0  0  0
   -6.9156   -5.4529    0.9726 C   0  0  0  0  0  0  0  0  0  0  0  0
   -7.2982   -4.1653    0.5561 C   0  0  0  0  0  0  0  0  0  0  0  0
   -8.7202   -3.8701    0.2501 C   0  0  0  0  0  0  0  0  0  0  0  0
   -9.2819   -2.6060    0.4658 C   0  0  0  0  0  0  0  0  0  0  0  0
  -10.6120   -2.3837    0.1344 C   0  0  0  0  0  0  0  0  0  0  0  0
  -11.4273   -3.3230   -0.3838 N   0  0  0  0  0  0  0  0  0  0  0  0
  -10.8887   -4.5405   -0.5807 C   0  0  0  0  0  0  0  0  0  0  0  0
   -9.5692   -4.8531   -0.2884 C   0  0  0  0  0  0  0  0  0  0  0  0
   -6.2753   -3.1955    0.4174 C   0  0  0  0  0  0  0  0  0  0  0  0
   -0.3717   -1.8650    0.4063 C   0  0  0  0  0  0  0  0  0  0  0  0
    0.6803   -0.8557    0.3997 C   0  0  0  0  0  0  0  0  0  0  0  0
    2.0307   -1.1971    0.5450 C   0  0  0  0  0  0  0  0  0  0  0  0
    3.0077   -0.1972    0.5850 C   0  0  0  0  0  0  0  0  0  0  0  0
    2.6413    1.1453    0.4946 C   0  0  0  0  0  0  0  0  0  0  0  0
    1.3003    1.4890    0.3298 C   0  0  0  0  0  0  0  0  0  0  0  0
    0.3267    0.4853    0.2667 C   0  0  0  0  0  0  0  0  0  0  0  0
   -1.0851    0.8323   -0.0221 C   0  0  0  0  0  0  0  0  0  0  0  0
   -1.3950    2.0119   -0.1591 O   0  0  0  0  0  0  0  0  0  0  0  0
   -3.7112   -0.6692   -1.3410 H   0  0  0  0  0  0  0  0  0  0  0  0
   -3.0889    0.9581   -1.5192 H   0  0  0  0  0  0  0  0  0  0  0  0
   -3.9250    0.5406   -0.0143 H   0  0  0  0  0  0  0  0  0  0  0  0
   -4.2683   -1.5559    0.4531 H   0  0  0  0  0  0  0  0  0  0  0  0
   -3.5593   -5.1023    1.1889 H   0  0  0  0  0  0  0  0  0  0  0  0
   -7.6663   -6.2251    1.1386 H   0  0  0  0  0  0  0  0  0  0  0  0
   -8.7087   -1.7914    0.8948 H   0  0  0  0  0  0  0  0  0  0  0  0
  -11.0688   -1.4091    0.2822 H   0  0  0  0  0  0  0  0  0  0  0  0
  -11.5595   -5.2856   -0.9996 H   0  0  0  0  0  0  0  0  0  0  0  0
   -9.2207   -5.8586   -0.5012 H   0  0  0  0  0  0  0  0  0  0  0  0
   -6.5384   -2.1896    0.0943 H   0  0  0  0  0  0  0  0  0  0  0  0
   -0.0676   -2.8821    0.6431 H   0  0  0  0  0  0  0  0  0  0  0  0
    2.3380   -2.2384    0.6201 H   0  0  0  0  0  0  0  0  0  0  0  0
    4.0566   -0.4651    0.6897 H   0  0  0  0  0  0  0  0  0  0  0  0
    3.3989    1.9241    0.5380 H   0  0  0  0  0  0  0  0  0  0  0  0
    1.0157    2.5346    0.2366 H   0  0  0  0  0  0  0  0  0  0  0  0
  1  2  1  0  0  0  0
  1 30  1  0  0  0  0
  1 31  1  0  0  0  0
  1 32  1  0  0  0  0
  2  3  1  0  0  0  0
  2 28  1  0  0  0  0
  3  4  1  0  0  0  0
  3 21  2  0  0  0  0
  4  5  2  0  0  0  0
  4  6  1  0  0  0  0
  6  7  1  0  0  0  0
  6 33  1  0  0  0  0
  7  8  2  0  0  0  0
  7 20  1  0  0  0  0
  8  9  1  0  0  0  0
  8 34  1  0  0  0  0
  9 10  1  0  0  0  0
  9 12  2  0  0  0  0
 10 11  3  0  0  0  0
 12 13  1  0  0  0  0
 12 35  1  0  0  0  0
 13 14  1  0  0  0  0
 13 20  2  0  0  0  0
 14 15  2  0  0  0  0
 14 19  1  0  0  0  0
 15 16  1  0  0  0  0
 15 36  1  0  0  0  0
 16 17  2  0  0  0  0
 16 37  1  0  0  0  0
 17 18  1  0  0  0  0
 18 19  2  0  0  0  0
 18 38  1  0  0  0  0
 19 39  1  0  0  0  0
 20 40  1  0  0  0  0
 21 22  1  0  0  0  0
 21 41  1  0  0  0  0
 22 23  2  0  0  0  0
 22 27  1  0  0  0  0
 23 24  1  0  0  0  0
 23 42  1  0  0  0  0
 24 25  2  0  0  0  0
 24 43  1  0  0  0  0
 25 26  1  0  0  0  0
 25 44  1  0  0  0  0
 26 27  2  0  0  0  0
 26 45  1  0  0  0  0
 27 28  1  0  0  0  0
 28 29  2  0  0  0  0
M  END
$$$$
