
 OpenBabel01122422503D

 41 44  0  0  0  0  0  0  0  0999 V2000
    5.1875    2.0419    1.2687 O   0  0  0  0  0  0  0  0  0  0  0  0
    4.5776    1.0250    0.9497 C   0  0  0  0  0  0  0  0  0  0  0  0
    3.3054    0.6948    1.3530 N   0  0  0  0  0  0  0  0  0  0  0  0
    2.4478    1.4503    2.1370 C   0  0  0  0  0  0  0  0  0  0  0  0
    2.5584    2.8096    2.2706 C   0  0  0  0  0  0  0  0  0  0  0  0
    1.6236    3.5145    3.1084 C   0  0  0  0  0  0  0  0  0  0  0  0
    0.7126    2.8426    3.8204 C   0  0  0  0  0  0  0  0  0  0  0  0
    0.5624    1.4644    3.7181 N   0  0  0  0  0  0  0  0  0  0  0  0
   -0.3496    0.7767    4.6006 C   0  0  0  0  0  0  0  0  0  0  0  0
   -0.3479    1.0801    5.9631 C   0  0  0  0  0  0  0  0  0  0  0  0
   -1.1850    0.3763    6.8318 C   0  0  0  0  0  0  0  0  0  0  0  0
   -2.0423   -0.6043    6.3357 C   0  0  0  0  0  0  0  0  0  0  0  0
   -2.0585   -0.8905    4.9737 C   0  0  0  0  0  0  0  0  0  0  0  0
   -1.2008   -0.2153    4.1013 C   0  0  0  0  0  0  0  0  0  0  0  0
    1.3524    0.7156    2.8352 C   0  0  0  0  0  0  0  0  0  0  0  0
    1.2861   -0.5017    2.6294 O   0  0  0  0  0  0  0  0  0  0  0  0
    5.2770    0.0757    0.0217 C   0  0  0  0  0  0  0  0  0  0  0  0
    4.6108   -0.9938   -0.5698 C   0  0  0  0  0  0  0  0  0  0  0  0
    3.3705   -1.3228   -0.1629 F   0  0  0  0  0  0  0  0  0  0  0  0
    5.1252   -1.5806   -1.7305 C   0  0  0  0  0  0  0  0  0  0  0  0
    4.3904   -2.5322   -2.4348 C   0  0  0  0  0  0  0  0  0  0  0  0
    4.4161   -2.4716   -3.8084 C   0  0  0  0  0  0  0  0  0  0  0  0
    5.5275   -1.8872   -4.3668 C   0  0  0  0  0  0  0  0  0  0  0  0
    6.5286   -1.3325   -3.6354 N   0  0  0  0  0  0  0  0  0  0  0  0
    6.2637   -1.0841   -2.3438 C   0  0  0  0  0  0  0  0  0  0  0  0
    7.0568   -0.2070   -1.6260 C   0  0  0  0  0  0  0  0  0  0  0  0
    6.5602    0.4054   -0.4704 C   0  0  0  0  0  0  0  0  0  0  0  0
    3.0028   -0.2890    1.2795 H   0  0  0  0  0  0  0  0  0  0  0  0
    3.3011    3.3950    1.7593 H   0  0  0  0  0  0  0  0  0  0  0  0
    1.7045    4.5961    3.1777 H   0  0  0  0  0  0  0  0  0  0  0  0
    0.0255    3.3675    4.4715 H   0  0  0  0  0  0  0  0  0  0  0  0
    0.3350    1.8173    6.3732 H   0  0  0  0  0  0  0  0  0  0  0  0
   -1.1486    0.5801    7.8974 H   0  0  0  0  0  0  0  0  0  0  0  0
   -2.6897   -1.1539    7.0158 H   0  0  0  0  0  0  0  0  0  0  0  0
   -2.7387   -1.6467    4.5835 H   0  0  0  0  0  0  0  0  0  0  0  0
   -1.2324   -0.4519    3.0415 H   0  0  0  0  0  0  0  0  0  0  0  0
    4.0420   -3.4354   -1.9360 H   0  0  0  0  0  0  0  0  0  0  0  0
    3.6141   -2.8935   -4.4050 H   0  0  0  0  0  0  0  0  0  0  0  0
    5.6581   -1.8491   -5.4391 H   0  0  0  0  0  0  0  0  0  0  0  0
    8.0113    0.1024   -2.0378 H   0  0  0  0  0  0  0  0  0  0  0  0
    7.1277    1.2164   -0.0207 H   0  0  0  0  0  0  0  0  0  0  0  0
  1  2  2  0  0  0  0
  2  3  1  0  0  0  0
  2 17  1  0  0  0  0
  3  4  1  0  0  0  0
  3 28  1  0  0  0  0
  4  5  2  0  0  0  0
  4 15  1  0  0  0  0
  5  6  1  0  0  0  0
  5 29  1  0  0  0  0
  6  7  2  0  0  0  0
  6 30  1  0  0  0  0
  7  8  1  0  0  0  0
  7 31  1  0  0  0  0
  8  9  1  0  0  0  0
  8 15  1  0  0  0  0
  9 10  2  0  0  0  0
  9 14  1  0  0  0  0
 10 11  1  0  0  0  0
 10 32  1  0  0  0  0
 11 12  2  0  0  0  0
 11 33  1  0  0  0  0
 12 13  1  0  0  0  0
 12 34  1  0  0  0  0
 13 14  2  0  0  0  0
 13 35  1  0  0  0  0
 14 36  1  0  0  0  0
 15 16  2  0  0  0  0
 17 18  2  0  0  0  0
 17 27  1  0  0  0  0
 18 19  1  0  0  0  0
 18 20  1  0  0  0  0
 20 21  2  0  0  0  0
 20 25  1  0  0  0  0
 21 22  1  0  0  0  0
 21 37  1  0  0  0  0
 22 23  2  0  0  0  0
 22 38  1  0  0  0  0
 23 24  1  0  0  0  0
 23 39  1  0  0  0  0
 24 25  2  0  0  0  0
 25 26  1  0  0  0  0
 26 27  2  0  0  0  0
 26 40  1  0  0  0  0
 27 41  1  0  0  0  0
M  END
$$$$
