
 OpenBabel01122422503D

 49 52  0  0  0  0  0  0  0  0999 V2000
    1.0165    0.1035   -0.1178 C   0  0  0  0  0  0  0  0  0  0  0  0
    2.3905    0.0159    0.2506 O   0  0  0  0  0  0  0  0  0  0  0  0
    3.0888   -1.0897   -0.1680 C   0  0  0  0  0  0  0  0  0  0  0  0
    2.7365   -1.8146   -1.3153 C   0  0  0  0  0  0  0  0  0  0  0  0
    3.4954   -2.9030   -1.7385 C   0  0  0  0  0  0  0  0  0  0  0  0
    4.6551   -3.2488   -1.0515 C   0  0  0  0  0  0  0  0  0  0  0  0
    5.0512   -2.5149    0.0702 C   0  0  0  0  0  0  0  0  0  0  0  0
    6.2167   -2.7988    0.7324 O   0  0  0  0  0  0  0  0  0  0  0  0
    7.3156   -3.2999   -0.0256 C   0  0  0  0  0  0  0  0  0  0  0  0
    8.6220   -2.8676    0.6056 C   0  0  0  0  0  0  0  0  0  0  0  0
    8.7274   -2.6614    1.9873 C   0  0  0  0  0  0  0  0  0  0  0  0
    9.9440   -2.2896    2.5622 C   0  0  0  0  0  0  0  0  0  0  0  0
   11.0736   -2.1310    1.7621 C   0  0  0  0  0  0  0  0  0  0  0  0
   10.9854   -2.3388    0.3871 C   0  0  0  0  0  0  0  0  0  0  0  0
    9.7675   -2.7085   -0.1889 C   0  0  0  0  0  0  0  0  0  0  0  0
    4.2359   -1.4685    0.5671 C   0  0  0  0  0  0  0  0  0  0  0  0
    4.5717   -0.8626    1.9040 C   0  0  0  0  0  0  0  0  0  0  0  0
    5.2226   -1.5216    2.7155 O   0  0  0  0  0  0  0  0  0  0  0  0
    4.0521    0.3797    2.2269 N   0  0  0  0  0  0  0  0  0  0  0  0
    4.2491    1.0530    3.4141 C   0  0  0  0  0  0  0  0  0  0  0  0
    5.2864    0.8963    4.2495 C   0  0  0  0  0  0  0  0  0  0  0  0
    5.4987    1.5733    5.4144 N   0  0  0  0  0  0  0  0  0  0  0  0
    4.6112    2.4602    5.7511 C   0  0  0  0  0  0  0  0  0  0  0  0
    4.8288    3.2276    7.0051 C   0  0  0  0  0  0  0  0  0  0  0  0
    3.9322    4.1487    7.3863 C   0  0  0  0  0  0  0  0  0  0  0  0
    2.7615    4.3940    6.5886 C   0  0  0  0  0  0  0  0  0  0  0  0
    2.5666    3.7096    5.4525 C   0  0  0  0  0  0  0  0  0  0  0  0
    3.4703    2.7485    5.0109 N   0  0  0  0  0  0  0  0  0  0  0  0
    3.2159    2.0537    3.8264 C   0  0  0  0  0  0  0  0  0  0  0  0
    2.2065    2.1993    3.1268 O   0  0  0  0  0  0  0  0  0  0  0  0
    0.6215    1.0323    0.3026 H   0  0  0  0  0  0  0  0  0  0  0  0
    0.4521   -0.7320    0.3087 H   0  0  0  0  0  0  0  0  0  0  0  0
    0.8814    0.1628   -1.2022 H   0  0  0  0  0  0  0  0  0  0  0  0
    1.8672   -1.5566   -1.9154 H   0  0  0  0  0  0  0  0  0  0  0  0
    3.1949   -3.4741   -2.6133 H   0  0  0  0  0  0  0  0  0  0  0  0
    5.2289   -4.1040   -1.3987 H   0  0  0  0  0  0  0  0  0  0  0  0
    7.2871   -2.9241   -1.0616 H   0  0  0  0  0  0  0  0  0  0  0  0
    7.2759   -4.3974   -0.0343 H   0  0  0  0  0  0  0  0  0  0  0  0
    7.8531   -2.7745    2.6299 H   0  0  0  0  0  0  0  0  0  0  0  0
   10.0056   -2.1237    3.6345 H   0  0  0  0  0  0  0  0  0  0  0  0
   12.0199   -1.8429    2.2113 H   0  0  0  0  0  0  0  0  0  0  0  0
   11.8662   -2.2135   -0.2363 H   0  0  0  0  0  0  0  0  0  0  0  0
    9.7200   -2.8678   -1.2626 H   0  0  0  0  0  0  0  0  0  0  0  0
    3.3099    0.7321    1.6306 H   0  0  0  0  0  0  0  0  0  0  0  0
    6.0828    0.1916    4.0054 H   0  0  0  0  0  0  0  0  0  0  0  0
    5.7188    3.0095    7.5744 H   0  0  0  0  0  0  0  0  0  0  0  0
    4.0716    4.7212    8.2976 H   0  0  0  0  0  0  0  0  0  0  0  0
    2.0480    5.1399    6.9231 H   0  0  0  0  0  0  0  0  0  0  0  0
    1.6891    3.8775    4.8379 H   0  0  0  0  0  0  0  0  0  0  0  0
  1  2  1  0  0  0  0
  1 31  1  0  0  0  0
  1 32  1  0  0  0  0
  1 33  1  0  0  0  0
  2  3  1  0  0  0  0
  3  4  2  0  0  0  0
  3 16  1  0  0  0  0
  4  5  1  0  0  0  0
  4 34  1  0  0  0  0
  5  6  2  0  0  0  0
  5 35  1  0  0  0  0
  6  7  1  0  0  0  0
  6 36  1  0  0  0  0
  7  8  1  0  0  0  0
  7 16  2  0  0  0  0
  8  9  1  0  0  0  0
  9 10  1  0  0  0  0
  9 37  1  0  0  0  0
  9 38  1  0  0  0  0
 10 11  2  0  0  0  0
 10 15  1  0  0  0  0
 11 12  1  0  0  0  0
 11 39  1  0  0  0  0
 12 13  2  0  0  0  0
 12 40  1  0  0  0  0
 13 14  1  0  0  0  0
 13 41  1  0  0  0  0
 14 15  2  0  0  0  0
 14 42  1  0  0  0  0
 15 43  1  0  0  0  0
 16 17  1  0  0  0  0
 17 18  2  0  0  0  0
 17 19  1  0  0  0  0
 19 20  1  0  0  0  0
 19 44  1  0  0  0  0
 20 21  2  0  0  0  0
 20 29  1  0  0  0  0
 21 22  1  0  0  0  0
 21 45  1  0  0  0  0
 22 23  2  0  0  0  0
 23 24  1  0  0  0  0
 23 28  1  0  0  0  0
 24 25  2  0  0  0  0
 24 46  1  0  0  0  0
 25 26  1  0  0  0  0
 25 47  1  0  0  0  0
 26 27  2  0  0  0  0
 26 48  1  0  0  0  0
 27 28  1  0  0  0  0
 27 49  1  0  0  0  0
 28 29  1  0  0  0  0
 29 30  2  0  0  0  0
M  END
$$$$
