
 OpenBabel01122422503D

 45 48  0  0  0  0  0  0  0  0999 V2000
    3.4232   -3.0278   -1.5218 N   0  0  0  0  0  0  0  0  0  0  0  0
    4.3477   -3.2565   -0.5423 C   0  0  0  0  0  0  0  0  0  0  0  0
    5.0858   -4.2326   -0.5894 O   0  0  0  0  0  0  0  0  0  0  0  0
    4.4434   -2.2602    0.5558 C   0  0  0  0  0  0  0  0  0  0  0  0
    3.3649   -1.4493    0.9242 C   0  0  0  0  0  0  0  0  0  0  0  0
    3.4972   -0.5586    1.9911 C   0  0  0  0  0  0  0  0  0  0  0  0
    4.7003   -0.4809    2.6972 C   0  0  0  0  0  0  0  0  0  0  0  0
    5.7910   -1.2869    2.3397 C   0  0  0  0  0  0  0  0  0  0  0  0
    7.0853   -1.2857    3.1210 C   0  0  0  0  0  0  0  0  0  0  0  0
    7.3617    0.0218    3.6103 O   0  0  0  0  0  0  0  0  0  0  0  0
    8.6531    0.2471    3.9923 C   0  0  0  0  0  0  0  0  0  0  0  0
    9.0277    1.5794    3.9505 C   0  0  0  0  0  0  0  0  0  0  0  0
   10.3117    1.9462    4.3319 C   0  0  0  0  0  0  0  0  0  0  0  0
   11.2433    1.0163    4.8437 C   0  0  0  0  0  0  0  0  0  0  0  0
   12.5009    1.5400    5.4329 C   0  0  0  0  0  0  0  0  0  0  0  0
   12.4078    2.7762    6.1164 C   0  0  0  0  0  0  0  0  0  0  0  0
   13.5212    3.4618    6.5662 C   0  0  0  0  0  0  0  0  0  0  0  0
   14.7590    2.8703    6.4419 C   0  0  0  0  0  0  0  0  0  0  0  0
   15.8294    3.6132    6.9367 O   0  0  0  0  0  0  0  0  0  0  0  0
   17.0186    2.9596    7.2099 C   0  0  0  0  0  0  0  0  0  0  0  0
   17.9185    3.5136    7.8311 O   0  0  0  0  0  0  0  0  0  0  0  0
   17.1372    1.6755    6.7525 N   0  0  0  0  0  0  0  0  0  0  0  0
   16.2028    0.9704    6.0311 C   0  0  0  0  0  0  0  0  0  0  0  0
   16.4398   -0.1444    5.5651 O   0  0  0  0  0  0  0  0  0  0  0  0
   14.8835    1.5977    5.9103 C   0  0  0  0  0  0  0  0  0  0  0  0
   13.7657    0.9320    5.3678 C   0  0  0  0  0  0  0  0  0  0  0  0
   10.8653   -0.3302    4.8451 C   0  0  0  0  0  0  0  0  0  0  0  0
    9.5760   -0.7117    4.4244 C   0  0  0  0  0  0  0  0  0  0  0  0
    5.6465   -2.1796    1.2674 C   0  0  0  0  0  0  0  0  0  0  0  0
    3.4371   -3.6663   -2.3068 H   0  0  0  0  0  0  0  0  0  0  0  0
    2.9812   -2.1299   -1.6527 H   0  0  0  0  0  0  0  0  0  0  0  0
    2.4074   -1.5240    0.4182 H   0  0  0  0  0  0  0  0  0  0  0  0
    2.6554    0.0634    2.2869 H   0  0  0  0  0  0  0  0  0  0  0  0
    4.7792    0.2087    3.5364 H   0  0  0  0  0  0  0  0  0  0  0  0
    7.8955   -1.6102    2.4561 H   0  0  0  0  0  0  0  0  0  0  0  0
    6.9850   -1.9818    3.9612 H   0  0  0  0  0  0  0  0  0  0  0  0
    8.3234    2.3409    3.6268 H   0  0  0  0  0  0  0  0  0  0  0  0
   10.5680    3.0020    4.2585 H   0  0  0  0  0  0  0  0  0  0  0  0
   11.4369    3.2292    6.3052 H   0  0  0  0  0  0  0  0  0  0  0  0
   13.4110    4.4353    7.0339 H   0  0  0  0  0  0  0  0  0  0  0  0
   18.0214    1.2314    6.9452 H   0  0  0  0  0  0  0  0  0  0  0  0
   13.8966   -0.0460    4.9074 H   0  0  0  0  0  0  0  0  0  0  0  0
   11.5406   -1.1009    5.2107 H   0  0  0  0  0  0  0  0  0  0  0  0
    9.3044   -1.7624    4.4807 H   0  0  0  0  0  0  0  0  0  0  0  0
    6.4768   -2.8251    0.9831 H   0  0  0  0  0  0  0  0  0  0  0  0
  1  2  1  0  0  0  0
  1 30  1  0  0  0  0
  1 31  1  0  0  0  0
  2  3  2  0  0  0  0
  2  4  1  0  0  0  0
  4  5  2  0  0  0  0
  4 29  1  0  0  0  0
  5  6  1  0  0  0  0
  5 32  1  0  0  0  0
  6  7  2  0  0  0  0
  6 33  1  0  0  0  0
  7  8  1  0  0  0  0
  7 34  1  0  0  0  0
  8  9  1  0  0  0  0
  8 29  2  0  0  0  0
  9 10  1  0  0  0  0
  9 35  1  0  0  0  0
  9 36  1  0  0  0  0
 10 11  1  0  0  0  0
 11 12  2  0  0  0  0
 11 28  1  0  0  0  0
 12 13  1  0  0  0  0
 12 37  1  0  0  0  0
 13 14  2  0  0  0  0
 13 38  1  0  0  0  0
 14 15  1  0  0  0  0
 14 27  1  0  0  0  0
 15 16  2  0  0  0  0
 15 26  1  0  0  0  0
 16 17  1  0  0  0  0
 16 39  1  0  0  0  0
 17 18  2  0  0  0  0
 17 40  1  0  0  0  0
 18 19  1  0  0  0  0
 18 25  1  0  0  0  0
 19 20  1  0  0  0  0
 20 21  2  0  0  0  0
 20 22  1  0  0  0  0
 22 23  1  0  0  0  0
 22 41  1  0  0  0  0
 23 24  2  0  0  0  0
 23 25  1  0  0  0  0
 25 26  2  0  0  0  0
 26 42  1  0  0  0  0
 27 28  2  0  0  0  0
 27 43  1  0  0  0  0
 28 44  1  0  0  0  0
 29 45  1  0  0  0  0
M  END
$$$$
