
 OpenBabel01122422503D

 41 44  0  0  0  0  0  0  0  0999 V2000
    5.0628    2.2910    0.8348 O   0  0  0  0  0  0  0  0  0  0  0  0
    4.4696    1.3166    0.3785 C   0  0  0  0  0  0  0  0  0  0  0  0
    3.1983    0.9393    0.7705 N   0  0  0  0  0  0  0  0  0  0  0  0
    2.3372    1.7390    1.5152 C   0  0  0  0  0  0  0  0  0  0  0  0
    2.4267    3.0765    1.5928 C   0  0  0  0  0  0  0  0  0  0  0  0
    1.5498    3.8455    2.4261 C   0  0  0  0  0  0  0  0  0  0  0  0
    0.6612    3.2245    3.2035 C   0  0  0  0  0  0  0  0  0  0  0  0
    0.4933    1.8443    3.1780 N   0  0  0  0  0  0  0  0  0  0  0  0
   -0.3836    1.2278    4.1232 C   0  0  0  0  0  0  0  0  0  0  0  0
   -0.2933    1.5853    5.4793 C   0  0  0  0  0  0  0  0  0  0  0  0
   -1.1129    0.9808    6.4326 C   0  0  0  0  0  0  0  0  0  0  0  0
   -2.0605    0.0426    6.0332 C   0  0  0  0  0  0  0  0  0  0  0  0
   -2.1798   -0.2980    4.6853 C   0  0  0  0  0  0  0  0  0  0  0  0
   -1.3326    0.2783    3.7339 C   0  0  0  0  0  0  0  0  0  0  0  0
    1.2302    1.0359    2.2857 C   0  0  0  0  0  0  0  0  0  0  0  0
    1.1126   -0.1829    2.1296 O   0  0  0  0  0  0  0  0  0  0  0  0
    5.1591    0.5277   -0.6868 C   0  0  0  0  0  0  0  0  0  0  0  0
    6.4594    0.9346   -1.0234 C   0  0  0  0  0  0  0  0  0  0  0  0
    7.0753    0.4970   -2.2046 C   0  0  0  0  0  0  0  0  0  0  0  0
    8.3158    1.0159   -2.5963 C   0  0  0  0  0  0  0  0  0  0  0  0
    8.8383    0.6860   -3.8376 C   0  0  0  0  0  0  0  0  0  0  0  0
    8.1178   -0.1876   -4.6271 C   0  0  0  0  0  0  0  0  0  0  0  0
    6.9525   -0.7608   -4.2488 N   0  0  0  0  0  0  0  0  0  0  0  0
    6.4212   -0.4155   -3.0542 C   0  0  0  0  0  0  0  0  0  0  0  0
    5.1813   -0.9015   -2.6230 C   0  0  0  0  0  0  0  0  0  0  0  0
    4.5292   -1.8072   -3.3726 F   0  0  0  0  0  0  0  0  0  0  0  0
    4.5350   -0.4377   -1.4686 C   0  0  0  0  0  0  0  0  0  0  0  0
    2.9064   -0.0314    0.6914 H   0  0  0  0  0  0  0  0  0  0  0  0
    3.1750    3.6374    1.0430 H   0  0  0  0  0  0  0  0  0  0  0  0
    1.6549    4.9251    2.4352 H   0  0  0  0  0  0  0  0  0  0  0  0
    0.0064    3.7938    3.8574 H   0  0  0  0  0  0  0  0  0  0  0  0
    0.4601    2.2949    5.8128 H   0  0  0  0  0  0  0  0  0  0  0  0
   -1.0012    1.2341    7.4839 H   0  0  0  0  0  0  0  0  0  0  0  0
   -2.7024   -0.4288    6.7730 H   0  0  0  0  0  0  0  0  0  0  0  0
   -2.9313   -1.0189    4.3737 H   0  0  0  0  0  0  0  0  0  0  0  0
   -1.4451    0.0042    2.6881 H   0  0  0  0  0  0  0  0  0  0  0  0
    6.9664    1.6759   -0.4036 H   0  0  0  0  0  0  0  0  0  0  0  0
    8.8558    1.7115   -1.9576 H   0  0  0  0  0  0  0  0  0  0  0  0
    9.7701    1.1168   -4.1861 H   0  0  0  0  0  0  0  0  0  0  0  0
    8.4607   -0.4516   -5.6237 H   0  0  0  0  0  0  0  0  0  0  0  0
    3.5371   -0.8055   -1.2656 H   0  0  0  0  0  0  0  0  0  0  0  0
  1  2  2  0  0  0  0
  2  3  1  0  0  0  0
  2 17  1  0  0  0  0
  3  4  1  0  0  0  0
  3 28  1  0  0  0  0
  4  5  2  0  0  0  0
  4 15  1  0  0  0  0
  5  6  1  0  0  0  0
  5 29  1  0  0  0  0
  6  7  2  0  0  0  0
  6 30  1  0  0  0  0
  7  8  1  0  0  0  0
  7 31  1  0  0  0  0
  8  9  1  0  0  0  0
  8 15  1  0  0  0  0
  9 10  2  0  0  0  0
  9 14  1  0  0  0  0
 10 11  1  0  0  0  0
 10 32  1  0  0  0  0
 11 12  2  0  0  0  0
 11 33  1  0  0  0  0
 12 13  1  0  0  0  0
 12 34  1  0  0  0  0
 13 14  2  0  0  0  0
 13 35  1  0  0  0  0
 14 36  1  0  0  0  0
 15 16  2  0  0  0  0
 17 18  2  0  0  0  0
 17 27  1  0  0  0  0
 18 19  1  0  0  0  0
 18 37  1  0  0  0  0
 19 20  2  0  0  0  0
 19 24  1  0  0  0  0
 20 21  1  0  0  0  0
 20 38  1  0  0  0  0
 21 22  2  0  0  0  0
 21 39  1  0  0  0  0
 22 23  1  0  0  0  0
 22 40  1  0  0  0  0
 23 24  2  0  0  0  0
 24 25  1  0  0  0  0
 25 26  1  0  0  0  0
 25 27  2  0  0  0  0
 27 41  1  0  0  0  0
M  END
$$$$
