
 OpenBabel01122422463D

 44 47  0  0  0  0  0  0  0  0999 V2000
    1.2890    0.8082   -0.7498 C   0  0  0  0  0  0  0  0  0  0  0  0
    2.5863    0.2559   -0.3588 N   0  0  0  0  0  0  0  0  0  0  0  0
    3.2229    0.6849    0.8397 C   0  0  0  0  0  0  0  0  0  0  0  0
    4.3191    0.2719    1.2185 O   0  0  0  0  0  0  0  0  0  0  0  0
    2.5195    1.6529    1.7800 C   0  0  0  0  0  0  0  0  0  0  0  0
    1.2174    1.5584    1.9143 N   0  0  0  0  0  0  0  0  0  0  0  0
    0.5722    2.4599    2.7381 N   0  0  0  0  0  0  0  0  0  0  0  0
   -0.8600    2.4310    2.6826 C   0  0  0  0  0  0  0  0  0  0  0  0
   -1.5432    1.2383    2.3817 C   0  0  0  0  0  0  0  0  0  0  0  0
   -2.9435    1.1838    2.3760 C   0  0  0  0  0  0  0  0  0  0  0  0
   -3.6958    2.3238    2.6486 C   0  0  0  0  0  0  0  0  0  0  0  0
   -3.0469    3.5240    2.9101 C   0  0  0  0  0  0  0  0  0  0  0  0
   -1.6519    3.5715    2.9209 C   0  0  0  0  0  0  0  0  0  0  0  0
   -1.0840    4.7696    3.1374 F   0  0  0  0  0  0  0  0  0  0  0  0
    1.2665    3.3187    3.5653 C   0  0  0  0  0  0  0  0  0  0  0  0
    2.5900    3.4579    3.5850 C   0  0  0  0  0  0  0  0  0  0  0  0
    3.3205    2.6499    2.6045 C   0  0  0  0  0  0  0  0  0  0  0  0
    4.5246    2.7888    2.4601 O   0  0  0  0  0  0  0  0  0  0  0  0
    3.0330   -0.9224   -0.9833 C   0  0  0  0  0  0  0  0  0  0  0  0
    2.2326   -1.6632   -1.7752 C   0  0  0  0  0  0  0  0  0  0  0  0
    2.5544   -3.0764   -1.9939 C   0  0  0  0  0  0  0  0  0  0  0  0
    1.5508   -3.9599   -2.4024 C   0  0  0  0  0  0  0  0  0  0  0  0
    1.7476   -5.3364   -2.2821 C   0  0  0  0  0  0  0  0  0  0  0  0
    2.9590   -5.8353   -1.7984 C   0  0  0  0  0  0  0  0  0  0  0  0
    3.9953   -4.9615   -1.4701 C   0  0  0  0  0  0  0  0  0  0  0  0
    3.7839   -3.5845   -1.5633 C   0  0  0  0  0  0  0  0  0  0  0  0
    4.7856   -2.6358   -1.0339 C   0  0  0  0  0  0  0  0  0  0  0  0
    5.9468   -2.9727   -0.8378 O   0  0  0  0  0  0  0  0  0  0  0  0
    4.2965   -1.3933   -0.7091 N   0  0  0  0  0  0  0  0  0  0  0  0
    1.1845    1.8524   -0.4477 H   0  0  0  0  0  0  0  0  0  0  0  0
    0.4957    0.2054   -0.2896 H   0  0  0  0  0  0  0  0  0  0  0  0
    1.1742    0.7988   -1.8394 H   0  0  0  0  0  0  0  0  0  0  0  0
   -0.9845    0.3267    2.1825 H   0  0  0  0  0  0  0  0  0  0  0  0
   -3.4436    0.2401    2.1715 H   0  0  0  0  0  0  0  0  0  0  0  0
   -4.7831    2.2747    2.6542 H   0  0  0  0  0  0  0  0  0  0  0  0
   -3.6150    4.4286    3.1054 H   0  0  0  0  0  0  0  0  0  0  0  0
    0.6602    3.8934    4.2590 H   0  0  0  0  0  0  0  0  0  0  0  0
    3.1307    4.1219    4.2400 H   0  0  0  0  0  0  0  0  0  0  0  0
    1.2382   -1.3594   -2.0737 H   0  0  0  0  0  0  0  0  0  0  0  0
    0.5839   -3.5902   -2.7350 H   0  0  0  0  0  0  0  0  0  0  0  0
    0.9355   -6.0199   -2.5193 H   0  0  0  0  0  0  0  0  0  0  0  0
    3.0846   -6.9044   -1.6470 H   0  0  0  0  0  0  0  0  0  0  0  0
    4.9306   -5.3444   -1.0686 H   0  0  0  0  0  0  0  0  0  0  0  0
    4.9183   -0.8069   -0.1543 H   0  0  0  0  0  0  0  0  0  0  0  0
  1  2  1  0  0  0  0
  1 30  1  0  0  0  0
  1 31  1  0  0  0  0
  1 32  1  0  0  0  0
  2  3  1  0  0  0  0
  2 19  1  0  0  0  0
  3  4  2  0  0  0  0
  3  5  1  0  0  0  0
  5  6  2  0  0  0  0
  5 17  1  0  0  0  0
  6  7  1  0  0  0  0
  7  8  1  0  0  0  0
  7 15  1  0  0  0  0
  8  9  2  0  0  0  0
  8 13  1  0  0  0  0
  9 10  1  0  0  0  0
  9 33  1  0  0  0  0
 10 11  2  0  0  0  0
 10 34  1  0  0  0  0
 11 12  1  0  0  0  0
 11 35  1  0  0  0  0
 12 13  2  0  0  0  0
 12 36  1  0  0  0  0
 13 14  1  0  0  0  0
 15 16  2  0  0  0  0
 15 37  1  0  0  0  0
 16 17  1  0  0  0  0
 16 38  1  0  0  0  0
 17 18  2  0  0  0  0
 19 20  2  0  0  0  0
 19 29  1  0  0  0  0
 20 21  1  0  0  0  0
 20 39  1  0  0  0  0
 21 22  2  0  0  0  0
 21 26  1  0  0  0  0
 22 23  1  0  0  0  0
 22 40  1  0  0  0  0
 23 24  2  0  0  0  0
 23 41  1  0  0  0  0
 24 25  1  0  0  0  0
 24 42  1  0  0  0  0
 25 26  2  0  0  0  0
 25 43  1  0  0  0  0
 26 27  1  0  0  0  0
 27 28  2  0  0  0  0
 27 29  1  0  0  0  0
 29 44  1  0  0  0  0
M  END
$$$$
