
 OpenBabel01122422503D

 41 44  0  0  0  0  0  0  0  0999 V2000
    5.3985    0.3347   -1.1298 O   0  0  0  0  0  0  0  0  0  0  0  0
    4.6499    0.5846   -0.1825 C   0  0  0  0  0  0  0  0  0  0  0  0
    3.3289    1.0424   -0.3183 N   0  0  0  0  0  0  0  0  0  0  0  0
    2.5638    1.1398   -1.4865 C   0  0  0  0  0  0  0  0  0  0  0  0
    1.3089    1.6953   -1.4925 C   0  0  0  0  0  0  0  0  0  0  0  0
    0.4809    1.8205   -2.6395 N   0  0  0  0  0  0  0  0  0  0  0  0
   -0.8414    2.4796   -2.5869 C   0  0  0  0  0  0  0  0  0  0  0  0
   -1.8274    2.2733   -3.5727 C   0  0  0  0  0  0  0  0  0  0  0  0
   -3.0470    2.9650   -3.5805 C   0  0  0  0  0  0  0  0  0  0  0  0
   -3.3406    3.8686   -2.5670 C   0  0  0  0  0  0  0  0  0  0  0  0
   -2.4155    4.0583   -1.5476 C   0  0  0  0  0  0  0  0  0  0  0  0
   -1.1881    3.3685   -1.5491 C   0  0  0  0  0  0  0  0  0  0  0  0
    0.9543    1.3842   -3.9011 C   0  0  0  0  0  0  0  0  0  0  0  0
    0.4276    1.5204   -5.0005 O   0  0  0  0  0  0  0  0  0  0  0  0
    2.2808    0.7130   -3.8830 C   0  0  0  0  0  0  0  0  0  0  0  0
    3.0153    0.6247   -2.7722 C   0  0  0  0  0  0  0  0  0  0  0  0
    5.2015    0.2591    1.2045 C   0  0  0  0  0  0  0  0  0  0  0  0
    4.6585    0.6609    2.4465 C   0  0  0  0  0  0  0  0  0  0  0  0
    5.0978    1.7529    3.2451 C   0  0  0  0  0  0  0  0  0  0  0  0
    4.6033    1.9445    4.5589 C   0  0  0  0  0  0  0  0  0  0  0  0
    3.5764    1.1384    5.0311 C   0  0  0  0  0  0  0  0  0  0  0  0
    3.3164   -0.0202    4.3325 C   0  0  0  0  0  0  0  0  0  0  0  0
    2.4319   -0.9095    4.7991 F   0  0  0  0  0  0  0  0  0  0  0  0
    4.1167   -0.3289    3.2419 C   0  0  0  0  0  0  0  0  0  0  0  0
    4.7891   -1.5448    3.1914 C   0  0  0  0  0  0  0  0  0  0  0  0
    5.7212   -1.8509    2.2610 N   0  0  0  0  0  0  0  0  0  0  0  0
    5.8298   -0.9848    1.2288 C   0  0  0  0  0  0  0  0  0  0  0  0
    2.8555    1.3056    0.5368 H   0  0  0  0  0  0  0  0  0  0  0  0
    0.8844    2.0424   -0.5555 H   0  0  0  0  0  0  0  0  0  0  0  0
   -1.6844    1.5541   -4.3808 H   0  0  0  0  0  0  0  0  0  0  0  0
   -3.7659    2.7940   -4.3808 H   0  0  0  0  0  0  0  0  0  0  0  0
   -4.2747    4.4220   -2.5800 H   0  0  0  0  0  0  0  0  0  0  0  0
   -2.6400    4.7630   -0.7498 H   0  0  0  0  0  0  0  0  0  0  0  0
   -0.4998    3.6009   -0.7463 H   0  0  0  0  0  0  0  0  0  0  0  0
    2.6065    0.3156   -4.8361 H   0  0  0  0  0  0  0  0  0  0  0  0
    3.9561    0.0991   -2.8402 H   0  0  0  0  0  0  0  0  0  0  0  0
    5.9586    2.3468    2.9358 H   0  0  0  0  0  0  0  0  0  0  0  0
    5.0476    2.6830    5.2247 H   0  0  0  0  0  0  0  0  0  0  0  0
    3.0947    1.3032    5.9912 H   0  0  0  0  0  0  0  0  0  0  0  0
    4.7202   -2.2411    4.0233 H   0  0  0  0  0  0  0  0  0  0  0  0
    6.3584   -1.3819    0.3657 H   0  0  0  0  0  0  0  0  0  0  0  0
  1  2  2  0  0  0  0
  2  3  1  0  0  0  0
  2 17  1  0  0  0  0
  3  4  1  0  0  0  0
  3 28  1  0  0  0  0
  4  5  2  0  0  0  0
  4 16  1  0  0  0  0
  5  6  1  0  0  0  0
  5 29  1  0  0  0  0
  6  7  1  0  0  0  0
  6 13  1  0  0  0  0
  7  8  2  0  0  0  0
  7 12  1  0  0  0  0
  8  9  1  0  0  0  0
  8 30  1  0  0  0  0
  9 10  2  0  0  0  0
  9 31  1  0  0  0  0
 10 11  1  0  0  0  0
 10 32  1  0  0  0  0
 11 12  2  0  0  0  0
 11 33  1  0  0  0  0
 12 34  1  0  0  0  0
 13 14  2  0  0  0  0
 13 15  1  0  0  0  0
 15 16  2  0  0  0  0
 15 35  1  0  0  0  0
 16 36  1  0  0  0  0
 17 18  2  0  0  0  0
 17 27  1  0  0  0  0
 18 19  1  0  0  0  0
 18 24  1  0  0  0  0
 19 20  2  0  0  0  0
 19 37  1  0  0  0  0
 20 21  1  0  0  0  0
 20 38  1  0  0  0  0
 21 22  2  0  0  0  0
 21 39  1  0  0  0  0
 22 23  1  0  0  0  0
 22 24  1  0  0  0  0
 24 25  2  0  0  0  0
 25 26  1  0  0  0  0
 25 40  1  0  0  0  0
 26 27  2  0  0  0  0
 27 41  1  0  0  0  0
M  END
$$$$
