
 OpenBabel01122422503D

 42 45  0  0  0  0  0  0  0  0999 V2000
    2.2513    0.0548    0.0025 C   0  0  0  0  0  0  0  0  0  0  0  0
    0.8044   -0.0589   -0.0117 N   0  0  0  0  0  0  0  0  0  0  0  0
    0.0735   -1.2468   -0.0001 C   0  0  0  0  0  0  0  0  0  0  0  0
    0.6082   -2.6122    0.0736 C   0  0  0  0  0  0  0  0  0  0  0  0
    1.7862   -2.9042   -0.1163 O   0  0  0  0  0  0  0  0  0  0  0  0
   -0.3576   -3.5603    0.3475 N   0  0  0  0  0  0  0  0  0  0  0  0
   -0.1275   -4.9026    0.2496 C   0  0  0  0  0  0  0  0  0  0  0  0
   -1.0296   -5.7444   -0.1938 N   0  0  0  0  0  0  0  0  0  0  0  0
   -0.4123   -6.9637   -0.2085 C   0  0  0  0  0  0  0  0  0  0  0  0
    0.8436   -6.8910    0.3898 C   0  0  0  0  0  0  0  0  0  0  0  0
    1.6402   -8.0163    0.6164 C   0  0  0  0  0  0  0  0  0  0  0  0
    1.1403   -9.2301    0.1338 C   0  0  0  0  0  0  0  0  0  0  0  0
    1.8673  -10.3426    0.3113 F   0  0  0  0  0  0  0  0  0  0  0  0
   -0.0803   -9.3080   -0.5340 C   0  0  0  0  0  0  0  0  0  0  0  0
   -0.5000  -10.4821   -1.0264 F   0  0  0  0  0  0  0  0  0  0  0  0
   -0.8856   -8.1854   -0.7033 C   0  0  0  0  0  0  0  0  0  0  0  0
    1.0244   -5.5461    0.6227 N   0  0  0  0  0  0  0  0  0  0  0  0
   -1.2604   -0.8654   -0.0885 C   0  0  0  0  0  0  0  0  0  0  0  0
   -1.3331    0.5354   -0.1096 C   0  0  0  0  0  0  0  0  0  0  0  0
   -0.0515    1.0416    0.0115 C   0  0  0  0  0  0  0  0  0  0  0  0
    0.3430    2.4479    0.1120 C   0  0  0  0  0  0  0  0  0  0  0  0
    1.4542    2.8637   -0.2064 O   0  0  0  0  0  0  0  0  0  0  0  0
   -0.6630    3.4560    0.5651 C   0  0  0  0  0  0  0  0  0  0  0  0
   -0.7409    4.6952   -0.0809 C   0  0  0  0  0  0  0  0  0  0  0  0
   -1.7501    5.6022    0.2640 C   0  0  0  0  0  0  0  0  0  0  0  0
   -2.6807    5.2750    1.2529 C   0  0  0  0  0  0  0  0  0  0  0  0
   -2.5763    4.0635    1.9313 C   0  0  0  0  0  0  0  0  0  0  0  0
   -1.5543    3.1742    1.6073 C   0  0  0  0  0  0  0  0  0  0  0  0
   -1.4611    2.0428    2.3188 F   0  0  0  0  0  0  0  0  0  0  0  0
    2.7195   -0.8850    0.2851 H   0  0  0  0  0  0  0  0  0  0  0  0
    2.5425    0.8001    0.7460 H   0  0  0  0  0  0  0  0  0  0  0  0
    2.5771    0.3497   -0.9984 H   0  0  0  0  0  0  0  0  0  0  0  0
   -1.3293   -3.3143    0.2567 H   0  0  0  0  0  0  0  0  0  0  0  0
    2.5959   -7.9689    1.1240 H   0  0  0  0  0  0  0  0  0  0  0  0
   -1.8383   -8.2471   -1.2130 H   0  0  0  0  0  0  0  0  0  0  0  0
    1.8381   -5.0970    1.0190 H   0  0  0  0  0  0  0  0  0  0  0  0
   -2.1240   -1.5151   -0.1348 H   0  0  0  0  0  0  0  0  0  0  0  0
   -2.2464    1.1141   -0.1665 H   0  0  0  0  0  0  0  0  0  0  0  0
   -0.0266    4.9555   -0.8591 H   0  0  0  0  0  0  0  0  0  0  0  0
   -1.8186    6.5608   -0.2443 H   0  0  0  0  0  0  0  0  0  0  0  0
   -3.4864    5.9642    1.4958 H   0  0  0  0  0  0  0  0  0  0  0  0
   -3.2870    3.7969    2.7090 H   0  0  0  0  0  0  0  0  0  0  0  0
  1  2  1  0  0  0  0
  1 30  1  0  0  0  0
  1 31  1  0  0  0  0
  1 32  1  0  0  0  0
  2  3  1  0  0  0  0
  2 20  1  0  0  0  0
  3  4  1  0  0  0  0
  3 18  2  0  0  0  0
  4  5  2  0  0  0  0
  4  6  1  0  0  0  0
  6  7  1  0  0  0  0
  6 33  1  0  0  0  0
  7  8  2  0  0  0  0
  7 17  1  0  0  0  0
  8  9  1  0  0  0  0
  9 10  2  0  0  0  0
  9 16  1  0  0  0  0
 10 11  1  0  0  0  0
 10 17  1  0  0  0  0
 11 12  2  0  0  0  0
 11 34  1  0  0  0  0
 12 13  1  0  0  0  0
 12 14  1  0  0  0  0
 14 15  1  0  0  0  0
 14 16  2  0  0  0  0
 16 35  1  0  0  0  0
 17 36  1  0  0  0  0
 18 19  1  0  0  0  0
 18 37  1  0  0  0  0
 19 20  2  0  0  0  0
 19 38  1  0  0  0  0
 20 21  1  0  0  0  0
 21 22  2  0  0  0  0
 21 23  1  0  0  0  0
 23 24  2  0  0  0  0
 23 28  1  0  0  0  0
 24 25  1  0  0  0  0
 24 39  1  0  0  0  0
 25 26  2  0  0  0  0
 25 40  1  0  0  0  0
 26 27  1  0  0  0  0
 26 41  1  0  0  0  0
 27 28  2  0  0  0  0
 27 42  1  0  0  0  0
 28 29  1  0  0  0  0
M  END
$$$$
