
 OpenBabel01122422503D

 42 45  0  0  0  0  0  0  0  0999 V2000
    1.1489   -0.0182   -0.5661 O   0  0  0  0  0  0  0  0  0  0  0  0
    2.2742    0.0632   -0.0989 C   0  0  0  0  0  0  0  0  0  0  0  0
    2.8636   -0.8193    0.8024 N   0  0  0  0  0  0  0  0  0  0  0  0
    2.2532   -1.9889    1.2950 C   0  0  0  0  0  0  0  0  0  0  0  0
    1.1456   -2.5489    0.6688 C   0  0  0  0  0  0  0  0  0  0  0  0
    0.5594   -3.7379    1.1134 C   0  0  0  0  0  0  0  0  0  0  0  0
   -0.4911   -4.3848    0.3173 C   0  0  0  0  0  0  0  0  0  0  0  0
   -0.4820   -4.2601   -1.0849 C   0  0  0  0  0  0  0  0  0  0  0  0
   -1.4325   -4.8971   -1.8735 C   0  0  0  0  0  0  0  0  0  0  0  0
   -2.4116   -5.6816   -1.2733 C   0  0  0  0  0  0  0  0  0  0  0  0
   -2.4412   -5.8189    0.1135 C   0  0  0  0  0  0  0  0  0  0  0  0
   -1.4907   -5.1737    0.9043 C   0  0  0  0  0  0  0  0  0  0  0  0
    1.0815   -4.3365    2.2641 C   0  0  0  0  0  0  0  0  0  0  0  0
    2.2064   -3.8084    2.9101 C   0  0  0  0  0  0  0  0  0  0  0  0
    2.8124   -4.5520    4.0759 C   0  0  0  0  0  0  0  0  0  0  0  0
    2.1494   -5.7058    4.3707 F   0  0  0  0  0  0  0  0  0  0  0  0
    4.1040   -4.9119    3.8435 F   0  0  0  0  0  0  0  0  0  0  0  0
    2.8263   -3.8218    5.2225 F   0  0  0  0  0  0  0  0  0  0  0  0
    2.7918   -2.6282    2.4157 C   0  0  0  0  0  0  0  0  0  0  0  0
    3.0913    1.1976   -0.4381 C   0  0  0  0  0  0  0  0  0  0  0  0
    2.7789    2.2600   -1.2631 C   0  0  0  0  0  0  0  0  0  0  0  0
    1.6235    2.5385   -1.9686 N   0  0  0  0  0  0  0  0  0  0  0  0
    1.5201    3.7487   -2.7428 C   0  0  0  0  0  0  0  0  0  0  0  0
    0.5036    3.9804   -3.3415 O   0  0  0  0  0  0  0  0  0  0  0  0
    2.7243    4.6292   -2.7091 C   0  0  0  0  0  0  0  0  0  0  0  0
    3.8092    4.3039   -1.9906 C   0  0  0  0  0  0  0  0  0  0  0  0
    3.8596    3.1289   -1.2523 N   0  0  0  0  0  0  0  0  0  0  0  0
    4.8420    2.6763   -0.4443 N   0  0  0  0  0  0  0  0  0  0  0  0
    4.3665    1.5445    0.0497 C   0  0  0  0  0  0  0  0  0  0  0  0
    3.7253   -0.5535    1.2554 H   0  0  0  0  0  0  0  0  0  0  0  0
    0.7371   -2.0966   -0.2274 H   0  0  0  0  0  0  0  0  0  0  0  0
    0.2853   -3.6724   -1.5797 H   0  0  0  0  0  0  0  0  0  0  0  0
   -1.4006   -4.7865   -2.9542 H   0  0  0  0  0  0  0  0  0  0  0  0
   -3.1479   -6.1868   -1.8864 H   0  0  0  0  0  0  0  0  0  0  0  0
   -3.2104   -6.4325    0.5808 H   0  0  0  0  0  0  0  0  0  0  0  0
   -1.5399   -5.2930    1.9829 H   0  0  0  0  0  0  0  0  0  0  0  0
    0.6404   -5.2639    2.6253 H   0  0  0  0  0  0  0  0  0  0  0  0
    3.6669   -2.2281    2.9207 H   0  0  0  0  0  0  0  0  0  0  0  0
    0.8099    1.9249   -1.9300 H   0  0  0  0  0  0  0  0  0  0  0  0
    2.6599    5.5431   -3.2876 H   0  0  0  0  0  0  0  0  0  0  0  0
    4.6913    4.9322   -1.9325 H   0  0  0  0  0  0  0  0  0  0  0  0
    4.9623    1.0063    0.7788 H   0  0  0  0  0  0  0  0  0  0  0  0
  1  2  2  0  0  0  0
  2  3  1  0  0  0  0
  2 20  1  0  0  0  0
  3  4  1  0  0  0  0
  3 30  1  0  0  0  0
  4  5  2  0  0  0  0
  4 19  1  0  0  0  0
  5  6  1  0  0  0  0
  5 31  1  0  0  0  0
  6  7  1  0  0  0  0
  6 13  2  0  0  0  0
  7  8  2  0  0  0  0
  7 12  1  0  0  0  0
  8  9  1  0  0  0  0
  8 32  1  0  0  0  0
  9 10  2  0  0  0  0
  9 33  1  0  0  0  0
 10 11  1  0  0  0  0
 10 34  1  0  0  0  0
 11 12  2  0  0  0  0
 11 35  1  0  0  0  0
 12 36  1  0  0  0  0
 13 14  1  0  0  0  0
 13 37  1  0  0  0  0
 14 15  1  0  0  0  0
 14 19  2  0  0  0  0
 15 16  1  0  0  0  0
 15 17  1  0  0  0  0
 15 18  1  0  0  0  0
 19 38  1  0  0  0  0
 20 21  2  0  0  0  0
 20 29  1  0  0  0  0
 21 22  1  0  0  0  0
 21 27  1  0  0  0  0
 22 23  1  0  0  0  0
 22 39  1  0  0  0  0
 23 24  2  0  0  0  0
 23 25  1  0  0  0  0
 25 26  2  0  0  0  0
 25 40  1  0  0  0  0
 26 27  1  0  0  0  0
 26 41  1  0  0  0  0
 27 28  1  0  0  0  0
 28 29  2  0  0  0  0
 29 42  1  0  0  0  0
M  END
$$$$
