
 OpenBabel01122422503D

 46 48  0  0  0  0  0  0  0  0999 V2000
    1.4245   -0.3039    1.1854 C   0  0  0  0  0  0  0  0  0  0  0  0
    2.4501   -0.0594    0.2232 O   0  0  0  0  0  0  0  0  0  0  0  0
    3.0845    1.1515    0.3047 C   0  0  0  0  0  0  0  0  0  0  0  0
    2.7243    2.1081    1.2477 C   0  0  0  0  0  0  0  0  0  0  0  0
    3.4144    3.3068    1.3555 C   0  0  0  0  0  0  0  0  0  0  0  0
    4.5007    3.5946    0.5414 C   0  0  0  0  0  0  0  0  0  0  0  0
    5.2249    4.8078    0.6792 N   0  0  0  0  0  0  0  0  0  0  0  0
    4.9388    5.8106    1.5981 C   0  0  0  0  0  0  0  0  0  0  0  0
    4.0413    5.7794    2.4405 O   0  0  0  0  0  0  0  0  0  0  0  0
    5.7354    7.0612    1.5723 C   0  0  0  0  0  0  0  0  0  0  0  0
    6.8466    7.2397    0.7545 C   0  0  0  0  0  0  0  0  0  0  0  0
    7.2783    6.2180   -0.0038 F   0  0  0  0  0  0  0  0  0  0  0  0
    7.5003    8.4749    0.7122 C   0  0  0  0  0  0  0  0  0  0  0  0
    8.6514    8.7229   -0.1846 C   0  0  0  0  0  0  0  0  0  0  0  0
    9.0967    7.7014   -0.9753 N   0  0  0  0  0  0  0  0  0  0  0  0
    9.1955    9.8238   -0.2314 O   0  0  0  0  0  0  0  0  0  0  0  0
    7.0404    9.5320    1.5159 C   0  0  0  0  0  0  0  0  0  0  0  0
    5.9469    9.3526    2.3641 C   0  0  0  0  0  0  0  0  0  0  0  0
    5.3030    8.1211    2.3921 C   0  0  0  0  0  0  0  0  0  0  0  0
    4.8661    2.6561   -0.4322 C   0  0  0  0  0  0  0  0  0  0  0  0
    4.1417    1.4440   -0.5791 C   0  0  0  0  0  0  0  0  0  0  0  0
    4.5624    0.5145   -1.6746 C   0  0  0  0  0  0  0  0  0  0  0  0
    5.7526    0.4702   -1.9841 O   0  0  0  0  0  0  0  0  0  0  0  0
    3.5875   -0.3038   -2.4569 C   0  0  0  0  0  0  0  0  0  0  0  0
    4.0108   -1.5047   -3.0470 C   0  0  0  0  0  0  0  0  0  0  0  0
    3.1242   -2.2602   -3.8230 C   0  0  0  0  0  0  0  0  0  0  0  0
    1.8123   -1.8249   -4.0100 C   0  0  0  0  0  0  0  0  0  0  0  0
    1.3838   -0.6356   -3.4251 C   0  0  0  0  0  0  0  0  0  0  0  0
    2.2731    0.1313   -2.6698 C   0  0  0  0  0  0  0  0  0  0  0  0
    0.9409   -1.2528    0.9456 H   0  0  0  0  0  0  0  0  0  0  0  0
    0.6459    0.4680    1.1521 H   0  0  0  0  0  0  0  0  0  0  0  0
    1.8578   -0.3817    2.1889 H   0  0  0  0  0  0  0  0  0  0  0  0
    1.9054    1.9723    1.9458 H   0  0  0  0  0  0  0  0  0  0  0  0
    3.0495    3.9779    2.1210 H   0  0  0  0  0  0  0  0  0  0  0  0
    6.0094    4.9394    0.0470 H   0  0  0  0  0  0  0  0  0  0  0  0
    8.6959    6.7775   -0.9794 H   0  0  0  0  0  0  0  0  0  0  0  0
    9.8768    7.8859   -1.5941 H   0  0  0  0  0  0  0  0  0  0  0  0
    7.5245   10.5070    1.4811 H   0  0  0  0  0  0  0  0  0  0  0  0
    5.5859   10.1684    2.9868 H   0  0  0  0  0  0  0  0  0  0  0  0
    4.4411    7.9947    3.0485 H   0  0  0  0  0  0  0  0  0  0  0  0
    5.7115    2.8468   -1.0938 H   0  0  0  0  0  0  0  0  0  0  0  0
    5.0314   -1.8556   -2.9067 H   0  0  0  0  0  0  0  0  0  0  0  0
    3.4570   -3.1862   -4.2856 H   0  0  0  0  0  0  0  0  0  0  0  0
    1.1246   -2.4076   -4.6182 H   0  0  0  0  0  0  0  0  0  0  0  0
    0.3598   -0.2980   -3.5600 H   0  0  0  0  0  0  0  0  0  0  0  0
    1.9186    1.0648   -2.2432 H   0  0  0  0  0  0  0  0  0  0  0  0
  1  2  1  0  0  0  0
  1 30  1  0  0  0  0
  1 31  1  0  0  0  0
  1 32  1  0  0  0  0
  2  3  1  0  0  0  0
  3  4  2  0  0  0  0
  3 21  1  0  0  0  0
  4  5  1  0  0  0  0
  4 33  1  0  0  0  0
  5  6  2  0  0  0  0
  5 34  1  0  0  0  0
  6  7  1  0  0  0  0
  6 20  1  0  0  0  0
  7  8  1  0  0  0  0
  7 35  1  0  0  0  0
  8  9  2  0  0  0  0
  8 10  1  0  0  0  0
 10 11  2  0  0  0  0
 10 19  1  0  0  0  0
 11 12  1  0  0  0  0
 11 13  1  0  0  0  0
 13 14  1  0  0  0  0
 13 17  2  0  0  0  0
 14 15  1  0  0  0  0
 14 16  2  0  0  0  0
 15 36  1  0  0  0  0
 15 37  1  0  0  0  0
 17 18  1  0  0  0  0
 17 38  1  0  0  0  0
 18 19  2  0  0  0  0
 18 39  1  0  0  0  0
 19 40  1  0  0  0  0
 20 21  2  0  0  0  0
 20 41  1  0  0  0  0
 21 22  1  0  0  0  0
 22 23  2  0  0  0  0
 22 24  1  0  0  0  0
 24 25  2  0  0  0  0
 24 29  1  0  0  0  0
 25 26  1  0  0  0  0
 25 42  1  0  0  0  0
 26 27  2  0  0  0  0
 26 43  1  0  0  0  0
 27 28  1  0  0  0  0
 27 44  1  0  0  0  0
 28 29  2  0  0  0  0
 28 45  1  0  0  0  0
 29 46  1  0  0  0  0
M  END
$$$$
