
 OpenBabel01122422503D

 49 52  0  0  0  0  0  0  0  0999 V2000
    0.9371    0.0020   -0.1355 O   0  0  0  0  0  0  0  0  0  0  0  0
    2.1527    0.0388   -0.0005 C   0  0  0  0  0  0  0  0  0  0  0  0
    2.8559    1.1985    0.2502 N   0  0  0  0  0  0  0  0  0  0  0  0
    2.1821    2.4818    0.2987 C   0  0  0  0  0  0  0  0  0  0  0  0
    2.1127    3.1485   -1.0567 C   0  0  0  0  0  0  0  0  0  0  0  0
    1.0258    2.9043   -1.8971 C   0  0  0  0  0  0  0  0  0  0  0  0
    0.9790    3.5332   -3.1376 C   0  0  0  0  0  0  0  0  0  0  0  0
    2.0148    4.3789   -3.5109 C   0  0  0  0  0  0  0  0  0  0  0  0
    3.0656    4.5585   -2.6256 C   0  0  0  0  0  0  0  0  0  0  0  0
    3.1418    3.9580   -1.4184 N   0  0  0  0  0  0  0  0  0  0  0  0
    2.9584   -1.2015   -0.1475 C   0  0  0  0  0  0  0  0  0  0  0  0
    2.4947   -2.1827   -1.0280 C   0  0  0  0  0  0  0  0  0  0  0  0
    3.1954   -3.3814   -1.1771 C   0  0  0  0  0  0  0  0  0  0  0  0
    4.3529   -3.6254   -0.4272 C   0  0  0  0  0  0  0  0  0  0  0  0
    5.0416   -4.9595   -0.5371 C   0  0  0  0  0  0  0  0  0  0  0  0
    6.0184   -5.0087   -1.5947 N   0  0  0  0  0  0  0  0  0  0  0  0
    6.7525   -6.1614   -1.7573 C   0  0  0  0  0  0  0  0  0  0  0  0
    6.5890   -7.1279   -1.0133 O   0  0  0  0  0  0  0  0  0  0  0  0
    7.7902   -6.1605   -2.7860 C   0  0  0  0  0  0  0  0  0  0  0  0
    8.5905   -7.2813   -2.9831 C   0  0  0  0  0  0  0  0  0  0  0  0
    9.6771   -6.9062   -3.7055 N   0  0  0  0  0  0  0  0  0  0  0  0
    9.5497   -5.6030   -4.0992 C   0  0  0  0  0  0  0  0  0  0  0  0
    8.2951   -5.1478   -3.6775 C   0  0  0  0  0  0  0  0  0  0  0  0
    7.8958   -3.8620   -4.1077 C   0  0  0  0  0  0  0  0  0  0  0  0
    8.7811   -3.0579   -4.8437 C   0  0  0  0  0  0  0  0  0  0  0  0
   10.0671   -3.4999   -5.1374 C   0  0  0  0  0  0  0  0  0  0  0  0
   10.4555   -4.7848   -4.7824 C   0  0  0  0  0  0  0  0  0  0  0  0
   11.6910   -5.2205   -5.0670 F   0  0  0  0  0  0  0  0  0  0  0  0
    4.8148   -2.6349    0.4519 C   0  0  0  0  0  0  0  0  0  0  0  0
    4.1185   -1.4290    0.5975 C   0  0  0  0  0  0  0  0  0  0  0  0
    3.8531    1.2167    0.0919 H   0  0  0  0  0  0  0  0  0  0  0  0
    2.7528    3.1172    0.9868 H   0  0  0  0  0  0  0  0  0  0  0  0
    1.1779    2.3647    0.7176 H   0  0  0  0  0  0  0  0  0  0  0  0
    0.2288    2.2334   -1.5928 H   0  0  0  0  0  0  0  0  0  0  0  0
    0.1407    3.3605   -3.8063 H   0  0  0  0  0  0  0  0  0  0  0  0
    2.0050    4.8911   -4.4741 H   0  0  0  0  0  0  0  0  0  0  0  0
    3.8988    5.2088   -2.8758 H   0  0  0  0  0  0  0  0  0  0  0  0
    1.5757   -2.0226   -1.5926 H   0  0  0  0  0  0  0  0  0  0  0  0
    2.8098   -4.1399   -1.8584 H   0  0  0  0  0  0  0  0  0  0  0  0
    4.3043   -5.7483   -0.7275 H   0  0  0  0  0  0  0  0  0  0  0  0
    5.5315   -5.2126    0.4120 H   0  0  0  0  0  0  0  0  0  0  0  0
    5.9732   -4.3373   -2.3413 H   0  0  0  0  0  0  0  0  0  0  0  0
    8.5224   -8.2708   -2.5620 H   0  0  0  0  0  0  0  0  0  0  0  0
   10.4961   -7.4852   -3.8941 H   0  0  0  0  0  0  0  0  0  0  0  0
    6.9086   -3.4699   -3.8921 H   0  0  0  0  0  0  0  0  0  0  0  0
    8.4671   -2.0678   -5.1646 H   0  0  0  0  0  0  0  0  0  0  0  0
   10.7724   -2.8545   -5.6503 H   0  0  0  0  0  0  0  0  0  0  0  0
    5.7038   -2.8133    1.0584 H   0  0  0  0  0  0  0  0  0  0  0  0
    4.4666   -0.6999    1.3245 H   0  0  0  0  0  0  0  0  0  0  0  0
  1  2  2  0  0  0  0
  2  3  1  0  0  0  0
  2 11  1  0  0  0  0
  3  4  1  0  0  0  0
  3 31  1  0  0  0  0
  4  5  1  0  0  0  0
  4 32  1  0  0  0  0
  4 33  1  0  0  0  0
  5  6  2  0  0  0  0
  5 10  1  0  0  0  0
  6  7  1  0  0  0  0
  6 34  1  0  0  0  0
  7  8  2  0  0  0  0
  7 35  1  0  0  0  0
  8  9  1  0  0  0  0
  8 36  1  0  0  0  0
  9 10  2  0  0  0  0
  9 37  1  0  0  0  0
 11 12  2  0  0  0  0
 11 30  1  0  0  0  0
 12 13  1  0  0  0  0
 12 38  1  0  0  0  0
 13 14  2  0  0  0  0
 13 39  1  0  0  0  0
 14 15  1  0  0  0  0
 14 29  1  0  0  0  0
 15 16  1  0  0  0  0
 15 40  1  0  0  0  0
 15 41  1  0  0  0  0
 16 17  1  0  0  0  0
 16 42  1  0  0  0  0
 17 18  2  0  0  0  0
 17 19  1  0  0  0  0
 19 20  2  0  0  0  0
 19 23  1  0  0  0  0
 20 21  1  0  0  0  0
 20 43  1  0  0  0  0
 21 22  1  0  0  0  0
 21 44  1  0  0  0  0
 22 23  2  0  0  0  0
 22 27  1  0  0  0  0
 23 24  1  0  0  0  0
 24 25  2  0  0  0  0
 24 45  1  0  0  0  0
 25 26  1  0  0  0  0
 25 46  1  0  0  0  0
 26 27  2  0  0  0  0
 26 47  1  0  0  0  0
 27 28  1  0  0  0  0
 29 30  2  0  0  0  0
 29 48  1  0  0  0  0
 30 49  1  0  0  0  0
M  END
$$$$
