
 OpenBabel01122422503D

 50 53  0  0  1  0  0  0  0  0999 V2000
    3.1954   -2.4327    0.6596 O   0  0  0  0  0  0  0  0  0  0  0  0
    3.4540   -1.2790    0.3258 C   0  0  0  0  0  0  0  0  0  0  0  0
    3.0568   -0.7577   -0.8810 N   0  0  0  0  0  0  0  0  0  0  0  0
    2.3823   -1.6028   -1.8609 C   0  0  3  0  0  0  0  0  0  0  0  0
    1.4109   -0.8176   -2.7730 C   0  0  0  0  0  0  0  0  0  0  0  0
    0.3633   -0.1230   -2.0159 N   0  0  0  0  0  0  0  0  0  0  0  0
   -0.8337   -0.7712   -1.7560 C   0  0  0  0  0  0  0  0  0  0  0  0
   -1.7943   -0.1867   -1.0303 C   0  0  0  0  0  0  0  0  0  0  0  0
   -1.5947    1.1423   -0.5111 C   0  0  0  0  0  0  0  0  0  0  0  0
   -0.4415    1.7894   -0.7218 C   0  0  0  0  0  0  0  0  0  0  0  0
    0.6513    1.1388   -1.4944 C   0  0  0  0  0  0  0  0  0  0  0  0
    1.7332    1.7110   -1.6247 O   0  0  0  0  0  0  0  0  0  0  0  0
    3.4055   -2.3762   -2.6792 C   0  0  0  0  0  0  0  0  0  0  0  0
    3.3930   -3.7805   -2.6676 C   0  0  0  0  0  0  0  0  0  0  0  0
    4.3490   -4.5076   -3.3785 C   0  0  0  0  0  0  0  0  0  0  0  0
    5.3305   -3.8417   -4.1083 C   0  0  0  0  0  0  0  0  0  0  0  0
    5.3516   -2.4485   -4.1360 C   0  0  0  0  0  0  0  0  0  0  0  0
    4.3944   -1.7186   -3.4282 C   0  0  0  0  0  0  0  0  0  0  0  0
    4.2141   -0.4025    1.1976 C   0  0  0  0  0  0  0  0  0  0  0  0
    4.7589   -0.8237    2.3941 C   0  0  0  0  0  0  0  0  0  0  0  0
    5.4696    0.2162    2.9355 N   0  0  0  0  0  0  0  0  0  0  0  0
    6.2871    0.1802    4.1010 C   0  0  0  0  0  0  0  0  0  0  0  0
    6.9157    1.3489    4.5547 C   0  0  0  0  0  0  0  0  0  0  0  0
    7.7518    1.2851    5.6690 C   0  0  0  0  0  0  0  0  0  0  0  0
    8.3877    2.3937    6.1465 O   0  0  0  0  0  0  0  0  0  0  0  0
    7.9766    0.0852    6.3344 C   0  0  0  0  0  0  0  0  0  0  0  0
    7.3462   -1.0745    5.8947 C   0  0  0  0  0  0  0  0  0  0  0  0
    6.4994   -1.0294    4.7856 C   0  0  0  0  0  0  0  0  0  0  0  0
    5.3346    1.3394    2.1792 N   0  0  0  0  0  0  0  0  0  0  0  0
    4.6009    0.9494    1.1284 C   0  0  0  0  0  0  0  0  0  0  0  0
    3.2509    0.2061   -1.1295 H   0  0  0  0  0  0  0  0  0  0  0  0
    1.7755   -2.3227   -1.2952 H   0  0  0  0  0  0  0  0  0  0  0  0
    0.9355   -1.4936   -3.4960 H   0  0  0  0  0  0  0  0  0  0  0  0
    1.9590   -0.0698   -3.3598 H   0  0  0  0  0  0  0  0  0  0  0  0
   -0.9598   -1.7738   -2.1547 H   0  0  0  0  0  0  0  0  0  0  0  0
   -2.7298   -0.6947   -0.8189 H   0  0  0  0  0  0  0  0  0  0  0  0
   -2.3978    1.6040    0.0539 H   0  0  0  0  0  0  0  0  0  0  0  0
   -0.2482    2.7855   -0.3462 H   0  0  0  0  0  0  0  0  0  0  0  0
    2.6510   -4.3200   -2.0820 H   0  0  0  0  0  0  0  0  0  0  0  0
    4.3370   -5.5941   -3.3485 H   0  0  0  0  0  0  0  0  0  0  0  0
    6.0861   -4.4084   -4.6462 H   0  0  0  0  0  0  0  0  0  0  0  0
    6.1233   -1.9295   -4.6989 H   0  0  0  0  0  0  0  0  0  0  0  0
    4.4412   -0.6320   -3.4490 H   0  0  0  0  0  0  0  0  0  0  0  0
    4.7012   -1.7960    2.8586 H   0  0  0  0  0  0  0  0  0  0  0  0
    6.7558    2.2932    4.0414 H   0  0  0  0  0  0  0  0  0  0  0  0
    8.1410    3.1518    5.5922 H   0  0  0  0  0  0  0  0  0  0  0  0
    8.6430    0.0537    7.1919 H   0  0  0  0  0  0  0  0  0  0  0  0
    7.5199   -2.0165    6.4083 H   0  0  0  0  0  0  0  0  0  0  0  0
    6.0402   -1.9619    4.4722 H   0  0  0  0  0  0  0  0  0  0  0  0
    4.3834    1.6786    0.3571 H   0  0  0  0  0  0  0  0  0  0  0  0
  1  2  2  0  0  0  0
  2  3  1  0  0  0  0
  2 19  1  0  0  0  0
  3  4  1  0  0  0  0
  3 31  1  0  0  0  0
  4  5  1  0  0  0  0
  4 13  1  0  0  0  0
  4 32  1  0  0  0  0
  5  6  1  0  0  0  0
  5 33  1  0  0  0  0
  5 34  1  0  0  0  0
  6  7  1  0  0  0  0
  6 11  1  0  0  0  0
  7  8  2  0  0  0  0
  7 35  1  0  0  0  0
  8  9  1  0  0  0  0
  8 36  1  0  0  0  0
  9 10  2  0  0  0  0
  9 37  1  0  0  0  0
 10 11  1  0  0  0  0
 10 38  1  0  0  0  0
 11 12  2  0  0  0  0
 13 14  2  0  0  0  0
 13 18  1  0  0  0  0
 14 15  1  0  0  0  0
 14 39  1  0  0  0  0
 15 16  2  0  0  0  0
 15 40  1  0  0  0  0
 16 17  1  0  0  0  0
 16 41  1  0  0  0  0
 17 18  2  0  0  0  0
 17 42  1  0  0  0  0
 18 43  1  0  0  0  0
 19 20  2  0  0  0  0
 19 30  1  0  0  0  0
 20 21  1  0  0  0  0
 20 44  1  0  0  0  0
 21 22  1  0  0  0  0
 21 29  1  0  0  0  0
 22 23  2  0  0  0  0
 22 28  1  0  0  0  0
 23 24  1  0  0  0  0
 23 45  1  0  0  0  0
 24 25  1  0  0  0  0
 24 26  2  0  0  0  0
 25 46  1  0  0  0  0
 26 27  1  0  0  0  0
 26 47  1  0  0  0  0
 27 28  2  0  0  0  0
 27 48  1  0  0  0  0
 28 49  1  0  0  0  0
 29 30  2  0  0  0  0
 30 50  1  0  0  0  0
M  END
$$$$
