
 OpenBabel01122422503D

 52 55  0  0  1  0  0  0  0  0999 V2000
    5.6256    2.1530    2.1730 C   0  0  0  0  0  0  0  0  0  0  0  0
    5.2382    0.6992    2.2365 C   0  0  0  0  0  0  0  0  0  0  0  0
    5.2885   -0.0447    1.1258 C   0  0  0  0  0  0  0  0  0  0  0  0
    5.0650   -1.5044    1.2448 C   0  0  0  0  0  0  0  0  0  0  0  0
    5.2114   -2.2577    0.1026 N   0  0  0  0  0  0  0  0  0  0  0  0
    4.6863   -3.6090   -0.0740 C   0  0  3  0  0  0  0  0  0  0  0  0
    3.9766   -3.7702   -1.4593 C   0  0  0  0  0  0  0  0  0  0  0  0
    2.8228   -2.8838   -1.6924 N   0  0  0  0  0  0  0  0  0  0  0  0
    1.5626   -3.4396   -1.8587 C   0  0  0  0  0  0  0  0  0  0  0  0
    0.4972   -2.6760   -2.1335 C   0  0  0  0  0  0  0  0  0  0  0  0
    0.6325   -1.2440   -2.1958 C   0  0  0  0  0  0  0  0  0  0  0  0
    1.8371   -0.6730   -2.0752 C   0  0  0  0  0  0  0  0  0  0  0  0
    3.0453   -1.5199   -1.8977 C   0  0  0  0  0  0  0  0  0  0  0  0
    4.1557   -0.9907   -1.9326 O   0  0  0  0  0  0  0  0  0  0  0  0
    5.8409   -4.6038    0.0164 C   0  0  0  0  0  0  0  0  0  0  0  0
    5.7901   -5.6729    0.9254 C   0  0  0  0  0  0  0  0  0  0  0  0
    6.8395   -6.5973    0.9983 C   0  0  0  0  0  0  0  0  0  0  0  0
    7.9482   -6.4670    0.1657 C   0  0  0  0  0  0  0  0  0  0  0  0
    8.0144   -5.4122   -0.7399 C   0  0  0  0  0  0  0  0  0  0  0  0
    6.9702   -4.4882   -0.8146 C   0  0  0  0  0  0  0  0  0  0  0  0
    4.7669   -2.0582    2.3721 N   0  0  0  0  0  0  0  0  0  0  0  0
    4.6676   -1.2996    3.5157 C   0  0  0  0  0  0  0  0  0  0  0  0
    4.3309   -1.8535    4.5658 O   0  0  0  0  0  0  0  0  0  0  0  0
    4.9361    0.0959    3.4565 N   0  0  0  0  0  0  0  0  0  0  0  0
    4.8763    0.8159    4.6913 C   0  0  0  0  0  0  0  0  0  0  0  0
    5.7181    0.4440    5.7479 C   0  0  0  0  0  0  0  0  0  0  0  0
    5.6339    1.0860    6.9839 C   0  0  0  0  0  0  0  0  0  0  0  0
    4.6947    2.0960    7.1790 C   0  0  0  0  0  0  0  0  0  0  0  0
    3.8590    2.4825    6.1306 C   0  0  0  0  0  0  0  0  0  0  0  0
    3.9565    1.8550    4.8845 C   0  0  0  0  0  0  0  0  0  0  0  0
    6.1060    2.3975    1.2175 H   0  0  0  0  0  0  0  0  0  0  0  0
    6.3534    2.4035    2.9520 H   0  0  0  0  0  0  0  0  0  0  0  0
    4.7524    2.8039    2.2707 H   0  0  0  0  0  0  0  0  0  0  0  0
    5.5334    0.3592    0.1518 H   0  0  0  0  0  0  0  0  0  0  0  0
    5.2364   -1.7246   -0.7708 H   0  0  0  0  0  0  0  0  0  0  0  0
    3.9433   -3.8286    0.7041 H   0  0  0  0  0  0  0  0  0  0  0  0
    3.6575   -4.8150   -1.5753 H   0  0  0  0  0  0  0  0  0  0  0  0
    4.6882   -3.5706   -2.2713 H   0  0  0  0  0  0  0  0  0  0  0  0
    1.4719   -4.5199   -1.7911 H   0  0  0  0  0  0  0  0  0  0  0  0
   -0.4823   -3.1124   -2.3016 H   0  0  0  0  0  0  0  0  0  0  0  0
   -0.2598   -0.6425   -2.3301 H   0  0  0  0  0  0  0  0  0  0  0  0
    1.9878    0.3975   -2.1061 H   0  0  0  0  0  0  0  0  0  0  0  0
    4.9408   -5.7889    1.5938 H   0  0  0  0  0  0  0  0  0  0  0  0
    6.7908   -7.4153    1.7125 H   0  0  0  0  0  0  0  0  0  0  0  0
    8.7644   -7.1816    0.2287 H   0  0  0  0  0  0  0  0  0  0  0  0
    8.8841   -5.3027   -1.3835 H   0  0  0  0  0  0  0  0  0  0  0  0
    7.0495   -3.6645   -1.5215 H   0  0  0  0  0  0  0  0  0  0  0  0
    6.4443   -0.3545    5.6118 H   0  0  0  0  0  0  0  0  0  0  0  0
    6.2876    0.7804    7.7966 H   0  0  0  0  0  0  0  0  0  0  0  0
    4.6054    2.5706    8.1531 H   0  0  0  0  0  0  0  0  0  0  0  0
    3.1130    3.2565    6.2942 H   0  0  0  0  0  0  0  0  0  0  0  0
    3.2688    2.1401    4.0930 H   0  0  0  0  0  0  0  0  0  0  0  0
  1  2  1  0  0  0  0
  1 31  1  0  0  0  0
  1 32  1  0  0  0  0
  1 33  1  0  0  0  0
  2  3  2  0  0  0  0
  2 24  1  0  0  0  0
  3  4  1  0  0  0  0
  3 34  1  0  0  0  0
  4  5  1  0  0  0  0
  4 21  2  0  0  0  0
  5  6  1  0  0  0  0
  5 35  1  0  0  0  0
  6  7  1  0  0  0  0
  6 15  1  0  0  0  0
  6 36  1  0  0  0  0
  7  8  1  0  0  0  0
  7 37  1  0  0  0  0
  7 38  1  0  0  0  0
  8  9  1  0  0  0  0
  8 13  1  0  0  0  0
  9 10  2  0  0  0  0
  9 39  1  0  0  0  0
 10 11  1  0  0  0  0
 10 40  1  0  0  0  0
 11 12  2  0  0  0  0
 11 41  1  0  0  0  0
 12 13  1  0  0  0  0
 12 42  1  0  0  0  0
 13 14  2  0  0  0  0
 15 16  2  0  0  0  0
 15 20  1  0  0  0  0
 16 17  1  0  0  0  0
 16 43  1  0  0  0  0
 17 18  2  0  0  0  0
 17 44  1  0  0  0  0
 18 19  1  0  0  0  0
 18 45  1  0  0  0  0
 19 20  2  0  0  0  0
 19 46  1  0  0  0  0
 20 47  1  0  0  0  0
 21 22  1  0  0  0  0
 22 23  2  0  0  0  0
 22 24  1  0  0  0  0
 24 25  1  0  0  0  0
 25 26  2  0  0  0  0
 25 30  1  0  0  0  0
 26 27  1  0  0  0  0
 26 48  1  0  0  0  0
 27 28  2  0  0  0  0
 27 49  1  0  0  0  0
 28 29  1  0  0  0  0
 28 50  1  0  0  0  0
 29 30  2  0  0  0  0
 29 51  1  0  0  0  0
 30 52  1  0  0  0  0
M  END
$$$$
