
 OpenBabel01122422463D

 45 48  0  0  0  0  0  0  0  0999 V2000
    4.8932    1.9527   -1.0180 O   0  0  0  0  0  0  0  0  0  0  0  0
    4.1479    1.0939   -0.5666 C   0  0  0  0  0  0  0  0  0  0  0  0
    2.8753    1.2651   -0.0560 N   0  0  0  0  0  0  0  0  0  0  0  0
    2.1820    2.4875   -0.1088 C   0  0  0  0  0  0  0  0  0  0  0  0
    1.0438    2.6263    0.6549 C   0  0  0  0  0  0  0  0  0  0  0  0
    0.4089    3.8450    0.5744 C   0  0  0  0  0  0  0  0  0  0  0  0
    0.8206    4.8493   -0.2177 N   0  0  0  0  0  0  0  0  0  0  0  0
    1.9317    4.6167   -0.9459 C   0  0  0  0  0  0  0  0  0  0  0  0
    2.3858    5.6738   -1.9308 C   0  0  0  0  0  0  0  0  0  0  0  0
    3.2406    6.6343   -1.3043 O   0  0  0  0  0  0  0  0  0  0  0  0
    3.6963    7.6514   -2.1018 C   0  0  0  0  0  0  0  0  0  0  0  0
    3.4143    7.8220   -3.4596 C   0  0  0  0  0  0  0  0  0  0  0  0
    3.9372    8.9164   -4.1573 C   0  0  0  0  0  0  0  0  0  0  0  0
    4.7426    9.8454   -3.5041 C   0  0  0  0  0  0  0  0  0  0  0  0
    5.0337    9.6785   -2.1514 C   0  0  0  0  0  0  0  0  0  0  0  0
    4.5117    8.5858   -1.4572 C   0  0  0  0  0  0  0  0  0  0  0  0
    2.6189    3.4630   -0.9135 N   0  0  0  0  0  0  0  0  0  0  0  0
    4.6885   -0.2865   -0.4972 C   0  0  0  0  0  0  0  0  0  0  0  0
    6.0415   -0.4511   -0.1693 C   0  0  0  0  0  0  0  0  0  0  0  0
    6.6242   -1.7209   -0.1770 C   0  0  0  0  0  0  0  0  0  0  0  0
    5.8618   -2.8322   -0.5617 C   0  0  0  0  0  0  0  0  0  0  0  0
    6.4676   -4.1094   -0.6419 N   0  0  0  0  0  0  0  0  0  0  0  0
    7.5809   -4.5421    0.0466 C   0  0  0  0  0  0  0  0  0  0  0  0
    7.7899   -5.8416   -0.3509 C   0  0  0  0  0  0  0  0  0  0  0  0
    6.8690   -6.2161   -1.2866 N   0  0  0  0  0  0  0  0  0  0  0  0
    6.0929   -5.1656   -1.4424 C   0  0  0  0  0  0  0  0  0  0  0  0
    4.5120   -2.6539   -0.8906 C   0  0  0  0  0  0  0  0  0  0  0  0
    3.7333   -3.6949   -1.2163 F   0  0  0  0  0  0  0  0  0  0  0  0
    3.9160   -1.3938   -0.8466 C   0  0  0  0  0  0  0  0  0  0  0  0
    2.4546    0.5135    0.4687 H   0  0  0  0  0  0  0  0  0  0  0  0
    0.6674    1.8478    1.3026 H   0  0  0  0  0  0  0  0  0  0  0  0
   -0.4821    4.0556    1.1602 H   0  0  0  0  0  0  0  0  0  0  0  0
    1.4920    6.1695   -2.3292 H   0  0  0  0  0  0  0  0  0  0  0  0
    2.9200    5.1731   -2.7481 H   0  0  0  0  0  0  0  0  0  0  0  0
    2.7923    7.1255   -4.0115 H   0  0  0  0  0  0  0  0  0  0  0  0
    3.7118    9.0429   -5.2131 H   0  0  0  0  0  0  0  0  0  0  0  0
    5.1440   10.6974   -4.0461 H   0  0  0  0  0  0  0  0  0  0  0  0
    5.6658   10.3975   -1.6373 H   0  0  0  0  0  0  0  0  0  0  0  0
    4.7444    8.4574   -0.4018 H   0  0  0  0  0  0  0  0  0  0  0  0
    6.6520    0.4212    0.0646 H   0  0  0  0  0  0  0  0  0  0  0  0
    7.6852   -1.7995    0.0486 H   0  0  0  0  0  0  0  0  0  0  0  0
    8.0888   -3.9368    0.7828 H   0  0  0  0  0  0  0  0  0  0  0  0
    8.5530   -6.5278   -0.0061 H   0  0  0  0  0  0  0  0  0  0  0  0
    5.2788   -5.1046   -2.1526 H   0  0  0  0  0  0  0  0  0  0  0  0
    2.8737   -1.2971   -1.1323 H   0  0  0  0  0  0  0  0  0  0  0  0
  1  2  2  0  0  0  0
  2  3  1  0  0  0  0
  2 18  1  0  0  0  0
  3  4  1  0  0  0  0
  3 30  1  0  0  0  0
  4  5  2  0  0  0  0
  4 17  1  0  0  0  0
  5  6  1  0  0  0  0
  5 31  1  0  0  0  0
  6  7  2  0  0  0  0
  6 32  1  0  0  0  0
  7  8  1  0  0  0  0
  8  9  1  0  0  0  0
  8 17  2  0  0  0  0
  9 10  1  0  0  0  0
  9 33  1  0  0  0  0
  9 34  1  0  0  0  0
 10 11  1  0  0  0  0
 11 12  2  0  0  0  0
 11 16  1  0  0  0  0
 12 13  1  0  0  0  0
 12 35  1  0  0  0  0
 13 14  2  0  0  0  0
 13 36  1  0  0  0  0
 14 15  1  0  0  0  0
 14 37  1  0  0  0  0
 15 16  2  0  0  0  0
 15 38  1  0  0  0  0
 16 39  1  0  0  0  0
 18 19  2  0  0  0  0
 18 29  1  0  0  0  0
 19 20  1  0  0  0  0
 19 40  1  0  0  0  0
 20 21  2  0  0  0  0
 20 41  1  0  0  0  0
 21 22  1  0  0  0  0
 21 27  1  0  0  0  0
 22 23  1  0  0  0  0
 22 26  1  0  0  0  0
 23 24  2  0  0  0  0
 23 42  1  0  0  0  0
 24 25  1  0  0  0  0
 24 43  1  0  0  0  0
 25 26  2  0  0  0  0
 26 44  1  0  0  0  0
 27 28  1  0  0  0  0
 27 29  2  0  0  0  0
 29 45  1  0  0  0  0
M  END
$$$$
