
 OpenBabel01122422503D

 49 52  0  0  0  0  0  0  0  0999 V2000
    1.6021   -0.7273    0.5530 C   0  0  0  0  0  0  0  0  0  0  0  0
    2.9478   -0.3430    0.3037 O   0  0  0  0  0  0  0  0  0  0  0  0
    3.3341    0.8664    0.7937 C   0  0  0  0  0  0  0  0  0  0  0  0
    4.2608    1.5625    0.0076 C   0  0  0  0  0  0  0  0  0  0  0  0
    4.7714    2.8327    0.3869 C   0  0  0  0  0  0  0  0  0  0  0  0
    5.6491    3.5271   -0.5947 C   0  0  0  0  0  0  0  0  0  0  0  0
    5.3896    3.3405   -1.7770 O   0  0  0  0  0  0  0  0  0  0  0  0
    6.7042    4.2685   -0.0883 N   0  0  0  0  0  0  0  0  0  0  0  0
    7.6708    4.9308   -0.8894 C   0  0  0  0  0  0  0  0  0  0  0  0
    7.4843    5.1915   -2.2458 C   0  0  0  0  0  0  0  0  0  0  0  0
    8.5097    5.7321   -3.0222 C   0  0  0  0  0  0  0  0  0  0  0  0
    9.7474    6.0616   -2.4571 C   0  0  0  0  0  0  0  0  0  0  0  0
   10.8367    6.5438   -3.3773 C   0  0  0  0  0  0  0  0  0  0  0  0
    9.9145    5.9012   -1.0662 C   0  0  0  0  0  0  0  0  0  0  0  0
   11.1995    6.2735   -0.3933 C   0  0  0  0  0  0  0  0  0  0  0  0
   12.2684    6.1433   -0.9832 O   0  0  0  0  0  0  0  0  0  0  0  0
   11.2319    6.7689    1.0108 C   0  0  0  0  0  0  0  0  0  0  0  0
   10.2018    7.5463    1.5539 C   0  0  0  0  0  0  0  0  0  0  0  0
   10.2687    7.9598    2.8869 C   0  0  0  0  0  0  0  0  0  0  0  0
   11.3731    7.6226    3.6707 C   0  0  0  0  0  0  0  0  0  0  0  0
   12.4179    6.8797    3.1230 C   0  0  0  0  0  0  0  0  0  0  0  0
   12.3500    6.4566    1.7952 C   0  0  0  0  0  0  0  0  0  0  0  0
    8.8803    5.3173   -0.2991 C   0  0  0  0  0  0  0  0  0  0  0  0
    4.3732    3.4340    1.5829 C   0  0  0  0  0  0  0  0  0  0  0  0
    3.4720    2.7237    2.3474 C   0  0  0  0  0  0  0  0  0  0  0  0
    2.9606    1.4696    1.9758 C   0  0  0  0  0  0  0  0  0  0  0  0
    2.1071    1.0584    3.0003 N   0  0  0  0  0  0  0  0  0  0  0  0
    2.0615    2.0435    3.9896 C   0  0  0  0  0  0  0  0  0  0  0  0
    1.4126    2.0091    5.0189 O   0  0  0  0  0  0  0  0  0  0  0  0
    2.9091    3.0738    3.5699 N   0  0  0  0  0  0  0  0  0  0  0  0
    1.3463   -1.5221   -0.1552 H   0  0  0  0  0  0  0  0  0  0  0  0
    0.9005    0.0989    0.3957 H   0  0  0  0  0  0  0  0  0  0  0  0
    1.5032   -1.1520    1.5543 H   0  0  0  0  0  0  0  0  0  0  0  0
    4.5768    1.1243   -0.9412 H   0  0  0  0  0  0  0  0  0  0  0  0
    6.9121    4.1801    0.8965 H   0  0  0  0  0  0  0  0  0  0  0  0
    6.5479    4.9666   -2.7480 H   0  0  0  0  0  0  0  0  0  0  0  0
    8.3321    5.8702   -4.0877 H   0  0  0  0  0  0  0  0  0  0  0  0
   10.4894    6.5866   -4.4163 H   0  0  0  0  0  0  0  0  0  0  0  0
   11.6825    5.8488   -3.3663 H   0  0  0  0  0  0  0  0  0  0  0  0
   11.1668    7.5485   -3.1006 H   0  0  0  0  0  0  0  0  0  0  0  0
    9.3479    7.8476    0.9530 H   0  0  0  0  0  0  0  0  0  0  0  0
    9.4651    8.5548    3.3136 H   0  0  0  0  0  0  0  0  0  0  0  0
   11.4267    7.9512    4.7058 H   0  0  0  0  0  0  0  0  0  0  0  0
   13.2876    6.6324    3.7269 H   0  0  0  0  0  0  0  0  0  0  0  0
   13.1715    5.8808    1.3718 H   0  0  0  0  0  0  0  0  0  0  0  0
    9.0435    5.1155    0.7561 H   0  0  0  0  0  0  0  0  0  0  0  0
    4.7125    4.4199    1.8806 H   0  0  0  0  0  0  0  0  0  0  0  0
    1.6019    0.1931    3.0777 H   0  0  0  0  0  0  0  0  0  0  0  0
    3.0622    3.9137    4.1035 H   0  0  0  0  0  0  0  0  0  0  0  0
  1  2  1  0  0  0  0
  1 31  1  0  0  0  0
  1 32  1  0  0  0  0
  1 33  1  0  0  0  0
  2  3  1  0  0  0  0
  3  4  2  0  0  0  0
  3 26  1  0  0  0  0
  4  5  1  0  0  0  0
  4 34  1  0  0  0  0
  5  6  1  0  0  0  0
  5 24  2  0  0  0  0
  6  7  2  0  0  0  0
  6  8  1  0  0  0  0
  8  9  1  0  0  0  0
  8 35  1  0  0  0  0
  9 10  2  0  0  0  0
  9 23  1  0  0  0  0
 10 11  1  0  0  0  0
 10 36  1  0  0  0  0
 11 12  2  0  0  0  0
 11 37  1  0  0  0  0
 12 13  1  0  0  0  0
 12 14  1  0  0  0  0
 13 38  1  0  0  0  0
 13 39  1  0  0  0  0
 13 40  1  0  0  0  0
 14 15  1  0  0  0  0
 14 23  2  0  0  0  0
 15 16  2  0  0  0  0
 15 17  1  0  0  0  0
 17 18  2  0  0  0  0
 17 22  1  0  0  0  0
 18 19  1  0  0  0  0
 18 41  1  0  0  0  0
 19 20  2  0  0  0  0
 19 42  1  0  0  0  0
 20 21  1  0  0  0  0
 20 43  1  0  0  0  0
 21 22  2  0  0  0  0
 21 44  1  0  0  0  0
 22 45  1  0  0  0  0
 23 46  1  0  0  0  0
 24 25  1  0  0  0  0
 24 47  1  0  0  0  0
 25 26  2  0  0  0  0
 25 30  1  0  0  0  0
 26 27  1  0  0  0  0
 27 28  1  0  0  0  0
 27 48  1  0  0  0  0
 28 29  2  0  0  0  0
 28 30  1  0  0  0  0
 30 49  1  0  0  0  0
M  END
$$$$
