
 OpenBabel01122422503D

 47 50  0  0  0  0  0  0  0  0999 V2000
    1.2782   -0.1936   -0.9192 O   0  0  0  0  0  0  0  0  0  0  0  0
    2.5069   -0.1381   -0.8545 C   0  0  0  0  0  0  0  0  0  0  0  0
    3.3540   -1.3832   -1.1488 C   0  0  0  0  0  0  0  0  0  0  0  0
    3.5677   -2.2021    0.0898 C   0  0  0  0  0  0  0  0  0  0  0  0
    2.5822   -2.8159    0.7545 C   0  0  0  0  0  0  0  0  0  0  0  0
    2.9111   -3.6304    1.9116 C   0  0  0  0  0  0  0  0  0  0  0  0
    1.9074   -4.2932    2.6269 C   0  0  0  0  0  0  0  0  0  0  0  0
    2.2346   -5.0806    3.7328 C   0  0  0  0  0  0  0  0  0  0  0  0
    3.5648   -5.2128    4.1290 C   0  0  0  0  0  0  0  0  0  0  0  0
    4.5715   -4.5561    3.4200 C   0  0  0  0  0  0  0  0  0  0  0  0
    4.2423   -3.7648    2.3102 C   0  0  0  0  0  0  0  0  0  0  0  0
    5.3165   -3.0757    1.5554 C   0  0  0  0  0  0  0  0  0  0  0  0
    6.4935   -3.1732    1.8810 O   0  0  0  0  0  0  0  0  0  0  0  0
    4.9234   -2.3252    0.4767 O   0  0  0  0  0  0  0  0  0  0  0  0
    3.1067    1.0267   -0.5003 N   0  0  0  0  0  0  0  0  0  0  0  0
    4.5114    1.3369   -0.2909 C   0  0  0  0  0  0  0  0  0  0  0  0
    5.0120    2.3215   -1.3218 C   0  0  0  0  0  0  0  0  0  0  0  0
    5.4420    1.7942   -2.5587 C   0  0  0  0  0  0  0  0  0  0  0  0
    5.8567    2.6234   -3.6000 C   0  0  0  0  0  0  0  0  0  0  0  0
    5.8693    3.9974   -3.4238 C   0  0  0  0  0  0  0  0  0  0  0  0
    5.4896    4.5376   -2.1992 C   0  0  0  0  0  0  0  0  0  0  0  0
    5.0230    3.7214   -1.1518 C   0  0  0  0  0  0  0  0  0  0  0  0
    4.6320    4.2929    0.0528 O   0  0  0  0  0  0  0  0  0  0  0  0
    3.9702    5.5222   -0.0245 C   0  0  0  0  0  0  0  0  0  0  0  0
    4.1892    6.4670    0.9712 C   0  0  0  0  0  0  0  0  0  0  0  0
    3.5025    7.6829    0.8911 C   0  0  0  0  0  0  0  0  0  0  0  0
    2.6528    7.9229   -0.1848 C   0  0  0  0  0  0  0  0  0  0  0  0
    2.5203    6.9339   -1.1414 C   0  0  0  0  0  0  0  0  0  0  0  0
    3.1321    5.7352   -1.0669 N   0  0  0  0  0  0  0  0  0  0  0  0
    4.2996   -1.0959   -1.6158 H   0  0  0  0  0  0  0  0  0  0  0  0
    2.8259   -1.9771   -1.9017 H   0  0  0  0  0  0  0  0  0  0  0  0
    1.5439   -2.7226    0.4491 H   0  0  0  0  0  0  0  0  0  0  0  0
    0.8648   -4.2047    2.3288 H   0  0  0  0  0  0  0  0  0  0  0  0
    1.4488   -5.5929    4.2835 H   0  0  0  0  0  0  0  0  0  0  0  0
    3.8177   -5.8286    4.9891 H   0  0  0  0  0  0  0  0  0  0  0  0
    5.6088   -4.6632    3.7314 H   0  0  0  0  0  0  0  0  0  0  0  0
    2.4522    1.7891   -0.3724 H   0  0  0  0  0  0  0  0  0  0  0  0
    5.1136    0.4244   -0.3304 H   0  0  0  0  0  0  0  0  0  0  0  0
    4.6179    1.7289    0.7251 H   0  0  0  0  0  0  0  0  0  0  0  0
    5.4427    0.7190   -2.7254 H   0  0  0  0  0  0  0  0  0  0  0  0
    6.1642    2.1952   -4.5506 H   0  0  0  0  0  0  0  0  0  0  0  0
    6.1622    4.6583   -4.2343 H   0  0  0  0  0  0  0  0  0  0  0  0
    5.5215    5.6178   -2.0878 H   0  0  0  0  0  0  0  0  0  0  0  0
    4.8791    6.2804    1.7863 H   0  0  0  0  0  0  0  0  0  0  0  0
    3.6264    8.4427    1.6592 H   0  0  0  0  0  0  0  0  0  0  0  0
    2.1035    8.8537   -0.2780 H   0  0  0  0  0  0  0  0  0  0  0  0
    1.9027    7.0783   -2.0228 H   0  0  0  0  0  0  0  0  0  0  0  0
  1  2  2  0  0  0  0
  2  3  1  0  0  0  0
  2 15  1  0  0  0  0
  3  4  1  0  0  0  0
  3 30  1  0  0  0  0
  3 31  1  0  0  0  0
  4  5  2  0  0  0  0
  4 14  1  0  0  0  0
  5  6  1  0  0  0  0
  5 32  1  0  0  0  0
  6  7  2  0  0  0  0
  6 11  1  0  0  0  0
  7  8  1  0  0  0  0
  7 33  1  0  0  0  0
  8  9  2  0  0  0  0
  8 34  1  0  0  0  0
  9 10  1  0  0  0  0
  9 35  1  0  0  0  0
 10 11  2  0  0  0  0
 10 36  1  0  0  0  0
 11 12  1  0  0  0  0
 12 13  2  0  0  0  0
 12 14  1  0  0  0  0
 15 16  1  0  0  0  0
 15 37  1  0  0  0  0
 16 17  1  0  0  0  0
 16 38  1  0  0  0  0
 16 39  1  0  0  0  0
 17 18  2  0  0  0  0
 17 22  1  0  0  0  0
 18 19  1  0  0  0  0
 18 40  1  0  0  0  0
 19 20  2  0  0  0  0
 19 41  1  0  0  0  0
 20 21  1  0  0  0  0
 20 42  1  0  0  0  0
 21 22  2  0  0  0  0
 21 43  1  0  0  0  0
 22 23  1  0  0  0  0
 23 24  1  0  0  0  0
 24 25  2  0  0  0  0
 24 29  1  0  0  0  0
 25 26  1  0  0  0  0
 25 44  1  0  0  0  0
 26 27  2  0  0  0  0
 26 45  1  0  0  0  0
 27 28  1  0  0  0  0
 27 46  1  0  0  0  0
 28 29  2  0  0  0  0
 28 47  1  0  0  0  0
M  END
$$$$
