
 OpenBabel01122422503D

 47 50  0  0  0  0  0  0  0  0999 V2000
    3.1971    3.3123   -5.6304 N   0  0  0  0  0  0  0  0  0  0  0  0
    3.6489    2.8421   -4.6674 C   0  0  0  0  0  0  0  0  0  0  0  0
    4.2027    2.2689   -3.4737 C   0  0  0  0  0  0  0  0  0  0  0  0
    3.4036    2.0887   -2.3428 C   0  0  0  0  0  0  0  0  0  0  0  0
    3.9528    1.5598   -1.1675 C   0  0  0  0  0  0  0  0  0  0  0  0
    5.3094    1.2014   -1.1043 C   0  0  0  0  0  0  0  0  0  0  0  0
    5.9192    0.7592    0.2106 C   0  0  0  0  0  0  0  0  0  0  0  0
    6.6750   -0.5612    0.1842 C   0  0  0  0  0  0  0  0  0  0  0  0
    7.8869   -0.6073   -0.0105 O   0  0  0  0  0  0  0  0  0  0  0  0
    5.8548   -1.6620    0.3801 N   0  0  0  0  0  0  0  0  0  0  0  0
    6.3461   -2.9837    0.3415 C   0  0  0  0  0  0  0  0  0  0  0  0
    5.6909   -3.8754   -0.5056 C   0  0  0  0  0  0  0  0  0  0  0  0
    6.1312   -5.1916   -0.6799 C   0  0  0  0  0  0  0  0  0  0  0  0
    5.5525   -6.0738   -1.6354 N   0  0  0  0  0  0  0  0  0  0  0  0
    4.5429   -5.7175   -2.5146 C   0  0  0  0  0  0  0  0  0  0  0  0
    3.9988   -4.6154   -2.5738 O   0  0  0  0  0  0  0  0  0  0  0  0
    4.0760   -6.6987   -3.5181 C   0  0  0  0  0  0  0  0  0  0  0  0
    4.1215   -8.0816   -3.3877 C   0  0  0  0  0  0  0  0  0  0  0  0
    3.5298   -8.8588   -4.3803 C   0  0  0  0  0  0  0  0  0  0  0  0
    2.9099   -8.4000   -5.4914 N   0  0  0  0  0  0  0  0  0  0  0  0
    2.8759   -7.0517   -5.6092 C   0  0  0  0  0  0  0  0  0  0  0  0
    3.4391   -6.2075   -4.6668 C   0  0  0  0  0  0  0  0  0  0  0  0
    3.2025   -4.9162   -5.0910 N   0  0  0  0  0  0  0  0  0  0  0  0
    2.5079   -4.9212   -6.2716 C   0  0  0  0  0  0  0  0  0  0  0  0
    2.2893   -6.2367   -6.6078 C   0  0  0  0  0  0  0  0  0  0  0  0
    7.2039   -5.6346    0.1011 C   0  0  0  0  0  0  0  0  0  0  0  0
    7.8338   -4.7589    0.9990 C   0  0  0  0  0  0  0  0  0  0  0  0
    7.4229   -3.4247    1.1015 C   0  0  0  0  0  0  0  0  0  0  0  0
    6.1007    1.3757   -2.2482 C   0  0  0  0  0  0  0  0  0  0  0  0
    5.5517    1.9041   -3.4248 C   0  0  0  0  0  0  0  0  0  0  0  0
    2.3542    2.3793   -2.3596 H   0  0  0  0  0  0  0  0  0  0  0  0
    3.3116    1.4598   -0.2940 H   0  0  0  0  0  0  0  0  0  0  0  0
    5.1443    0.6928    0.9846 H   0  0  0  0  0  0  0  0  0  0  0  0
    6.6158    1.5356    0.5492 H   0  0  0  0  0  0  0  0  0  0  0  0
    4.9059   -1.5375    0.0439 H   0  0  0  0  0  0  0  0  0  0  0  0
    4.8686   -3.4731   -1.0792 H   0  0  0  0  0  0  0  0  0  0  0  0
    5.9886   -6.9820   -1.7300 H   0  0  0  0  0  0  0  0  0  0  0  0
    4.5532   -8.5652   -2.5215 H   0  0  0  0  0  0  0  0  0  0  0  0
    3.5210   -9.9436   -4.2901 H   0  0  0  0  0  0  0  0  0  0  0  0
    3.4800   -4.0993   -4.5564 H   0  0  0  0  0  0  0  0  0  0  0  0
    2.2214   -3.9923   -6.7472 H   0  0  0  0  0  0  0  0  0  0  0  0
    1.7477   -6.5842   -7.4811 H   0  0  0  0  0  0  0  0  0  0  0  0
    7.5734   -6.6532    0.0220 H   0  0  0  0  0  0  0  0  0  0  0  0
    8.6587   -5.1133    1.6137 H   0  0  0  0  0  0  0  0  0  0  0  0
    7.9263   -2.7541    1.7928 H   0  0  0  0  0  0  0  0  0  0  0  0
    7.1619    1.1275   -2.2282 H   0  0  0  0  0  0  0  0  0  0  0  0
    6.1921    2.0498   -4.2935 H   0  0  0  0  0  0  0  0  0  0  0  0
  1  2  3  0  0  0  0
  2  3  1  0  0  0  0
  3  4  2  0  0  0  0
  3 30  1  0  0  0  0
  4  5  1  0  0  0  0
  4 31  1  0  0  0  0
  5  6  2  0  0  0  0
  5 32  1  0  0  0  0
  6  7  1  0  0  0  0
  6 29  1  0  0  0  0
  7  8  1  0  0  0  0
  7 33  1  0  0  0  0
  7 34  1  0  0  0  0
  8  9  2  0  0  0  0
  8 10  1  0  0  0  0
 10 11  1  0  0  0  0
 10 35  1  0  0  0  0
 11 12  2  0  0  0  0
 11 28  1  0  0  0  0
 12 13  1  0  0  0  0
 12 36  1  0  0  0  0
 13 14  1  0  0  0  0
 13 26  2  0  0  0  0
 14 15  1  0  0  0  0
 14 37  1  0  0  0  0
 15 16  2  0  0  0  0
 15 17  1  0  0  0  0
 17 18  2  0  0  0  0
 17 22  1  0  0  0  0
 18 19  1  0  0  0  0
 18 38  1  0  0  0  0
 19 20  2  0  0  0  0
 19 39  1  0  0  0  0
 20 21  1  0  0  0  0
 21 22  2  0  0  0  0
 21 25  1  0  0  0  0
 22 23  1  0  0  0  0
 23 24  1  0  0  0  0
 23 40  1  0  0  0  0
 24 25  2  0  0  0  0
 24 41  1  0  0  0  0
 25 42  1  0  0  0  0
 26 27  1  0  0  0  0
 26 43  1  0  0  0  0
 27 28  2  0  0  0  0
 27 44  1  0  0  0  0
 28 45  1  0  0  0  0
 29 30  2  0  0  0  0
 29 46  1  0  0  0  0
 30 47  1  0  0  0  0
M  END
$$$$
