
 OpenBabel01122422503D

 44 47  0  0  0  0  0  0  0  0999 V2000
    0.9682   -0.0527   -0.4047 O   0  0  0  0  0  0  0  0  0  0  0  0
    2.1495   -0.0348   -0.0877 C   0  0  0  0  0  0  0  0  0  0  0  0
    2.8185   -1.0493    0.5124 O   0  0  0  0  0  0  0  0  0  0  0  0
    2.0566   -2.2572    0.6682 C   0  0  0  0  0  0  0  0  0  0  0  0
    1.4181   -2.2950    2.0172 C   0  0  0  0  0  0  0  0  0  0  0  0
    0.0526   -2.3105    2.2035 C   0  0  0  0  0  0  0  0  0  0  0  0
   -0.5392   -2.3133    3.4169 N   0  0  0  0  0  0  0  0  0  0  0  0
    0.2773   -2.2900    4.4883 C   0  0  0  0  0  0  0  0  0  0  0  0
   -0.3273   -2.1942    5.8123 C   0  0  0  0  0  0  0  0  0  0  0  0
   -1.6929   -2.1180    6.0260 C   0  0  0  0  0  0  0  0  0  0  0  0
   -2.2813   -1.9919    7.2401 N   0  0  0  0  0  0  0  0  0  0  0  0
   -1.4458   -1.9412    8.2864 C   0  0  0  0  0  0  0  0  0  0  0  0
   -0.1097   -2.0135    8.2257 N   0  0  0  0  0  0  0  0  0  0  0  0
    0.4126   -2.1390    6.9821 C   0  0  0  0  0  0  0  0  0  0  0  0
    1.6224   -2.2983    4.4136 N   0  0  0  0  0  0  0  0  0  0  0  0
    2.1606   -2.2978    3.1779 C   0  0  0  0  0  0  0  0  0  0  0  0
    3.0011    1.1689   -0.2554 C   0  0  0  0  0  0  0  0  0  0  0  0
    2.3648    2.3809    0.0885 C   0  0  0  0  0  0  0  0  0  0  0  0
    3.0253    3.6007   -0.0284 C   0  0  0  0  0  0  0  0  0  0  0  0
    4.3332    3.6245   -0.4842 C   0  0  0  0  0  0  0  0  0  0  0  0
    4.9634    2.4317   -0.8522 C   0  0  0  0  0  0  0  0  0  0  0  0
    4.3225    1.1699   -0.7730 C   0  0  0  0  0  0  0  0  0  0  0  0
    5.0393   -0.0165   -1.3163 C   0  0  0  0  0  0  0  0  0  0  0  0
    6.4340   -0.1613   -1.1624 C   0  0  0  0  0  0  0  0  0  0  0  0
    7.1389   -1.2082   -1.7677 C   0  0  0  0  0  0  0  0  0  0  0  0
    6.4588   -2.1638   -2.5130 C   0  0  0  0  0  0  0  0  0  0  0  0
    5.0803   -2.0638   -2.6630 C   0  0  0  0  0  0  0  0  0  0  0  0
    4.3856   -0.9917   -2.0912 C   0  0  0  0  0  0  0  0  0  0  0  0
    2.7494   -3.1013    0.5707 H   0  0  0  0  0  0  0  0  0  0  0  0
    1.3203   -2.3829   -0.1364 H   0  0  0  0  0  0  0  0  0  0  0  0
   -0.6365   -2.3091    1.3617 H   0  0  0  0  0  0  0  0  0  0  0  0
   -2.3933   -2.1486    5.1935 H   0  0  0  0  0  0  0  0  0  0  0  0
   -1.8900   -1.8288    9.2690 H   0  0  0  0  0  0  0  0  0  0  0  0
    1.4995   -2.1881    6.9605 H   0  0  0  0  0  0  0  0  0  0  0  0
    3.2467   -2.2865    3.1507 H   0  0  0  0  0  0  0  0  0  0  0  0
    1.3342    2.3732    0.4413 H   0  0  0  0  0  0  0  0  0  0  0  0
    2.5163    4.5264    0.2284 H   0  0  0  0  0  0  0  0  0  0  0  0
    4.8614    4.5703   -0.5812 H   0  0  0  0  0  0  0  0  0  0  0  0
    5.9737    2.5104   -1.2534 H   0  0  0  0  0  0  0  0  0  0  0  0
    7.0057    0.5602   -0.5806 H   0  0  0  0  0  0  0  0  0  0  0  0
    8.2196   -1.2677   -1.6631 H   0  0  0  0  0  0  0  0  0  0  0  0
    7.0027   -2.9774   -2.9854 H   0  0  0  0  0  0  0  0  0  0  0  0
    4.5421   -2.8063   -3.2463 H   0  0  0  0  0  0  0  0  0  0  0  0
    3.3184   -0.9237   -2.2869 H   0  0  0  0  0  0  0  0  0  0  0  0
  1  2  2  0  0  0  0
  2  3  1  0  0  0  0
  2 17  1  0  0  0  0
  3  4  1  0  0  0  0
  4  5  1  0  0  0  0
  4 29  1  0  0  0  0
  4 30  1  0  0  0  0
  5  6  2  0  0  0  0
  5 16  1  0  0  0  0
  6  7  1  0  0  0  0
  6 31  1  0  0  0  0
  7  8  2  0  0  0  0
  8  9  1  0  0  0  0
  8 15  1  0  0  0  0
  9 10  2  0  0  0  0
  9 14  1  0  0  0  0
 10 11  1  0  0  0  0
 10 32  1  0  0  0  0
 11 12  2  0  0  0  0
 12 13  1  0  0  0  0
 12 33  1  0  0  0  0
 13 14  2  0  0  0  0
 14 34  1  0  0  0  0
 15 16  2  0  0  0  0
 16 35  1  0  0  0  0
 17 18  2  0  0  0  0
 17 22  1  0  0  0  0
 18 19  1  0  0  0  0
 18 36  1  0  0  0  0
 19 20  2  0  0  0  0
 19 37  1  0  0  0  0
 20 21  1  0  0  0  0
 20 38  1  0  0  0  0
 21 22  2  0  0  0  0
 21 39  1  0  0  0  0
 22 23  1  0  0  0  0
 23 24  2  0  0  0  0
 23 28  1  0  0  0  0
 24 25  1  0  0  0  0
 24 40  1  0  0  0  0
 25 26  2  0  0  0  0
 25 41  1  0  0  0  0
 26 27  1  0  0  0  0
 26 42  1  0  0  0  0
 27 28  2  0  0  0  0
 27 43  1  0  0  0  0
 28 44  1  0  0  0  0
M  END
$$$$
