
 OpenBabel01122422503D

 44 47  0  0  0  0  0  0  0  0999 V2000
    2.3100    1.7645   -1.3275 O   0  0  0  0  0  0  0  0  0  0  0  0
    2.7900    0.8418   -0.6673 C   0  0  0  0  0  0  0  0  0  0  0  0
    2.8610   -0.4869   -1.0782 N   0  0  0  0  0  0  0  0  0  0  0  0
    2.2092   -0.9887   -2.2423 C   0  0  0  0  0  0  0  0  0  0  0  0
    1.1190   -0.2841   -2.7822 C   0  0  0  0  0  0  0  0  0  0  0  0
    0.4791   -0.6315   -3.9844 C   0  0  0  0  0  0  0  0  0  0  0  0
   -0.6002    0.2276   -4.5272 C   0  0  0  0  0  0  0  0  0  0  0  0
   -0.5865    1.6255   -4.3351 C   0  0  0  0  0  0  0  0  0  0  0  0
   -1.6001    2.4460   -4.8371 C   0  0  0  0  0  0  0  0  0  0  0  0
   -2.6481    1.8874   -5.5585 C   0  0  0  0  0  0  0  0  0  0  0  0
   -2.6900    0.5115   -5.7624 C   0  0  0  0  0  0  0  0  0  0  0  0
   -1.6799   -0.3093   -5.2469 C   0  0  0  0  0  0  0  0  0  0  0  0
    0.9170   -1.7972   -4.6172 C   0  0  0  0  0  0  0  0  0  0  0  0
    1.9392   -2.5773   -4.0625 C   0  0  0  0  0  0  0  0  0  0  0  0
    2.6003   -2.1706   -2.8867 C   0  0  0  0  0  0  0  0  0  0  0  0
    3.6917   -3.0149   -2.3457 C   0  0  0  0  0  0  0  0  0  0  0  0
    3.8830   -3.1628   -1.1514 O   0  0  0  0  0  0  0  0  0  0  0  0
    4.4626   -3.5910   -3.2949 O   0  0  0  0  0  0  0  0  0  0  0  0
    3.3425    1.1835    0.6740 C   0  0  0  0  0  0  0  0  0  0  0  0
    3.0591    2.4442    1.1918 C   0  0  0  0  0  0  0  0  0  0  0  0
    3.5308    2.7683    2.4535 C   0  0  0  0  0  0  0  0  0  0  0  0
    4.2814    1.8307    3.1646 C   0  0  0  0  0  0  0  0  0  0  0  0
    4.7603    2.1353    4.4464 C   0  0  0  0  0  0  0  0  0  0  0  0
    5.5157    1.1885    5.1128 C   0  0  0  0  0  0  0  0  0  0  0  0
    5.8295   -0.0096    4.5889 N   0  0  0  0  0  0  0  0  0  0  0  0
    5.3389   -0.2619    3.3522 C   0  0  0  0  0  0  0  0  0  0  0  0
    5.7271   -1.4835    2.8906 O   0  0  0  0  0  0  0  0  0  0  0  0
    4.5473    0.5790    2.5647 C   0  0  0  0  0  0  0  0  0  0  0  0
    4.0700    0.2501    1.3288 N   0  0  0  0  0  0  0  0  0  0  0  0
    3.4777   -1.1108   -0.5500 H   0  0  0  0  0  0  0  0  0  0  0  0
    0.7147    0.5615   -2.2320 H   0  0  0  0  0  0  0  0  0  0  0  0
    0.2262    2.1036   -3.7881 H   0  0  0  0  0  0  0  0  0  0  0  0
   -1.5633    3.5183   -4.6628 H   0  0  0  0  0  0  0  0  0  0  0  0
   -3.4329    2.5237   -5.9584 H   0  0  0  0  0  0  0  0  0  0  0  0
   -3.5098    0.0708   -6.3216 H   0  0  0  0  0  0  0  0  0  0  0  0
   -1.7607   -1.3812   -5.4042 H   0  0  0  0  0  0  0  0  0  0  0  0
    0.4628   -2.1197   -5.5519 H   0  0  0  0  0  0  0  0  0  0  0  0
    2.1980   -3.5095   -4.5605 H   0  0  0  0  0  0  0  0  0  0  0  0
    4.3353   -3.2467   -4.1986 H   0  0  0  0  0  0  0  0  0  0  0  0
    2.4686    3.1599    0.6269 H   0  0  0  0  0  0  0  0  0  0  0  0
    3.3083    3.7496    2.8665 H   0  0  0  0  0  0  0  0  0  0  0  0
    4.5509    3.0896    4.9206 H   0  0  0  0  0  0  0  0  0  0  0  0
    5.8980    1.3807    6.1113 H   0  0  0  0  0  0  0  0  0  0  0  0
    6.2813   -1.7797    3.6327 H   0  0  0  0  0  0  0  0  0  0  0  0
  1  2  2  0  0  0  0
  2  3  1  0  0  0  0
  2 19  1  0  0  0  0
  3  4  1  0  0  0  0
  3 30  1  0  0  0  0
  4  5  2  0  0  0  0
  4 15  1  0  0  0  0
  5  6  1  0  0  0  0
  5 31  1  0  0  0  0
  6  7  1  0  0  0  0
  6 13  2  0  0  0  0
  7  8  2  0  0  0  0
  7 12  1  0  0  0  0
  8  9  1  0  0  0  0
  8 32  1  0  0  0  0
  9 10  2  0  0  0  0
  9 33  1  0  0  0  0
 10 11  1  0  0  0  0
 10 34  1  0  0  0  0
 11 12  2  0  0  0  0
 11 35  1  0  0  0  0
 12 36  1  0  0  0  0
 13 14  1  0  0  0  0
 13 37  1  0  0  0  0
 14 15  2  0  0  0  0
 14 38  1  0  0  0  0
 15 16  1  0  0  0  0
 16 17  2  0  0  0  0
 16 18  1  0  0  0  0
 18 39  1  0  0  0  0
 19 20  2  0  0  0  0
 19 29  1  0  0  0  0
 20 21  1  0  0  0  0
 20 40  1  0  0  0  0
 21 22  2  0  0  0  0
 21 41  1  0  0  0  0
 22 23  1  0  0  0  0
 22 28  1  0  0  0  0
 23 24  2  0  0  0  0
 23 42  1  0  0  0  0
 24 25  1  0  0  0  0
 24 43  1  0  0  0  0
 25 26  2  0  0  0  0
 26 27  1  0  0  0  0
 26 28  1  0  0  0  0
 27 44  1  0  0  0  0
 28 29  2  0  0  0  0
M  END
$$$$
