
 OpenBabel01122422503D

 47 50  0  0  0  0  0  0  0  0999 V2000
    2.0418    0.4533   -0.6116 O   0  0  0  0  0  0  0  0  0  0  0  0
    2.5482   -0.6404   -0.3752 C   0  0  0  0  0  0  0  0  0  0  0  0
    3.0660   -0.9604    1.0082 C   0  0  0  0  0  0  0  0  0  0  0  0
    1.9879   -1.4362    1.9506 C   0  0  0  0  0  0  0  0  0  0  0  0
    0.8858   -0.5775    2.1623 C   0  0  0  0  0  0  0  0  0  0  0  0
   -0.2135   -0.9726    2.9233 C   0  0  0  0  0  0  0  0  0  0  0  0
   -0.2272   -2.2308    3.5071 C   0  0  0  0  0  0  0  0  0  0  0  0
    0.8744   -3.0725    3.3552 C   0  0  0  0  0  0  0  0  0  0  0  0
    1.9955   -2.6779    2.6065 C   0  0  0  0  0  0  0  0  0  0  0  0
    2.9418   -3.6695    2.4838 O   0  0  0  0  0  0  0  0  0  0  0  0
    4.2898   -3.4250    2.5808 C   0  0  0  0  0  0  0  0  0  0  0  0
    4.8873   -2.3122    3.1631 C   0  0  0  0  0  0  0  0  0  0  0  0
    6.2616   -2.1785    3.0369 C   0  0  0  0  0  0  0  0  0  0  0  0
    7.0580   -3.0940    2.4425 N   0  0  0  0  0  0  0  0  0  0  0  0
    6.4590   -4.2034    1.9648 C   0  0  0  0  0  0  0  0  0  0  0  0
    5.0934   -4.4106    2.0099 C   0  0  0  0  0  0  0  0  0  0  0  0
    2.7077   -1.6890   -1.2699 N   0  0  0  0  0  0  0  0  0  0  0  0
    2.4716   -1.6175   -2.6541 C   0  0  0  0  0  0  0  0  0  0  0  0
    2.3229   -0.4004   -3.3125 C   0  0  0  0  0  0  0  0  0  0  0  0
    2.1042   -0.3586   -4.6841 C   0  0  0  0  0  0  0  0  0  0  0  0
    2.0396   -1.5337   -5.4392 C   0  0  0  0  0  0  0  0  0  0  0  0
    1.8039   -1.4225   -6.8742 C   0  0  0  0  0  0  0  0  0  0  0  0
    2.2150   -0.4385   -7.6965 C   0  0  0  0  0  0  0  0  0  0  0  0
    1.7103   -0.6709   -8.9462 N   0  0  0  0  0  0  0  0  0  0  0  0
    0.9475   -1.8421   -8.9219 C   0  0  0  0  0  0  0  0  0  0  0  0
    0.3225   -2.3432   -9.8404 O   0  0  0  0  0  0  0  0  0  0  0  0
    1.0474   -2.3027   -7.6048 N   0  0  0  0  0  0  0  0  0  0  0  0
    2.1848   -2.7607   -4.7795 C   0  0  0  0  0  0  0  0  0  0  0  0
    2.4141   -2.8018   -3.3957 C   0  0  0  0  0  0  0  0  0  0  0  0
    3.5293   -0.0528    1.4161 H   0  0  0  0  0  0  0  0  0  0  0  0
    3.8749   -1.6775    0.8759 H   0  0  0  0  0  0  0  0  0  0  0  0
    0.8592    0.4075    1.6941 H   0  0  0  0  0  0  0  0  0  0  0  0
   -1.0645   -0.3047    3.0346 H   0  0  0  0  0  0  0  0  0  0  0  0
   -1.0955   -2.5606    4.0713 H   0  0  0  0  0  0  0  0  0  0  0  0
    0.8504   -4.0608    3.8090 H   0  0  0  0  0  0  0  0  0  0  0  0
    4.3147   -1.5335    3.6520 H   0  0  0  0  0  0  0  0  0  0  0  0
    6.7758   -1.2950    3.4060 H   0  0  0  0  0  0  0  0  0  0  0  0
    7.1237   -4.9392    1.5211 H   0  0  0  0  0  0  0  0  0  0  0  0
    4.6593   -5.3140    1.5963 H   0  0  0  0  0  0  0  0  0  0  0  0
    2.9436   -2.5977   -0.8885 H   0  0  0  0  0  0  0  0  0  0  0  0
    2.3888    0.5501   -2.7942 H   0  0  0  0  0  0  0  0  0  0  0  0
    1.9755    0.6173   -5.1474 H   0  0  0  0  0  0  0  0  0  0  0  0
    2.8142    0.4341   -7.4751 H   0  0  0  0  0  0  0  0  0  0  0  0
    1.8126   -0.0834   -9.7579 H   0  0  0  0  0  0  0  0  0  0  0  0
    0.5549   -3.1111   -7.2608 H   0  0  0  0  0  0  0  0  0  0  0  0
    2.1361   -3.6949   -5.3338 H   0  0  0  0  0  0  0  0  0  0  0  0
    2.5280   -3.7699   -2.9109 H   0  0  0  0  0  0  0  0  0  0  0  0
  1  2  2  0  0  0  0
  2  3  1  0  0  0  0
  2 17  1  0  0  0  0
  3  4  1  0  0  0  0
  3 30  1  0  0  0  0
  3 31  1  0  0  0  0
  4  5  2  0  0  0  0
  4  9  1  0  0  0  0
  5  6  1  0  0  0  0
  5 32  1  0  0  0  0
  6  7  2  0  0  0  0
  6 33  1  0  0  0  0
  7  8  1  0  0  0  0
  7 34  1  0  0  0  0
  8  9  2  0  0  0  0
  8 35  1  0  0  0  0
  9 10  1  0  0  0  0
 10 11  1  0  0  0  0
 11 12  2  0  0  0  0
 11 16  1  0  0  0  0
 12 13  1  0  0  0  0
 12 36  1  0  0  0  0
 13 14  2  0  0  0  0
 13 37  1  0  0  0  0
 14 15  1  0  0  0  0
 15 16  2  0  0  0  0
 15 38  1  0  0  0  0
 16 39  1  0  0  0  0
 17 18  1  0  0  0  0
 17 40  1  0  0  0  0
 18 19  2  0  0  0  0
 18 29  1  0  0  0  0
 19 20  1  0  0  0  0
 19 41  1  0  0  0  0
 20 21  2  0  0  0  0
 20 42  1  0  0  0  0
 21 22  1  0  0  0  0
 21 28  1  0  0  0  0
 22 23  2  0  0  0  0
 22 27  1  0  0  0  0
 23 24  1  0  0  0  0
 23 43  1  0  0  0  0
 24 25  1  0  0  0  0
 24 44  1  0  0  0  0
 25 26  2  0  0  0  0
 25 27  1  0  0  0  0
 27 45  1  0  0  0  0
 28 29  2  0  0  0  0
 28 46  1  0  0  0  0
 29 47  1  0  0  0  0
M  END
$$$$
