
 OpenBabel01122422503D

 42 45  0  0  1  0  0  0  0  0999 V2000
    2.2424    0.1533   -1.9071 O   0  0  0  0  0  0  0  0  0  0  0  0
    2.9706    0.0766   -0.9128 C   0  0  0  0  0  0  0  0  0  0  0  0
    3.1900    1.1760   -0.1153 N   0  0  0  0  0  0  0  0  0  0  0  0
    2.4674    2.4291   -0.4257 C   0  0  3  0  0  0  0  0  0  0  0  0
    1.6371    2.9081    0.7590 C   0  0  0  0  0  0  0  0  0  0  0  0
    0.6288    2.0856    1.2845 C   0  0  0  0  0  0  0  0  0  0  0  0
   -0.2106    2.5581    2.2890 C   0  0  0  0  0  0  0  0  0  0  0  0
   -0.0253    3.8524    2.7410 C   0  0  0  0  0  0  0  0  0  0  0  0
    0.9294    4.6783    2.2685 N   0  0  0  0  0  0  0  0  0  0  0  0
    1.7389    4.1893    1.2987 C   0  0  0  0  0  0  0  0  0  0  0  0
    3.3565    3.4935   -1.0727 C   0  0  0  0  0  0  0  0  0  0  0  0
    2.7902    4.3925   -1.9942 C   0  0  0  0  0  0  0  0  0  0  0  0
    3.5710    5.4191   -2.5038 C   0  0  0  0  0  0  0  0  0  0  0  0
    4.8820    5.5387   -2.0661 C   0  0  0  0  0  0  0  0  0  0  0  0
    5.3703    4.6135   -1.1541 C   0  0  0  0  0  0  0  0  0  0  0  0
    4.6389    3.6031   -0.6376 N   0  0  0  0  0  0  0  0  0  0  0  0
    3.5133   -1.2740   -0.5344 C   0  0  0  0  0  0  0  0  0  0  0  0
    2.8811   -2.3339   -1.1671 C   0  0  0  0  0  0  0  0  0  0  0  0
    3.1504   -3.6298   -0.7685 C   0  0  0  0  0  0  0  0  0  0  0  0
    4.1595   -3.8418    0.1564 C   0  0  0  0  0  0  0  0  0  0  0  0
    4.4878   -5.1672    0.4581 C   0  0  0  0  0  0  0  0  0  0  0  0
    5.7325   -5.4220    0.9913 C   0  0  0  0  0  0  0  0  0  0  0  0
    6.1855   -6.6841    1.0065 F   0  0  0  0  0  0  0  0  0  0  0  0
    6.5256   -4.3694    1.4106 C   0  0  0  0  0  0  0  0  0  0  0  0
    7.7694   -4.6141    1.8545 F   0  0  0  0  0  0  0  0  0  0  0  0
    6.0716   -3.0436    1.3247 C   0  0  0  0  0  0  0  0  0  0  0  0
    4.8913   -2.7302    0.6465 C   0  0  0  0  0  0  0  0  0  0  0  0
    4.5122   -1.4404    0.3831 N   0  0  0  0  0  0  0  0  0  0  0  0
    3.9140    1.1743    0.5998 H   0  0  0  0  0  0  0  0  0  0  0  0
    1.7167    2.1946   -1.1899 H   0  0  0  0  0  0  0  0  0  0  0  0
    0.4818    1.0815    0.8928 H   0  0  0  0  0  0  0  0  0  0  0  0
   -0.9972    1.9359    2.6994 H   0  0  0  0  0  0  0  0  0  0  0  0
   -0.6612    4.2728    3.5145 H   0  0  0  0  0  0  0  0  0  0  0  0
    2.4779    4.9074    0.9505 H   0  0  0  0  0  0  0  0  0  0  0  0
    1.7570    4.2795   -2.3160 H   0  0  0  0  0  0  0  0  0  0  0  0
    3.1467    6.1216   -3.2107 H   0  0  0  0  0  0  0  0  0  0  0  0
    5.5149    6.3408   -2.4246 H   0  0  0  0  0  0  0  0  0  0  0  0
    6.3942    4.6698   -0.7971 H   0  0  0  0  0  0  0  0  0  0  0  0
    2.1722   -2.1698   -1.9754 H   0  0  0  0  0  0  0  0  0  0  0  0
    2.6500   -4.4550   -1.2642 H   0  0  0  0  0  0  0  0  0  0  0  0
    3.8393   -5.9954    0.1919 H   0  0  0  0  0  0  0  0  0  0  0  0
    6.7056   -2.2530    1.7096 H   0  0  0  0  0  0  0  0  0  0  0  0
  1  2  2  0  0  0  0
  2  3  1  0  0  0  0
  2 17  1  0  0  0  0
  3  4  1  0  0  0  0
  3 29  1  0  0  0  0
  4  5  1  0  0  0  0
  4 11  1  0  0  0  0
  4 30  1  0  0  0  0
  5  6  2  0  0  0  0
  5 10  1  0  0  0  0
  6  7  1  0  0  0  0
  6 31  1  0  0  0  0
  7  8  2  0  0  0  0
  7 32  1  0  0  0  0
  8  9  1  0  0  0  0
  8 33  1  0  0  0  0
  9 10  2  0  0  0  0
 10 34  1  0  0  0  0
 11 12  2  0  0  0  0
 11 16  1  0  0  0  0
 12 13  1  0  0  0  0
 12 35  1  0  0  0  0
 13 14  2  0  0  0  0
 13 36  1  0  0  0  0
 14 15  1  0  0  0  0
 14 37  1  0  0  0  0
 15 16  2  0  0  0  0
 15 38  1  0  0  0  0
 17 18  2  0  0  0  0
 17 28  1  0  0  0  0
 18 19  1  0  0  0  0
 18 39  1  0  0  0  0
 19 20  2  0  0  0  0
 19 40  1  0  0  0  0
 20 21  1  0  0  0  0
 20 27  1  0  0  0  0
 21 22  2  0  0  0  0
 21 41  1  0  0  0  0
 22 23  1  0  0  0  0
 22 24  1  0  0  0  0
 24 25  1  0  0  0  0
 24 26  2  0  0  0  0
 26 27  1  0  0  0  0
 26 42  1  0  0  0  0
 27 28  2  0  0  0  0
M  END
$$$$
