
 OpenBabel01122422503D

 43 46  0  0  0  0  0  0  0  0999 V2000
    1.2033    0.8234    0.4456 C   0  0  0  0  0  0  0  0  0  0  0  0
    2.4359    0.1872    0.0841 O   0  0  0  0  0  0  0  0  0  0  0  0
    3.1102    0.7614   -0.9725 C   0  0  0  0  0  0  0  0  0  0  0  0
    2.8341    2.0708   -1.4230 C   0  0  0  0  0  0  0  0  0  0  0  0
    3.4930    2.6171   -2.5332 C   0  0  0  0  0  0  0  0  0  0  0  0
    3.1677    3.9135   -3.0141 N   0  0  0  0  0  0  0  0  0  0  0  0
    3.6508    4.5240   -4.1540 C   0  0  0  0  0  0  0  0  0  0  0  0
    3.0515    5.7595   -4.2079 C   0  0  0  0  0  0  0  0  0  0  0  0
    2.2077    5.9379   -3.1485 N   0  0  0  0  0  0  0  0  0  0  0  0
    2.2943    4.8237   -2.4568 C   0  0  0  0  0  0  0  0  0  0  0  0
    4.4716    1.8622   -3.1650 C   0  0  0  0  0  0  0  0  0  0  0  0
    4.7838    0.5891   -2.6919 C   0  0  0  0  0  0  0  0  0  0  0  0
    4.1069   -0.0000   -1.6129 C   0  0  0  0  0  0  0  0  0  0  0  0
    4.4147   -1.3227   -1.1770 N   0  0  0  0  0  0  0  0  0  0  0  0
    5.3020   -2.1852   -1.8208 C   0  0  0  0  0  0  0  0  0  0  0  0
    5.8574   -1.9462   -2.8876 O   0  0  0  0  0  0  0  0  0  0  0  0
    5.6009   -3.4623   -1.1677 C   0  0  0  0  0  0  0  0  0  0  0  0
    4.7006   -4.1272   -0.4263 N   0  0  0  0  0  0  0  0  0  0  0  0
    5.2604   -5.3779   -0.2048 O   0  0  0  0  0  0  0  0  0  0  0  0
    6.4993   -5.4315   -0.7538 C   0  0  0  0  0  0  0  0  0  0  0  0
    6.8129   -4.2206   -1.3209 C   0  0  0  0  0  0  0  0  0  0  0  0
    8.1027   -3.8830   -1.9196 C   0  0  0  0  0  0  0  0  0  0  0  0
    8.6099   -2.5752   -1.7977 C   0  0  0  0  0  0  0  0  0  0  0  0
    9.8490   -2.2257   -2.3479 C   0  0  0  0  0  0  0  0  0  0  0  0
   10.5995   -3.1862   -3.0076 C   0  0  0  0  0  0  0  0  0  0  0  0
   11.7909   -2.8577   -3.5203 F   0  0  0  0  0  0  0  0  0  0  0  0
   10.1325   -4.4853   -3.1409 C   0  0  0  0  0  0  0  0  0  0  0  0
    8.8900   -4.8253   -2.6004 C   0  0  0  0  0  0  0  0  0  0  0  0
    8.4646   -6.0888   -2.7528 F   0  0  0  0  0  0  0  0  0  0  0  0
    0.6900    0.2021    1.1840 H   0  0  0  0  0  0  0  0  0  0  0  0
    0.5405    0.9242   -0.4230 H   0  0  0  0  0  0  0  0  0  0  0  0
    1.3814    1.8002    0.9118 H   0  0  0  0  0  0  0  0  0  0  0  0
    2.0896    2.6638   -0.9098 H   0  0  0  0  0  0  0  0  0  0  0  0
    4.3489    4.0567   -4.8318 H   0  0  0  0  0  0  0  0  0  0  0  0
    3.1808    6.5256   -4.9595 H   0  0  0  0  0  0  0  0  0  0  0  0
    1.7480    4.6406   -1.5426 H   0  0  0  0  0  0  0  0  0  0  0  0
    5.0358    2.2188   -4.0209 H   0  0  0  0  0  0  0  0  0  0  0  0
    5.5893    0.0914   -3.2187 H   0  0  0  0  0  0  0  0  0  0  0  0
    3.9164   -1.6626   -0.3612 H   0  0  0  0  0  0  0  0  0  0  0  0
    7.0160   -6.3755   -0.6481 H   0  0  0  0  0  0  0  0  0  0  0  0
    8.0490   -1.8012   -1.2779 H   0  0  0  0  0  0  0  0  0  0  0  0
   10.2263   -1.2131   -2.2618 H   0  0  0  0  0  0  0  0  0  0  0  0
   10.7273   -5.2314   -3.6586 H   0  0  0  0  0  0  0  0  0  0  0  0
  1  2  1  0  0  0  0
  1 30  1  0  0  0  0
  1 31  1  0  0  0  0
  1 32  1  0  0  0  0
  2  3  1  0  0  0  0
  3  4  2  0  0  0  0
  3 13  1  0  0  0  0
  4  5  1  0  0  0  0
  4 33  1  0  0  0  0
  5  6  1  0  0  0  0
  5 11  2  0  0  0  0
  6  7  1  0  0  0  0
  6 10  1  0  0  0  0
  7  8  2  0  0  0  0
  7 34  1  0  0  0  0
  8  9  1  0  0  0  0
  8 35  1  0  0  0  0
  9 10  2  0  0  0  0
 10 36  1  0  0  0  0
 11 12  1  0  0  0  0
 11 37  1  0  0  0  0
 12 13  2  0  0  0  0
 12 38  1  0  0  0  0
 13 14  1  0  0  0  0
 14 15  1  0  0  0  0
 14 39  1  0  0  0  0
 15 16  2  0  0  0  0
 15 17  1  0  0  0  0
 17 18  2  0  0  0  0
 17 21  1  0  0  0  0
 18 19  1  0  0  0  0
 19 20  1  0  0  0  0
 20 21  2  0  0  0  0
 20 40  1  0  0  0  0
 21 22  1  0  0  0  0
 22 23  2  0  0  0  0
 22 28  1  0  0  0  0
 23 24  1  0  0  0  0
 23 41  1  0  0  0  0
 24 25  2  0  0  0  0
 24 42  1  0  0  0  0
 25 26  1  0  0  0  0
 25 27  1  0  0  0  0
 27 28  2  0  0  0  0
 27 43  1  0  0  0  0
 28 29  1  0  0  0  0
M  END
$$$$
