
 OpenBabel01122422503D

 39 42  0  0  0  0  0  0  0  0999 V2000
    0.8427   -0.0084    0.1629 O   0  0  0  0  0  0  0  0  0  0  0  0
    2.0538   -0.0711   -0.0243 C   0  0  0  0  0  0  0  0  0  0  0  0
    2.7504    0.6267   -1.0003 N   0  0  0  0  0  0  0  0  0  0  0  0
    2.1818    1.5746   -1.8832 C   0  0  0  0  0  0  0  0  0  0  0  0
    0.9235    2.1405   -1.6623 C   0  0  0  0  0  0  0  0  0  0  0  0
    0.3800    3.0470   -2.5646 C   0  0  0  0  0  0  0  0  0  0  0  0
    1.1023    3.4201   -3.6922 C   0  0  0  0  0  0  0  0  0  0  0  0
    2.3808    2.9001   -3.9348 C   0  0  0  0  0  0  0  0  0  0  0  0
    3.1063    3.3080   -5.0756 N   0  0  0  0  0  0  0  0  0  0  0  0
    4.1873    2.7158   -5.6305 C   0  0  0  0  0  0  0  0  0  0  0  0
    4.6892    3.3126   -6.6673 N   0  0  0  0  0  0  0  0  0  0  0  0
    3.8783    4.3963   -6.8321 N   0  0  0  0  0  0  0  0  0  0  0  0
    2.8850    4.4284   -5.8550 C   0  0  0  0  0  0  0  0  0  0  0  0
    2.0559    5.3183   -5.7511 O   0  0  0  0  0  0  0  0  0  0  0  0
    2.9113    1.9704   -3.0154 C   0  0  0  0  0  0  0  0  0  0  0  0
    2.8526   -0.9699    0.8033 C   0  0  0  0  0  0  0  0  0  0  0  0
    4.1849   -1.1136    0.7137 N   0  0  0  0  0  0  0  0  0  0  0  0
    4.5237   -2.0337    1.7080 O   0  0  0  0  0  0  0  0  0  0  0  0
    3.4005   -2.4295    2.3759 C   0  0  0  0  0  0  0  0  0  0  0  0
    3.5435   -3.3542    3.4900 C   0  0  0  0  0  0  0  0  0  0  0  0
    2.5765   -3.3863    4.5065 C   0  0  0  0  0  0  0  0  0  0  0  0
    1.5260   -2.5514    4.4744 F   0  0  0  0  0  0  0  0  0  0  0  0
    2.6623   -4.2685    5.5785 C   0  0  0  0  0  0  0  0  0  0  0  0
    3.7348   -5.1425    5.6428 C   0  0  0  0  0  0  0  0  0  0  0  0
    3.8254   -5.9975    6.6683 F   0  0  0  0  0  0  0  0  0  0  0  0
    4.7113   -5.1458    4.6558 C   0  0  0  0  0  0  0  0  0  0  0  0
    4.6109   -4.2522    3.5896 C   0  0  0  0  0  0  0  0  0  0  0  0
    5.5552   -4.3031    2.6387 F   0  0  0  0  0  0  0  0  0  0  0  0
    2.3202   -1.7953    1.8195 C   0  0  0  0  0  0  0  0  0  0  0  0
    3.7241    0.3650   -1.1200 H   0  0  0  0  0  0  0  0  0  0  0  0
    0.3337    1.9146   -0.7797 H   0  0  0  0  0  0  0  0  0  0  0  0
   -0.6090    3.4614   -2.3854 H   0  0  0  0  0  0  0  0  0  0  0  0
    0.6247    4.1116   -4.3816 H   0  0  0  0  0  0  0  0  0  0  0  0
    4.5747    1.7785   -5.2156 H   0  0  0  0  0  0  0  0  0  0  0  0
    4.0294    5.1014   -7.5410 H   0  0  0  0  0  0  0  0  0  0  0  0
    3.9031    1.5547   -3.1625 H   0  0  0  0  0  0  0  0  0  0  0  0
    1.8997   -4.2687    6.3504 H   0  0  0  0  0  0  0  0  0  0  0  0
    5.5412   -5.8416    4.7109 H   0  0  0  0  0  0  0  0  0  0  0  0
    1.2817   -1.8822    2.1059 H   0  0  0  0  0  0  0  0  0  0  0  0
  1  2  2  0  0  0  0
  2  3  1  0  0  0  0
  2 16  1  0  0  0  0
  3  4  1  0  0  0  0
  3 30  1  0  0  0  0
  4  5  2  0  0  0  0
  4 15  1  0  0  0  0
  5  6  1  0  0  0  0
  5 31  1  0  0  0  0
  6  7  2  0  0  0  0
  6 32  1  0  0  0  0
  7  8  1  0  0  0  0
  7 33  1  0  0  0  0
  8  9  1  0  0  0  0
  8 15  2  0  0  0  0
  9 10  1  0  0  0  0
  9 13  1  0  0  0  0
 10 11  2  0  0  0  0
 10 34  1  0  0  0  0
 11 12  1  0  0  0  0
 12 13  1  0  0  0  0
 12 35  1  0  0  0  0
 13 14  2  0  0  0  0
 15 36  1  0  0  0  0
 16 17  2  0  0  0  0
 16 29  1  0  0  0  0
 17 18  1  0  0  0  0
 18 19  1  0  0  0  0
 19 20  1  0  0  0  0
 19 29  2  0  0  0  0
 20 21  2  0  0  0  0
 20 27  1  0  0  0  0
 21 22  1  0  0  0  0
 21 23  1  0  0  0  0
 23 24  2  0  0  0  0
 23 37  1  0  0  0  0
 24 25  1  0  0  0  0
 24 26  1  0  0  0  0
 26 27  2  0  0  0  0
 26 38  1  0  0  0  0
 27 28  1  0  0  0  0
 29 39  1  0  0  0  0
M  END
$$$$
