
 OpenBabel01122422503D

 43 46  0  0  0  0  0  0  0  0999 V2000
    1.1268   -0.9057    0.2551 O   0  0  0  0  0  0  0  0  0  0  0  0
    2.2099   -0.3285    0.1953 C   0  0  0  0  0  0  0  0  0  0  0  0
    2.7027    0.5975    1.0941 N   0  0  0  0  0  0  0  0  0  0  0  0
    2.0186    1.1051    2.2248 C   0  0  0  0  0  0  0  0  0  0  0  0
    0.8912    0.4861    2.7610 C   0  0  0  0  0  0  0  0  0  0  0  0
    0.1735    1.0717    3.8049 C   0  0  0  0  0  0  0  0  0  0  0  0
    0.5711    2.3218    4.3076 C   0  0  0  0  0  0  0  0  0  0  0  0
    0.0125    3.1979    5.2722 C   0  0  0  0  0  0  0  0  0  0  0  0
    0.7924    4.3267    5.3092 C   0  0  0  0  0  0  0  0  0  0  0  0
    1.8282    4.1667    4.4155 N   0  0  0  0  0  0  0  0  0  0  0  0
    2.6785    5.2730    3.9876 C   0  0  0  0  0  0  0  0  0  0  0  0
    3.8790    5.5159    4.8597 C   0  0  0  0  0  0  0  0  0  0  0  0
    3.7973    6.3037    6.0195 C   0  0  0  0  0  0  0  0  0  0  0  0
    4.9552    6.6556    6.7219 C   0  0  0  0  0  0  0  0  0  0  0  0
    6.2033    6.2143    6.2835 C   0  0  0  0  0  0  0  0  0  0  0  0
    6.2911    5.3941    5.1609 C   0  0  0  0  0  0  0  0  0  0  0  0
    5.1351    5.0484    4.4656 C   0  0  0  0  0  0  0  0  0  0  0  0
    5.2487    4.2908    3.3650 F   0  0  0  0  0  0  0  0  0  0  0  0
    1.7220    2.9302    3.7936 C   0  0  0  0  0  0  0  0  0  0  0  0
    2.4894    2.3097    2.7844 C   0  0  0  0  0  0  0  0  0  0  0  0
    3.0758   -0.6392   -0.9961 C   0  0  0  0  0  0  0  0  0  0  0  0
    4.1931    0.0171   -1.3041 C   0  0  0  0  0  0  0  0  0  0  0  0
    4.6883    1.0385   -0.5765 F   0  0  0  0  0  0  0  0  0  0  0  0
    4.9420   -0.3566   -2.5201 C   0  0  0  0  0  0  0  0  0  0  0  0
    5.9722    0.2207   -2.8537 O   0  0  0  0  0  0  0  0  0  0  0  0
    4.4106   -1.3853   -3.2554 N   0  0  0  0  0  0  0  0  0  0  0  0
    3.2547   -2.0555   -2.9554 C   0  0  0  0  0  0  0  0  0  0  0  0
    2.8211   -2.9539   -3.6683 O   0  0  0  0  0  0  0  0  0  0  0  0
    2.6250   -1.6518   -1.8162 N   0  0  0  0  0  0  0  0  0  0  0  0
    3.5706    1.0701    0.8675 H   0  0  0  0  0  0  0  0  0  0  0  0
    0.5325   -0.4681    2.3859 H   0  0  0  0  0  0  0  0  0  0  0  0
   -0.7165    0.5809    4.1900 H   0  0  0  0  0  0  0  0  0  0  0  0
   -0.8980    3.0364    5.8349 H   0  0  0  0  0  0  0  0  0  0  0  0
    0.6682    5.2464    5.8647 H   0  0  0  0  0  0  0  0  0  0  0  0
    2.0499    6.1740    3.9764 H   0  0  0  0  0  0  0  0  0  0  0  0
    2.9696    5.1053    2.9451 H   0  0  0  0  0  0  0  0  0  0  0  0
    2.8377    6.6802    6.3679 H   0  0  0  0  0  0  0  0  0  0  0  0
    4.8857    7.2927    7.6013 H   0  0  0  0  0  0  0  0  0  0  0  0
    7.1052    6.5137    6.8124 H   0  0  0  0  0  0  0  0  0  0  0  0
    7.2551    5.0406    4.8087 H   0  0  0  0  0  0  0  0  0  0  0  0
    3.3837    2.7916    2.4027 H   0  0  0  0  0  0  0  0  0  0  0  0
    4.8934   -1.6564   -4.0972 H   0  0  0  0  0  0  0  0  0  0  0  0
    1.7499   -2.1146   -1.5679 H   0  0  0  0  0  0  0  0  0  0  0  0
  1  2  2  0  0  0  0
  2  3  1  0  0  0  0
  2 21  1  0  0  0  0
  3  4  1  0  0  0  0
  3 30  1  0  0  0  0
  4  5  2  0  0  0  0
  4 20  1  0  0  0  0
  5  6  1  0  0  0  0
  5 31  1  0  0  0  0
  6  7  2  0  0  0  0
  6 32  1  0  0  0  0
  7  8  1  0  0  0  0
  7 19  1  0  0  0  0
  8  9  2  0  0  0  0
  8 33  1  0  0  0  0
  9 10  1  0  0  0  0
  9 34  1  0  0  0  0
 10 11  1  0  0  0  0
 10 19  1  0  0  0  0
 11 12  1  0  0  0  0
 11 35  1  0  0  0  0
 11 36  1  0  0  0  0
 12 13  2  0  0  0  0
 12 17  1  0  0  0  0
 13 14  1  0  0  0  0
 13 37  1  0  0  0  0
 14 15  2  0  0  0  0
 14 38  1  0  0  0  0
 15 16  1  0  0  0  0
 15 39  1  0  0  0  0
 16 17  2  0  0  0  0
 16 40  1  0  0  0  0
 17 18  1  0  0  0  0
 19 20  2  0  0  0  0
 20 41  1  0  0  0  0
 21 22  2  0  0  0  0
 21 29  1  0  0  0  0
 22 23  1  0  0  0  0
 22 24  1  0  0  0  0
 24 25  2  0  0  0  0
 24 26  1  0  0  0  0
 26 27  1  0  0  0  0
 26 42  1  0  0  0  0
 27 28  2  0  0  0  0
 27 29  1  0  0  0  0
 29 43  1  0  0  0  0
M  END
$$$$
