
 OpenBabel01122422503D

 41 44  0  0  0  0  0  0  0  0999 V2000
    1.0834   -0.4803    0.4946 O   0  0  0  0  0  0  0  0  0  0  0  0
    2.1870   -0.1582    0.0766 C   0  0  0  0  0  0  0  0  0  0  0  0
    2.7447    1.1064    0.1712 N   0  0  0  0  0  0  0  0  0  0  0  0
    2.1360    2.2234    0.7932 C   0  0  0  0  0  0  0  0  0  0  0  0
    0.9872    2.1613    1.5833 C   0  0  0  0  0  0  0  0  0  0  0  0
    0.4512    3.3253    2.1372 C   0  0  0  0  0  0  0  0  0  0  0  0
    1.1008    4.5218    1.8972 C   0  0  0  0  0  0  0  0  0  0  0  0
    0.5842    5.6546    2.5139 O   0  0  0  0  0  0  0  0  0  0  0  0
    1.4817    6.6471    2.8343 C   0  0  0  0  0  0  0  0  0  0  0  0
    2.7518    6.3770    3.3552 C   0  0  0  0  0  0  0  0  0  0  0  0
    3.6397    7.4206    3.6184 C   0  0  0  0  0  0  0  0  0  0  0  0
    3.2425    8.7416    3.4186 C   0  0  0  0  0  0  0  0  0  0  0  0
    1.9547    9.0189    2.9630 C   0  0  0  0  0  0  0  0  0  0  0  0
    1.0797    7.9716    2.6730 C   0  0  0  0  0  0  0  0  0  0  0  0
   -0.1530    8.2575    2.2321 F   0  0  0  0  0  0  0  0  0  0  0  0
    2.2092    4.6269    1.1288 N   0  0  0  0  0  0  0  0  0  0  0  0
    2.7058    3.4810    0.6138 C   0  0  0  0  0  0  0  0  0  0  0  0
    3.0033   -1.2029   -0.5950 C   0  0  0  0  0  0  0  0  0  0  0  0
    4.3824   -1.2355   -0.3823 C   0  0  0  0  0  0  0  0  0  0  0  0
    5.2019   -2.2031   -0.8485 N   0  0  0  0  0  0  0  0  0  0  0  0
    4.6036   -3.2064   -1.5126 C   0  0  0  0  0  0  0  0  0  0  0  0
    5.4772   -4.1628   -1.9154 O   0  0  0  0  0  0  0  0  0  0  0  0
    3.2367   -3.3118   -1.7821 C   0  0  0  0  0  0  0  0  0  0  0  0
    2.6732   -4.4134   -2.4518 C   0  0  0  0  0  0  0  0  0  0  0  0
    1.3119   -4.4293   -2.6846 C   0  0  0  0  0  0  0  0  0  0  0  0
    0.4915   -3.4262   -2.3287 N   0  0  0  0  0  0  0  0  0  0  0  0
    1.0472   -2.3810   -1.6676 C   0  0  0  0  0  0  0  0  0  0  0  0
    2.4112   -2.2628   -1.3361 C   0  0  0  0  0  0  0  0  0  0  0  0
    3.6029    1.2976   -0.3315 H   0  0  0  0  0  0  0  0  0  0  0  0
    0.4892    1.2236    1.8065 H   0  0  0  0  0  0  0  0  0  0  0  0
   -0.4371    3.2877    2.7574 H   0  0  0  0  0  0  0  0  0  0  0  0
    3.0774    5.3544    3.5210 H   0  0  0  0  0  0  0  0  0  0  0  0
    4.6445    7.1963    3.9708 H   0  0  0  0  0  0  0  0  0  0  0  0
    3.9373    9.5524    3.6176 H   0  0  0  0  0  0  0  0  0  0  0  0
    1.6260   10.0433    2.8167 H   0  0  0  0  0  0  0  0  0  0  0  0
    3.6099    3.6204    0.0289 H   0  0  0  0  0  0  0  0  0  0  0  0
    4.8893   -0.4855    0.2177 H   0  0  0  0  0  0  0  0  0  0  0  0
    6.3124   -3.8010   -1.5649 H   0  0  0  0  0  0  0  0  0  0  0  0
    3.2867   -5.2507   -2.7708 H   0  0  0  0  0  0  0  0  0  0  0  0
    0.8341   -5.2706   -3.1765 H   0  0  0  0  0  0  0  0  0  0  0  0
    0.3257   -1.6069   -1.4147 H   0  0  0  0  0  0  0  0  0  0  0  0
  1  2  2  0  0  0  0
  2  3  1  0  0  0  0
  2 18  1  0  0  0  0
  3  4  1  0  0  0  0
  3 29  1  0  0  0  0
  4  5  2  0  0  0  0
  4 17  1  0  0  0  0
  5  6  1  0  0  0  0
  5 30  1  0  0  0  0
  6  7  2  0  0  0  0
  6 31  1  0  0  0  0
  7  8  1  0  0  0  0
  7 16  1  0  0  0  0
  8  9  1  0  0  0  0
  9 10  2  0  0  0  0
  9 14  1  0  0  0  0
 10 11  1  0  0  0  0
 10 32  1  0  0  0  0
 11 12  2  0  0  0  0
 11 33  1  0  0  0  0
 12 13  1  0  0  0  0
 12 34  1  0  0  0  0
 13 14  2  0  0  0  0
 13 35  1  0  0  0  0
 14 15  1  0  0  0  0
 16 17  2  0  0  0  0
 17 36  1  0  0  0  0
 18 19  2  0  0  0  0
 18 28  1  0  0  0  0
 19 20  1  0  0  0  0
 19 37  1  0  0  0  0
 20 21  2  0  0  0  0
 21 22  1  0  0  0  0
 21 23  1  0  0  0  0
 22 38  1  0  0  0  0
 23 24  2  0  0  0  0
 23 28  1  0  0  0  0
 24 25  1  0  0  0  0
 24 39  1  0  0  0  0
 25 26  2  0  0  0  0
 25 40  1  0  0  0  0
 26 27  1  0  0  0  0
 27 28  2  0  0  0  0
 27 41  1  0  0  0  0
M  END
$$$$
