
 OpenBabel01122422503D

 47 50  0  0  1  0  0  0  0  0999 V2000
    2.9038   -2.1186    0.8391 O   0  0  0  0  0  0  0  0  0  0  0  0
    3.1948   -1.0177    0.3837 C   0  0  0  0  0  0  0  0  0  0  0  0
    2.8353   -0.6086   -0.8882 N   0  0  0  0  0  0  0  0  0  0  0  0
    2.2244   -1.5737   -1.8247 C   0  0  3  0  0  0  0  0  0  0  0  0
    1.2430   -0.8427   -2.7682 C   0  0  0  0  0  0  0  0  0  0  0  0
    0.8541   -1.2447   -3.8543 O   0  0  0  0  0  0  0  0  0  0  0  0
    0.7458    0.2966   -2.2096 O   0  0  0  0  0  0  0  0  0  0  0  0
    3.2734   -2.3782   -2.5692 C   0  0  0  0  0  0  0  0  0  0  0  0
    4.2022   -1.7621   -3.4178 C   0  0  0  0  0  0  0  0  0  0  0  0
    5.1209   -2.5321   -4.1250 C   0  0  0  0  0  0  0  0  0  0  0  0
    5.1295   -3.9222   -3.9851 C   0  0  0  0  0  0  0  0  0  0  0  0
    4.2413   -4.5827   -3.1187 C   0  0  0  0  0  0  0  0  0  0  0  0
    4.3079   -6.0530   -2.9296 C   0  0  0  0  0  0  0  0  0  0  0  0
    5.5389   -6.7265   -2.9423 C   0  0  0  0  0  0  0  0  0  0  0  0
    5.5762   -8.1003   -2.7521 C   0  0  0  0  0  0  0  0  0  0  0  0
    4.4814   -8.8581   -2.5464 N   0  0  0  0  0  0  0  0  0  0  0  0
    3.3018   -8.2068   -2.5293 C   0  0  0  0  0  0  0  0  0  0  0  0
    3.1648   -6.8362   -2.7175 C   0  0  0  0  0  0  0  0  0  0  0  0
    3.3131   -3.7824   -2.4248 C   0  0  0  0  0  0  0  0  0  0  0  0
    3.9902   -0.0713    1.1975 C   0  0  0  0  0  0  0  0  0  0  0  0
    4.9282   -0.5545    2.1103 C   0  0  0  0  0  0  0  0  0  0  0  0
    5.6786    0.3469    2.8668 C   0  0  0  0  0  0  0  0  0  0  0  0
    5.4688    1.7132    2.6971 C   0  0  0  0  0  0  0  0  0  0  0  0
    6.2751    2.7210    3.3760 C   0  0  0  0  0  0  0  0  0  0  0  0
    6.2358    4.1015    3.4380 C   0  0  0  0  0  0  0  0  0  0  0  0
    7.3564    4.5099    4.2027 C   0  0  0  0  0  0  0  0  0  0  0  0
    8.0034    3.3563    4.5756 C   0  0  0  0  0  0  0  0  0  0  0  0
    7.3538    2.2681    4.0885 O   0  0  0  0  0  0  0  0  0  0  0  0
    4.5327    2.2025    1.8419 N   0  0  0  0  0  0  0  0  0  0  0  0
    3.8141    1.3030    1.1240 C   0  0  0  0  0  0  0  0  0  0  0  0
    3.3851    0.1323   -1.3106 H   0  0  0  0  0  0  0  0  0  0  0  0
    1.5943   -2.2498   -1.2329 H   0  0  0  0  0  0  0  0  0  0  0  0
    1.0644    0.3828   -1.2877 H   0  0  0  0  0  0  0  0  0  0  0  0
    4.2066   -0.6843   -3.5583 H   0  0  0  0  0  0  0  0  0  0  0  0
    5.8293   -2.0548   -4.7979 H   0  0  0  0  0  0  0  0  0  0  0  0
    5.8445   -4.4893   -4.5781 H   0  0  0  0  0  0  0  0  0  0  0  0
    6.4736   -6.1941   -3.0834 H   0  0  0  0  0  0  0  0  0  0  0  0
    6.5196   -8.6379   -2.7632 H   0  0  0  0  0  0  0  0  0  0  0  0
    2.4326   -8.8364   -2.3567 H   0  0  0  0  0  0  0  0  0  0  0  0
    2.1706   -6.4031   -2.7055 H   0  0  0  0  0  0  0  0  0  0  0  0
    2.6085   -4.2551   -1.7407 H   0  0  0  0  0  0  0  0  0  0  0  0
    5.0889   -1.6241    2.2249 H   0  0  0  0  0  0  0  0  0  0  0  0
    6.4247   -0.0180    3.5677 H   0  0  0  0  0  0  0  0  0  0  0  0
    5.4954    4.7307    2.9636 H   0  0  0  0  0  0  0  0  0  0  0  0
    7.6611    5.5188    4.4433 H   0  0  0  0  0  0  0  0  0  0  0  0
    8.8961    3.1495    5.1496 H   0  0  0  0  0  0  0  0  0  0  0  0
    3.0628    1.7520    0.4814 H   0  0  0  0  0  0  0  0  0  0  0  0
  1  2  2  0  0  0  0
  2  3  1  0  0  0  0
  2 20  1  0  0  0  0
  3  4  1  0  0  0  0
  3 31  1  0  0  0  0
  4  5  1  0  0  0  0
  4  8  1  0  0  0  0
  4 32  1  0  0  0  0
  5  6  2  0  0  0  0
  5  7  1  0  0  0  0
  7 33  1  0  0  0  0
  8  9  2  0  0  0  0
  8 19  1  0  0  0  0
  9 10  1  0  0  0  0
  9 34  1  0  0  0  0
 10 11  2  0  0  0  0
 10 35  1  0  0  0  0
 11 12  1  0  0  0  0
 11 36  1  0  0  0  0
 12 13  1  0  0  0  0
 12 19  2  0  0  0  0
 13 14  2  0  0  0  0
 13 18  1  0  0  0  0
 14 15  1  0  0  0  0
 14 37  1  0  0  0  0
 15 16  2  0  0  0  0
 15 38  1  0  0  0  0
 16 17  1  0  0  0  0
 17 18  2  0  0  0  0
 17 39  1  0  0  0  0
 18 40  1  0  0  0  0
 19 41  1  0  0  0  0
 20 21  2  0  0  0  0
 20 30  1  0  0  0  0
 21 22  1  0  0  0  0
 21 42  1  0  0  0  0
 22 23  2  0  0  0  0
 22 43  1  0  0  0  0
 23 24  1  0  0  0  0
 23 29  1  0  0  0  0
 24 25  2  0  0  0  0
 24 28  1  0  0  0  0
 25 26  1  0  0  0  0
 25 44  1  0  0  0  0
 26 27  2  0  0  0  0
 26 45  1  0  0  0  0
 27 28  1  0  0  0  0
 27 46  1  0  0  0  0
 29 30  2  0  0  0  0
 30 47  1  0  0  0  0
M  END
$$$$
