
 OpenBabel01122422503D

 48 51  0  0  0  0  0  0  0  0999 V2000
    0.8396    0.1109   -0.6486 C   0  0  0  0  0  0  0  0  0  0  0  0
    2.0300    0.3049   -1.4047 O   0  0  0  0  0  0  0  0  0  0  0  0
    2.8758    1.2926   -0.9734 C   0  0  0  0  0  0  0  0  0  0  0  0
    2.5966    2.2111    0.0356 C   0  0  0  0  0  0  0  0  0  0  0  0
    3.5437    3.1719    0.3790 C   0  0  0  0  0  0  0  0  0  0  0  0
    4.7813    3.1980   -0.2714 C   0  0  0  0  0  0  0  0  0  0  0  0
    5.1177    2.2600   -1.2633 C   0  0  0  0  0  0  0  0  0  0  0  0
    6.4892    2.2179   -1.8459 C   0  0  0  0  0  0  0  0  0  0  0  0
    7.6046    2.5023   -1.0428 C   0  0  0  0  0  0  0  0  0  0  0  0
    8.9094    2.4629   -1.5531 C   0  0  0  0  0  0  0  0  0  0  0  0
    9.1411    2.1271   -2.8878 C   0  0  0  0  0  0  0  0  0  0  0  0
   10.5579    2.0557   -3.4108 C   0  0  0  0  0  0  0  0  0  0  0  0
   11.1120    0.7456   -3.1783 N   0  0  0  0  0  0  0  0  0  0  0  0
   12.3350    0.3652   -3.6753 C   0  0  0  0  0  0  0  0  0  0  0  0
   13.0815    1.0911   -4.2990 O   0  0  0  0  0  0  0  0  0  0  0  0
   12.7457   -1.0320   -3.3359 C   0  0  0  0  0  0  0  0  0  0  0  0
   11.7567   -1.9973   -3.0599 C   0  0  0  0  0  0  0  0  0  0  0  0
   12.1171   -3.2694   -2.6384 C   0  0  0  0  0  0  0  0  0  0  0  0
   13.4664   -3.5972   -2.6032 C   0  0  0  0  0  0  0  0  0  0  0  0
   13.8903   -4.9464   -2.2310 C   0  0  0  0  0  0  0  0  0  0  0  0
   13.2911   -5.5830   -1.3963 O   0  0  0  0  0  0  0  0  0  0  0  0
   14.9311   -5.4023   -2.9981 N   0  0  0  0  0  0  0  0  0  0  0  0
   15.9247   -4.5813   -3.5066 N   0  0  0  0  0  0  0  0  0  0  0  0
   15.7229   -3.3044   -3.4145 C   0  0  0  0  0  0  0  0  0  0  0  0
   14.4321   -2.7161   -3.0549 C   0  0  0  0  0  0  0  0  0  0  0  0
   14.1017   -1.3973   -3.3565 C   0  0  0  0  0  0  0  0  0  0  0  0
    8.0459    1.8054   -3.6941 C   0  0  0  0  0  0  0  0  0  0  0  0
    6.7349    1.8627   -3.1836 C   0  0  0  0  0  0  0  0  0  0  0  0
    4.1210    1.3314   -1.6234 C   0  0  0  0  0  0  0  0  0  0  0  0
    0.3193   -0.7605   -1.0577 H   0  0  0  0  0  0  0  0  0  0  0  0
    0.1701    0.9726   -0.7409 H   0  0  0  0  0  0  0  0  0  0  0  0
    1.0658   -0.1022    0.4021 H   0  0  0  0  0  0  0  0  0  0  0  0
    1.6562    2.2076    0.5750 H   0  0  0  0  0  0  0  0  0  0  0  0
    3.3286    3.8931    1.1623 H   0  0  0  0  0  0  0  0  0  0  0  0
    5.4919    3.9686    0.0209 H   0  0  0  0  0  0  0  0  0  0  0  0
    7.4817    2.7454    0.0140 H   0  0  0  0  0  0  0  0  0  0  0  0
    9.7396    2.6900   -0.8863 H   0  0  0  0  0  0  0  0  0  0  0  0
   11.1958    2.7894   -2.9029 H   0  0  0  0  0  0  0  0  0  0  0  0
   10.5969    2.2778   -4.4815 H   0  0  0  0  0  0  0  0  0  0  0  0
   10.6617    0.1864   -2.4642 H   0  0  0  0  0  0  0  0  0  0  0  0
   10.7043   -1.7776   -3.2017 H   0  0  0  0  0  0  0  0  0  0  0  0
   11.3586   -4.0134   -2.4089 H   0  0  0  0  0  0  0  0  0  0  0  0
   14.7239   -6.2027   -3.5670 H   0  0  0  0  0  0  0  0  0  0  0  0
   16.5380   -2.6339   -3.7363 H   0  0  0  0  0  0  0  0  0  0  0  0
   14.8639   -0.6810   -3.6559 H   0  0  0  0  0  0  0  0  0  0  0  0
    8.1970    1.5112   -4.7367 H   0  0  0  0  0  0  0  0  0  0  0  0
    5.9049    1.6310   -3.8501 H   0  0  0  0  0  0  0  0  0  0  0  0
    4.3153    0.5892   -2.3922 H   0  0  0  0  0  0  0  0  0  0  0  0
  1  2  1  0  0  0  0
  1 30  1  0  0  0  0
  1 31  1  0  0  0  0
  1 32  1  0  0  0  0
  2  3  1  0  0  0  0
  3  4  2  0  0  0  0
  3 29  1  0  0  0  0
  4  5  1  0  0  0  0
  4 33  1  0  0  0  0
  5  6  2  0  0  0  0
  5 34  1  0  0  0  0
  6  7  1  0  0  0  0
  6 35  1  0  0  0  0
  7  8  1  0  0  0  0
  7 29  2  0  0  0  0
  8  9  2  0  0  0  0
  8 28  1  0  0  0  0
  9 10  1  0  0  0  0
  9 36  1  0  0  0  0
 10 11  2  0  0  0  0
 10 37  1  0  0  0  0
 11 12  1  0  0  0  0
 11 27  1  0  0  0  0
 12 13  1  0  0  0  0
 12 38  1  0  0  0  0
 12 39  1  0  0  0  0
 13 14  1  0  0  0  0
 13 40  1  0  0  0  0
 14 15  2  0  0  0  0
 14 16  1  0  0  0  0
 16 17  2  0  0  0  0
 16 26  1  0  0  0  0
 17 18  1  0  0  0  0
 17 41  1  0  0  0  0
 18 19  2  0  0  0  0
 18 42  1  0  0  0  0
 19 20  1  0  0  0  0
 19 25  1  0  0  0  0
 20 21  2  0  0  0  0
 20 22  1  0  0  0  0
 22 23  1  0  0  0  0
 22 43  1  0  0  0  0
 23 24  2  0  0  0  0
 24 25  1  0  0  0  0
 24 44  1  0  0  0  0
 25 26  2  0  0  0  0
 26 45  1  0  0  0  0
 27 28  2  0  0  0  0
 27 46  1  0  0  0  0
 28 47  1  0  0  0  0
 29 48  1  0  0  0  0
M  END
$$$$
