
 OpenBabel01122422503D

 51 54  0  0  1  0  0  0  0  0999 V2000
    0.6418    0.1771    0.8200 C   0  0  0  0  0  0  0  0  0  0  0  0
    2.0935   -0.0537    1.1928 C   0  0  0  0  0  0  0  0  0  0  0  0
    2.8277    1.1345    0.8993 O   0  0  0  0  0  0  0  0  0  0  0  0
    4.1690    1.0995    1.1654 C   0  0  0  0  0  0  0  0  0  0  0  0
    4.8576    0.0214    1.7181 C   0  0  0  0  0  0  0  0  0  0  0  0
    6.2312    0.1078    1.9636 C   0  0  0  0  0  0  0  0  0  0  0  0
    6.9536    1.2703    1.6532 C   0  0  0  0  0  0  0  0  0  0  0  0
    8.4481    1.4159    1.9591 C   0  0  3  0  0  0  0  0  0  0  0  0
    9.0281    0.2273    2.5663 N   0  0  0  0  0  0  0  0  0  0  0  0
    9.0538    0.0303    3.9224 C   0  0  0  0  0  0  0  0  0  0  0  0
    8.6905    0.8745    4.7347 O   0  0  0  0  0  0  0  0  0  0  0  0
    9.5861   -1.2968    4.3729 C   0  0  0  0  0  0  0  0  0  0  0  0
   10.0693   -1.3457    5.6265 C   0  0  0  0  0  0  0  0  0  0  0  0
   10.6118   -2.4885    6.1584 N   0  0  0  0  0  0  0  0  0  0  0  0
   10.7011   -3.6875    5.4881 C   0  0  0  0  0  0  0  0  0  0  0  0
   11.1982   -4.6859    5.9989 O   0  0  0  0  0  0  0  0  0  0  0  0
   10.1653   -3.7003    4.1123 C   0  0  0  0  0  0  0  0  0  0  0  0
   10.1804   -4.8682    3.3479 C   0  0  0  0  0  0  0  0  0  0  0  0
    9.6629   -4.8343    2.0583 C   0  0  0  0  0  0  0  0  0  0  0  0
    9.1574   -3.6343    1.5842 C   0  0  0  0  0  0  0  0  0  0  0  0
    9.1313   -2.4845    2.3022 N   0  0  0  0  0  0  0  0  0  0  0  0
    9.6333   -2.5290    3.5678 C   0  0  0  0  0  0  0  0  0  0  0  0
    9.2660    1.8360    0.7371 C   0  0  0  0  0  0  0  0  0  0  0  0
    9.9843    3.0450    0.7616 C   0  0  0  0  0  0  0  0  0  0  0  0
   10.6598    3.5024   -0.3728 C   0  0  0  0  0  0  0  0  0  0  0  0
   10.6429    2.7489   -1.5440 C   0  0  0  0  0  0  0  0  0  0  0  0
    9.9660    1.5321   -1.5763 C   0  0  0  0  0  0  0  0  0  0  0  0
    9.2839    1.0745   -0.4443 C   0  0  0  0  0  0  0  0  0  0  0  0
    6.2476    2.3467    1.0859 C   0  0  0  0  0  0  0  0  0  0  0  0
    4.8715    2.2610    0.8495 C   0  0  0  0  0  0  0  0  0  0  0  0
    0.0411   -0.7099    1.0405 H   0  0  0  0  0  0  0  0  0  0  0  0
    0.5521    0.4098   -0.2457 H   0  0  0  0  0  0  0  0  0  0  0  0
    0.2329    1.0293    1.3718 H   0  0  0  0  0  0  0  0  0  0  0  0
    2.4818   -0.8928    0.6034 H   0  0  0  0  0  0  0  0  0  0  0  0
    2.1532   -0.2846    2.2630 H   0  0  0  0  0  0  0  0  0  0  0  0
    4.3590   -0.9044    1.9845 H   0  0  0  0  0  0  0  0  0  0  0  0
    6.7182   -0.7511    2.4171 H   0  0  0  0  0  0  0  0  0  0  0  0
    8.5136    2.2185    2.7065 H   0  0  0  0  0  0  0  0  0  0  0  0
    9.1706   -0.5849    1.9731 H   0  0  0  0  0  0  0  0  0  0  0  0
   10.0707   -0.4791    6.2855 H   0  0  0  0  0  0  0  0  0  0  0  0
   10.9837   -2.4811    7.1033 H   0  0  0  0  0  0  0  0  0  0  0  0
   10.5868   -5.7900    3.7571 H   0  0  0  0  0  0  0  0  0  0  0  0
    9.6553   -5.7250    1.4382 H   0  0  0  0  0  0  0  0  0  0  0  0
    8.7439   -3.5634    0.5807 H   0  0  0  0  0  0  0  0  0  0  0  0
   10.0024    3.6542    1.6633 H   0  0  0  0  0  0  0  0  0  0  0  0
   11.1865    4.4525   -0.3450 H   0  0  0  0  0  0  0  0  0  0  0  0
   11.1544    3.1138   -2.4311 H   0  0  0  0  0  0  0  0  0  0  0  0
    9.9545    0.9450   -2.4916 H   0  0  0  0  0  0  0  0  0  0  0  0
    8.7385    0.1346   -0.4993 H   0  0  0  0  0  0  0  0  0  0  0  0
    6.7653    3.2674    0.8227 H   0  0  0  0  0  0  0  0  0  0  0  0
    4.3455    3.1097    0.4202 H   0  0  0  0  0  0  0  0  0  0  0  0
  1  2  1  0  0  0  0
  1 31  1  0  0  0  0
  1 32  1  0  0  0  0
  1 33  1  0  0  0  0
  2  3  1  0  0  0  0
  2 34  1  0  0  0  0
  2 35  1  0  0  0  0
  3  4  1  0  0  0  0
  4  5  2  0  0  0  0
  4 30  1  0  0  0  0
  5  6  1  0  0  0  0
  5 36  1  0  0  0  0
  6  7  2  0  0  0  0
  6 37  1  0  0  0  0
  7  8  1  0  0  0  0
  7 29  1  0  0  0  0
  8  9  1  0  0  0  0
  8 23  1  0  0  0  0
  8 38  1  0  0  0  0
  9 10  1  0  0  0  0
  9 39  1  0  0  0  0
 10 11  2  0  0  0  0
 10 12  1  0  0  0  0
 12 13  2  0  0  0  0
 12 22  1  0  0  0  0
 13 14  1  0  0  0  0
 13 40  1  0  0  0  0
 14 15  1  0  0  0  0
 14 41  1  0  0  0  0
 15 16  2  0  0  0  0
 15 17  1  0  0  0  0
 17 18  2  0  0  0  0
 17 22  1  0  0  0  0
 18 19  1  0  0  0  0
 18 42  1  0  0  0  0
 19 20  2  0  0  0  0
 19 43  1  0  0  0  0
 20 21  1  0  0  0  0
 20 44  1  0  0  0  0
 21 22  2  0  0  0  0
 23 24  2  0  0  0  0
 23 28  1  0  0  0  0
 24 25  1  0  0  0  0
 24 45  1  0  0  0  0
 25 26  2  0  0  0  0
 25 46  1  0  0  0  0
 26 27  1  0  0  0  0
 26 47  1  0  0  0  0
 27 28  2  0  0  0  0
 27 48  1  0  0  0  0
 28 49  1  0  0  0  0
 29 30  2  0  0  0  0
 29 50  1  0  0  0  0
 30 51  1  0  0  0  0
M  END
$$$$
