
 OpenBabel01122422503D

 41 43  0  0  0  0  0  0  0  0999 V2000
   -0.3338   -3.5087   -0.8988 N   0  0  0  0  0  0  0  0  0  0  0  0
   -0.0635   -3.6562   -2.2253 C   0  0  0  0  0  0  0  0  0  0  0  0
   -0.9567   -3.8336   -3.0389 O   0  0  0  0  0  0  0  0  0  0  0  0
    1.3538   -3.5380   -2.6537 C   0  0  0  0  0  0  0  0  0  0  0  0
    2.4105   -3.8502   -1.7920 C   0  0  0  0  0  0  0  0  0  0  0  0
    3.7318   -3.7153   -2.2238 C   0  0  0  0  0  0  0  0  0  0  0  0
    4.0130   -3.2851   -3.5287 C   0  0  0  0  0  0  0  0  0  0  0  0
    5.4289   -3.1007   -4.0165 C   0  0  0  0  0  0  0  0  0  0  0  0
    6.2998   -4.0121   -3.3276 O   0  0  0  0  0  0  0  0  0  0  0  0
    7.0444   -4.8417   -4.1065 C   0  0  0  0  0  0  0  0  0  0  0  0
    7.0814   -4.7856   -5.3272 O   0  0  0  0  0  0  0  0  0  0  0  0
    7.8067   -5.8124   -3.3282 C   0  0  0  0  0  0  0  0  0  0  0  0
    8.5900   -6.8614   -3.7845 C   0  0  0  0  0  0  0  0  0  0  0  0
    8.7970   -7.4062   -5.1271 C   0  0  0  0  0  0  0  0  0  0  0  0
    7.9349   -6.9382   -6.0574 F   0  0  0  0  0  0  0  0  0  0  0  0
   10.0402   -7.1394   -5.5945 F   0  0  0  0  0  0  0  0  0  0  0  0
    8.6423   -8.7547   -5.1412 F   0  0  0  0  0  0  0  0  0  0  0  0
    9.0743   -7.4656   -2.6407 N   0  0  0  0  0  0  0  0  0  0  0  0
    9.9577   -8.5672   -2.4798 C   0  0  0  0  0  0  0  0  0  0  0  0
   10.9883   -8.8165   -3.3985 C   0  0  0  0  0  0  0  0  0  0  0  0
   11.7377   -9.9934   -3.3209 C   0  0  0  0  0  0  0  0  0  0  0  0
   11.4891  -10.9080   -2.3062 C   0  0  0  0  0  0  0  0  0  0  0  0
   10.5265  -10.6160   -1.3443 C   0  0  0  0  0  0  0  0  0  0  0  0
   10.3067  -11.4923   -0.3557 F   0  0  0  0  0  0  0  0  0  0  0  0
    9.7698   -9.4500   -1.4064 C   0  0  0  0  0  0  0  0  0  0  0  0
    8.5046   -6.8853   -1.5553 N   0  0  0  0  0  0  0  0  0  0  0  0
    7.7872   -5.8464   -1.9567 N   0  0  0  0  0  0  0  0  0  0  0  0
    2.9431   -2.9803   -4.3758 C   0  0  0  0  0  0  0  0  0  0  0  0
    3.1836   -2.5431   -5.6196 F   0  0  0  0  0  0  0  0  0  0  0  0
    1.6251   -3.1118   -3.9568 C   0  0  0  0  0  0  0  0  0  0  0  0
   -1.3130   -3.4777   -0.6435 H   0  0  0  0  0  0  0  0  0  0  0  0
    0.3296   -3.1143   -0.2471 H   0  0  0  0  0  0  0  0  0  0  0  0
    2.2227   -4.2244   -0.7874 H   0  0  0  0  0  0  0  0  0  0  0  0
    4.5404   -3.9610   -1.5365 H   0  0  0  0  0  0  0  0  0  0  0  0
    5.7562   -2.0817   -3.7816 H   0  0  0  0  0  0  0  0  0  0  0  0
    5.4664   -3.2251   -5.1040 H   0  0  0  0  0  0  0  0  0  0  0  0
   11.2668   -8.1028   -4.1652 H   0  0  0  0  0  0  0  0  0  0  0  0
   12.5118  -10.1904   -4.0596 H   0  0  0  0  0  0  0  0  0  0  0  0
   12.0463  -11.8384   -2.2492 H   0  0  0  0  0  0  0  0  0  0  0  0
    9.0086   -9.2834   -0.6489 H   0  0  0  0  0  0  0  0  0  0  0  0
    0.8161   -2.8768   -4.6466 H   0  0  0  0  0  0  0  0  0  0  0  0
  1  2  1  0  0  0  0
  1 31  1  0  0  0  0
  1 32  1  0  0  0  0
  2  3  2  0  0  0  0
  2  4  1  0  0  0  0
  4  5  2  0  0  0  0
  4 30  1  0  0  0  0
  5  6  1  0  0  0  0
  5 33  1  0  0  0  0
  6  7  2  0  0  0  0
  6 34  1  0  0  0  0
  7  8  1  0  0  0  0
  7 28  1  0  0  0  0
  8  9  1  0  0  0  0
  8 35  1  0  0  0  0
  8 36  1  0  0  0  0
  9 10  1  0  0  0  0
 10 11  2  0  0  0  0
 10 12  1  0  0  0  0
 12 13  2  0  0  0  0
 12 27  1  0  0  0  0
 13 14  1  0  0  0  0
 13 18  1  0  0  0  0
 14 15  1  0  0  0  0
 14 16  1  0  0  0  0
 14 17  1  0  0  0  0
 18 19  1  0  0  0  0
 18 26  1  0  0  0  0
 19 20  2  0  0  0  0
 19 25  1  0  0  0  0
 20 21  1  0  0  0  0
 20 37  1  0  0  0  0
 21 22  2  0  0  0  0
 21 38  1  0  0  0  0
 22 23  1  0  0  0  0
 22 39  1  0  0  0  0
 23 24  1  0  0  0  0
 23 25  2  0  0  0  0
 25 40  1  0  0  0  0
 26 27  2  0  0  0  0
 28 29  1  0  0  0  0
 28 30  2  0  0  0  0
 30 41  1  0  0  0  0
M  END
$$$$
