
 OpenBabel01122422503D

 45 48  0  0  0  0  0  0  0  0999 V2000
    0.9666    0.1370    0.1774 O   0  0  0  0  0  0  0  0  0  0  0  0
    2.1177   -0.2760    0.1968 C   0  0  0  0  0  0  0  0  0  0  0  0
    2.6361   -1.2205   -0.6700 N   0  0  0  0  0  0  0  0  0  0  0  0
    1.9602   -1.7833   -1.7744 C   0  0  0  0  0  0  0  0  0  0  0  0
    0.8119   -1.2433   -2.3542 C   0  0  0  0  0  0  0  0  0  0  0  0
    0.2086   -1.8875   -3.4361 C   0  0  0  0  0  0  0  0  0  0  0  0
    0.7886   -3.0501   -3.9139 C   0  0  0  0  0  0  0  0  0  0  0  0
    0.1795   -3.6572   -5.0040 O   0  0  0  0  0  0  0  0  0  0  0  0
    0.9873   -4.3618   -5.8700 C   0  0  0  0  0  0  0  0  0  0  0  0
    2.2755   -3.9525   -6.2213 C   0  0  0  0  0  0  0  0  0  0  0  0
    3.0229   -4.7231   -7.1013 C   0  0  0  0  0  0  0  0  0  0  0  0
    4.2756   -4.3526   -7.3966 F   0  0  0  0  0  0  0  0  0  0  0  0
    2.4954   -5.8760   -7.6693 C   0  0  0  0  0  0  0  0  0  0  0  0
    1.1935   -6.2639   -7.3565 C   0  0  0  0  0  0  0  0  0  0  0  0
    0.4376   -5.5047   -6.4584 C   0  0  0  0  0  0  0  0  0  0  0  0
    1.8945   -3.6088   -3.3720 N   0  0  0  0  0  0  0  0  0  0  0  0
    2.4624   -2.9533   -2.3371 C   0  0  0  0  0  0  0  0  0  0  0  0
    3.0475    0.1901    1.2706 C   0  0  0  0  0  0  0  0  0  0  0  0
    4.4063    0.3757    0.9486 C   0  0  0  0  0  0  0  0  0  0  0  0
    5.3120    0.8236    1.9106 C   0  0  0  0  0  0  0  0  0  0  0  0
    4.8700    1.1110    3.1961 C   0  0  0  0  0  0  0  0  0  0  0  0
    3.5261    0.9398    3.5248 C   0  0  0  0  0  0  0  0  0  0  0  0
    2.5911    0.4794    2.5757 C   0  0  0  0  0  0  0  0  0  0  0  0
    1.1691    0.2591    3.0560 C   0  0  0  0  0  0  0  0  0  0  0  0
    0.9474   -1.1169    3.5779 C   0  0  0  0  0  0  0  0  0  0  0  0
    1.1674   -1.5663    4.7975 N   0  0  0  0  0  0  0  0  0  0  0  0
    0.7704   -2.8701    4.7266 C   0  0  0  0  0  0  0  0  0  0  0  0
    0.3233   -3.2637    3.5321 N   0  0  0  0  0  0  0  0  0  0  0  0
    0.4329   -2.1297    2.8180 N   0  0  0  0  0  0  0  0  0  0  0  0
    3.5219   -1.6457   -0.4202 H   0  0  0  0  0  0  0  0  0  0  0  0
    0.3780   -0.3111   -2.0055 H   0  0  0  0  0  0  0  0  0  0  0  0
   -0.6801   -1.4779   -3.9031 H   0  0  0  0  0  0  0  0  0  0  0  0
    2.7211   -3.0562   -5.8044 H   0  0  0  0  0  0  0  0  0  0  0  0
    3.1014   -6.4604   -8.3534 H   0  0  0  0  0  0  0  0  0  0  0  0
    0.7691   -7.1576   -7.8066 H   0  0  0  0  0  0  0  0  0  0  0  0
   -0.5748   -5.8117   -6.2088 H   0  0  0  0  0  0  0  0  0  0  0  0
    3.3601   -3.4291   -1.9527 H   0  0  0  0  0  0  0  0  0  0  0  0
    4.7761    0.1984   -0.0588 H   0  0  0  0  0  0  0  0  0  0  0  0
    6.3609    0.9573    1.6563 H   0  0  0  0  0  0  0  0  0  0  0  0
    5.5692    1.4673    3.9491 H   0  0  0  0  0  0  0  0  0  0  0  0
    3.2045    1.1562    4.5436 H   0  0  0  0  0  0  0  0  0  0  0  0
    0.4241    0.5166    2.3007 H   0  0  0  0  0  0  0  0  0  0  0  0
    0.9605    0.9675    3.8689 H   0  0  0  0  0  0  0  0  0  0  0  0
    0.8078   -3.5482    5.5701 H   0  0  0  0  0  0  0  0  0  0  0  0
    0.1447   -2.1159    1.8446 H   0  0  0  0  0  0  0  0  0  0  0  0
  1  2  2  0  0  0  0
  2  3  1  0  0  0  0
  2 18  1  0  0  0  0
  3  4  1  0  0  0  0
  3 30  1  0  0  0  0
  4  5  2  0  0  0  0
  4 17  1  0  0  0  0
  5  6  1  0  0  0  0
  5 31  1  0  0  0  0
  6  7  2  0  0  0  0
  6 32  1  0  0  0  0
  7  8  1  0  0  0  0
  7 16  1  0  0  0  0
  8  9  1  0  0  0  0
  9 10  2  0  0  0  0
  9 15  1  0  0  0  0
 10 11  1  0  0  0  0
 10 33  1  0  0  0  0
 11 12  1  0  0  0  0
 11 13  2  0  0  0  0
 13 14  1  0  0  0  0
 13 34  1  0  0  0  0
 14 15  2  0  0  0  0
 14 35  1  0  0  0  0
 15 36  1  0  0  0  0
 16 17  2  0  0  0  0
 17 37  1  0  0  0  0
 18 19  2  0  0  0  0
 18 23  1  0  0  0  0
 19 20  1  0  0  0  0
 19 38  1  0  0  0  0
 20 21  2  0  0  0  0
 20 39  1  0  0  0  0
 21 22  1  0  0  0  0
 21 40  1  0  0  0  0
 22 23  2  0  0  0  0
 22 41  1  0  0  0  0
 23 24  1  0  0  0  0
 24 25  1  0  0  0  0
 24 42  1  0  0  0  0
 24 43  1  0  0  0  0
 25 26  2  0  0  0  0
 25 29  1  0  0  0  0
 26 27  1  0  0  0  0
 27 28  2  0  0  0  0
 27 44  1  0  0  0  0
 28 29  1  0  0  0  0
 29 45  1  0  0  0  0
M  END
$$$$
