
 OpenBabel01122422503D

 55 58  0  0  1  0  0  0  0  0999 V2000
    0.9594    0.0795    0.0460 C   0  0  0  0  0  0  0  0  0  0  0  0
    2.4833   -0.0565   -0.0091 C   0  0  3  0  0  0  0  0  0  0  0  0
    2.7744   -0.9532   -1.0897 O   0  0  0  0  0  0  0  0  0  0  0  0
    2.7188   -2.2770   -0.7625 C   0  0  0  0  0  0  0  0  0  0  0  0
    2.7294   -2.7112    0.3830 O   0  0  0  0  0  0  0  0  0  0  0  0
    2.5518   -3.1419   -1.9998 C   0  0  0  0  0  0  0  0  0  0  0  0
    3.7759   -3.5641   -2.5726 O   0  0  0  0  0  0  0  0  0  0  0  0
    4.3648   -2.7034   -3.4543 C   0  0  0  0  0  0  0  0  0  0  0  0
    3.6774   -1.9383   -4.3981 C   0  0  0  0  0  0  0  0  0  0  0  0
    4.3829   -1.1356   -5.2941 C   0  0  0  0  0  0  0  0  0  0  0  0
    5.7741   -1.1005   -5.2513 C   0  0  0  0  0  0  0  0  0  0  0  0
    6.4643   -1.8410   -4.2884 C   0  0  0  0  0  0  0  0  0  0  0  0
    7.8371   -1.8539   -4.1884 O   0  0  0  0  0  0  0  0  0  0  0  0
    8.5055   -0.6419   -4.3275 C   0  0  0  0  0  0  0  0  0  0  0  0
    9.8307   -0.7077   -4.7298 C   0  0  0  0  0  0  0  0  0  0  0  0
   10.5231    0.4868   -4.9084 C   0  0  0  0  0  0  0  0  0  0  0  0
    9.8721    1.6944   -4.6760 C   0  0  0  0  0  0  0  0  0  0  0  0
    8.5546    1.6589   -4.2530 C   0  0  0  0  0  0  0  0  0  0  0  0
    7.8636    0.5185   -4.0563 N   0  0  0  0  0  0  0  0  0  0  0  0
    5.7600   -2.6731   -3.4189 C   0  0  0  0  0  0  0  0  0  0  0  0
    3.1256    1.3204   -0.2273 C   0  0  0  0  0  0  0  0  0  0  0  0
    2.4487    2.3438   -0.3466 O   0  0  0  0  0  0  0  0  0  0  0  0
    4.6167    1.4546   -0.2393 C   0  0  0  0  0  0  0  0  0  0  0  0
    5.4826    0.3647   -0.0125 C   0  0  0  0  0  0  0  0  0  0  0  0
    6.8740    0.5346   -0.0397 C   0  0  0  0  0  0  0  0  0  0  0  0
    7.3723    1.7950   -0.2955 C   0  0  0  0  0  0  0  0  0  0  0  0
    6.5290    2.8826   -0.5143 C   0  0  0  0  0  0  0  0  0  0  0  0
    5.1534    2.7332   -0.4804 C   0  0  0  0  0  0  0  0  0  0  0  0
    7.3452    4.1077   -0.7902 C   0  0  0  0  0  0  0  0  0  0  0  0
    8.7821    3.5746   -0.7090 C   0  0  0  0  0  0  0  0  0  0  0  0
    9.7907    4.2345   -0.9028 O   0  0  0  0  0  0  0  0  0  0  0  0
    8.7019    2.2166   -0.3910 N   0  0  0  0  0  0  0  0  0  0  0  0
    9.8352    1.3449   -0.2309 C   0  0  0  0  0  0  0  0  0  0  0  0
    0.4852   -0.8912    0.2271 H   0  0  0  0  0  0  0  0  0  0  0  0
    0.5716    0.4405   -0.9143 H   0  0  0  0  0  0  0  0  0  0  0  0
    0.6425    0.7731    0.8302 H   0  0  0  0  0  0  0  0  0  0  0  0
    2.8445   -0.4317    0.9565 H   0  0  0  0  0  0  0  0  0  0  0  0
    1.8576   -2.6604   -2.6957 H   0  0  0  0  0  0  0  0  0  0  0  0
    2.0210   -4.0455   -1.6761 H   0  0  0  0  0  0  0  0  0  0  0  0
    2.5975   -1.9663   -4.4892 H   0  0  0  0  0  0  0  0  0  0  0  0
    3.8506   -0.5394   -6.0303 H   0  0  0  0  0  0  0  0  0  0  0  0
    6.3105   -0.4789   -5.9627 H   0  0  0  0  0  0  0  0  0  0  0  0
   10.3063   -1.6636   -4.9156 H   0  0  0  0  0  0  0  0  0  0  0  0
   11.5590    0.4776   -5.2351 H   0  0  0  0  0  0  0  0  0  0  0  0
   10.3782    2.6428   -4.8194 H   0  0  0  0  0  0  0  0  0  0  0  0
    7.9998    2.5727   -4.0631 H   0  0  0  0  0  0  0  0  0  0  0  0
    6.2973   -3.2901   -2.7037 H   0  0  0  0  0  0  0  0  0  0  0  0
    5.1008   -0.6333    0.1828 H   0  0  0  0  0  0  0  0  0  0  0  0
    7.5312   -0.3136    0.1195 H   0  0  0  0  0  0  0  0  0  0  0  0
    4.5052    3.5908   -0.6463 H   0  0  0  0  0  0  0  0  0  0  0  0
    7.1934    4.8723   -0.0251 H   0  0  0  0  0  0  0  0  0  0  0  0
    7.1551    4.4902   -1.7969 H   0  0  0  0  0  0  0  0  0  0  0  0
   10.7670    1.9115   -0.3113 H   0  0  0  0  0  0  0  0  0  0  0  0
    9.8148    0.5776   -1.0107 H   0  0  0  0  0  0  0  0  0  0  0  0
    9.7913    0.8765    0.7571 H   0  0  0  0  0  0  0  0  0  0  0  0
  1  2  1  0  0  0  0
  1 34  1  0  0  0  0
  1 35  1  0  0  0  0
  1 36  1  0  0  0  0
  2  3  1  0  0  0  0
  2 21  1  0  0  0  0
  2 37  1  0  0  0  0
  3  4  1  0  0  0  0
  4  5  2  0  0  0  0
  4  6  1  0  0  0  0
  6  7  1  0  0  0  0
  6 38  1  0  0  0  0
  6 39  1  0  0  0  0
  7  8  1  0  0  0  0
  8  9  2  0  0  0  0
  8 20  1  0  0  0  0
  9 10  1  0  0  0  0
  9 40  1  0  0  0  0
 10 11  2  0  0  0  0
 10 41  1  0  0  0  0
 11 12  1  0  0  0  0
 11 42  1  0  0  0  0
 12 13  1  0  0  0  0
 12 20  2  0  0  0  0
 13 14  1  0  0  0  0
 14 15  2  0  0  0  0
 14 19  1  0  0  0  0
 15 16  1  0  0  0  0
 15 43  1  0  0  0  0
 16 17  2  0  0  0  0
 16 44  1  0  0  0  0
 17 18  1  0  0  0  0
 17 45  1  0  0  0  0
 18 19  2  0  0  0  0
 18 46  1  0  0  0  0
 20 47  1  0  0  0  0
 21 22  2  0  0  0  0
 21 23  1  0  0  0  0
 23 24  2  0  0  0  0
 23 28  1  0  0  0  0
 24 25  1  0  0  0  0
 24 48  1  0  0  0  0
 25 26  2  0  0  0  0
 25 49  1  0  0  0  0
 26 27  1  0  0  0  0
 26 32  1  0  0  0  0
 27 28  2  0  0  0  0
 27 29  1  0  0  0  0
 28 50  1  0  0  0  0
 29 30  1  0  0  0  0
 29 51  1  0  0  0  0
 29 52  1  0  0  0  0
 30 31  2  0  0  0  0
 30 32  1  0  0  0  0
 32 33  1  0  0  0  0
 33 53  1  0  0  0  0
 33 54  1  0  0  0  0
 33 55  1  0  0  0  0
M  END
$$$$
