
 OpenBabel01122422503D

 44 47  0  0  0  0  0  0  0  0999 V2000
    1.1667   -0.5511    0.5634 O   0  0  0  0  0  0  0  0  0  0  0  0
    2.3829   -0.4260    0.4124 C   0  0  0  0  0  0  0  0  0  0  0  0
    3.1182   -1.4069   -0.2061 N   0  0  0  0  0  0  0  0  0  0  0  0
    2.4236   -2.5848   -0.6948 C   0  0  0  0  0  0  0  0  0  0  0  0
    3.3287   -3.5549   -1.3585 C   0  0  0  0  0  0  0  0  0  0  0  0
    2.9000   -4.7735   -1.7061 N   0  0  0  0  0  0  0  0  0  0  0  0
    3.9816   -5.3118   -2.3930 O   0  0  0  0  0  0  0  0  0  0  0  0
    4.9634   -4.3599   -2.3915 C   0  0  0  0  0  0  0  0  0  0  0  0
    6.1640   -4.6672   -3.1582 C   0  0  0  0  0  0  0  0  0  0  0  0
    6.2149   -5.7606   -4.0373 C   0  0  0  0  0  0  0  0  0  0  0  0
    7.3486   -6.0009   -4.8183 C   0  0  0  0  0  0  0  0  0  0  0  0
    8.4489   -5.1524   -4.7237 C   0  0  0  0  0  0  0  0  0  0  0  0
    8.4208   -4.0729   -3.8442 C   0  0  0  0  0  0  0  0  0  0  0  0
    7.2842   -3.8294   -3.0671 C   0  0  0  0  0  0  0  0  0  0  0  0
    4.6252   -3.2665   -1.7386 N   0  0  0  0  0  0  0  0  0  0  0  0
    3.0499    0.8182    0.8921 C   0  0  0  0  0  0  0  0  0  0  0  0
    2.1865    1.7698    1.4661 C   0  0  0  0  0  0  0  0  0  0  0  0
    2.6983    2.9695    1.9205 C   0  0  0  0  0  0  0  0  0  0  0  0
    3.9924    3.3054    1.7994 N   0  0  0  0  0  0  0  0  0  0  0  0
    4.8073    2.3851    1.2328 C   0  0  0  0  0  0  0  0  0  0  0  0
    4.4152    1.1085    0.8164 C   0  0  0  0  0  0  0  0  0  0  0  0
    5.3065    0.1743    0.3301 O   0  0  0  0  0  0  0  0  0  0  0  0
    6.6276    0.2674    0.7261 C   0  0  0  0  0  0  0  0  0  0  0  0
    7.0042    0.4572    2.0638 C   0  0  0  0  0  0  0  0  0  0  0  0
    8.3447    0.6745    2.3831 C   0  0  0  0  0  0  0  0  0  0  0  0
    9.3046    0.6310    1.3785 C   0  0  0  0  0  0  0  0  0  0  0  0
   10.5877    0.8604    1.6822 F   0  0  0  0  0  0  0  0  0  0  0  0
    8.9472    0.3553    0.0608 C   0  0  0  0  0  0  0  0  0  0  0  0
    7.6028    0.1716   -0.2684 C   0  0  0  0  0  0  0  0  0  0  0  0
    4.1099   -1.3068   -0.3951 H   0  0  0  0  0  0  0  0  0  0  0  0
    1.6602   -2.2556   -1.4097 H   0  0  0  0  0  0  0  0  0  0  0  0
    1.9118   -3.0557    0.1525 H   0  0  0  0  0  0  0  0  0  0  0  0
    5.3648   -6.4331   -4.1419 H   0  0  0  0  0  0  0  0  0  0  0  0
    7.3663   -6.8432   -5.5051 H   0  0  0  0  0  0  0  0  0  0  0  0
    9.3273   -5.3325   -5.3393 H   0  0  0  0  0  0  0  0  0  0  0  0
    9.2812   -3.4135   -3.7681 H   0  0  0  0  0  0  0  0  0  0  0  0
    7.2760   -2.9748   -2.3910 H   0  0  0  0  0  0  0  0  0  0  0  0
    1.1207    1.5816    1.5623 H   0  0  0  0  0  0  0  0  0  0  0  0
    2.0615    3.7099    2.3951 H   0  0  0  0  0  0  0  0  0  0  0  0
    5.8340    2.7296    1.1402 H   0  0  0  0  0  0  0  0  0  0  0  0
    6.2600    0.4883    2.8557 H   0  0  0  0  0  0  0  0  0  0  0  0
    8.6435    0.8932    3.4044 H   0  0  0  0  0  0  0  0  0  0  0  0
    9.7209    0.3068   -0.7001 H   0  0  0  0  0  0  0  0  0  0  0  0
    7.3204   -0.0190   -1.3005 H   0  0  0  0  0  0  0  0  0  0  0  0
  1  2  2  0  0  0  0
  2  3  1  0  0  0  0
  2 16  1  0  0  0  0
  3  4  1  0  0  0  0
  3 30  1  0  0  0  0
  4  5  1  0  0  0  0
  4 31  1  0  0  0  0
  4 32  1  0  0  0  0
  5  6  2  0  0  0  0
  5 15  1  0  0  0  0
  6  7  1  0  0  0  0
  7  8  1  0  0  0  0
  8  9  1  0  0  0  0
  8 15  2  0  0  0  0
  9 10  2  0  0  0  0
  9 14  1  0  0  0  0
 10 11  1  0  0  0  0
 10 33  1  0  0  0  0
 11 12  2  0  0  0  0
 11 34  1  0  0  0  0
 12 13  1  0  0  0  0
 12 35  1  0  0  0  0
 13 14  2  0  0  0  0
 13 36  1  0  0  0  0
 14 37  1  0  0  0  0
 16 17  2  0  0  0  0
 16 21  1  0  0  0  0
 17 18  1  0  0  0  0
 17 38  1  0  0  0  0
 18 19  2  0  0  0  0
 18 39  1  0  0  0  0
 19 20  1  0  0  0  0
 20 21  2  0  0  0  0
 20 40  1  0  0  0  0
 21 22  1  0  0  0  0
 22 23  1  0  0  0  0
 23 24  2  0  0  0  0
 23 29  1  0  0  0  0
 24 25  1  0  0  0  0
 24 41  1  0  0  0  0
 25 26  2  0  0  0  0
 25 42  1  0  0  0  0
 26 27  1  0  0  0  0
 26 28  1  0  0  0  0
 28 29  2  0  0  0  0
 28 43  1  0  0  0  0
 29 44  1  0  0  0  0
M  END
$$$$
