
 OpenBabel01122422503D

 45 48  0  0  0  0  0  0  0  0999 V2000
    0.8044    0.2311   -0.2086 C   0  0  0  0  0  0  0  0  0  0  0  0
    2.2655    0.1377    0.0237 C   0  0  0  0  0  0  0  0  0  0  0  0
    3.1982    1.1432    0.1567 C   0  0  0  0  0  0  0  0  0  0  0  0
    4.3799    0.6254    0.5850 N   0  0  0  0  0  0  0  0  0  0  0  0
    4.2234   -0.6831    0.7324 N   0  0  0  0  0  0  0  0  0  0  0  0
    2.9894   -1.0229    0.2800 N   0  0  0  0  0  0  0  0  0  0  0  0
    2.6238   -2.3838    0.1167 C   0  0  0  0  0  0  0  0  0  0  0  0
    1.6554   -2.7322   -0.8288 C   0  0  0  0  0  0  0  0  0  0  0  0
    1.2744   -4.0569   -0.9795 C   0  0  0  0  0  0  0  0  0  0  0  0
    1.8663   -5.0454   -0.1982 C   0  0  0  0  0  0  0  0  0  0  0  0
    2.8713   -4.7375    0.7261 C   0  0  0  0  0  0  0  0  0  0  0  0
    3.5245   -5.7261    1.5158 N   0  0  0  0  0  0  0  0  0  0  0  0
    3.2212   -7.0788    1.5292 C   0  0  0  0  0  0  0  0  0  0  0  0
    2.3188   -7.6118    0.8894 O   0  0  0  0  0  0  0  0  0  0  0  0
    4.0892   -7.9822    2.3648 C   0  0  0  0  0  0  0  0  0  0  0  0
    4.7456   -7.5934    3.4695 C   0  0  0  0  0  0  0  0  0  0  0  0
    5.5382   -8.4749    4.2105 N   0  0  0  0  0  0  0  0  0  0  0  0
    6.2730   -8.0065    5.3436 C   0  0  0  0  0  0  0  0  0  0  0  0
    7.6472   -8.2644    5.4457 C   0  0  0  0  0  0  0  0  0  0  0  0
    8.3845   -7.7544    6.5172 C   0  0  0  0  0  0  0  0  0  0  0  0
    7.7499   -7.0157    7.5157 C   0  0  0  0  0  0  0  0  0  0  0  0
    6.3786   -6.7772    7.4391 C   0  0  0  0  0  0  0  0  0  0  0  0
    5.6544   -7.2552    6.3501 C   0  0  0  0  0  0  0  0  0  0  0  0
    4.3340   -7.0180    6.3072 F   0  0  0  0  0  0  0  0  0  0  0  0
    5.6390   -9.8382    3.8783 C   0  0  0  0  0  0  0  0  0  0  0  0
    6.2775  -10.6907    4.4907 O   0  0  0  0  0  0  0  0  0  0  0  0
    4.8571  -10.2741    2.6948 C   0  0  0  0  0  0  0  0  0  0  0  0
    4.1459   -9.3875    1.9918 C   0  0  0  0  0  0  0  0  0  0  0  0
    3.2640   -3.3940    0.8679 C   0  0  0  0  0  0  0  0  0  0  0  0
    0.4634    1.2660   -0.0969 H   0  0  0  0  0  0  0  0  0  0  0  0
    0.2546   -0.3704    0.5233 H   0  0  0  0  0  0  0  0  0  0  0  0
    0.5249   -0.0814   -1.2172 H   0  0  0  0  0  0  0  0  0  0  0  0
    3.0600    2.2063    0.0176 H   0  0  0  0  0  0  0  0  0  0  0  0
    1.2187   -2.0109   -1.5088 H   0  0  0  0  0  0  0  0  0  0  0  0
    0.5259   -4.3312   -1.7182 H   0  0  0  0  0  0  0  0  0  0  0  0
    1.5213   -6.0586   -0.3648 H   0  0  0  0  0  0  0  0  0  0  0  0
    4.2937   -5.3962    2.0810 H   0  0  0  0  0  0  0  0  0  0  0  0
    4.7167   -6.5705    3.8284 H   0  0  0  0  0  0  0  0  0  0  0  0
    8.1610   -8.8354    4.6750 H   0  0  0  0  0  0  0  0  0  0  0  0
    9.4555   -7.9363    6.5700 H   0  0  0  0  0  0  0  0  0  0  0  0
    8.3240   -6.6317    8.3552 H   0  0  0  0  0  0  0  0  0  0  0  0
    5.8674   -6.2261    8.2219 H   0  0  0  0  0  0  0  0  0  0  0  0
    4.8852  -11.3282    2.4497 H   0  0  0  0  0  0  0  0  0  0  0  0
    3.5674   -9.7172    1.1310 H   0  0  0  0  0  0  0  0  0  0  0  0
    4.0444   -3.1305    1.5813 H   0  0  0  0  0  0  0  0  0  0  0  0
  1  2  1  0  0  0  0
  1 30  1  0  0  0  0
  1 31  1  0  0  0  0
  1 32  1  0  0  0  0
  2  3  2  0  0  0  0
  2  6  1  0  0  0  0
  3  4  1  0  0  0  0
  3 33  1  0  0  0  0
  4  5  2  0  0  0  0
  5  6  1  0  0  0  0
  6  7  1  0  0  0  0
  7  8  2  0  0  0  0
  7 29  1  0  0  0  0
  8  9  1  0  0  0  0
  8 34  1  0  0  0  0
  9 10  2  0  0  0  0
  9 35  1  0  0  0  0
 10 11  1  0  0  0  0
 10 36  1  0  0  0  0
 11 12  1  0  0  0  0
 11 29  2  0  0  0  0
 12 13  1  0  0  0  0
 12 37  1  0  0  0  0
 13 14  2  0  0  0  0
 13 15  1  0  0  0  0
 15 16  2  0  0  0  0
 15 28  1  0  0  0  0
 16 17  1  0  0  0  0
 16 38  1  0  0  0  0
 17 18  1  0  0  0  0
 17 25  1  0  0  0  0
 18 19  2  0  0  0  0
 18 23  1  0  0  0  0
 19 20  1  0  0  0  0
 19 39  1  0  0  0  0
 20 21  2  0  0  0  0
 20 40  1  0  0  0  0
 21 22  1  0  0  0  0
 21 41  1  0  0  0  0
 22 23  2  0  0  0  0
 22 42  1  0  0  0  0
 23 24  1  0  0  0  0
 25 26  2  0  0  0  0
 25 27  1  0  0  0  0
 27 28  2  0  0  0  0
 27 43  1  0  0  0  0
 28 44  1  0  0  0  0
 29 45  1  0  0  0  0
M  END
$$$$
