
 OpenBabel01122422503D

 44 47  0  0  0  0  0  0  0  0999 V2000
    4.9382    2.3668    3.8859 C   0  0  0  0  0  0  0  0  0  0  0  0
    4.4015    1.7205    2.7337 O   0  0  0  0  0  0  0  0  0  0  0  0
    5.0685    1.9964    1.5799 C   0  0  0  0  0  0  0  0  0  0  0  0
    6.0488    2.7202    1.4909 O   0  0  0  0  0  0  0  0  0  0  0  0
    4.4403    1.2455    0.4443 C   0  0  0  0  0  0  0  0  0  0  0  0
    3.0917    1.0474    0.5634 N   0  0  0  0  0  0  0  0  0  0  0  0
    2.4745    0.4014   -0.4376 C   0  0  0  0  0  0  0  0  0  0  0  0
    3.1295   -0.0544   -1.5663 C   0  0  0  0  0  0  0  0  0  0  0  0
    4.5086    0.1519   -1.6868 C   0  0  0  0  0  0  0  0  0  0  0  0
    5.1918   -0.2917   -2.8347 C   0  0  0  0  0  0  0  0  0  0  0  0
    6.5691   -0.1060   -3.0096 C   0  0  0  0  0  0  0  0  0  0  0  0
    7.2539   -0.4818   -4.1909 N   0  0  0  0  0  0  0  0  0  0  0  0
    6.6385   -0.7427   -5.4091 C   0  0  0  0  0  0  0  0  0  0  0  0
    5.4297   -0.6654   -5.6170 O   0  0  0  0  0  0  0  0  0  0  0  0
    7.5299   -1.1087   -6.5194 C   0  0  0  0  0  0  0  0  0  0  0  0
    8.8738   -1.1637   -6.4700 N   0  0  0  0  0  0  0  0  0  0  0  0
    9.2474   -1.5553   -7.7303 N   0  0  0  0  0  0  0  0  0  0  0  0
   10.6103   -1.7577   -8.0884 C   0  0  0  0  0  0  0  0  0  0  0  0
   11.6163   -1.5822   -7.1329 C   0  0  0  0  0  0  0  0  0  0  0  0
   12.9428   -1.8016   -7.4937 C   0  0  0  0  0  0  0  0  0  0  0  0
   13.9068   -1.6477   -6.5759 F   0  0  0  0  0  0  0  0  0  0  0  0
   13.2895   -2.1820   -8.7853 C   0  0  0  0  0  0  0  0  0  0  0  0
   12.2966   -2.3521   -9.7433 C   0  0  0  0  0  0  0  0  0  0  0  0
   10.9591   -2.1446   -9.3965 C   0  0  0  0  0  0  0  0  0  0  0  0
    8.1581   -1.7302   -8.5509 C   0  0  0  0  0  0  0  0  0  0  0  0
    7.0473   -1.4563   -7.8062 C   0  0  0  0  0  0  0  0  0  0  0  0
    7.2868    0.4815   -1.9742 C   0  0  0  0  0  0  0  0  0  0  0  0
    6.6224    0.9388   -0.8246 C   0  0  0  0  0  0  0  0  0  0  0  0
    5.2178    0.8073   -0.6599 C   0  0  0  0  0  0  0  0  0  0  0  0
    4.2820    2.1497    4.7330 H   0  0  0  0  0  0  0  0  0  0  0  0
    4.9729    3.4517    3.7446 H   0  0  0  0  0  0  0  0  0  0  0  0
    5.9351    1.9735    4.1089 H   0  0  0  0  0  0  0  0  0  0  0  0
    1.4053    0.2547   -0.3131 H   0  0  0  0  0  0  0  0  0  0  0  0
    2.5643   -0.5646   -2.3406 H   0  0  0  0  0  0  0  0  0  0  0  0
    4.6073   -0.8068   -3.5929 H   0  0  0  0  0  0  0  0  0  0  0  0
    8.2661   -0.4584   -4.2107 H   0  0  0  0  0  0  0  0  0  0  0  0
   11.3938   -1.2860   -6.1122 H   0  0  0  0  0  0  0  0  0  0  0  0
   14.3345   -2.3443   -9.0370 H   0  0  0  0  0  0  0  0  0  0  0  0
   12.5555   -2.6472  -10.7567 H   0  0  0  0  0  0  0  0  0  0  0  0
   10.2183   -2.2949  -10.1767 H   0  0  0  0  0  0  0  0  0  0  0  0
    8.2389   -2.0411   -9.5799 H   0  0  0  0  0  0  0  0  0  0  0  0
    6.0143   -1.5008   -8.1246 H   0  0  0  0  0  0  0  0  0  0  0  0
    8.3607    0.6343   -2.0480 H   0  0  0  0  0  0  0  0  0  0  0  0
    7.2252    1.4155   -0.0530 H   0  0  0  0  0  0  0  0  0  0  0  0
  1  2  1  0  0  0  0
  1 30  1  0  0  0  0
  1 31  1  0  0  0  0
  1 32  1  0  0  0  0
  2  3  1  0  0  0  0
  3  4  2  0  0  0  0
  3  5  1  0  0  0  0
  5  6  2  0  0  0  0
  5 29  1  0  0  0  0
  6  7  1  0  0  0  0
  7  8  2  0  0  0  0
  7 33  1  0  0  0  0
  8  9  1  0  0  0  0
  8 34  1  0  0  0  0
  9 10  2  0  0  0  0
  9 29  1  0  0  0  0
 10 11  1  0  0  0  0
 10 35  1  0  0  0  0
 11 12  1  0  0  0  0
 11 27  2  0  0  0  0
 12 13  1  0  0  0  0
 12 36  1  0  0  0  0
 13 14  2  0  0  0  0
 13 15  1  0  0  0  0
 15 16  2  0  0  0  0
 15 26  1  0  0  0  0
 16 17  1  0  0  0  0
 17 18  1  0  0  0  0
 17 25  1  0  0  0  0
 18 19  2  0  0  0  0
 18 24  1  0  0  0  0
 19 20  1  0  0  0  0
 19 37  1  0  0  0  0
 20 21  1  0  0  0  0
 20 22  2  0  0  0  0
 22 23  1  0  0  0  0
 22 38  1  0  0  0  0
 23 24  2  0  0  0  0
 23 39  1  0  0  0  0
 24 40  1  0  0  0  0
 25 26  2  0  0  0  0
 25 41  1  0  0  0  0
 26 42  1  0  0  0  0
 27 28  1  0  0  0  0
 27 43  1  0  0  0  0
 28 29  2  0  0  0  0
 28 44  1  0  0  0  0
M  END
$$$$
