
 OpenBabel01122422503D

 47 50  0  0  0  0  0  0  0  0999 V2000
    1.0874   -0.0071   -0.0392 O   0  0  0  0  0  0  0  0  0  0  0  0
    2.3151   -0.0277   -0.0679 C   0  0  0  0  0  0  0  0  0  0  0  0
    3.0409    0.7005   -0.9918 N   0  0  0  0  0  0  0  0  0  0  0  0
    2.3742    1.5049   -1.9945 C   0  0  0  0  0  0  0  0  0  0  0  0
    3.3501    2.2197   -2.9268 C   0  0  0  0  0  0  0  0  0  0  0  0
    2.6340    3.0630   -3.9542 C   0  0  0  0  0  0  0  0  0  0  0  0
    2.3129    4.3985   -3.6794 C   0  0  0  0  0  0  0  0  0  0  0  0
    1.6107    5.1731   -4.6102 C   0  0  0  0  0  0  0  0  0  0  0  0
    1.2068    4.6131   -5.8287 C   0  0  0  0  0  0  0  0  0  0  0  0
    0.4288    5.3560   -6.7617 N   0  0  0  0  0  0  0  0  0  0  0  0
    0.0048    6.6669   -6.6659 C   0  0  0  0  0  0  0  0  0  0  0  0
   -0.8187    6.9085   -7.7397 C   0  0  0  0  0  0  0  0  0  0  0  0
   -0.8106    5.7092   -8.4631 C   0  0  0  0  0  0  0  0  0  0  0  0
   -0.0398    4.7784   -7.9013 N   0  0  0  0  0  0  0  0  0  0  0  0
    1.5384    3.2804   -6.1127 C   0  0  0  0  0  0  0  0  0  0  0  0
    2.2435    2.5123   -5.1808 C   0  0  0  0  0  0  0  0  0  0  0  0
    3.1404   -0.8203    0.8597 C   0  0  0  0  0  0  0  0  0  0  0  0
    4.4920   -0.8608    0.7835 N   0  0  0  0  0  0  0  0  0  0  0  0
    4.8820   -1.7068    1.7885 N   0  0  0  0  0  0  0  0  0  0  0  0
    6.2626   -1.9952    1.9996 C   0  0  0  0  0  0  0  0  0  0  0  0
    7.2312   -1.4002    1.1691 C   0  0  0  0  0  0  0  0  0  0  0  0
    8.5909   -1.6647    1.3692 C   0  0  0  0  0  0  0  0  0  0  0  0
    8.9852   -2.5188    2.3921 C   0  0  0  0  0  0  0  0  0  0  0  0
   10.2873   -2.7634    2.5866 F   0  0  0  0  0  0  0  0  0  0  0  0
    8.0479   -3.1187    3.2174 C   0  0  0  0  0  0  0  0  0  0  0  0
    6.6935   -2.8565    3.0184 C   0  0  0  0  0  0  0  0  0  0  0  0
    5.8367   -3.4724    3.8427 F   0  0  0  0  0  0  0  0  0  0  0  0
    3.7996   -2.1760    2.4969 C   0  0  0  0  0  0  0  0  0  0  0  0
    2.6899   -1.6286    1.9224 C   0  0  0  0  0  0  0  0  0  0  0  0
    1.4375   -1.8580    2.3403 O   0  0  0  0  0  0  0  0  0  0  0  0
    4.0513    0.6161   -0.9408 H   0  0  0  0  0  0  0  0  0  0  0  0
    1.7359    2.2276   -1.4708 H   0  0  0  0  0  0  0  0  0  0  0  0
    1.7072    0.8442   -2.5625 H   0  0  0  0  0  0  0  0  0  0  0  0
    3.9896    1.4867   -3.4347 H   0  0  0  0  0  0  0  0  0  0  0  0
    4.0322    2.8518   -2.3443 H   0  0  0  0  0  0  0  0  0  0  0  0
    2.5957    4.8449   -2.7279 H   0  0  0  0  0  0  0  0  0  0  0  0
    1.3784    6.1983   -4.3405 H   0  0  0  0  0  0  0  0  0  0  0  0
    0.2978    7.3075   -5.8492 H   0  0  0  0  0  0  0  0  0  0  0  0
   -1.3494    7.8225   -7.9645 H   0  0  0  0  0  0  0  0  0  0  0  0
   -1.3339    5.4716   -9.3805 H   0  0  0  0  0  0  0  0  0  0  0  0
    1.2408    2.8194   -7.0533 H   0  0  0  0  0  0  0  0  0  0  0  0
    2.4717    1.4753   -5.4187 H   0  0  0  0  0  0  0  0  0  0  0  0
    6.9453   -0.7285    0.3618 H   0  0  0  0  0  0  0  0  0  0  0  0
    9.3438   -1.2075    0.7339 H   0  0  0  0  0  0  0  0  0  0  0  0
    8.3643   -3.7855    4.0118 H   0  0  0  0  0  0  0  0  0  0  0  0
    3.8950   -2.8484    3.3337 H   0  0  0  0  0  0  0  0  0  0  0  0
    1.4247   -2.4656    3.0991 H   0  0  0  0  0  0  0  0  0  0  0  0
  1  2  2  0  0  0  0
  2  3  1  0  0  0  0
  2 17  1  0  0  0  0
  3  4  1  0  0  0  0
  3 31  1  0  0  0  0
  4  5  1  0  0  0  0
  4 32  1  0  0  0  0
  4 33  1  0  0  0  0
  5  6  1  0  0  0  0
  5 34  1  0  0  0  0
  5 35  1  0  0  0  0
  6  7  2  0  0  0  0
  6 16  1  0  0  0  0
  7  8  1  0  0  0  0
  7 36  1  0  0  0  0
  8  9  2  0  0  0  0
  8 37  1  0  0  0  0
  9 10  1  0  0  0  0
  9 15  1  0  0  0  0
 10 11  1  0  0  0  0
 10 14  1  0  0  0  0
 11 12  2  0  0  0  0
 11 38  1  0  0  0  0
 12 13  1  0  0  0  0
 12 39  1  0  0  0  0
 13 14  2  0  0  0  0
 13 40  1  0  0  0  0
 15 16  2  0  0  0  0
 15 41  1  0  0  0  0
 16 42  1  0  0  0  0
 17 18  2  0  0  0  0
 17 29  1  0  0  0  0
 18 19  1  0  0  0  0
 19 20  1  0  0  0  0
 19 28  1  0  0  0  0
 20 21  2  0  0  0  0
 20 26  1  0  0  0  0
 21 22  1  0  0  0  0
 21 43  1  0  0  0  0
 22 23  2  0  0  0  0
 22 44  1  0  0  0  0
 23 24  1  0  0  0  0
 23 25  1  0  0  0  0
 25 26  2  0  0  0  0
 25 45  1  0  0  0  0
 26 27  1  0  0  0  0
 28 29  2  0  0  0  0
 28 46  1  0  0  0  0
 29 30  1  0  0  0  0
 30 47  1  0  0  0  0
M  END
$$$$
