
 OpenBabel01122422463D

 41 44  0  0  0  0  0  0  0  0999 V2000
    2.5934   -1.2989    0.1558 O   0  0  0  0  0  0  0  0  0  0  0  0
    2.1265   -0.1709    0.2429 C   0  0  0  0  0  0  0  0  0  0  0  0
    0.7455   -0.0824    0.8293 C   0  0  0  0  0  0  0  0  0  0  0  0
    0.3716   -1.0657    1.7626 C   0  0  0  0  0  0  0  0  0  0  0  0
   -0.8297   -0.9551    2.4703 C   0  0  0  0  0  0  0  0  0  0  0  0
   -1.6560    0.1367    2.2417 C   0  0  0  0  0  0  0  0  0  0  0  0
   -2.7720    0.2828    2.9683 F   0  0  0  0  0  0  0  0  0  0  0  0
   -1.3169    1.0806    1.2773 C   0  0  0  0  0  0  0  0  0  0  0  0
   -2.1090    2.1425    1.0729 F   0  0  0  0  0  0  0  0  0  0  0  0
   -0.1341    0.9651    0.5450 C   0  0  0  0  0  0  0  0  0  0  0  0
    2.9567    1.0505   -0.0211 C   0  0  0  0  0  0  0  0  0  0  0  0
    2.6954    2.1683    0.8189 C   0  0  0  0  0  0  0  0  0  0  0  0
    3.4145    3.3571    0.7287 C   0  0  0  0  0  0  0  0  0  0  0  0
    4.4979    3.4229   -0.1237 C   0  0  0  0  0  0  0  0  0  0  0  0
    4.8299    2.3112   -0.8972 C   0  0  0  0  0  0  0  0  0  0  0  0
    4.0380    1.1432   -0.9364 C   0  0  0  0  0  0  0  0  0  0  0  0
    4.4651    0.0689   -1.9094 C   0  0  0  0  0  0  0  0  0  0  0  0
    4.4214   -1.1119   -1.5861 O   0  0  0  0  0  0  0  0  0  0  0  0
    4.9558    0.4015   -3.1732 N   0  0  0  0  0  0  0  0  0  0  0  0
    5.0910    1.7107   -3.8201 C   0  0  0  0  0  0  0  0  0  0  0  0
    5.3500    1.3891   -5.2496 C   0  0  0  0  0  0  0  0  0  0  0  0
    5.4654    2.2381   -6.3339 C   0  0  0  0  0  0  0  0  0  0  0  0
    5.7260    1.6549   -7.5657 C   0  0  0  0  0  0  0  0  0  0  0  0
    5.8270    2.4209   -8.6595 F   0  0  0  0  0  0  0  0  0  0  0  0
    5.8765    0.2714   -7.6535 C   0  0  0  0  0  0  0  0  0  0  0  0
    5.7932   -0.5756   -6.5947 N   0  0  0  0  0  0  0  0  0  0  0  0
    5.5269    0.0190   -5.4166 C   0  0  0  0  0  0  0  0  0  0  0  0
    5.3718   -0.6790   -4.0844 C   0  0  0  0  0  0  0  0  0  0  0  0
    1.0312   -1.9091    1.9648 H   0  0  0  0  0  0  0  0  0  0  0  0
   -1.1059   -1.6981    3.2141 H   0  0  0  0  0  0  0  0  0  0  0  0
    0.0906    1.7243   -0.1973 H   0  0  0  0  0  0  0  0  0  0  0  0
    1.9345    2.1273    1.5943 H   0  0  0  0  0  0  0  0  0  0  0  0
    3.1604    4.2015    1.3646 H   0  0  0  0  0  0  0  0  0  0  0  0
    5.1090    4.3203   -0.1638 H   0  0  0  0  0  0  0  0  0  0  0  0
    5.7626    2.3640   -1.4466 H   0  0  0  0  0  0  0  0  0  0  0  0
    5.9822    2.2107   -3.4299 H   0  0  0  0  0  0  0  0  0  0  0  0
    4.1897    2.3079   -3.6720 H   0  0  0  0  0  0  0  0  0  0  0  0
    5.3570    3.3125   -6.2432 H   0  0  0  0  0  0  0  0  0  0  0  0
    6.0733   -0.1949   -8.6141 H   0  0  0  0  0  0  0  0  0  0  0  0
    6.3306   -1.0810   -3.7392 H   0  0  0  0  0  0  0  0  0  0  0  0
    4.6147   -1.4659   -4.1246 H   0  0  0  0  0  0  0  0  0  0  0  0
  1  2  2  0  0  0  0
  2  3  1  0  0  0  0
  2 11  1  0  0  0  0
  3  4  2  0  0  0  0
  3 10  1  0  0  0  0
  4  5  1  0  0  0  0
  4 29  1  0  0  0  0
  5  6  2  0  0  0  0
  5 30  1  0  0  0  0
  6  7  1  0  0  0  0
  6  8  1  0  0  0  0
  8  9  1  0  0  0  0
  8 10  2  0  0  0  0
 10 31  1  0  0  0  0
 11 12  2  0  0  0  0
 11 16  1  0  0  0  0
 12 13  1  0  0  0  0
 12 32  1  0  0  0  0
 13 14  2  0  0  0  0
 13 33  1  0  0  0  0
 14 15  1  0  0  0  0
 14 34  1  0  0  0  0
 15 16  2  0  0  0  0
 15 35  1  0  0  0  0
 16 17  1  0  0  0  0
 17 18  2  0  0  0  0
 17 19  1  0  0  0  0
 19 20  1  0  0  0  0
 19 28  1  0  0  0  0
 20 21  1  0  0  0  0
 20 36  1  0  0  0  0
 20 37  1  0  0  0  0
 21 22  2  0  0  0  0
 21 27  1  0  0  0  0
 22 23  1  0  0  0  0
 22 38  1  0  0  0  0
 23 24  1  0  0  0  0
 23 25  2  0  0  0  0
 25 26  1  0  0  0  0
 25 39  1  0  0  0  0
 26 27  2  0  0  0  0
 27 28  1  0  0  0  0
 28 40  1  0  0  0  0
 28 41  1  0  0  0  0
M  END
$$$$
