
 OpenBabel01122422503D

 41 44  0  0  0  0  0  0  0  0999 V2000
    1.0518    0.0702    0.2996 O   0  0  0  0  0  0  0  0  0  0  0  0
    2.2607    0.1026    0.0833 C   0  0  0  0  0  0  0  0  0  0  0  0
    2.9329    1.1759   -0.4794 N   0  0  0  0  0  0  0  0  0  0  0  0
    2.3437    2.3519   -0.8836 C   0  0  0  0  0  0  0  0  0  0  0  0
    3.0709    3.3242   -1.4535 C   0  0  0  0  0  0  0  0  0  0  0  0
    2.4093    4.5432   -1.9362 C   0  0  0  0  0  0  0  0  0  0  0  0
    3.1206    5.5373   -2.6163 C   0  0  0  0  0  0  0  0  0  0  0  0
    2.4567    6.6686   -3.1034 C   0  0  0  0  0  0  0  0  0  0  0  0
    1.0844    6.8242   -2.9013 C   0  0  0  0  0  0  0  0  0  0  0  0
    0.3668    5.8450   -2.2165 C   0  0  0  0  0  0  0  0  0  0  0  0
    1.0290    4.7068   -1.7452 C   0  0  0  0  0  0  0  0  0  0  0  0
    0.2712    3.6277   -1.0694 C   0  0  0  0  0  0  0  0  0  0  0  0
   -0.9342    3.7224   -0.8661 O   0  0  0  0  0  0  0  0  0  0  0  0
    0.9966    2.5197   -0.7071 N   0  0  0  0  0  0  0  0  0  0  0  0
    3.0669   -1.1000    0.3994 C   0  0  0  0  0  0  0  0  0  0  0  0
    2.4567   -2.3474    0.2576 C   0  0  0  0  0  0  0  0  0  0  0  0
    3.1925   -3.4725    0.5672 C   0  0  0  0  0  0  0  0  0  0  0  0
    4.4642   -3.4282    1.0147 N   0  0  0  0  0  0  0  0  0  0  0  0
    5.0297   -2.2019    1.1883 C   0  0  0  0  0  0  0  0  0  0  0  0
    6.3411   -2.1459    1.7494 N   0  0  0  0  0  0  0  0  0  0  0  0
    7.1189   -3.2247    2.1035 C   0  0  0  0  0  0  0  0  0  0  0  0
    8.2672   -2.7269    2.6648 C   0  0  0  0  0  0  0  0  0  0  0  0
    8.1238   -1.3168    2.6214 C   0  0  0  0  0  0  0  0  0  0  0  0
    9.1017   -0.3043    3.1588 C   0  0  0  0  0  0  0  0  0  0  0  0
   10.1764   -0.9014    3.7449 F   0  0  0  0  0  0  0  0  0  0  0  0
    9.5944    0.5062    2.1854 F   0  0  0  0  0  0  0  0  0  0  0  0
    8.5461    0.4992    4.1039 F   0  0  0  0  0  0  0  0  0  0  0  0
    6.9642   -0.9673    2.0253 N   0  0  0  0  0  0  0  0  0  0  0  0
    4.3724   -1.0137    0.8820 C   0  0  0  0  0  0  0  0  0  0  0  0
    3.9187    1.0689   -0.6875 H   0  0  0  0  0  0  0  0  0  0  0  0
    4.1430    3.2420   -1.5921 H   0  0  0  0  0  0  0  0  0  0  0  0
    4.1890    5.4369   -2.7915 H   0  0  0  0  0  0  0  0  0  0  0  0
    3.0102    7.4284   -3.6505 H   0  0  0  0  0  0  0  0  0  0  0  0
    0.5712    7.7028   -3.2851 H   0  0  0  0  0  0  0  0  0  0  0  0
   -0.7045    5.9574   -2.0648 H   0  0  0  0  0  0  0  0  0  0  0  0
    0.4795    1.7579   -0.2717 H   0  0  0  0  0  0  0  0  0  0  0  0
    1.4285   -2.4370   -0.0810 H   0  0  0  0  0  0  0  0  0  0  0  0
    2.7639   -4.4667    0.4720 H   0  0  0  0  0  0  0  0  0  0  0  0
    6.7725   -4.2362    1.9380 H   0  0  0  0  0  0  0  0  0  0  0  0
    9.0934   -3.2961    3.0705 H   0  0  0  0  0  0  0  0  0  0  0  0
    4.8438   -0.0531    1.0602 H   0  0  0  0  0  0  0  0  0  0  0  0
  1  2  2  0  0  0  0
  2  3  1  0  0  0  0
  2 15  1  0  0  0  0
  3  4  1  0  0  0  0
  3 30  1  0  0  0  0
  4  5  2  0  0  0  0
  4 14  1  0  0  0  0
  5  6  1  0  0  0  0
  5 31  1  0  0  0  0
  6  7  2  0  0  0  0
  6 11  1  0  0  0  0
  7  8  1  0  0  0  0
  7 32  1  0  0  0  0
  8  9  2  0  0  0  0
  8 33  1  0  0  0  0
  9 10  1  0  0  0  0
  9 34  1  0  0  0  0
 10 11  2  0  0  0  0
 10 35  1  0  0  0  0
 11 12  1  0  0  0  0
 12 13  2  0  0  0  0
 12 14  1  0  0  0  0
 14 36  1  0  0  0  0
 15 16  2  0  0  0  0
 15 29  1  0  0  0  0
 16 17  1  0  0  0  0
 16 37  1  0  0  0  0
 17 18  2  0  0  0  0
 17 38  1  0  0  0  0
 18 19  1  0  0  0  0
 19 20  1  0  0  0  0
 19 29  2  0  0  0  0
 20 21  1  0  0  0  0
 20 28  1  0  0  0  0
 21 22  2  0  0  0  0
 21 39  1  0  0  0  0
 22 23  1  0  0  0  0
 22 40  1  0  0  0  0
 23 24  1  0  0  0  0
 23 28  2  0  0  0  0
 24 25  1  0  0  0  0
 24 26  1  0  0  0  0
 24 27  1  0  0  0  0
 29 41  1  0  0  0  0
M  END
$$$$
