
 OpenBabel01122422503D

 44 47  0  0  1  0  0  0  0  0999 V2000
    0.9197    0.0898   -0.0284 C   0  0  0  0  0  0  0  0  0  0  0  0
    2.4471    0.1228   -0.0318 C   0  0  3  0  0  0  0  0  0  0  0  0
    2.9867   -1.0892   -0.6488 N   0  0  0  0  0  0  0  0  0  0  0  0
    3.1481   -2.2579    0.0550 C   0  0  0  0  0  0  0  0  0  0  0  0
    2.8940   -2.3609    1.2493 O   0  0  0  0  0  0  0  0  0  0  0  0
    3.6081   -3.4479   -0.7143 C   0  0  0  0  0  0  0  0  0  0  0  0
    3.2287   -4.7197   -0.2495 C   0  0  0  0  0  0  0  0  0  0  0  0
    3.5773   -5.8689   -0.9670 C   0  0  0  0  0  0  0  0  0  0  0  0
    4.3366   -5.7432   -2.1356 C   0  0  0  0  0  0  0  0  0  0  0  0
    4.6583   -6.8905   -2.8767 N   0  0  0  0  0  0  0  0  0  0  0  0
    4.2420   -8.1478   -2.5394 C   0  0  0  0  0  0  0  0  0  0  0  0
    4.4983   -9.1352   -3.2194 O   0  0  0  0  0  0  0  0  0  0  0  0
    3.4440   -8.2726   -1.2928 C   0  0  0  0  0  0  0  0  0  0  0  0
    3.1429   -7.2015   -0.5455 C   0  0  0  0  0  0  0  0  0  0  0  0
    4.7492   -4.4834   -2.5673 C   0  0  0  0  0  0  0  0  0  0  0  0
    5.4878   -4.3674   -3.6810 F   0  0  0  0  0  0  0  0  0  0  0  0
    4.3896   -3.3330   -1.8699 C   0  0  0  0  0  0  0  0  0  0  0  0
    2.9261    1.2966   -0.8307 C   0  0  0  0  0  0  0  0  0  0  0  0
    3.2221    1.3331   -2.1177 N   0  0  0  0  0  0  0  0  0  0  0  0
    3.5662    2.6418   -2.3282 C   0  0  0  0  0  0  0  0  0  0  0  0
    3.4714    3.3671   -1.1576 C   0  0  0  0  0  0  0  0  0  0  0  0
    3.7172    4.7559   -0.7904 C   0  0  0  0  0  0  0  0  0  0  0  0
    4.0308    5.6958   -1.7896 C   0  0  0  0  0  0  0  0  0  0  0  0
    4.3245    7.0223   -1.4641 C   0  0  0  0  0  0  0  0  0  0  0  0
    4.3007    7.4208   -0.1356 C   0  0  0  0  0  0  0  0  0  0  0  0
    4.6018    8.6872    0.1783 F   0  0  0  0  0  0  0  0  0  0  0  0
    3.9735    6.5206    0.8707 C   0  0  0  0  0  0  0  0  0  0  0  0
    3.6790    5.1915    0.5442 C   0  0  0  0  0  0  0  0  0  0  0  0
    3.0548    2.4980   -0.1802 O   0  0  0  0  0  0  0  0  0  0  0  0
    0.5401   -0.7811    0.5154 H   0  0  0  0  0  0  0  0  0  0  0  0
    0.5204    0.0400   -1.0492 H   0  0  0  0  0  0  0  0  0  0  0  0
    0.5104    0.9910    0.4415 H   0  0  0  0  0  0  0  0  0  0  0  0
    2.8182    0.1872    0.9971 H   0  0  0  0  0  0  0  0  0  0  0  0
    3.0729   -1.0651   -1.6583 H   0  0  0  0  0  0  0  0  0  0  0  0
    2.6395   -4.8018    0.6630 H   0  0  0  0  0  0  0  0  0  0  0  0
    5.2005   -6.8022   -3.7276 H   0  0  0  0  0  0  0  0  0  0  0  0
    3.1245   -9.2731   -1.0286 H   0  0  0  0  0  0  0  0  0  0  0  0
    2.5644   -7.3032    0.3662 H   0  0  0  0  0  0  0  0  0  0  0  0
    4.7376   -2.3731   -2.2368 H   0  0  0  0  0  0  0  0  0  0  0  0
    3.8690    2.9916   -3.3050 H   0  0  0  0  0  0  0  0  0  0  0  0
    4.0564    5.4072   -2.8377 H   0  0  0  0  0  0  0  0  0  0  0  0
    4.5777    7.7400   -2.2384 H   0  0  0  0  0  0  0  0  0  0  0  0
    3.9580    6.8564    1.9030 H   0  0  0  0  0  0  0  0  0  0  0  0
    3.4324    4.4990    1.3467 H   0  0  0  0  0  0  0  0  0  0  0  0
  1  2  1  0  0  0  0
  1 30  1  0  0  0  0
  1 31  1  0  0  0  0
  1 32  1  0  0  0  0
  2  3  1  0  0  0  0
  2 18  1  0  0  0  0
  2 33  1  0  0  0  0
  3  4  1  0  0  0  0
  3 34  1  0  0  0  0
  4  5  2  0  0  0  0
  4  6  1  0  0  0  0
  6  7  2  0  0  0  0
  6 17  1  0  0  0  0
  7  8  1  0  0  0  0
  7 35  1  0  0  0  0
  8  9  2  0  0  0  0
  8 14  1  0  0  0  0
  9 10  1  0  0  0  0
  9 15  1  0  0  0  0
 10 11  1  0  0  0  0
 10 36  1  0  0  0  0
 11 12  2  0  0  0  0
 11 13  1  0  0  0  0
 13 14  2  0  0  0  0
 13 37  1  0  0  0  0
 14 38  1  0  0  0  0
 15 16  1  0  0  0  0
 15 17  2  0  0  0  0
 17 39  1  0  0  0  0
 18 19  2  0  0  0  0
 18 29  1  0  0  0  0
 19 20  1  0  0  0  0
 20 21  2  0  0  0  0
 20 40  1  0  0  0  0
 21 22  1  0  0  0  0
 21 29  1  0  0  0  0
 22 23  2  0  0  0  0
 22 28  1  0  0  0  0
 23 24  1  0  0  0  0
 23 41  1  0  0  0  0
 24 25  2  0  0  0  0
 24 42  1  0  0  0  0
 25 26  1  0  0  0  0
 25 27  1  0  0  0  0
 27 28  2  0  0  0  0
 27 43  1  0  0  0  0
 28 44  1  0  0  0  0
M  END
$$$$
