
 OpenBabel01122422503D

 44 47  0  0  0  0  0  0  0  0999 V2000
    1.2649    0.2169    0.0689 O   0  0  0  0  0  0  0  0  0  0  0  0
    2.4691    0.4715    0.1794 C   0  0  0  0  0  0  0  0  0  0  0  0
    3.3477    0.1066   -0.9667 C   0  0  0  0  0  0  0  0  0  0  0  0
    2.8956   -0.9879   -1.7288 C   0  0  0  0  0  0  0  0  0  0  0  0
    3.5525   -1.3294   -2.8961 C   0  0  0  0  0  0  0  0  0  0  0  0
    4.5867   -0.6295   -3.3865 N   0  0  0  0  0  0  0  0  0  0  0  0
    4.9923    0.4332   -2.6565 C   0  0  0  0  0  0  0  0  0  0  0  0
    4.4676    0.8090   -1.4125 C   0  0  0  0  0  0  0  0  0  0  0  0
    5.0204    1.8459   -0.6950 O   0  0  0  0  0  0  0  0  0  0  0  0
    6.4020    1.9713   -0.7439 C   0  0  0  0  0  0  0  0  0  0  0  0
    6.9312    3.2576   -0.8314 C   0  0  0  0  0  0  0  0  0  0  0  0
    8.3063    3.4252   -1.0355 C   0  0  0  0  0  0  0  0  0  0  0  0
    9.1293    2.3076   -1.1523 C   0  0  0  0  0  0  0  0  0  0  0  0
   10.4307    2.4679   -1.4254 F   0  0  0  0  0  0  0  0  0  0  0  0
    8.6200    1.0260   -0.9975 C   0  0  0  0  0  0  0  0  0  0  0  0
    7.2597    0.8567   -0.7516 C   0  0  0  0  0  0  0  0  0  0  0  0
    2.9460    1.0565    1.3270 N   0  0  0  0  0  0  0  0  0  0  0  0
    2.1386    1.1744    2.5444 C   0  0  0  0  0  0  0  0  0  0  0  0
    3.4523    1.5304    3.2993 C   0  0  0  0  0  0  0  0  0  0  0  0
    3.6937    2.9664    3.4120 O   0  0  0  0  0  0  0  0  0  0  0  0
    3.6938    0.8494    4.7418 C   0  0  0  0  0  0  0  0  0  0  0  0
    2.6374    0.4686    5.6026 C   0  0  0  0  0  0  0  0  0  0  0  0
    2.8660   -0.0447    6.8852 C   0  0  0  0  0  0  0  0  0  0  0  0
    4.1669   -0.1865    7.3419 C   0  0  0  0  0  0  0  0  0  0  0  0
    4.3869   -0.6639    8.5805 F   0  0  0  0  0  0  0  0  0  0  0  0
    5.2278    0.1711    6.5311 C   0  0  0  0  0  0  0  0  0  0  0  0
    6.4885    0.0502    6.9689 F   0  0  0  0  0  0  0  0  0  0  0  0
    4.9993    0.6801    5.2526 C   0  0  0  0  0  0  0  0  0  0  0  0
    4.1823    0.8680    2.0728 C   0  0  0  0  0  0  0  0  0  0  0  0
    2.0218   -1.5595   -1.4270 H   0  0  0  0  0  0  0  0  0  0  0  0
    3.2399   -2.1807   -3.4933 H   0  0  0  0  0  0  0  0  0  0  0  0
    5.8091    0.9860   -3.1164 H   0  0  0  0  0  0  0  0  0  0  0  0
    6.2852    4.1287   -0.7689 H   0  0  0  0  0  0  0  0  0  0  0  0
    8.7394    4.4162   -1.1328 H   0  0  0  0  0  0  0  0  0  0  0  0
    9.2740    0.1652   -1.0971 H   0  0  0  0  0  0  0  0  0  0  0  0
    6.8702   -0.1503   -0.6318 H   0  0  0  0  0  0  0  0  0  0  0  0
    1.6547    0.2334    2.8258 H   0  0  0  0  0  0  0  0  0  0  0  0
    1.3974    1.9767    2.4926 H   0  0  0  0  0  0  0  0  0  0  0  0
    2.9722    3.2908    3.9789 H   0  0  0  0  0  0  0  0  0  0  0  0
    1.6019    0.5901    5.2772 H   0  0  0  0  0  0  0  0  0  0  0  0
    2.0378   -0.3208    7.5293 H   0  0  0  0  0  0  0  0  0  0  0  0
    5.8565    0.9794    4.6532 H   0  0  0  0  0  0  0  0  0  0  0  0
    4.4653   -0.1826    2.1836 H   0  0  0  0  0  0  0  0  0  0  0  0
    5.0310    1.4525    1.7184 H   0  0  0  0  0  0  0  0  0  0  0  0
  1  2  2  0  0  0  0
  2  3  1  0  0  0  0
  2 17  1  0  0  0  0
  3  4  2  0  0  0  0
  3  8  1  0  0  0  0
  4  5  1  0  0  0  0
  4 30  1  0  0  0  0
  5  6  2  0  0  0  0
  5 31  1  0  0  0  0
  6  7  1  0  0  0  0
  7  8  2  0  0  0  0
  7 32  1  0  0  0  0
  8  9  1  0  0  0  0
  9 10  1  0  0  0  0
 10 11  2  0  0  0  0
 10 16  1  0  0  0  0
 11 12  1  0  0  0  0
 11 33  1  0  0  0  0
 12 13  2  0  0  0  0
 12 34  1  0  0  0  0
 13 14  1  0  0  0  0
 13 15  1  0  0  0  0
 15 16  2  0  0  0  0
 15 35  1  0  0  0  0
 16 36  1  0  0  0  0
 17 18  1  0  0  0  0
 17 29  1  0  0  0  0
 18 19  1  0  0  0  0
 18 37  1  0  0  0  0
 18 38  1  0  0  0  0
 19 20  1  0  0  0  0
 19 21  1  0  0  0  0
 19 29  1  0  0  0  0
 20 39  1  0  0  0  0
 21 22  2  0  0  0  0
 21 28  1  0  0  0  0
 22 23  1  0  0  0  0
 22 40  1  0  0  0  0
 23 24  2  0  0  0  0
 23 41  1  0  0  0  0
 24 25  1  0  0  0  0
 24 26  1  0  0  0  0
 26 27  1  0  0  0  0
 26 28  2  0  0  0  0
 28 42  1  0  0  0  0
 29 43  1  0  0  0  0
 29 44  1  0  0  0  0
M  END
$$$$
