
 OpenBabel01122422503D

 57 59  0  0  1  0  0  0  0  0999 V2000
    0.8419   -3.3654    3.5906 C   0  0  0  0  0  0  0  0  0  0  0  0
    0.5454   -2.2480    4.5868 C   0  0  3  0  0  0  0  0  0  0  0  0
    1.1587   -0.9923    4.1604 N   0  0  0  0  0  0  0  0  0  0  0  0
    2.5142   -0.7940    4.2445 C   0  0  0  0  0  0  0  0  0  0  0  0
    3.3030   -1.6623    4.6102 O   0  0  0  0  0  0  0  0  0  0  0  0
    2.9952    0.5833    3.8420 C   0  0  0  0  0  0  0  0  0  0  0  0
    2.5508    1.6560    4.8218 C   0  0  0  0  0  0  0  0  0  0  0  0
    3.0363    1.3596    6.2243 C   0  0  0  0  0  0  0  0  0  0  0  0
    2.3530    0.7273    7.0236 O   0  0  0  0  0  0  0  0  0  0  0  0
    4.2943    1.8309    6.5049 N   0  0  0  0  0  0  0  0  0  0  0  0
    4.8986    1.6538    7.8084 C   0  0  0  0  0  0  0  0  0  0  0  0
    4.4990    2.7153    8.8114 C   0  0  0  0  0  0  0  0  0  0  0  0
    3.3368    2.5571    9.5630 C   0  0  0  0  0  0  0  0  0  0  0  0
    3.0879    3.4423   10.6100 C   0  0  0  0  0  0  0  0  0  0  0  0
    2.0254    3.3411   11.4796 O   0  0  0  0  0  0  0  0  0  0  0  0
    1.5412    2.1005   11.8361 C   0  0  0  0  0  0  0  0  0  0  0  0
    2.3227    0.9429   11.9460 C   0  0  0  0  0  0  0  0  0  0  0  0
    1.7297   -0.2814   12.2640 C   0  0  0  0  0  0  0  0  0  0  0  0
    0.3656   -0.3395   12.5387 C   0  0  0  0  0  0  0  0  0  0  0  0
   -0.3891    0.8280   12.5037 C   0  0  0  0  0  0  0  0  0  0  0  0
   -1.6931    0.7756   12.8059 F   0  0  0  0  0  0  0  0  0  0  0  0
    0.1847    2.0459   12.1559 C   0  0  0  0  0  0  0  0  0  0  0  0
    3.9299    4.5316   10.7948 C   0  0  0  0  0  0  0  0  0  0  0  0
    5.0242    4.6562    9.9583 C   0  0  0  0  0  0  0  0  0  0  0  0
    5.3364    3.7691    8.9862 N   0  0  0  0  0  0  0  0  0  0  0  0
   -0.9761   -2.0557    4.7068 C   0  0  0  0  0  0  0  0  0  0  0  0
   -1.5599   -1.2053    4.0275 O   0  0  0  0  0  0  0  0  0  0  0  0
   -1.7637   -2.9291    5.6352 C   0  0  0  0  0  0  0  0  0  0  0  0
   -1.1722   -3.9141    6.4416 C   0  0  0  0  0  0  0  0  0  0  0  0
   -1.9550   -4.6905    7.3039 C   0  0  0  0  0  0  0  0  0  0  0  0
   -3.3324   -4.4958    7.3710 C   0  0  0  0  0  0  0  0  0  0  0  0
   -3.9336   -3.5299    6.5657 C   0  0  0  0  0  0  0  0  0  0  0  0
   -3.1557   -2.7534    5.7023 C   0  0  0  0  0  0  0  0  0  0  0  0
    1.9153   -3.5667    3.5280 H   0  0  0  0  0  0  0  0  0  0  0  0
    0.4991   -3.0935    2.5858 H   0  0  0  0  0  0  0  0  0  0  0  0
    0.3436   -4.2980    3.8706 H   0  0  0  0  0  0  0  0  0  0  0  0
    0.9711   -2.4736    5.5699 H   0  0  0  0  0  0  0  0  0  0  0  0
    0.5349   -0.2702    3.8140 H   0  0  0  0  0  0  0  0  0  0  0  0
    2.6221    0.8061    2.8354 H   0  0  0  0  0  0  0  0  0  0  0  0
    4.0899    0.5514    3.7786 H   0  0  0  0  0  0  0  0  0  0  0  0
    1.4593    1.7416    4.8542 H   0  0  0  0  0  0  0  0  0  0  0  0
    2.9353    2.6318    4.5041 H   0  0  0  0  0  0  0  0  0  0  0  0
    4.7881    2.4099    5.8398 H   0  0  0  0  0  0  0  0  0  0  0  0
    5.9850    1.6824    7.6665 H   0  0  0  0  0  0  0  0  0  0  0  0
    4.6502    0.6595    8.1991 H   0  0  0  0  0  0  0  0  0  0  0  0
    2.6700    1.7286    9.3550 H   0  0  0  0  0  0  0  0  0  0  0  0
    3.3938    0.9712   11.7671 H   0  0  0  0  0  0  0  0  0  0  0  0
    2.3331   -1.1852   12.2940 H   0  0  0  0  0  0  0  0  0  0  0  0
   -0.1111   -1.2822   12.7868 H   0  0  0  0  0  0  0  0  0  0  0  0
   -0.4299    2.9398   12.1303 H   0  0  0  0  0  0  0  0  0  0  0  0
    3.7419    5.2589   11.5769 H   0  0  0  0  0  0  0  0  0  0  0  0
    5.7120    5.4911   10.0626 H   0  0  0  0  0  0  0  0  0  0  0  0
   -0.1039   -4.1049    6.4262 H   0  0  0  0  0  0  0  0  0  0  0  0
   -1.4829   -5.4440    7.9302 H   0  0  0  0  0  0  0  0  0  0  0  0
   -3.9354   -5.0969    8.0460 H   0  0  0  0  0  0  0  0  0  0  0  0
   -5.0108   -3.3793    6.6122 H   0  0  0  0  0  0  0  0  0  0  0  0
   -3.6453   -2.0030    5.0836 H   0  0  0  0  0  0  0  0  0  0  0  0
  1  2  1  0  0  0  0
  1 34  1  0  0  0  0
  1 35  1  0  0  0  0
  1 36  1  0  0  0  0
  2  3  1  0  0  0  0
  2 26  1  0  0  0  0
  2 37  1  0  0  0  0
  3  4  1  0  0  0  0
  3 38  1  0  0  0  0
  4  5  2  0  0  0  0
  4  6  1  0  0  0  0
  6  7  1  0  0  0  0
  6 39  1  0  0  0  0
  6 40  1  0  0  0  0
  7  8  1  0  0  0  0
  7 41  1  0  0  0  0
  7 42  1  0  0  0  0
  8  9  2  0  0  0  0
  8 10  1  0  0  0  0
 10 11  1  0  0  0  0
 10 43  1  0  0  0  0
 11 12  1  0  0  0  0
 11 44  1  0  0  0  0
 11 45  1  0  0  0  0
 12 13  2  0  0  0  0
 12 25  1  0  0  0  0
 13 14  1  0  0  0  0
 13 46  1  0  0  0  0
 14 15  1  0  0  0  0
 14 23  2  0  0  0  0
 15 16  1  0  0  0  0
 16 17  2  0  0  0  0
 16 22  1  0  0  0  0
 17 18  1  0  0  0  0
 17 47  1  0  0  0  0
 18 19  2  0  0  0  0
 18 48  1  0  0  0  0
 19 20  1  0  0  0  0
 19 49  1  0  0  0  0
 20 21  1  0  0  0  0
 20 22  2  0  0  0  0
 22 50  1  0  0  0  0
 23 24  1  0  0  0  0
 23 51  1  0  0  0  0
 24 25  2  0  0  0  0
 24 52  1  0  0  0  0
 26 27  2  0  0  0  0
 26 28  1  0  0  0  0
 28 29  2  0  0  0  0
 28 33  1  0  0  0  0
 29 30  1  0  0  0  0
 29 53  1  0  0  0  0
 30 31  2  0  0  0  0
 30 54  1  0  0  0  0
 31 32  1  0  0  0  0
 31 55  1  0  0  0  0
 32 33  2  0  0  0  0
 32 56  1  0  0  0  0
 33 57  1  0  0  0  0
M  END
$$$$
