
 OpenBabel01122422503D

 45 48  0  0  0  0  0  0  0  0999 V2000
    1.0019   -0.0777    1.0721 C   0  0  0  0  0  0  0  0  0  0  0  0
    2.4357   -0.1210    0.5959 C   0  0  0  0  0  0  0  0  0  0  0  0
    3.0634   -1.1988    0.0675 C   0  0  0  0  0  0  0  0  0  0  0  0
    2.2850   -2.4415   -0.2622 C   0  0  0  0  0  0  0  0  0  0  0  0
    1.1183   -2.3446   -0.6257 O   0  0  0  0  0  0  0  0  0  0  0  0
    2.9658   -3.6524   -0.1096 N   0  0  0  0  0  0  0  0  0  0  0  0
    2.3658   -4.8949   -0.2706 C   0  0  0  0  0  0  0  0  0  0  0  0
    1.2081   -5.0805   -0.9248 C   0  0  0  0  0  0  0  0  0  0  0  0
    0.4911   -6.2704   -0.9136 N   0  0  0  0  0  0  0  0  0  0  0  0
   -0.8495   -6.2891   -1.4280 C   0  0  0  0  0  0  0  0  0  0  0  0
   -1.7056   -5.1957   -1.1970 C   0  0  0  0  0  0  0  0  0  0  0  0
   -3.0251   -5.2085   -1.6508 C   0  0  0  0  0  0  0  0  0  0  0  0
   -3.4961   -6.2989   -2.3752 C   0  0  0  0  0  0  0  0  0  0  0  0
   -2.6502   -7.3759   -2.6387 C   0  0  0  0  0  0  0  0  0  0  0  0
   -1.3380   -7.3788   -2.1550 C   0  0  0  0  0  0  0  0  0  0  0  0
    0.9886   -7.3960   -0.2395 C   0  0  0  0  0  0  0  0  0  0  0  0
    0.4166   -8.4720   -0.0782 O   0  0  0  0  0  0  0  0  0  0  0  0
    2.3378   -7.2263    0.3813 C   0  0  0  0  0  0  0  0  0  0  0  0
    2.9787   -6.0491    0.3522 C   0  0  0  0  0  0  0  0  0  0  0  0
    4.3884   -1.1584   -0.2981 N   0  0  0  0  0  0  0  0  0  0  0  0
    5.1792   -0.0374   -0.2406 C   0  0  0  0  0  0  0  0  0  0  0  0
    6.3512   -0.0671   -0.5977 O   0  0  0  0  0  0  0  0  0  0  0  0
    4.5309    1.2048    0.2365 C   0  0  0  0  0  0  0  0  0  0  0  0
    5.2426    2.4153    0.2060 C   0  0  0  0  0  0  0  0  0  0  0  0
    4.6207    3.5996    0.6001 C   0  0  0  0  0  0  0  0  0  0  0  0
    3.3022    3.5744    1.0405 C   0  0  0  0  0  0  0  0  0  0  0  0
    2.5993    2.3684    1.0766 C   0  0  0  0  0  0  0  0  0  0  0  0
    3.1931    1.1611    0.6662 C   0  0  0  0  0  0  0  0  0  0  0  0
    0.5077   -1.0467    1.1144 H   0  0  0  0  0  0  0  0  0  0  0  0
    0.4042    0.5711    0.4212 H   0  0  0  0  0  0  0  0  0  0  0  0
    0.9564    0.3056    2.0953 H   0  0  0  0  0  0  0  0  0  0  0  0
    3.8690   -3.6257    0.3450 H   0  0  0  0  0  0  0  0  0  0  0  0
    0.7450   -4.2869   -1.4992 H   0  0  0  0  0  0  0  0  0  0  0  0
   -1.3724   -4.3414   -0.6102 H   0  0  0  0  0  0  0  0  0  0  0  0
   -3.6830   -4.3731   -1.4261 H   0  0  0  0  0  0  0  0  0  0  0  0
   -4.5234   -6.3123   -2.7290 H   0  0  0  0  0  0  0  0  0  0  0  0
   -3.0136   -8.2213   -3.2166 H   0  0  0  0  0  0  0  0  0  0  0  0
   -0.6958   -8.2270   -2.3771 H   0  0  0  0  0  0  0  0  0  0  0  0
    2.7400   -8.1034    0.8745 H   0  0  0  0  0  0  0  0  0  0  0  0
    3.9547   -5.9590    0.8157 H   0  0  0  0  0  0  0  0  0  0  0  0
    4.8200   -1.9572   -0.7480 H   0  0  0  0  0  0  0  0  0  0  0  0
    6.2686    2.4370   -0.1498 H   0  0  0  0  0  0  0  0  0  0  0  0
    5.1601    4.5424    0.5517 H   0  0  0  0  0  0  0  0  0  0  0  0
    2.8088    4.4948    1.3435 H   0  0  0  0  0  0  0  0  0  0  0  0
    1.5648    2.4065    1.4084 H   0  0  0  0  0  0  0  0  0  0  0  0
  1  2  1  0  0  0  0
  1 29  1  0  0  0  0
  1 30  1  0  0  0  0
  1 31  1  0  0  0  0
  2  3  2  0  0  0  0
  2 28  1  0  0  0  0
  3  4  1  0  0  0  0
  3 20  1  0  0  0  0
  4  5  2  0  0  0  0
  4  6  1  0  0  0  0
  6  7  1  0  0  0  0
  6 32  1  0  0  0  0
  7  8  2  0  0  0  0
  7 19  1  0  0  0  0
  8  9  1  0  0  0  0
  8 33  1  0  0  0  0
  9 10  1  0  0  0  0
  9 16  1  0  0  0  0
 10 11  2  0  0  0  0
 10 15  1  0  0  0  0
 11 12  1  0  0  0  0
 11 34  1  0  0  0  0
 12 13  2  0  0  0  0
 12 35  1  0  0  0  0
 13 14  1  0  0  0  0
 13 36  1  0  0  0  0
 14 15  2  0  0  0  0
 14 37  1  0  0  0  0
 15 38  1  0  0  0  0
 16 17  2  0  0  0  0
 16 18  1  0  0  0  0
 18 19  2  0  0  0  0
 18 39  1  0  0  0  0
 19 40  1  0  0  0  0
 20 21  1  0  0  0  0
 20 41  1  0  0  0  0
 21 22  2  0  0  0  0
 21 23  1  0  0  0  0
 23 24  2  0  0  0  0
 23 28  1  0  0  0  0
 24 25  1  0  0  0  0
 24 42  1  0  0  0  0
 25 26  2  0  0  0  0
 25 43  1  0  0  0  0
 26 27  1  0  0  0  0
 26 44  1  0  0  0  0
 27 28  2  0  0  0  0
 27 45  1  0  0  0  0
M  END
$$$$
