
 OpenBabel01122422503D

 48 51  0  0  1  0  0  0  0  0999 V2000
    2.4014    1.1908   -1.0792 O   0  0  0  0  0  0  0  0  0  0  0  0
    2.0907    0.8693    0.0598 C   0  0  0  0  0  0  0  0  0  0  0  0
    0.7778    0.7513    0.4838 N   0  0  0  0  0  0  0  0  0  0  0  0
   -0.3517    1.0425   -0.3135 C   0  0  0  0  0  0  0  0  0  0  0  0
   -0.3617    1.1815   -1.6877 C   0  0  0  0  0  0  0  0  0  0  0  0
   -1.4584    1.5113   -2.4035 N   0  0  0  0  0  0  0  0  0  0  0  0
   -2.6030    1.7330   -1.7156 C   0  0  0  0  0  0  0  0  0  0  0  0
   -3.8017    2.1760   -2.4771 C   0  0  0  0  0  0  0  0  0  0  0  0
   -3.9313    1.7564   -3.7590 N   0  0  0  0  0  0  0  0  0  0  0  0
   -5.0066    2.1980   -4.4368 C   0  0  0  0  0  0  0  0  0  0  0  0
   -5.9468    3.0413   -3.8995 C   0  0  0  0  0  0  0  0  0  0  0  0
   -5.7363    3.4131   -2.5956 C   0  0  0  0  0  0  0  0  0  0  0  0
   -4.6880    2.9973   -1.8606 N   0  0  0  0  0  0  0  0  0  0  0  0
   -2.7022    1.5967   -0.3691 N   0  0  0  0  0  0  0  0  0  0  0  0
   -1.5776    1.2435    0.2885 C   0  0  0  0  0  0  0  0  0  0  0  0
    2.9821    0.6401    1.0961 N   0  0  0  0  0  0  0  0  0  0  0  0
    4.3886    0.8051    1.0274 C   0  0  0  0  0  0  0  0  0  0  0  0
    5.0835    0.9119   -0.1761 C   0  0  0  0  0  0  0  0  0  0  0  0
    6.4734    1.1223   -0.2061 C   0  0  0  0  0  0  0  0  0  0  0  0
    7.2029    1.3034   -1.5322 C   0  0  3  0  0  0  0  0  0  0  0  0
    7.0783    0.1132   -2.3150 O   0  0  0  0  0  0  0  0  0  0  0  0
    6.7369    2.5296   -2.3081 C   0  0  0  0  0  0  0  0  0  0  0  0
    6.8730    3.8080   -1.7371 C   0  0  0  0  0  0  0  0  0  0  0  0
    6.3820    4.9417   -2.3884 C   0  0  0  0  0  0  0  0  0  0  0  0
    5.7637    4.8195   -3.6297 C   0  0  0  0  0  0  0  0  0  0  0  0
    5.6554    3.5676   -4.2294 C   0  0  0  0  0  0  0  0  0  0  0  0
    6.1414    2.4319   -3.5766 C   0  0  0  0  0  0  0  0  0  0  0  0
    7.1619    1.2077    1.0100 C   0  0  0  0  0  0  0  0  0  0  0  0
    6.4753    1.0938    2.2202 C   0  0  0  0  0  0  0  0  0  0  0  0
    5.0928    0.8856    2.2295 C   0  0  0  0  0  0  0  0  0  0  0  0
    0.6205    0.6325    1.4725 H   0  0  0  0  0  0  0  0  0  0  0  0
    0.5189    1.0237   -2.3022 H   0  0  0  0  0  0  0  0  0  0  0  0
   -5.0847    1.8411   -5.4591 H   0  0  0  0  0  0  0  0  0  0  0  0
   -6.7963    3.3899   -4.4688 H   0  0  0  0  0  0  0  0  0  0  0  0
   -6.4202    4.0846   -2.0835 H   0  0  0  0  0  0  0  0  0  0  0  0
   -1.7047    1.1575    1.3620 H   0  0  0  0  0  0  0  0  0  0  0  0
    2.5991    0.4714    2.0128 H   0  0  0  0  0  0  0  0  0  0  0  0
    4.5620    0.8426   -1.1255 H   0  0  0  0  0  0  0  0  0  0  0  0
    8.2771    1.4236   -1.3511 H   0  0  0  0  0  0  0  0  0  0  0  0
    6.1680   -0.2067   -2.2075 H   0  0  0  0  0  0  0  0  0  0  0  0
    7.3443    3.9261   -0.7635 H   0  0  0  0  0  0  0  0  0  0  0  0
    6.4700    5.9184   -1.9200 H   0  0  0  0  0  0  0  0  0  0  0  0
    5.3632    5.6977   -4.1287 H   0  0  0  0  0  0  0  0  0  0  0  0
    5.1806    3.4702   -5.2023 H   0  0  0  0  0  0  0  0  0  0  0  0
    6.0383    1.4670   -4.0674 H   0  0  0  0  0  0  0  0  0  0  0  0
    8.2371    1.3766    1.0237 H   0  0  0  0  0  0  0  0  0  0  0  0
    7.0168    1.1829    3.1595 H   0  0  0  0  0  0  0  0  0  0  0  0
    4.5832    0.8280    3.1872 H   0  0  0  0  0  0  0  0  0  0  0  0
  1  2  2  0  0  0  0
  2  3  1  0  0  0  0
  2 16  1  0  0  0  0
  3  4  1  0  0  0  0
  3 31  1  0  0  0  0
  4  5  2  0  0  0  0
  4 15  1  0  0  0  0
  5  6  1  0  0  0  0
  5 32  1  0  0  0  0
  6  7  2  0  0  0  0
  7  8  1  0  0  0  0
  7 14  1  0  0  0  0
  8  9  2  0  0  0  0
  8 13  1  0  0  0  0
  9 10  1  0  0  0  0
 10 11  2  0  0  0  0
 10 33  1  0  0  0  0
 11 12  1  0  0  0  0
 11 34  1  0  0  0  0
 12 13  2  0  0  0  0
 12 35  1  0  0  0  0
 14 15  2  0  0  0  0
 15 36  1  0  0  0  0
 16 17  1  0  0  0  0
 16 37  1  0  0  0  0
 17 18  2  0  0  0  0
 17 30  1  0  0  0  0
 18 19  1  0  0  0  0
 18 38  1  0  0  0  0
 19 20  1  0  0  0  0
 19 28  2  0  0  0  0
 20 21  1  0  0  0  0
 20 22  1  0  0  0  0
 20 39  1  0  0  0  0
 21 40  1  0  0  0  0
 22 23  2  0  0  0  0
 22 27  1  0  0  0  0
 23 24  1  0  0  0  0
 23 41  1  0  0  0  0
 24 25  2  0  0  0  0
 24 42  1  0  0  0  0
 25 26  1  0  0  0  0
 25 43  1  0  0  0  0
 26 27  2  0  0  0  0
 26 44  1  0  0  0  0
 27 45  1  0  0  0  0
 28 29  1  0  0  0  0
 28 46  1  0  0  0  0
 29 30  2  0  0  0  0
 29 47  1  0  0  0  0
 30 48  1  0  0  0  0
M  END
$$$$
