
 OpenBabel01122422503D

 41 44  0  0  0  0  0  0  0  0999 V2000
    1.2022   -0.3805   -0.7616 O   0  0  0  0  0  0  0  0  0  0  0  0
    2.2258   -0.0869   -0.1578 C   0  0  0  0  0  0  0  0  0  0  0  0
    2.7259   -0.7187    0.9712 N   0  0  0  0  0  0  0  0  0  0  0  0
    2.1598   -1.8444    1.6106 C   0  0  0  0  0  0  0  0  0  0  0  0
    1.1271   -2.6015    1.0575 C   0  0  0  0  0  0  0  0  0  0  0  0
    0.5765   -3.6817    1.7526 C   0  0  0  0  0  0  0  0  0  0  0  0
    1.0536   -4.0217    3.0217 C   0  0  0  0  0  0  0  0  0  0  0  0
    0.4681   -5.0918    3.7522 N   0  0  0  0  0  0  0  0  0  0  0  0
   -0.5144   -5.9590    3.3277 C   0  0  0  0  0  0  0  0  0  0  0  0
   -0.8162   -6.7810    4.3848 C   0  0  0  0  0  0  0  0  0  0  0  0
    0.0343   -6.3636    5.4350 C   0  0  0  0  0  0  0  0  0  0  0  0
    0.0664   -6.9330    6.8280 C   0  0  0  0  0  0  0  0  0  0  0  0
   -0.8751   -7.9050    6.9937 F   0  0  0  0  0  0  0  0  0  0  0  0
    1.2618   -7.5054    7.1301 F   0  0  0  0  0  0  0  0  0  0  0  0
   -0.1815   -5.9963    7.7802 F   0  0  0  0  0  0  0  0  0  0  0  0
    0.8384   -5.3586    5.0318 N   0  0  0  0  0  0  0  0  0  0  0  0
    2.1059   -3.2801    3.5758 C   0  0  0  0  0  0  0  0  0  0  0  0
    2.6626   -2.2069    2.8659 C   0  0  0  0  0  0  0  0  0  0  0  0
    3.0128    1.0675   -0.6517 C   0  0  0  0  0  0  0  0  0  0  0  0
    4.4007    0.9669   -0.6907 C   0  0  0  0  0  0  0  0  0  0  0  0
    5.2208    1.9365   -1.1501 N   0  0  0  0  0  0  0  0  0  0  0  0
    4.6097    3.0335   -1.6325 C   0  0  0  0  0  0  0  0  0  0  0  0
    5.4912    3.9646   -2.0830 O   0  0  0  0  0  0  0  0  0  0  0  0
    3.2308    3.2520   -1.6881 C   0  0  0  0  0  0  0  0  0  0  0  0
    2.6613    4.4155   -2.2351 C   0  0  0  0  0  0  0  0  0  0  0  0
    1.2857    4.5484   -2.2344 C   0  0  0  0  0  0  0  0  0  0  0  0
    0.4534    3.6277   -1.7209 N   0  0  0  0  0  0  0  0  0  0  0  0
    1.0192    2.5061   -1.2071 C   0  0  0  0  0  0  0  0  0  0  0  0
    2.4000    2.2406   -1.1669 C   0  0  0  0  0  0  0  0  0  0  0  0
    3.5028   -0.2887    1.4579 H   0  0  0  0  0  0  0  0  0  0  0  0
    0.7170   -2.3822    0.0767 H   0  0  0  0  0  0  0  0  0  0  0  0
   -0.2389   -4.2136    1.2727 H   0  0  0  0  0  0  0  0  0  0  0  0
   -0.9229   -5.9266    2.3296 H   0  0  0  0  0  0  0  0  0  0  0  0
   -1.5564   -7.5696    4.4036 H   0  0  0  0  0  0  0  0  0  0  0  0
    2.5012   -3.5201    4.5617 H   0  0  0  0  0  0  0  0  0  0  0  0
    3.4744   -1.6494    3.3263 H   0  0  0  0  0  0  0  0  0  0  0  0
    4.9175    0.0674   -0.3673 H   0  0  0  0  0  0  0  0  0  0  0  0
    6.3316    3.5087   -1.8957 H   0  0  0  0  0  0  0  0  0  0  0  0
    3.2827    5.1982   -2.6590 H   0  0  0  0  0  0  0  0  0  0  0  0
    0.8063    5.4266   -2.6595 H   0  0  0  0  0  0  0  0  0  0  0  0
    0.2872    1.8043   -0.8111 H   0  0  0  0  0  0  0  0  0  0  0  0
  1  2  2  0  0  0  0
  2  3  1  0  0  0  0
  2 19  1  0  0  0  0
  3  4  1  0  0  0  0
  3 30  1  0  0  0  0
  4  5  2  0  0  0  0
  4 18  1  0  0  0  0
  5  6  1  0  0  0  0
  5 31  1  0  0  0  0
  6  7  2  0  0  0  0
  6 32  1  0  0  0  0
  7  8  1  0  0  0  0
  7 17  1  0  0  0  0
  8  9  1  0  0  0  0
  8 16  1  0  0  0  0
  9 10  2  0  0  0  0
  9 33  1  0  0  0  0
 10 11  1  0  0  0  0
 10 34  1  0  0  0  0
 11 12  1  0  0  0  0
 11 16  2  0  0  0  0
 12 13  1  0  0  0  0
 12 14  1  0  0  0  0
 12 15  1  0  0  0  0
 17 18  2  0  0  0  0
 17 35  1  0  0  0  0
 18 36  1  0  0  0  0
 19 20  2  0  0  0  0
 19 29  1  0  0  0  0
 20 21  1  0  0  0  0
 20 37  1  0  0  0  0
 21 22  2  0  0  0  0
 22 23  1  0  0  0  0
 22 24  1  0  0  0  0
 23 38  1  0  0  0  0
 24 25  2  0  0  0  0
 24 29  1  0  0  0  0
 25 26  1  0  0  0  0
 25 39  1  0  0  0  0
 26 27  2  0  0  0  0
 26 40  1  0  0  0  0
 27 28  1  0  0  0  0
 28 29  2  0  0  0  0
 28 41  1  0  0  0  0
M  END
$$$$
