
 OpenBabel01122422503D

 46 49  0  0  0  0  0  0  0  0999 V2000
    2.3045    1.7174    0.4118 C   0  0  0  0  0  0  0  0  0  0  0  0
    3.7419    1.8284    0.4780 N   0  0  0  0  0  0  0  0  0  0  0  0
    4.4635    2.9833    0.4656 C   0  0  0  0  0  0  0  0  0  0  0  0
    5.7611    2.5733    0.5132 C   0  0  0  0  0  0  0  0  0  0  0  0
    6.8512    3.3697    0.5155 N   0  0  0  0  0  0  0  0  0  0  0  0
    7.9915    2.6122    0.5583 C   0  0  0  0  0  0  0  0  0  0  0  0
    8.0865    1.1951    0.5764 C   0  0  0  0  0  0  0  0  0  0  0  0
    9.4433    0.6215    0.6467 C   0  0  0  0  0  0  0  0  0  0  0  0
   10.3031    1.3023    1.1956 O   0  0  0  0  0  0  0  0  0  0  0  0
    9.6331   -0.6127    0.0395 N   0  0  0  0  0  0  0  0  0  0  0  0
   10.8380   -1.3490    0.0943 C   0  0  0  0  0  0  0  0  0  0  0  0
   11.8267   -1.0672    1.0384 C   0  0  0  0  0  0  0  0  0  0  0  0
   13.0268   -1.7691    1.0595 C   0  0  0  0  0  0  0  0  0  0  0  0
   13.2745   -2.7610    0.1173 C   0  0  0  0  0  0  0  0  0  0  0  0
   14.4591   -3.4402    0.0314 O   0  0  0  0  0  0  0  0  0  0  0  0
   15.5812   -2.7472    0.5930 C   0  0  0  0  0  0  0  0  0  0  0  0
   16.8770   -3.3005    0.0591 C   0  0  0  0  0  0  0  0  0  0  0  0
   18.0520   -3.1785    0.8159 C   0  0  0  0  0  0  0  0  0  0  0  0
   19.2678   -3.6439    0.3157 C   0  0  0  0  0  0  0  0  0  0  0  0
   19.3235   -4.2232   -0.9520 C   0  0  0  0  0  0  0  0  0  0  0  0
   18.1642   -4.3261   -1.7257 C   0  0  0  0  0  0  0  0  0  0  0  0
   18.2187   -4.9002   -3.0340 C   0  0  0  0  0  0  0  0  0  0  0  0
   18.2571   -5.3597   -4.1008 N   0  0  0  0  0  0  0  0  0  0  0  0
   16.9481   -3.8593   -1.2236 C   0  0  0  0  0  0  0  0  0  0  0  0
   12.2631   -3.0892   -0.7902 C   0  0  0  0  0  0  0  0  0  0  0  0
   12.4591   -4.0623   -1.6937 F   0  0  0  0  0  0  0  0  0  0  0  0
   11.0465   -2.3978   -0.8045 C   0  0  0  0  0  0  0  0  0  0  0  0
    6.9432    0.3812    0.5953 C   0  0  0  0  0  0  0  0  0  0  0  0
    5.7572    1.1297    0.5542 C   0  0  0  0  0  0  0  0  0  0  0  0
    4.4836    0.6985    0.5413 N   0  0  0  0  0  0  0  0  0  0  0  0
    1.8660    2.7156    0.3397 H   0  0  0  0  0  0  0  0  0  0  0  0
    1.9569    1.2184    1.3193 H   0  0  0  0  0  0  0  0  0  0  0  0
    2.0482    1.1319   -0.4746 H   0  0  0  0  0  0  0  0  0  0  0  0
    4.0151    3.9640    0.4190 H   0  0  0  0  0  0  0  0  0  0  0  0
    8.9032    3.2128    0.5786 H   0  0  0  0  0  0  0  0  0  0  0  0
    8.9168   -0.9559   -0.5882 H   0  0  0  0  0  0  0  0  0  0  0  0
   11.6949   -0.3004    1.7950 H   0  0  0  0  0  0  0  0  0  0  0  0
   13.7461   -1.5008    1.8258 H   0  0  0  0  0  0  0  0  0  0  0  0
   15.5579   -2.8701    1.6826 H   0  0  0  0  0  0  0  0  0  0  0  0
   15.5598   -1.6807    0.3300 H   0  0  0  0  0  0  0  0  0  0  0  0
   18.0271   -2.7153    1.8010 H   0  0  0  0  0  0  0  0  0  0  0  0
   20.1719   -3.5520    0.9126 H   0  0  0  0  0  0  0  0  0  0  0  0
   20.2751   -4.5867   -1.3337 H   0  0  0  0  0  0  0  0  0  0  0  0
   16.0472   -3.9280   -1.8344 H   0  0  0  0  0  0  0  0  0  0  0  0
   10.3049   -2.6747   -1.5464 H   0  0  0  0  0  0  0  0  0  0  0  0
    6.9459   -0.6958    0.6664 H   0  0  0  0  0  0  0  0  0  0  0  0
  1  2  1  0  0  0  0
  1 31  1  0  0  0  0
  1 32  1  0  0  0  0
  1 33  1  0  0  0  0
  2  3  1  0  0  0  0
  2 30  1  0  0  0  0
  3  4  2  0  0  0  0
  3 34  1  0  0  0  0
  4  5  1  0  0  0  0
  4 29  1  0  0  0  0
  5  6  2  0  0  0  0
  6  7  1  0  0  0  0
  6 35  1  0  0  0  0
  7  8  1  0  0  0  0
  7 28  2  0  0  0  0
  8  9  2  0  0  0  0
  8 10  1  0  0  0  0
 10 11  1  0  0  0  0
 10 36  1  0  0  0  0
 11 12  2  0  0  0  0
 11 27  1  0  0  0  0
 12 13  1  0  0  0  0
 12 37  1  0  0  0  0
 13 14  2  0  0  0  0
 13 38  1  0  0  0  0
 14 15  1  0  0  0  0
 14 25  1  0  0  0  0
 15 16  1  0  0  0  0
 16 17  1  0  0  0  0
 16 39  1  0  0  0  0
 16 40  1  0  0  0  0
 17 18  2  0  0  0  0
 17 24  1  0  0  0  0
 18 19  1  0  0  0  0
 18 41  1  0  0  0  0
 19 20  2  0  0  0  0
 19 42  1  0  0  0  0
 20 21  1  0  0  0  0
 20 43  1  0  0  0  0
 21 22  1  0  0  0  0
 21 24  2  0  0  0  0
 22 23  3  0  0  0  0
 24 44  1  0  0  0  0
 25 26  1  0  0  0  0
 25 27  2  0  0  0  0
 27 45  1  0  0  0  0
 28 29  1  0  0  0  0
 28 46  1  0  0  0  0
 29 30  2  0  0  0  0
M  END
$$$$
