
 OpenBabel01122422503D

 44 47  0  0  0  0  0  0  0  0999 V2000
   -1.7205    0.3656    1.1735 C   0  0  0  0  0  0  0  0  0  0  0  0
   -0.4644    0.0697    0.5302 N   0  0  0  0  0  0  0  0  0  0  0  0
    0.4225   -0.8998    0.8762 C   0  0  0  0  0  0  0  0  0  0  0  0
    1.4596   -0.7978   -0.0203 C   0  0  0  0  0  0  0  0  0  0  0  0
    2.5990   -1.5881   -0.0172 N   0  0  0  0  0  0  0  0  0  0  0  0
    2.5119   -2.9665   -0.0951 C   0  0  0  0  0  0  0  0  0  0  0  0
    1.4687   -3.6064   -0.1887 O   0  0  0  0  0  0  0  0  0  0  0  0
    3.8136   -3.7016   -0.1219 C   0  0  0  0  0  0  0  0  0  0  0  0
    4.9629   -3.1880    0.4824 C   0  0  0  0  0  0  0  0  0  0  0  0
    6.1094   -3.9791    0.5534 C   0  0  0  0  0  0  0  0  0  0  0  0
    6.1059   -5.2801    0.0405 C   0  0  0  0  0  0  0  0  0  0  0  0
    4.9674   -5.8118   -0.5793 C   0  0  0  0  0  0  0  0  0  0  0  0
    4.9250   -7.1607   -1.0266 N   0  0  0  0  0  0  0  0  0  0  0  0
    3.7972   -7.8859   -1.4032 C   0  0  0  0  0  0  0  0  0  0  0  0
    4.1441   -9.1443   -1.7018 C   0  0  0  0  0  0  0  0  0  0  0  0
    5.5008   -9.2712   -1.5520 N   0  0  0  0  0  0  0  0  0  0  0  0
    6.0504   -8.0549   -1.1237 C   0  0  0  0  0  0  0  0  0  0  0  0
    7.2393   -7.8713   -0.9022 O   0  0  0  0  0  0  0  0  0  0  0  0
    3.8335   -4.9946   -0.6738 C   0  0  0  0  0  0  0  0  0  0  0  0
    1.1039    0.2758   -0.8979 C   0  0  0  0  0  0  0  0  0  0  0  0
    1.7780    0.7566   -2.1083 C   0  0  0  0  0  0  0  0  0  0  0  0
    1.0118    1.3005   -3.1592 C   0  0  0  0  0  0  0  0  0  0  0  0
    1.6234    1.7586   -4.3285 C   0  0  0  0  0  0  0  0  0  0  0  0
    3.0033    1.6752   -4.4556 C   0  0  0  0  0  0  0  0  0  0  0  0
    3.5926    2.1216   -5.5719 F   0  0  0  0  0  0  0  0  0  0  0  0
    3.7814    1.1383   -3.4431 C   0  0  0  0  0  0  0  0  0  0  0  0
    3.1660    0.6858   -2.2780 C   0  0  0  0  0  0  0  0  0  0  0  0
    3.9589    0.1851   -1.3180 F   0  0  0  0  0  0  0  0  0  0  0  0
   -0.0850    0.7952   -0.5350 N   0  0  0  0  0  0  0  0  0  0  0  0
   -1.8157   -0.2303    2.0838 H   0  0  0  0  0  0  0  0  0  0  0  0
   -2.5276    0.1224    0.4779 H   0  0  0  0  0  0  0  0  0  0  0  0
   -1.7413    1.4307    1.4247 H   0  0  0  0  0  0  0  0  0  0  0  0
    0.2639   -1.5517    1.7234 H   0  0  0  0  0  0  0  0  0  0  0  0
    3.4289   -1.1668   -0.4198 H   0  0  0  0  0  0  0  0  0  0  0  0
    4.9724   -2.2072    0.9472 H   0  0  0  0  0  0  0  0  0  0  0  0
    7.0012   -3.6024    1.0534 H   0  0  0  0  0  0  0  0  0  0  0  0
    7.0089   -5.8703    0.1761 H   0  0  0  0  0  0  0  0  0  0  0  0
    2.8036   -7.4705   -1.3953 H   0  0  0  0  0  0  0  0  0  0  0  0
    3.5187   -9.9660   -2.0113 H   0  0  0  0  0  0  0  0  0  0  0  0
    6.0500  -10.0980   -1.6993 H   0  0  0  0  0  0  0  0  0  0  0  0
    2.9329   -5.3446   -1.1701 H   0  0  0  0  0  0  0  0  0  0  0  0
   -0.0720    1.3625   -3.0695 H   0  0  0  0  0  0  0  0  0  0  0  0
    1.0301    2.1792   -5.1347 H   0  0  0  0  0  0  0  0  0  0  0  0
    4.8583    1.0761   -3.5511 H   0  0  0  0  0  0  0  0  0  0  0  0
  1  2  1  0  0  0  0
  1 30  1  0  0  0  0
  1 31  1  0  0  0  0
  1 32  1  0  0  0  0
  2  3  1  0  0  0  0
  2 29  1  0  0  0  0
  3  4  2  0  0  0  0
  3 33  1  0  0  0  0
  4  5  1  0  0  0  0
  4 20  1  0  0  0  0
  5  6  1  0  0  0  0
  5 34  1  0  0  0  0
  6  7  2  0  0  0  0
  6  8  1  0  0  0  0
  8  9  2  0  0  0  0
  8 19  1  0  0  0  0
  9 10  1  0  0  0  0
  9 35  1  0  0  0  0
 10 11  2  0  0  0  0
 10 36  1  0  0  0  0
 11 12  1  0  0  0  0
 11 37  1  0  0  0  0
 12 13  1  0  0  0  0
 12 19  2  0  0  0  0
 13 14  1  0  0  0  0
 13 17  1  0  0  0  0
 14 15  2  0  0  0  0
 14 38  1  0  0  0  0
 15 16  1  0  0  0  0
 15 39  1  0  0  0  0
 16 17  1  0  0  0  0
 16 40  1  0  0  0  0
 17 18  2  0  0  0  0
 19 41  1  0  0  0  0
 20 21  1  0  0  0  0
 20 29  2  0  0  0  0
 21 22  2  0  0  0  0
 21 27  1  0  0  0  0
 22 23  1  0  0  0  0
 22 42  1  0  0  0  0
 23 24  2  0  0  0  0
 23 43  1  0  0  0  0
 24 25  1  0  0  0  0
 24 26  1  0  0  0  0
 26 27  2  0  0  0  0
 26 44  1  0  0  0  0
 27 28  1  0  0  0  0
M  END
$$$$
