
 OpenBabel01122422503D

 45 48  0  0  0  0  0  0  0  0999 V2000
    6.7159    2.9681   -0.4138 N   0  0  0  0  0  0  0  0  0  0  0  0
    6.1227    3.1451    0.7993 C   0  0  0  0  0  0  0  0  0  0  0  0
    6.6480    3.8884    1.6260 O   0  0  0  0  0  0  0  0  0  0  0  0
    4.8295    2.4510    1.0878 C   0  0  0  0  0  0  0  0  0  0  0  0
    4.2298    2.7687    2.3251 C   0  0  0  0  0  0  0  0  0  0  0  0
    2.9942    2.2348    2.6946 C   0  0  0  0  0  0  0  0  0  0  0  0
    2.3577    1.3336    1.8546 C   0  0  0  0  0  0  0  0  0  0  0  0
    2.9639    0.9600    0.6558 C   0  0  0  0  0  0  0  0  0  0  0  0
    4.1719    1.5511    0.2278 C   0  0  0  0  0  0  0  0  0  0  0  0
    4.7228    1.2346   -1.0103 O   0  0  0  0  0  0  0  0  0  0  0  0
    3.8603    0.9303   -2.0520 C   0  0  0  0  0  0  0  0  0  0  0  0
    2.6602    1.6259   -2.2339 C   0  0  0  0  0  0  0  0  0  0  0  0
    1.7331    1.1617   -3.1515 C   0  0  0  0  0  0  0  0  0  0  0  0
    2.0584    0.0889   -3.9764 C   0  0  0  0  0  0  0  0  0  0  0  0
    3.3313   -0.4972   -3.9496 C   0  0  0  0  0  0  0  0  0  0  0  0
    3.7302   -1.4656   -4.9186 N   0  0  0  0  0  0  0  0  0  0  0  0
    3.0828   -1.6371   -6.1357 C   0  0  0  0  0  0  0  0  0  0  0  0
    2.1307   -0.9651   -6.5298 O   0  0  0  0  0  0  0  0  0  0  0  0
    3.6194   -2.7035   -7.0510 C   0  0  0  0  0  0  0  0  0  0  0  0
    3.2870   -2.5772   -8.3489 C   0  0  0  0  0  0  0  0  0  0  0  0
    3.6170   -3.6085   -9.2534 C   0  0  0  0  0  0  0  0  0  0  0  0
    3.3698   -3.8085  -10.5944 C   0  0  0  0  0  0  0  0  0  0  0  0
    3.8867   -5.0803  -10.9278 C   0  0  0  0  0  0  0  0  0  0  0  0
    4.4560   -5.6056   -9.7873 C   0  0  0  0  0  0  0  0  0  0  0  0
    4.2943   -4.7052   -8.7491 N   0  0  0  0  0  0  0  0  0  0  0  0
    4.6982   -4.8639   -7.4060 C   0  0  0  0  0  0  0  0  0  0  0  0
    5.2946   -5.8648   -7.0373 O   0  0  0  0  0  0  0  0  0  0  0  0
    4.3202   -3.8027   -6.6018 N   0  0  0  0  0  0  0  0  0  0  0  0
    4.2203   -0.1019   -2.9380 C   0  0  0  0  0  0  0  0  0  0  0  0
    7.5632    3.4866   -0.6033 H   0  0  0  0  0  0  0  0  0  0  0  0
    6.3044    2.4008   -1.1411 H   0  0  0  0  0  0  0  0  0  0  0  0
    4.7245    3.4557    3.0116 H   0  0  0  0  0  0  0  0  0  0  0  0
    2.5363    2.5209    3.6383 H   0  0  0  0  0  0  0  0  0  0  0  0
    1.3894    0.9198    2.1256 H   0  0  0  0  0  0  0  0  0  0  0  0
    2.4515    0.2239    0.0401 H   0  0  0  0  0  0  0  0  0  0  0  0
    2.4037    2.4815   -1.6149 H   0  0  0  0  0  0  0  0  0  0  0  0
    0.7528    1.6241   -3.2275 H   0  0  0  0  0  0  0  0  0  0  0  0
    1.2806   -0.2615   -4.6482 H   0  0  0  0  0  0  0  0  0  0  0  0
    4.6387   -1.8919   -4.7970 H   0  0  0  0  0  0  0  0  0  0  0  0
    2.7192   -1.7256   -8.7148 H   0  0  0  0  0  0  0  0  0  0  0  0
    2.8451   -3.1257  -11.2509 H   0  0  0  0  0  0  0  0  0  0  0  0
    3.8352   -5.5645  -11.8946 H   0  0  0  0  0  0  0  0  0  0  0  0
    4.9476   -6.5537   -9.6103 H   0  0  0  0  0  0  0  0  0  0  0  0
    4.4979   -3.9283   -5.6145 H   0  0  0  0  0  0  0  0  0  0  0  0
    5.1925   -0.5743   -2.8297 H   0  0  0  0  0  0  0  0  0  0  0  0
  1  2  1  0  0  0  0
  1 30  1  0  0  0  0
  1 31  1  0  0  0  0
  2  3  2  0  0  0  0
  2  4  1  0  0  0  0
  4  5  2  0  0  0  0
  4  9  1  0  0  0  0
  5  6  1  0  0  0  0
  5 32  1  0  0  0  0
  6  7  2  0  0  0  0
  6 33  1  0  0  0  0
  7  8  1  0  0  0  0
  7 34  1  0  0  0  0
  8  9  2  0  0  0  0
  8 35  1  0  0  0  0
  9 10  1  0  0  0  0
 10 11  1  0  0  0  0
 11 12  2  0  0  0  0
 11 29  1  0  0  0  0
 12 13  1  0  0  0  0
 12 36  1  0  0  0  0
 13 14  2  0  0  0  0
 13 37  1  0  0  0  0
 14 15  1  0  0  0  0
 14 38  1  0  0  0  0
 15 16  1  0  0  0  0
 15 29  2  0  0  0  0
 16 17  1  0  0  0  0
 16 39  1  0  0  0  0
 17 18  2  0  0  0  0
 17 19  1  0  0  0  0
 19 20  2  0  0  0  0
 19 28  1  0  0  0  0
 20 21  1  0  0  0  0
 20 40  1  0  0  0  0
 21 22  2  0  0  0  0
 21 25  1  0  0  0  0
 22 23  1  0  0  0  0
 22 41  1  0  0  0  0
 23 24  2  0  0  0  0
 23 42  1  0  0  0  0
 24 25  1  0  0  0  0
 24 43  1  0  0  0  0
 25 26  1  0  0  0  0
 26 27  2  0  0  0  0
 26 28  1  0  0  0  0
 28 44  1  0  0  0  0
 29 45  1  0  0  0  0
M  END
$$$$
