
 OpenBabel01122422503D

 42 44  0  0  0  0  0  0  0  0999 V2000
    0.8964   -0.1467   -0.1757 O   0  0  0  0  0  0  0  0  0  0  0  0
    2.1061   -0.1194   -0.0284 C   0  0  0  0  0  0  0  0  0  0  0  0
    2.7770    0.9847    0.3547 O   0  0  0  0  0  0  0  0  0  0  0  0
    2.9643   -1.3041   -0.2881 C   0  0  0  0  0  0  0  0  0  0  0  0
    2.5169   -2.2551   -1.2116 C   0  0  0  0  0  0  0  0  0  0  0  0
    3.2163   -3.4533   -1.3906 C   0  0  0  0  0  0  0  0  0  0  0  0
    4.3902   -3.7021   -0.6614 C   0  0  0  0  0  0  0  0  0  0  0  0
    4.9310   -5.0845   -0.6223 C   0  0  0  0  0  0  0  0  0  0  0  0
    5.2663   -5.4863    0.4876 O   0  0  0  0  0  0  0  0  0  0  0  0
    4.9735   -5.7878   -1.8120 N   0  0  0  0  0  0  0  0  0  0  0  0
    5.4584   -7.1107   -1.9713 C   0  0  0  0  0  0  0  0  0  0  0  0
    5.7645   -7.9527   -0.8997 C   0  0  0  0  0  0  0  0  0  0  0  0
    6.3071   -9.2277   -1.1140 C   0  0  0  0  0  0  0  0  0  0  0  0
    6.5788   -9.6674   -2.4111 C   0  0  0  0  0  0  0  0  0  0  0  0
    7.2394  -10.9157   -2.6282 N   0  0  0  0  0  0  0  0  0  0  0  0
    8.3792  -10.9690   -3.4255 C   0  0  0  0  0  0  0  0  0  0  0  0
    9.0370  -12.1132   -3.6474 C   0  0  0  0  0  0  0  0  0  0  0  0
    8.5394  -13.3448   -3.0987 C   0  0  0  0  0  0  0  0  0  0  0  0
    7.4549  -13.3445   -2.3155 C   0  0  0  0  0  0  0  0  0  0  0  0
    6.7415  -12.0726   -1.9989 C   0  0  0  0  0  0  0  0  0  0  0  0
    5.7566  -12.1372   -1.2640 O   0  0  0  0  0  0  0  0  0  0  0  0
    6.2409   -8.8429   -3.4882 C   0  0  0  0  0  0  0  0  0  0  0  0
    5.6536   -7.5889   -3.2729 C   0  0  0  0  0  0  0  0  0  0  0  0
    4.9067   -2.7102    0.1975 C   0  0  0  0  0  0  0  0  0  0  0  0
    6.2327   -2.8244    0.9201 C   0  0  0  0  0  0  0  0  0  0  0  0
    7.1070   -3.7388    0.4310 F   0  0  0  0  0  0  0  0  0  0  0  0
    6.9098   -1.6340    0.8290 F   0  0  0  0  0  0  0  0  0  0  0  0
    6.0981   -3.0468    2.2534 F   0  0  0  0  0  0  0  0  0  0  0  0
    4.1536   -1.5329    0.4107 C   0  0  0  0  0  0  0  0  0  0  0  0
    3.7470    0.9504    0.2787 H   0  0  0  0  0  0  0  0  0  0  0  0
    1.5838   -2.0913   -1.7505 H   0  0  0  0  0  0  0  0  0  0  0  0
    2.7849   -4.2116   -2.0406 H   0  0  0  0  0  0  0  0  0  0  0  0
    4.7415   -5.2982   -2.6657 H   0  0  0  0  0  0  0  0  0  0  0  0
    5.6043   -7.6542    0.1308 H   0  0  0  0  0  0  0  0  0  0  0  0
    6.5615   -9.8382   -0.2508 H   0  0  0  0  0  0  0  0  0  0  0  0
    8.7546  -10.0277   -3.8163 H   0  0  0  0  0  0  0  0  0  0  0  0
    9.9515  -12.1333   -4.2317 H   0  0  0  0  0  0  0  0  0  0  0  0
    9.0561  -14.2684   -3.3393 H   0  0  0  0  0  0  0  0  0  0  0  0
    7.0376  -14.2492   -1.8918 H   0  0  0  0  0  0  0  0  0  0  0  0
    6.3932   -9.1914   -4.5067 H   0  0  0  0  0  0  0  0  0  0  0  0
    5.3781   -6.9930   -4.1386 H   0  0  0  0  0  0  0  0  0  0  0  0
    4.4958   -0.8312    1.1718 H   0  0  0  0  0  0  0  0  0  0  0  0
  1  2  2  0  0  0  0
  2  3  1  0  0  0  0
  2  4  1  0  0  0  0
  3 30  1  0  0  0  0
  4  5  2  0  0  0  0
  4 29  1  0  0  0  0
  5  6  1  0  0  0  0
  5 31  1  0  0  0  0
  6  7  2  0  0  0  0
  6 32  1  0  0  0  0
  7  8  1  0  0  0  0
  7 24  1  0  0  0  0
  8  9  2  0  0  0  0
  8 10  1  0  0  0  0
 10 11  1  0  0  0  0
 10 33  1  0  0  0  0
 11 12  2  0  0  0  0
 11 23  1  0  0  0  0
 12 13  1  0  0  0  0
 12 34  1  0  0  0  0
 13 14  2  0  0  0  0
 13 35  1  0  0  0  0
 14 15  1  0  0  0  0
 14 22  1  0  0  0  0
 15 16  1  0  0  0  0
 15 20  1  0  0  0  0
 16 17  2  0  0  0  0
 16 36  1  0  0  0  0
 17 18  1  0  0  0  0
 17 37  1  0  0  0  0
 18 19  2  0  0  0  0
 18 38  1  0  0  0  0
 19 20  1  0  0  0  0
 19 39  1  0  0  0  0
 20 21  2  0  0  0  0
 22 23  2  0  0  0  0
 22 40  1  0  0  0  0
 23 41  1  0  0  0  0
 24 25  1  0  0  0  0
 24 29  2  0  0  0  0
 25 26  1  0  0  0  0
 25 27  1  0  0  0  0
 25 28  1  0  0  0  0
 29 42  1  0  0  0  0
M  END
$$$$
