
 OpenBabel01122422503D

 47 50  0  0  1  0  0  0  0  0999 V2000
    1.0441   -0.0043   -0.2390 O   0  0  0  0  0  0  0  0  0  0  0  0
    2.2279    0.2215   -0.0041 C   0  0  0  0  0  0  0  0  0  0  0  0
    2.8836    1.2966   -0.5530 N   0  0  0  0  0  0  0  0  0  0  0  0
    2.2075    2.2336   -1.4423 C   0  0  3  0  0  0  0  0  0  0  0  0
    2.7126    3.6515   -1.1148 C   0  0  0  0  0  0  0  0  0  0  0  0
    3.6827    3.8821   -0.3998 O   0  0  0  0  0  0  0  0  0  0  0  0
    1.9723    4.6452   -1.6628 O   0  0  0  0  0  0  0  0  0  0  0  0
    2.3575    1.8028   -2.8883 C   0  0  0  0  0  0  0  0  0  0  0  0
    1.4509    0.8717   -3.4355 C   0  0  0  0  0  0  0  0  0  0  0  0
    1.6016    0.4064   -4.7437 C   0  0  0  0  0  0  0  0  0  0  0  0
    2.6600    0.8661   -5.5172 C   0  0  0  0  0  0  0  0  0  0  0  0
    2.8106    0.4094   -6.7673 F   0  0  0  0  0  0  0  0  0  0  0  0
    3.5680    1.7836   -5.0079 C   0  0  0  0  0  0  0  0  0  0  0  0
    3.4153    2.2363   -3.7012 C   0  0  0  0  0  0  0  0  0  0  0  0
    4.3166    3.1057   -3.2269 F   0  0  0  0  0  0  0  0  0  0  0  0
    3.0222   -0.7357    0.8206 C   0  0  0  0  0  0  0  0  0  0  0  0
    2.4071   -1.9454    1.1640 C   0  0  0  0  0  0  0  0  0  0  0  0
    3.1676   -3.0184    1.6279 C   0  0  0  0  0  0  0  0  0  0  0  0
    4.5645   -2.9082    1.6826 C   0  0  0  0  0  0  0  0  0  0  0  0
    5.3914   -4.1072    1.5144 N   0  0  0  0  0  0  0  0  0  0  0  0
    6.6450   -3.8452    0.9938 C   0  0  0  0  0  0  0  0  0  0  0  0
    6.8965   -3.7970   -0.2773 N   0  0  0  0  0  0  0  0  0  0  0  0
    5.7886   -4.0534   -1.1142 C   0  0  0  0  0  0  0  0  0  0  0  0
    5.6805   -3.4579   -2.3673 C   0  0  0  0  0  0  0  0  0  0  0  0
    4.5297   -3.6582   -3.1398 C   0  0  0  0  0  0  0  0  0  0  0  0
    3.5076   -4.5024   -2.6886 C   0  0  0  0  0  0  0  0  0  0  0  0
    3.6053   -5.1137   -1.4401 C   0  0  0  0  0  0  0  0  0  0  0  0
    4.7273   -4.8451   -0.6582 C   0  0  0  0  0  0  0  0  0  0  0  0
    4.7507   -5.1193    0.7982 C   0  0  0  0  0  0  0  0  0  0  0  0
    4.2012   -6.1011    1.2822 O   0  0  0  0  0  0  0  0  0  0  0  0
    5.1340   -1.6266    1.5974 C   0  0  0  0  0  0  0  0  0  0  0  0
    4.3688   -0.5472    1.1441 C   0  0  0  0  0  0  0  0  0  0  0  0
    3.8348    1.5385   -0.3069 H   0  0  0  0  0  0  0  0  0  0  0  0
    1.1406    2.2377   -1.1809 H   0  0  0  0  0  0  0  0  0  0  0  0
    1.2206    4.3367   -2.2040 H   0  0  0  0  0  0  0  0  0  0  0  0
    0.6363    0.4813   -2.8310 H   0  0  0  0  0  0  0  0  0  0  0  0
    0.9087   -0.3212   -5.1578 H   0  0  0  0  0  0  0  0  0  0  0  0
    4.3920    2.1330   -5.6203 H   0  0  0  0  0  0  0  0  0  0  0  0
    1.3463   -2.0997    0.9709 H   0  0  0  0  0  0  0  0  0  0  0  0
    2.6669   -3.9726    1.7861 H   0  0  0  0  0  0  0  0  0  0  0  0
    7.4107   -3.6153    1.7534 H   0  0  0  0  0  0  0  0  0  0  0  0
    6.4648   -2.7927   -2.7186 H   0  0  0  0  0  0  0  0  0  0  0  0
    4.4213   -3.1394   -4.0902 H   0  0  0  0  0  0  0  0  0  0  0  0
    2.6158   -4.6457   -3.2949 H   0  0  0  0  0  0  0  0  0  0  0  0
    2.7914   -5.7198   -1.0519 H   0  0  0  0  0  0  0  0  0  0  0  0
    6.2019   -1.4672    1.7305 H   0  0  0  0  0  0  0  0  0  0  0  0
    4.8795    0.3951    0.9718 H   0  0  0  0  0  0  0  0  0  0  0  0
  1  2  2  0  0  0  0
  2  3  1  0  0  0  0
  2 16  1  0  0  0  0
  3  4  1  0  0  0  0
  3 33  1  0  0  0  0
  4  5  1  0  0  0  0
  4  8  1  0  0  0  0
  4 34  1  0  0  0  0
  5  6  2  0  0  0  0
  5  7  1  0  0  0  0
  7 35  1  0  0  0  0
  8  9  2  0  0  0  0
  8 14  1  0  0  0  0
  9 10  1  0  0  0  0
  9 36  1  0  0  0  0
 10 11  2  0  0  0  0
 10 37  1  0  0  0  0
 11 12  1  0  0  0  0
 11 13  1  0  0  0  0
 13 14  2  0  0  0  0
 13 38  1  0  0  0  0
 14 15  1  0  0  0  0
 16 17  2  0  0  0  0
 16 32  1  0  0  0  0
 17 18  1  0  0  0  0
 17 39  1  0  0  0  0
 18 19  2  0  0  0  0
 18 40  1  0  0  0  0
 19 20  1  0  0  0  0
 19 31  1  0  0  0  0
 20 21  1  0  0  0  0
 20 29  1  0  0  0  0
 21 22  2  0  0  0  0
 21 41  1  0  0  0  0
 22 23  1  0  0  0  0
 23 24  2  0  0  0  0
 23 28  1  0  0  0  0
 24 25  1  0  0  0  0
 24 42  1  0  0  0  0
 25 26  2  0  0  0  0
 25 43  1  0  0  0  0
 26 27  1  0  0  0  0
 26 44  1  0  0  0  0
 27 28  2  0  0  0  0
 27 45  1  0  0  0  0
 28 29  1  0  0  0  0
 29 30  2  0  0  0  0
 31 32  2  0  0  0  0
 31 46  1  0  0  0  0
 32 47  1  0  0  0  0
M  END
$$$$
