
 OpenBabel01122422503D

 51 53  0  0  1  0  0  0  0  0999 V2000
    1.8975   -2.4997   -2.6474 C   0  0  0  0  0  0  0  0  0  0  0  0
    2.4031   -1.2756   -2.1142 O   0  0  0  0  0  0  0  0  0  0  0  0
    2.1384   -1.0896   -0.7860 C   0  0  0  0  0  0  0  0  0  0  0  0
    1.4926   -1.8752   -0.0984 O   0  0  0  0  0  0  0  0  0  0  0  0
    2.7218    0.2412   -0.2523 C   0  0  3  0  0  0  0  0  0  0  0  0
    3.4588    1.0371   -1.2374 N   0  0  0  0  0  0  0  0  0  0  0  0
    4.7896    0.8455   -1.5162 C   0  0  0  0  0  0  0  0  0  0  0  0
    5.5035    0.0634   -0.9112 O   0  0  0  0  0  0  0  0  0  0  0  0
    5.3287    1.6850   -2.6244 C   0  0  0  0  0  0  0  0  0  0  0  0
    6.6674    2.0943   -2.5895 C   0  0  0  0  0  0  0  0  0  0  0  0
    7.1786    2.9169   -3.6042 C   0  0  0  0  0  0  0  0  0  0  0  0
    6.3573    3.3195   -4.6655 C   0  0  0  0  0  0  0  0  0  0  0  0
    6.8974    4.2221   -5.7218 C   0  0  0  0  0  0  0  0  0  0  0  0
    8.0986    4.2056   -5.9726 O   0  0  0  0  0  0  0  0  0  0  0  0
    5.9960    5.1289   -6.4926 C   0  0  0  0  0  0  0  0  0  0  0  0
    4.8578    5.6947   -5.9021 C   0  0  0  0  0  0  0  0  0  0  0  0
    3.9873    6.4726   -6.6621 C   0  0  0  0  0  0  0  0  0  0  0  0
    4.2830    6.7456   -7.9967 C   0  0  0  0  0  0  0  0  0  0  0  0
    5.4566    6.2501   -8.5705 C   0  0  0  0  0  0  0  0  0  0  0  0
    5.8471    6.4859   -9.8603 O   0  0  0  0  0  0  0  0  0  0  0  0
    5.4412    7.7433  -10.3942 C   0  0  0  0  0  0  0  0  0  0  0  0
    6.2988    5.4202   -7.8260 C   0  0  0  0  0  0  0  0  0  0  0  0
    5.0401    2.8449   -4.7299 C   0  0  0  0  0  0  0  0  0  0  0  0
    4.5207    2.0532   -3.7074 C   0  0  0  0  0  0  0  0  0  0  0  0
    1.6312    1.1248    0.3306 C   0  0  0  0  0  0  0  0  0  0  0  0
    1.6360    1.4892    1.6848 C   0  0  0  0  0  0  0  0  0  0  0  0
    0.7153    2.4275    2.1598 C   0  0  0  0  0  0  0  0  0  0  0  0
   -0.2084    2.9965    1.2867 C   0  0  0  0  0  0  0  0  0  0  0  0
   -1.0449    3.9410    1.7349 F   0  0  0  0  0  0  0  0  0  0  0  0
   -0.2604    2.6185   -0.0455 C   0  0  0  0  0  0  0  0  0  0  0  0
    0.6481    1.6759   -0.5068 C   0  0  0  0  0  0  0  0  0  0  0  0
    0.6295    1.3504   -1.8079 F   0  0  0  0  0  0  0  0  0  0  0  0
    2.1888   -2.5555   -3.7000 H   0  0  0  0  0  0  0  0  0  0  0  0
    0.8048   -2.5216   -2.5899 H   0  0  0  0  0  0  0  0  0  0  0  0
    2.3309   -3.3575   -2.1237 H   0  0  0  0  0  0  0  0  0  0  0  0
    3.4364   -0.0467    0.5294 H   0  0  0  0  0  0  0  0  0  0  0  0
    2.9244    1.7131   -1.7630 H   0  0  0  0  0  0  0  0  0  0  0  0
    7.3111    1.7865   -1.7662 H   0  0  0  0  0  0  0  0  0  0  0  0
    8.2169    3.2444   -3.5593 H   0  0  0  0  0  0  0  0  0  0  0  0
    4.6244    5.5274   -4.8541 H   0  0  0  0  0  0  0  0  0  0  0  0
    3.0789    6.8662   -6.2129 H   0  0  0  0  0  0  0  0  0  0  0  0
    3.5810    7.3441   -8.5687 H   0  0  0  0  0  0  0  0  0  0  0  0
    6.0117    7.9174  -11.3113 H   0  0  0  0  0  0  0  0  0  0  0  0
    5.6623    8.5649   -9.7028 H   0  0  0  0  0  0  0  0  0  0  0  0
    4.3795    7.7307  -10.6595 H   0  0  0  0  0  0  0  0  0  0  0  0
    7.1936    5.0075   -8.2881 H   0  0  0  0  0  0  0  0  0  0  0  0
    4.3967    3.0838   -5.5722 H   0  0  0  0  0  0  0  0  0  0  0  0
    3.4921    1.7127   -3.7921 H   0  0  0  0  0  0  0  0  0  0  0  0
    2.3710    1.0711    2.3705 H   0  0  0  0  0  0  0  0  0  0  0  0
    0.7272    2.7381    3.2005 H   0  0  0  0  0  0  0  0  0  0  0  0
   -0.9764    3.0721   -0.7206 H   0  0  0  0  0  0  0  0  0  0  0  0
  1  2  1  0  0  0  0
  1 33  1  0  0  0  0
  1 34  1  0  0  0  0
  1 35  1  0  0  0  0
  2  3  1  0  0  0  0
  3  4  2  0  0  0  0
  3  5  1  0  0  0  0
  5  6  1  0  0  0  0
  5 25  1  0  0  0  0
  5 36  1  0  0  0  0
  6  7  1  0  0  0  0
  6 37  1  0  0  0  0
  7  8  2  0  0  0  0
  7  9  1  0  0  0  0
  9 10  2  0  0  0  0
  9 24  1  0  0  0  0
 10 11  1  0  0  0  0
 10 38  1  0  0  0  0
 11 12  2  0  0  0  0
 11 39  1  0  0  0  0
 12 13  1  0  0  0  0
 12 23  1  0  0  0  0
 13 14  2  0  0  0  0
 13 15  1  0  0  0  0
 15 16  2  0  0  0  0
 15 22  1  0  0  0  0
 16 17  1  0  0  0  0
 16 40  1  0  0  0  0
 17 18  2  0  0  0  0
 17 41  1  0  0  0  0
 18 19  1  0  0  0  0
 18 42  1  0  0  0  0
 19 20  1  0  0  0  0
 19 22  2  0  0  0  0
 20 21  1  0  0  0  0
 21 43  1  0  0  0  0
 21 44  1  0  0  0  0
 21 45  1  0  0  0  0
 22 46  1  0  0  0  0
 23 24  2  0  0  0  0
 23 47  1  0  0  0  0
 24 48  1  0  0  0  0
 25 26  2  0  0  0  0
 25 31  1  0  0  0  0
 26 27  1  0  0  0  0
 26 49  1  0  0  0  0
 27 28  2  0  0  0  0
 27 50  1  0  0  0  0
 28 29  1  0  0  0  0
 28 30  1  0  0  0  0
 30 31  2  0  0  0  0
 30 51  1  0  0  0  0
 31 32  1  0  0  0  0
M  END
$$$$
