
 OpenBabel01122422503D

 54 57  0  0  1  0  0  0  0  0999 V2000
    0.7807   -0.0951   -0.0929 C   0  0  0  0  0  0  0  0  0  0  0  0
    2.3122   -0.0999   -0.0482 C   0  0  3  0  0  0  0  0  0  0  0  0
    2.8489    0.0224   -1.4025 N   0  0  0  0  0  0  0  0  0  0  0  0
    2.7148    1.1377   -2.1856 C   0  0  0  0  0  0  0  0  0  0  0  0
    2.1108    2.1425   -1.8199 O   0  0  0  0  0  0  0  0  0  0  0  0
    3.3836    1.1407   -3.5101 C   0  0  0  0  0  0  0  0  0  0  0  0
    3.6850    2.3977   -4.0686 C   0  0  0  0  0  0  0  0  0  0  0  0
    4.3478    2.5118   -5.3023 C   0  0  0  0  0  0  0  0  0  0  0  0
    4.7206    1.3709   -6.0135 C   0  0  0  0  0  0  0  0  0  0  0  0
    4.4029    0.1344   -5.4809 C   0  0  0  0  0  0  0  0  0  0  0  0
    3.7489    0.0280   -4.2488 C   0  0  0  0  0  0  0  0  0  0  0  0
    3.5899   -1.4138   -4.0532 C   0  0  0  0  0  0  0  0  0  0  0  0
    3.1831   -1.9729   -3.0530 O   0  0  0  0  0  0  0  0  0  0  0  0
    4.0509   -2.0284   -5.2026 N   0  0  0  0  0  0  0  0  0  0  0  0
    4.7299   -1.1200   -6.0484 N   0  0  0  0  0  0  0  0  0  0  0  0
    2.9017    0.9620    0.9441 C   0  0  3  0  0  0  0  0  0  0  0  0
    2.3681    0.8403    2.3005 N   0  0  0  0  0  0  0  0  0  0  0  0
    2.5154   -0.2792    3.0834 C   0  0  0  0  0  0  0  0  0  0  0  0
    3.0359   -1.3194    2.6940 O   0  0  0  0  0  0  0  0  0  0  0  0
    2.0021   -0.2093    4.4771 C   0  0  0  0  0  0  0  0  0  0  0  0
    2.1929   -1.3257    5.3080 C   0  0  0  0  0  0  0  0  0  0  0  0
    1.7379   -1.3126    6.6293 C   0  0  0  0  0  0  0  0  0  0  0  0
    1.0849   -0.1832    7.1331 C   0  0  0  0  0  0  0  0  0  0  0  0
    0.6167   -0.1660    8.4875 C   0  0  0  0  0  0  0  0  0  0  0  0
    0.2487   -0.1444    9.5850 N   0  0  0  0  0  0  0  0  0  0  0  0
    0.8869    0.9292    6.3104 C   0  0  0  0  0  0  0  0  0  0  0  0
    1.3456    0.9076    4.9946 C   0  0  0  0  0  0  0  0  0  0  0  0
    1.1323    1.9998    4.2429 F   0  0  0  0  0  0  0  0  0  0  0  0
    4.4302    1.0414    1.0038 C   0  0  0  0  0  0  0  0  0  0  0  0
    5.0583    2.2681    1.2820 C   0  0  0  0  0  0  0  0  0  0  0  0
    6.4503    2.3532    1.3875 C   0  0  0  0  0  0  0  0  0  0  0  0
    7.2362    1.2150    1.2210 C   0  0  0  0  0  0  0  0  0  0  0  0
    6.6316   -0.0089    0.9541 C   0  0  0  0  0  0  0  0  0  0  0  0
    5.2422   -0.0945    0.8522 C   0  0  0  0  0  0  0  0  0  0  0  0
    0.4220   -0.8182   -0.8353 H   0  0  0  0  0  0  0  0  0  0  0  0
    0.3825    0.8851   -0.3722 H   0  0  0  0  0  0  0  0  0  0  0  0
    0.3517   -0.3733    0.8739 H   0  0  0  0  0  0  0  0  0  0  0  0
    2.6064   -1.1050    0.2724 H   0  0  0  0  0  0  0  0  0  0  0  0
    3.2461   -0.8306   -1.7889 H   0  0  0  0  0  0  0  0  0  0  0  0
    3.4160    3.3077   -3.5312 H   0  0  0  0  0  0  0  0  0  0  0  0
    4.5798    3.4996   -5.6954 H   0  0  0  0  0  0  0  0  0  0  0  0
    5.2525    1.4581   -6.9546 H   0  0  0  0  0  0  0  0  0  0  0  0
    4.3479   -2.9987   -5.1693 H   0  0  0  0  0  0  0  0  0  0  0  0
    4.4211   -1.1663   -7.0221 H   0  0  0  0  0  0  0  0  0  0  0  0
    2.5521    1.9462    0.6060 H   0  0  0  0  0  0  0  0  0  0  0  0
    1.9191    1.6638    2.6818 H   0  0  0  0  0  0  0  0  0  0  0  0
    2.7031   -2.2099    4.9269 H   0  0  0  0  0  0  0  0  0  0  0  0
    1.8997   -2.1886    7.2569 H   0  0  0  0  0  0  0  0  0  0  0  0
    0.3807    1.8182    6.6782 H   0  0  0  0  0  0  0  0  0  0  0  0
    4.4638    3.1676    1.4259 H   0  0  0  0  0  0  0  0  0  0  0  0
    6.9218    3.3073    1.6075 H   0  0  0  0  0  0  0  0  0  0  0  0
    8.3171    1.2776    1.3095 H   0  0  0  0  0  0  0  0  0  0  0  0
    7.2346   -0.9054    0.8392 H   0  0  0  0  0  0  0  0  0  0  0  0
    4.7994   -1.0722    0.6782 H   0  0  0  0  0  0  0  0  0  0  0  0
  1  2  1  0  0  0  0
  1 35  1  0  0  0  0
  1 36  1  0  0  0  0
  1 37  1  0  0  0  0
  2  3  1  0  0  0  0
  2 16  1  0  0  0  0
  2 38  1  0  0  0  0
  3  4  1  0  0  0  0
  3 39  1  0  0  0  0
  4  5  2  0  0  0  0
  4  6  1  0  0  0  0
  6  7  2  0  0  0  0
  6 11  1  0  0  0  0
  7  8  1  0  0  0  0
  7 40  1  0  0  0  0
  8  9  2  0  0  0  0
  8 41  1  0  0  0  0
  9 10  1  0  0  0  0
  9 42  1  0  0  0  0
 10 11  2  0  0  0  0
 10 15  1  0  0  0  0
 11 12  1  0  0  0  0
 12 13  2  0  0  0  0
 12 14  1  0  0  0  0
 14 15  1  0  0  0  0
 14 43  1  0  0  0  0
 15 44  1  0  0  0  0
 16 17  1  0  0  0  0
 16 29  1  0  0  0  0
 16 45  1  0  0  0  0
 17 18  1  0  0  0  0
 17 46  1  0  0  0  0
 18 19  2  0  0  0  0
 18 20  1  0  0  0  0
 20 21  2  0  0  0  0
 20 27  1  0  0  0  0
 21 22  1  0  0  0  0
 21 47  1  0  0  0  0
 22 23  2  0  0  0  0
 22 48  1  0  0  0  0
 23 24  1  0  0  0  0
 23 26  1  0  0  0  0
 24 25  3  0  0  0  0
 26 27  2  0  0  0  0
 26 49  1  0  0  0  0
 27 28  1  0  0  0  0
 29 30  2  0  0  0  0
 29 34  1  0  0  0  0
 30 31  1  0  0  0  0
 30 50  1  0  0  0  0
 31 32  2  0  0  0  0
 31 51  1  0  0  0  0
 32 33  1  0  0  0  0
 32 52  1  0  0  0  0
 33 34  2  0  0  0  0
 33 53  1  0  0  0  0
 34 54  1  0  0  0  0
M  END
$$$$
