
 OpenBabel01122422503D

 50 53  0  0  0  0  0  0  0  0999 V2000
    3.0465    1.7886   -0.6595 N   0  0  0  0  0  0  0  0  0  0  0  0
    2.9590    0.4638   -0.0503 C   0  0  0  0  0  0  0  0  0  0  0  0
    3.3043   -0.6124   -1.0463 C   0  0  0  0  0  0  0  0  0  0  0  0
    4.5239   -0.5860   -1.7268 C   0  0  0  0  0  0  0  0  0  0  0  0
    4.7710   -1.4756   -2.7764 C   0  0  0  0  0  0  0  0  0  0  0  0
    3.8296   -2.4502   -3.1558 C   0  0  0  0  0  0  0  0  0  0  0  0
    4.0181   -3.2566   -4.3937 C   0  0  0  0  0  0  0  0  0  0  0  0
    5.3240   -3.6603   -4.7658 C   0  0  0  0  0  0  0  0  0  0  0  0
    5.5818   -4.4261   -5.9095 C   0  0  0  0  0  0  0  0  0  0  0  0
    4.5350   -4.8482   -6.7125 C   0  0  0  0  0  0  0  0  0  0  0  0
    3.2395   -4.4706   -6.3865 C   0  0  0  0  0  0  0  0  0  0  0  0
    2.9723   -3.6587   -5.2612 C   0  0  0  0  0  0  0  0  0  0  0  0
    1.5254   -3.3515   -5.0900 C   0  0  0  0  0  0  0  0  0  0  0  0
    0.7406   -4.2877   -5.2342 O   0  0  0  0  0  0  0  0  0  0  0  0
    1.1637   -2.0423   -4.8214 N   0  0  0  0  0  0  0  0  0  0  0  0
   -0.1259   -1.5720   -4.6154 C   0  0  0  0  0  0  0  0  0  0  0  0
   -1.2529   -2.2704   -4.8215 C   0  0  0  0  0  0  0  0  0  0  0  0
   -2.5782   -1.7297   -4.5751 C   0  0  0  0  0  0  0  0  0  0  0  0
   -3.7877   -2.5302   -4.8218 C   0  0  0  0  0  0  0  0  0  0  0  0
   -4.3986   -2.5089   -6.0753 C   0  0  0  0  0  0  0  0  0  0  0  0
   -5.4869   -3.3378   -6.2856 C   0  0  0  0  0  0  0  0  0  0  0  0
   -5.9920   -4.1667   -5.3470 N   0  0  0  0  0  0  0  0  0  0  0  0
   -5.3721   -4.1787   -4.1473 C   0  0  0  0  0  0  0  0  0  0  0  0
   -4.2783   -3.3884   -3.8381 C   0  0  0  0  0  0  0  0  0  0  0  0
   -2.6865   -0.4740   -4.1163 C   0  0  0  0  0  0  0  0  0  0  0  0
   -1.5640    0.2846   -3.8884 N   0  0  0  0  0  0  0  0  0  0  0  0
   -0.2757   -0.1573   -4.1027 C   0  0  0  0  0  0  0  0  0  0  0  0
    0.7020    0.5533   -3.8769 O   0  0  0  0  0  0  0  0  0  0  0  0
    2.6917   -2.5734   -2.3398 C   0  0  0  0  0  0  0  0  0  0  0  0
    2.4060   -1.6411   -1.3351 C   0  0  0  0  0  0  0  0  0  0  0  0
    2.6586    2.4801   -0.0233 H   0  0  0  0  0  0  0  0  0  0  0  0
    2.4560    1.7992   -1.4942 H   0  0  0  0  0  0  0  0  0  0  0  0
    1.9402    0.3194    0.3270 H   0  0  0  0  0  0  0  0  0  0  0  0
    3.6391    0.4006    0.8053 H   0  0  0  0  0  0  0  0  0  0  0  0
    5.2624    0.1764   -1.4854 H   0  0  0  0  0  0  0  0  0  0  0  0
    5.7036   -1.3524   -3.3222 H   0  0  0  0  0  0  0  0  0  0  0  0
    6.1802   -3.3911   -4.1498 H   0  0  0  0  0  0  0  0  0  0  0  0
    6.6027   -4.7028   -6.1603 H   0  0  0  0  0  0  0  0  0  0  0  0
    4.7192   -5.4706   -7.5838 H   0  0  0  0  0  0  0  0  0  0  0  0
    2.4166   -4.8164   -7.0132 H   0  0  0  0  0  0  0  0  0  0  0  0
    1.8940   -1.3550   -4.6415 H   0  0  0  0  0  0  0  0  0  0  0  0
   -1.2380   -3.2871   -5.1972 H   0  0  0  0  0  0  0  0  0  0  0  0
   -4.0244   -1.8833   -6.8783 H   0  0  0  0  0  0  0  0  0  0  0  0
   -5.9906   -3.3660   -7.2476 H   0  0  0  0  0  0  0  0  0  0  0  0
   -5.7852   -4.8719   -3.4199 H   0  0  0  0  0  0  0  0  0  0  0  0
   -3.8101   -3.4610   -2.8623 H   0  0  0  0  0  0  0  0  0  0  0  0
   -3.6415    0.0030   -3.9089 H   0  0  0  0  0  0  0  0  0  0  0  0
   -1.6550    1.2334   -3.5415 H   0  0  0  0  0  0  0  0  0  0  0  0
    1.9606   -3.3604   -2.5167 H   0  0  0  0  0  0  0  0  0  0  0  0
    1.4538   -1.7062   -0.8135 H   0  0  0  0  0  0  0  0  0  0  0  0
  1  2  1  0  0  0  0
  1 31  1  0  0  0  0
  1 32  1  0  0  0  0
  2  3  1  0  0  0  0
  2 33  1  0  0  0  0
  2 34  1  0  0  0  0
  3  4  2  0  0  0  0
  3 30  1  0  0  0  0
  4  5  1  0  0  0  0
  4 35  1  0  0  0  0
  5  6  2  0  0  0  0
  5 36  1  0  0  0  0
  6  7  1  0  0  0  0
  6 29  1  0  0  0  0
  7  8  2  0  0  0  0
  7 12  1  0  0  0  0
  8  9  1  0  0  0  0
  8 37  1  0  0  0  0
  9 10  2  0  0  0  0
  9 38  1  0  0  0  0
 10 11  1  0  0  0  0
 10 39  1  0  0  0  0
 11 12  2  0  0  0  0
 11 40  1  0  0  0  0
 12 13  1  0  0  0  0
 13 14  2  0  0  0  0
 13 15  1  0  0  0  0
 15 16  1  0  0  0  0
 15 41  1  0  0  0  0
 16 17  2  0  0  0  0
 16 27  1  0  0  0  0
 17 18  1  0  0  0  0
 17 42  1  0  0  0  0
 18 19  1  0  0  0  0
 18 25  2  0  0  0  0
 19 20  2  0  0  0  0
 19 24  1  0  0  0  0
 20 21  1  0  0  0  0
 20 43  1  0  0  0  0
 21 22  2  0  0  0  0
 21 44  1  0  0  0  0
 22 23  1  0  0  0  0
 23 24  2  0  0  0  0
 23 45  1  0  0  0  0
 24 46  1  0  0  0  0
 25 26  1  0  0  0  0
 25 47  1  0  0  0  0
 26 27  1  0  0  0  0
 26 48  1  0  0  0  0
 27 28  2  0  0  0  0
 29 30  2  0  0  0  0
 29 49  1  0  0  0  0
 30 50  1  0  0  0  0
M  END
$$$$
