
 OpenBabel01122422503D

 53 56  0  0  0  0  0  0  0  0999 V2000
    1.0131   -0.4273    1.1730 C   0  0  0  0  0  0  0  0  0  0  0  0
    2.4615   -0.4364    1.1641 N   0  0  0  0  0  0  0  0  0  0  0  0
    3.1417    0.6707    1.6452 C   0  0  0  0  0  0  0  0  0  0  0  0
    2.6021    1.6843    2.0833 O   0  0  0  0  0  0  0  0  0  0  0  0
    4.5075    0.6075    1.6119 N   0  0  0  0  0  0  0  0  0  0  0  0
    5.2195   -0.4583    1.0702 C   0  0  0  0  0  0  0  0  0  0  0  0
    6.6084   -0.4117    1.0139 C   0  0  0  0  0  0  0  0  0  0  0  0
    7.3357   -1.4625    0.4210 C   0  0  0  0  0  0  0  0  0  0  0  0
    8.8218   -1.3432    0.4421 C   0  0  0  0  0  0  0  0  0  0  0  0
    9.2922   -0.3869    1.0591 O   0  0  0  0  0  0  0  0  0  0  0  0
    9.5653   -2.2804   -0.2587 N   0  0  0  0  0  0  0  0  0  0  0  0
   10.9784   -2.3375   -0.2499 C   0  0  0  0  0  0  0  0  0  0  0  0
   11.7476   -1.7377    0.7526 C   0  0  0  0  0  0  0  0  0  0  0  0
   13.1382   -1.7297    0.6800 C   0  0  0  0  0  0  0  0  0  0  0  0
   13.7747   -2.3170   -0.4042 C   0  0  0  0  0  0  0  0  0  0  0  0
   13.0236   -2.9407   -1.4104 C   0  0  0  0  0  0  0  0  0  0  0  0
   13.7324   -3.4444   -2.6391 C   0  0  0  0  0  0  0  0  0  0  0  0
   14.3482   -4.7073   -2.3860 O   0  0  0  0  0  0  0  0  0  0  0  0
   14.9772   -5.2300   -3.4873 C   0  0  0  0  0  0  0  0  0  0  0  0
   15.6098   -4.4610   -4.4662 C   0  0  0  0  0  0  0  0  0  0  0  0
   16.1495   -5.0660   -5.5975 C   0  0  0  0  0  0  0  0  0  0  0  0
   16.0797   -6.4528   -5.7567 C   0  0  0  0  0  0  0  0  0  0  0  0
   16.6164   -7.0804   -7.0123 C   0  0  0  0  0  0  0  0  0  0  0  0
   18.1067   -7.3608   -6.9091 C   0  0  0  0  0  0  0  0  0  0  0  0
   19.3431   -7.5934   -6.8234 N   0  0  0  0  0  0  0  0  0  0  0  0
   15.5324   -7.2319   -4.7273 C   0  0  0  0  0  0  0  0  0  0  0  0
   14.9823   -6.6196   -3.5976 C   0  0  0  0  0  0  0  0  0  0  0  0
   11.6239   -2.9914   -1.3010 C   0  0  0  0  0  0  0  0  0  0  0  0
    6.6457   -2.5613   -0.1080 C   0  0  0  0  0  0  0  0  0  0  0  0
    5.2496   -2.6129   -0.0234 C   0  0  0  0  0  0  0  0  0  0  0  0
    4.5440   -1.5596    0.5683 C   0  0  0  0  0  0  0  0  0  0  0  0
    3.0741   -1.5819    0.6610 C   0  0  0  0  0  0  0  0  0  0  0  0
    2.4669   -2.5839    0.2909 O   0  0  0  0  0  0  0  0  0  0  0  0
    0.6020    0.5134    1.5460 H   0  0  0  0  0  0  0  0  0  0  0  0
    0.6569   -1.2515    1.7991 H   0  0  0  0  0  0  0  0  0  0  0  0
    0.6565   -0.5928    0.1510 H   0  0  0  0  0  0  0  0  0  0  0  0
    4.9886    1.4261    1.9653 H   0  0  0  0  0  0  0  0  0  0  0  0
    7.1380    0.4438    1.4319 H   0  0  0  0  0  0  0  0  0  0  0  0
    9.1024   -2.8502   -0.9495 H   0  0  0  0  0  0  0  0  0  0  0  0
   11.2881   -1.2626    1.6124 H   0  0  0  0  0  0  0  0  0  0  0  0
   13.7156   -1.2372    1.4577 H   0  0  0  0  0  0  0  0  0  0  0  0
   14.8582   -2.2641   -0.4781 H   0  0  0  0  0  0  0  0  0  0  0  0
   14.4811   -2.6851   -2.8935 H   0  0  0  0  0  0  0  0  0  0  0  0
   13.0255   -3.5240   -3.4755 H   0  0  0  0  0  0  0  0  0  0  0  0
   15.7071   -3.3848   -4.3797 H   0  0  0  0  0  0  0  0  0  0  0  0
   16.6216   -4.4416   -6.3535 H   0  0  0  0  0  0  0  0  0  0  0  0
   16.4313   -6.4234   -7.8707 H   0  0  0  0  0  0  0  0  0  0  0  0
   16.0886   -8.0187   -7.2209 H   0  0  0  0  0  0  0  0  0  0  0  0
   15.5184   -8.3179   -4.7987 H   0  0  0  0  0  0  0  0  0  0  0  0
   14.5380   -7.2283   -2.8136 H   0  0  0  0  0  0  0  0  0  0  0  0
   11.0499   -3.4905   -2.0798 H   0  0  0  0  0  0  0  0  0  0  0  0
    7.1569   -3.3987   -0.5703 H   0  0  0  0  0  0  0  0  0  0  0  0
    4.7129   -3.4735   -0.4190 H   0  0  0  0  0  0  0  0  0  0  0  0
  1  2  1  0  0  0  0
  1 34  1  0  0  0  0
  1 35  1  0  0  0  0
  1 36  1  0  0  0  0
  2  3  1  0  0  0  0
  2 32  1  0  0  0  0
  3  4  2  0  0  0  0
  3  5  1  0  0  0  0
  5  6  1  0  0  0  0
  5 37  1  0  0  0  0
  6  7  2  0  0  0  0
  6 31  1  0  0  0  0
  7  8  1  0  0  0  0
  7 38  1  0  0  0  0
  8  9  1  0  0  0  0
  8 29  2  0  0  0  0
  9 10  2  0  0  0  0
  9 11  1  0  0  0  0
 11 12  1  0  0  0  0
 11 39  1  0  0  0  0
 12 13  2  0  0  0  0
 12 28  1  0  0  0  0
 13 14  1  0  0  0  0
 13 40  1  0  0  0  0
 14 15  2  0  0  0  0
 14 41  1  0  0  0  0
 15 16  1  0  0  0  0
 15 42  1  0  0  0  0
 16 17  1  0  0  0  0
 16 28  2  0  0  0  0
 17 18  1  0  0  0  0
 17 43  1  0  0  0  0
 17 44  1  0  0  0  0
 18 19  1  0  0  0  0
 19 20  2  0  0  0  0
 19 27  1  0  0  0  0
 20 21  1  0  0  0  0
 20 45  1  0  0  0  0
 21 22  2  0  0  0  0
 21 46  1  0  0  0  0
 22 23  1  0  0  0  0
 22 26  1  0  0  0  0
 23 24  1  0  0  0  0
 23 47  1  0  0  0  0
 23 48  1  0  0  0  0
 24 25  3  0  0  0  0
 26 27  2  0  0  0  0
 26 49  1  0  0  0  0
 27 50  1  0  0  0  0
 28 51  1  0  0  0  0
 29 30  1  0  0  0  0
 29 52  1  0  0  0  0
 30 31  2  0  0  0  0
 30 53  1  0  0  0  0
 31 32  1  0  0  0  0
 32 33  2  0  0  0  0
M  END
$$$$
