
 OpenBabel01122422503D

 44 47  0  0  0  0  0  0  0  0999 V2000
    2.9782    2.0710    1.2580 O   0  0  0  0  0  0  0  0  0  0  0  0
    3.3157    1.0439    0.6686 C   0  0  0  0  0  0  0  0  0  0  0  0
    3.0390   -0.2011    1.1843 N   0  0  0  0  0  0  0  0  0  0  0  0
    2.3833   -0.3580    2.4685 C   0  0  0  0  0  0  0  0  0  0  0  0
    3.3536   -0.3464    3.6325 C   0  0  0  0  0  0  0  0  0  0  0  0
    3.6942    0.8566    4.2458 C   0  0  0  0  0  0  0  0  0  0  0  0
    4.6216    0.8440    5.2861 C   0  0  0  0  0  0  0  0  0  0  0  0
    5.0368    1.9684    5.9642 O   0  0  0  0  0  0  0  0  0  0  0  0
    5.1934    3.1566    5.2858 C   0  0  0  0  0  0  0  0  0  0  0  0
    5.6242    3.2516    3.9556 C   0  0  0  0  0  0  0  0  0  0  0  0
    5.7466    4.5007    3.3435 C   0  0  0  0  0  0  0  0  0  0  0  0
    5.4891    5.6516    4.0794 C   0  0  0  0  0  0  0  0  0  0  0  0
    5.6178    6.8488    3.4924 F   0  0  0  0  0  0  0  0  0  0  0  0
    5.1120    5.5613    5.4144 C   0  0  0  0  0  0  0  0  0  0  0  0
    4.8869    6.6749    6.1263 F   0  0  0  0  0  0  0  0  0  0  0  0
    4.9628    4.3204    6.0261 C   0  0  0  0  0  0  0  0  0  0  0  0
    5.1246   -0.3698    5.7359 C   0  0  0  0  0  0  0  0  0  0  0  0
    4.7271   -1.5205    5.0807 C   0  0  0  0  0  0  0  0  0  0  0  0
    3.8739   -1.5354    4.0311 N   0  0  0  0  0  0  0  0  0  0  0  0
    4.0342    1.0764   -0.5796 C   0  0  0  0  0  0  0  0  0  0  0  0
    4.5122    2.1392   -1.3057 C   0  0  0  0  0  0  0  0  0  0  0  0
    5.1939    1.5665   -2.4081 C   0  0  0  0  0  0  0  0  0  0  0  0
    5.9626    2.2885   -3.4252 C   0  0  0  0  0  0  0  0  0  0  0  0
    6.5644    1.6325   -4.4949 C   0  0  0  0  0  0  0  0  0  0  0  0
    7.3494    2.3716   -5.3786 C   0  0  0  0  0  0  0  0  0  0  0  0
    7.5065    3.7376   -5.1751 C   0  0  0  0  0  0  0  0  0  0  0  0
    6.8591    4.3164   -4.0978 C   0  0  0  0  0  0  0  0  0  0  0  0
    6.0939    3.6277   -3.2232 N   0  0  0  0  0  0  0  0  0  0  0  0
    5.0781    0.2253   -2.3740 N   0  0  0  0  0  0  0  0  0  0  0  0
    4.3602   -0.0745   -1.2277 O   0  0  0  0  0  0  0  0  0  0  0  0
    3.4199   -1.0241    0.7344 H   0  0  0  0  0  0  0  0  0  0  0  0
    1.8482   -1.3125    2.4501 H   0  0  0  0  0  0  0  0  0  0  0  0
    1.6361    0.4333    2.6014 H   0  0  0  0  0  0  0  0  0  0  0  0
    3.2471    1.7838    3.9014 H   0  0  0  0  0  0  0  0  0  0  0  0
    5.8538    2.3612    3.3760 H   0  0  0  0  0  0  0  0  0  0  0  0
    6.0399    4.5785    2.3010 H   0  0  0  0  0  0  0  0  0  0  0  0
    4.6672    4.2687    7.0688 H   0  0  0  0  0  0  0  0  0  0  0  0
    5.8105   -0.4172    6.5749 H   0  0  0  0  0  0  0  0  0  0  0  0
    5.0940   -2.4945    5.3924 H   0  0  0  0  0  0  0  0  0  0  0  0
    4.4204    3.1868   -1.0544 H   0  0  0  0  0  0  0  0  0  0  0  0
    6.4435    0.5633   -4.6368 H   0  0  0  0  0  0  0  0  0  0  0  0
    7.8428    1.8810   -6.2130 H   0  0  0  0  0  0  0  0  0  0  0  0
    8.1215    4.3364   -5.8381 H   0  0  0  0  0  0  0  0  0  0  0  0
    6.9476    5.3810   -3.8981 H   0  0  0  0  0  0  0  0  0  0  0  0
  1  2  2  0  0  0  0
  2  3  1  0  0  0  0
  2 20  1  0  0  0  0
  3  4  1  0  0  0  0
  3 31  1  0  0  0  0
  4  5  1  0  0  0  0
  4 32  1  0  0  0  0
  4 33  1  0  0  0  0
  5  6  2  0  0  0  0
  5 19  1  0  0  0  0
  6  7  1  0  0  0  0
  6 34  1  0  0  0  0
  7  8  1  0  0  0  0
  7 17  2  0  0  0  0
  8  9  1  0  0  0  0
  9 10  2  0  0  0  0
  9 16  1  0  0  0  0
 10 11  1  0  0  0  0
 10 35  1  0  0  0  0
 11 12  2  0  0  0  0
 11 36  1  0  0  0  0
 12 13  1  0  0  0  0
 12 14  1  0  0  0  0
 14 15  1  0  0  0  0
 14 16  2  0  0  0  0
 16 37  1  0  0  0  0
 17 18  1  0  0  0  0
 17 38  1  0  0  0  0
 18 19  2  0  0  0  0
 18 39  1  0  0  0  0
 20 21  2  0  0  0  0
 20 30  1  0  0  0  0
 21 22  1  0  0  0  0
 21 40  1  0  0  0  0
 22 23  1  0  0  0  0
 22 29  2  0  0  0  0
 23 24  2  0  0  0  0
 23 28  1  0  0  0  0
 24 25  1  0  0  0  0
 24 41  1  0  0  0  0
 25 26  2  0  0  0  0
 25 42  1  0  0  0  0
 26 27  1  0  0  0  0
 26 43  1  0  0  0  0
 27 28  2  0  0  0  0
 27 44  1  0  0  0  0
 29 30  1  0  0  0  0
M  END
$$$$
