
 OpenBabel01122422503D

 46 49  0  0  0  0  0  0  0  0999 V2000
    1.8760   -5.2828   -0.7100 O   0  0  0  0  0  0  0  0  0  0  0  0
    2.9272   -4.8724   -0.2443 C   0  0  0  0  0  0  0  0  0  0  0  0
    4.1531   -5.6972   -0.2447 C   0  0  0  0  0  0  0  0  0  0  0  0
    5.1222   -4.8624    0.1271 C   0  0  0  0  0  0  0  0  0  0  0  0
    4.6668   -3.6164    0.4871 N   0  0  0  0  0  0  0  0  0  0  0  0
    5.4231   -2.4173    0.4576 C   0  0  0  0  0  0  0  0  0  0  0  0
    6.5441   -2.2739   -0.3717 C   0  0  0  0  0  0  0  0  0  0  0  0
    7.2613   -1.0852   -0.3484 C   0  0  0  0  0  0  0  0  0  0  0  0
    6.9443   -0.0339    0.4323 N   0  0  0  0  0  0  0  0  0  0  0  0
    5.8860   -0.1920    1.2492 C   0  0  0  0  0  0  0  0  0  0  0  0
    5.1281   -1.3513    1.3123 C   0  0  0  0  0  0  0  0  0  0  0  0
    3.2484   -3.6246    0.3052 N   0  0  0  0  0  0  0  0  0  0  0  0
    2.4781   -2.4114    0.0629 C   0  0  0  0  0  0  0  0  0  0  0  0
    0.9758   -2.5642    0.0009 C   0  0  0  0  0  0  0  0  0  0  0  0
    0.2638   -2.0593   -1.0950 C   0  0  0  0  0  0  0  0  0  0  0  0
   -1.1252   -2.1760   -1.1632 C   0  0  0  0  0  0  0  0  0  0  0  0
   -1.6972   -1.6839   -2.3049 O   0  0  0  0  0  0  0  0  0  0  0  0
   -2.9889   -2.2117   -2.6163 C   0  0  0  0  0  0  0  0  0  0  0  0
   -3.2573   -2.0046   -4.0816 C   0  0  0  0  0  0  0  0  0  0  0  0
   -2.3726   -2.5115   -5.0466 C   0  0  0  0  0  0  0  0  0  0  0  0
   -2.6508   -2.3572   -6.4059 C   0  0  0  0  0  0  0  0  0  0  0  0
   -3.8119   -1.6998   -6.7935 C   0  0  0  0  0  0  0  0  0  0  0  0
   -4.0791   -1.5578   -8.0985 F   0  0  0  0  0  0  0  0  0  0  0  0
   -4.7012   -1.1935   -5.8570 C   0  0  0  0  0  0  0  0  0  0  0  0
   -4.4182   -1.3538   -4.5064 C   0  0  0  0  0  0  0  0  0  0  0  0
   -5.2914   -0.8811   -3.6066 F   0  0  0  0  0  0  0  0  0  0  0  0
   -1.8197   -2.7586   -0.1026 C   0  0  0  0  0  0  0  0  0  0  0  0
   -1.1240   -3.2637    0.9957 C   0  0  0  0  0  0  0  0  0  0  0  0
    0.2657   -3.1666    1.0499 C   0  0  0  0  0  0  0  0  0  0  0  0
    4.1996   -6.7186   -0.5707 H   0  0  0  0  0  0  0  0  0  0  0  0
    6.1786   -5.0910    0.1834 H   0  0  0  0  0  0  0  0  0  0  0  0
    6.8626   -3.0629   -1.0439 H   0  0  0  0  0  0  0  0  0  0  0  0
    8.1364   -0.9452   -0.9774 H   0  0  0  0  0  0  0  0  0  0  0  0
    5.6563    0.6604    1.8829 H   0  0  0  0  0  0  0  0  0  0  0  0
    4.3353   -1.4206    2.0474 H   0  0  0  0  0  0  0  0  0  0  0  0
    2.8565   -1.9461   -0.8549 H   0  0  0  0  0  0  0  0  0  0  0  0
    2.6424   -1.7232    0.8904 H   0  0  0  0  0  0  0  0  0  0  0  0
    0.7907   -1.5860   -1.9223 H   0  0  0  0  0  0  0  0  0  0  0  0
   -3.7376   -1.6988   -2.0026 H   0  0  0  0  0  0  0  0  0  0  0  0
   -3.0400   -3.2918   -2.4249 H   0  0  0  0  0  0  0  0  0  0  0  0
   -1.4653   -3.0285   -4.7387 H   0  0  0  0  0  0  0  0  0  0  0  0
   -1.9738   -2.7481   -7.1581 H   0  0  0  0  0  0  0  0  0  0  0  0
   -5.6052   -0.6892   -6.1743 H   0  0  0  0  0  0  0  0  0  0  0  0
   -2.9021   -2.8382   -0.1030 H   0  0  0  0  0  0  0  0  0  0  0  0
   -1.6670   -3.7411    1.8065 H   0  0  0  0  0  0  0  0  0  0  0  0
    0.7931   -3.5776    1.9075 H   0  0  0  0  0  0  0  0  0  0  0  0
  1  2  2  0  0  0  0
  2  3  1  0  0  0  0
  2 12  1  0  0  0  0
  3  4  2  0  0  0  0
  3 30  1  0  0  0  0
  4  5  1  0  0  0  0
  4 31  1  0  0  0  0
  5  6  1  0  0  0  0
  5 12  1  0  0  0  0
  6  7  2  0  0  0  0
  6 11  1  0  0  0  0
  7  8  1  0  0  0  0
  7 32  1  0  0  0  0
  8  9  2  0  0  0  0
  8 33  1  0  0  0  0
  9 10  1  0  0  0  0
 10 11  2  0  0  0  0
 10 34  1  0  0  0  0
 11 35  1  0  0  0  0
 12 13  1  0  0  0  0
 13 14  1  0  0  0  0
 13 36  1  0  0  0  0
 13 37  1  0  0  0  0
 14 15  2  0  0  0  0
 14 29  1  0  0  0  0
 15 16  1  0  0  0  0
 15 38  1  0  0  0  0
 16 17  1  0  0  0  0
 16 27  2  0  0  0  0
 17 18  1  0  0  0  0
 18 19  1  0  0  0  0
 18 39  1  0  0  0  0
 18 40  1  0  0  0  0
 19 20  2  0  0  0  0
 19 25  1  0  0  0  0
 20 21  1  0  0  0  0
 20 41  1  0  0  0  0
 21 22  2  0  0  0  0
 21 42  1  0  0  0  0
 22 23  1  0  0  0  0
 22 24  1  0  0  0  0
 24 25  2  0  0  0  0
 24 43  1  0  0  0  0
 25 26  1  0  0  0  0
 27 28  1  0  0  0  0
 27 44  1  0  0  0  0
 28 29  2  0  0  0  0
 28 45  1  0  0  0  0
 29 46  1  0  0  0  0
M  END
$$$$
