
 OpenBabel01122422503D

 50 53  0  0  1  0  0  0  0  0999 V2000
    6.0377    2.8077   -2.6182 C   0  0  0  0  0  0  0  0  0  0  0  0
    5.2302    2.2847   -1.5623 O   0  0  0  0  0  0  0  0  0  0  0  0
    4.2962    1.3577   -1.9350 C   0  0  0  0  0  0  0  0  0  0  0  0
    4.1281    0.9622   -3.0834 O   0  0  0  0  0  0  0  0  0  0  0  0
    3.4506    0.8941   -0.7257 C   0  0  3  0  0  0  0  0  0  0  0  0
    3.8804    1.5154    0.5279 N   0  0  0  0  0  0  0  0  0  0  0  0
    4.9153    0.9893    1.2622 C   0  0  0  0  0  0  0  0  0  0  0  0
    5.4571   -0.0769    1.0049 O   0  0  0  0  0  0  0  0  0  0  0  0
    5.3915    1.8343    2.3798 C   0  0  0  0  0  0  0  0  0  0  0  0
    6.6993    1.6852    2.8152 C   0  0  0  0  0  0  0  0  0  0  0  0
    7.2820    2.4123    3.7953 N   0  0  0  0  0  0  0  0  0  0  0  0
    6.4681    3.3343    4.3623 C   0  0  0  0  0  0  0  0  0  0  0  0
    5.1363    3.5496    4.0381 C   0  0  0  0  0  0  0  0  0  0  0  0
    4.5700    2.7767    3.0096 C   0  0  0  0  0  0  0  0  0  0  0  0
    4.7042    4.5740    4.9084 C   0  0  0  0  0  0  0  0  0  0  0  0
    3.3625    5.2081    4.9796 C   0  0  0  0  0  0  0  0  0  0  0  0
    5.6760    4.9769    5.7332 N   0  0  0  0  0  0  0  0  0  0  0  0
    6.7810    4.2534    5.3648 N   0  0  0  0  0  0  0  0  0  0  0  0
    8.0497    4.5225    5.9621 C   0  0  0  0  0  0  0  0  0  0  0  0
    8.1404    5.4309    7.0286 C   0  0  0  0  0  0  0  0  0  0  0  0
    9.3837    5.7331    7.5936 C   0  0  0  0  0  0  0  0  0  0  0  0
   10.5443    5.1412    7.0973 C   0  0  0  0  0  0  0  0  0  0  0  0
   10.4626    4.2364    6.0438 C   0  0  0  0  0  0  0  0  0  0  0  0
    9.2248    3.9239    5.4823 C   0  0  0  0  0  0  0  0  0  0  0  0
    1.9771    1.1970   -0.9184 C   0  0  0  0  0  0  0  0  0  0  0  0
    1.0158    0.1754   -0.8780 C   0  0  0  0  0  0  0  0  0  0  0  0
   -0.3440    0.4898   -0.9500 C   0  0  0  0  0  0  0  0  0  0  0  0
   -0.7426    1.8186   -1.0630 C   0  0  0  0  0  0  0  0  0  0  0  0
   -2.0481    2.1151   -1.0918 F   0  0  0  0  0  0  0  0  0  0  0  0
    0.1897    2.8422   -1.1301 C   0  0  0  0  0  0  0  0  0  0  0  0
    1.5389    2.5218   -1.0617 C   0  0  0  0  0  0  0  0  0  0  0  0
    2.4383    3.5167   -1.0803 F   0  0  0  0  0  0  0  0  0  0  0  0
    6.4036    3.7879   -2.2996 H   0  0  0  0  0  0  0  0  0  0  0  0
    5.4714    2.9416   -3.5439 H   0  0  0  0  0  0  0  0  0  0  0  0
    6.8958    2.1501   -2.7796 H   0  0  0  0  0  0  0  0  0  0  0  0
    3.6106   -0.1877   -0.6386 H   0  0  0  0  0  0  0  0  0  0  0  0
    3.7605    2.5203    0.5584 H   0  0  0  0  0  0  0  0  0  0  0  0
    7.3578    0.9494    2.3561 H   0  0  0  0  0  0  0  0  0  0  0  0
    3.5278    2.9038    2.7383 H   0  0  0  0  0  0  0  0  0  0  0  0
    2.6510    4.7167    4.3077 H   0  0  0  0  0  0  0  0  0  0  0  0
    3.4238    6.2615    4.6872 H   0  0  0  0  0  0  0  0  0  0  0  0
    2.9574    5.1514    5.9947 H   0  0  0  0  0  0  0  0  0  0  0  0
    7.2518    5.9120    7.4337 H   0  0  0  0  0  0  0  0  0  0  0  0
    9.4468    6.4372    8.4190 H   0  0  0  0  0  0  0  0  0  0  0  0
   11.5110    5.3857    7.5267 H   0  0  0  0  0  0  0  0  0  0  0  0
   11.3628    3.7736    5.6476 H   0  0  0  0  0  0  0  0  0  0  0  0
    9.2226    3.2226    4.6549 H   0  0  0  0  0  0  0  0  0  0  0  0
    1.3154   -0.8659   -0.7725 H   0  0  0  0  0  0  0  0  0  0  0  0
   -1.0969   -0.2920   -0.9046 H   0  0  0  0  0  0  0  0  0  0  0  0
   -0.1296    3.8739   -1.2161 H   0  0  0  0  0  0  0  0  0  0  0  0
  1  2  1  0  0  0  0
  1 33  1  0  0  0  0
  1 34  1  0  0  0  0
  1 35  1  0  0  0  0
  2  3  1  0  0  0  0
  3  4  2  0  0  0  0
  3  5  1  0  0  0  0
  5  6  1  0  0  0  0
  5 25  1  0  0  0  0
  5 36  1  0  0  0  0
  6  7  1  0  0  0  0
  6 37  1  0  0  0  0
  7  8  2  0  0  0  0
  7  9  1  0  0  0  0
  9 10  2  0  0  0  0
  9 14  1  0  0  0  0
 10 11  1  0  0  0  0
 10 38  1  0  0  0  0
 11 12  2  0  0  0  0
 12 13  1  0  0  0  0
 12 18  1  0  0  0  0
 13 14  2  0  0  0  0
 13 15  1  0  0  0  0
 14 39  1  0  0  0  0
 15 16  1  0  0  0  0
 15 17  2  0  0  0  0
 16 40  1  0  0  0  0
 16 41  1  0  0  0  0
 16 42  1  0  0  0  0
 17 18  1  0  0  0  0
 18 19  1  0  0  0  0
 19 20  2  0  0  0  0
 19 24  1  0  0  0  0
 20 21  1  0  0  0  0
 20 43  1  0  0  0  0
 21 22  2  0  0  0  0
 21 44  1  0  0  0  0
 22 23  1  0  0  0  0
 22 45  1  0  0  0  0
 23 24  2  0  0  0  0
 23 46  1  0  0  0  0
 24 47  1  0  0  0  0
 25 26  2  0  0  0  0
 25 31  1  0  0  0  0
 26 27  1  0  0  0  0
 26 48  1  0  0  0  0
 27 28  2  0  0  0  0
 27 49  1  0  0  0  0
 28 29  1  0  0  0  0
 28 30  1  0  0  0  0
 30 31  2  0  0  0  0
 30 50  1  0  0  0  0
 31 32  1  0  0  0  0
M  END
$$$$
