
 OpenBabel01122422503D

 47 50  0  0  0  0  0  0  0  0999 V2000
    2.9824    1.7386    1.0398 O   0  0  0  0  0  0  0  0  0  0  0  0
    2.4015    0.6569    1.1055 C   0  0  0  0  0  0  0  0  0  0  0  0
    0.8724    0.5667    1.0729 C   0  0  0  0  0  0  0  0  0  0  0  0
    0.4084    0.4833   -0.3056 N   0  0  0  0  0  0  0  0  0  0  0  0
    0.1149    1.6200   -1.0101 C   0  0  0  0  0  0  0  0  0  0  0  0
   -0.2551    1.6396   -2.2472 N   0  0  0  0  0  0  0  0  0  0  0  0
   -0.3561    0.4163   -2.9230 C   0  0  0  0  0  0  0  0  0  0  0  0
   -0.6950    0.4160   -4.2796 C   0  0  0  0  0  0  0  0  0  0  0  0
   -0.7989   -0.7865   -4.9842 C   0  0  0  0  0  0  0  0  0  0  0  0
   -0.5895   -1.9913   -4.3208 C   0  0  0  0  0  0  0  0  0  0  0  0
   -0.6994   -3.1426   -4.9955 F   0  0  0  0  0  0  0  0  0  0  0  0
   -0.2532   -2.0182   -2.9746 C   0  0  0  0  0  0  0  0  0  0  0  0
   -0.1155   -0.8075   -2.2914 C   0  0  0  0  0  0  0  0  0  0  0  0
    0.3334   -0.7728   -0.8889 C   0  0  0  0  0  0  0  0  0  0  0  0
    0.6436   -1.8117   -0.3112 O   0  0  0  0  0  0  0  0  0  0  0  0
    3.0545   -0.5544    1.1537 N   0  0  0  0  0  0  0  0  0  0  0  0
    4.5048   -0.6650    1.1182 C   0  0  0  0  0  0  0  0  0  0  0  0
    5.0488   -1.3975    2.3260 C   0  0  0  0  0  0  0  0  0  0  0  0
    5.4178   -0.6823    3.4596 C   0  0  0  0  0  0  0  0  0  0  0  0
    5.8122   -1.3787    4.6033 C   0  0  0  0  0  0  0  0  0  0  0  0
    6.1281   -0.7839    5.8099 O   0  0  0  0  0  0  0  0  0  0  0  0
    5.4840    0.3787    6.1730 C   0  0  0  0  0  0  0  0  0  0  0  0
    4.1611    0.6685    5.8336 C   0  0  0  0  0  0  0  0  0  0  0  0
    3.6379    1.9180    6.1319 C   0  0  0  0  0  0  0  0  0  0  0  0
    2.4090    2.2313    5.6990 F   0  0  0  0  0  0  0  0  0  0  0  0
    4.3765    2.8548    6.8426 C   0  0  0  0  0  0  0  0  0  0  0  0
    5.6604    2.5289    7.2780 C   0  0  0  0  0  0  0  0  0  0  0  0
    6.2161    1.2899    6.9405 C   0  0  0  0  0  0  0  0  0  0  0  0
    5.9318   -2.7623    4.5496 C   0  0  0  0  0  0  0  0  0  0  0  0
    5.5744   -3.3955    3.3735 C   0  0  0  0  0  0  0  0  0  0  0  0
    5.1136   -2.7522    2.2756 N   0  0  0  0  0  0  0  0  0  0  0  0
    0.4622    1.4620    1.5545 H   0  0  0  0  0  0  0  0  0  0  0  0
    0.5394   -0.3040    1.6478 H   0  0  0  0  0  0  0  0  0  0  0  0
    0.2076    2.5558   -0.4407 H   0  0  0  0  0  0  0  0  0  0  0  0
   -0.8651    1.3605   -4.7905 H   0  0  0  0  0  0  0  0  0  0  0  0
   -1.0390   -0.7905   -6.0432 H   0  0  0  0  0  0  0  0  0  0  0  0
   -0.0869   -2.9680   -2.4769 H   0  0  0  0  0  0  0  0  0  0  0  0
    2.5226   -1.4101    1.0169 H   0  0  0  0  0  0  0  0  0  0  0  0
    4.9691    0.3237    1.0385 H   0  0  0  0  0  0  0  0  0  0  0  0
    4.7635   -1.2204    0.2104 H   0  0  0  0  0  0  0  0  0  0  0  0
    5.3595    0.4021    3.4487 H   0  0  0  0  0  0  0  0  0  0  0  0
    3.5409   -0.0410    5.2968 H   0  0  0  0  0  0  0  0  0  0  0  0
    3.9460    3.8281    7.0537 H   0  0  0  0  0  0  0  0  0  0  0  0
    6.2341    3.2436    7.8624 H   0  0  0  0  0  0  0  0  0  0  0  0
    7.2254    1.0471    7.2627 H   0  0  0  0  0  0  0  0  0  0  0  0
    6.2820   -3.3294    5.4036 H   0  0  0  0  0  0  0  0  0  0  0  0
    5.6432   -4.4766    3.2807 H   0  0  0  0  0  0  0  0  0  0  0  0
  1  2  2  0  0  0  0
  2  3  1  0  0  0  0
  2 16  1  0  0  0  0
  3  4  1  0  0  0  0
  3 32  1  0  0  0  0
  3 33  1  0  0  0  0
  4  5  1  0  0  0  0
  4 14  1  0  0  0  0
  5  6  2  0  0  0  0
  5 34  1  0  0  0  0
  6  7  1  0  0  0  0
  7  8  2  0  0  0  0
  7 13  1  0  0  0  0
  8  9  1  0  0  0  0
  8 35  1  0  0  0  0
  9 10  2  0  0  0  0
  9 36  1  0  0  0  0
 10 11  1  0  0  0  0
 10 12  1  0  0  0  0
 12 13  2  0  0  0  0
 12 37  1  0  0  0  0
 13 14  1  0  0  0  0
 14 15  2  0  0  0  0
 16 17  1  0  0  0  0
 16 38  1  0  0  0  0
 17 18  1  0  0  0  0
 17 39  1  0  0  0  0
 17 40  1  0  0  0  0
 18 19  2  0  0  0  0
 18 31  1  0  0  0  0
 19 20  1  0  0  0  0
 19 41  1  0  0  0  0
 20 21  1  0  0  0  0
 20 29  2  0  0  0  0
 21 22  1  0  0  0  0
 22 23  2  0  0  0  0
 22 28  1  0  0  0  0
 23 24  1  0  0  0  0
 23 42  1  0  0  0  0
 24 25  1  0  0  0  0
 24 26  2  0  0  0  0
 26 27  1  0  0  0  0
 26 43  1  0  0  0  0
 27 28  2  0  0  0  0
 27 44  1  0  0  0  0
 28 45  1  0  0  0  0
 29 30  1  0  0  0  0
 29 46  1  0  0  0  0
 30 31  2  0  0  0  0
 30 47  1  0  0  0  0
M  END
$$$$
