
 OpenBabel01122422503D

 51 54  0  0  1  0  0  0  0  0999 V2000
    0.6539   -1.9821    2.6485 C   0  0  0  0  0  0  0  0  0  0  0  0
    0.9404   -1.2063    1.4662 N   0  0  0  0  0  0  0  0  0  0  0  0
    0.5849   -1.5022    0.1859 C   0  0  0  0  0  0  0  0  0  0  0  0
    1.0825   -0.4794   -0.5863 C   0  0  0  0  0  0  0  0  0  0  0  0
    1.7310    0.4030    0.3241 C   0  0  0  0  0  0  0  0  0  0  0  0
    2.4408    1.7042   -0.0075 C   0  0  3  0  0  0  0  0  0  0  0  0
    2.4267    2.6303    1.1061 N   0  0  0  0  0  0  0  0  0  0  0  0
    1.3864    3.5060    1.3206 C   0  0  0  0  0  0  0  0  0  0  0  0
    0.4560    3.6301    0.5252 O   0  0  0  0  0  0  0  0  0  0  0  0
    1.5010    4.2932    2.5366 C   0  0  0  0  0  0  0  0  0  0  0  0
    0.6937    5.2965    3.0430 C   0  0  0  0  0  0  0  0  0  0  0  0
    1.2933    5.7436    4.2425 C   0  0  0  0  0  0  0  0  0  0  0  0
    2.4377    4.9914    4.4092 C   0  0  0  0  0  0  0  0  0  0  0  0
    3.5138    5.0408    5.4362 C   0  0  0  0  0  0  0  0  0  0  0  0
    3.1135    4.2007    6.5217 O   0  0  0  0  0  0  0  0  0  0  0  0
    3.9679    4.0774    7.5905 C   0  0  0  0  0  0  0  0  0  0  0  0
    3.9536    2.7989    8.1748 C   0  0  0  0  0  0  0  0  0  0  0  0
    4.7221    2.5055    9.3042 C   0  0  0  0  0  0  0  0  0  0  0  0
    5.5179    3.4908    9.8790 C   0  0  0  0  0  0  0  0  0  0  0  0
    5.5254    4.7682    9.3273 C   0  0  0  0  0  0  0  0  0  0  0  0
    4.7458    5.0765    8.1963 C   0  0  0  0  0  0  0  0  0  0  0  0
    4.7720    6.4507    7.7905 C   0  0  0  0  0  0  0  0  0  0  0  0
    4.8192    7.5625    7.4697 N   0  0  0  0  0  0  0  0  0  0  0  0
    2.5762    4.1092    3.3759 O   0  0  0  0  0  0  0  0  0  0  0  0
    3.8658    1.3270   -0.4139 C   0  0  0  0  0  0  0  0  0  0  0  0
    4.3458    1.7026   -1.6850 C   0  0  0  0  0  0  0  0  0  0  0  0
    5.6288    1.3396   -2.1075 C   0  0  0  0  0  0  0  0  0  0  0  0
    6.4526    0.6139   -1.2570 C   0  0  0  0  0  0  0  0  0  0  0  0
    7.6743    0.2501   -1.6696 F   0  0  0  0  0  0  0  0  0  0  0  0
    6.0235    0.2602    0.0137 C   0  0  0  0  0  0  0  0  0  0  0  0
    4.7394    0.6199    0.4385 C   0  0  0  0  0  0  0  0  0  0  0  0
    1.6429   -0.0645    1.5848 N   0  0  0  0  0  0  0  0  0  0  0  0
    0.1168   -2.8920    2.3702 H   0  0  0  0  0  0  0  0  0  0  0  0
    0.0399   -1.3738    3.3171 H   0  0  0  0  0  0  0  0  0  0  0  0
    1.6026   -2.2406    3.1258 H   0  0  0  0  0  0  0  0  0  0  0  0
    0.0210   -2.3902   -0.0667 H   0  0  0  0  0  0  0  0  0  0  0  0
    0.9921   -0.3802   -1.6593 H   0  0  0  0  0  0  0  0  0  0  0  0
    1.9232    2.1707   -0.8555 H   0  0  0  0  0  0  0  0  0  0  0  0
    3.0071    2.4193    1.9058 H   0  0  0  0  0  0  0  0  0  0  0  0
   -0.2132    5.6688    2.5848 H   0  0  0  0  0  0  0  0  0  0  0  0
    0.9515    6.5318    4.9009 H   0  0  0  0  0  0  0  0  0  0  0  0
    3.5680    6.0826    5.7485 H   0  0  0  0  0  0  0  0  0  0  0  0
    4.4767    4.7207    5.0242 H   0  0  0  0  0  0  0  0  0  0  0  0
    3.3281    2.0166    7.7475 H   0  0  0  0  0  0  0  0  0  0  0  0
    4.6934    1.5112    9.7460 H   0  0  0  0  0  0  0  0  0  0  0  0
    6.1147    3.2751   10.7614 H   0  0  0  0  0  0  0  0  0  0  0  0
    6.1292    5.5421    9.8003 H   0  0  0  0  0  0  0  0  0  0  0  0
    3.7180    2.2784   -2.3622 H   0  0  0  0  0  0  0  0  0  0  0  0
    5.9886    1.6126   -3.0945 H   0  0  0  0  0  0  0  0  0  0  0  0
    6.6852   -0.3031    0.6654 H   0  0  0  0  0  0  0  0  0  0  0  0
    4.4144    0.3221    1.4345 H   0  0  0  0  0  0  0  0  0  0  0  0
  1  2  1  0  0  0  0
  1 33  1  0  0  0  0
  1 34  1  0  0  0  0
  1 35  1  0  0  0  0
  2  3  1  0  0  0  0
  2 32  1  0  0  0  0
  3  4  2  0  0  0  0
  3 36  1  0  0  0  0
  4  5  1  0  0  0  0
  4 37  1  0  0  0  0
  5  6  1  0  0  0  0
  5 32  2  0  0  0  0
  6  7  1  0  0  0  0
  6 25  1  0  0  0  0
  6 38  1  0  0  0  0
  7  8  1  0  0  0  0
  7 39  1  0  0  0  0
  8  9  2  0  0  0  0
  8 10  1  0  0  0  0
 10 11  2  0  0  0  0
 10 24  1  0  0  0  0
 11 12  1  0  0  0  0
 11 40  1  0  0  0  0
 12 13  2  0  0  0  0
 12 41  1  0  0  0  0
 13 14  1  0  0  0  0
 13 24  1  0  0  0  0
 14 15  1  0  0  0  0
 14 42  1  0  0  0  0
 14 43  1  0  0  0  0
 15 16  1  0  0  0  0
 16 17  2  0  0  0  0
 16 21  1  0  0  0  0
 17 18  1  0  0  0  0
 17 44  1  0  0  0  0
 18 19  2  0  0  0  0
 18 45  1  0  0  0  0
 19 20  1  0  0  0  0
 19 46  1  0  0  0  0
 20 21  2  0  0  0  0
 20 47  1  0  0  0  0
 21 22  1  0  0  0  0
 22 23  3  0  0  0  0
 25 26  2  0  0  0  0
 25 31  1  0  0  0  0
 26 27  1  0  0  0  0
 26 48  1  0  0  0  0
 27 28  2  0  0  0  0
 27 49  1  0  0  0  0
 28 29  1  0  0  0  0
 28 30  1  0  0  0  0
 30 31  2  0  0  0  0
 30 50  1  0  0  0  0
 31 51  1  0  0  0  0
M  END
$$$$
