
 OpenBabel01122422503D

 41 44  0  0  0  0  0  0  0  0999 V2000
    1.3097   -0.0271   -1.0354 O   0  0  0  0  0  0  0  0  0  0  0  0
    2.3500   -0.0161   -0.3888 C   0  0  0  0  0  0  0  0  0  0  0  0
    2.8517   -1.0599    0.3687 N   0  0  0  0  0  0  0  0  0  0  0  0
    2.2145   -2.3123    0.5480 C   0  0  0  0  0  0  0  0  0  0  0  0
    1.1015   -2.7303   -0.1814 C   0  0  0  0  0  0  0  0  0  0  0  0
    0.5053   -3.9583    0.0917 C   0  0  0  0  0  0  0  0  0  0  0  0
    1.0593   -4.7467    1.0818 C   0  0  0  0  0  0  0  0  0  0  0  0
    0.4445   -5.9689    1.3081 O   0  0  0  0  0  0  0  0  0  0  0  0
    1.2429   -7.0071    1.7249 C   0  0  0  0  0  0  0  0  0  0  0  0
    2.5234   -7.2611    1.2267 C   0  0  0  0  0  0  0  0  0  0  0  0
    3.0608   -6.4955    0.2639 F   0  0  0  0  0  0  0  0  0  0  0  0
    3.2484   -8.3445    1.7049 C   0  0  0  0  0  0  0  0  0  0  0  0
    4.4903   -8.5710    1.2543 F   0  0  0  0  0  0  0  0  0  0  0  0
    2.6964   -9.2121    2.6415 C   0  0  0  0  0  0  0  0  0  0  0  0
    1.3984   -8.9932    3.1055 C   0  0  0  0  0  0  0  0  0  0  0  0
    0.6724   -7.8906    2.6478 C   0  0  0  0  0  0  0  0  0  0  0  0
    2.1264   -4.3801    1.8284 N   0  0  0  0  0  0  0  0  0  0  0  0
    2.6929   -3.1892    1.5211 C   0  0  0  0  0  0  0  0  0  0  0  0
    3.1417    1.2360   -0.4189 C   0  0  0  0  0  0  0  0  0  0  0  0
    4.5365    1.1544   -0.5656 C   0  0  0  0  0  0  0  0  0  0  0  0
    5.2913    2.3136   -0.7529 C   0  0  0  0  0  0  0  0  0  0  0  0
    4.6612    3.5553   -0.8061 C   0  0  0  0  0  0  0  0  0  0  0  0
    3.2752    3.6413   -0.6475 C   0  0  0  0  0  0  0  0  0  0  0  0
    2.5101    2.4919   -0.4413 C   0  0  0  0  0  0  0  0  0  0  0  0
    1.0689    2.6957   -0.2438 C   0  0  0  0  0  0  0  0  0  0  0  0
    0.4747    3.8511   -0.2865 N   0  0  0  0  0  0  0  0  0  0  0  0
    1.2405    4.9451   -0.5377 N   0  0  0  0  0  0  0  0  0  0  0  0
    2.6027    4.9502   -0.7154 C   0  0  0  0  0  0  0  0  0  0  0  0
    3.2381    5.9789   -0.9144 O   0  0  0  0  0  0  0  0  0  0  0  0
    3.6840   -0.8972    0.9229 H   0  0  0  0  0  0  0  0  0  0  0  0
    0.6751   -2.1372   -0.9826 H   0  0  0  0  0  0  0  0  0  0  0  0
   -0.3601   -4.2912   -0.4696 H   0  0  0  0  0  0  0  0  0  0  0  0
    3.2762  -10.0595    2.9932 H   0  0  0  0  0  0  0  0  0  0  0  0
    0.9526   -9.6782    3.8225 H   0  0  0  0  0  0  0  0  0  0  0  0
   -0.3382   -7.7179    3.0114 H   0  0  0  0  0  0  0  0  0  0  0  0
    3.5695   -2.9547    2.1178 H   0  0  0  0  0  0  0  0  0  0  0  0
    5.0454    0.1936   -0.5897 H   0  0  0  0  0  0  0  0  0  0  0  0
    6.3697    2.2497   -0.8895 H   0  0  0  0  0  0  0  0  0  0  0  0
    5.2470    4.4557   -0.9827 H   0  0  0  0  0  0  0  0  0  0  0  0
    0.4237    1.8315   -0.0196 H   0  0  0  0  0  0  0  0  0  0  0  0
    0.7561    5.8374   -0.5785 H   0  0  0  0  0  0  0  0  0  0  0  0
  1  2  2  0  0  0  0
  2  3  1  0  0  0  0
  2 19  1  0  0  0  0
  3  4  1  0  0  0  0
  3 30  1  0  0  0  0
  4  5  2  0  0  0  0
  4 18  1  0  0  0  0
  5  6  1  0  0  0  0
  5 31  1  0  0  0  0
  6  7  2  0  0  0  0
  6 32  1  0  0  0  0
  7  8  1  0  0  0  0
  7 17  1  0  0  0  0
  8  9  1  0  0  0  0
  9 10  2  0  0  0  0
  9 16  1  0  0  0  0
 10 11  1  0  0  0  0
 10 12  1  0  0  0  0
 12 13  1  0  0  0  0
 12 14  2  0  0  0  0
 14 15  1  0  0  0  0
 14 33  1  0  0  0  0
 15 16  2  0  0  0  0
 15 34  1  0  0  0  0
 16 35  1  0  0  0  0
 17 18  2  0  0  0  0
 18 36  1  0  0  0  0
 19 20  2  0  0  0  0
 19 24  1  0  0  0  0
 20 21  1  0  0  0  0
 20 37  1  0  0  0  0
 21 22  2  0  0  0  0
 21 38  1  0  0  0  0
 22 23  1  0  0  0  0
 22 39  1  0  0  0  0
 23 24  2  0  0  0  0
 23 28  1  0  0  0  0
 24 25  1  0  0  0  0
 25 26  2  0  0  0  0
 25 40  1  0  0  0  0
 26 27  1  0  0  0  0
 27 28  1  0  0  0  0
 27 41  1  0  0  0  0
 28 29  2  0  0  0  0
M  END
$$$$
