
 OpenBabel01122422503D

 41 44  0  0  0  0  0  0  0  0999 V2000
    1.1699    0.1536    1.0919 O   0  0  0  0  0  0  0  0  0  0  0  0
    2.3058    0.1283    0.6280 C   0  0  0  0  0  0  0  0  0  0  0  0
    2.9065    1.1123   -0.1514 N   0  0  0  0  0  0  0  0  0  0  0  0
    2.3119    2.3705   -0.4657 C   0  0  0  0  0  0  0  0  0  0  0  0
    1.2119    2.8544    0.2615 C   0  0  0  0  0  0  0  0  0  0  0  0
    0.5922    4.0623   -0.0618 C   0  0  0  0  0  0  0  0  0  0  0  0
    1.0378    4.7969   -1.1472 C   0  0  0  0  0  0  0  0  0  0  0  0
    2.1236    4.3365   -1.8876 C   0  0  0  0  0  0  0  0  0  0  0  0
    2.8187    3.1683   -1.5141 C   0  0  0  0  0  0  0  0  0  0  0  0
    3.9688    2.7552   -2.1794 O   0  0  0  0  0  0  0  0  0  0  0  0
    4.7185    3.7137   -2.8410 C   0  0  0  0  0  0  0  0  0  0  0  0
    5.0536    4.9450   -2.2611 C   0  0  0  0  0  0  0  0  0  0  0  0
    5.6972    5.9145   -3.0257 C   0  0  0  0  0  0  0  0  0  0  0  0
    5.9155    7.1261   -2.4996 F   0  0  0  0  0  0  0  0  0  0  0  0
    6.0851    5.6596   -4.3334 C   0  0  0  0  0  0  0  0  0  0  0  0
    5.8257    4.4065   -4.8698 C   0  0  0  0  0  0  0  0  0  0  0  0
    6.2167    4.1395   -6.1234 F   0  0  0  0  0  0  0  0  0  0  0  0
    5.1467    3.4288   -4.1400 C   0  0  0  0  0  0  0  0  0  0  0  0
    3.0804   -1.1035    0.8906 C   0  0  0  0  0  0  0  0  0  0  0  0
    2.3801   -2.3027    1.0323 C   0  0  0  0  0  0  0  0  0  0  0  0
    2.9548   -3.4964    1.3281 N   0  0  0  0  0  0  0  0  0  0  0  0
    4.2869   -3.4981    1.5272 C   0  0  0  0  0  0  0  0  0  0  0  0
    4.8280   -4.7492    1.8427 N   0  0  0  0  0  0  0  0  0  0  0  0
    6.0912   -4.8046    2.0752 C   0  0  0  0  0  0  0  0  0  0  0  0
    6.9239   -3.7247    2.0276 N   0  0  0  0  0  0  0  0  0  0  0  0
    6.4877   -2.4639    1.7060 C   0  0  0  0  0  0  0  0  0  0  0  0
    7.2373   -1.4999    1.6443 O   0  0  0  0  0  0  0  0  0  0  0  0
    5.0516   -2.3405    1.4338 C   0  0  0  0  0  0  0  0  0  0  0  0
    4.4541   -1.1184    1.1087 C   0  0  0  0  0  0  0  0  0  0  0  0
    3.7450    0.8849   -0.6742 H   0  0  0  0  0  0  0  0  0  0  0  0
    0.8108    2.3179    1.1154 H   0  0  0  0  0  0  0  0  0  0  0  0
   -0.2484    4.4114    0.5321 H   0  0  0  0  0  0  0  0  0  0  0  0
    0.5490    5.7299   -1.4140 H   0  0  0  0  0  0  0  0  0  0  0  0
    2.4257    4.9261   -2.7487 H   0  0  0  0  0  0  0  0  0  0  0  0
    4.7637    5.1875   -1.2429 H   0  0  0  0  0  0  0  0  0  0  0  0
    6.5769    6.4266   -4.9223 H   0  0  0  0  0  0  0  0  0  0  0  0
    4.9379    2.4710   -4.6031 H   0  0  0  0  0  0  0  0  0  0  0  0
    1.2982   -2.3418    0.9167 H   0  0  0  0  0  0  0  0  0  0  0  0
    6.5936   -5.7505    2.3324 H   0  0  0  0  0  0  0  0  0  0  0  0
    7.9111   -3.8259    2.2193 H   0  0  0  0  0  0  0  0  0  0  0  0
    5.0477   -0.2098    1.0809 H   0  0  0  0  0  0  0  0  0  0  0  0
  1  2  2  0  0  0  0
  2  3  1  0  0  0  0
  2 19  1  0  0  0  0
  3  4  1  0  0  0  0
  3 30  1  0  0  0  0
  4  5  2  0  0  0  0
  4  9  1  0  0  0  0
  5  6  1  0  0  0  0
  5 31  1  0  0  0  0
  6  7  2  0  0  0  0
  6 32  1  0  0  0  0
  7  8  1  0  0  0  0
  7 33  1  0  0  0  0
  8  9  2  0  0  0  0
  8 34  1  0  0  0  0
  9 10  1  0  0  0  0
 10 11  1  0  0  0  0
 11 12  2  0  0  0  0
 11 18  1  0  0  0  0
 12 13  1  0  0  0  0
 12 35  1  0  0  0  0
 13 14  1  0  0  0  0
 13 15  2  0  0  0  0
 15 16  1  0  0  0  0
 15 36  1  0  0  0  0
 16 17  1  0  0  0  0
 16 18  2  0  0  0  0
 18 37  1  0  0  0  0
 19 20  2  0  0  0  0
 19 29  1  0  0  0  0
 20 21  1  0  0  0  0
 20 38  1  0  0  0  0
 21 22  2  0  0  0  0
 22 23  1  0  0  0  0
 22 28  1  0  0  0  0
 23 24  2  0  0  0  0
 24 25  1  0  0  0  0
 24 39  1  0  0  0  0
 25 26  1  0  0  0  0
 25 40  1  0  0  0  0
 26 27  2  0  0  0  0
 26 28  1  0  0  0  0
 28 29  2  0  0  0  0
 29 41  1  0  0  0  0
M  END
$$$$
