
 OpenBabel01122422503D

 45 48  0  0  0  0  0  0  0  0999 V2000
    2.4385   -0.0506   -0.0045 C   0  0  0  0  0  0  0  0  0  0  0  0
    0.9448    0.0527    0.0504 C   0  0  0  0  0  0  0  0  0  0  0  0
    0.3022    1.2634    0.2827 C   0  0  0  0  0  0  0  0  0  0  0  0
   -1.0928    1.3187    0.3494 C   0  0  0  0  0  0  0  0  0  0  0  0
   -1.8791    0.1654    0.1744 C   0  0  0  0  0  0  0  0  0  0  0  0
   -3.2884    0.2860    0.1722 N   0  0  0  0  0  0  0  0  0  0  0  0
   -3.9955    1.0401    1.0625 C   0  0  0  0  0  0  0  0  0  0  0  0
   -3.5060    1.6585    1.9971 O   0  0  0  0  0  0  0  0  0  0  0  0
   -5.5070    1.0383    0.9841 C   0  0  0  0  0  0  0  0  0  0  0  0
   -6.1950    1.6994    2.0221 C   0  0  0  0  0  0  0  0  0  0  0  0
   -7.5837    1.8364    2.0105 C   0  0  0  0  0  0  0  0  0  0  0  0
   -8.3074    1.2399    0.9870 C   0  0  0  0  0  0  0  0  0  0  0  0
   -9.7057    1.2953    1.0260 N   0  0  0  0  0  0  0  0  0  0  0  0
  -10.4728    0.3611    0.3857 C   0  0  0  0  0  0  0  0  0  0  0  0
  -11.6449    0.1551    0.6781 O   0  0  0  0  0  0  0  0  0  0  0  0
   -9.8462   -0.3152   -0.6261 N   0  0  0  0  0  0  0  0  0  0  0  0
   -8.5207   -0.1897   -0.9816 C   0  0  0  0  0  0  0  0  0  0  0  0
   -8.0694   -0.6468   -2.0229 O   0  0  0  0  0  0  0  0  0  0  0  0
   -7.6586    0.5144   -0.0084 C   0  0  0  0  0  0  0  0  0  0  0  0
   -6.2573    0.4505   -0.0534 C   0  0  0  0  0  0  0  0  0  0  0  0
   -1.2544   -1.0922   -0.0403 C   0  0  0  0  0  0  0  0  0  0  0  0
   -1.9762   -2.4032   -0.0694 C   0  0  0  0  0  0  0  0  0  0  0  0
   -1.4506   -3.5239    0.6120 C   0  0  0  0  0  0  0  0  0  0  0  0
   -2.0890   -4.7719    0.6000 C   0  0  0  0  0  0  0  0  0  0  0  0
   -3.3039   -4.9263   -0.0555 C   0  0  0  0  0  0  0  0  0  0  0  0
   -3.8635   -3.8414   -0.7178 C   0  0  0  0  0  0  0  0  0  0  0  0
   -3.1910   -2.6164   -0.7410 C   0  0  0  0  0  0  0  0  0  0  0  0
   -3.7715   -1.6259   -1.4371 F   0  0  0  0  0  0  0  0  0  0  0  0
    0.1633   -1.1062   -0.0973 C   0  0  0  0  0  0  0  0  0  0  0  0
    2.9116    0.9358   -0.0178 H   0  0  0  0  0  0  0  0  0  0  0  0
    2.7484   -0.5765   -0.9146 H   0  0  0  0  0  0  0  0  0  0  0  0
    2.8147   -0.5980    0.8663 H   0  0  0  0  0  0  0  0  0  0  0  0
    0.8767    2.1796    0.4010 H   0  0  0  0  0  0  0  0  0  0  0  0
   -1.5634    2.2873    0.4990 H   0  0  0  0  0  0  0  0  0  0  0  0
   -3.7916   -0.3749   -0.3962 H   0  0  0  0  0  0  0  0  0  0  0  0
   -5.6401    2.0995    2.8692 H   0  0  0  0  0  0  0  0  0  0  0  0
   -8.0814    2.3156    2.8488 H   0  0  0  0  0  0  0  0  0  0  0  0
  -10.0911    2.2275    0.9182 H   0  0  0  0  0  0  0  0  0  0  0  0
  -10.4356   -0.8986   -1.2002 H   0  0  0  0  0  0  0  0  0  0  0  0
   -5.7882   -0.0680   -0.8851 H   0  0  0  0  0  0  0  0  0  0  0  0
   -0.5216   -3.4419    1.1757 H   0  0  0  0  0  0  0  0  0  0  0  0
   -1.6349   -5.6184    1.1077 H   0  0  0  0  0  0  0  0  0  0  0  0
   -3.8160   -5.8840   -0.0551 H   0  0  0  0  0  0  0  0  0  0  0  0
   -4.8203   -3.9326   -1.2255 H   0  0  0  0  0  0  0  0  0  0  0  0
    0.6835   -2.0517   -0.2437 H   0  0  0  0  0  0  0  0  0  0  0  0
  1  2  1  0  0  0  0
  1 30  1  0  0  0  0
  1 31  1  0  0  0  0
  1 32  1  0  0  0  0
  2  3  2  0  0  0  0
  2 29  1  0  0  0  0
  3  4  1  0  0  0  0
  3 33  1  0  0  0  0
  4  5  2  0  0  0  0
  4 34  1  0  0  0  0
  5  6  1  0  0  0  0
  5 21  1  0  0  0  0
  6  7  1  0  0  0  0
  6 35  1  0  0  0  0
  7  8  2  0  0  0  0
  7  9  1  0  0  0  0
  9 10  2  0  0  0  0
  9 20  1  0  0  0  0
 10 11  1  0  0  0  0
 10 36  1  0  0  0  0
 11 12  2  0  0  0  0
 11 37  1  0  0  0  0
 12 13  1  0  0  0  0
 12 19  1  0  0  0  0
 13 14  1  0  0  0  0
 13 38  1  0  0  0  0
 14 15  2  0  0  0  0
 14 16  1  0  0  0  0
 16 17  1  0  0  0  0
 16 39  1  0  0  0  0
 17 18  2  0  0  0  0
 17 19  1  0  0  0  0
 19 20  2  0  0  0  0
 20 40  1  0  0  0  0
 21 22  1  0  0  0  0
 21 29  2  0  0  0  0
 22 23  2  0  0  0  0
 22 27  1  0  0  0  0
 23 24  1  0  0  0  0
 23 41  1  0  0  0  0
 24 25  2  0  0  0  0
 24 42  1  0  0  0  0
 25 26  1  0  0  0  0
 25 43  1  0  0  0  0
 26 27  2  0  0  0  0
 26 44  1  0  0  0  0
 27 28  1  0  0  0  0
 29 45  1  0  0  0  0
M  END
$$$$
