
 OpenBabel01122422503D

 47 50  0  0  0  0  0  0  0  0999 V2000
    1.6198    1.8495   -2.5955 N   0  0  0  0  0  0  0  0  0  0  0  0
    1.3294    1.2777   -1.6134 C   0  0  0  0  0  0  0  0  0  0  0  0
    0.9871    0.6302   -0.3825 C   0  0  0  0  0  0  0  0  0  0  0  0
    1.5414   -0.6421   -0.1711 C   0  0  0  0  0  0  0  0  0  0  0  0
    1.2144   -1.3763    0.9642 C   0  0  0  0  0  0  0  0  0  0  0  0
    0.3492   -0.8443    1.9104 C   0  0  0  0  0  0  0  0  0  0  0  0
   -0.1888    0.4272    1.7211 C   0  0  0  0  0  0  0  0  0  0  0  0
    0.1042    1.1964    0.5725 C   0  0  0  0  0  0  0  0  0  0  0  0
   -0.5411    2.5222    0.4049 C   0  0  0  0  0  0  0  0  0  0  0  0
    0.0966    3.5849   -0.2543 C   0  0  0  0  0  0  0  0  0  0  0  0
   -0.5178    4.8246   -0.4330 C   0  0  0  0  0  0  0  0  0  0  0  0
   -1.7981    5.0407    0.0868 C   0  0  0  0  0  0  0  0  0  0  0  0
   -2.4595    6.3616   -0.0462 C   0  0  0  0  0  0  0  0  0  0  0  0
   -2.1414    7.0598   -1.0037 O   0  0  0  0  0  0  0  0  0  0  0  0
   -3.3466    6.7129    0.9706 N   0  0  0  0  0  0  0  0  0  0  0  0
   -4.0595    7.9313    1.0165 C   0  0  0  0  0  0  0  0  0  0  0  0
   -4.2299    8.7230   -0.1185 C   0  0  0  0  0  0  0  0  0  0  0  0
   -4.9073    9.9401   -0.0615 C   0  0  0  0  0  0  0  0  0  0  0  0
   -5.4269   10.3885    1.1464 C   0  0  0  0  0  0  0  0  0  0  0  0
   -6.0581   11.5865    1.3342 O   0  0  0  0  0  0  0  0  0  0  0  0
   -6.7722   12.1019    0.2000 C   0  0  0  0  0  0  0  0  0  0  0  0
   -7.4325   13.4083    0.5123 C   0  0  0  0  0  0  0  0  0  0  0  0
   -6.8365   14.5973    0.3225 N   0  0  0  0  0  0  0  0  0  0  0  0
   -7.7901   15.4469    0.7343 N   0  0  0  0  0  0  0  0  0  0  0  0
   -8.9110   14.7827    1.1163 C   0  0  0  0  0  0  0  0  0  0  0  0
   -8.7257   13.4918    0.9767 N   0  0  0  0  0  0  0  0  0  0  0  0
   -5.2724    9.5982    2.2887 C   0  0  0  0  0  0  0  0  0  0  0  0
   -4.6097    8.3638    2.2253 C   0  0  0  0  0  0  0  0  0  0  0  0
   -2.4574    3.9982    0.7302 C   0  0  0  0  0  0  0  0  0  0  0  0
   -1.8330    2.7645    0.9038 C   0  0  0  0  0  0  0  0  0  0  0  0
    2.2146   -1.0666   -0.9104 H   0  0  0  0  0  0  0  0  0  0  0  0
    1.6317   -2.3691    1.1042 H   0  0  0  0  0  0  0  0  0  0  0  0
    0.0848   -1.4182    2.7956 H   0  0  0  0  0  0  0  0  0  0  0  0
   -0.8571    0.8115    2.4911 H   0  0  0  0  0  0  0  0  0  0  0  0
    1.1035    3.4774   -0.6459 H   0  0  0  0  0  0  0  0  0  0  0  0
    0.0369    5.6028   -0.9586 H   0  0  0  0  0  0  0  0  0  0  0  0
   -3.3926    6.1379    1.8037 H   0  0  0  0  0  0  0  0  0  0  0  0
   -3.8518    8.4099   -1.0853 H   0  0  0  0  0  0  0  0  0  0  0  0
   -4.9847   10.5025   -0.9852 H   0  0  0  0  0  0  0  0  0  0  0  0
   -7.5480   11.3823   -0.0902 H   0  0  0  0  0  0  0  0  0  0  0  0
   -6.0966   12.2608   -0.6484 H   0  0  0  0  0  0  0  0  0  0  0  0
   -7.6071   16.4436    0.7235 H   0  0  0  0  0  0  0  0  0  0  0  0
   -9.8019   15.2753    1.4779 H   0  0  0  0  0  0  0  0  0  0  0  0
   -5.6780    9.9480    3.2353 H   0  0  0  0  0  0  0  0  0  0  0  0
   -4.5029    7.7826    3.1373 H   0  0  0  0  0  0  0  0  0  0  0  0
   -3.4705    4.1250    1.0947 H   0  0  0  0  0  0  0  0  0  0  0  0
   -2.3865    1.9938    1.4343 H   0  0  0  0  0  0  0  0  0  0  0  0
  1  2  3  0  0  0  0
  2  3  1  0  0  0  0
  3  4  2  0  0  0  0
  3  8  1  0  0  0  0
  4  5  1  0  0  0  0
  4 31  1  0  0  0  0
  5  6  2  0  0  0  0
  5 32  1  0  0  0  0
  6  7  1  0  0  0  0
  6 33  1  0  0  0  0
  7  8  2  0  0  0  0
  7 34  1  0  0  0  0
  8  9  1  0  0  0  0
  9 10  2  0  0  0  0
  9 30  1  0  0  0  0
 10 11  1  0  0  0  0
 10 35  1  0  0  0  0
 11 12  2  0  0  0  0
 11 36  1  0  0  0  0
 12 13  1  0  0  0  0
 12 29  1  0  0  0  0
 13 14  2  0  0  0  0
 13 15  1  0  0  0  0
 15 16  1  0  0  0  0
 15 37  1  0  0  0  0
 16 17  2  0  0  0  0
 16 28  1  0  0  0  0
 17 18  1  0  0  0  0
 17 38  1  0  0  0  0
 18 19  2  0  0  0  0
 18 39  1  0  0  0  0
 19 20  1  0  0  0  0
 19 27  1  0  0  0  0
 20 21  1  0  0  0  0
 21 22  1  0  0  0  0
 21 40  1  0  0  0  0
 21 41  1  0  0  0  0
 22 23  2  0  0  0  0
 22 26  1  0  0  0  0
 23 24  1  0  0  0  0
 24 25  1  0  0  0  0
 24 42  1  0  0  0  0
 25 26  2  0  0  0  0
 25 43  1  0  0  0  0
 27 28  2  0  0  0  0
 27 44  1  0  0  0  0
 28 45  1  0  0  0  0
 29 30  2  0  0  0  0
 29 46  1  0  0  0  0
 30 47  1  0  0  0  0
M  END
$$$$
