
 OpenBabel01122422503D

 46 49  0  0  0  0  0  0  0  0999 V2000
    1.3346   -0.3973    0.4807 O   0  0  0  0  0  0  0  0  0  0  0  0
    2.5560   -0.2887    0.3708 C   0  0  0  0  0  0  0  0  0  0  0  0
    3.2359    0.7635    0.9586 N   0  0  0  0  0  0  0  0  0  0  0  0
    2.4588    1.8118    1.5873 C   0  0  0  0  0  0  0  0  0  0  0  0
    3.2942    2.7864    2.3763 C   0  0  0  0  0  0  0  0  0  0  0  0
    3.8591    3.9107    1.7587 C   0  0  0  0  0  0  0  0  0  0  0  0
    4.5774    4.8467    2.5098 C   0  0  0  0  0  0  0  0  0  0  0  0
    4.7451    4.6730    3.8864 C   0  0  0  0  0  0  0  0  0  0  0  0
    5.5058    5.6655    4.6799 C   0  0  0  0  0  0  0  0  0  0  0  0
    4.8477    6.7029    5.2243 C   0  0  0  0  0  0  0  0  0  0  0  0
    5.5248    7.6456    5.9608 N   0  0  0  0  0  0  0  0  0  0  0  0
    6.8765    7.6107    6.2051 C   0  0  0  0  0  0  0  0  0  0  0  0
    7.4529    8.4626    6.8778 O   0  0  0  0  0  0  0  0  0  0  0  0
    7.6081    6.4792    5.6084 C   0  0  0  0  0  0  0  0  0  0  0  0
    6.9509    5.5595    4.8806 C   0  0  0  0  0  0  0  0  0  0  0  0
    4.2035    3.5405    4.5079 C   0  0  0  0  0  0  0  0  0  0  0  0
    3.4836    2.6046    3.7522 C   0  0  0  0  0  0  0  0  0  0  0  0
    3.2798   -1.2342   -0.5389 C   0  0  0  0  0  0  0  0  0  0  0  0
    2.4923   -1.9163   -1.4970 C   0  0  0  0  0  0  0  0  0  0  0  0
    1.1218   -1.8603   -1.5511 O   0  0  0  0  0  0  0  0  0  0  0  0
    3.0700   -2.7134   -2.4746 C   0  0  0  0  0  0  0  0  0  0  0  0
    4.4486   -2.7212   -2.6075 C   0  0  0  0  0  0  0  0  0  0  0  0
    5.2553   -2.0788   -1.6634 C   0  0  0  0  0  0  0  0  0  0  0  0
    6.6405   -2.1376   -1.8266 C   0  0  0  0  0  0  0  0  0  0  0  0
    7.4691   -2.0235   -0.7228 C   0  0  0  0  0  0  0  0  0  0  0  0
    6.9332   -1.6046    0.4861 C   0  0  0  0  0  0  0  0  0  0  0  0
    5.5854   -1.2206    0.5579 C   0  0  0  0  0  0  0  0  0  0  0  0
    4.6896   -1.4653   -0.5190 C   0  0  0  0  0  0  0  0  0  0  0  0
    4.1744    0.9872    0.6553 H   0  0  0  0  0  0  0  0  0  0  0  0
    1.7029    1.3533    2.2387 H   0  0  0  0  0  0  0  0  0  0  0  0
    1.9051    2.3416    0.8009 H   0  0  0  0  0  0  0  0  0  0  0  0
    3.7251    4.0771    0.6918 H   0  0  0  0  0  0  0  0  0  0  0  0
    5.0058    5.7241    2.0120 H   0  0  0  0  0  0  0  0  0  0  0  0
    3.7741    6.8472    5.1151 H   0  0  0  0  0  0  0  0  0  0  0  0
    5.0216    8.4250    6.3624 H   0  0  0  0  0  0  0  0  0  0  0  0
    8.6916    6.4315    5.7730 H   0  0  0  0  0  0  0  0  0  0  0  0
    7.4724    4.7345    4.4298 H   0  0  0  0  0  0  0  0  0  0  0  0
    4.3214    3.3831    5.5768 H   0  0  0  0  0  0  0  0  0  0  0  0
    3.0535    1.7355    4.2534 H   0  0  0  0  0  0  0  0  0  0  0  0
    0.8114   -1.2953   -0.8082 H   0  0  0  0  0  0  0  0  0  0  0  0
    2.4472   -3.2997   -3.1450 H   0  0  0  0  0  0  0  0  0  0  0  0
    4.8952   -3.3253   -3.3956 H   0  0  0  0  0  0  0  0  0  0  0  0
    7.0729   -2.3153   -2.8088 H   0  0  0  0  0  0  0  0  0  0  0  0
    8.5197   -2.2882   -0.8095 H   0  0  0  0  0  0  0  0  0  0  0  0
    7.5696   -1.5559    1.3665 H   0  0  0  0  0  0  0  0  0  0  0  0
    5.2281   -0.8268    1.5053 H   0  0  0  0  0  0  0  0  0  0  0  0
  1  2  2  0  0  0  0
  2  3  1  0  0  0  0
  2 18  1  0  0  0  0
  3  4  1  0  0  0  0
  3 29  1  0  0  0  0
  4  5  1  0  0  0  0
  4 30  1  0  0  0  0
  4 31  1  0  0  0  0
  5  6  2  0  0  0  0
  5 17  1  0  0  0  0
  6  7  1  0  0  0  0
  6 32  1  0  0  0  0
  7  8  2  0  0  0  0
  7 33  1  0  0  0  0
  8  9  1  0  0  0  0
  8 16  1  0  0  0  0
  9 10  2  0  0  0  0
  9 15  1  0  0  0  0
 10 11  1  0  0  0  0
 10 34  1  0  0  0  0
 11 12  1  0  0  0  0
 11 35  1  0  0  0  0
 12 13  2  0  0  0  0
 12 14  1  0  0  0  0
 14 15  2  0  0  0  0
 14 36  1  0  0  0  0
 15 37  1  0  0  0  0
 16 17  2  0  0  0  0
 16 38  1  0  0  0  0
 17 39  1  0  0  0  0
 18 19  2  0  0  0  0
 18 28  1  0  0  0  0
 19 20  1  0  0  0  0
 19 21  1  0  0  0  0
 20 40  1  0  0  0  0
 21 22  2  0  0  0  0
 21 41  1  0  0  0  0
 22 23  1  0  0  0  0
 22 42  1  0  0  0  0
 23 24  2  0  0  0  0
 23 28  1  0  0  0  0
 24 25  1  0  0  0  0
 24 43  1  0  0  0  0
 25 26  2  0  0  0  0
 25 44  1  0  0  0  0
 26 27  1  0  0  0  0
 26 45  1  0  0  0  0
 27 28  2  0  0  0  0
 27 46  1  0  0  0  0
M  END
$$$$
