
 OpenBabel01122422503D

 49 52  0  0  1  0  0  0  0  0999 V2000
    2.1523    0.4890   -0.2511 N   0  0  0  0  0  0  0  0  0  0  0  0
    3.3502    0.0116    0.4499 C   0  0  0  0  0  0  0  0  0  0  0  0
    3.1082   -1.2515    1.3230 C   0  0  3  0  0  0  0  0  0  0  0  0
    2.5717   -2.3492    0.5382 N   0  0  0  0  0  0  0  0  0  0  0  0
    1.2308   -2.5660    0.3548 C   0  0  0  0  0  0  0  0  0  0  0  0
    0.3442   -1.8200    0.7553 O   0  0  0  0  0  0  0  0  0  0  0  0
    0.9038   -3.8803   -0.2737 C   0  0  0  0  0  0  0  0  0  0  0  0
    1.7684   -4.9718   -0.1141 C   0  0  0  0  0  0  0  0  0  0  0  0
    1.3111   -6.2643   -0.3503 C   0  0  0  0  0  0  0  0  0  0  0  0
   -0.0447   -6.4749   -0.6423 C   0  0  0  0  0  0  0  0  0  0  0  0
   -0.6820   -7.7112   -0.1761 N   0  0  0  0  0  0  0  0  0  0  0  0
   -2.0398   -7.5879    0.0449 C   0  0  0  0  0  0  0  0  0  0  0  0
   -2.5523   -7.1928    1.1707 N   0  0  0  0  0  0  0  0  0  0  0  0
   -1.6096   -6.8896    2.1801 C   0  0  0  0  0  0  0  0  0  0  0  0
   -1.8571   -5.8919    3.1172 C   0  0  0  0  0  0  0  0  0  0  0  0
   -0.8589   -5.5288    4.0300 C   0  0  0  0  0  0  0  0  0  0  0  0
    0.3699   -6.2002    4.0492 C   0  0  0  0  0  0  0  0  0  0  0  0
    0.6263   -7.2135    3.1276 C   0  0  0  0  0  0  0  0  0  0  0  0
   -0.3553   -7.5126    2.1833 C   0  0  0  0  0  0  0  0  0  0  0  0
   -0.0402   -8.2606    0.9397 C   0  0  0  0  0  0  0  0  0  0  0  0
    0.7424   -9.2010    0.9283 O   0  0  0  0  0  0  0  0  0  0  0  0
   -0.8217   -5.3768   -1.0556 C   0  0  0  0  0  0  0  0  0  0  0  0
   -0.3575   -4.0765   -0.8369 C   0  0  0  0  0  0  0  0  0  0  0  0
    4.3590   -1.7376    2.0343 C   0  0  0  0  0  0  0  0  0  0  0  0
    4.4038   -1.8142    3.4356 C   0  0  0  0  0  0  0  0  0  0  0  0
    5.5315   -2.3280    4.0859 C   0  0  0  0  0  0  0  0  0  0  0  0
    6.6269   -2.7757    3.3478 C   0  0  0  0  0  0  0  0  0  0  0  0
    6.5965   -2.7084    1.9579 C   0  0  0  0  0  0  0  0  0  0  0  0
    5.4717   -2.1955    1.3173 C   0  0  0  0  0  0  0  0  0  0  0  0
    5.4491   -2.1922   -0.0236 F   0  0  0  0  0  0  0  0  0  0  0  0
    2.2075    1.4915   -0.4094 H   0  0  0  0  0  0  0  0  0  0  0  0
    1.3198    0.3096    0.3192 H   0  0  0  0  0  0  0  0  0  0  0  0
    3.7381    0.8148    1.0860 H   0  0  0  0  0  0  0  0  0  0  0  0
    4.1064   -0.1922   -0.3153 H   0  0  0  0  0  0  0  0  0  0  0  0
    2.3557   -0.9904    2.0804 H   0  0  0  0  0  0  0  0  0  0  0  0
    3.2211   -2.8149   -0.0800 H   0  0  0  0  0  0  0  0  0  0  0  0
    2.7532   -4.8589    0.3317 H   0  0  0  0  0  0  0  0  0  0  0  0
    1.9749   -7.0940   -0.1101 H   0  0  0  0  0  0  0  0  0  0  0  0
   -2.6607   -7.7946   -0.8417 H   0  0  0  0  0  0  0  0  0  0  0  0
   -2.8001   -5.3524    3.0956 H   0  0  0  0  0  0  0  0  0  0  0  0
   -1.0315   -4.6985    4.7116 H   0  0  0  0  0  0  0  0  0  0  0  0
    1.1420   -5.8958    4.7523 H   0  0  0  0  0  0  0  0  0  0  0  0
    1.5996   -7.6940    3.0870 H   0  0  0  0  0  0  0  0  0  0  0  0
   -1.8527   -5.4947   -1.3806 H   0  0  0  0  0  0  0  0  0  0  0  0
   -1.0250   -3.2317   -0.9935 H   0  0  0  0  0  0  0  0  0  0  0  0
    3.5531   -1.4923    4.0339 H   0  0  0  0  0  0  0  0  0  0  0  0
    5.5509   -2.3896    5.1720 H   0  0  0  0  0  0  0  0  0  0  0  0
    7.4974   -3.1851    3.8546 H   0  0  0  0  0  0  0  0  0  0  0  0
    7.4343   -3.0652    1.3669 H   0  0  0  0  0  0  0  0  0  0  0  0
  1  2  1  0  0  0  0
  1 31  1  0  0  0  0
  1 32  1  0  0  0  0
  2  3  1  0  0  0  0
  2 33  1  0  0  0  0
  2 34  1  0  0  0  0
  3  4  1  0  0  0  0
  3 24  1  0  0  0  0
  3 35  1  0  0  0  0
  4  5  1  0  0  0  0
  4 36  1  0  0  0  0
  5  6  2  0  0  0  0
  5  7  1  0  0  0  0
  7  8  2  0  0  0  0
  7 23  1  0  0  0  0
  8  9  1  0  0  0  0
  8 37  1  0  0  0  0
  9 10  2  0  0  0  0
  9 38  1  0  0  0  0
 10 11  1  0  0  0  0
 10 22  1  0  0  0  0
 11 12  1  0  0  0  0
 11 20  1  0  0  0  0
 12 13  2  0  0  0  0
 12 39  1  0  0  0  0
 13 14  1  0  0  0  0
 14 15  2  0  0  0  0
 14 19  1  0  0  0  0
 15 16  1  0  0  0  0
 15 40  1  0  0  0  0
 16 17  2  0  0  0  0
 16 41  1  0  0  0  0
 17 18  1  0  0  0  0
 17 42  1  0  0  0  0
 18 19  2  0  0  0  0
 18 43  1  0  0  0  0
 19 20  1  0  0  0  0
 20 21  2  0  0  0  0
 22 23  2  0  0  0  0
 22 44  1  0  0  0  0
 23 45  1  0  0  0  0
 24 25  2  0  0  0  0
 24 29  1  0  0  0  0
 25 26  1  0  0  0  0
 25 46  1  0  0  0  0
 26 27  2  0  0  0  0
 26 47  1  0  0  0  0
 27 28  1  0  0  0  0
 27 48  1  0  0  0  0
 28 29  2  0  0  0  0
 28 49  1  0  0  0  0
 29 30  1  0  0  0  0
M  END
$$$$
