
 OpenBabel01122422503D

 47 50  0  0  1  0  0  0  0  0999 V2000
    0.9860   -0.0123   -0.0449 C   0  0  0  0  0  0  0  0  0  0  0  0
    2.5162    0.0301   -0.0861 C   0  0  3  0  0  0  0  0  0  0  0  0
    3.0299   -0.6732   -1.2469 N   0  0  0  0  0  0  0  0  0  0  0  0
    3.2932   -2.0182   -1.2261 C   0  0  0  0  0  0  0  0  0  0  0  0
    3.1833   -2.7199   -0.2250 O   0  0  0  0  0  0  0  0  0  0  0  0
    3.7210   -2.5706   -2.5642 C   0  0  0  0  0  0  0  0  0  0  0  0
    3.9965   -3.8768   -2.5949 C   0  0  0  0  0  0  0  0  0  0  0  0
    4.3923   -4.4802   -3.8713 C   0  0  0  0  0  0  0  0  0  0  0  0
    4.6290   -5.6864   -3.9093 O   0  0  0  0  0  0  0  0  0  0  0  0
    4.4606   -3.6118   -4.9509 N   0  0  0  0  0  0  0  0  0  0  0  0
    4.8312   -4.1094   -6.1965 C   0  0  0  0  0  0  0  0  0  0  0  0
    4.9147   -3.3209   -7.2759 C   0  0  0  0  0  0  0  0  0  0  0  0
    4.6145   -1.9184   -7.1619 C   0  0  0  0  0  0  0  0  0  0  0  0
    4.2494   -1.3952   -5.9855 C   0  0  0  0  0  0  0  0  0  0  0  0
    4.1531   -2.2650   -4.7784 C   0  0  0  0  0  0  0  0  0  0  0  0
    3.7919   -1.7287   -3.6514 N   0  0  0  0  0  0  0  0  0  0  0  0
    3.0401    1.4508   -0.0474 C   0  0  0  0  0  0  0  0  0  0  0  0
    3.8896    1.8609    0.9880 C   0  0  0  0  0  0  0  0  0  0  0  0
    4.3686    3.1766    1.0463 C   0  0  0  0  0  0  0  0  0  0  0  0
    4.0081    4.1363    0.0829 C   0  0  0  0  0  0  0  0  0  0  0  0
    4.4659    5.5418    0.1850 C   0  0  0  0  0  0  0  0  0  0  0  0
    4.7351    6.3178   -0.9573 C   0  0  0  0  0  0  0  0  0  0  0  0
    5.0964    7.6642   -0.8593 C   0  0  0  0  0  0  0  0  0  0  0  0
    5.2174    8.2644    0.3888 C   0  0  0  0  0  0  0  0  0  0  0  0
    4.9876    7.5157    1.5381 C   0  0  0  0  0  0  0  0  0  0  0  0
    4.6164    6.1715    1.4358 C   0  0  0  0  0  0  0  0  0  0  0  0
    3.1665    3.6977   -0.9537 C   0  0  0  0  0  0  0  0  0  0  0  0
    2.7564    4.5441   -1.9117 F   0  0  0  0  0  0  0  0  0  0  0  0
    2.6948    2.3865   -1.0274 C   0  0  0  0  0  0  0  0  0  0  0  0
    0.6248   -1.0459   -0.0213 H   0  0  0  0  0  0  0  0  0  0  0  0
    0.5375    0.4670   -0.9223 H   0  0  0  0  0  0  0  0  0  0  0  0
    0.6052    0.4995    0.8464 H   0  0  0  0  0  0  0  0  0  0  0  0
    2.8732   -0.4987    0.8071 H   0  0  0  0  0  0  0  0  0  0  0  0
    3.1024   -0.2051   -2.1450 H   0  0  0  0  0  0  0  0  0  0  0  0
    3.9374   -4.5296   -1.7333 H   0  0  0  0  0  0  0  0  0  0  0  0
    5.0522   -5.1718   -6.2583 H   0  0  0  0  0  0  0  0  0  0  0  0
    5.2059   -3.7191   -8.2433 H   0  0  0  0  0  0  0  0  0  0  0  0
    4.6905   -1.3000   -8.0507 H   0  0  0  0  0  0  0  0  0  0  0  0
    4.0156   -0.3446   -5.8637 H   0  0  0  0  0  0  0  0  0  0  0  0
    4.1849    1.1609    1.7685 H   0  0  0  0  0  0  0  0  0  0  0  0
    5.0344    3.4404    1.8664 H   0  0  0  0  0  0  0  0  0  0  0  0
    4.6537    5.8824   -1.9517 H   0  0  0  0  0  0  0  0  0  0  0  0
    5.2727    8.2423   -1.7629 H   0  0  0  0  0  0  0  0  0  0  0  0
    5.4848    9.3138    0.4660 H   0  0  0  0  0  0  0  0  0  0  0  0
    5.0809    7.9778    2.5176 H   0  0  0  0  0  0  0  0  0  0  0  0
    4.4191    5.6277    2.3572 H   0  0  0  0  0  0  0  0  0  0  0  0
    2.0427    2.1217   -1.8538 H   0  0  0  0  0  0  0  0  0  0  0  0
  1  2  1  0  0  0  0
  1 30  1  0  0  0  0
  1 31  1  0  0  0  0
  1 32  1  0  0  0  0
  2  3  1  0  0  0  0
  2 17  1  0  0  0  0
  2 33  1  0  0  0  0
  3  4  1  0  0  0  0
  3 34  1  0  0  0  0
  4  5  2  0  0  0  0
  4  6  1  0  0  0  0
  6  7  2  0  0  0  0
  6 16  1  0  0  0  0
  7  8  1  0  0  0  0
  7 35  1  0  0  0  0
  8  9  2  0  0  0  0
  8 10  1  0  0  0  0
 10 11  1  0  0  0  0
 10 15  1  0  0  0  0
 11 12  2  0  0  0  0
 11 36  1  0  0  0  0
 12 13  1  0  0  0  0
 12 37  1  0  0  0  0
 13 14  2  0  0  0  0
 13 38  1  0  0  0  0
 14 15  1  0  0  0  0
 14 39  1  0  0  0  0
 15 16  2  0  0  0  0
 17 18  2  0  0  0  0
 17 29  1  0  0  0  0
 18 19  1  0  0  0  0
 18 40  1  0  0  0  0
 19 20  2  0  0  0  0
 19 41  1  0  0  0  0
 20 21  1  0  0  0  0
 20 27  1  0  0  0  0
 21 22  2  0  0  0  0
 21 26  1  0  0  0  0
 22 23  1  0  0  0  0
 22 42  1  0  0  0  0
 23 24  2  0  0  0  0
 23 43  1  0  0  0  0
 24 25  1  0  0  0  0
 24 44  1  0  0  0  0
 25 26  2  0  0  0  0
 25 45  1  0  0  0  0
 26 46  1  0  0  0  0
 27 28  1  0  0  0  0
 27 29  2  0  0  0  0
 29 47  1  0  0  0  0
M  END
$$$$
