
 OpenBabel01122422503D

 52 55  0  0  0  0  0  0  0  0999 V2000
    4.4418   -7.7602   -2.9083 C   0  0  0  0  0  0  0  0  0  0  0  0
    4.0481   -7.2981   -4.1962 O   0  0  0  0  0  0  0  0  0  0  0  0
    4.7764   -6.1991   -4.6079 C   0  0  0  0  0  0  0  0  0  0  0  0
    4.6317   -5.8302   -5.9341 C   0  0  0  0  0  0  0  0  0  0  0  0
    5.4027   -4.7782   -6.4102 C   0  0  0  0  0  0  0  0  0  0  0  0
    6.2604   -4.1178   -5.5366 C   0  0  0  0  0  0  0  0  0  0  0  0
    6.2994   -4.5073   -4.1964 C   0  0  0  0  0  0  0  0  0  0  0  0
    7.1436   -3.6947   -3.2323 C   0  0  0  0  0  0  0  0  0  0  0  0
    7.1953   -4.1647   -1.8468 N   0  0  0  0  0  0  0  0  0  0  0  0
    6.7433   -3.1947   -0.8580 C   0  0  0  0  0  0  0  0  0  0  0  0
    7.8290   -5.3053   -1.3811 C   0  0  0  0  0  0  0  0  0  0  0  0
    7.9895   -5.4650   -0.1604 O   0  0  0  0  0  0  0  0  0  0  0  0
    8.2705   -6.4226   -2.2767 C   0  0  0  0  0  0  0  0  0  0  0  0
    8.2484   -7.6499   -1.7141 C   0  0  0  0  0  0  0  0  0  0  0  0
    8.6720   -8.8181   -2.3017 N   0  0  0  0  0  0  0  0  0  0  0  0
    9.0065   -8.8427   -3.6591 C   0  0  0  0  0  0  0  0  0  0  0  0
    9.4556  -10.0136   -4.2722 C   0  0  0  0  0  0  0  0  0  0  0  0
    9.8274  -10.0041   -5.6207 C   0  0  0  0  0  0  0  0  0  0  0  0
    9.7137   -8.8349   -6.3763 C   0  0  0  0  0  0  0  0  0  0  0  0
   10.1379   -8.8921   -7.6829 O   0  0  0  0  0  0  0  0  0  0  0  0
    9.3005   -8.4555   -8.6886 C   0  0  0  0  0  0  0  0  0  0  0  0
    9.9326   -8.0842   -9.8789 C   0  0  0  0  0  0  0  0  0  0  0  0
    9.1814   -7.6656  -10.9810 C   0  0  0  0  0  0  0  0  0  0  0  0
    7.7909   -7.6286  -10.8977 C   0  0  0  0  0  0  0  0  0  0  0  0
    7.1548   -8.0222   -9.7212 C   0  0  0  0  0  0  0  0  0  0  0  0
    7.9065   -8.4461   -8.6180 C   0  0  0  0  0  0  0  0  0  0  0  0
    9.3381   -7.6420   -5.7607 C   0  0  0  0  0  0  0  0  0  0  0  0
    9.0268   -7.6478   -4.3934 C   0  0  0  0  0  0  0  0  0  0  0  0
    8.8374   -6.3673   -3.6548 C   0  0  0  0  0  0  0  0  0  0  0  0
    9.2390   -5.3368   -4.1849 O   0  0  0  0  0  0  0  0  0  0  0  0
    5.5718   -5.5531   -3.7283 N   0  0  0  0  0  0  0  0  0  0  0  0
    3.8812   -8.6750   -2.6942 H   0  0  0  0  0  0  0  0  0  0  0  0
    4.1980   -7.0268   -2.1324 H   0  0  0  0  0  0  0  0  0  0  0  0
    5.5059   -8.0173   -2.8884 H   0  0  0  0  0  0  0  0  0  0  0  0
    3.9444   -6.3604   -6.5832 H   0  0  0  0  0  0  0  0  0  0  0  0
    5.3364   -4.4731   -7.4504 H   0  0  0  0  0  0  0  0  0  0  0  0
    6.8826   -3.3023   -5.8944 H   0  0  0  0  0  0  0  0  0  0  0  0
    6.7039   -2.6877   -3.2274 H   0  0  0  0  0  0  0  0  0  0  0  0
    8.1648   -3.5479   -3.5840 H   0  0  0  0  0  0  0  0  0  0  0  0
    5.7766   -2.7833   -1.1696 H   0  0  0  0  0  0  0  0  0  0  0  0
    7.4805   -2.3887   -0.8006 H   0  0  0  0  0  0  0  0  0  0  0  0
    6.6180   -3.6316    0.1353 H   0  0  0  0  0  0  0  0  0  0  0  0
    7.8868   -7.8051   -0.7010 H   0  0  0  0  0  0  0  0  0  0  0  0
    8.4319   -9.6912   -1.8443 H   0  0  0  0  0  0  0  0  0  0  0  0
    9.5565  -10.9314   -3.6991 H   0  0  0  0  0  0  0  0  0  0  0  0
   10.2231  -10.9075   -6.0785 H   0  0  0  0  0  0  0  0  0  0  0  0
   11.0167   -8.1246   -9.9550 H   0  0  0  0  0  0  0  0  0  0  0  0
    9.6807   -7.3753  -11.9028 H   0  0  0  0  0  0  0  0  0  0  0  0
    7.2042   -7.3036  -11.7538 H   0  0  0  0  0  0  0  0  0  0  0  0
    6.0681   -8.0122   -9.6640 H   0  0  0  0  0  0  0  0  0  0  0  0
    7.3849   -8.7761   -7.7260 H   0  0  0  0  0  0  0  0  0  0  0  0
    9.3287   -6.7106   -6.3205 H   0  0  0  0  0  0  0  0  0  0  0  0
  1  2  1  0  0  0  0
  1 32  1  0  0  0  0
  1 33  1  0  0  0  0
  1 34  1  0  0  0  0
  2  3  1  0  0  0  0
  3  4  2  0  0  0  0
  3 31  1  0  0  0  0
  4  5  1  0  0  0  0
  4 35  1  0  0  0  0
  5  6  2  0  0  0  0
  5 36  1  0  0  0  0
  6  7  1  0  0  0  0
  6 37  1  0  0  0  0
  7  8  1  0  0  0  0
  7 31  2  0  0  0  0
  8  9  1  0  0  0  0
  8 38  1  0  0  0  0
  8 39  1  0  0  0  0
  9 10  1  0  0  0  0
  9 11  1  0  0  0  0
 10 40  1  0  0  0  0
 10 41  1  0  0  0  0
 10 42  1  0  0  0  0
 11 12  2  0  0  0  0
 11 13  1  0  0  0  0
 13 14  2  0  0  0  0
 13 29  1  0  0  0  0
 14 15  1  0  0  0  0
 14 43  1  0  0  0  0
 15 16  1  0  0  0  0
 15 44  1  0  0  0  0
 16 17  2  0  0  0  0
 16 28  1  0  0  0  0
 17 18  1  0  0  0  0
 17 45  1  0  0  0  0
 18 19  2  0  0  0  0
 18 46  1  0  0  0  0
 19 20  1  0  0  0  0
 19 27  1  0  0  0  0
 20 21  1  0  0  0  0
 21 22  2  0  0  0  0
 21 26  1  0  0  0  0
 22 23  1  0  0  0  0
 22 47  1  0  0  0  0
 23 24  2  0  0  0  0
 23 48  1  0  0  0  0
 24 25  1  0  0  0  0
 24 49  1  0  0  0  0
 25 26  2  0  0  0  0
 25 50  1  0  0  0  0
 26 51  1  0  0  0  0
 27 28  2  0  0  0  0
 27 52  1  0  0  0  0
 28 29  1  0  0  0  0
 29 30  2  0  0  0  0
M  END
$$$$
