
 OpenBabel01122422503D

 52 55  0  0  1  0  0  0  0  0999 V2000
    0.9931    0.0902    0.1338 C   0  0  0  0  0  0  0  0  0  0  0  0
    2.5248    0.0767    0.1745 C   0  0  3  0  0  0  0  0  0  0  0  0
    3.0096    1.1456    1.0437 N   0  0  0  0  0  0  0  0  0  0  0  0
    3.2712    2.4434    0.6459 C   0  0  0  0  0  0  0  0  0  0  0  0
    3.7044    3.2608    1.4556 O   0  0  0  0  0  0  0  0  0  0  0  0
    3.0655    2.7759   -0.7819 C   0  0  0  0  0  0  0  0  0  0  0  0
    2.0860    2.2146   -1.5051 N   0  0  0  0  0  0  0  0  0  0  0  0
    2.3591    2.4990   -2.7870 N   0  0  0  0  0  0  0  0  0  0  0  0
    1.7565    1.6892   -3.7984 C   0  0  0  0  0  0  0  0  0  0  0  0
    0.5442    1.0223   -3.5413 C   0  0  0  0  0  0  0  0  0  0  0  0
   -0.0618    0.2476   -4.5364 C   0  0  0  0  0  0  0  0  0  0  0  0
    0.5547    0.1045   -5.7777 C   0  0  0  0  0  0  0  0  0  0  0  0
    1.7773    0.7257   -6.0222 C   0  0  0  0  0  0  0  0  0  0  0  0
    2.3804    1.5107   -5.0375 C   0  0  0  0  0  0  0  0  0  0  0  0
    3.2895    3.5286   -2.8678 C   0  0  0  0  0  0  0  0  0  0  0  0
    3.5796    4.2921   -4.0412 C   0  0  0  0  0  0  0  0  0  0  0  0
    4.8126    4.8785   -4.0713 N   0  0  0  0  0  0  0  0  0  0  0  0
    2.8242    4.4488   -4.9831 O   0  0  0  0  0  0  0  0  0  0  0  0
    3.7661    3.6983   -1.5722 C   0  0  0  0  0  0  0  0  0  0  0  0
    3.0635   -1.2764    0.5634 C   0  0  0  0  0  0  0  0  0  0  0  0
    3.8936   -1.9999   -0.3072 C   0  0  0  0  0  0  0  0  0  0  0  0
    4.3975   -3.2473    0.0672 C   0  0  0  0  0  0  0  0  0  0  0  0
    4.0769   -3.8161    1.3064 C   0  0  0  0  0  0  0  0  0  0  0  0
    4.5958   -5.1392    1.7015 C   0  0  0  0  0  0  0  0  0  0  0  0
    4.8486   -5.4769    3.0405 C   0  0  0  0  0  0  0  0  0  0  0  0
    5.3213   -6.7446    3.3733 C   0  0  0  0  0  0  0  0  0  0  0  0
    5.5478   -7.6494    2.3545 C   0  0  0  0  0  0  0  0  0  0  0  0
    5.3337   -7.3789    1.0536 N   0  0  0  0  0  0  0  0  0  0  0  0
    4.8607   -6.1425    0.7661 C   0  0  0  0  0  0  0  0  0  0  0  0
    3.2184   -3.0940    2.1488 C   0  0  0  0  0  0  0  0  0  0  0  0
    2.7183   -1.8495    1.7940 C   0  0  0  0  0  0  0  0  0  0  0  0
    0.5871    1.0844   -0.0784 H   0  0  0  0  0  0  0  0  0  0  0  0
    0.5602   -0.1888    1.0974 H   0  0  0  0  0  0  0  0  0  0  0  0
    0.6212   -0.5966   -0.6314 H   0  0  0  0  0  0  0  0  0  0  0  0
    2.9346    0.2453   -0.8262 H   0  0  0  0  0  0  0  0  0  0  0  0
    3.0012    1.0112    2.0448 H   0  0  0  0  0  0  0  0  0  0  0  0
    0.0320    1.1287   -2.5860 H   0  0  0  0  0  0  0  0  0  0  0  0
   -1.0219   -0.2298   -4.3526 H   0  0  0  0  0  0  0  0  0  0  0  0
    0.0831   -0.4874   -6.5582 H   0  0  0  0  0  0  0  0  0  0  0  0
    2.2643    0.6117   -6.9869 H   0  0  0  0  0  0  0  0  0  0  0  0
    3.3449    1.9529   -5.2575 H   0  0  0  0  0  0  0  0  0  0  0  0
    5.5304    4.7212   -3.3776 H   0  0  0  0  0  0  0  0  0  0  0  0
    5.0277    5.4220   -4.8915 H   0  0  0  0  0  0  0  0  0  0  0  0
    4.5020    4.4109   -1.2353 H   0  0  0  0  0  0  0  0  0  0  0  0
    4.1551   -1.6085   -1.2922 H   0  0  0  0  0  0  0  0  0  0  0  0
    5.0573   -3.7599   -0.6325 H   0  0  0  0  0  0  0  0  0  0  0  0
    4.6874   -4.7578    3.8414 H   0  0  0  0  0  0  0  0  0  0  0  0
    5.5096   -7.0185    4.4066 H   0  0  0  0  0  0  0  0  0  0  0  0
    5.9187   -8.6464    2.5634 H   0  0  0  0  0  0  0  0  0  0  0  0
    4.6828   -5.9847   -0.2943 H   0  0  0  0  0  0  0  0  0  0  0  0
    2.9098   -3.4971    3.1133 H   0  0  0  0  0  0  0  0  0  0  0  0
    2.0423   -1.3308    2.4627 H   0  0  0  0  0  0  0  0  0  0  0  0
  1  2  1  0  0  0  0
  1 32  1  0  0  0  0
  1 33  1  0  0  0  0
  1 34  1  0  0  0  0
  2  3  1  0  0  0  0
  2 20  1  0  0  0  0
  2 35  1  0  0  0  0
  3  4  1  0  0  0  0
  3 36  1  0  0  0  0
  4  5  2  0  0  0  0
  4  6  1  0  0  0  0
  6  7  2  0  0  0  0
  6 19  1  0  0  0  0
  7  8  1  0  0  0  0
  8  9  1  0  0  0  0
  8 15  1  0  0  0  0
  9 10  2  0  0  0  0
  9 14  1  0  0  0  0
 10 11  1  0  0  0  0
 10 37  1  0  0  0  0
 11 12  2  0  0  0  0
 11 38  1  0  0  0  0
 12 13  1  0  0  0  0
 12 39  1  0  0  0  0
 13 14  2  0  0  0  0
 13 40  1  0  0  0  0
 14 41  1  0  0  0  0
 15 16  1  0  0  0  0
 15 19  2  0  0  0  0
 16 17  1  0  0  0  0
 16 18  2  0  0  0  0
 17 42  1  0  0  0  0
 17 43  1  0  0  0  0
 19 44  1  0  0  0  0
 20 21  2  0  0  0  0
 20 31  1  0  0  0  0
 21 22  1  0  0  0  0
 21 45  1  0  0  0  0
 22 23  2  0  0  0  0
 22 46  1  0  0  0  0
 23 24  1  0  0  0  0
 23 30  1  0  0  0  0
 24 25  2  0  0  0  0
 24 29  1  0  0  0  0
 25 26  1  0  0  0  0
 25 47  1  0  0  0  0
 26 27  2  0  0  0  0
 26 48  1  0  0  0  0
 27 28  1  0  0  0  0
 27 49  1  0  0  0  0
 28 29  2  0  0  0  0
 29 50  1  0  0  0  0
 30 31  2  0  0  0  0
 30 51  1  0  0  0  0
 31 52  1  0  0  0  0
M  END
$$$$
