
 OpenBabel01122422503D

 48 51  0  0  0  0  0  0  0  0999 V2000
    1.0381   -0.1373   -0.0317 O   0  0  0  0  0  0  0  0  0  0  0  0
    2.2469   -0.0786    0.1622 C   0  0  0  0  0  0  0  0  0  0  0  0
    2.9233    0.9262    0.8319 N   0  0  0  0  0  0  0  0  0  0  0  0
    2.3300    2.0494    1.4527 C   0  0  0  0  0  0  0  0  0  0  0  0
    0.9717    2.1535    1.7436 C   0  0  0  0  0  0  0  0  0  0  0  0
    0.4711    3.3187    2.3243 C   0  0  0  0  0  0  0  0  0  0  0  0
    1.3523    4.3484    2.6049 C   0  0  0  0  0  0  0  0  0  0  0  0
    2.6789    4.2814    2.3664 N   0  0  0  0  0  0  0  0  0  0  0  0
    3.1326    3.1346    1.8031 C   0  0  0  0  0  0  0  0  0  0  0  0
    3.1028   -1.1460   -0.4257 C   0  0  0  0  0  0  0  0  0  0  0  0
    2.7188   -1.7051   -1.6498 C   0  0  0  0  0  0  0  0  0  0  0  0
    3.4474   -2.7609   -2.2050 C   0  0  0  0  0  0  0  0  0  0  0  0
    4.5567   -3.2890   -1.5302 C   0  0  0  0  0  0  0  0  0  0  0  0
    5.2798   -4.5017   -2.0659 C   0  0  0  0  0  0  0  0  0  0  0  0
    6.3633   -4.1614   -2.9472 N   0  0  0  0  0  0  0  0  0  0  0  0
    7.6508   -3.9803   -2.4938 C   0  0  0  0  0  0  0  0  0  0  0  0
    7.9579   -4.0982   -1.3075 O   0  0  0  0  0  0  0  0  0  0  0  0
    8.6037   -3.6000   -3.5415 C   0  0  0  0  0  0  0  0  0  0  0  0
    8.4088   -3.9981   -4.8143 N   0  0  0  0  0  0  0  0  0  0  0  0
    9.4828   -3.5122   -5.5328 O   0  0  0  0  0  0  0  0  0  0  0  0
   10.2898   -2.7975   -4.7146 C   0  0  0  0  0  0  0  0  0  0  0  0
    9.7886   -2.8093   -3.4324 C   0  0  0  0  0  0  0  0  0  0  0  0
   10.3940   -2.1183   -2.3048 C   0  0  0  0  0  0  0  0  0  0  0  0
    9.5911   -1.5876   -1.2850 C   0  0  0  0  0  0  0  0  0  0  0  0
   10.1615   -1.0416   -0.1343 C   0  0  0  0  0  0  0  0  0  0  0  0
   11.5450   -0.9781   -0.0082 C   0  0  0  0  0  0  0  0  0  0  0  0
   12.3569   -1.4406   -1.0416 C   0  0  0  0  0  0  0  0  0  0  0  0
   11.7862   -2.0079   -2.1849 C   0  0  0  0  0  0  0  0  0  0  0  0
    4.9557   -2.7005   -0.3188 C   0  0  0  0  0  0  0  0  0  0  0  0
    4.2312   -1.6392    0.2375 C   0  0  0  0  0  0  0  0  0  0  0  0
    3.9318    0.9399    0.7474 H   0  0  0  0  0  0  0  0  0  0  0  0
    0.2793    1.3431    1.5390 H   0  0  0  0  0  0  0  0  0  0  0  0
   -0.5859    3.4153    2.5470 H   0  0  0  0  0  0  0  0  0  0  0  0
    1.0031    5.2794    3.0422 H   0  0  0  0  0  0  0  0  0  0  0  0
    4.2023    3.1311    1.6156 H   0  0  0  0  0  0  0  0  0  0  0  0
    1.8348   -1.3316   -2.1649 H   0  0  0  0  0  0  0  0  0  0  0  0
    3.1192   -3.1891   -3.1496 H   0  0  0  0  0  0  0  0  0  0  0  0
    4.5854   -5.1341   -2.6299 H   0  0  0  0  0  0  0  0  0  0  0  0
    5.6545   -5.1075   -1.2326 H   0  0  0  0  0  0  0  0  0  0  0  0
    6.2012   -4.0585   -3.9424 H   0  0  0  0  0  0  0  0  0  0  0  0
   11.1479   -2.3478   -5.1927 H   0  0  0  0  0  0  0  0  0  0  0  0
    8.5064   -1.6164   -1.3497 H   0  0  0  0  0  0  0  0  0  0  0  0
    9.5209   -0.6881    0.6692 H   0  0  0  0  0  0  0  0  0  0  0  0
   11.9892   -0.5743    0.8975 H   0  0  0  0  0  0  0  0  0  0  0  0
   13.4382   -1.3831   -0.9468 H   0  0  0  0  0  0  0  0  0  0  0  0
   12.4485   -2.3897   -2.9576 H   0  0  0  0  0  0  0  0  0  0  0  0
    5.8181   -3.0953    0.2178 H   0  0  0  0  0  0  0  0  0  0  0  0
    4.5304   -1.2530    1.2072 H   0  0  0  0  0  0  0  0  0  0  0  0
  1  2  2  0  0  0  0
  2  3  1  0  0  0  0
  2 10  1  0  0  0  0
  3  4  1  0  0  0  0
  3 31  1  0  0  0  0
  4  5  2  0  0  0  0
  4  9  1  0  0  0  0
  5  6  1  0  0  0  0
  5 32  1  0  0  0  0
  6  7  2  0  0  0  0
  6 33  1  0  0  0  0
  7  8  1  0  0  0  0
  7 34  1  0  0  0  0
  8  9  2  0  0  0  0
  9 35  1  0  0  0  0
 10 11  2  0  0  0  0
 10 30  1  0  0  0  0
 11 12  1  0  0  0  0
 11 36  1  0  0  0  0
 12 13  2  0  0  0  0
 12 37  1  0  0  0  0
 13 14  1  0  0  0  0
 13 29  1  0  0  0  0
 14 15  1  0  0  0  0
 14 38  1  0  0  0  0
 14 39  1  0  0  0  0
 15 16  1  0  0  0  0
 15 40  1  0  0  0  0
 16 17  2  0  0  0  0
 16 18  1  0  0  0  0
 18 19  2  0  0  0  0
 18 22  1  0  0  0  0
 19 20  1  0  0  0  0
 20 21  1  0  0  0  0
 21 22  2  0  0  0  0
 21 41  1  0  0  0  0
 22 23  1  0  0  0  0
 23 24  2  0  0  0  0
 23 28  1  0  0  0  0
 24 25  1  0  0  0  0
 24 42  1  0  0  0  0
 25 26  2  0  0  0  0
 25 43  1  0  0  0  0
 26 27  1  0  0  0  0
 26 44  1  0  0  0  0
 27 28  2  0  0  0  0
 27 45  1  0  0  0  0
 28 46  1  0  0  0  0
 29 30  2  0  0  0  0
 29 47  1  0  0  0  0
 30 48  1  0  0  0  0
M  END
$$$$
