
 OpenBabel01122422503D

 45 48  0  0  1  0  0  0  0  0999 V2000
    1.7614   -1.9112   -0.2855 N   0  0  0  0  0  0  0  0  0  0  0  0
    2.6440   -1.0179   -0.1718 C   0  0  0  0  0  0  0  0  0  0  0  0
    3.7080    0.0590   -0.0347 C   0  0  3  0  0  0  0  0  0  0  0  0
    4.8131   -0.4741    0.8994 C   0  0  0  0  0  0  0  0  0  0  0  0
    5.1053   -1.8542    0.9928 C   0  0  0  0  0  0  0  0  0  0  0  0
    6.0594   -2.3362    1.8884 C   0  0  0  0  0  0  0  0  0  0  0  0
    6.7593   -1.4478    2.6949 C   0  0  0  0  0  0  0  0  0  0  0  0
    6.5052   -0.0797    2.6027 C   0  0  0  0  0  0  0  0  0  0  0  0
    5.5412    0.4071    1.7124 C   0  0  0  0  0  0  0  0  0  0  0  0
    4.2302    0.5218   -1.3743 C   0  0  0  0  0  0  0  0  0  0  0  0
    4.0753    1.8679   -1.7157 C   0  0  0  0  0  0  0  0  0  0  0  0
    4.4949    2.3356   -2.9543 C   0  0  0  0  0  0  0  0  0  0  0  0
    5.0824    1.4805   -3.8824 C   0  0  0  0  0  0  0  0  0  0  0  0
    5.4977    1.9036   -5.1575 N   0  0  0  0  0  0  0  0  0  0  0  0
    5.3527    3.1574   -5.7092 C   0  0  0  0  0  0  0  0  0  0  0  0
    4.7972    4.1150   -5.1735 O   0  0  0  0  0  0  0  0  0  0  0  0
    5.9469    3.3264   -7.0744 C   0  0  0  0  0  0  0  0  0  0  0  0
    5.7657    4.5276   -7.6525 C   0  0  0  0  0  0  0  0  0  0  0  0
    6.3187    4.8438   -8.8678 N   0  0  0  0  0  0  0  0  0  0  0  0
    7.1283    4.0009   -9.5892 C   0  0  0  0  0  0  0  0  0  0  0  0
    7.6334    4.3326  -10.6539 O   0  0  0  0  0  0  0  0  0  0  0  0
    7.3568    2.6637   -9.0049 C   0  0  0  0  0  0  0  0  0  0  0  0
    8.1734    1.7280   -9.6385 C   0  0  0  0  0  0  0  0  0  0  0  0
    8.3471    0.4763   -9.0555 C   0  0  0  0  0  0  0  0  0  0  0  0
    7.6849    0.2049   -7.8707 C   0  0  0  0  0  0  0  0  0  0  0  0
    6.8939    1.0968   -7.2303 N   0  0  0  0  0  0  0  0  0  0  0  0
    6.7504    2.3281   -7.7975 C   0  0  0  0  0  0  0  0  0  0  0  0
    5.2727    0.1379   -3.5383 C   0  0  0  0  0  0  0  0  0  0  0  0
    4.8490   -0.3411   -2.2939 C   0  0  0  0  0  0  0  0  0  0  0  0
    3.2193    0.8944    0.4863 H   0  0  0  0  0  0  0  0  0  0  0  0
    4.5767   -2.5897    0.3869 H   0  0  0  0  0  0  0  0  0  0  0  0
    6.2440   -3.4056    1.9599 H   0  0  0  0  0  0  0  0  0  0  0  0
    7.5005   -1.8229    3.3957 H   0  0  0  0  0  0  0  0  0  0  0  0
    7.0572    0.6104    3.2363 H   0  0  0  0  0  0  0  0  0  0  0  0
    5.3573    1.4783    1.6722 H   0  0  0  0  0  0  0  0  0  0  0  0
    3.6149    2.5725   -1.0267 H   0  0  0  0  0  0  0  0  0  0  0  0
    4.3437    3.3915   -3.1579 H   0  0  0  0  0  0  0  0  0  0  0  0
    5.9601    1.2073   -5.7435 H   0  0  0  0  0  0  0  0  0  0  0  0
    5.1892    5.3232   -7.1850 H   0  0  0  0  0  0  0  0  0  0  0  0
    6.1696    5.7662   -9.2645 H   0  0  0  0  0  0  0  0  0  0  0  0
    8.6758    1.9747  -10.5715 H   0  0  0  0  0  0  0  0  0  0  0  0
    8.9849   -0.2713   -9.5154 H   0  0  0  0  0  0  0  0  0  0  0  0
    7.7801   -0.7638   -7.3855 H   0  0  0  0  0  0  0  0  0  0  0  0
    5.7397   -0.5557   -4.2353 H   0  0  0  0  0  0  0  0  0  0  0  0
    4.9993   -1.3933   -2.0583 H   0  0  0  0  0  0  0  0  0  0  0  0
  1  2  3  0  0  0  0
  2  3  1  0  0  0  0
  3  4  1  0  0  0  0
  3 10  1  0  0  0  0
  3 30  1  0  0  0  0
  4  5  2  0  0  0  0
  4  9  1  0  0  0  0
  5  6  1  0  0  0  0
  5 31  1  0  0  0  0
  6  7  2  0  0  0  0
  6 32  1  0  0  0  0
  7  8  1  0  0  0  0
  7 33  1  0  0  0  0
  8  9  2  0  0  0  0
  8 34  1  0  0  0  0
  9 35  1  0  0  0  0
 10 11  2  0  0  0  0
 10 29  1  0  0  0  0
 11 12  1  0  0  0  0
 11 36  1  0  0  0  0
 12 13  2  0  0  0  0
 12 37  1  0  0  0  0
 13 14  1  0  0  0  0
 13 28  1  0  0  0  0
 14 15  1  0  0  0  0
 14 38  1  0  0  0  0
 15 16  2  0  0  0  0
 15 17  1  0  0  0  0
 17 18  2  0  0  0  0
 17 27  1  0  0  0  0
 18 19  1  0  0  0  0
 18 39  1  0  0  0  0
 19 20  1  0  0  0  0
 19 40  1  0  0  0  0
 20 21  2  0  0  0  0
 20 22  1  0  0  0  0
 22 23  2  0  0  0  0
 22 27  1  0  0  0  0
 23 24  1  0  0  0  0
 23 41  1  0  0  0  0
 24 25  2  0  0  0  0
 24 42  1  0  0  0  0
 25 26  1  0  0  0  0
 25 43  1  0  0  0  0
 26 27  2  0  0  0  0
 28 29  2  0  0  0  0
 28 44  1  0  0  0  0
 29 45  1  0  0  0  0
M  END
$$$$
