
 OpenBabel01122422503D

 58 61  0  0  1  0  0  0  0  0999 V2000
    1.4520   -7.6699   -7.7097 N   0  0  0  0  0  0  0  0  0  0  0  0
    0.9485   -6.9250   -8.9086 C   0  0  1  0  0  0  0  0  0  0  0  0
    1.7523   -5.6462   -9.1876 C   0  0  0  0  0  0  0  0  0  0  0  0
    1.6906   -4.5657   -8.1116 C   0  0  0  0  0  0  0  0  0  0  0  0
    2.6261   -4.5402   -7.0735 C   0  0  0  0  0  0  0  0  0  0  0  0
    2.6368   -3.4947   -6.1558 C   0  0  0  0  0  0  0  0  0  0  0  0
    1.7146   -2.4550   -6.2583 C   0  0  0  0  0  0  0  0  0  0  0  0
    0.7860   -2.4561   -7.2937 C   0  0  0  0  0  0  0  0  0  0  0  0
   -0.1484   -1.4083   -7.5021 N   0  0  0  0  0  0  0  0  0  0  0  0
   -0.2932   -0.2152   -6.7920 C   0  0  0  0  0  0  0  0  0  0  0  0
    0.2895    0.0507   -5.7467 O   0  0  0  0  0  0  0  0  0  0  0  0
   -1.3562    0.7318   -7.3352 C   0  0  0  0  0  0  0  0  0  0  0  0
   -1.6025    0.5573   -8.8071 C   0  0  0  0  0  0  0  0  0  0  0  0
   -2.6749   -0.0858   -9.3912 C   0  0  0  0  0  0  0  0  0  0  0  0
   -2.4687   -0.0266  -10.7443 N   0  0  0  0  0  0  0  0  0  0  0  0
   -1.1200    0.1127  -10.9617 C   0  0  0  0  0  0  0  0  0  0  0  0
   -0.2726   -0.3100  -11.9961 C   0  0  0  0  0  0  0  0  0  0  0  0
    1.0713    0.0716  -11.8903 C   0  0  0  0  0  0  0  0  0  0  0  0
    1.9485   -0.5958  -12.7122 O   0  0  0  0  0  0  0  0  0  0  0  0
    3.2993   -0.7038  -12.2392 C   0  0  0  0  0  0  0  0  0  0  0  0
    3.7420   -2.1327  -12.0218 C   0  0  0  0  0  0  0  0  0  0  0  0
    4.3504   -2.8713  -13.0396 C   0  0  0  0  0  0  0  0  0  0  0  0
    4.8574   -4.1503  -12.7800 C   0  0  0  0  0  0  0  0  0  0  0  0
    4.7969   -4.6777  -11.4944 C   0  0  0  0  0  0  0  0  0  0  0  0
    4.2173   -3.9310  -10.4744 C   0  0  0  0  0  0  0  0  0  0  0  0
    3.6469   -2.6894  -10.7422 C   0  0  0  0  0  0  0  0  0  0  0  0
    1.4497    1.0567  -10.9746 C   0  0  0  0  0  0  0  0  0  0  0  0
    0.6021    1.4244   -9.9255 C   0  0  0  0  0  0  0  0  0  0  0  0
   -0.6611    0.8202   -9.8531 C   0  0  0  0  0  0  0  0  0  0  0  0
    0.7648   -3.5185   -8.2109 C   0  0  0  0  0  0  0  0  0  0  0  0
    1.0507   -7.8694  -10.1243 C   0  0  0  0  0  0  0  0  0  0  0  0
    1.1087   -7.5345  -11.2960 O   0  0  0  0  0  0  0  0  0  0  0  0
    1.0699   -9.1765   -9.7297 O   0  0  0  0  0  0  0  0  0  0  0  0
    1.3458   -7.0399   -6.9063 H   0  0  0  0  0  0  0  0  0  0  0  0
    2.4694   -7.7673   -7.8048 H   0  0  0  0  0  0  0  0  0  0  0  0
   -0.1122   -6.7047   -8.7585 H   0  0  0  0  0  0  0  0  0  0  0  0
    1.4269   -5.2081  -10.1383 H   0  0  0  0  0  0  0  0  0  0  0  0
    2.7920   -5.9395   -9.3412 H   0  0  0  0  0  0  0  0  0  0  0  0
    3.3870   -5.3212   -6.9931 H   0  0  0  0  0  0  0  0  0  0  0  0
    3.3824   -3.4676   -5.3655 H   0  0  0  0  0  0  0  0  0  0  0  0
    1.7749   -1.6456   -5.5405 H   0  0  0  0  0  0  0  0  0  0  0  0
   -0.7198   -1.5161   -8.3289 H   0  0  0  0  0  0  0  0  0  0  0  0
   -1.0272    1.7617   -7.1541 H   0  0  0  0  0  0  0  0  0  0  0  0
   -2.2858    0.5723   -6.7799 H   0  0  0  0  0  0  0  0  0  0  0  0
   -3.5621   -0.5483   -8.9734 H   0  0  0  0  0  0  0  0  0  0  0  0
   -3.1806   -0.0835  -11.4609 H   0  0  0  0  0  0  0  0  0  0  0  0
   -0.6060   -0.9975  -12.7608 H   0  0  0  0  0  0  0  0  0  0  0  0
    3.4941   -0.1799  -11.2973 H   0  0  0  0  0  0  0  0  0  0  0  0
    3.9487   -0.2288  -12.9822 H   0  0  0  0  0  0  0  0  0  0  0  0
    4.4613   -2.4541  -14.0326 H   0  0  0  0  0  0  0  0  0  0  0  0
    5.3294   -4.7232  -13.5758 H   0  0  0  0  0  0  0  0  0  0  0  0
    5.1816   -5.6723  -11.2913 H   0  0  0  0  0  0  0  0  0  0  0  0
    4.2114   -4.3232   -9.4651 H   0  0  0  0  0  0  0  0  0  0  0  0
    3.1557   -2.1529   -9.9300 H   0  0  0  0  0  0  0  0  0  0  0  0
    2.4354    1.5120  -11.0051 H   0  0  0  0  0  0  0  0  0  0  0  0
    0.9582    2.0840   -9.1415 H   0  0  0  0  0  0  0  0  0  0  0  0
    0.0641   -3.4989   -9.0447 H   0  0  0  0  0  0  0  0  0  0  0  0
    1.0477   -9.1684   -8.7398 H   0  0  0  0  0  0  0  0  0  0  0  0
  1  2  1  0  0  0  0
  1 34  1  0  0  0  0
  1 35  1  0  0  0  0
  2  3  1  0  0  0  0
  2 31  1  0  0  0  0
  2 36  1  1  0  0  0
  3  4  1  0  0  0  0
  3 37  1  0  0  0  0
  3 38  1  0  0  0  0
  4  5  2  0  0  0  0
  4 30  1  0  0  0  0
  5  6  1  0  0  0  0
  5 39  1  0  0  0  0
  6  7  2  0  0  0  0
  6 40  1  0  0  0  0
  7  8  1  0  0  0  0
  7 41  1  0  0  0  0
  8  9  1  0  0  0  0
  8 30  2  0  0  0  0
  9 10  1  0  0  0  0
  9 42  1  0  0  0  0
 10 11  2  0  0  0  0
 10 12  1  0  0  0  0
 12 13  1  0  0  0  0
 12 43  1  0  0  0  0
 12 44  1  0  0  0  0
 13 14  2  0  0  0  0
 13 29  1  0  0  0  0
 14 15  1  0  0  0  0
 14 45  1  0  0  0  0
 15 16  1  0  0  0  0
 15 46  1  0  0  0  0
 16 17  2  0  0  0  0
 16 29  1  0  0  0  0
 17 18  1  0  0  0  0
 17 47  1  0  0  0  0
 18 19  1  0  0  0  0
 18 27  2  0  0  0  0
 19 20  1  0  0  0  0
 20 21  1  0  0  0  0
 20 48  1  0  0  0  0
 20 49  1  0  0  0  0
 21 22  2  0  0  0  0
 21 26  1  0  0  0  0
 22 23  1  0  0  0  0
 22 50  1  0  0  0  0
 23 24  2  0  0  0  0
 23 51  1  0  0  0  0
 24 25  1  0  0  0  0
 24 52  1  0  0  0  0
 25 26  2  0  0  0  0
 25 53  1  0  0  0  0
 26 54  1  0  0  0  0
 27 28  1  0  0  0  0
 27 55  1  0  0  0  0
 28 29  2  0  0  0  0
 28 56  1  0  0  0  0
 30 57  1  0  0  0  0
 31 32  2  0  0  0  0
 31 33  1  0  0  0  0
 33 58  1  0  0  0  0
M  END
$$$$
