
 OpenBabel01122422453D

 47 50  0  0  0  0  0  0  0  0999 V2000
    2.5408    0.9522    1.1032 O   0  0  0  0  0  0  0  0  0  0  0  0
    2.2191    0.0238    0.3781 C   0  0  0  0  0  0  0  0  0  0  0  0
    1.1840    0.0140   -0.4958 O   0  0  0  0  0  0  0  0  0  0  0  0
    0.3484    1.1824   -0.5684 C   0  0  0  0  0  0  0  0  0  0  0  0
    0.2767    1.7367   -1.9780 C   0  0  0  0  0  0  0  0  0  0  0  0
    0.4028    0.9132   -3.1043 C   0  0  0  0  0  0  0  0  0  0  0  0
    0.2491    1.4360   -4.3919 C   0  0  0  0  0  0  0  0  0  0  0  0
   -0.0452    2.7867   -4.5709 C   0  0  0  0  0  0  0  0  0  0  0  0
   -0.1786    3.6170   -3.4633 C   0  0  0  0  0  0  0  0  0  0  0  0
   -0.0222    3.0972   -2.1739 C   0  0  0  0  0  0  0  0  0  0  0  0
    2.9475   -1.2789    0.3611 C   0  0  0  0  0  0  0  0  0  0  0  0
    2.5356   -2.3166   -0.4787 C   0  0  0  0  0  0  0  0  0  0  0  0
    3.2195   -3.5340   -0.5347 C   0  0  0  0  0  0  0  0  0  0  0  0
    2.8039   -4.5905   -1.3703 N   0  0  0  0  0  0  0  0  0  0  0  0
    1.6860   -4.5948   -2.1901 C   0  0  0  0  0  0  0  0  0  0  0  0
    0.8594   -3.6938   -2.3263 O   0  0  0  0  0  0  0  0  0  0  0  0
    1.5118   -5.8232   -3.0118 C   0  0  0  0  0  0  0  0  0  0  0  0
    0.4280   -5.9176   -3.8744 C   0  0  0  0  0  0  0  0  0  0  0  0
    0.4011   -6.9703   -4.7759 C   0  0  0  0  0  0  0  0  0  0  0  0
    1.4662   -7.8803   -4.8016 C   0  0  0  0  0  0  0  0  0  0  0  0
    1.5405   -8.8857   -5.7766 C   0  0  0  0  0  0  0  0  0  0  0  0
    2.6393   -9.7287   -5.7759 C   0  0  0  0  0  0  0  0  0  0  0  0
    3.6247   -9.6696   -4.8575 N   0  0  0  0  0  0  0  0  0  0  0  0
    3.5054   -8.6918   -3.9338 C   0  0  0  0  0  0  0  0  0  0  0  0
    4.5447   -8.6819   -3.0505 O   0  0  0  0  0  0  0  0  0  0  0  0
    2.4922   -7.7432   -3.8435 C   0  0  0  0  0  0  0  0  0  0  0  0
    2.5107   -6.7340   -2.9408 N   0  0  0  0  0  0  0  0  0  0  0  0
    4.3566   -3.7040    0.2632 C   0  0  0  0  0  0  0  0  0  0  0  0
    4.7674   -2.6818    1.1281 C   0  0  0  0  0  0  0  0  0  0  0  0
    4.0607   -1.4763    1.1846 C   0  0  0  0  0  0  0  0  0  0  0  0
    0.6680    1.9612    0.1298 H   0  0  0  0  0  0  0  0  0  0  0  0
   -0.6645    0.8741   -0.2859 H   0  0  0  0  0  0  0  0  0  0  0  0
    0.6128   -0.1488   -2.9892 H   0  0  0  0  0  0  0  0  0  0  0  0
    0.3494    0.7831   -5.2558 H   0  0  0  0  0  0  0  0  0  0  0  0
   -0.1756    3.1868   -5.5728 H   0  0  0  0  0  0  0  0  0  0  0  0
   -0.4136    4.6709   -3.5980 H   0  0  0  0  0  0  0  0  0  0  0  0
   -0.1446    3.7609   -1.3223 H   0  0  0  0  0  0  0  0  0  0  0  0
    1.6659   -2.1471   -1.0966 H   0  0  0  0  0  0  0  0  0  0  0  0
    3.3671   -5.4392   -1.4017 H   0  0  0  0  0  0  0  0  0  0  0  0
   -0.3491   -5.1592   -3.8782 H   0  0  0  0  0  0  0  0  0  0  0  0
   -0.4228   -7.0421   -5.4824 H   0  0  0  0  0  0  0  0  0  0  0  0
    0.7795   -8.9912   -6.5433 H   0  0  0  0  0  0  0  0  0  0  0  0
    2.7613  -10.4888   -6.5426 H   0  0  0  0  0  0  0  0  0  0  0  0
    5.0570   -9.4363   -3.3824 H   0  0  0  0  0  0  0  0  0  0  0  0
    4.9284   -4.6289    0.2317 H   0  0  0  0  0  0  0  0  0  0  0  0
    5.6431   -2.8248    1.7598 H   0  0  0  0  0  0  0  0  0  0  0  0
    4.3842   -0.6922    1.8676 H   0  0  0  0  0  0  0  0  0  0  0  0
  1  2  2  0  0  0  0
  2  3  1  0  0  0  0
  2 11  1  0  0  0  0
  3  4  1  0  0  0  0
  4  5  1  0  0  0  0
  4 31  1  0  0  0  0
  4 32  1  0  0  0  0
  5  6  2  0  0  0  0
  5 10  1  0  0  0  0
  6  7  1  0  0  0  0
  6 33  1  0  0  0  0
  7  8  2  0  0  0  0
  7 34  1  0  0  0  0
  8  9  1  0  0  0  0
  8 35  1  0  0  0  0
  9 10  2  0  0  0  0
  9 36  1  0  0  0  0
 10 37  1  0  0  0  0
 11 12  2  0  0  0  0
 11 30  1  0  0  0  0
 12 13  1  0  0  0  0
 12 38  1  0  0  0  0
 13 14  1  0  0  0  0
 13 28  2  0  0  0  0
 14 15  1  0  0  0  0
 14 39  1  0  0  0  0
 15 16  2  0  0  0  0
 15 17  1  0  0  0  0
 17 18  2  0  0  0  0
 17 27  1  0  0  0  0
 18 19  1  0  0  0  0
 18 40  1  0  0  0  0
 19 20  2  0  0  0  0
 19 41  1  0  0  0  0
 20 21  1  0  0  0  0
 20 26  1  0  0  0  0
 21 22  2  0  0  0  0
 21 42  1  0  0  0  0
 22 23  1  0  0  0  0
 22 43  1  0  0  0  0
 23 24  2  0  0  0  0
 24 25  1  0  0  0  0
 24 26  1  0  0  0  0
 25 44  1  0  0  0  0
 26 27  2  0  0  0  0
 28 29  1  0  0  0  0
 28 45  1  0  0  0  0
 29 30  2  0  0  0  0
 29 46  1  0  0  0  0
 30 47  1  0  0  0  0
M  END
$$$$
