
 OpenBabel01122422463D

 43 46  0  0  0  0  0  0  0  0999 V2000
    1.0508   -0.1479    0.0350 O   0  0  0  0  0  0  0  0  0  0  0  0
    2.2780   -0.1480   -0.0019 C   0  0  0  0  0  0  0  0  0  0  0  0
    2.9927   -0.5202   -1.1155 N   0  0  0  0  0  0  0  0  0  0  0  0
    2.3623   -1.0581   -2.2898 C   0  0  0  0  0  0  0  0  0  0  0  0
    2.1881   -2.5389   -2.2039 C   0  0  0  0  0  0  0  0  0  0  0  0
    1.5299   -3.3814   -3.0875 C   0  0  0  0  0  0  0  0  0  0  0  0
    0.8601   -3.2563   -4.3747 C   0  0  0  0  0  0  0  0  0  0  0  0
   -0.2094   -4.1026   -4.7135 C   0  0  0  0  0  0  0  0  0  0  0  0
   -0.8243   -4.0083   -5.9669 C   0  0  0  0  0  0  0  0  0  0  0  0
   -0.3768   -3.0654   -6.8851 C   0  0  0  0  0  0  0  0  0  0  0  0
   -0.9538   -2.9880   -8.0903 F   0  0  0  0  0  0  0  0  0  0  0  0
    0.6699   -2.2112   -6.5767 C   0  0  0  0  0  0  0  0  0  0  0  0
    1.2778   -2.3177   -5.3295 C   0  0  0  0  0  0  0  0  0  0  0  0
    2.3147   -1.5054   -5.0842 F   0  0  0  0  0  0  0  0  0  0  0  0
    1.5796   -4.6479   -2.5588 O   0  0  0  0  0  0  0  0  0  0  0  0
    2.2845   -4.5064   -1.4073 C   0  0  0  0  0  0  0  0  0  0  0  0
    2.6889   -3.2860   -1.1495 N   0  0  0  0  0  0  0  0  0  0  0  0
    3.1363    0.2675    1.1195 C   0  0  0  0  0  0  0  0  0  0  0  0
    4.4873    0.2539    1.0318 N   0  0  0  0  0  0  0  0  0  0  0  0
    4.9278    0.6739    2.2511 N   0  0  0  0  0  0  0  0  0  0  0  0
    6.3212    0.7516    2.5457 C   0  0  0  0  0  0  0  0  0  0  0  0
    7.2644    0.4607    1.5487 C   0  0  0  0  0  0  0  0  0  0  0  0
    8.6323    0.5357    1.8264 C   0  0  0  0  0  0  0  0  0  0  0  0
    9.0673    0.8931    3.0997 C   0  0  0  0  0  0  0  0  0  0  0  0
    8.1390    1.1775    4.0989 C   0  0  0  0  0  0  0  0  0  0  0  0
    6.7688    1.1105    3.8261 C   0  0  0  0  0  0  0  0  0  0  0  0
    3.8790    0.9909    3.0884 C   0  0  0  0  0  0  0  0  0  0  0  0
    2.7353    0.7409    2.3842 C   0  0  0  0  0  0  0  0  0  0  0  0
    1.4971    0.9351    2.8598 O   0  0  0  0  0  0  0  0  0  0  0  0
    3.9936   -0.6160   -0.9863 H   0  0  0  0  0  0  0  0  0  0  0  0
    3.0204   -0.7999   -3.1215 H   0  0  0  0  0  0  0  0  0  0  0  0
    1.3901   -0.5752   -2.4393 H   0  0  0  0  0  0  0  0  0  0  0  0
   -0.5704   -4.8454   -4.0037 H   0  0  0  0  0  0  0  0  0  0  0  0
   -1.6441   -4.6680   -6.2339 H   0  0  0  0  0  0  0  0  0  0  0  0
    1.0192   -1.4819   -7.2944 H   0  0  0  0  0  0  0  0  0  0  0  0
    2.4479   -5.4003   -0.8235 H   0  0  0  0  0  0  0  0  0  0  0  0
    6.9505    0.1804    0.5442 H   0  0  0  0  0  0  0  0  0  0  0  0
    9.3572    0.3142    1.0473 H   0  0  0  0  0  0  0  0  0  0  0  0
   10.1314    0.9475    3.3173 H   0  0  0  0  0  0  0  0  0  0  0  0
    8.4795    1.4497    5.0949 H   0  0  0  0  0  0  0  0  0  0  0  0
    6.0867    1.3335    4.6388 H   0  0  0  0  0  0  0  0  0  0  0  0
    4.0304    1.3640    4.0878 H   0  0  0  0  0  0  0  0  0  0  0  0
    1.5198    1.2881    3.7641 H   0  0  0  0  0  0  0  0  0  0  0  0
  1  2  2  0  0  0  0
  2  3  1  0  0  0  0
  2 18  1  0  0  0  0
  3  4  1  0  0  0  0
  3 30  1  0  0  0  0
  4  5  1  0  0  0  0
  4 31  1  0  0  0  0
  4 32  1  0  0  0  0
  5  6  2  0  0  0  0
  5 17  1  0  0  0  0
  6  7  1  0  0  0  0
  6 15  1  0  0  0  0
  7  8  2  0  0  0  0
  7 13  1  0  0  0  0
  8  9  1  0  0  0  0
  8 33  1  0  0  0  0
  9 10  2  0  0  0  0
  9 34  1  0  0  0  0
 10 11  1  0  0  0  0
 10 12  1  0  0  0  0
 12 13  2  0  0  0  0
 12 35  1  0  0  0  0
 13 14  1  0  0  0  0
 15 16  1  0  0  0  0
 16 17  2  0  0  0  0
 16 36  1  0  0  0  0
 18 19  2  0  0  0  0
 18 28  1  0  0  0  0
 19 20  1  0  0  0  0
 20 21  1  0  0  0  0
 20 27  1  0  0  0  0
 21 22  2  0  0  0  0
 21 26  1  0  0  0  0
 22 23  1  0  0  0  0
 22 37  1  0  0  0  0
 23 24  2  0  0  0  0
 23 38  1  0  0  0  0
 24 25  1  0  0  0  0
 24 39  1  0  0  0  0
 25 26  2  0  0  0  0
 25 40  1  0  0  0  0
 26 41  1  0  0  0  0
 27 28  2  0  0  0  0
 27 42  1  0  0  0  0
 28 29  1  0  0  0  0
 29 43  1  0  0  0  0
M  END
$$$$
