
 OpenBabel01122422503D

 44 47  0  0  0  0  0  0  0  0999 V2000
    3.1375   -1.0749   -1.5155 O   0  0  0  0  0  0  0  0  0  0  0  0
    4.1619   -0.6046   -1.0695 C   0  0  0  0  0  0  0  0  0  0  0  0
    4.2323    0.6418   -0.4867 N   0  0  0  0  0  0  0  0  0  0  0  0
    3.1225    1.6197   -0.4481 C   0  0  0  0  0  0  0  0  0  0  0  0
    3.6343    3.0300   -0.1683 C   0  0  0  0  0  0  0  0  0  0  0  0
    4.4230    3.7078   -1.1111 C   0  0  0  0  0  0  0  0  0  0  0  0
    5.0159    4.9489   -0.8095 C   0  0  0  0  0  0  0  0  0  0  0  0
    4.8167    5.5531    0.4392 C   0  0  0  0  0  0  0  0  0  0  0  0
    5.5677    6.7913    0.8022 C   0  0  0  0  0  0  0  0  0  0  0  0
    5.0101    7.9962    0.6215 C   0  0  0  0  0  0  0  0  0  0  0  0
    5.6857    9.1565    0.9425 N   0  0  0  0  0  0  0  0  0  0  0  0
    6.9693    9.1933    1.4420 C   0  0  0  0  0  0  0  0  0  0  0  0
    7.5647   10.2360    1.6966 O   0  0  0  0  0  0  0  0  0  0  0  0
    7.6004    7.8676    1.6478 C   0  0  0  0  0  0  0  0  0  0  0  0
    6.9238    6.7454    1.3407 C   0  0  0  0  0  0  0  0  0  0  0  0
    3.9735    4.9216    1.3529 C   0  0  0  0  0  0  0  0  0  0  0  0
    3.3827    3.6777    1.0519 C   0  0  0  0  0  0  0  0  0  0  0  0
    5.4827   -1.3546   -1.2374 C   0  0  0  0  0  0  0  0  0  0  0  0
    6.6634   -0.9185   -0.6094 C   0  0  0  0  0  0  0  0  0  0  0  0
    7.2700   -1.5035    0.5283 C   0  0  0  0  0  0  0  0  0  0  0  0
    8.5169   -1.0434    0.9948 C   0  0  0  0  0  0  0  0  0  0  0  0
    9.0865    0.0943    0.4293 C   0  0  0  0  0  0  0  0  0  0  0  0
    8.5710    0.5442   -0.7681 C   0  0  0  0  0  0  0  0  0  0  0  0
    9.1422    1.5721   -1.4077 F   0  0  0  0  0  0  0  0  0  0  0  0
    7.5558   -0.1890   -1.3714 C   0  0  0  0  0  0  0  0  0  0  0  0
    7.6306   -0.5855   -2.6993 C   0  0  0  0  0  0  0  0  0  0  0  0
    6.7615   -1.4508   -3.2775 N   0  0  0  0  0  0  0  0  0  0  0  0
    5.6506   -1.7453   -2.5590 C   0  0  0  0  0  0  0  0  0  0  0  0
    5.1026    0.9900   -0.1146 H   0  0  0  0  0  0  0  0  0  0  0  0
    2.4380    1.2961    0.3438 H   0  0  0  0  0  0  0  0  0  0  0  0
    2.5631    1.5962   -1.3932 H   0  0  0  0  0  0  0  0  0  0  0  0
    4.6045    3.2619   -2.0878 H   0  0  0  0  0  0  0  0  0  0  0  0
    5.6523    5.4245   -1.5538 H   0  0  0  0  0  0  0  0  0  0  0  0
    4.0074    8.1339    0.2331 H   0  0  0  0  0  0  0  0  0  0  0  0
    5.2454   10.0534    0.8050 H   0  0  0  0  0  0  0  0  0  0  0  0
    8.6164    7.8616    2.0287 H   0  0  0  0  0  0  0  0  0  0  0  0
    7.3883    5.7823    1.4758 H   0  0  0  0  0  0  0  0  0  0  0  0
    3.7842    5.3761    2.3244 H   0  0  0  0  0  0  0  0  0  0  0  0
    2.7393    3.2121    1.7967 H   0  0  0  0  0  0  0  0  0  0  0  0
    6.8531   -2.4144    0.9591 H   0  0  0  0  0  0  0  0  0  0  0  0
    9.0539   -1.5831    1.7707 H   0  0  0  0  0  0  0  0  0  0  0  0
    9.9904    0.5453    0.8252 H   0  0  0  0  0  0  0  0  0  0  0  0
    8.5151   -0.3545   -3.2870 H   0  0  0  0  0  0  0  0  0  0  0  0
    4.8445   -2.1946   -3.1321 H   0  0  0  0  0  0  0  0  0  0  0  0
  1  2  2  0  0  0  0
  2  3  1  0  0  0  0
  2 18  1  0  0  0  0
  3  4  1  0  0  0  0
  3 29  1  0  0  0  0
  4  5  1  0  0  0  0
  4 30  1  0  0  0  0
  4 31  1  0  0  0  0
  5  6  2  0  0  0  0
  5 17  1  0  0  0  0
  6  7  1  0  0  0  0
  6 32  1  0  0  0  0
  7  8  2  0  0  0  0
  7 33  1  0  0  0  0
  8  9  1  0  0  0  0
  8 16  1  0  0  0  0
  9 10  2  0  0  0  0
  9 15  1  0  0  0  0
 10 11  1  0  0  0  0
 10 34  1  0  0  0  0
 11 12  1  0  0  0  0
 11 35  1  0  0  0  0
 12 13  2  0  0  0  0
 12 14  1  0  0  0  0
 14 15  2  0  0  0  0
 14 36  1  0  0  0  0
 15 37  1  0  0  0  0
 16 17  2  0  0  0  0
 16 38  1  0  0  0  0
 17 39  1  0  0  0  0
 18 19  2  0  0  0  0
 18 28  1  0  0  0  0
 19 20  1  0  0  0  0
 19 25  1  0  0  0  0
 20 21  2  0  0  0  0
 20 40  1  0  0  0  0
 21 22  1  0  0  0  0
 21 41  1  0  0  0  0
 22 23  2  0  0  0  0
 22 42  1  0  0  0  0
 23 24  1  0  0  0  0
 23 25  1  0  0  0  0
 25 26  2  0  0  0  0
 26 27  1  0  0  0  0
 26 43  1  0  0  0  0
 27 28  2  0  0  0  0
 28 44  1  0  0  0  0
M  END
$$$$
