
 OpenBabel01122422503D

 49 52  0  0  0  0  0  0  0  0999 V2000
    2.2633    1.3927    0.6974 C   0  0  0  0  0  0  0  0  0  0  0  0
    2.3392    0.0650    0.1725 O   0  0  0  0  0  0  0  0  0  0  0  0
    3.0035   -0.8351    0.9656 C   0  0  0  0  0  0  0  0  0  0  0  0
    4.0232   -0.4348    1.8278 C   0  0  0  0  0  0  0  0  0  0  0  0
    4.5951   -1.3295    2.7364 C   0  0  0  0  0  0  0  0  0  0  0  0
    5.5602   -0.8597    3.6216 C   0  0  0  0  0  0  0  0  0  0  0  0
    6.0759   -1.7155    4.5723 C   0  0  0  0  0  0  0  0  0  0  0  0
    5.6179   -3.0273    4.6020 C   0  0  0  0  0  0  0  0  0  0  0  0
    6.1535   -3.8960    5.6959 C   0  0  0  0  0  0  0  0  0  0  0  0
    6.9033   -3.3742    6.5212 O   0  0  0  0  0  0  0  0  0  0  0  0
    5.7581   -5.2222    5.7023 N   0  0  0  0  0  0  0  0  0  0  0  0
    6.1789   -6.1985    6.5901 C   0  0  0  0  0  0  0  0  0  0  0  0
    7.0482   -5.9999    7.5998 C   0  0  0  0  0  0  0  0  0  0  0  0
    7.5249   -7.0075    8.4467 N   0  0  0  0  0  0  0  0  0  0  0  0
    8.4786   -6.6904    9.4982 C   0  0  0  0  0  0  0  0  0  0  0  0
    9.4025   -7.6339    9.9739 C   0  0  0  0  0  0  0  0  0  0  0  0
   10.3278   -7.3146   10.9775 C   0  0  0  0  0  0  0  0  0  0  0  0
   10.3526   -6.0395   11.5303 C   0  0  0  0  0  0  0  0  0  0  0  0
    9.4564   -5.0811   11.0739 C   0  0  0  0  0  0  0  0  0  0  0  0
    8.5324   -5.4030   10.0696 C   0  0  0  0  0  0  0  0  0  0  0  0
    7.0888   -8.3337    8.2549 C   0  0  0  0  0  0  0  0  0  0  0  0
    7.3988   -9.3290    8.9088 O   0  0  0  0  0  0  0  0  0  0  0  0
    6.0955   -8.5452    7.1613 C   0  0  0  0  0  0  0  0  0  0  0  0
    5.6688   -7.5346    6.3950 C   0  0  0  0  0  0  0  0  0  0  0  0
    4.7079   -3.5408    3.7245 N   0  0  0  0  0  0  0  0  0  0  0  0
    4.1974   -2.6837    2.7984 C   0  0  0  0  0  0  0  0  0  0  0  0
    3.2431   -3.0845    1.8627 C   0  0  0  0  0  0  0  0  0  0  0  0
    2.6566   -2.1896    0.9355 C   0  0  0  0  0  0  0  0  0  0  0  0
    1.7278   -2.7825    0.1173 O   0  0  0  0  0  0  0  0  0  0  0  0
    1.5381   -2.1971   -1.1678 C   0  0  0  0  0  0  0  0  0  0  0  0
    1.4754    1.9277    0.1621 H   0  0  0  0  0  0  0  0  0  0  0  0
    3.2040    1.9275    0.5270 H   0  0  0  0  0  0  0  0  0  0  0  0
    2.0033    1.3967    1.7635 H   0  0  0  0  0  0  0  0  0  0  0  0
    4.3738    0.5922    1.8262 H   0  0  0  0  0  0  0  0  0  0  0  0
    5.8959    0.1725    3.6019 H   0  0  0  0  0  0  0  0  0  0  0  0
    6.8072   -1.3565    5.2889 H   0  0  0  0  0  0  0  0  0  0  0  0
    5.1192   -5.4816    4.9549 H   0  0  0  0  0  0  0  0  0  0  0  0
    7.4788   -5.0260    7.7701 H   0  0  0  0  0  0  0  0  0  0  0  0
    9.4564   -8.6332    9.5526 H   0  0  0  0  0  0  0  0  0  0  0  0
   11.0305   -8.0707   11.3186 H   0  0  0  0  0  0  0  0  0  0  0  0
   11.0659   -5.7939   12.3127 H   0  0  0  0  0  0  0  0  0  0  0  0
    9.4660   -4.0816   11.5014 H   0  0  0  0  0  0  0  0  0  0  0  0
    7.8334   -4.6225    9.7801 H   0  0  0  0  0  0  0  0  0  0  0  0
    5.7325   -9.5581    7.0418 H   0  0  0  0  0  0  0  0  0  0  0  0
    4.9305   -7.7208    5.6231 H   0  0  0  0  0  0  0  0  0  0  0  0
    2.9263   -4.1263    1.8525 H   0  0  0  0  0  0  0  0  0  0  0  0
    1.1178   -2.9672   -1.8232 H   0  0  0  0  0  0  0  0  0  0  0  0
    2.4790   -1.8644   -1.6201 H   0  0  0  0  0  0  0  0  0  0  0  0
    0.8087   -1.3831   -1.1165 H   0  0  0  0  0  0  0  0  0  0  0  0
  1  2  1  0  0  0  0
  1 31  1  0  0  0  0
  1 32  1  0  0  0  0
  1 33  1  0  0  0  0
  2  3  1  0  0  0  0
  3  4  2  0  0  0  0
  3 28  1  0  0  0  0
  4  5  1  0  0  0  0
  4 34  1  0  0  0  0
  5  6  2  0  0  0  0
  5 26  1  0  0  0  0
  6  7  1  0  0  0  0
  6 35  1  0  0  0  0
  7  8  2  0  0  0  0
  7 36  1  0  0  0  0
  8  9  1  0  0  0  0
  8 25  1  0  0  0  0
  9 10  2  0  0  0  0
  9 11  1  0  0  0  0
 11 12  1  0  0  0  0
 11 37  1  0  0  0  0
 12 13  2  0  0  0  0
 12 24  1  0  0  0  0
 13 14  1  0  0  0  0
 13 38  1  0  0  0  0
 14 15  1  0  0  0  0
 14 21  1  0  0  0  0
 15 16  2  0  0  0  0
 15 20  1  0  0  0  0
 16 17  1  0  0  0  0
 16 39  1  0  0  0  0
 17 18  2  0  0  0  0
 17 40  1  0  0  0  0
 18 19  1  0  0  0  0
 18 41  1  0  0  0  0
 19 20  2  0  0  0  0
 19 42  1  0  0  0  0
 20 43  1  0  0  0  0
 21 22  2  0  0  0  0
 21 23  1  0  0  0  0
 23 24  2  0  0  0  0
 23 44  1  0  0  0  0
 24 45  1  0  0  0  0
 25 26  2  0  0  0  0
 26 27  1  0  0  0  0
 27 28  2  0  0  0  0
 27 46  1  0  0  0  0
 28 29  1  0  0  0  0
 29 30  1  0  0  0  0
 30 47  1  0  0  0  0
 30 48  1  0  0  0  0
 30 49  1  0  0  0  0
M  END
$$$$
