
 OpenBabel01122422503D

 46 49  0  0  0  0  0  0  0  0999 V2000
   -3.0543    0.7806   -2.3927 C   0  0  0  0  0  0  0  0  0  0  0  0
   -1.8033    0.2169   -1.8055 C   0  0  0  0  0  0  0  0  0  0  0  0
   -1.6530   -1.1368   -1.5674 C   0  0  0  0  0  0  0  0  0  0  0  0
   -0.5093   -1.6678   -1.0822 N   0  0  0  0  0  0  0  0  0  0  0  0
    0.5128   -0.8072   -0.8058 C   0  0  0  0  0  0  0  0  0  0  0  0
    1.7498   -1.2293   -0.3094 C   0  0  0  0  0  0  0  0  0  0  0  0
    2.0997   -2.6619   -0.0866 C   0  0  0  0  0  0  0  0  0  0  0  0
    3.2503   -2.8901    0.2820 O   0  0  0  0  0  0  0  0  0  0  0  0
    1.1479   -3.6312   -0.3762 N   0  0  0  0  0  0  0  0  0  0  0  0
    1.3223   -5.0200   -0.1797 C   0  0  0  0  0  0  0  0  0  0  0  0
    2.2981   -5.5135    0.6861 C   0  0  0  0  0  0  0  0  0  0  0  0
    2.5095   -6.8775    0.8845 C   0  0  0  0  0  0  0  0  0  0  0  0
    3.4621   -7.3483    1.8159 N   0  0  0  0  0  0  0  0  0  0  0  0
    4.0088   -6.5902    2.8502 C   0  0  0  0  0  0  0  0  0  0  0  0
    3.7315   -5.4280    3.1218 O   0  0  0  0  0  0  0  0  0  0  0  0
    4.9531   -7.3219    3.7365 C   0  0  0  0  0  0  0  0  0  0  0  0
    5.2079   -8.6270    3.4133 N   0  0  0  0  0  0  0  0  0  0  0  0
    6.0124   -9.2995    4.2673 C   0  0  0  0  0  0  0  0  0  0  0  0
    6.5573   -8.7495    5.4218 C   0  0  0  0  0  0  0  0  0  0  0  0
    6.2844   -7.4181    5.7202 C   0  0  0  0  0  0  0  0  0  0  0  0
    5.4764   -6.6882    4.8613 C   0  0  0  0  0  0  0  0  0  0  0  0
    5.2202   -5.4105    5.1702 F   0  0  0  0  0  0  0  0  0  0  0  0
    1.7487   -7.7798    0.1437 C   0  0  0  0  0  0  0  0  0  0  0  0
    0.7334   -7.3063   -0.7007 C   0  0  0  0  0  0  0  0  0  0  0  0
    0.5022   -5.9304   -0.8429 C   0  0  0  0  0  0  0  0  0  0  0  0
    2.7714   -0.2981   -0.0184 C   0  0  0  0  0  0  0  0  0  0  0  0
    2.5818    1.0544   -0.2452 C   0  0  0  0  0  0  0  0  0  0  0  0
    1.3651    1.4778   -0.7604 C   0  0  0  0  0  0  0  0  0  0  0  0
    0.3390    0.5826   -1.0371 C   0  0  0  0  0  0  0  0  0  0  0  0
   -0.8015    1.0854   -1.5367 N   0  0  0  0  0  0  0  0  0  0  0  0
   -3.8216    0.0113   -2.5290 H   0  0  0  0  0  0  0  0  0  0  0  0
   -2.8343    1.2214   -3.3700 H   0  0  0  0  0  0  0  0  0  0  0  0
   -3.4610    1.5572   -1.7370 H   0  0  0  0  0  0  0  0  0  0  0  0
   -2.4520   -1.8434   -1.7623 H   0  0  0  0  0  0  0  0  0  0  0  0
    0.2947   -3.3142   -0.8333 H   0  0  0  0  0  0  0  0  0  0  0  0
    2.9077   -4.8075    1.2312 H   0  0  0  0  0  0  0  0  0  0  0  0
    3.6955   -8.3363    1.8244 H   0  0  0  0  0  0  0  0  0  0  0  0
    6.2148  -10.3335    3.9996 H   0  0  0  0  0  0  0  0  0  0  0  0
    7.1794   -9.3444    6.0803 H   0  0  0  0  0  0  0  0  0  0  0  0
    6.6809   -6.9443    6.6106 H   0  0  0  0  0  0  0  0  0  0  0  0
    1.9011   -8.8504    0.2420 H   0  0  0  0  0  0  0  0  0  0  0  0
    0.1167   -8.0146   -1.2501 H   0  0  0  0  0  0  0  0  0  0  0  0
   -0.2879   -5.5876   -1.5039 H   0  0  0  0  0  0  0  0  0  0  0  0
    3.7295   -0.6344    0.3797 H   0  0  0  0  0  0  0  0  0  0  0  0
    3.3760    1.7635   -0.0326 H   0  0  0  0  0  0  0  0  0  0  0  0
    1.2087    2.5367   -0.9538 H   0  0  0  0  0  0  0  0  0  0  0  0
  1  2  1  0  0  0  0
  1 31  1  0  0  0  0
  1 32  1  0  0  0  0
  1 33  1  0  0  0  0
  2  3  2  0  0  0  0
  2 30  1  0  0  0  0
  3  4  1  0  0  0  0
  3 34  1  0  0  0  0
  4  5  2  0  0  0  0
  5  6  1  0  0  0  0
  5 29  1  0  0  0  0
  6  7  1  0  0  0  0
  6 26  2  0  0  0  0
  7  8  2  0  0  0  0
  7  9  1  0  0  0  0
  9 10  1  0  0  0  0
  9 35  1  0  0  0  0
 10 11  2  0  0  0  0
 10 25  1  0  0  0  0
 11 12  1  0  0  0  0
 11 36  1  0  0  0  0
 12 13  1  0  0  0  0
 12 23  2  0  0  0  0
 13 14  1  0  0  0  0
 13 37  1  0  0  0  0
 14 15  2  0  0  0  0
 14 16  1  0  0  0  0
 16 17  2  0  0  0  0
 16 21  1  0  0  0  0
 17 18  1  0  0  0  0
 18 19  2  0  0  0  0
 18 38  1  0  0  0  0
 19 20  1  0  0  0  0
 19 39  1  0  0  0  0
 20 21  2  0  0  0  0
 20 40  1  0  0  0  0
 21 22  1  0  0  0  0
 23 24  1  0  0  0  0
 23 41  1  0  0  0  0
 24 25  2  0  0  0  0
 24 42  1  0  0  0  0
 25 43  1  0  0  0  0
 26 27  1  0  0  0  0
 26 44  1  0  0  0  0
 27 28  2  0  0  0  0
 27 45  1  0  0  0  0
 28 29  1  0  0  0  0
 28 46  1  0  0  0  0
 29 30  2  0  0  0  0
M  END
$$$$
