
 OpenBabel01122422503D

 44 47  0  0  0  0  0  0  0  0999 V2000
    1.0358    0.1089   -0.6444 C   0  0  0  0  0  0  0  0  0  0  0  0
    2.4836    0.0678   -0.6208 N   0  0  0  0  0  0  0  0  0  0  0  0
    3.1860    1.1819   -1.0489 C   0  0  0  0  0  0  0  0  0  0  0  0
    2.6676    2.2189   -1.4574 O   0  0  0  0  0  0  0  0  0  0  0  0
    4.5487    1.0969   -1.0059 N   0  0  0  0  0  0  0  0  0  0  0  0
    5.2431   -0.0303   -0.5797 C   0  0  0  0  0  0  0  0  0  0  0  0
    6.6316   -0.0253   -0.5750 C   0  0  0  0  0  0  0  0  0  0  0  0
    7.3368   -1.1630   -0.1460 C   0  0  0  0  0  0  0  0  0  0  0  0
    8.8111   -1.0430   -0.0591 C   0  0  0  0  0  0  0  0  0  0  0  0
    9.2477    0.0679    0.2246 O   0  0  0  0  0  0  0  0  0  0  0  0
    9.5560   -2.1700   -0.3723 N   0  0  0  0  0  0  0  0  0  0  0  0
   10.9714   -2.1897   -0.4113 C   0  0  0  0  0  0  0  0  0  0  0  0
   11.7501   -1.2216    0.2237 C   0  0  0  0  0  0  0  0  0  0  0  0
   13.1320   -1.1720    0.0361 C   0  0  0  0  0  0  0  0  0  0  0  0
   13.7713   -2.1070   -0.7808 C   0  0  0  0  0  0  0  0  0  0  0  0
   15.1850   -1.9674   -1.1086 C   0  0  0  0  0  0  0  0  0  0  0  0
   16.1149   -1.3507   -0.2951 C   0  0  0  0  0  0  0  0  0  0  0  0
   17.6299   -1.2659   -1.0863 S   0  0  0  0  0  0  0  0  0  0  0  0
   16.9549   -2.0628   -2.4604 C   0  0  0  0  0  0  0  0  0  0  0  0
   17.8038   -2.3045   -3.6792 C   0  0  0  0  0  0  0  0  0  0  0  0
   19.0788   -1.8411   -3.5534 F   0  0  0  0  0  0  0  0  0  0  0  0
   17.9092   -3.6291   -3.9722 F   0  0  0  0  0  0  0  0  0  0  0  0
   17.2906   -1.7003   -4.7857 F   0  0  0  0  0  0  0  0  0  0  0  0
   15.6818   -2.4041   -2.3264 N   0  0  0  0  0  0  0  0  0  0  0  0
   13.0038   -3.1342   -1.3477 C   0  0  0  0  0  0  0  0  0  0  0  0
   11.6139   -3.1864   -1.1522 C   0  0  0  0  0  0  0  0  0  0  0  0
    6.6445   -2.3056    0.2688 C   0  0  0  0  0  0  0  0  0  0  0  0
    5.2447   -2.2969    0.2702 C   0  0  0  0  0  0  0  0  0  0  0  0
    4.5498   -1.1537   -0.1493 C   0  0  0  0  0  0  0  0  0  0  0  0
    3.0745   -1.0971   -0.1325 C   0  0  0  0  0  0  0  0  0  0  0  0
    2.4440   -2.0572    0.3044 O   0  0  0  0  0  0  0  0  0  0  0  0
    0.6499    1.0331   -1.0823 H   0  0  0  0  0  0  0  0  0  0  0  0
    0.6628    0.0146    0.3802 H   0  0  0  0  0  0  0  0  0  0  0  0
    0.6674   -0.7416   -1.2267 H   0  0  0  0  0  0  0  0  0  0  0  0
    5.0449    1.9244   -1.3158 H   0  0  0  0  0  0  0  0  0  0  0  0
    7.1833    0.8621   -0.8816 H   0  0  0  0  0  0  0  0  0  0  0  0
    9.0790   -2.9477   -0.8066 H   0  0  0  0  0  0  0  0  0  0  0  0
   11.3080   -0.4616    0.8601 H   0  0  0  0  0  0  0  0  0  0  0  0
   13.6754   -0.3526    0.4984 H   0  0  0  0  0  0  0  0  0  0  0  0
   15.9863   -0.9323    0.6931 H   0  0  0  0  0  0  0  0  0  0  0  0
   13.4808   -3.8817   -1.9798 H   0  0  0  0  0  0  0  0  0  0  0  0
   11.0501   -3.9765   -1.6403 H   0  0  0  0  0  0  0  0  0  0  0  0
    7.1722   -3.1810    0.6386 H   0  0  0  0  0  0  0  0  0  0  0  0
    4.6955   -3.1701    0.6208 H   0  0  0  0  0  0  0  0  0  0  0  0
  1  2  1  0  0  0  0
  1 32  1  0  0  0  0
  1 33  1  0  0  0  0
  1 34  1  0  0  0  0
  2  3  1  0  0  0  0
  2 30  1  0  0  0  0
  3  4  2  0  0  0  0
  3  5  1  0  0  0  0
  5  6  1  0  0  0  0
  5 35  1  0  0  0  0
  6  7  2  0  0  0  0
  6 29  1  0  0  0  0
  7  8  1  0  0  0  0
  7 36  1  0  0  0  0
  8  9  1  0  0  0  0
  8 27  2  0  0  0  0
  9 10  2  0  0  0  0
  9 11  1  0  0  0  0
 11 12  1  0  0  0  0
 11 37  1  0  0  0  0
 12 13  2  0  0  0  0
 12 26  1  0  0  0  0
 13 14  1  0  0  0  0
 13 38  1  0  0  0  0
 14 15  2  0  0  0  0
 14 39  1  0  0  0  0
 15 16  1  0  0  0  0
 15 25  1  0  0  0  0
 16 17  2  0  0  0  0
 16 24  1  0  0  0  0
 17 18  1  0  0  0  0
 17 40  1  0  0  0  0
 18 19  1  0  0  0  0
 19 20  1  0  0  0  0
 19 24  2  0  0  0  0
 20 21  1  0  0  0  0
 20 22  1  0  0  0  0
 20 23  1  0  0  0  0
 25 26  2  0  0  0  0
 25 41  1  0  0  0  0
 26 42  1  0  0  0  0
 27 28  1  0  0  0  0
 27 43  1  0  0  0  0
 28 29  2  0  0  0  0
 28 44  1  0  0  0  0
 29 30  1  0  0  0  0
 30 31  2  0  0  0  0
M  END
$$$$
