
 OpenBabel01122422503D

 46 49  0  0  0  0  0  0  0  0999 V2000
    6.6482    2.9532    2.2365 N   0  0  0  0  0  0  0  0  0  0  0  0
    6.1180    2.0086    1.5910 C   0  0  0  0  0  0  0  0  0  0  0  0
    5.4790    0.8700    0.8129 C   0  0  0  0  0  0  0  0  0  0  0  0
    4.2993    1.0847    0.1688 C   0  0  0  0  0  0  0  0  0  0  0  0
    3.5993    2.3058    0.2185 N   0  0  0  0  0  0  0  0  0  0  0  0
    2.3024    2.5734   -0.2334 C   0  0  0  0  0  0  0  0  0  0  0  0
    1.4995    1.7164   -0.5842 O   0  0  0  0  0  0  0  0  0  0  0  0
    2.0335    3.9412   -0.2777 N   0  0  0  0  0  0  0  0  0  0  0  0
    0.7965    4.4635   -0.7600 C   0  0  0  0  0  0  0  0  0  0  0  0
    0.8292    5.6087   -1.5620 C   0  0  0  0  0  0  0  0  0  0  0  0
   -0.3450    6.0999   -2.1371 C   0  0  0  0  0  0  0  0  0  0  0  0
   -1.5672    5.4866   -1.8639 C   0  0  0  0  0  0  0  0  0  0  0  0
   -1.6430    4.3787   -1.0068 C   0  0  0  0  0  0  0  0  0  0  0  0
   -2.9739    3.8203   -0.7074 C   0  0  0  0  0  0  0  0  0  0  0  0
   -4.1291    4.3091   -1.1317 N   0  0  0  0  0  0  0  0  0  0  0  0
   -5.1097    3.5094   -0.6012 C   0  0  0  0  0  0  0  0  0  0  0  0
   -4.5592    2.5134    0.1586 C   0  0  0  0  0  0  0  0  0  0  0  0
   -3.2082    2.7101    0.0788 N   0  0  0  0  0  0  0  0  0  0  0  0
   -0.4442    3.8680   -0.4702 C   0  0  0  0  0  0  0  0  0  0  0  0
    3.7953    0.0077   -0.6626 C   0  0  0  0  0  0  0  0  0  0  0  0
    4.4625   -1.1435   -0.7877 C   0  0  0  0  0  0  0  0  0  0  0  0
    5.6764   -1.3616   -0.1578 N   0  0  0  0  0  0  0  0  0  0  0  0
    6.3537   -2.6074   -0.2993 C   0  0  0  0  0  0  0  0  0  0  0  0
    5.6545   -3.8069   -0.1149 C   0  0  0  0  0  0  0  0  0  0  0  0
    6.3373   -5.0230   -0.1354 C   0  0  0  0  0  0  0  0  0  0  0  0
    7.7085   -5.0498   -0.3854 C   0  0  0  0  0  0  0  0  0  0  0  0
    8.4007   -3.8647   -0.6228 C   0  0  0  0  0  0  0  0  0  0  0  0
    7.7272   -2.6462   -0.5722 C   0  0  0  0  0  0  0  0  0  0  0  0
    6.2533   -0.3843    0.6690 C   0  0  0  0  0  0  0  0  0  0  0  0
    7.3160   -0.4927    1.2793 O   0  0  0  0  0  0  0  0  0  0  0  0
    3.9976    3.0561    0.7717 H   0  0  0  0  0  0  0  0  0  0  0  0
    2.8380    4.5379   -0.4167 H   0  0  0  0  0  0  0  0  0  0  0  0
    1.7670    6.1022   -1.7997 H   0  0  0  0  0  0  0  0  0  0  0  0
   -0.3139    6.9536   -2.8099 H   0  0  0  0  0  0  0  0  0  0  0  0
   -2.4756    5.8790   -2.3213 H   0  0  0  0  0  0  0  0  0  0  0  0
   -6.1572    3.6992   -0.7948 H   0  0  0  0  0  0  0  0  0  0  0  0
   -4.9915    1.7031    0.7325 H   0  0  0  0  0  0  0  0  0  0  0  0
   -2.4976    2.1485    0.5181 H   0  0  0  0  0  0  0  0  0  0  0  0
   -0.4671    3.0104    0.1945 H   0  0  0  0  0  0  0  0  0  0  0  0
    2.8836    0.1267   -1.2371 H   0  0  0  0  0  0  0  0  0  0  0  0
    4.0876   -1.9255   -1.4436 H   0  0  0  0  0  0  0  0  0  0  0  0
    4.5937   -3.8021    0.1233 H   0  0  0  0  0  0  0  0  0  0  0  0
    5.8024   -5.9445    0.0752 H   0  0  0  0  0  0  0  0  0  0  0  0
    8.2409   -5.9963   -0.3804 H   0  0  0  0  0  0  0  0  0  0  0  0
    9.4677   -3.8847   -0.8265 H   0  0  0  0  0  0  0  0  0  0  0  0
    8.2837   -1.7290   -0.7523 H   0  0  0  0  0  0  0  0  0  0  0  0
  1  2  3  0  0  0  0
  2  3  1  0  0  0  0
  3  4  2  0  0  0  0
  3 29  1  0  0  0  0
  4  5  1  0  0  0  0
  4 20  1  0  0  0  0
  5  6  1  0  0  0  0
  5 31  1  0  0  0  0
  6  7  2  0  0  0  0
  6  8  1  0  0  0  0
  8  9  1  0  0  0  0
  8 32  1  0  0  0  0
  9 10  2  0  0  0  0
  9 19  1  0  0  0  0
 10 11  1  0  0  0  0
 10 33  1  0  0  0  0
 11 12  2  0  0  0  0
 11 34  1  0  0  0  0
 12 13  1  0  0  0  0
 12 35  1  0  0  0  0
 13 14  1  0  0  0  0
 13 19  2  0  0  0  0
 14 15  2  0  0  0  0
 14 18  1  0  0  0  0
 15 16  1  0  0  0  0
 16 17  2  0  0  0  0
 16 36  1  0  0  0  0
 17 18  1  0  0  0  0
 17 37  1  0  0  0  0
 18 38  1  0  0  0  0
 19 39  1  0  0  0  0
 20 21  2  0  0  0  0
 20 40  1  0  0  0  0
 21 22  1  0  0  0  0
 21 41  1  0  0  0  0
 22 23  1  0  0  0  0
 22 29  1  0  0  0  0
 23 24  2  0  0  0  0
 23 28  1  0  0  0  0
 24 25  1  0  0  0  0
 24 42  1  0  0  0  0
 25 26  2  0  0  0  0
 25 43  1  0  0  0  0
 26 27  1  0  0  0  0
 26 44  1  0  0  0  0
 27 28  2  0  0  0  0
 27 45  1  0  0  0  0
 28 46  1  0  0  0  0
 29 30  2  0  0  0  0
M  END
$$$$
