
 OpenBabel01122422503D

 37 40  0  0  0  0  0  0  0  0999 V2000
    0.9378   -0.1711   -0.1484 O   0  0  0  0  0  0  0  0  0  0  0  0
    2.1426    0.0143   -0.0143 C   0  0  0  0  0  0  0  0  0  0  0  0
    2.7992    0.4343    1.1153 N   0  0  0  0  0  0  0  0  0  0  0  0
    2.1701    0.6720    2.3063 C   0  0  0  0  0  0  0  0  0  0  0  0
    0.9394    0.3107    2.6576 N   0  0  0  0  0  0  0  0  0  0  0  0
    0.7918    0.8760    3.8693 N   0  0  0  0  0  0  0  0  0  0  0  0
   -0.4207    0.7867    4.5955 C   0  0  0  0  0  0  0  0  0  0  0  0
   -1.4717   -0.0068    4.1053 C   0  0  0  0  0  0  0  0  0  0  0  0
   -2.6555   -0.1049    4.8330 C   0  0  0  0  0  0  0  0  0  0  0  0
   -3.6486   -0.8789    4.3771 F   0  0  0  0  0  0  0  0  0  0  0  0
   -2.8265    0.5822    6.0265 C   0  0  0  0  0  0  0  0  0  0  0  0
   -1.7897    1.3753    6.4933 C   0  0  0  0  0  0  0  0  0  0  0  0
   -1.9420    2.0558    7.6369 F   0  0  0  0  0  0  0  0  0  0  0  0
   -0.5874    1.4826    5.7984 C   0  0  0  0  0  0  0  0  0  0  0  0
    1.9628    1.5045    4.2144 C   0  0  0  0  0  0  0  0  0  0  0  0
    2.8575    1.3624    3.2602 N   0  0  0  0  0  0  0  0  0  0  0  0
    2.9865   -0.1686   -1.2106 C   0  0  0  0  0  0  0  0  0  0  0  0
    2.4674    0.1830   -2.4448 C   0  0  0  0  0  0  0  0  0  0  0  0
    3.1311    0.0210   -3.6147 N   0  0  0  0  0  0  0  0  0  0  0  0
    4.3522   -0.5546   -3.5905 C   0  0  0  0  0  0  0  0  0  0  0  0
    5.0626   -0.7849   -4.7716 C   0  0  0  0  0  0  0  0  0  0  0  0
    4.5348   -0.4164   -5.9504 F   0  0  0  0  0  0  0  0  0  0  0  0
    6.3157   -1.3991   -4.7876 C   0  0  0  0  0  0  0  0  0  0  0  0
    6.8955   -1.8001   -3.5919 C   0  0  0  0  0  0  0  0  0  0  0  0
    6.2132   -1.5749   -2.4014 C   0  0  0  0  0  0  0  0  0  0  0  0
    6.7854   -1.9692   -1.2533 F   0  0  0  0  0  0  0  0  0  0  0  0
    4.9513   -0.9580   -2.3767 C   0  0  0  0  0  0  0  0  0  0  0  0
    4.2530   -0.7448   -1.1737 C   0  0  0  0  0  0  0  0  0  0  0  0
    3.7535    0.7573    1.0877 H   0  0  0  0  0  0  0  0  0  0  0  0
   -1.3870   -0.5597    3.1705 H   0  0  0  0  0  0  0  0  0  0  0  0
   -3.7536    0.5020    6.5817 H   0  0  0  0  0  0  0  0  0  0  0  0
    0.1771    2.1254    6.2217 H   0  0  0  0  0  0  0  0  0  0  0  0
    2.1119    2.0330    5.1436 H   0  0  0  0  0  0  0  0  0  0  0  0
    1.4741    0.6180   -2.5373 H   0  0  0  0  0  0  0  0  0  0  0  0
    6.8187   -1.5596   -5.7365 H   0  0  0  0  0  0  0  0  0  0  0  0
    7.8661   -2.2861   -3.5773 H   0  0  0  0  0  0  0  0  0  0  0  0
    4.6841   -1.0771   -0.2321 H   0  0  0  0  0  0  0  0  0  0  0  0
  1  2  2  0  0  0  0
  2  3  1  0  0  0  0
  2 17  1  0  0  0  0
  3  4  1  0  0  0  0
  3 29  1  0  0  0  0
  4  5  2  0  0  0  0
  4 16  1  0  0  0  0
  5  6  1  0  0  0  0
  6  7  1  0  0  0  0
  6 15  1  0  0  0  0
  7  8  2  0  0  0  0
  7 14  1  0  0  0  0
  8  9  1  0  0  0  0
  8 30  1  0  0  0  0
  9 10  1  0  0  0  0
  9 11  2  0  0  0  0
 11 12  1  0  0  0  0
 11 31  1  0  0  0  0
 12 13  1  0  0  0  0
 12 14  2  0  0  0  0
 14 32  1  0  0  0  0
 15 16  2  0  0  0  0
 15 33  1  0  0  0  0
 17 18  2  0  0  0  0
 17 28  1  0  0  0  0
 18 19  1  0  0  0  0
 18 34  1  0  0  0  0
 19 20  2  0  0  0  0
 20 21  1  0  0  0  0
 20 27  1  0  0  0  0
 21 22  1  0  0  0  0
 21 23  2  0  0  0  0
 23 24  1  0  0  0  0
 23 35  1  0  0  0  0
 24 25  2  0  0  0  0
 24 36  1  0  0  0  0
 25 26  1  0  0  0  0
 25 27  1  0  0  0  0
 27 28  2  0  0  0  0
 28 37  1  0  0  0  0
M  END
$$$$
