
 OpenBabel01122422463D

 44 46  0  0  0  0  0  0  0  0999 V2000
    1.1866    0.0575   -0.0195 O   0  0  0  0  0  0  0  0  0  0  0  0
    2.3999   -0.0256   -0.1822 C   0  0  0  0  0  0  0  0  0  0  0  0
    3.0912   -1.1062    0.3203 N   0  0  0  0  0  0  0  0  0  0  0  0
    4.5181   -1.3347    0.2613 C   0  0  0  0  0  0  0  0  0  0  0  0
    5.0863   -2.1290    1.3846 C   0  0  0  0  0  0  0  0  0  0  0  0
    4.7515   -3.4668    1.5778 C   0  0  0  0  0  0  0  0  0  0  0  0
    3.8402   -4.0454    0.7829 F   0  0  0  0  0  0  0  0  0  0  0  0
    5.3753   -4.2338    2.5562 C   0  0  0  0  0  0  0  0  0  0  0  0
    6.3527   -3.6468    3.3538 C   0  0  0  0  0  0  0  0  0  0  0  0
    7.0055   -4.3546    4.3192 O   0  0  0  0  0  0  0  0  0  0  0  0
    6.7081   -2.3158    3.1829 C   0  0  0  0  0  0  0  0  0  0  0  0
    6.0717   -1.5681    2.2013 C   0  0  0  0  0  0  0  0  0  0  0  0
    6.4562   -0.2979    2.0152 F   0  0  0  0  0  0  0  0  0  0  0  0
    3.1348    1.0696   -0.8741 C   0  0  0  0  0  0  0  0  0  0  0  0
    2.7683    2.3864   -0.6043 C   0  0  0  0  0  0  0  0  0  0  0  0
    3.5109    3.4408   -1.1466 C   0  0  0  0  0  0  0  0  0  0  0  0
    4.6405    3.1993   -1.9370 C   0  0  0  0  0  0  0  0  0  0  0  0
    5.4608    4.2144   -2.4837 N   0  0  0  0  0  0  0  0  0  0  0  0
    5.2306    5.5684   -2.3838 C   0  0  0  0  0  0  0  0  0  0  0  0
    4.3097    6.0964   -1.7626 O   0  0  0  0  0  0  0  0  0  0  0  0
    6.1734    6.4879   -3.0810 C   0  0  0  0  0  0  0  0  0  0  0  0
    6.9222    6.1303   -4.2057 C   0  0  0  0  0  0  0  0  0  0  0  0
    7.7023    7.0949   -4.8529 C   0  0  0  0  0  0  0  0  0  0  0  0
    7.7315    8.4116   -4.3820 C   0  0  0  0  0  0  0  0  0  0  0  0
    6.9939    8.7680   -3.2590 C   0  0  0  0  0  0  0  0  0  0  0  0
    6.2201    7.8092   -2.6106 C   0  0  0  0  0  0  0  0  0  0  0  0
    4.9821    1.8786   -2.2297 C   0  0  0  0  0  0  0  0  0  0  0  0
    4.1962    0.8277   -1.7524 C   0  0  0  0  0  0  0  0  0  0  0  0
    2.4937   -1.8305    0.7025 H   0  0  0  0  0  0  0  0  0  0  0  0
    5.0278   -0.3693    0.2359 H   0  0  0  0  0  0  0  0  0  0  0  0
    4.7298   -1.8557   -0.6779 H   0  0  0  0  0  0  0  0  0  0  0  0
    5.0979   -5.2760    2.6615 H   0  0  0  0  0  0  0  0  0  0  0  0
    6.6370   -5.2521    4.3571 H   0  0  0  0  0  0  0  0  0  0  0  0
    7.4822   -1.8591    3.7921 H   0  0  0  0  0  0  0  0  0  0  0  0
    1.9171    2.6043    0.0380 H   0  0  0  0  0  0  0  0  0  0  0  0
    3.1812    4.4452   -0.9034 H   0  0  0  0  0  0  0  0  0  0  0  0
    6.2872    3.9059   -2.9757 H   0  0  0  0  0  0  0  0  0  0  0  0
    6.8838    5.1304   -4.6285 H   0  0  0  0  0  0  0  0  0  0  0  0
    8.2720    6.8340   -5.7412 H   0  0  0  0  0  0  0  0  0  0  0  0
    8.3177    9.1648   -4.9005 H   0  0  0  0  0  0  0  0  0  0  0  0
    6.9991    9.7916   -2.8934 H   0  0  0  0  0  0  0  0  0  0  0  0
    5.6289    8.1018   -1.7445 H   0  0  0  0  0  0  0  0  0  0  0  0
    5.8526    1.6422   -2.8355 H   0  0  0  0  0  0  0  0  0  0  0  0
    4.4487   -0.1828   -2.0549 H   0  0  0  0  0  0  0  0  0  0  0  0
  1  2  2  0  0  0  0
  2  3  1  0  0  0  0
  2 14  1  0  0  0  0
  3  4  1  0  0  0  0
  3 29  1  0  0  0  0
  4  5  1  0  0  0  0
  4 30  1  0  0  0  0
  4 31  1  0  0  0  0
  5  6  2  0  0  0  0
  5 12  1  0  0  0  0
  6  7  1  0  0  0  0
  6  8  1  0  0  0  0
  8  9  2  0  0  0  0
  8 32  1  0  0  0  0
  9 10  1  0  0  0  0
  9 11  1  0  0  0  0
 10 33  1  0  0  0  0
 11 12  2  0  0  0  0
 11 34  1  0  0  0  0
 12 13  1  0  0  0  0
 14 15  2  0  0  0  0
 14 28  1  0  0  0  0
 15 16  1  0  0  0  0
 15 35  1  0  0  0  0
 16 17  2  0  0  0  0
 16 36  1  0  0  0  0
 17 18  1  0  0  0  0
 17 27  1  0  0  0  0
 18 19  1  0  0  0  0
 18 37  1  0  0  0  0
 19 20  2  0  0  0  0
 19 21  1  0  0  0  0
 21 22  2  0  0  0  0
 21 26  1  0  0  0  0
 22 23  1  0  0  0  0
 22 38  1  0  0  0  0
 23 24  2  0  0  0  0
 23 39  1  0  0  0  0
 24 25  1  0  0  0  0
 24 40  1  0  0  0  0
 25 26  2  0  0  0  0
 25 41  1  0  0  0  0
 26 42  1  0  0  0  0
 27 28  2  0  0  0  0
 27 43  1  0  0  0  0
 28 44  1  0  0  0  0
M  END
$$$$
