
 OpenBabel01122422503D

 45 48  0  0  0  0  0  0  0  0999 V2000
    2.7125   -1.9437   -1.8752 O   0  0  0  0  0  0  0  0  0  0  0  0
    3.0219   -1.0193   -1.1275 C   0  0  0  0  0  0  0  0  0  0  0  0
    2.8263   -1.0538    0.2303 N   0  0  0  0  0  0  0  0  0  0  0  0
    2.2543   -2.2082    0.8832 C   0  0  0  0  0  0  0  0  0  0  0  0
    3.2935   -3.2252    1.2952 C   0  0  0  0  0  0  0  0  0  0  0  0
    3.7018   -4.2067    0.3972 C   0  0  0  0  0  0  0  0  0  0  0  0
    4.5853   -5.1907    0.8343 C   0  0  0  0  0  0  0  0  0  0  0  0
    5.0228   -6.2339    0.0498 O   0  0  0  0  0  0  0  0  0  0  0  0
    4.1503   -6.8295   -0.8358 C   0  0  0  0  0  0  0  0  0  0  0  0
    2.7779   -6.9648   -0.6161 C   0  0  0  0  0  0  0  0  0  0  0  0
    1.9859   -7.5634   -1.5887 C   0  0  0  0  0  0  0  0  0  0  0  0
    0.6619   -7.6409   -1.4002 F   0  0  0  0  0  0  0  0  0  0  0  0
    2.5421   -8.0790   -2.7536 C   0  0  0  0  0  0  0  0  0  0  0  0
    3.9195   -7.9970   -2.9503 C   0  0  0  0  0  0  0  0  0  0  0  0
    4.7222   -7.3729   -1.9914 C   0  0  0  0  0  0  0  0  0  0  0  0
    5.1155   -5.1125    2.1157 C   0  0  0  0  0  0  0  0  0  0  0  0
    4.6917   -4.0789    2.9309 C   0  0  0  0  0  0  0  0  0  0  0  0
    3.7875   -3.1453    2.5569 N   0  0  0  0  0  0  0  0  0  0  0  0
    3.6153    0.2096   -1.6250 C   0  0  0  0  0  0  0  0  0  0  0  0
    3.8340    0.5347   -2.9455 C   0  0  0  0  0  0  0  0  0  0  0  0
    4.4379    1.7695   -2.9216 N   0  0  0  0  0  0  0  0  0  0  0  0
    4.8207    2.5604   -4.0362 C   0  0  0  0  0  0  0  0  0  0  0  0
    4.1663    2.3414   -5.2658 C   0  0  0  0  0  0  0  0  0  0  0  0
    4.4777    3.1156   -6.3900 C   0  0  0  0  0  0  0  0  0  0  0  0
    5.4525    4.0983   -6.3061 C   0  0  0  0  0  0  0  0  0  0  0  0
    6.1232    4.3086   -5.1000 C   0  0  0  0  0  0  0  0  0  0  0  0
    5.8143    3.5487   -3.9616 C   0  0  0  0  0  0  0  0  0  0  0  0
    6.8176    3.8378   -2.5826 Cl  0  0  0  0  0  0  0  0  0  0  0  0
    4.5596    2.1746   -1.6351 N   0  0  0  0  0  0  0  0  0  0  0  0
    4.0507    1.2405   -0.8401 N   0  0  0  0  0  0  0  0  0  0  0  0
    3.1922   -0.2976    0.7984 H   0  0  0  0  0  0  0  0  0  0  0  0
    1.5159   -2.6792    0.2230 H   0  0  0  0  0  0  0  0  0  0  0  0
    1.7150   -1.8523    1.7677 H   0  0  0  0  0  0  0  0  0  0  0  0
    3.3103   -4.2116   -0.6154 H   0  0  0  0  0  0  0  0  0  0  0  0
    2.3031   -6.6014    0.2884 H   0  0  0  0  0  0  0  0  0  0  0  0
    1.8999   -8.5451   -3.4938 H   0  0  0  0  0  0  0  0  0  0  0  0
    4.3671   -8.4131   -3.8493 H   0  0  0  0  0  0  0  0  0  0  0  0
    5.7962   -7.3049   -2.1486 H   0  0  0  0  0  0  0  0  0  0  0  0
    5.8358   -5.8400    2.4711 H   0  0  0  0  0  0  0  0  0  0  0  0
    5.0736   -3.9731    3.9425 H   0  0  0  0  0  0  0  0  0  0  0  0
    3.6521   -0.0244   -3.8503 H   0  0  0  0  0  0  0  0  0  0  0  0
    3.3763    1.6030   -5.3727 H   0  0  0  0  0  0  0  0  0  0  0  0
    3.9474    2.9525   -7.3264 H   0  0  0  0  0  0  0  0  0  0  0  0
    5.7009    4.7006   -7.1785 H   0  0  0  0  0  0  0  0  0  0  0  0
    6.9041    5.0663   -5.0576 H   0  0  0  0  0  0  0  0  0  0  0  0
  1  2  2  0  0  0  0
  2  3  1  0  0  0  0
  2 19  1  0  0  0  0
  3  4  1  0  0  0  0
  3 31  1  0  0  0  0
  4  5  1  0  0  0  0
  4 32  1  0  0  0  0
  4 33  1  0  0  0  0
  5  6  2  0  0  0  0
  5 18  1  0  0  0  0
  6  7  1  0  0  0  0
  6 34  1  0  0  0  0
  7  8  1  0  0  0  0
  7 16  2  0  0  0  0
  8  9  1  0  0  0  0
  9 10  2  0  0  0  0
  9 15  1  0  0  0  0
 10 11  1  0  0  0  0
 10 35  1  0  0  0  0
 11 12  1  0  0  0  0
 11 13  2  0  0  0  0
 13 14  1  0  0  0  0
 13 36  1  0  0  0  0
 14 15  2  0  0  0  0
 14 37  1  0  0  0  0
 15 38  1  0  0  0  0
 16 17  1  0  0  0  0
 16 39  1  0  0  0  0
 17 18  2  0  0  0  0
 17 40  1  0  0  0  0
 19 20  2  0  0  0  0
 19 30  1  0  0  0  0
 20 21  1  0  0  0  0
 20 41  1  0  0  0  0
 21 22  1  0  0  0  0
 21 29  1  0  0  0  0
 22 23  2  0  0  0  0
 22 27  1  0  0  0  0
 23 24  1  0  0  0  0
 23 42  1  0  0  0  0
 24 25  2  0  0  0  0
 24 43  1  0  0  0  0
 25 26  1  0  0  0  0
 25 44  1  0  0  0  0
 26 27  2  0  0  0  0
 26 45  1  0  0  0  0
 27 28  1  0  0  0  0
 29 30  2  0  0  0  0
M  END
$$$$
