
 OpenBabel01122422503D

 47 50  0  0  0  0  0  0  0  0999 V2000
    0.9071    0.1990   -0.6061 C   0  0  0  0  0  0  0  0  0  0  0  0
    2.3472    0.0212   -0.1879 C   0  0  0  0  0  0  0  0  0  0  0  0
    2.9603   -1.1516    0.0857 C   0  0  0  0  0  0  0  0  0  0  0  0
    2.2556   -2.4842    0.0266 C   0  0  0  0  0  0  0  0  0  0  0  0
    1.0379   -2.6135    0.0841 O   0  0  0  0  0  0  0  0  0  0  0  0
    3.0929   -3.5692   -0.0980 N   0  0  0  0  0  0  0  0  0  0  0  0
    2.5191   -4.8869   -0.2396 C   0  0  0  0  0  0  0  0  0  0  0  0
    3.5609   -5.9568   -0.4141 C   0  0  0  0  0  0  0  0  0  0  0  0
    4.0709   -6.6447    0.6953 C   0  0  0  0  0  0  0  0  0  0  0  0
    5.0583   -7.6189    0.5308 C   0  0  0  0  0  0  0  0  0  0  0  0
    5.5493   -7.9169   -0.7455 C   0  0  0  0  0  0  0  0  0  0  0  0
    6.6388   -8.8896   -0.9070 C   0  0  0  0  0  0  0  0  0  0  0  0
    6.3367  -10.1905   -1.0738 C   0  0  0  0  0  0  0  0  0  0  0  0
    7.3310  -11.1310   -1.1925 N   0  0  0  0  0  0  0  0  0  0  0  0
    8.6751  -10.8425   -1.1460 C   0  0  0  0  0  0  0  0  0  0  0  0
    9.5390  -11.7016   -1.2267 O   0  0  0  0  0  0  0  0  0  0  0  0
    9.0201   -9.4082   -0.9956 C   0  0  0  0  0  0  0  0  0  0  0  0
    8.0409   -8.5001   -0.8849 C   0  0  0  0  0  0  0  0  0  0  0  0
    5.0307   -7.2464   -1.8574 C   0  0  0  0  0  0  0  0  0  0  0  0
    4.0453   -6.2707   -1.6918 C   0  0  0  0  0  0  0  0  0  0  0  0
    4.3344   -1.2233    0.4358 O   0  0  0  0  0  0  0  0  0  0  0  0
    5.1383   -0.1318    0.5324 C   0  0  0  0  0  0  0  0  0  0  0  0
    6.3118   -0.2207    0.8746 O   0  0  0  0  0  0  0  0  0  0  0  0
    4.5310    1.1696    0.1851 C   0  0  0  0  0  0  0  0  0  0  0  0
    5.3486    2.3138    0.1651 C   0  0  0  0  0  0  0  0  0  0  0  0
    4.8172    3.5539   -0.1809 C   0  0  0  0  0  0  0  0  0  0  0  0
    3.4637    3.6598   -0.4760 C   0  0  0  0  0  0  0  0  0  0  0  0
    2.6510    2.5241   -0.4422 C   0  0  0  0  0  0  0  0  0  0  0  0
    3.1734    1.2516   -0.1374 C   0  0  0  0  0  0  0  0  0  0  0  0
    0.3353   -0.7183   -0.7224 H   0  0  0  0  0  0  0  0  0  0  0  0
    0.8555    0.6913   -1.5841 H   0  0  0  0  0  0  0  0  0  0  0  0
    0.3708    0.8110    0.1280 H   0  0  0  0  0  0  0  0  0  0  0  0
    4.0995   -3.4433   -0.1036 H   0  0  0  0  0  0  0  0  0  0  0  0
    1.8445   -4.8780   -1.1059 H   0  0  0  0  0  0  0  0  0  0  0  0
    1.8949   -5.0938    0.6374 H   0  0  0  0  0  0  0  0  0  0  0  0
    3.7023   -6.4247    1.6960 H   0  0  0  0  0  0  0  0  0  0  0  0
    5.4498   -8.1356    1.4048 H   0  0  0  0  0  0  0  0  0  0  0  0
    5.3181  -10.5621   -1.1087 H   0  0  0  0  0  0  0  0  0  0  0  0
    7.0958  -12.1101   -1.2980 H   0  0  0  0  0  0  0  0  0  0  0  0
   10.0710   -9.1525   -0.9823 H   0  0  0  0  0  0  0  0  0  0  0  0
    8.2776   -7.4448   -0.7778 H   0  0  0  0  0  0  0  0  0  0  0  0
    5.3976   -7.4722   -2.8562 H   0  0  0  0  0  0  0  0  0  0  0  0
    3.6561   -5.7552   -2.5672 H   0  0  0  0  0  0  0  0  0  0  0  0
    6.4079    2.2358    0.4062 H   0  0  0  0  0  0  0  0  0  0  0  0
    5.4554    4.4337   -0.2209 H   0  0  0  0  0  0  0  0  0  0  0  0
    3.0362    4.6237   -0.7430 H   0  0  0  0  0  0  0  0  0  0  0  0
    1.5986    2.6639   -0.6786 H   0  0  0  0  0  0  0  0  0  0  0  0
  1  2  1  0  0  0  0
  1 30  1  0  0  0  0
  1 31  1  0  0  0  0
  1 32  1  0  0  0  0
  2  3  2  0  0  0  0
  2 29  1  0  0  0  0
  3  4  1  0  0  0  0
  3 21  1  0  0  0  0
  4  5  2  0  0  0  0
  4  6  1  0  0  0  0
  6  7  1  0  0  0  0
  6 33  1  0  0  0  0
  7  8  1  0  0  0  0
  7 34  1  0  0  0  0
  7 35  1  0  0  0  0
  8  9  2  0  0  0  0
  8 20  1  0  0  0  0
  9 10  1  0  0  0  0
  9 36  1  0  0  0  0
 10 11  2  0  0  0  0
 10 37  1  0  0  0  0
 11 12  1  0  0  0  0
 11 19  1  0  0  0  0
 12 13  2  0  0  0  0
 12 18  1  0  0  0  0
 13 14  1  0  0  0  0
 13 38  1  0  0  0  0
 14 15  1  0  0  0  0
 14 39  1  0  0  0  0
 15 16  2  0  0  0  0
 15 17  1  0  0  0  0
 17 18  2  0  0  0  0
 17 40  1  0  0  0  0
 18 41  1  0  0  0  0
 19 20  2  0  0  0  0
 19 42  1  0  0  0  0
 20 43  1  0  0  0  0
 21 22  1  0  0  0  0
 22 23  2  0  0  0  0
 22 24  1  0  0  0  0
 24 25  2  0  0  0  0
 24 29  1  0  0  0  0
 25 26  1  0  0  0  0
 25 44  1  0  0  0  0
 26 27  2  0  0  0  0
 26 45  1  0  0  0  0
 27 28  1  0  0  0  0
 27 46  1  0  0  0  0
 28 29  2  0  0  0  0
 28 47  1  0  0  0  0
M  END
$$$$
