
 OpenBabel01122422503D

 39 42  0  0  0  0  0  0  0  0999 V2000
    1.1373    0.3620    0.0032 O   0  0  0  0  0  0  0  0  0  0  0  0
    2.3359    0.0915    0.0164 C   0  0  0  0  0  0  0  0  0  0  0  0
    3.0471   -0.0720    1.3140 C   0  0  0  0  0  0  0  0  0  0  0  0
    2.3508   -0.6101    2.3989 C   0  0  0  0  0  0  0  0  0  0  0  0
    3.0199   -0.8590    3.5989 C   0  0  0  0  0  0  0  0  0  0  0  0
    4.3799   -0.5679    3.7177 C   0  0  0  0  0  0  0  0  0  0  0  0
    5.0681    0.0072    2.6515 C   0  0  0  0  0  0  0  0  0  0  0  0
    4.3979    0.2771    1.4590 C   0  0  0  0  0  0  0  0  0  0  0  0
    3.0687   -0.0703   -1.2686 C   0  0  0  0  0  0  0  0  0  0  0  0
    2.6788    0.6842   -2.3789 C   0  0  0  0  0  0  0  0  0  0  0  0
    3.4175    0.6152   -3.5640 C   0  0  0  0  0  0  0  0  0  0  0  0
    4.5524   -0.2064   -3.6582 C   0  0  0  0  0  0  0  0  0  0  0  0
    5.3371   -0.2269   -4.8839 C   0  0  0  0  0  0  0  0  0  0  0  0
    5.1597    0.4206   -6.0105 N   0  0  0  0  0  0  0  0  0  0  0  0
    6.2021   -0.0395   -6.7976 C   0  0  0  0  0  0  0  0  0  0  0  0
    6.3427    0.3536   -8.1984 C   0  0  0  0  0  0  0  0  0  0  0  0
    5.4429    1.2755   -8.6531 N   0  0  0  0  0  0  0  0  0  0  0  0
    5.5006    1.5706   -9.9582 C   0  0  0  0  0  0  0  0  0  0  0  0
    4.5931    2.4944  -10.3542 O   0  0  0  0  0  0  0  0  0  0  0  0
    6.3812    1.0203  -10.8652 C   0  0  0  0  0  0  0  0  0  0  0  0
    7.3100    0.1057  -10.3837 C   0  0  0  0  0  0  0  0  0  0  0  0
    7.2969   -0.2271   -9.0328 C   0  0  0  0  0  0  0  0  0  0  0  0
    8.1977   -1.1143   -8.5882 F   0  0  0  0  0  0  0  0  0  0  0  0
    7.0075   -0.9085   -6.1624 N   0  0  0  0  0  0  0  0  0  0  0  0
    6.4366   -1.0345   -4.9023 O   0  0  0  0  0  0  0  0  0  0  0  0
    4.9031   -0.9970   -2.5561 C   0  0  0  0  0  0  0  0  0  0  0  0
    4.1548   -0.9486   -1.3796 C   0  0  0  0  0  0  0  0  0  0  0  0
    1.2933   -0.8502    2.3073 H   0  0  0  0  0  0  0  0  0  0  0  0
    2.4811   -1.2876    4.4403 H   0  0  0  0  0  0  0  0  0  0  0  0
    4.9025   -0.7816    4.6468 H   0  0  0  0  0  0  0  0  0  0  0  0
    6.1255    0.2424    2.7462 H   0  0  0  0  0  0  0  0  0  0  0  0
    4.9486    0.7473    0.6477 H   0  0  0  0  0  0  0  0  0  0  0  0
    1.8096    1.3389   -2.3182 H   0  0  0  0  0  0  0  0  0  0  0  0
    3.1085    1.2192   -4.4171 H   0  0  0  0  0  0  0  0  0  0  0  0
    4.1629    2.6925   -9.5018 H   0  0  0  0  0  0  0  0  0  0  0  0
    6.3461    1.2975  -11.9118 H   0  0  0  0  0  0  0  0  0  0  0  0
    8.0345   -0.3569  -11.0456 H   0  0  0  0  0  0  0  0  0  0  0  0
    5.7676   -1.6577   -2.5928 H   0  0  0  0  0  0  0  0  0  0  0  0
    4.4472   -1.5895   -0.5520 H   0  0  0  0  0  0  0  0  0  0  0  0
  1  2  2  0  0  0  0
  2  3  1  0  0  0  0
  2  9  1  0  0  0  0
  3  4  2  0  0  0  0
  3  8  1  0  0  0  0
  4  5  1  0  0  0  0
  4 28  1  0  0  0  0
  5  6  2  0  0  0  0
  5 29  1  0  0  0  0
  6  7  1  0  0  0  0
  6 30  1  0  0  0  0
  7  8  2  0  0  0  0
  7 31  1  0  0  0  0
  8 32  1  0  0  0  0
  9 10  2  0  0  0  0
  9 27  1  0  0  0  0
 10 11  1  0  0  0  0
 10 33  1  0  0  0  0
 11 12  2  0  0  0  0
 11 34  1  0  0  0  0
 12 13  1  0  0  0  0
 12 26  1  0  0  0  0
 13 14  2  0  0  0  0
 13 25  1  0  0  0  0
 14 15  1  0  0  0  0
 15 16  1  0  0  0  0
 15 24  2  0  0  0  0
 16 17  2  0  0  0  0
 16 22  1  0  0  0  0
 17 18  1  0  0  0  0
 18 19  1  0  0  0  0
 18 20  2  0  0  0  0
 19 35  1  0  0  0  0
 20 21  1  0  0  0  0
 20 36  1  0  0  0  0
 21 22  2  0  0  0  0
 21 37  1  0  0  0  0
 22 23  1  0  0  0  0
 24 25  1  0  0  0  0
 26 27  2  0  0  0  0
 26 38  1  0  0  0  0
 27 39  1  0  0  0  0
M  END
$$$$
