
 OpenBabel01122422503D

 40 43  0  0  0  0  0  0  0  0999 V2000
    0.8895    0.0053   -0.0337 O   0  0  0  0  0  0  0  0  0  0  0  0
    2.1162   -0.0587    0.0089 C   0  0  0  0  0  0  0  0  0  0  0  0
    2.8048   -1.2523    0.1446 N   0  0  0  0  0  0  0  0  0  0  0  0
    2.2106   -2.5011    0.2093 C   0  0  0  0  0  0  0  0  0  0  0  0
    0.9871   -2.8135   -0.2370 C   0  0  0  0  0  0  0  0  0  0  0  0
    0.3836   -4.0341   -0.1580 N   0  0  0  0  0  0  0  0  0  0  0  0
    1.0512   -4.9898    0.4047 C   0  0  0  0  0  0  0  0  0  0  0  0
    0.4119   -6.3285    0.5049 C   0  0  0  0  0  0  0  0  0  0  0  0
    1.0763   -7.3405    1.0718 C   0  0  0  0  0  0  0  0  0  0  0  0
    2.3978   -7.1380    1.5983 C   0  0  0  0  0  0  0  0  0  0  0  0
    2.9821   -5.9305    1.5114 C   0  0  0  0  0  0  0  0  0  0  0  0
    2.3363   -4.8480    0.9207 N   0  0  0  0  0  0  0  0  0  0  0  0
    2.9804   -3.6151    0.8546 C   0  0  0  0  0  0  0  0  0  0  0  0
    4.1030   -3.3728    1.3093 O   0  0  0  0  0  0  0  0  0  0  0  0
    2.8941    1.1502   -0.0178 C   0  0  0  0  0  0  0  0  0  0  0  0
    2.4572    2.4500    0.0443 C   0  0  0  0  0  0  0  0  0  0  0  0
    3.6211    3.2422   -0.0547 C   0  0  0  0  0  0  0  0  0  0  0  0
    3.6857    4.7026   -0.0123 C   0  0  0  0  0  0  0  0  0  0  0  0
    2.8117    5.3660    0.8786 C   0  0  0  0  0  0  0  0  0  0  0  0
    2.8443    6.7512    1.0382 C   0  0  0  0  0  0  0  0  0  0  0  0
    3.7719    7.5005    0.3312 C   0  0  0  0  0  0  0  0  0  0  0  0
    4.6181    6.8680   -0.5784 C   0  0  0  0  0  0  0  0  0  0  0  0
    4.5602    5.4713   -0.8011 C   0  0  0  0  0  0  0  0  0  0  0  0
    5.4124    4.9361   -1.9310 C   0  0  0  0  0  0  0  0  0  0  0  0
    5.1619    3.6676   -2.3431 F   0  0  0  0  0  0  0  0  0  0  0  0
    5.2429    5.6921   -3.0613 F   0  0  0  0  0  0  0  0  0  0  0  0
    6.7451    5.0036   -1.6576 F   0  0  0  0  0  0  0  0  0  0  0  0
    4.7095    2.4569   -0.1135 N   0  0  0  0  0  0  0  0  0  0  0  0
    4.2475    1.1458   -0.1245 O   0  0  0  0  0  0  0  0  0  0  0  0
    3.7943   -1.2150    0.3847 H   0  0  0  0  0  0  0  0  0  0  0  0
    0.3742   -2.0726   -0.7411 H   0  0  0  0  0  0  0  0  0  0  0  0
   -0.5865   -6.4311    0.0965 H   0  0  0  0  0  0  0  0  0  0  0  0
    0.6274   -8.3286    1.1464 H   0  0  0  0  0  0  0  0  0  0  0  0
    2.9082   -7.9787    2.0537 H   0  0  0  0  0  0  0  0  0  0  0  0
    3.9789   -5.7597    1.8984 H   0  0  0  0  0  0  0  0  0  0  0  0
    1.4284    2.7629    0.1496 H   0  0  0  0  0  0  0  0  0  0  0  0
    2.0929    4.8052    1.4748 H   0  0  0  0  0  0  0  0  0  0  0  0
    2.1558    7.2378    1.7250 H   0  0  0  0  0  0  0  0  0  0  0  0
    3.8263    8.5773    0.4718 H   0  0  0  0  0  0  0  0  0  0  0  0
    5.3237    7.4756   -1.1464 H   0  0  0  0  0  0  0  0  0  0  0  0
  1  2  2  0  0  0  0
  2  3  1  0  0  0  0
  2 15  1  0  0  0  0
  3  4  1  0  0  0  0
  3 30  1  0  0  0  0
  4  5  2  0  0  0  0
  4 13  1  0  0  0  0
  5  6  1  0  0  0  0
  5 31  1  0  0  0  0
  6  7  2  0  0  0  0
  7  8  1  0  0  0  0
  7 12  1  0  0  0  0
  8  9  2  0  0  0  0
  8 32  1  0  0  0  0
  9 10  1  0  0  0  0
  9 33  1  0  0  0  0
 10 11  2  0  0  0  0
 10 34  1  0  0  0  0
 11 12  1  0  0  0  0
 11 35  1  0  0  0  0
 12 13  1  0  0  0  0
 13 14  2  0  0  0  0
 15 16  2  0  0  0  0
 15 29  1  0  0  0  0
 16 17  1  0  0  0  0
 16 36  1  0  0  0  0
 17 18  1  0  0  0  0
 17 28  2  0  0  0  0
 18 19  2  0  0  0  0
 18 23  1  0  0  0  0
 19 20  1  0  0  0  0
 19 37  1  0  0  0  0
 20 21  2  0  0  0  0
 20 38  1  0  0  0  0
 21 22  1  0  0  0  0
 21 39  1  0  0  0  0
 22 23  2  0  0  0  0
 22 40  1  0  0  0  0
 23 24  1  0  0  0  0
 24 25  1  0  0  0  0
 24 26  1  0  0  0  0
 24 27  1  0  0  0  0
 28 29  1  0  0  0  0
M  END
$$$$
