
 OpenBabel01122422503D

 51 54  0  0  0  0  0  0  0  0999 V2000
    3.1857    3.0551    0.4672 N   0  0  0  0  0  0  0  0  0  0  0  0
    2.5237    1.8723    0.6333 C   0  0  0  0  0  0  0  0  0  0  0  0
    1.3033    1.8406    0.4827 O   0  0  0  0  0  0  0  0  0  0  0  0
    3.3221    0.6591    1.1454 C   0  0  0  0  0  0  0  0  0  0  0  0
    4.7515    0.5843    0.7739 N   0  0  0  0  0  0  0  0  0  0  0  0
    5.0588   -0.1977   -0.4334 C   0  0  0  0  0  0  0  0  0  0  0  0
    5.9626   -1.4038   -0.2492 C   0  0  0  0  0  0  0  0  0  0  0  0
    6.3638   -1.8760    1.0062 C   0  0  0  0  0  0  0  0  0  0  0  0
    7.0617   -3.0793    1.1390 C   0  0  0  0  0  0  0  0  0  0  0  0
    7.3539   -3.8799    0.0275 C   0  0  0  0  0  0  0  0  0  0  0  0
    7.9252   -5.2365    0.1866 C   0  0  0  0  0  0  0  0  0  0  0  0
    7.6375   -6.0263    1.3185 C   0  0  0  0  0  0  0  0  0  0  0  0
    8.1377   -7.3242    1.4486 C   0  0  0  0  0  0  0  0  0  0  0  0
    8.9318   -7.8655    0.4435 C   0  0  0  0  0  0  0  0  0  0  0  0
    9.2282   -7.1099   -0.6865 C   0  0  0  0  0  0  0  0  0  0  0  0
    8.7358   -5.8095   -0.8081 C   0  0  0  0  0  0  0  0  0  0  0  0
    7.0244   -3.3607   -1.2360 C   0  0  0  0  0  0  0  0  0  0  0  0
    6.3630   -2.1322   -1.3765 C   0  0  0  0  0  0  0  0  0  0  0  0
    5.6439    1.3210    1.5713 C   0  0  0  0  0  0  0  0  0  0  0  0
    5.1954    2.0214    2.4810 O   0  0  0  0  0  0  0  0  0  0  0  0
    7.1345    1.3035    1.3640 C   0  0  0  0  0  0  0  0  0  0  0  0
    7.6935    1.1505    0.0873 C   0  0  0  0  0  0  0  0  0  0  0  0
    9.0625    1.0533   -0.1305 C   0  0  0  0  0  0  0  0  0  0  0  0
    9.9326    1.2364    0.9272 C   0  0  0  0  0  0  0  0  0  0  0  0
   11.3175    1.2346    0.6804 N   0  0  0  0  0  0  0  0  0  0  0  0
   12.3567    1.3924    1.5474 C   0  0  0  0  0  0  0  0  0  0  0  0
   13.4763    1.4000    0.8822 N   0  0  0  0  0  0  0  0  0  0  0  0
   13.1379    1.2332   -0.4253 N   0  0  0  0  0  0  0  0  0  0  0  0
   11.8368    1.1106   -0.5499 N   0  0  0  0  0  0  0  0  0  0  0  0
    9.4224    1.4669    2.2106 C   0  0  0  0  0  0  0  0  0  0  0  0
    8.0315    1.4795    2.4336 C   0  0  0  0  0  0  0  0  0  0  0  0
    7.5647    1.7189    4.0839 Cl  0  0  0  0  0  0  0  0  0  0  0  0
    2.5810    3.8381    0.2459 H   0  0  0  0  0  0  0  0  0  0  0  0
    3.9219    3.2589    1.1389 H   0  0  0  0  0  0  0  0  0  0  0  0
    2.8181   -0.2382    0.7683 H   0  0  0  0  0  0  0  0  0  0  0  0
    3.2297    0.6434    2.2370 H   0  0  0  0  0  0  0  0  0  0  0  0
    5.4289    0.4906   -1.1957 H   0  0  0  0  0  0  0  0  0  0  0  0
    4.1240   -0.5712   -0.8667 H   0  0  0  0  0  0  0  0  0  0  0  0
    6.1261   -1.3357    1.9178 H   0  0  0  0  0  0  0  0  0  0  0  0
    7.3381   -3.3990    2.1416 H   0  0  0  0  0  0  0  0  0  0  0  0
    6.9898   -5.6520    2.1084 H   0  0  0  0  0  0  0  0  0  0  0  0
    7.8882   -7.9148    2.3269 H   0  0  0  0  0  0  0  0  0  0  0  0
    9.3118   -8.8775    0.5341 H   0  0  0  0  0  0  0  0  0  0  0  0
    9.8367   -7.5316   -1.4813 H   0  0  0  0  0  0  0  0  0  0  0  0
    8.9933   -5.2486   -1.7030 H   0  0  0  0  0  0  0  0  0  0  0  0
    7.2270   -3.9328   -2.1386 H   0  0  0  0  0  0  0  0  0  0  0  0
    6.1258   -1.7870   -2.3810 H   0  0  0  0  0  0  0  0  0  0  0  0
    7.1022    1.1061   -0.8100 H   0  0  0  0  0  0  0  0  0  0  0  0
    9.4077    0.8644   -1.1490 H   0  0  0  0  0  0  0  0  0  0  0  0
   12.2467    1.4813    2.6254 H   0  0  0  0  0  0  0  0  0  0  0  0
   10.0779    1.6577    3.0538 H   0  0  0  0  0  0  0  0  0  0  0  0
  1  2  1  0  0  0  0
  1 33  1  0  0  0  0
  1 34  1  0  0  0  0
  2  3  2  0  0  0  0
  2  4  1  0  0  0  0
  4  5  1  0  0  0  0
  4 35  1  0  0  0  0
  4 36  1  0  0  0  0
  5  6  1  0  0  0  0
  5 19  1  0  0  0  0
  6  7  1  0  0  0  0
  6 37  1  0  0  0  0
  6 38  1  0  0  0  0
  7  8  2  0  0  0  0
  7 18  1  0  0  0  0
  8  9  1  0  0  0  0
  8 39  1  0  0  0  0
  9 10  2  0  0  0  0
  9 40  1  0  0  0  0
 10 11  1  0  0  0  0
 10 17  1  0  0  0  0
 11 12  2  0  0  0  0
 11 16  1  0  0  0  0
 12 13  1  0  0  0  0
 12 41  1  0  0  0  0
 13 14  2  0  0  0  0
 13 42  1  0  0  0  0
 14 15  1  0  0  0  0
 14 43  1  0  0  0  0
 15 16  2  0  0  0  0
 15 44  1  0  0  0  0
 16 45  1  0  0  0  0
 17 18  2  0  0  0  0
 17 46  1  0  0  0  0
 18 47  1  0  0  0  0
 19 20  2  0  0  0  0
 19 21  1  0  0  0  0
 21 22  2  0  0  0  0
 21 31  1  0  0  0  0
 22 23  1  0  0  0  0
 22 48  1  0  0  0  0
 23 24  2  0  0  0  0
 23 49  1  0  0  0  0
 24 25  1  0  0  0  0
 24 30  1  0  0  0  0
 25 26  1  0  0  0  0
 25 29  1  0  0  0  0
 26 27  2  0  0  0  0
 26 50  1  0  0  0  0
 27 28  1  0  0  0  0
 28 29  2  0  0  0  0
 30 31  2  0  0  0  0
 30 51  1  0  0  0  0
 31 32  1  0  0  0  0
M  END
$$$$
