
 OpenBabel01122422503D

 48 51  0  0  1  0  0  0  0  0999 V2000
    2.2539   -1.3996   -0.0111 C   0  0  0  0  0  0  0  0  0  0  0  0
    2.4111    0.0524    0.0468 N   0  0  0  0  0  0  0  0  0  0  0  0
    2.0061    0.8439   -1.0395 C   0  0  0  0  0  0  0  0  0  0  0  0
    1.5563    0.3571   -2.0837 O   0  0  0  0  0  0  0  0  0  0  0  0
    2.0360    2.3368   -0.9485 C   0  0  0  0  0  0  0  0  0  0  0  0
    2.2312    3.0802   -2.1242 C   0  0  0  0  0  0  0  0  0  0  0  0
    2.2698    4.4805   -2.0867 C   0  0  0  0  0  0  0  0  0  0  0  0
    2.0928    5.1374   -0.8662 C   0  0  0  0  0  0  0  0  0  0  0  0
    2.1122    6.5933   -0.7638 C   0  0  0  0  0  0  0  0  0  0  0  0
    1.8891    7.2487    0.3349 N   0  0  0  0  0  0  0  0  0  0  0  0
    1.6367    6.5188    1.4634 N   0  0  0  0  0  0  0  0  0  0  0  0
    1.6224    5.1409    1.5454 C   0  0  0  0  0  0  0  0  0  0  0  0
    1.4144    4.5460    2.5979 O   0  0  0  0  0  0  0  0  0  0  0  0
    1.8570    4.4163    0.2913 C   0  0  0  0  0  0  0  0  0  0  0  0
    1.8099    3.0234    0.2530 C   0  0  0  0  0  0  0  0  0  0  0  0
    3.1674    0.5296    1.1458 C   0  0  0  0  0  0  0  0  0  0  0  0
    2.6507    0.3909    2.4366 C   0  0  0  0  0  0  0  0  0  0  0  0
    3.3293    0.9449    3.5182 C   0  0  0  0  0  0  0  0  0  0  0  0
    4.5664    1.5621    3.3247 C   0  0  0  0  0  0  0  0  0  0  0  0
    5.1303    1.6552    2.0403 C   0  0  0  0  0  0  0  0  0  0  0  0
    6.5505    2.1585    1.8183 C   0  0  3  0  0  0  0  0  0  0  0  0
    6.7018    3.4906    2.3072 O   0  0  0  0  0  0  0  0  0  0  0  0
    7.5971    1.2225    2.4120 C   0  0  0  0  0  0  0  0  0  0  0  0
    7.6640   -0.1158    1.9791 C   0  0  0  0  0  0  0  0  0  0  0  0
    8.5770   -1.0090    2.5430 C   0  0  0  0  0  0  0  0  0  0  0  0
    9.4527   -0.5760    3.5344 C   0  0  0  0  0  0  0  0  0  0  0  0
    9.4234    0.7519    3.9536 C   0  0  0  0  0  0  0  0  0  0  0  0
    8.5044    1.6448    3.3965 C   0  0  0  0  0  0  0  0  0  0  0  0
    4.3932    1.1734    0.9456 C   0  0  0  0  0  0  0  0  0  0  0  0
    1.8243   -1.7278   -0.9603 H   0  0  0  0  0  0  0  0  0  0  0  0
    1.6011   -1.7308    0.8018 H   0  0  0  0  0  0  0  0  0  0  0  0
    3.2385   -1.8702    0.0986 H   0  0  0  0  0  0  0  0  0  0  0  0
    2.3381    2.5656   -3.0794 H   0  0  0  0  0  0  0  0  0  0  0  0
    2.4190    5.0404   -3.0063 H   0  0  0  0  0  0  0  0  0  0  0  0
    2.3259    7.1702   -1.6773 H   0  0  0  0  0  0  0  0  0  0  0  0
    1.4474    7.0398    2.3109 H   0  0  0  0  0  0  0  0  0  0  0  0
    1.5868    2.4972    1.1747 H   0  0  0  0  0  0  0  0  0  0  0  0
    1.6794   -0.0715    2.5972 H   0  0  0  0  0  0  0  0  0  0  0  0
    2.8940    0.8947    4.5129 H   0  0  0  0  0  0  0  0  0  0  0  0
    5.0962    1.9431    4.1953 H   0  0  0  0  0  0  0  0  0  0  0  0
    6.7536    2.2224    0.7423 H   0  0  0  0  0  0  0  0  0  0  0  0
    6.1809    3.5640    3.1215 H   0  0  0  0  0  0  0  0  0  0  0  0
    6.9902   -0.4780    1.2053 H   0  0  0  0  0  0  0  0  0  0  0  0
    8.6006   -2.0438    2.2107 H   0  0  0  0  0  0  0  0  0  0  0  0
   10.1599   -1.2713    3.9780 H   0  0  0  0  0  0  0  0  0  0  0  0
   10.1161    1.0956    4.7167 H   0  0  0  0  0  0  0  0  0  0  0  0
    8.5065    2.6767    3.7396 H   0  0  0  0  0  0  0  0  0  0  0  0
    4.7955    1.2623   -0.0605 H   0  0  0  0  0  0  0  0  0  0  0  0
  1  2  1  0  0  0  0
  1 30  1  0  0  0  0
  1 31  1  0  0  0  0
  1 32  1  0  0  0  0
  2  3  1  0  0  0  0
  2 16  1  0  0  0  0
  3  4  2  0  0  0  0
  3  5  1  0  0  0  0
  5  6  2  0  0  0  0
  5 15  1  0  0  0  0
  6  7  1  0  0  0  0
  6 33  1  0  0  0  0
  7  8  2  0  0  0  0
  7 34  1  0  0  0  0
  8  9  1  0  0  0  0
  8 14  1  0  0  0  0
  9 10  2  0  0  0  0
  9 35  1  0  0  0  0
 10 11  1  0  0  0  0
 11 12  1  0  0  0  0
 11 36  1  0  0  0  0
 12 13  2  0  0  0  0
 12 14  1  0  0  0  0
 14 15  2  0  0  0  0
 15 37  1  0  0  0  0
 16 17  2  0  0  0  0
 16 29  1  0  0  0  0
 17 18  1  0  0  0  0
 17 38  1  0  0  0  0
 18 19  2  0  0  0  0
 18 39  1  0  0  0  0
 19 20  1  0  0  0  0
 19 40  1  0  0  0  0
 20 21  1  0  0  0  0
 20 29  2  0  0  0  0
 21 22  1  0  0  0  0
 21 23  1  0  0  0  0
 21 41  1  0  0  0  0
 22 42  1  0  0  0  0
 23 24  2  0  0  0  0
 23 28  1  0  0  0  0
 24 25  1  0  0  0  0
 24 43  1  0  0  0  0
 25 26  2  0  0  0  0
 25 44  1  0  0  0  0
 26 27  1  0  0  0  0
 26 45  1  0  0  0  0
 27 28  2  0  0  0  0
 27 46  1  0  0  0  0
 28 47  1  0  0  0  0
 29 48  1  0  0  0  0
M  END
$$$$
