
 OpenBabel01122422503D

 48 50  0  0  1  0  0  0  0  0999 V2000
    1.0327   -1.9843   -0.2961 C   0  0  0  0  0  0  0  0  0  0  0  0
    2.4083   -1.6696   -0.0680 O   0  0  0  0  0  0  0  0  0  0  0  0
    3.0166   -1.0596   -1.1286 C   0  0  0  0  0  0  0  0  0  0  0  0
    2.4594   -0.8190   -2.1938 O   0  0  0  0  0  0  0  0  0  0  0  0
    4.5030   -0.7264   -0.8481 C   0  0  3  0  0  0  0  0  0  0  0  0
    4.9845   -1.1134    0.4736 N   0  0  0  0  0  0  0  0  0  0  0  0
    4.8748   -0.2671    1.5533 C   0  0  0  0  0  0  0  0  0  0  0  0
    4.4925    0.8931    1.4605 O   0  0  0  0  0  0  0  0  0  0  0  0
    5.2529   -0.8296    2.8771 C   0  0  0  0  0  0  0  0  0  0  0  0
    5.7195    0.0350    3.8766 C   0  0  0  0  0  0  0  0  0  0  0  0
    6.0139   -0.4613    5.1514 C   0  0  0  0  0  0  0  0  0  0  0  0
    5.8227   -1.8129    5.4379 C   0  0  0  0  0  0  0  0  0  0  0  0
    6.0370   -2.1892    6.7387 O   0  0  0  0  0  0  0  0  0  0  0  0
    5.3183   -3.3610    7.1401 C   0  0  0  0  0  0  0  0  0  0  0  0
    5.1513   -3.3748    8.6302 C   0  0  0  0  0  0  0  0  0  0  0  0
    4.5158   -2.3245    9.2999 C   0  0  0  0  0  0  0  0  0  0  0  0
    4.3231   -2.4016   10.6741 C   0  0  0  0  0  0  0  0  0  0  0  0
    4.7690   -3.5349   11.3345 C   0  0  0  0  0  0  0  0  0  0  0  0
    5.3772   -4.5725   10.7213 N   0  0  0  0  0  0  0  0  0  0  0  0
    5.5536   -4.4686    9.3865 C   0  0  0  0  0  0  0  0  0  0  0  0
    5.4127   -2.6837    4.4265 C   0  0  0  0  0  0  0  0  0  0  0  0
    5.1085   -2.1929    3.1571 C   0  0  0  0  0  0  0  0  0  0  0  0
    5.3997   -1.3340   -1.9095 C   0  0  0  0  0  0  0  0  0  0  0  0
    6.2652   -0.5240   -2.6617 C   0  0  0  0  0  0  0  0  0  0  0  0
    7.0584   -1.0873   -3.6625 C   0  0  0  0  0  0  0  0  0  0  0  0
    6.9946   -2.4557   -3.9074 C   0  0  0  0  0  0  0  0  0  0  0  0
    7.7516   -2.9866   -4.8756 F   0  0  0  0  0  0  0  0  0  0  0  0
    6.1655   -3.2793   -3.1606 C   0  0  0  0  0  0  0  0  0  0  0  0
    5.3800   -2.7121   -2.1651 C   0  0  0  0  0  0  0  0  0  0  0  0
    4.5986   -3.5126   -1.4251 F   0  0  0  0  0  0  0  0  0  0  0  0
    0.5914   -2.2888    0.6568 H   0  0  0  0  0  0  0  0  0  0  0  0
    0.9514   -2.8185   -1.0001 H   0  0  0  0  0  0  0  0  0  0  0  0
    0.4825   -1.1136   -0.6642 H   0  0  0  0  0  0  0  0  0  0  0  0
    4.5558    0.3676   -0.9097 H   0  0  0  0  0  0  0  0  0  0  0  0
    5.2584   -2.0767    0.5981 H   0  0  0  0  0  0  0  0  0  0  0  0
    5.8370    1.0968    3.6716 H   0  0  0  0  0  0  0  0  0  0  0  0
    6.3592    0.2172    5.9286 H   0  0  0  0  0  0  0  0  0  0  0  0
    5.8742   -4.2450    6.8085 H   0  0  0  0  0  0  0  0  0  0  0  0
    4.3092   -3.3855    6.7063 H   0  0  0  0  0  0  0  0  0  0  0  0
    4.1680   -1.4523    8.7509 H   0  0  0  0  0  0  0  0  0  0  0  0
    3.8341   -1.6003   11.2164 H   0  0  0  0  0  0  0  0  0  0  0  0
    4.6413   -3.6423   12.4088 H   0  0  0  0  0  0  0  0  0  0  0  0
    6.0368   -5.3285    8.9281 H   0  0  0  0  0  0  0  0  0  0  0  0
    5.2982   -3.7479    4.6008 H   0  0  0  0  0  0  0  0  0  0  0  0
    4.7175   -2.8868    2.4202 H   0  0  0  0  0  0  0  0  0  0  0  0
    6.3180    0.5477   -2.4793 H   0  0  0  0  0  0  0  0  0  0  0  0
    7.7220   -0.4670   -4.2581 H   0  0  0  0  0  0  0  0  0  0  0  0
    6.1306   -4.3447   -3.3532 H   0  0  0  0  0  0  0  0  0  0  0  0
  1  2  1  0  0  0  0
  1 31  1  0  0  0  0
  1 32  1  0  0  0  0
  1 33  1  0  0  0  0
  2  3  1  0  0  0  0
  3  4  2  0  0  0  0
  3  5  1  0  0  0  0
  5  6  1  0  0  0  0
  5 23  1  0  0  0  0
  5 34  1  0  0  0  0
  6  7  1  0  0  0  0
  6 35  1  0  0  0  0
  7  8  2  0  0  0  0
  7  9  1  0  0  0  0
  9 10  2  0  0  0  0
  9 22  1  0  0  0  0
 10 11  1  0  0  0  0
 10 36  1  0  0  0  0
 11 12  2  0  0  0  0
 11 37  1  0  0  0  0
 12 13  1  0  0  0  0
 12 21  1  0  0  0  0
 13 14  1  0  0  0  0
 14 15  1  0  0  0  0
 14 38  1  0  0  0  0
 14 39  1  0  0  0  0
 15 16  2  0  0  0  0
 15 20  1  0  0  0  0
 16 17  1  0  0  0  0
 16 40  1  0  0  0  0
 17 18  2  0  0  0  0
 17 41  1  0  0  0  0
 18 19  1  0  0  0  0
 18 42  1  0  0  0  0
 19 20  2  0  0  0  0
 20 43  1  0  0  0  0
 21 22  2  0  0  0  0
 21 44  1  0  0  0  0
 22 45  1  0  0  0  0
 23 24  2  0  0  0  0
 23 29  1  0  0  0  0
 24 25  1  0  0  0  0
 24 46  1  0  0  0  0
 25 26  2  0  0  0  0
 25 47  1  0  0  0  0
 26 27  1  0  0  0  0
 26 28  1  0  0  0  0
 28 29  2  0  0  0  0
 28 48  1  0  0  0  0
 29 30  1  0  0  0  0
M  END
$$$$
