
 OpenBabel01122422503D

 47 50  0  0  0  0  0  0  0  0999 V2000
    2.5445    0.2487   -0.4706 C   0  0  0  0  0  0  0  0  0  0  0  0
    1.0762    0.1207   -0.1880 C   0  0  0  0  0  0  0  0  0  0  0  0
    0.3528    1.3145   -0.0316 C   0  0  0  0  0  0  0  0  0  0  0  0
   -1.0422    1.3208   -0.0013 C   0  0  0  0  0  0  0  0  0  0  0  0
   -1.8101    2.4644   -0.0097 O   0  0  0  0  0  0  0  0  0  0  0  0
   -1.3246    3.5900   -0.6410 C   0  0  0  0  0  0  0  0  0  0  0  0
   -0.5406    3.5623   -1.7938 C   0  0  0  0  0  0  0  0  0  0  0  0
   -0.0295    4.7575   -2.2627 C   0  0  0  0  0  0  0  0  0  0  0  0
   -0.3095    5.9563   -1.7115 N   0  0  0  0  0  0  0  0  0  0  0  0
   -1.1449    5.9588   -0.6495 C   0  0  0  0  0  0  0  0  0  0  0  0
   -1.6737    4.8127   -0.0813 C   0  0  0  0  0  0  0  0  0  0  0  0
   -1.7226    0.1125    0.0419 C   0  0  0  0  0  0  0  0  0  0  0  0
   -1.0093   -1.0883    0.0360 C   0  0  0  0  0  0  0  0  0  0  0  0
    0.3893   -1.1039   -0.0686 C   0  0  0  0  0  0  0  0  0  0  0  0
    1.1262   -2.3158   -0.0441 N   0  0  0  0  0  0  0  0  0  0  0  0
    0.6524   -3.5602    0.3425 C   0  0  0  0  0  0  0  0  0  0  0  0
   -0.4798   -3.8190    0.7362 O   0  0  0  0  0  0  0  0  0  0  0  0
    1.6203   -4.6874    0.2580 C   0  0  0  0  0  0  0  0  0  0  0  0
    2.9919   -4.5291    0.4521 C   0  0  0  0  0  0  0  0  0  0  0  0
    3.8502   -5.6324    0.3300 C   0  0  0  0  0  0  0  0  0  0  0  0
    3.3658   -6.9130    0.0210 C   0  0  0  0  0  0  0  0  0  0  0  0
    4.2356   -8.0276   -0.1430 N   0  0  0  0  0  0  0  0  0  0  0  0
    3.8935   -9.3208   -0.5231 C   0  0  0  0  0  0  0  0  0  0  0  0
    4.9906  -10.0837   -0.5872 C   0  0  0  0  0  0  0  0  0  0  0  0
    6.0705   -9.3222   -0.2522 N   0  0  0  0  0  0  0  0  0  0  0  0
    5.6602   -8.0069    0.0386 C   0  0  0  0  0  0  0  0  0  0  0  0
    6.4201   -7.1114    0.3653 O   0  0  0  0  0  0  0  0  0  0  0  0
    1.9781   -7.0598   -0.1280 C   0  0  0  0  0  0  0  0  0  0  0  0
    1.1154   -5.9640   -0.0055 C   0  0  0  0  0  0  0  0  0  0  0  0
    2.7483    1.1999   -0.9804 H   0  0  0  0  0  0  0  0  0  0  0  0
    2.8910   -0.5277   -1.1592 H   0  0  0  0  0  0  0  0  0  0  0  0
    3.1261    0.2190    0.4533 H   0  0  0  0  0  0  0  0  0  0  0  0
    0.8998    2.2538    0.0102 H   0  0  0  0  0  0  0  0  0  0  0  0
   -0.2903    2.6356   -2.2973 H   0  0  0  0  0  0  0  0  0  0  0  0
    0.6477    4.7788   -3.1120 H   0  0  0  0  0  0  0  0  0  0  0  0
   -1.3795    6.9411   -0.2495 H   0  0  0  0  0  0  0  0  0  0  0  0
   -2.3265    4.8703    0.7813 H   0  0  0  0  0  0  0  0  0  0  0  0
   -2.8083    0.0913    0.0814 H   0  0  0  0  0  0  0  0  0  0  0  0
   -1.5861   -2.0071    0.0707 H   0  0  0  0  0  0  0  0  0  0  0  0
    2.1078   -2.2425   -0.2756 H   0  0  0  0  0  0  0  0  0  0  0  0
    3.4218   -3.5708    0.7277 H   0  0  0  0  0  0  0  0  0  0  0  0
    4.9094   -5.4488    0.4853 H   0  0  0  0  0  0  0  0  0  0  0  0
    2.8836   -9.6288   -0.7389 H   0  0  0  0  0  0  0  0  0  0  0  0
    5.0820  -11.1253   -0.8547 H   0  0  0  0  0  0  0  0  0  0  0  0
    7.0354   -9.6140   -0.2094 H   0  0  0  0  0  0  0  0  0  0  0  0
    1.5238   -8.0234   -0.3342 H   0  0  0  0  0  0  0  0  0  0  0  0
    0.0425   -6.1133   -0.1206 H   0  0  0  0  0  0  0  0  0  0  0  0
  1  2  1  0  0  0  0
  1 30  1  0  0  0  0
  1 31  1  0  0  0  0
  1 32  1  0  0  0  0
  2  3  2  0  0  0  0
  2 14  1  0  0  0  0
  3  4  1  0  0  0  0
  3 33  1  0  0  0  0
  4  5  1  0  0  0  0
  4 12  2  0  0  0  0
  5  6  1  0  0  0  0
  6  7  2  0  0  0  0
  6 11  1  0  0  0  0
  7  8  1  0  0  0  0
  7 34  1  0  0  0  0
  8  9  2  0  0  0  0
  8 35  1  0  0  0  0
  9 10  1  0  0  0  0
 10 11  2  0  0  0  0
 10 36  1  0  0  0  0
 11 37  1  0  0  0  0
 12 13  1  0  0  0  0
 12 38  1  0  0  0  0
 13 14  2  0  0  0  0
 13 39  1  0  0  0  0
 14 15  1  0  0  0  0
 15 16  1  0  0  0  0
 15 40  1  0  0  0  0
 16 17  2  0  0  0  0
 16 18  1  0  0  0  0
 18 19  2  0  0  0  0
 18 29  1  0  0  0  0
 19 20  1  0  0  0  0
 19 41  1  0  0  0  0
 20 21  2  0  0  0  0
 20 42  1  0  0  0  0
 21 22  1  0  0  0  0
 21 28  1  0  0  0  0
 22 23  1  0  0  0  0
 22 26  1  0  0  0  0
 23 24  2  0  0  0  0
 23 43  1  0  0  0  0
 24 25  1  0  0  0  0
 24 44  1  0  0  0  0
 25 26  1  0  0  0  0
 25 45  1  0  0  0  0
 26 27  2  0  0  0  0
 28 29  2  0  0  0  0
 28 46  1  0  0  0  0
 29 47  1  0  0  0  0
M  END
$$$$
