
 OpenBabel01122422503D

 46 49  0  0  0  0  0  0  0  0999 V2000
    1.1074    0.2830   -0.4059 C   0  0  0  0  0  0  0  0  0  0  0  0
    2.5407    0.1162   -0.0390 C   0  0  0  0  0  0  0  0  0  0  0  0
    3.2902    1.1861    0.2380 N   0  0  0  0  0  0  0  0  0  0  0  0
    4.5304    0.6974    0.4677 N   0  0  0  0  0  0  0  0  0  0  0  0
    5.6050    1.5813    0.7525 C   0  0  0  0  0  0  0  0  0  0  0  0
    5.3458    2.9475    0.9073 C   0  0  0  0  0  0  0  0  0  0  0  0
    6.4103    3.7905    1.1721 C   0  0  0  0  0  0  0  0  0  0  0  0
    7.6879    3.3697    1.2853 N   0  0  0  0  0  0  0  0  0  0  0  0
    7.9109    2.0482    1.1281 C   0  0  0  0  0  0  0  0  0  0  0  0
    6.9159    1.1187    0.8690 C   0  0  0  0  0  0  0  0  0  0  0  0
    4.5588   -0.6824    0.3733 C   0  0  0  0  0  0  0  0  0  0  0  0
    3.2757   -1.0975    0.0665 C   0  0  0  0  0  0  0  0  0  0  0  0
    2.7299   -2.4290   -0.1356 C   0  0  0  0  0  0  0  0  0  0  0  0
    1.5470   -2.5447   -0.4438 O   0  0  0  0  0  0  0  0  0  0  0  0
    3.5946   -3.4921    0.0827 N   0  0  0  0  0  0  0  0  0  0  0  0
    3.2355   -4.8565   -0.0533 C   0  0  0  0  0  0  0  0  0  0  0  0
    2.0611   -5.2573   -0.6924 C   0  0  0  0  0  0  0  0  0  0  0  0
    1.6902   -6.5967   -0.7446 C   0  0  0  0  0  0  0  0  0  0  0  0
    2.5309   -7.5783   -0.2305 C   0  0  0  0  0  0  0  0  0  0  0  0
    2.2244   -8.9212   -0.2719 O   0  0  0  0  0  0  0  0  0  0  0  0
    1.5702   -9.3971   -1.4061 C   0  0  0  0  0  0  0  0  0  0  0  0
    1.7999   -8.7776   -2.5945 N   0  0  0  0  0  0  0  0  0  0  0  0
    1.1231   -9.2191   -3.6731 C   0  0  0  0  0  0  0  0  0  0  0  0
    0.2521  -10.2919   -3.6371 C   0  0  0  0  0  0  0  0  0  0  0  0
    0.0616  -10.9457   -2.4210 C   0  0  0  0  0  0  0  0  0  0  0  0
    0.7281  -10.4935   -1.2762 C   0  0  0  0  0  0  0  0  0  0  0  0
    0.5200  -11.1391   -0.0197 C   0  0  0  0  0  0  0  0  0  0  0  0
    0.3244  -11.6884    0.9842 N   0  0  0  0  0  0  0  0  0  0  0  0
    3.7152   -7.1984    0.4037 C   0  0  0  0  0  0  0  0  0  0  0  0
    4.0736   -5.8415    0.4831 C   0  0  0  0  0  0  0  0  0  0  0  0
    0.8210    1.3377   -0.4576 H   0  0  0  0  0  0  0  0  0  0  0  0
    0.4612   -0.2079    0.3294 H   0  0  0  0  0  0  0  0  0  0  0  0
    0.9149   -0.1605   -1.3891 H   0  0  0  0  0  0  0  0  0  0  0  0
    4.3428    3.3573    0.8313 H   0  0  0  0  0  0  0  0  0  0  0  0
    6.2574    4.8571    1.3055 H   0  0  0  0  0  0  0  0  0  0  0  0
    8.9504    1.7449    1.2115 H   0  0  0  0  0  0  0  0  0  0  0  0
    7.1944    0.0801    0.7494 H   0  0  0  0  0  0  0  0  0  0  0  0
    5.4678   -1.2362    0.5311 H   0  0  0  0  0  0  0  0  0  0  0  0
    4.5034   -3.2938    0.4741 H   0  0  0  0  0  0  0  0  0  0  0  0
    1.3973   -4.5565   -1.1862 H   0  0  0  0  0  0  0  0  0  0  0  0
    0.7472   -6.8484   -1.2211 H   0  0  0  0  0  0  0  0  0  0  0  0
    1.3020   -8.6637   -4.5898 H   0  0  0  0  0  0  0  0  0  0  0  0
   -0.2651  -10.6111   -4.5358 H   0  0  0  0  0  0  0  0  0  0  0  0
   -0.6122  -11.7988   -2.3715 H   0  0  0  0  0  0  0  0  0  0  0  0
    4.3621   -7.9561    0.8378 H   0  0  0  0  0  0  0  0  0  0  0  0
    4.9997   -5.5772    0.9855 H   0  0  0  0  0  0  0  0  0  0  0  0
  1  2  1  0  0  0  0
  1 31  1  0  0  0  0
  1 32  1  0  0  0  0
  1 33  1  0  0  0  0
  2  3  2  0  0  0  0
  2 12  1  0  0  0  0
  3  4  1  0  0  0  0
  4  5  1  0  0  0  0
  4 11  1  0  0  0  0
  5  6  2  0  0  0  0
  5 10  1  0  0  0  0
  6  7  1  0  0  0  0
  6 34  1  0  0  0  0
  7  8  2  0  0  0  0
  7 35  1  0  0  0  0
  8  9  1  0  0  0  0
  9 10  2  0  0  0  0
  9 36  1  0  0  0  0
 10 37  1  0  0  0  0
 11 12  2  0  0  0  0
 11 38  1  0  0  0  0
 12 13  1  0  0  0  0
 13 14  2  0  0  0  0
 13 15  1  0  0  0  0
 15 16  1  0  0  0  0
 15 39  1  0  0  0  0
 16 17  2  0  0  0  0
 16 30  1  0  0  0  0
 17 18  1  0  0  0  0
 17 40  1  0  0  0  0
 18 19  2  0  0  0  0
 18 41  1  0  0  0  0
 19 20  1  0  0  0  0
 19 29  1  0  0  0  0
 20 21  1  0  0  0  0
 21 22  2  0  0  0  0
 21 26  1  0  0  0  0
 22 23  1  0  0  0  0
 23 24  2  0  0  0  0
 23 42  1  0  0  0  0
 24 25  1  0  0  0  0
 24 43  1  0  0  0  0
 25 26  2  0  0  0  0
 25 44  1  0  0  0  0
 26 27  1  0  0  0  0
 27 28  3  0  0  0  0
 29 30  2  0  0  0  0
 29 45  1  0  0  0  0
 30 46  1  0  0  0  0
M  END
$$$$
