
 OpenBabel01122422463D

 45 47  0  0  0  0  0  0  0  0999 V2000
    3.0593    1.1165   -2.5319 O   0  0  0  0  0  0  0  0  0  0  0  0
    3.2939    0.6701   -1.4139 C   0  0  0  0  0  0  0  0  0  0  0  0
    2.9557   -0.6026   -1.0114 N   0  0  0  0  0  0  0  0  0  0  0  0
    2.2705   -1.5466   -1.8733 C   0  0  0  0  0  0  0  0  0  0  0  0
    3.2007   -2.2768   -2.8219 C   0  0  0  0  0  0  0  0  0  0  0  0
    3.5227   -1.7085   -4.0515 C   0  0  0  0  0  0  0  0  0  0  0  0
    4.4650   -2.3391   -4.8615 C   0  0  0  0  0  0  0  0  0  0  0  0
    4.9082   -1.8424   -6.0665 O   0  0  0  0  0  0  0  0  0  0  0  0
    5.0343   -0.4810   -6.2421 C   0  0  0  0  0  0  0  0  0  0  0  0
    5.3810    0.4190   -5.2255 C   0  0  0  0  0  0  0  0  0  0  0  0
    5.4341    1.7901   -5.4858 C   0  0  0  0  0  0  0  0  0  0  0  0
    5.2038    2.2515   -6.7757 C   0  0  0  0  0  0  0  0  0  0  0  0
    5.2527    3.5673   -7.0232 F   0  0  0  0  0  0  0  0  0  0  0  0
    4.9359    1.3530   -7.8037 C   0  0  0  0  0  0  0  0  0  0  0  0
    4.7353    1.7992   -9.0493 F   0  0  0  0  0  0  0  0  0  0  0  0
    4.8457   -0.0113   -7.5440 C   0  0  0  0  0  0  0  0  0  0  0  0
    4.9691   -3.5759   -4.4796 C   0  0  0  0  0  0  0  0  0  0  0  0
    4.5682   -4.0930   -3.2602 C   0  0  0  0  0  0  0  0  0  0  0  0
    3.7207   -3.4633   -2.4135 N   0  0  0  0  0  0  0  0  0  0  0  0
    4.0089    1.4980   -0.3894 C   0  0  0  0  0  0  0  0  0  0  0  0
    3.9040    1.0955    0.9065 N   0  0  0  0  0  0  0  0  0  0  0  0
    4.5206    1.8782    1.8176 C   0  0  0  0  0  0  0  0  0  0  0  0
    4.3752    1.5988    3.1612 O   0  0  0  0  0  0  0  0  0  0  0  0
    4.0423    0.2277    3.4031 C   0  0  0  0  0  0  0  0  0  0  0  0
    3.8956   -0.0064    4.8956 C   0  0  0  0  0  0  0  0  0  0  0  0
    3.5156   -1.2912    5.1176 F   0  0  0  0  0  0  0  0  0  0  0  0
    5.0954    0.1500    5.5132 F   0  0  0  0  0  0  0  0  0  0  0  0
    5.2569    3.0118    1.5031 C   0  0  0  0  0  0  0  0  0  0  0  0
    5.3763    3.3756    0.1656 C   0  0  0  0  0  0  0  0  0  0  0  0
    4.7269    2.6160   -0.8015 C   0  0  0  0  0  0  0  0  0  0  0  0
    3.2688   -0.9061   -0.0960 H   0  0  0  0  0  0  0  0  0  0  0  0
    1.4944   -1.0200   -2.4406 H   0  0  0  0  0  0  0  0  0  0  0  0
    1.7698   -2.2728   -1.2228 H   0  0  0  0  0  0  0  0  0  0  0  0
    3.0647   -0.7692   -4.3439 H   0  0  0  0  0  0  0  0  0  0  0  0
    5.5840    0.0731   -4.2153 H   0  0  0  0  0  0  0  0  0  0  0  0
    5.6425    2.4957   -4.6891 H   0  0  0  0  0  0  0  0  0  0  0  0
    4.6223   -0.6963   -8.3557 H   0  0  0  0  0  0  0  0  0  0  0  0
    5.6616   -4.1191   -5.1121 H   0  0  0  0  0  0  0  0  0  0  0  0
    4.9335   -5.0568   -2.9170 H   0  0  0  0  0  0  0  0  0  0  0  0
    4.8385   -0.4174    3.0133 H   0  0  0  0  0  0  0  0  0  0  0  0
    3.0921   -0.0356    2.9229 H   0  0  0  0  0  0  0  0  0  0  0  0
    3.1725    0.6686    5.3612 H   0  0  0  0  0  0  0  0  0  0  0  0
    5.7324    3.5965    2.2841 H   0  0  0  0  0  0  0  0  0  0  0  0
    5.9603    4.2466   -0.1187 H   0  0  0  0  0  0  0  0  0  0  0  0
    4.7831    2.8844   -1.8514 H   0  0  0  0  0  0  0  0  0  0  0  0
  1  2  2  0  0  0  0
  2  3  1  0  0  0  0
  2 20  1  0  0  0  0
  3  4  1  0  0  0  0
  3 31  1  0  0  0  0
  4  5  1  0  0  0  0
  4 32  1  0  0  0  0
  4 33  1  0  0  0  0
  5  6  2  0  0  0  0
  5 19  1  0  0  0  0
  6  7  1  0  0  0  0
  6 34  1  0  0  0  0
  7  8  1  0  0  0  0
  7 17  2  0  0  0  0
  8  9  1  0  0  0  0
  9 10  2  0  0  0  0
  9 16  1  0  0  0  0
 10 11  1  0  0  0  0
 10 35  1  0  0  0  0
 11 12  2  0  0  0  0
 11 36  1  0  0  0  0
 12 13  1  0  0  0  0
 12 14  1  0  0  0  0
 14 15  1  0  0  0  0
 14 16  2  0  0  0  0
 16 37  1  0  0  0  0
 17 18  1  0  0  0  0
 17 38  1  0  0  0  0
 18 19  2  0  0  0  0
 18 39  1  0  0  0  0
 20 21  2  0  0  0  0
 20 30  1  0  0  0  0
 21 22  1  0  0  0  0
 22 23  1  0  0  0  0
 22 28  2  0  0  0  0
 23 24  1  0  0  0  0
 24 25  1  0  0  0  0
 24 40  1  0  0  0  0
 24 41  1  0  0  0  0
 25 26  1  0  0  0  0
 25 27  1  0  0  0  0
 25 42  1  0  0  0  0
 28 29  1  0  0  0  0
 28 43  1  0  0  0  0
 29 30  2  0  0  0  0
 29 44  1  0  0  0  0
 30 45  1  0  0  0  0
M  END
$$$$
