
 OpenBabel01122422503D

 41 44  0  0  0  0  0  0  0  0999 V2000
    1.0797    0.9099   -0.3883 O   0  0  0  0  0  0  0  0  0  0  0  0
    2.1804    0.4006   -0.2038 C   0  0  0  0  0  0  0  0  0  0  0  0
    2.7023   -0.6563   -0.9297 N   0  0  0  0  0  0  0  0  0  0  0  0
    2.0161   -1.3301   -1.9651 C   0  0  0  0  0  0  0  0  0  0  0  0
    0.8983   -0.8002   -2.6129 C   0  0  0  0  0  0  0  0  0  0  0  0
    0.2127   -1.5458   -3.5662 C   0  0  0  0  0  0  0  0  0  0  0  0
    0.6932   -2.8022   -3.8725 C   0  0  0  0  0  0  0  0  0  0  0  0
    0.0016   -3.5045   -4.8513 O   0  0  0  0  0  0  0  0  0  0  0  0
    0.7345   -4.3710   -5.6267 C   0  0  0  0  0  0  0  0  0  0  0  0
    0.1401   -5.5732   -6.0001 C   0  0  0  0  0  0  0  0  0  0  0  0
   -1.1189   -5.8529   -5.6283 F   0  0  0  0  0  0  0  0  0  0  0  0
    0.8568   -6.4910   -6.7593 C   0  0  0  0  0  0  0  0  0  0  0  0
    0.2982   -7.6580   -7.1095 F   0  0  0  0  0  0  0  0  0  0  0  0
    2.1622   -6.2179   -7.1629 C   0  0  0  0  0  0  0  0  0  0  0  0
    2.7444   -4.9959   -6.8330 C   0  0  0  0  0  0  0  0  0  0  0  0
    2.0224   -4.0655   -6.0883 C   0  0  0  0  0  0  0  0  0  0  0  0
    1.7866   -3.3509   -3.2888 N   0  0  0  0  0  0  0  0  0  0  0  0
    2.4303   -2.5971   -2.3650 C   0  0  0  0  0  0  0  0  0  0  0  0
    2.9995    0.8609    0.8855 C   0  0  0  0  0  0  0  0  0  0  0  0
    4.2245    0.4932    1.1898 N   0  0  0  0  0  0  0  0  0  0  0  0
    4.5833    1.1766    2.3427 N   0  0  0  0  0  0  0  0  0  0  0  0
    3.5569    1.9211    2.7201 C   0  0  0  0  0  0  0  0  0  0  0  0
    3.3920    2.7619    3.8930 C   0  0  0  0  0  0  0  0  0  0  0  0
    4.3899    2.8942    4.8464 C   0  0  0  0  0  0  0  0  0  0  0  0
    4.1393    3.6895    5.9600 C   0  0  0  0  0  0  0  0  0  0  0  0
    2.9098    4.3273    6.0822 C   0  0  0  0  0  0  0  0  0  0  0  0
    1.9694    4.1397    5.0803 C   0  0  0  0  0  0  0  0  0  0  0  0
    2.1800    3.3737    3.9888 N   0  0  0  0  0  0  0  0  0  0  0  0
    2.5600    1.7663    1.8026 N   0  0  0  0  0  0  0  0  0  0  0  0
    3.5663   -1.0571   -0.5748 H   0  0  0  0  0  0  0  0  0  0  0  0
    0.5370    0.2023   -2.4120 H   0  0  0  0  0  0  0  0  0  0  0  0
   -0.6615   -1.1424   -4.0632 H   0  0  0  0  0  0  0  0  0  0  0  0
    2.7158   -6.9571   -7.7321 H   0  0  0  0  0  0  0  0  0  0  0  0
    3.7617   -4.7675   -7.1391 H   0  0  0  0  0  0  0  0  0  0  0  0
    2.4851   -3.1133   -5.8408 H   0  0  0  0  0  0  0  0  0  0  0  0
    3.3028   -3.0781   -1.9319 H   0  0  0  0  0  0  0  0  0  0  0  0
    5.3394    2.3821    4.7287 H   0  0  0  0  0  0  0  0  0  0  0  0
    4.8987    3.8063    6.7283 H   0  0  0  0  0  0  0  0  0  0  0  0
    2.6879    4.9498    6.9434 H   0  0  0  0  0  0  0  0  0  0  0  0
    0.9938    4.6156    5.1380 H   0  0  0  0  0  0  0  0  0  0  0  0
    1.6457    2.1962    1.8394 H   0  0  0  0  0  0  0  0  0  0  0  0
  1  2  2  0  0  0  0
  2  3  1  0  0  0  0
  2 19  1  0  0  0  0
  3  4  1  0  0  0  0
  3 30  1  0  0  0  0
  4  5  2  0  0  0  0
  4 18  1  0  0  0  0
  5  6  1  0  0  0  0
  5 31  1  0  0  0  0
  6  7  2  0  0  0  0
  6 32  1  0  0  0  0
  7  8  1  0  0  0  0
  7 17  1  0  0  0  0
  8  9  1  0  0  0  0
  9 10  2  0  0  0  0
  9 16  1  0  0  0  0
 10 11  1  0  0  0  0
 10 12  1  0  0  0  0
 12 13  1  0  0  0  0
 12 14  2  0  0  0  0
 14 15  1  0  0  0  0
 14 33  1  0  0  0  0
 15 16  2  0  0  0  0
 15 34  1  0  0  0  0
 16 35  1  0  0  0  0
 17 18  2  0  0  0  0
 18 36  1  0  0  0  0
 19 20  2  0  0  0  0
 19 29  1  0  0  0  0
 20 21  1  0  0  0  0
 21 22  2  0  0  0  0
 22 23  1  0  0  0  0
 22 29  1  0  0  0  0
 23 24  2  0  0  0  0
 23 28  1  0  0  0  0
 24 25  1  0  0  0  0
 24 37  1  0  0  0  0
 25 26  2  0  0  0  0
 25 38  1  0  0  0  0
 26 27  1  0  0  0  0
 26 39  1  0  0  0  0
 27 28  2  0  0  0  0
 27 40  1  0  0  0  0
 29 41  1  0  0  0  0
M  END
$$$$
