
 OpenBabel01122422503D

 48 51  0  0  0  0  0  0  0  0999 V2000
    0.3487    2.3978    2.7283 O   0  0  0  0  0  0  0  0  0  0  0  0
    1.4443    2.6541    2.2581 C   0  0  0  0  0  0  0  0  0  0  0  0
    1.7449    3.8376    1.6873 O   0  0  0  0  0  0  0  0  0  0  0  0
    2.5547    1.6738    2.2391 C   0  0  0  0  0  0  0  0  0  0  0  0
    2.2406    0.3183    2.1187 C   0  0  0  0  0  0  0  0  0  0  0  0
    3.2641   -0.6224    2.0668 C   0  0  0  0  0  0  0  0  0  0  0  0
    4.5979   -0.2048    2.1091 C   0  0  0  0  0  0  0  0  0  0  0  0
    4.9458    1.1542    2.2333 C   0  0  0  0  0  0  0  0  0  0  0  0
    6.3598    1.5967    2.1636 C   0  0  0  0  0  0  0  0  0  0  0  0
    7.4176    0.7994    2.6322 C   0  0  0  0  0  0  0  0  0  0  0  0
    8.7523    1.1794    2.4549 C   0  0  0  0  0  0  0  0  0  0  0  0
    9.0626    2.3712    1.8054 C   0  0  0  0  0  0  0  0  0  0  0  0
    8.0385    3.1970    1.3369 C   0  0  0  0  0  0  0  0  0  0  0  0
    8.3409    4.4821    0.6169 C   0  0  0  0  0  0  0  0  0  0  0  0
    8.4734    5.5816    1.5401 N   0  0  0  0  0  0  0  0  0  0  0  0
    7.4673    6.5076    1.7160 C   0  0  0  0  0  0  0  0  0  0  0  0
    6.4045    6.4898    1.1055 O   0  0  0  0  0  0  0  0  0  0  0  0
    7.7908    7.6408    2.6267 C   0  0  0  0  0  0  0  0  0  0  0  0
    9.0424    8.2672    2.4578 C   0  0  0  0  0  0  0  0  0  0  0  0
    9.3319    9.4735    3.0965 C   0  0  0  0  0  0  0  0  0  0  0  0
    8.3624   10.0921    3.8794 C   0  0  0  0  0  0  0  0  0  0  0  0
    7.1180    9.4861    4.0567 C   0  0  0  0  0  0  0  0  0  0  0  0
    6.8372    8.2363    3.4665 C   0  0  0  0  0  0  0  0  0  0  0  0
    5.6165    7.5947    3.8021 N   0  0  0  0  0  0  0  0  0  0  0  0
    5.4740    6.2375    3.8064 N   0  0  0  0  0  0  0  0  0  0  0  0
    4.2344    6.0825    4.2747 C   0  0  0  0  0  0  0  0  0  0  0  0
    3.6841    7.3253    4.5877 C   0  0  0  0  0  0  0  0  0  0  0  0
    4.5735    8.2897    4.3456 N   0  0  0  0  0  0  0  0  0  0  0  0
    6.7035    2.8129    1.5423 C   0  0  0  0  0  0  0  0  0  0  0  0
    3.8925    2.0802    2.3424 C   0  0  0  0  0  0  0  0  0  0  0  0
    2.5768    3.8584    1.1786 H   0  0  0  0  0  0  0  0  0  0  0  0
    1.2025   -0.0034    2.0573 H   0  0  0  0  0  0  0  0  0  0  0  0
    3.0284   -1.6787    1.9666 H   0  0  0  0  0  0  0  0  0  0  0  0
    5.3699   -0.9661    2.0134 H   0  0  0  0  0  0  0  0  0  0  0  0
    7.2183   -0.1415    3.1405 H   0  0  0  0  0  0  0  0  0  0  0  0
    9.5496    0.5324    2.8117 H   0  0  0  0  0  0  0  0  0  0  0  0
   10.1042    2.6442    1.6571 H   0  0  0  0  0  0  0  0  0  0  0  0
    7.5653    4.6943   -0.1289 H   0  0  0  0  0  0  0  0  0  0  0  0
    9.2860    4.3937    0.0708 H   0  0  0  0  0  0  0  0  0  0  0  0
    9.2706    5.5870    2.1597 H   0  0  0  0  0  0  0  0  0  0  0  0
    9.7826    7.8522    1.7772 H   0  0  0  0  0  0  0  0  0  0  0  0
   10.2993    9.9490    2.9521 H   0  0  0  0  0  0  0  0  0  0  0  0
    8.5751   11.0468    4.3558 H   0  0  0  0  0  0  0  0  0  0  0  0
    6.3846    9.9790    4.6945 H   0  0  0  0  0  0  0  0  0  0  0  0
    3.8081    5.0944    4.3735 H   0  0  0  0  0  0  0  0  0  0  0  0
    2.7080    7.5708    4.9813 H   0  0  0  0  0  0  0  0  0  0  0  0
    5.9273    3.4787    1.1672 H   0  0  0  0  0  0  0  0  0  0  0  0
    4.1228    3.1314    2.5084 H   0  0  0  0  0  0  0  0  0  0  0  0
  1  2  2  0  0  0  0
  2  3  1  0  0  0  0
  2  4  1  0  0  0  0
  3 31  1  0  0  0  0
  4  5  2  0  0  0  0
  4 30  1  0  0  0  0
  5  6  1  0  0  0  0
  5 32  1  0  0  0  0
  6  7  2  0  0  0  0
  6 33  1  0  0  0  0
  7  8  1  0  0  0  0
  7 34  1  0  0  0  0
  8  9  1  0  0  0  0
  8 30  2  0  0  0  0
  9 10  2  0  0  0  0
  9 29  1  0  0  0  0
 10 11  1  0  0  0  0
 10 35  1  0  0  0  0
 11 12  2  0  0  0  0
 11 36  1  0  0  0  0
 12 13  1  0  0  0  0
 12 37  1  0  0  0  0
 13 14  1  0  0  0  0
 13 29  2  0  0  0  0
 14 15  1  0  0  0  0
 14 38  1  0  0  0  0
 14 39  1  0  0  0  0
 15 16  1  0  0  0  0
 15 40  1  0  0  0  0
 16 17  2  0  0  0  0
 16 18  1  0  0  0  0
 18 19  2  0  0  0  0
 18 23  1  0  0  0  0
 19 20  1  0  0  0  0
 19 41  1  0  0  0  0
 20 21  2  0  0  0  0
 20 42  1  0  0  0  0
 21 22  1  0  0  0  0
 21 43  1  0  0  0  0
 22 23  2  0  0  0  0
 22 44  1  0  0  0  0
 23 24  1  0  0  0  0
 24 25  1  0  0  0  0
 24 28  1  0  0  0  0
 25 26  2  0  0  0  0
 26 27  1  0  0  0  0
 26 45  1  0  0  0  0
 27 28  2  0  0  0  0
 27 46  1  0  0  0  0
 29 47  1  0  0  0  0
 30 48  1  0  0  0  0
M  END
$$$$
