
 OpenBabel01122422503D

 48 51  0  0  0  0  0  0  0  0999 V2000
    2.7811    0.4326    3.1327 O   0  0  0  0  0  0  0  0  0  0  0  0
    3.7436    1.0667    2.7407 C   0  0  0  0  0  0  0  0  0  0  0  0
    4.8544    1.2613    3.4867 O   0  0  0  0  0  0  0  0  0  0  0  0
    3.7823    1.7604    1.4358 C   0  0  0  0  0  0  0  0  0  0  0  0
    2.6047    2.3170    0.9427 C   0  0  0  0  0  0  0  0  0  0  0  0
    2.6327    3.0182   -0.2569 C   0  0  0  0  0  0  0  0  0  0  0  0
    3.8378    3.1770   -0.9582 C   0  0  0  0  0  0  0  0  0  0  0  0
    5.0360    2.5795   -0.5320 C   0  0  0  0  0  0  0  0  0  0  0  0
    6.3425    2.6682   -1.2633 C   0  0  0  0  0  0  0  0  0  0  0  0
    7.5251    2.7681   -0.4847 C   0  0  0  0  0  0  0  0  0  0  0  0
    8.8047    2.6799   -1.0279 C   0  0  0  0  0  0  0  0  0  0  0  0
    8.9552    2.4978   -2.3882 C   0  0  0  0  0  0  0  0  0  0  0  0
    7.8251    2.4606   -3.2006 C   0  0  0  0  0  0  0  0  0  0  0  0
    6.5129    2.5786   -2.6760 C   0  0  0  0  0  0  0  0  0  0  0  0
    5.3411    2.6056   -3.6398 C   0  0  0  0  0  0  0  0  0  0  0  0
    5.6922    2.5979   -5.0495 N   0  0  0  0  0  0  0  0  0  0  0  0
    5.3397    1.5609   -5.8777 C   0  0  0  0  0  0  0  0  0  0  0  0
    4.7657    0.5530   -5.4908 O   0  0  0  0  0  0  0  0  0  0  0  0
    5.6863    1.7127   -7.3176 C   0  0  0  0  0  0  0  0  0  0  0  0
    6.9631    2.2105   -7.6385 C   0  0  0  0  0  0  0  0  0  0  0  0
    7.4313    2.1717   -8.9525 C   0  0  0  0  0  0  0  0  0  0  0  0
    6.6550    1.5879   -9.9483 C   0  0  0  0  0  0  0  0  0  0  0  0
    5.3844    1.0944   -9.6466 C   0  0  0  0  0  0  0  0  0  0  0  0
    4.8664    1.2019   -8.3414 C   0  0  0  0  0  0  0  0  0  0  0  0
    3.5022    0.8571   -8.1411 N   0  0  0  0  0  0  0  0  0  0  0  0
    2.6040    1.3539   -7.2214 C   0  0  0  0  0  0  0  0  0  0  0  0
    1.4233    0.7139   -7.4992 C   0  0  0  0  0  0  0  0  0  0  0  0
    1.5816   -0.0707   -8.5983 N   0  0  0  0  0  0  0  0  0  0  0  0
    2.8333    0.0620   -9.0177 N   0  0  0  0  0  0  0  0  0  0  0  0
    4.9656    1.8538    0.6826 C   0  0  0  0  0  0  0  0  0  0  0  0
    5.4619    1.9455    3.1451 H   0  0  0  0  0  0  0  0  0  0  0  0
    1.6716    2.2096    1.4925 H   0  0  0  0  0  0  0  0  0  0  0  0
    1.7157    3.4536   -0.6494 H   0  0  0  0  0  0  0  0  0  0  0  0
    3.7956    3.7932   -1.8477 H   0  0  0  0  0  0  0  0  0  0  0  0
    7.4571    2.9013    0.5955 H   0  0  0  0  0  0  0  0  0  0  0  0
    9.6771    2.7269   -0.3819 H   0  0  0  0  0  0  0  0  0  0  0  0
    9.9451    2.3884   -2.8231 H   0  0  0  0  0  0  0  0  0  0  0  0
    7.9860    2.3154   -4.2653 H   0  0  0  0  0  0  0  0  0  0  0  0
    4.8358    3.5678   -3.5311 H   0  0  0  0  0  0  0  0  0  0  0  0
    4.6440    1.7925   -3.4172 H   0  0  0  0  0  0  0  0  0  0  0  0
    6.1254    3.4325   -5.4241 H   0  0  0  0  0  0  0  0  0  0  0  0
    7.6291    2.5885   -6.8674 H   0  0  0  0  0  0  0  0  0  0  0  0
    8.4176    2.5625   -9.1926 H   0  0  0  0  0  0  0  0  0  0  0  0
    7.0327    1.5233  -10.9666 H   0  0  0  0  0  0  0  0  0  0  0  0
    4.7916    0.6652  -10.4544 H   0  0  0  0  0  0  0  0  0  0  0  0
    2.8621    2.0896   -6.4779 H   0  0  0  0  0  0  0  0  0  0  0  0
    0.4764    0.7960   -6.9859 H   0  0  0  0  0  0  0  0  0  0  0  0
    5.8468    1.3221    1.0392 H   0  0  0  0  0  0  0  0  0  0  0  0
  1  2  2  0  0  0  0
  2  3  1  0  0  0  0
  2  4  1  0  0  0  0
  3 31  1  0  0  0  0
  4  5  2  0  0  0  0
  4 30  1  0  0  0  0
  5  6  1  0  0  0  0
  5 32  1  0  0  0  0
  6  7  2  0  0  0  0
  6 33  1  0  0  0  0
  7  8  1  0  0  0  0
  7 34  1  0  0  0  0
  8  9  1  0  0  0  0
  8 30  2  0  0  0  0
  9 10  2  0  0  0  0
  9 14  1  0  0  0  0
 10 11  1  0  0  0  0
 10 35  1  0  0  0  0
 11 12  2  0  0  0  0
 11 36  1  0  0  0  0
 12 13  1  0  0  0  0
 12 37  1  0  0  0  0
 13 14  2  0  0  0  0
 13 38  1  0  0  0  0
 14 15  1  0  0  0  0
 15 16  1  0  0  0  0
 15 39  1  0  0  0  0
 15 40  1  0  0  0  0
 16 17  1  0  0  0  0
 16 41  1  0  0  0  0
 17 18  2  0  0  0  0
 17 19  1  0  0  0  0
 19 20  2  0  0  0  0
 19 24  1  0  0  0  0
 20 21  1  0  0  0  0
 20 42  1  0  0  0  0
 21 22  2  0  0  0  0
 21 43  1  0  0  0  0
 22 23  1  0  0  0  0
 22 44  1  0  0  0  0
 23 24  2  0  0  0  0
 23 45  1  0  0  0  0
 24 25  1  0  0  0  0
 25 26  1  0  0  0  0
 25 29  1  0  0  0  0
 26 27  2  0  0  0  0
 26 46  1  0  0  0  0
 27 28  1  0  0  0  0
 27 47  1  0  0  0  0
 28 29  2  0  0  0  0
 30 48  1  0  0  0  0
M  END
$$$$
