
 OpenBabel01122422513D

 50 52  0  0  0  0  0  0  0  0999 V2000
    0.5284   -0.2561   -0.2620 C   0  0  0  0  0  0  0  0  0  0  0  0
    0.3545   -1.2055   -1.3652 N   0  0  0  0  0  0  0  0  0  0  0  0
    1.1798   -2.3288   -1.5690 C   0  0  0  0  0  0  0  0  0  0  0  0
    0.9693   -3.1868   -2.4276 O   0  0  0  0  0  0  0  0  0  0  0  0
    2.4244   -2.3821   -0.6854 C   0  0  0  0  0  0  0  0  0  0  0  0
    3.4428   -3.4455   -1.0236 C   0  0  0  0  0  0  0  0  0  0  0  0
    4.7413   -3.0749   -1.3751 C   0  0  0  0  0  0  0  0  0  0  0  0
    5.7213   -4.0424   -1.6125 C   0  0  0  0  0  0  0  0  0  0  0  0
    5.4212   -5.3985   -1.5128 C   0  0  0  0  0  0  0  0  0  0  0  0
    6.3796   -6.4103   -1.7372 N   0  0  0  0  0  0  0  0  0  0  0  0
    7.6313   -6.2333   -2.3053 C   0  0  0  0  0  0  0  0  0  0  0  0
    8.1054   -5.1907   -2.7428 O   0  0  0  0  0  0  0  0  0  0  0  0
    8.4526   -7.4453   -2.5019 C   0  0  0  0  0  0  0  0  0  0  0  0
    7.8636   -8.6144   -3.0026 C   0  0  0  0  0  0  0  0  0  0  0  0
    6.4808   -8.7774   -3.1329 N   0  0  0  0  0  0  0  0  0  0  0  0
    8.5817   -9.6887   -3.3799 N   0  0  0  0  0  0  0  0  0  0  0  0
    9.9246   -9.6053   -3.3034 C   0  0  0  0  0  0  0  0  0  0  0  0
   10.5929   -8.5066   -2.7995 C   0  0  0  0  0  0  0  0  0  0  0  0
    9.8505   -7.4004   -2.3581 C   0  0  0  0  0  0  0  0  0  0  0  0
   10.6155   -6.2456   -1.7605 C   0  0  0  0  0  0  0  0  0  0  0  0
    9.9027   -5.3362   -1.0508 F   0  0  0  0  0  0  0  0  0  0  0  0
   11.5491   -6.7057   -0.8676 F   0  0  0  0  0  0  0  0  0  0  0  0
   11.3338   -5.5593   -2.6910 F   0  0  0  0  0  0  0  0  0  0  0  0
    4.1168   -5.7793   -1.1696 C   0  0  0  0  0  0  0  0  0  0  0  0
    3.1372   -4.8102   -0.9247 C   0  0  0  0  0  0  0  0  0  0  0  0
   -0.6899   -0.8990   -2.2935 C   0  0  0  0  0  0  0  0  0  0  0  0
   -1.5551   -1.8889   -2.7726 C   0  0  0  0  0  0  0  0  0  0  0  0
   -2.5789   -1.5651   -3.6675 C   0  0  0  0  0  0  0  0  0  0  0  0
   -2.7295   -0.2547   -4.1157 C   0  0  0  0  0  0  0  0  0  0  0  0
   -1.8653    0.7364   -3.6598 C   0  0  0  0  0  0  0  0  0  0  0  0
   -0.8635    0.4190   -2.7407 C   0  0  0  0  0  0  0  0  0  0  0  0
    1.1315   -0.6685    0.5483 H   0  0  0  0  0  0  0  0  0  0  0  0
   -0.4538   -0.0208    0.1643 H   0  0  0  0  0  0  0  0  0  0  0  0
    1.0127    0.6545   -0.6227 H   0  0  0  0  0  0  0  0  0  0  0  0
    2.1216   -2.5386    0.3550 H   0  0  0  0  0  0  0  0  0  0  0  0
    2.9148   -1.4021   -0.7569 H   0  0  0  0  0  0  0  0  0  0  0  0
    5.0220   -2.0265   -1.4645 H   0  0  0  0  0  0  0  0  0  0  0  0
    6.7167   -3.6930   -1.8575 H   0  0  0  0  0  0  0  0  0  0  0  0
    6.0791   -7.3711   -1.5825 H   0  0  0  0  0  0  0  0  0  0  0  0
    6.0764   -8.0401   -3.7087 H   0  0  0  0  0  0  0  0  0  0  0  0
    6.3407   -9.6887   -3.5693 H   0  0  0  0  0  0  0  0  0  0  0  0
   10.4672  -10.4727   -3.6692 H   0  0  0  0  0  0  0  0  0  0  0  0
   11.6794   -8.5047   -2.7535 H   0  0  0  0  0  0  0  0  0  0  0  0
    3.8415   -6.8263   -1.0930 H   0  0  0  0  0  0  0  0  0  0  0  0
    2.1270   -5.1280   -0.6662 H   0  0  0  0  0  0  0  0  0  0  0  0
   -1.4629   -2.9181   -2.4351 H   0  0  0  0  0  0  0  0  0  0  0  0
   -3.2536   -2.3415   -4.0184 H   0  0  0  0  0  0  0  0  0  0  0  0
   -3.5132   -0.0086   -4.8268 H   0  0  0  0  0  0  0  0  0  0  0  0
   -1.9585    1.7541   -4.0293 H   0  0  0  0  0  0  0  0  0  0  0  0
   -0.1825    1.2075   -2.4342 H   0  0  0  0  0  0  0  0  0  0  0  0
  1  2  1  0  0  0  0
  1 32  1  0  0  0  0
  1 33  1  0  0  0  0
  1 34  1  0  0  0  0
  2  3  1  0  0  0  0
  2 26  1  0  0  0  0
  3  4  2  0  0  0  0
  3  5  1  0  0  0  0
  5  6  1  0  0  0  0
  5 35  1  0  0  0  0
  5 36  1  0  0  0  0
  6  7  2  0  0  0  0
  6 25  1  0  0  0  0
  7  8  1  0  0  0  0
  7 37  1  0  0  0  0
  8  9  2  0  0  0  0
  8 38  1  0  0  0  0
  9 10  1  0  0  0  0
  9 24  1  0  0  0  0
 10 11  1  0  0  0  0
 10 39  1  0  0  0  0
 11 12  2  0  0  0  0
 11 13  1  0  0  0  0
 13 14  2  0  0  0  0
 13 19  1  0  0  0  0
 14 15  1  0  0  0  0
 14 16  1  0  0  0  0
 15 40  1  0  0  0  0
 15 41  1  0  0  0  0
 16 17  2  0  0  0  0
 17 18  1  0  0  0  0
 17 42  1  0  0  0  0
 18 19  2  0  0  0  0
 18 43  1  0  0  0  0
 19 20  1  0  0  0  0
 20 21  1  0  0  0  0
 20 22  1  0  0  0  0
 20 23  1  0  0  0  0
 24 25  2  0  0  0  0
 24 44  1  0  0  0  0
 25 45  1  0  0  0  0
 26 27  2  0  0  0  0
 26 31  1  0  0  0  0
 27 28  1  0  0  0  0
 27 46  1  0  0  0  0
 28 29  2  0  0  0  0
 28 47  1  0  0  0  0
 29 30  1  0  0  0  0
 29 48  1  0  0  0  0
 30 31  2  0  0  0  0
 30 49  1  0  0  0  0
 31 50  1  0  0  0  0
M  END
$$$$
