
 OpenBabel01122422513D

 48 51  0  0  0  0  0  0  0  0999 V2000
    0.0236   -0.7119   -1.9063 C   0  0  0  0  0  0  0  0  0  0  0  0
    1.0649   -0.5426   -0.9123 N   0  0  0  0  0  0  0  0  0  0  0  0
    1.3268    0.5953   -0.1718 C   0  0  0  0  0  0  0  0  0  0  0  0
    0.5630    1.8338   -0.1614 C   0  0  0  0  0  0  0  0  0  0  0  0
   -0.6589    1.8625   -0.2557 O   0  0  0  0  0  0  0  0  0  0  0  0
    1.3654    2.9521   -0.0736 N   0  0  0  0  0  0  0  0  0  0  0  0
    0.8934    4.2614    0.0037 C   0  0  0  0  0  0  0  0  0  0  0  0
   -0.1803    4.6125    0.8130 C   0  0  0  0  0  0  0  0  0  0  0  0
   -0.5874    5.9471    0.8461 C   0  0  0  0  0  0  0  0  0  0  0  0
    0.0477    6.8779    0.0305 C   0  0  0  0  0  0  0  0  0  0  0  0
   -0.4084    8.1690    0.0793 O   0  0  0  0  0  0  0  0  0  0  0  0
   -0.4901    8.9103   -1.0784 C   0  0  0  0  0  0  0  0  0  0  0  0
   -0.7090    8.3784   -2.3492 C   0  0  0  0  0  0  0  0  0  0  0  0
   -0.7725    9.2196   -3.4684 C   0  0  0  0  0  0  0  0  0  0  0  0
   -0.9307    8.5843   -4.8040 C   0  0  0  0  0  0  0  0  0  0  0  0
   -1.5141    9.3298   -5.7895 N   0  0  0  0  0  0  0  0  0  0  0  0
   -0.5832    7.4323   -5.0085 O   0  0  0  0  0  0  0  0  0  0  0  0
   -0.6439   10.6079   -3.3067 C   0  0  0  0  0  0  0  0  0  0  0  0
   -0.4759   11.1432   -2.0292 C   0  0  0  0  0  0  0  0  0  0  0  0
   -0.4030   10.2967   -0.9204 C   0  0  0  0  0  0  0  0  0  0  0  0
    1.1449    6.4435   -0.7028 C   0  0  0  0  0  0  0  0  0  0  0  0
    1.6003    5.1645   -0.7051 N   0  0  0  0  0  0  0  0  0  0  0  0
    2.4381    0.3060    0.6069 C   0  0  0  0  0  0  0  0  0  0  0  0
    2.8547   -1.0231    0.3463 C   0  0  0  0  0  0  0  0  0  0  0  0
    3.8825   -1.8522    0.8398 C   0  0  0  0  0  0  0  0  0  0  0  0
    4.7694   -1.4349    1.8067 O   0  0  0  0  0  0  0  0  0  0  0  0
    4.0364   -3.1504    0.3550 C   0  0  0  0  0  0  0  0  0  0  0  0
    3.1696   -3.6381   -0.6195 C   0  0  0  0  0  0  0  0  0  0  0  0
    2.1308   -2.8442   -1.1210 C   0  0  0  0  0  0  0  0  0  0  0  0
    1.9874   -1.5361   -0.6191 C   0  0  0  0  0  0  0  0  0  0  0  0
   -0.5209    0.2165   -2.0715 H   0  0  0  0  0  0  0  0  0  0  0  0
   -0.6582   -1.4933   -1.5586 H   0  0  0  0  0  0  0  0  0  0  0  0
    0.4964   -1.0152   -2.8456 H   0  0  0  0  0  0  0  0  0  0  0  0
    2.2935    2.8786   -0.4657 H   0  0  0  0  0  0  0  0  0  0  0  0
   -0.6748    3.8785    1.4410 H   0  0  0  0  0  0  0  0  0  0  0  0
   -1.4017    6.2529    1.4969 H   0  0  0  0  0  0  0  0  0  0  0  0
   -0.8372    7.3063   -2.4921 H   0  0  0  0  0  0  0  0  0  0  0  0
   -2.0257   10.1839   -5.6010 H   0  0  0  0  0  0  0  0  0  0  0  0
   -1.7118    8.8438   -6.6559 H   0  0  0  0  0  0  0  0  0  0  0  0
   -0.6493   11.2722   -4.1637 H   0  0  0  0  0  0  0  0  0  0  0  0
   -0.3862   12.2199   -1.8984 H   0  0  0  0  0  0  0  0  0  0  0  0
   -0.2732   10.7229    0.0719 H   0  0  0  0  0  0  0  0  0  0  0  0
    1.7074    7.1207   -1.3391 H   0  0  0  0  0  0  0  0  0  0  0  0
    2.8807    0.9868    1.3219 H   0  0  0  0  0  0  0  0  0  0  0  0
    4.5099   -0.5372    2.0679 H   0  0  0  0  0  0  0  0  0  0  0  0
    4.8351   -3.7767    0.7422 H   0  0  0  0  0  0  0  0  0  0  0  0
    3.3007   -4.6499   -0.9981 H   0  0  0  0  0  0  0  0  0  0  0  0
    1.4582   -3.2405   -1.8755 H   0  0  0  0  0  0  0  0  0  0  0  0
  1  2  1  0  0  0  0
  1 31  1  0  0  0  0
  1 32  1  0  0  0  0
  1 33  1  0  0  0  0
  2  3  1  0  0  0  0
  2 30  1  0  0  0  0
  3  4  1  0  0  0  0
  3 23  2  0  0  0  0
  4  5  2  0  0  0  0
  4  6  1  0  0  0  0
  6  7  1  0  0  0  0
  6 34  1  0  0  0  0
  7  8  2  0  0  0  0
  7 22  1  0  0  0  0
  8  9  1  0  0  0  0
  8 35  1  0  0  0  0
  9 10  2  0  0  0  0
  9 36  1  0  0  0  0
 10 11  1  0  0  0  0
 10 21  1  0  0  0  0
 11 12  1  0  0  0  0
 12 13  2  0  0  0  0
 12 20  1  0  0  0  0
 13 14  1  0  0  0  0
 13 37  1  0  0  0  0
 14 15  1  0  0  0  0
 14 18  2  0  0  0  0
 15 16  1  0  0  0  0
 15 17  2  0  0  0  0
 16 38  1  0  0  0  0
 16 39  1  0  0  0  0
 18 19  1  0  0  0  0
 18 40  1  0  0  0  0
 19 20  2  0  0  0  0
 19 41  1  0  0  0  0
 20 42  1  0  0  0  0
 21 22  2  0  0  0  0
 21 43  1  0  0  0  0
 23 24  1  0  0  0  0
 23 44  1  0  0  0  0
 24 25  2  0  0  0  0
 24 30  1  0  0  0  0
 25 26  1  0  0  0  0
 25 27  1  0  0  0  0
 26 45  1  0  0  0  0
 27 28  2  0  0  0  0
 27 46  1  0  0  0  0
 28 29  1  0  0  0  0
 28 47  1  0  0  0  0
 29 30  2  0  0  0  0
 29 48  1  0  0  0  0
M  END
$$$$
