
 OpenBabel01122422513D

 45 48  0  0  0  0  0  0  0  0999 V2000
    1.8871   -1.1354    0.3206 C   0  0  0  0  0  0  0  0  0  0  0  0
    3.2662   -0.8466    0.1285 O   0  0  0  0  0  0  0  0  0  0  0  0
    3.8221   -0.1205    1.1639 C   0  0  0  0  0  0  0  0  0  0  0  0
    5.1481    0.2313    0.9997 C   0  0  0  0  0  0  0  0  0  0  0  0
    5.7642    0.9458    2.0172 C   0  0  0  0  0  0  0  0  0  0  0  0
    5.0322    1.2783    3.1627 C   0  0  0  0  0  0  0  0  0  0  0  0
    5.6197    2.0071    4.2032 C   0  0  0  0  0  0  0  0  0  0  0  0
    4.8788    2.3413    5.3434 C   0  0  0  0  0  0  0  0  0  0  0  0
    5.5461    3.1908    6.3559 C   0  0  0  0  0  0  0  0  0  0  0  0
    6.3351    4.0285    5.9351 O   0  0  0  0  0  0  0  0  0  0  0  0
    5.2873    2.9157    7.6877 N   0  0  0  0  0  0  0  0  0  0  0  0
    5.8936    3.5599    8.7551 C   0  0  0  0  0  0  0  0  0  0  0  0
    6.4993    4.7575    8.6695 C   0  0  0  0  0  0  0  0  0  0  0  0
    7.1736    5.3563    9.7306 N   0  0  0  0  0  0  0  0  0  0  0  0
    7.8858    6.5860    9.5249 C   0  0  0  0  0  0  0  0  0  0  0  0
    8.6144    6.7909    8.3408 C   0  0  0  0  0  0  0  0  0  0  0  0
    9.3528    7.9609    8.1491 C   0  0  0  0  0  0  0  0  0  0  0  0
    9.3393    8.9586    9.1198 C   0  0  0  0  0  0  0  0  0  0  0  0
    8.5912    8.7854   10.2825 C   0  0  0  0  0  0  0  0  0  0  0  0
    7.8794    7.6002   10.4904 C   0  0  0  0  0  0  0  0  0  0  0  0
    7.2633    4.7127   10.9763 C   0  0  0  0  0  0  0  0  0  0  0  0
    7.8907    5.0954   11.9622 O   0  0  0  0  0  0  0  0  0  0  0  0
    6.5572    3.4031   11.0793 C   0  0  0  0  0  0  0  0  0  0  0  0
    5.9039    2.8816   10.0327 C   0  0  0  0  0  0  0  0  0  0  0  0
    3.5466    1.9494    5.4416 C   0  0  0  0  0  0  0  0  0  0  0  0
    2.9676    1.2253    4.3881 C   0  0  0  0  0  0  0  0  0  0  0  0
    3.6830    0.8784    3.2420 C   0  0  0  0  0  0  0  0  0  0  0  0
    3.0843    0.1890    2.2554 N   0  0  0  0  0  0  0  0  0  0  0  0
    1.5647   -1.7734   -0.5075 H   0  0  0  0  0  0  0  0  0  0  0  0
    1.2893   -0.2178    0.2905 H   0  0  0  0  0  0  0  0  0  0  0  0
    1.7148   -1.6892    1.2498 H   0  0  0  0  0  0  0  0  0  0  0  0
    5.6888   -0.0451    0.1011 H   0  0  0  0  0  0  0  0  0  0  0  0
    6.8052    1.2384    1.9097 H   0  0  0  0  0  0  0  0  0  0  0  0
    6.6566    2.3334    4.1261 H   0  0  0  0  0  0  0  0  0  0  0  0
    4.7732    2.0675    7.8965 H   0  0  0  0  0  0  0  0  0  0  0  0
    6.4581    5.3447    7.7597 H   0  0  0  0  0  0  0  0  0  0  0  0
    8.6657    6.0168    7.5781 H   0  0  0  0  0  0  0  0  0  0  0  0
    9.9479    8.0831    7.2479 H   0  0  0  0  0  0  0  0  0  0  0  0
    9.9159    9.8680    8.9731 H   0  0  0  0  0  0  0  0  0  0  0  0
    8.5664    9.5689   11.0352 H   0  0  0  0  0  0  0  0  0  0  0  0
    7.2993    7.4912   11.4034 H   0  0  0  0  0  0  0  0  0  0  0  0
    6.6300    2.9006   12.0356 H   0  0  0  0  0  0  0  0  0  0  0  0
    5.4133    1.9206   10.1330 H   0  0  0  0  0  0  0  0  0  0  0  0
    2.9336    2.2345    6.2928 H   0  0  0  0  0  0  0  0  0  0  0  0
    1.9200    0.9385    4.4492 H   0  0  0  0  0  0  0  0  0  0  0  0
  1  2  1  0  0  0  0
  1 29  1  0  0  0  0
  1 30  1  0  0  0  0
  1 31  1  0  0  0  0
  2  3  1  0  0  0  0
  3  4  2  0  0  0  0
  3 28  1  0  0  0  0
  4  5  1  0  0  0  0
  4 32  1  0  0  0  0
  5  6  2  0  0  0  0
  5 33  1  0  0  0  0
  6  7  1  0  0  0  0
  6 27  1  0  0  0  0
  7  8  2  0  0  0  0
  7 34  1  0  0  0  0
  8  9  1  0  0  0  0
  8 25  1  0  0  0  0
  9 10  2  0  0  0  0
  9 11  1  0  0  0  0
 11 12  1  0  0  0  0
 11 35  1  0  0  0  0
 12 13  2  0  0  0  0
 12 24  1  0  0  0  0
 13 14  1  0  0  0  0
 13 36  1  0  0  0  0
 14 15  1  0  0  0  0
 14 21  1  0  0  0  0
 15 16  2  0  0  0  0
 15 20  1  0  0  0  0
 16 17  1  0  0  0  0
 16 37  1  0  0  0  0
 17 18  2  0  0  0  0
 17 38  1  0  0  0  0
 18 19  1  0  0  0  0
 18 39  1  0  0  0  0
 19 20  2  0  0  0  0
 19 40  1  0  0  0  0
 20 41  1  0  0  0  0
 21 22  2  0  0  0  0
 21 23  1  0  0  0  0
 23 24  2  0  0  0  0
 23 42  1  0  0  0  0
 24 43  1  0  0  0  0
 25 26  2  0  0  0  0
 25 44  1  0  0  0  0
 26 27  1  0  0  0  0
 26 45  1  0  0  0  0
 27 28  2  0  0  0  0
M  END
$$$$
