
 OpenBabel01122422513D

 44 47  0  0  0  0  0  0  0  0999 V2000
    1.6721   -1.4682    1.2445 C   0  0  0  0  0  0  0  0  0  0  0  0
    2.6770   -0.5978    0.5868 C   0  0  0  0  0  0  0  0  0  0  0  0
    3.6910    0.1360    1.1632 C   0  0  0  0  0  0  0  0  0  0  0  0
    4.4847    0.5899    0.0896 C   0  0  0  0  0  0  0  0  0  0  0  0
    5.7217    1.4301    0.1793 C   0  0  0  0  0  0  0  0  0  0  0  0
    5.3695    2.8484    0.1248 N   0  0  0  0  0  0  0  0  0  0  0  0
    4.5761    3.3430    1.1518 N   0  0  0  0  0  0  0  0  0  0  0  0
    4.2137    4.5882    1.1058 C   0  0  0  0  0  0  0  0  0  0  0  0
    3.3832    5.1571    2.2000 C   0  0  0  0  0  0  0  0  0  0  0  0
    3.5702    4.7268    3.5167 C   0  0  0  0  0  0  0  0  0  0  0  0
    4.4698    3.7808    3.8214 F   0  0  0  0  0  0  0  0  0  0  0  0
    2.8534    5.2975    4.5729 C   0  0  0  0  0  0  0  0  0  0  0  0
    1.9296    6.3105    4.3259 C   0  0  0  0  0  0  0  0  0  0  0  0
    1.7056    6.7259    3.0164 C   0  0  0  0  0  0  0  0  0  0  0  0
    2.4199    6.1406    1.9670 C   0  0  0  0  0  0  0  0  0  0  0  0
    2.1350    6.5557    0.7239 F   0  0  0  0  0  0  0  0  0  0  0  0
    4.6174    5.5122    0.0183 C   0  0  0  0  0  0  0  0  0  0  0  0
    5.4154    5.0284   -0.9339 C   0  0  0  0  0  0  0  0  0  0  0  0
    5.8740    3.6273   -0.9042 C   0  0  0  0  0  0  0  0  0  0  0  0
    6.6657    3.2550   -1.7664 O   0  0  0  0  0  0  0  0  0  0  0  0
    4.0245    0.1313   -1.0823 N   0  0  0  0  0  0  0  0  0  0  0  0
    2.8299   -0.4466   -0.7852 N   0  0  0  0  0  0  0  0  0  0  0  0
    1.9382   -0.8006   -1.8349 C   0  0  0  0  0  0  0  0  0  0  0  0
    2.4570   -1.1293   -3.0949 C   0  0  0  0  0  0  0  0  0  0  0  0
    1.5956   -1.4791   -4.1373 C   0  0  0  0  0  0  0  0  0  0  0  0
    0.2155   -1.4631   -3.9403 C   0  0  0  0  0  0  0  0  0  0  0  0
   -0.3069   -1.0993   -2.7005 C   0  0  0  0  0  0  0  0  0  0  0  0
    0.5504   -0.7734   -1.6466 C   0  0  0  0  0  0  0  0  0  0  0  0
    1.9610   -1.6636    2.2832 H   0  0  0  0  0  0  0  0  0  0  0  0
    1.6078   -2.4384    0.7404 H   0  0  0  0  0  0  0  0  0  0  0  0
    0.6841   -1.0047    1.2688 H   0  0  0  0  0  0  0  0  0  0  0  0
    3.8678    0.2927    2.2186 H   0  0  0  0  0  0  0  0  0  0  0  0
    6.4155    1.1647   -0.6256 H   0  0  0  0  0  0  0  0  0  0  0  0
    6.2408    1.2511    1.1282 H   0  0  0  0  0  0  0  0  0  0  0  0
    3.0344    4.9509    5.5870 H   0  0  0  0  0  0  0  0  0  0  0  0
    1.3847    6.7694    5.1478 H   0  0  0  0  0  0  0  0  0  0  0  0
    0.9795    7.5050    2.7998 H   0  0  0  0  0  0  0  0  0  0  0  0
    4.2918    6.5413    0.0015 H   0  0  0  0  0  0  0  0  0  0  0  0
    5.7653    5.6320   -1.7598 H   0  0  0  0  0  0  0  0  0  0  0  0
    3.5321   -1.1421   -3.2662 H   0  0  0  0  0  0  0  0  0  0  0  0
    2.0040   -1.7584   -5.1051 H   0  0  0  0  0  0  0  0  0  0  0  0
   -0.4533   -1.7186   -4.7582 H   0  0  0  0  0  0  0  0  0  0  0  0
   -1.3837   -1.0513   -2.5584 H   0  0  0  0  0  0  0  0  0  0  0  0
    0.1081   -0.4334   -0.7166 H   0  0  0  0  0  0  0  0  0  0  0  0
  1  2  1  0  0  0  0
  1 29  1  0  0  0  0
  1 30  1  0  0  0  0
  1 31  1  0  0  0  0
  2  3  2  0  0  0  0
  2 22  1  0  0  0  0
  3  4  1  0  0  0  0
  3 32  1  0  0  0  0
  4  5  1  0  0  0  0
  4 21  2  0  0  0  0
  5  6  1  0  0  0  0
  5 33  1  0  0  0  0
  5 34  1  0  0  0  0
  6  7  1  0  0  0  0
  6 19  1  0  0  0  0
  7  8  2  0  0  0  0
  8  9  1  0  0  0  0
  8 17  1  0  0  0  0
  9 10  2  0  0  0  0
  9 15  1  0  0  0  0
 10 11  1  0  0  0  0
 10 12  1  0  0  0  0
 12 13  2  0  0  0  0
 12 35  1  0  0  0  0
 13 14  1  0  0  0  0
 13 36  1  0  0  0  0
 14 15  2  0  0  0  0
 14 37  1  0  0  0  0
 15 16  1  0  0  0  0
 17 18  2  0  0  0  0
 17 38  1  0  0  0  0
 18 19  1  0  0  0  0
 18 39  1  0  0  0  0
 19 20  2  0  0  0  0
 21 22  1  0  0  0  0
 22 23  1  0  0  0  0
 23 24  2  0  0  0  0
 23 28  1  0  0  0  0
 24 25  1  0  0  0  0
 24 40  1  0  0  0  0
 25 26  2  0  0  0  0
 25 41  1  0  0  0  0
 26 27  1  0  0  0  0
 26 42  1  0  0  0  0
 27 28  2  0  0  0  0
 27 43  1  0  0  0  0
 28 44  1  0  0  0  0
M  END
$$$$
