
 OpenBabel01122422513D

 53 56  0  0  0  0  0  0  0  0999 V2000
   10.7421    2.3765    1.0446 C   0  0  0  0  0  0  0  0  0  0  0  0
   11.6354    2.0462   -0.0190 O   0  0  0  0  0  0  0  0  0  0  0  0
   11.0956    2.1457   -1.2796 C   0  0  0  0  0  0  0  0  0  0  0  0
    9.7219    1.9431   -1.4972 C   0  0  0  0  0  0  0  0  0  0  0  0
    9.1864    2.1792   -2.7660 C   0  0  0  0  0  0  0  0  0  0  0  0
   10.0262    2.5529   -3.8031 C   0  0  0  0  0  0  0  0  0  0  0  0
   11.4049    2.6993   -3.6442 C   0  0  0  0  0  0  0  0  0  0  0  0
   11.9383    2.4716   -2.3603 C   0  0  0  0  0  0  0  0  0  0  0  0
   13.2969    2.6764   -2.3111 O   0  0  0  0  0  0  0  0  0  0  0  0
   14.0259    1.9116   -1.3585 C   0  0  0  0  0  0  0  0  0  0  0  0
    9.1857    2.7112   -4.8731 N   0  0  0  0  0  0  0  0  0  0  0  0
    7.8953    2.4847   -4.4435 C   0  0  0  0  0  0  0  0  0  0  0  0
    6.7078    2.6211   -5.3318 C   0  0  0  0  0  0  0  0  0  0  0  0
    6.6300    3.9779   -5.8020 O   0  0  0  0  0  0  0  0  0  0  0  0
    7.3265    4.2178   -6.9435 C   0  0  0  0  0  0  0  0  0  0  0  0
    8.0006    3.3702   -7.5200 O   0  0  0  0  0  0  0  0  0  0  0  0
    7.2122    5.6705   -7.3868 C   0  0  0  0  0  0  0  0  0  0  0  0
    8.1061    6.5770   -6.7561 O   0  0  0  0  0  0  0  0  0  0  0  0
    9.3336    6.7523   -7.3411 C   0  0  0  0  0  0  0  0  0  0  0  0
   10.0183    5.7741   -8.0686 C   0  0  0  0  0  0  0  0  0  0  0  0
   11.3024    6.0184   -8.5509 C   0  0  0  0  0  0  0  0  0  0  0  0
   11.8968    7.2550   -8.3439 C   0  0  0  0  0  0  0  0  0  0  0  0
   11.1918    8.2698   -7.6902 C   0  0  0  0  0  0  0  0  0  0  0  0
   11.7123    9.5325   -7.5055 O   0  0  0  0  0  0  0  0  0  0  0  0
   12.4096   10.1028   -8.5697 C   0  0  0  0  0  0  0  0  0  0  0  0
   13.3453   11.0761   -8.2527 C   0  0  0  0  0  0  0  0  0  0  0  0
   14.0815   11.6458   -9.2895 C   0  0  0  0  0  0  0  0  0  0  0  0
   13.8577   11.2277  -10.5975 C   0  0  0  0  0  0  0  0  0  0  0  0
   12.8887   10.2647  -10.8199 C   0  0  0  0  0  0  0  0  0  0  0  0
   12.1500    9.7071   -9.8391 N   0  0  0  0  0  0  0  0  0  0  0  0
    9.9340    8.0001   -7.1440 C   0  0  0  0  0  0  0  0  0  0  0  0
    7.8817    2.1208   -3.1774 N   0  0  0  0  0  0  0  0  0  0  0  0
   11.3360    2.5605    1.9438 H   0  0  0  0  0  0  0  0  0  0  0  0
   10.0693    1.5386    1.2555 H   0  0  0  0  0  0  0  0  0  0  0  0
   10.1734    3.2894    0.8297 H   0  0  0  0  0  0  0  0  0  0  0  0
    9.0400    1.6397   -0.7149 H   0  0  0  0  0  0  0  0  0  0  0  0
   12.0479    2.9901   -4.4686 H   0  0  0  0  0  0  0  0  0  0  0  0
   15.0640    1.8594   -1.7039 H   0  0  0  0  0  0  0  0  0  0  0  0
   13.6580    0.8832   -1.2766 H   0  0  0  0  0  0  0  0  0  0  0  0
   14.0348    2.4153   -0.3876 H   0  0  0  0  0  0  0  0  0  0  0  0
    9.4519    2.9857   -5.8104 H   0  0  0  0  0  0  0  0  0  0  0  0
    5.7946    2.4242   -4.7602 H   0  0  0  0  0  0  0  0  0  0  0  0
    6.7317    1.8952   -6.1533 H   0  0  0  0  0  0  0  0  0  0  0  0
    6.1931    6.0029   -7.1531 H   0  0  0  0  0  0  0  0  0  0  0  0
    7.2801    5.7192   -8.4810 H   0  0  0  0  0  0  0  0  0  0  0  0
    9.6019    4.7989   -8.2702 H   0  0  0  0  0  0  0  0  0  0  0  0
   11.8312    5.2470   -9.1025 H   0  0  0  0  0  0  0  0  0  0  0  0
   12.8956    7.4311   -8.7302 H   0  0  0  0  0  0  0  0  0  0  0  0
   13.5086   11.3733   -7.2233 H   0  0  0  0  0  0  0  0  0  0  0  0
   14.8296   12.4051   -9.0792 H   0  0  0  0  0  0  0  0  0  0  0  0
   14.4225   11.6421  -11.4253 H   0  0  0  0  0  0  0  0  0  0  0  0
   12.6775    9.8987  -11.8205 H   0  0  0  0  0  0  0  0  0  0  0  0
    9.4104    8.7716   -6.5854 H   0  0  0  0  0  0  0  0  0  0  0  0
  1  2  1  0  0  0  0
  1 33  1  0  0  0  0
  1 34  1  0  0  0  0
  1 35  1  0  0  0  0
  2  3  1  0  0  0  0
  3  4  2  0  0  0  0
  3  8  1  0  0  0  0
  4  5  1  0  0  0  0
  4 36  1  0  0  0  0
  5  6  2  0  0  0  0
  5 32  1  0  0  0  0
  6  7  1  0  0  0  0
  6 11  1  0  0  0  0
  7  8  2  0  0  0  0
  7 37  1  0  0  0  0
  8  9  1  0  0  0  0
  9 10  1  0  0  0  0
 10 38  1  0  0  0  0
 10 39  1  0  0  0  0
 10 40  1  0  0  0  0
 11 12  1  0  0  0  0
 11 41  1  0  0  0  0
 12 13  1  0  0  0  0
 12 32  2  0  0  0  0
 13 14  1  0  0  0  0
 13 42  1  0  0  0  0
 13 43  1  0  0  0  0
 14 15  1  0  0  0  0
 15 16  2  0  0  0  0
 15 17  1  0  0  0  0
 17 18  1  0  0  0  0
 17 44  1  0  0  0  0
 17 45  1  0  0  0  0
 18 19  1  0  0  0  0
 19 20  2  0  0  0  0
 19 31  1  0  0  0  0
 20 21  1  0  0  0  0
 20 46  1  0  0  0  0
 21 22  2  0  0  0  0
 21 47  1  0  0  0  0
 22 23  1  0  0  0  0
 22 48  1  0  0  0  0
 23 24  1  0  0  0  0
 23 31  2  0  0  0  0
 24 25  1  0  0  0  0
 25 26  2  0  0  0  0
 25 30  1  0  0  0  0
 26 27  1  0  0  0  0
 26 49  1  0  0  0  0
 27 28  2  0  0  0  0
 27 50  1  0  0  0  0
 28 29  1  0  0  0  0
 28 51  1  0  0  0  0
 29 30  2  0  0  0  0
 29 52  1  0  0  0  0
 31 53  1  0  0  0  0
M  END
$$$$
