
 OpenBabel01122422513D

 40 43  0  0  0  0  0  0  0  0999 V2000
    0.8735    0.1969   -0.1477 O   0  0  0  0  0  0  0  0  0  0  0  0
    2.0869    0.0817   -0.0419 C   0  0  0  0  0  0  0  0  0  0  0  0
    2.7803   -0.9866    0.5162 N   0  0  0  0  0  0  0  0  0  0  0  0
    2.1632   -2.1765    0.9774 C   0  0  0  0  0  0  0  0  0  0  0  0
    0.8887   -2.5713    0.5319 C   0  0  0  0  0  0  0  0  0  0  0  0
    0.2296   -3.6996    1.0358 C   0  0  0  0  0  0  0  0  0  0  0  0
    0.9179   -4.4041    2.0062 C   0  0  0  0  0  0  0  0  0  0  0  0
    0.4796   -5.4974    2.6857 O   0  0  0  0  0  0  0  0  0  0  0  0
    1.5110   -5.7946    3.5417 C   0  0  0  0  0  0  0  0  0  0  0  0
    1.2798   -6.9402    4.4675 C   0  0  0  0  0  0  0  0  0  0  0  0
    0.1994   -6.7259    5.2714 F   0  0  0  0  0  0  0  0  0  0  0  0
    1.0207   -8.0939    3.7898 F   0  0  0  0  0  0  0  0  0  0  0  0
    2.5637   -4.9926    3.4287 N   0  0  0  0  0  0  0  0  0  0  0  0
    2.1885   -4.0907    2.4574 C   0  0  0  0  0  0  0  0  0  0  0  0
    2.8492   -2.9701    1.9179 C   0  0  0  0  0  0  0  0  0  0  0  0
    2.9250    1.2697   -0.4604 C   0  0  0  0  0  0  0  0  0  0  0  0
    3.9848    1.5556    0.2518 N   0  0  0  0  0  0  0  0  0  0  0  0
    4.6627    2.7194   -0.0647 N   0  0  0  0  0  0  0  0  0  0  0  0
    5.8248    2.9964    0.7260 C   0  0  0  0  0  0  0  0  0  0  0  0
    6.8640    3.8196    0.2397 C   0  0  0  0  0  0  0  0  0  0  0  0
    7.9765    4.1189    1.0308 C   0  0  0  0  0  0  0  0  0  0  0  0
    8.0679    3.6011    2.3109 C   0  0  0  0  0  0  0  0  0  0  0  0
    9.1292    3.8984    3.0726 F   0  0  0  0  0  0  0  0  0  0  0  0
    7.0729    2.7725    2.8150 C   0  0  0  0  0  0  0  0  0  0  0  0
    5.9623    2.4671    2.0232 C   0  0  0  0  0  0  0  0  0  0  0  0
    4.1416    3.6542   -0.9433 C   0  0  0  0  0  0  0  0  0  0  0  0
    3.0820    3.4645   -1.7275 C   0  0  0  0  0  0  0  0  0  0  0  0
    2.4883    2.1298   -1.6311 C   0  0  0  0  0  0  0  0  0  0  0  0
    1.7010    1.7265   -2.4720 O   0  0  0  0  0  0  0  0  0  0  0  0
    3.7477   -0.8116    0.7655 H   0  0  0  0  0  0  0  0  0  0  0  0
    0.3634   -2.0067   -0.2362 H   0  0  0  0  0  0  0  0  0  0  0  0
   -0.7600   -3.9868    0.7055 H   0  0  0  0  0  0  0  0  0  0  0  0
    2.1474   -7.1116    5.1091 H   0  0  0  0  0  0  0  0  0  0  0  0
    3.8372   -2.7130    2.2801 H   0  0  0  0  0  0  0  0  0  0  0  0
    6.8320    4.2191   -0.7701 H   0  0  0  0  0  0  0  0  0  0  0  0
    8.7710    4.7571    0.6500 H   0  0  0  0  0  0  0  0  0  0  0  0
    7.1604    2.3796    3.8236 H   0  0  0  0  0  0  0  0  0  0  0  0
    5.1824    1.8358    2.4404 H   0  0  0  0  0  0  0  0  0  0  0  0
    4.6414    4.6182   -0.9559 H   0  0  0  0  0  0  0  0  0  0  0  0
    2.6790    4.1878   -2.4191 H   0  0  0  0  0  0  0  0  0  0  0  0
  1  2  2  0  0  0  0
  2  3  1  0  0  0  0
  2 16  1  0  0  0  0
  3  4  1  0  0  0  0
  3 30  1  0  0  0  0
  4  5  2  0  0  0  0
  4 15  1  0  0  0  0
  5  6  1  0  0  0  0
  5 31  1  0  0  0  0
  6  7  2  0  0  0  0
  6 32  1  0  0  0  0
  7  8  1  0  0  0  0
  7 14  1  0  0  0  0
  8  9  1  0  0  0  0
  9 10  1  0  0  0  0
  9 13  2  0  0  0  0
 10 11  1  0  0  0  0
 10 12  1  0  0  0  0
 10 33  1  0  0  0  0
 13 14  1  0  0  0  0
 14 15  2  0  0  0  0
 15 34  1  0  0  0  0
 16 17  2  0  0  0  0
 16 28  1  0  0  0  0
 17 18  1  0  0  0  0
 18 19  1  0  0  0  0
 18 26  1  0  0  0  0
 19 20  2  0  0  0  0
 19 25  1  0  0  0  0
 20 21  1  0  0  0  0
 20 35  1  0  0  0  0
 21 22  2  0  0  0  0
 21 36  1  0  0  0  0
 22 23  1  0  0  0  0
 22 24  1  0  0  0  0
 24 25  2  0  0  0  0
 24 37  1  0  0  0  0
 25 38  1  0  0  0  0
 26 27  2  0  0  0  0
 26 39  1  0  0  0  0
 27 28  1  0  0  0  0
 27 40  1  0  0  0  0
 28 29  2  0  0  0  0
M  END
$$$$
