
 OpenBabel01122422513D

 44 46  0  0  0  0  0  0  0  0999 V2000
   12.5377   -3.6696   -5.7825 N   0  0  0  0  0  0  0  0  0  0  0  0
   11.4721   -3.4152   -5.4121 C   0  0  0  0  0  0  0  0  0  0  0  0
   10.1542   -3.0759   -4.9513 C   0  0  0  0  0  0  0  0  0  0  0  0
    9.3225   -2.2802   -5.7496 C   0  0  0  0  0  0  0  0  0  0  0  0
    8.0452   -1.9387   -5.3046 C   0  0  0  0  0  0  0  0  0  0  0  0
    7.6132   -2.3716   -4.0570 C   0  0  0  0  0  0  0  0  0  0  0  0
    6.3897   -2.0232   -3.6371 F   0  0  0  0  0  0  0  0  0  0  0  0
    8.4300   -3.1477   -3.2301 C   0  0  0  0  0  0  0  0  0  0  0  0
    7.9054   -3.5921   -1.8891 C   0  0  0  0  0  0  0  0  0  0  0  0
    7.0058   -5.1244   -2.1388 S   0  0  0  0  0  0  0  0  0  0  0  0
    5.8771   -4.8829   -3.0077 O   0  0  0  0  0  0  0  0  0  0  0  0
    7.9830   -6.1482   -2.4064 O   0  0  0  0  0  0  0  0  0  0  0  0
    6.3226   -5.3858   -0.5916 N   0  0  0  0  0  0  0  0  0  0  0  0
    5.4492   -6.6120   -0.5234 C   0  0  0  0  0  0  0  0  0  0  0  0
    6.1356   -7.9246   -0.8299 C   0  0  0  0  0  0  0  0  0  0  0  0
    7.4532   -8.1073   -0.4351 C   0  0  0  0  0  0  0  0  0  0  0  0
    8.1181   -9.2842   -0.7618 C   0  0  0  0  0  0  0  0  0  0  0  0
    9.4252   -9.5454   -0.3984 O   0  0  0  0  0  0  0  0  0  0  0  0
    9.9135   -8.9482    0.7480 C   0  0  0  0  0  0  0  0  0  0  0  0
    9.1252   -8.7520    1.8928 C   0  0  0  0  0  0  0  0  0  0  0  0
    9.6099   -8.0065    2.9638 C   0  0  0  0  0  0  0  0  0  0  0  0
   10.9192   -7.5480    2.9300 C   0  0  0  0  0  0  0  0  0  0  0  0
   11.3820   -6.8243    3.9578 F   0  0  0  0  0  0  0  0  0  0  0  0
   11.7395   -7.8338    1.8420 C   0  0  0  0  0  0  0  0  0  0  0  0
   13.0137   -7.4182    1.8403 F   0  0  0  0  0  0  0  0  0  0  0  0
   11.2444   -8.5288    0.7406 C   0  0  0  0  0  0  0  0  0  0  0  0
    7.4572  -10.2332   -1.5255 C   0  0  0  0  0  0  0  0  0  0  0  0
    6.1325   -9.9904   -1.8564 C   0  0  0  0  0  0  0  0  0  0  0  0
    5.4490   -8.8760   -1.5028 N   0  0  0  0  0  0  0  0  0  0  0  0
    9.7019   -3.5207   -3.6982 C   0  0  0  0  0  0  0  0  0  0  0  0
    9.6619   -1.9224   -6.7200 H   0  0  0  0  0  0  0  0  0  0  0  0
    7.3841   -1.3338   -5.9180 H   0  0  0  0  0  0  0  0  0  0  0  0
    7.2231   -2.8517   -1.4634 H   0  0  0  0  0  0  0  0  0  0  0  0
    8.7202   -3.7788   -1.1828 H   0  0  0  0  0  0  0  0  0  0  0  0
    5.7528   -4.5785   -0.3249 H   0  0  0  0  0  0  0  0  0  0  0  0
    4.5845   -6.4674   -1.1815 H   0  0  0  0  0  0  0  0  0  0  0  0
    5.0502   -6.6711    0.4983 H   0  0  0  0  0  0  0  0  0  0  0  0
    7.9641   -7.2967    0.0728 H   0  0  0  0  0  0  0  0  0  0  0  0
    8.1036   -9.1233    1.9317 H   0  0  0  0  0  0  0  0  0  0  0  0
    8.9693   -7.7756    3.8081 H   0  0  0  0  0  0  0  0  0  0  0  0
   11.8888   -8.7139   -0.1128 H   0  0  0  0  0  0  0  0  0  0  0  0
    7.9556  -11.1368   -1.8540 H   0  0  0  0  0  0  0  0  0  0  0  0
    5.5653  -10.7084   -2.4423 H   0  0  0  0  0  0  0  0  0  0  0  0
   10.3426   -4.1629   -3.0929 H   0  0  0  0  0  0  0  0  0  0  0  0
  1  2  3  0  0  0  0
  2  3  1  0  0  0  0
  3  4  2  0  0  0  0
  3 30  1  0  0  0  0
  4  5  1  0  0  0  0
  4 31  1  0  0  0  0
  5  6  2  0  0  0  0
  5 32  1  0  0  0  0
  6  7  1  0  0  0  0
  6  8  1  0  0  0  0
  8  9  1  0  0  0  0
  8 30  2  0  0  0  0
  9 10  1  0  0  0  0
  9 33  1  0  0  0  0
  9 34  1  0  0  0  0
 10 11  2  0  0  0  0
 10 12  2  0  0  0  0
 10 13  1  0  0  0  0
 13 14  1  0  0  0  0
 13 35  1  0  0  0  0
 14 15  1  0  0  0  0
 14 36  1  0  0  0  0
 14 37  1  0  0  0  0
 15 16  2  0  0  0  0
 15 29  1  0  0  0  0
 16 17  1  0  0  0  0
 16 38  1  0  0  0  0
 17 18  1  0  0  0  0
 17 27  2  0  0  0  0
 18 19  1  0  0  0  0
 19 20  2  0  0  0  0
 19 26  1  0  0  0  0
 20 21  1  0  0  0  0
 20 39  1  0  0  0  0
 21 22  2  0  0  0  0
 21 40  1  0  0  0  0
 22 23  1  0  0  0  0
 22 24  1  0  0  0  0
 24 25  1  0  0  0  0
 24 26  2  0  0  0  0
 26 41  1  0  0  0  0
 27 28  1  0  0  0  0
 27 42  1  0  0  0  0
 28 29  2  0  0  0  0
 28 43  1  0  0  0  0
 30 44  1  0  0  0  0
M  END
$$$$
