
 OpenBabel01122422513D

 45 48  0  0  0  0  0  0  0  0999 V2000
   -2.7916    2.3462    1.1446 C   0  0  0  0  0  0  0  0  0  0  0  0
   -1.4320    2.0353    0.7399 N   0  0  0  0  0  0  0  0  0  0  0  0
   -0.5952    3.0495    0.3182 C   0  0  0  0  0  0  0  0  0  0  0  0
    0.6850    2.8312    0.0031 C   0  0  0  0  0  0  0  0  0  0  0  0
    1.2334    1.4833    0.1225 C   0  0  0  0  0  0  0  0  0  0  0  0
    2.5889    1.2436   -0.1215 C   0  0  0  0  0  0  0  0  0  0  0  0
    3.1326   -0.0396    0.0158 C   0  0  0  0  0  0  0  0  0  0  0  0
    4.5136   -0.3033   -0.1438 N   0  0  0  0  0  0  0  0  0  0  0  0
    5.5120    0.6577   -0.0895 C   0  0  0  0  0  0  0  0  0  0  0  0
    5.3469    1.8457    0.1788 O   0  0  0  0  0  0  0  0  0  0  0  0
    6.9097    0.2006   -0.3217 C   0  0  0  0  0  0  0  0  0  0  0  0
    7.2213   -0.9056   -1.1179 C   0  0  0  0  0  0  0  0  0  0  0  0
    8.5601   -1.2210   -1.3717 C   0  0  0  0  0  0  0  0  0  0  0  0
    9.5869   -0.4103   -0.8718 C   0  0  0  0  0  0  0  0  0  0  0  0
   10.9218   -0.6505   -1.1030 O   0  0  0  0  0  0  0  0  0  0  0  0
   11.3069   -1.0139   -2.3890 C   0  0  0  0  0  0  0  0  0  0  0  0
   12.5111   -1.6918   -2.4989 C   0  0  0  0  0  0  0  0  0  0  0  0
   12.9231   -2.0999   -3.7639 C   0  0  0  0  0  0  0  0  0  0  0  0
   12.1277   -1.8086   -4.8672 C   0  0  0  0  0  0  0  0  0  0  0  0
   10.9541   -1.1023   -4.6622 C   0  0  0  0  0  0  0  0  0  0  0  0
   10.5310   -0.6904   -3.4500 N   0  0  0  0  0  0  0  0  0  0  0  0
    9.2806    0.6670   -0.0450 C   0  0  0  0  0  0  0  0  0  0  0  0
    7.9464    0.9758    0.2245 C   0  0  0  0  0  0  0  0  0  0  0  0
    2.2826   -1.1057    0.3323 C   0  0  0  0  0  0  0  0  0  0  0  0
    0.9248   -0.8747    0.5878 C   0  0  0  0  0  0  0  0  0  0  0  0
    0.4079    0.4228    0.5009 C   0  0  0  0  0  0  0  0  0  0  0  0
   -1.0136    0.7014    0.8417 C   0  0  0  0  0  0  0  0  0  0  0  0
   -1.7441   -0.2173    1.2070 O   0  0  0  0  0  0  0  0  0  0  0  0
   -3.0414    3.3933    0.9502 H   0  0  0  0  0  0  0  0  0  0  0  0
   -2.8907    2.1444    2.2161 H   0  0  0  0  0  0  0  0  0  0  0  0
   -3.4881    1.7015    0.6007 H   0  0  0  0  0  0  0  0  0  0  0  0
   -1.0159    4.0487    0.2518 H   0  0  0  0  0  0  0  0  0  0  0  0
    1.3311    3.6381   -0.3269 H   0  0  0  0  0  0  0  0  0  0  0  0
    3.2130    2.0811   -0.4192 H   0  0  0  0  0  0  0  0  0  0  0  0
    4.7941   -1.2745   -0.1305 H   0  0  0  0  0  0  0  0  0  0  0  0
    6.4499   -1.5029   -1.5937 H   0  0  0  0  0  0  0  0  0  0  0  0
    8.7947   -2.0735   -2.0031 H   0  0  0  0  0  0  0  0  0  0  0  0
   13.1061   -1.9074   -1.6189 H   0  0  0  0  0  0  0  0  0  0  0  0
   13.8544   -2.6453   -3.8870 H   0  0  0  0  0  0  0  0  0  0  0  0
   12.4156   -2.1217   -5.8646 H   0  0  0  0  0  0  0  0  0  0  0  0
   10.2997   -0.8467   -5.4909 H   0  0  0  0  0  0  0  0  0  0  0  0
   10.0717    1.2890    0.3652 H   0  0  0  0  0  0  0  0  0  0  0  0
    7.7143    1.8404    0.8426 H   0  0  0  0  0  0  0  0  0  0  0  0
    2.6648   -2.1188    0.4283 H   0  0  0  0  0  0  0  0  0  0  0  0
    0.2768   -1.7003    0.8749 H   0  0  0  0  0  0  0  0  0  0  0  0
  1  2  1  0  0  0  0
  1 29  1  0  0  0  0
  1 30  1  0  0  0  0
  1 31  1  0  0  0  0
  2  3  1  0  0  0  0
  2 27  1  0  0  0  0
  3  4  2  0  0  0  0
  3 32  1  0  0  0  0
  4  5  1  0  0  0  0
  4 33  1  0  0  0  0
  5  6  2  0  0  0  0
  5 26  1  0  0  0  0
  6  7  1  0  0  0  0
  6 34  1  0  0  0  0
  7  8  1  0  0  0  0
  7 24  2  0  0  0  0
  8  9  1  0  0  0  0
  8 35  1  0  0  0  0
  9 10  2  0  0  0  0
  9 11  1  0  0  0  0
 11 12  2  0  0  0  0
 11 23  1  0  0  0  0
 12 13  1  0  0  0  0
 12 36  1  0  0  0  0
 13 14  2  0  0  0  0
 13 37  1  0  0  0  0
 14 15  1  0  0  0  0
 14 22  1  0  0  0  0
 15 16  1  0  0  0  0
 16 17  2  0  0  0  0
 16 21  1  0  0  0  0
 17 18  1  0  0  0  0
 17 38  1  0  0  0  0
 18 19  2  0  0  0  0
 18 39  1  0  0  0  0
 19 20  1  0  0  0  0
 19 40  1  0  0  0  0
 20 21  2  0  0  0  0
 20 41  1  0  0  0  0
 22 23  2  0  0  0  0
 22 42  1  0  0  0  0
 23 43  1  0  0  0  0
 24 25  1  0  0  0  0
 24 44  1  0  0  0  0
 25 26  2  0  0  0  0
 25 45  1  0  0  0  0
 26 27  1  0  0  0  0
 27 28  2  0  0  0  0
M  END
$$$$
