
 OpenBabel01122422513D

 44 47  0  0  0  0  0  0  0  0999 V2000
    1.0824   -0.1189    0.4507 C   0  0  0  0  0  0  0  0  0  0  0  0
    2.5252   -0.0229    0.2558 N   0  0  0  0  0  0  0  0  0  0  0  0
    2.9504    1.0464   -0.6528 C   0  0  0  0  0  0  0  0  0  0  0  0
    3.2732    2.3170    0.0817 C   0  0  0  0  0  0  0  0  0  0  0  0
    3.2160    2.5920    1.4386 C   0  0  0  0  0  0  0  0  0  0  0  0
    3.7073    3.8279    1.7151 O   0  0  0  0  0  0  0  0  0  0  0  0
    4.0653    4.3917    0.5319 C   0  0  0  0  0  0  0  0  0  0  0  0
    4.6222    5.6579    0.3701 C   0  0  0  0  0  0  0  0  0  0  0  0
    4.9039    6.0394   -0.9460 C   0  0  0  0  0  0  0  0  0  0  0  0
    5.4288    7.2505   -1.1685 F   0  0  0  0  0  0  0  0  0  0  0  0
    4.6554    5.1996   -2.0268 C   0  0  0  0  0  0  0  0  0  0  0  0
    4.1187    3.9339   -1.8131 C   0  0  0  0  0  0  0  0  0  0  0  0
    3.9025    3.1222   -2.8567 F   0  0  0  0  0  0  0  0  0  0  0  0
    3.8031    3.5098   -0.5117 C   0  0  0  0  0  0  0  0  0  0  0  0
    3.2803   -1.1269    0.6810 C   0  0  0  0  0  0  0  0  0  0  0  0
    2.7193   -2.0885    1.2082 O   0  0  0  0  0  0  0  0  0  0  0  0
    4.7776   -1.1647    0.5265 C   0  0  0  0  0  0  0  0  0  0  0  0
    5.5400   -0.0579    0.5861 C   0  0  0  0  0  0  0  0  0  0  0  0
    6.9712   -0.0695    0.4702 C   0  0  0  0  0  0  0  0  0  0  0  0
    7.6194   -1.2374    0.4839 C   0  0  0  0  0  0  0  0  0  0  0  0
    9.0756   -1.2640    0.4520 C   0  0  0  0  0  0  0  0  0  0  0  0
    9.8132   -1.0871    1.6250 C   0  0  0  0  0  0  0  0  0  0  0  0
   11.2021   -1.0474    1.5622 C   0  0  0  0  0  0  0  0  0  0  0  0
   11.8053   -1.1831    0.3229 C   0  0  0  0  0  0  0  0  0  0  0  0
   11.1258   -1.3468   -0.8337 N   0  0  0  0  0  0  0  0  0  0  0  0
    9.7763   -1.3817   -0.7430 C   0  0  0  0  0  0  0  0  0  0  0  0
    6.9084   -2.4043    0.5338 N   0  0  0  0  0  0  0  0  0  0  0  0
    5.5283   -2.4800    0.5122 C   0  0  0  0  0  0  0  0  0  0  0  0
    4.9853   -3.5784    0.4853 O   0  0  0  0  0  0  0  0  0  0  0  0
    0.6531    0.8805    0.5621 H   0  0  0  0  0  0  0  0  0  0  0  0
    0.8337   -0.7031    1.3409 H   0  0  0  0  0  0  0  0  0  0  0  0
    0.6502   -0.6092   -0.4276 H   0  0  0  0  0  0  0  0  0  0  0  0
    2.1433    1.2375   -1.3704 H   0  0  0  0  0  0  0  0  0  0  0  0
    3.8127    0.7152   -1.2398 H   0  0  0  0  0  0  0  0  0  0  0  0
    2.9150    2.0148    2.3040 H   0  0  0  0  0  0  0  0  0  0  0  0
    4.8205    6.3130    1.2084 H   0  0  0  0  0  0  0  0  0  0  0  0
    4.8923    5.5288   -3.0329 H   0  0  0  0  0  0  0  0  0  0  0  0
    5.1360    0.9213    0.7575 H   0  0  0  0  0  0  0  0  0  0  0  0
    7.4885    0.8840    0.4050 H   0  0  0  0  0  0  0  0  0  0  0  0
    9.3108   -0.9660    2.5819 H   0  0  0  0  0  0  0  0  0  0  0  0
   11.7976   -0.9069    2.4572 H   0  0  0  0  0  0  0  0  0  0  0  0
   12.8877   -1.1571    0.2220 H   0  0  0  0  0  0  0  0  0  0  0  0
    9.2578   -1.4935   -1.6920 H   0  0  0  0  0  0  0  0  0  0  0  0
    7.3922   -3.2944    0.5668 H   0  0  0  0  0  0  0  0  0  0  0  0
  1  2  1  0  0  0  0
  1 30  1  0  0  0  0
  1 31  1  0  0  0  0
  1 32  1  0  0  0  0
  2  3  1  0  0  0  0
  2 15  1  0  0  0  0
  3  4  1  0  0  0  0
  3 33  1  0  0  0  0
  3 34  1  0  0  0  0
  4  5  2  0  0  0  0
  4 14  1  0  0  0  0
  5  6  1  0  0  0  0
  5 35  1  0  0  0  0
  6  7  1  0  0  0  0
  7  8  2  0  0  0  0
  7 14  1  0  0  0  0
  8  9  1  0  0  0  0
  8 36  1  0  0  0  0
  9 10  1  0  0  0  0
  9 11  2  0  0  0  0
 11 12  1  0  0  0  0
 11 37  1  0  0  0  0
 12 13  1  0  0  0  0
 12 14  2  0  0  0  0
 15 16  2  0  0  0  0
 15 17  1  0  0  0  0
 17 18  2  0  0  0  0
 17 28  1  0  0  0  0
 18 19  1  0  0  0  0
 18 38  1  0  0  0  0
 19 20  2  0  0  0  0
 19 39  1  0  0  0  0
 20 21  1  0  0  0  0
 20 27  1  0  0  0  0
 21 22  2  0  0  0  0
 21 26  1  0  0  0  0
 22 23  1  0  0  0  0
 22 40  1  0  0  0  0
 23 24  2  0  0  0  0
 23 41  1  0  0  0  0
 24 25  1  0  0  0  0
 24 42  1  0  0  0  0
 25 26  2  0  0  0  0
 26 43  1  0  0  0  0
 27 28  1  0  0  0  0
 27 44  1  0  0  0  0
 28 29  2  0  0  0  0
M  END
$$$$
