
 OpenBabel01122422513D

 43 46  0  0  0  0  0  0  0  0999 V2000
    4.1603   -0.3271   -4.8542 C   0  0  0  0  0  0  0  0  0  0  0  0
    5.3357   -0.8065   -4.1883 N   0  0  0  0  0  0  0  0  0  0  0  0
    6.6461   -0.5497   -4.5434 C   0  0  0  0  0  0  0  0  0  0  0  0
    7.0185    0.1292   -5.4890 O   0  0  0  0  0  0  0  0  0  0  0  0
    7.5336   -1.1847   -3.6607 O   0  0  0  0  0  0  0  0  0  0  0  0
    6.6792   -1.8194   -2.7737 C   0  0  0  0  0  0  0  0  0  0  0  0
    7.0690   -2.5830   -1.6918 C   0  0  0  0  0  0  0  0  0  0  0  0
    6.0614   -3.1465   -0.8909 C   0  0  0  0  0  0  0  0  0  0  0  0
    6.4202   -3.9762    0.3173 C   0  0  0  0  0  0  0  0  0  0  0  0
    5.8820   -5.2935    0.1459 O   0  0  0  0  0  0  0  0  0  0  0  0
    6.7710   -6.3149    0.2740 C   0  0  0  0  0  0  0  0  0  0  0  0
    7.9507   -6.1634    0.5605 O   0  0  0  0  0  0  0  0  0  0  0  0
    6.1717   -7.6251    0.0516 C   0  0  0  0  0  0  0  0  0  0  0  0
    6.8131   -8.8491   -0.0393 C   0  0  0  0  0  0  0  0  0  0  0  0
    8.2323   -9.2036   -0.0983 C   0  0  0  0  0  0  0  0  0  0  0  0
    9.0550   -8.1538   -0.3099 F   0  0  0  0  0  0  0  0  0  0  0  0
    8.6531   -9.7967    1.0453 F   0  0  0  0  0  0  0  0  0  0  0  0
    8.4868  -10.0660   -1.1160 F   0  0  0  0  0  0  0  0  0  0  0  0
    5.7972   -9.7667   -0.2357 N   0  0  0  0  0  0  0  0  0  0  0  0
    5.8682  -11.1770   -0.3968 C   0  0  0  0  0  0  0  0  0  0  0  0
    6.8309  -11.9307    0.2892 C   0  0  0  0  0  0  0  0  0  0  0  0
    7.0785  -13.2528   -0.0759 C   0  0  0  0  0  0  0  0  0  0  0  0
    6.3225  -13.8348   -1.0824 C   0  0  0  0  0  0  0  0  0  0  0  0
    6.6051  -15.0822   -1.4778 F   0  0  0  0  0  0  0  0  0  0  0  0
    5.2781  -13.1391   -1.6838 C   0  0  0  0  0  0  0  0  0  0  0  0
    5.0323  -11.8079   -1.3303 C   0  0  0  0  0  0  0  0  0  0  0  0
    4.6253   -9.1057   -0.3982 N   0  0  0  0  0  0  0  0  0  0  0  0
    4.8309   -7.8178   -0.1608 N   0  0  0  0  0  0  0  0  0  0  0  0
    4.7027   -2.9224   -1.2179 C   0  0  0  0  0  0  0  0  0  0  0  0
    4.3281   -2.1462   -2.3186 C   0  0  0  0  0  0  0  0  0  0  0  0
    5.3484   -1.6063   -3.0720 C   0  0  0  0  0  0  0  0  0  0  0  0
    4.4336    0.2885   -5.7157 H   0  0  0  0  0  0  0  0  0  0  0  0
    3.5715    0.2761   -4.1573 H   0  0  0  0  0  0  0  0  0  0  0  0
    3.5662   -1.1787   -5.2002 H   0  0  0  0  0  0  0  0  0  0  0  0
    8.1228   -2.7310   -1.4778 H   0  0  0  0  0  0  0  0  0  0  0  0
    5.9641   -3.5315    1.2095 H   0  0  0  0  0  0  0  0  0  0  0  0
    7.5048   -3.9619    0.4746 H   0  0  0  0  0  0  0  0  0  0  0  0
    7.3982  -11.5240    1.1199 H   0  0  0  0  0  0  0  0  0  0  0  0
    7.8688  -13.8199    0.4068 H   0  0  0  0  0  0  0  0  0  0  0  0
    4.6868  -13.6288   -2.4514 H   0  0  0  0  0  0  0  0  0  0  0  0
    4.2423  -11.2646   -1.8464 H   0  0  0  0  0  0  0  0  0  0  0  0
    3.9204   -3.3720   -0.5987 H   0  0  0  0  0  0  0  0  0  0  0  0
    3.2870   -1.9839   -2.5577 H   0  0  0  0  0  0  0  0  0  0  0  0
  1  2  1  0  0  0  0
  1 32  1  0  0  0  0
  1 33  1  0  0  0  0
  1 34  1  0  0  0  0
  2  3  1  0  0  0  0
  2 31  1  0  0  0  0
  3  4  2  0  0  0  0
  3  5  1  0  0  0  0
  5  6  1  0  0  0  0
  6  7  2  0  0  0  0
  6 31  1  0  0  0  0
  7  8  1  0  0  0  0
  7 35  1  0  0  0  0
  8  9  1  0  0  0  0
  8 29  2  0  0  0  0
  9 10  1  0  0  0  0
  9 36  1  0  0  0  0
  9 37  1  0  0  0  0
 10 11  1  0  0  0  0
 11 12  2  0  0  0  0
 11 13  1  0  0  0  0
 13 14  2  0  0  0  0
 13 28  1  0  0  0  0
 14 15  1  0  0  0  0
 14 19  1  0  0  0  0
 15 16  1  0  0  0  0
 15 17  1  0  0  0  0
 15 18  1  0  0  0  0
 19 20  1  0  0  0  0
 19 27  1  0  0  0  0
 20 21  2  0  0  0  0
 20 26  1  0  0  0  0
 21 22  1  0  0  0  0
 21 38  1  0  0  0  0
 22 23  2  0  0  0  0
 22 39  1  0  0  0  0
 23 24  1  0  0  0  0
 23 25  1  0  0  0  0
 25 26  2  0  0  0  0
 25 40  1  0  0  0  0
 26 41  1  0  0  0  0
 27 28  2  0  0  0  0
 29 30  1  0  0  0  0
 29 42  1  0  0  0  0
 30 31  2  0  0  0  0
 30 43  1  0  0  0  0
M  END
$$$$
