
 OpenBabel01122422513D

 49 52  0  0  0  0  0  0  0  0999 V2000
    2.1135   -3.1731   -2.6860 C   0  0  0  0  0  0  0  0  0  0  0  0
    2.9712   -2.3811   -1.8661 O   0  0  0  0  0  0  0  0  0  0  0  0
    3.8714   -3.0831   -1.1266 C   0  0  0  0  0  0  0  0  0  0  0  0
    3.9514   -4.2941   -1.0561 O   0  0  0  0  0  0  0  0  0  0  0  0
    4.7468   -2.1153   -0.4423 C   0  0  0  0  0  0  0  0  0  0  0  0
    5.0916   -0.9197   -1.0798 C   0  0  0  0  0  0  0  0  0  0  0  0
    5.9023    0.0134   -0.4417 C   0  0  0  0  0  0  0  0  0  0  0  0
    6.2449    1.2415   -1.0415 N   0  0  0  0  0  0  0  0  0  0  0  0
    6.1777    1.5132   -2.3951 C   0  0  0  0  0  0  0  0  0  0  0  0
    6.0648    0.6729   -3.2694 O   0  0  0  0  0  0  0  0  0  0  0  0
    6.2015    2.9227   -2.7615 C   0  0  0  0  0  0  0  0  0  0  0  0
    6.6294    3.9880   -1.9665 C   0  0  0  0  0  0  0  0  0  0  0  0
    7.9554    3.9480   -1.3101 C   0  0  0  0  0  0  0  0  0  0  0  0
    8.8979    3.0798   -1.9147 C   0  0  0  0  0  0  0  0  0  0  0  0
    9.7454    2.3064   -1.1375 C   0  0  0  0  0  0  0  0  0  0  0  0
    9.7856    2.5240    0.2304 C   0  0  0  0  0  0  0  0  0  0  0  0
    9.0554    3.5822    0.7874 C   0  0  0  0  0  0  0  0  0  0  0  0
    8.1360    4.3065    0.0192 C   0  0  0  0  0  0  0  0  0  0  0  0
    5.9226    5.0562   -2.4895 N   0  0  0  0  0  0  0  0  0  0  0  0
    4.9511    5.8315   -1.7422 C   0  0  0  0  0  0  0  0  0  0  0  0
    5.8082    4.8435   -3.8565 C   0  0  0  0  0  0  0  0  0  0  0  0
    5.3611    5.6411   -4.9136 C   0  0  0  0  0  0  0  0  0  0  0  0
    5.5699    5.1481   -6.2088 C   0  0  0  0  0  0  0  0  0  0  0  0
    6.1801    3.9128   -6.4275 C   0  0  0  0  0  0  0  0  0  0  0  0
    6.4514    3.0616   -5.3598 C   0  0  0  0  0  0  0  0  0  0  0  0
    6.1978    3.5191   -4.0563 C   0  0  0  0  0  0  0  0  0  0  0  0
    6.3166   -0.2904    0.8537 C   0  0  0  0  0  0  0  0  0  0  0  0
    6.0254   -1.4504    1.5003 N   0  0  0  0  0  0  0  0  0  0  0  0
    5.2561   -2.3328    0.8241 C   0  0  0  0  0  0  0  0  0  0  0  0
    5.0056   -3.4534    1.5421 O   0  0  0  0  0  0  0  0  0  0  0  0
    1.4497   -2.4911   -3.2250 H   0  0  0  0  0  0  0  0  0  0  0  0
    1.5035   -3.8419   -2.0725 H   0  0  0  0  0  0  0  0  0  0  0  0
    2.6996   -3.7351   -3.4193 H   0  0  0  0  0  0  0  0  0  0  0  0
    4.6900   -0.7220   -2.0704 H   0  0  0  0  0  0  0  0  0  0  0  0
    6.6388    1.9610   -0.4476 H   0  0  0  0  0  0  0  0  0  0  0  0
    8.8393    2.8549   -2.9813 H   0  0  0  0  0  0  0  0  0  0  0  0
   10.3053    1.4932   -1.5978 H   0  0  0  0  0  0  0  0  0  0  0  0
   10.3863    1.8723    0.8580 H   0  0  0  0  0  0  0  0  0  0  0  0
    9.1587    3.7917    1.8492 H   0  0  0  0  0  0  0  0  0  0  0  0
    7.5118    5.0586    0.4879 H   0  0  0  0  0  0  0  0  0  0  0  0
    5.0993    5.6730   -0.6720 H   0  0  0  0  0  0  0  0  0  0  0  0
    3.9516    5.4739   -2.0201 H   0  0  0  0  0  0  0  0  0  0  0  0
    5.0585    6.8864   -1.9993 H   0  0  0  0  0  0  0  0  0  0  0  0
    4.9130    6.6146   -4.7516 H   0  0  0  0  0  0  0  0  0  0  0  0
    5.2725    5.7494   -7.0637 H   0  0  0  0  0  0  0  0  0  0  0  0
    6.4201    3.5915   -7.4383 H   0  0  0  0  0  0  0  0  0  0  0  0
    6.8949    2.0835   -5.5202 H   0  0  0  0  0  0  0  0  0  0  0  0
    6.9294    0.3995    1.4290 H   0  0  0  0  0  0  0  0  0  0  0  0
    5.5498   -3.2891    2.3317 H   0  0  0  0  0  0  0  0  0  0  0  0
  1  2  1  0  0  0  0
  1 31  1  0  0  0  0
  1 32  1  0  0  0  0
  1 33  1  0  0  0  0
  2  3  1  0  0  0  0
  3  4  2  0  0  0  0
  3  5  1  0  0  0  0
  5  6  2  0  0  0  0
  5 29  1  0  0  0  0
  6  7  1  0  0  0  0
  6 34  1  0  0  0  0
  7  8  1  0  0  0  0
  7 27  2  0  0  0  0
  8  9  1  0  0  0  0
  8 35  1  0  0  0  0
  9 10  2  0  0  0  0
  9 11  1  0  0  0  0
 11 12  2  0  0  0  0
 11 26  1  0  0  0  0
 12 13  1  0  0  0  0
 12 19  1  0  0  0  0
 13 14  2  0  0  0  0
 13 18  1  0  0  0  0
 14 15  1  0  0  0  0
 14 36  1  0  0  0  0
 15 16  2  0  0  0  0
 15 37  1  0  0  0  0
 16 17  1  0  0  0  0
 16 38  1  0  0  0  0
 17 18  2  0  0  0  0
 17 39  1  0  0  0  0
 18 40  1  0  0  0  0
 19 20  1  0  0  0  0
 19 21  1  0  0  0  0
 20 41  1  0  0  0  0
 20 42  1  0  0  0  0
 20 43  1  0  0  0  0
 21 22  2  0  0  0  0
 21 26  1  0  0  0  0
 22 23  1  0  0  0  0
 22 44  1  0  0  0  0
 23 24  2  0  0  0  0
 23 45  1  0  0  0  0
 24 25  1  0  0  0  0
 24 46  1  0  0  0  0
 25 26  2  0  0  0  0
 25 47  1  0  0  0  0
 27 28  1  0  0  0  0
 27 48  1  0  0  0  0
 28 29  2  0  0  0  0
 29 30  1  0  0  0  0
 30 49  1  0  0  0  0
M  END
$$$$
