
 OpenBabel01122422463D

 44 47  0  0  0  0  0  0  0  0999 V2000
    1.9441   -0.0983   -1.5855 C   0  0  0  0  0  0  0  0  0  0  0  0
    3.2935   -0.0845   -1.1370 O   0  0  0  0  0  0  0  0  0  0  0  0
    3.7035   -1.1590   -0.3966 C   0  0  0  0  0  0  0  0  0  0  0  0
    3.1523   -2.4434   -0.4527 C   0  0  0  0  0  0  0  0  0  0  0  0
    3.6634   -3.4869    0.3228 C   0  0  0  0  0  0  0  0  0  0  0  0
    4.7581   -3.2923    1.1796 C   0  0  0  0  0  0  0  0  0  0  0  0
    5.3610   -2.0199    1.2459 C   0  0  0  0  0  0  0  0  0  0  0  0
    4.7988   -1.0046    0.4673 C   0  0  0  0  0  0  0  0  0  0  0  0
    5.4619    0.1655    0.6754 O   0  0  0  0  0  0  0  0  0  0  0  0
    6.4379   -0.0852    1.5737 C   0  0  0  0  0  0  0  0  0  0  0  0
    6.4656   -1.4207    1.9418 C   0  0  0  0  0  0  0  0  0  0  0  0
    7.4669   -1.9249    2.8742 C   0  0  0  0  0  0  0  0  0  0  0  0
    8.2430   -1.1548    3.4375 O   0  0  0  0  0  0  0  0  0  0  0  0
    7.5760   -3.3072    3.0073 N   0  0  0  0  0  0  0  0  0  0  0  0
    8.4920   -3.9213    3.8653 C   0  0  0  0  0  0  0  0  0  0  0  0
    8.6960   -3.5988    5.1650 C   0  0  0  0  0  0  0  0  0  0  0  0
    7.8478   -2.5294    5.8337 C   0  0  0  0  0  0  0  0  0  0  0  0
    7.1441   -1.6422    6.3884 N   0  0  0  0  0  0  0  0  0  0  0  0
    9.8108   -4.1894    5.9465 C   0  0  0  0  0  0  0  0  0  0  0  0
    9.9365   -3.8878    7.1315 O   0  0  0  0  0  0  0  0  0  0  0  0
   10.6371   -5.0912    5.2457 N   0  0  0  0  0  0  0  0  0  0  0  0
   11.7641   -5.6371    5.9339 C   0  0  0  0  0  0  0  0  0  0  0  0
   12.0013   -7.0171    5.9195 C   0  0  0  0  0  0  0  0  0  0  0  0
   13.0564   -7.5552    6.6560 C   0  0  0  0  0  0  0  0  0  0  0  0
   13.9088   -6.7180    7.3748 C   0  0  0  0  0  0  0  0  0  0  0  0
   13.7064   -5.3393    7.3622 C   0  0  0  0  0  0  0  0  0  0  0  0
   12.6321   -4.8028    6.6532 C   0  0  0  0  0  0  0  0  0  0  0  0
   10.3424   -5.4749    3.9444 C   0  0  0  0  0  0  0  0  0  0  0  0
    9.3091   -4.9561    3.2692 C   0  0  0  0  0  0  0  0  0  0  0  0
    1.7477    0.8577   -2.0821 H   0  0  0  0  0  0  0  0  0  0  0  0
    1.2490   -0.1891   -0.7443 H   0  0  0  0  0  0  0  0  0  0  0  0
    1.7745   -0.8876   -2.3242 H   0  0  0  0  0  0  0  0  0  0  0  0
    2.3189   -2.6626   -1.1169 H   0  0  0  0  0  0  0  0  0  0  0  0
    3.2016   -4.4708    0.2595 H   0  0  0  0  0  0  0  0  0  0  0  0
    5.1082   -4.1227    1.7835 H   0  0  0  0  0  0  0  0  0  0  0  0
    7.0430    0.7675    1.8535 H   0  0  0  0  0  0  0  0  0  0  0  0
    7.3060   -3.8124    2.1724 H   0  0  0  0  0  0  0  0  0  0  0  0
   11.3258   -7.6906    5.3995 H   0  0  0  0  0  0  0  0  0  0  0  0
   13.2006   -8.6323    6.6904 H   0  0  0  0  0  0  0  0  0  0  0  0
   14.7246   -7.1386    7.9553 H   0  0  0  0  0  0  0  0  0  0  0  0
   14.3731   -4.6825    7.9135 H   0  0  0  0  0  0  0  0  0  0  0  0
   12.4865   -3.7239    6.6607 H   0  0  0  0  0  0  0  0  0  0  0  0
   11.0191   -6.1791    3.4672 H   0  0  0  0  0  0  0  0  0  0  0  0
    9.1437   -5.2449    2.2345 H   0  0  0  0  0  0  0  0  0  0  0  0
  1  2  1  0  0  0  0
  1 30  1  0  0  0  0
  1 31  1  0  0  0  0
  1 32  1  0  0  0  0
  2  3  1  0  0  0  0
  3  4  2  0  0  0  0
  3  8  1  0  0  0  0
  4  5  1  0  0  0  0
  4 33  1  0  0  0  0
  5  6  2  0  0  0  0
  5 34  1  0  0  0  0
  6  7  1  0  0  0  0
  6 35  1  0  0  0  0
  7  8  2  0  0  0  0
  7 11  1  0  0  0  0
  8  9  1  0  0  0  0
  9 10  1  0  0  0  0
 10 11  2  0  0  0  0
 10 36  1  0  0  0  0
 11 12  1  0  0  0  0
 12 13  2  0  0  0  0
 12 14  1  0  0  0  0
 14 15  1  0  0  0  0
 14 37  1  0  0  0  0
 15 16  2  0  0  0  0
 15 29  1  0  0  0  0
 16 17  1  0  0  0  0
 16 19  1  0  0  0  0
 17 18  3  0  0  0  0
 19 20  2  0  0  0  0
 19 21  1  0  0  0  0
 21 22  1  0  0  0  0
 21 28  1  0  0  0  0
 22 23  2  0  0  0  0
 22 27  1  0  0  0  0
 23 24  1  0  0  0  0
 23 38  1  0  0  0  0
 24 25  2  0  0  0  0
 24 39  1  0  0  0  0
 25 26  1  0  0  0  0
 25 40  1  0  0  0  0
 26 27  2  0  0  0  0
 26 41  1  0  0  0  0
 27 42  1  0  0  0  0
 28 29  2  0  0  0  0
 28 43  1  0  0  0  0
 29 44  1  0  0  0  0
M  END
$$$$
