
 OpenBabel01122422513D

 46 49  0  0  0  0  0  0  0  0999 V2000
    1.1810    0.2523    0.6966 C   0  0  0  0  0  0  0  0  0  0  0  0
    2.5591    0.0915    0.1356 C   0  0  0  0  0  0  0  0  0  0  0  0
    3.3562    1.2185   -0.0345 C   0  0  0  0  0  0  0  0  0  0  0  0
    4.6261    1.1882   -0.4970 N   0  0  0  0  0  0  0  0  0  0  0  0
    5.1895    0.0038   -0.8084 N   0  0  0  0  0  0  0  0  0  0  0  0
    4.4621   -1.1238   -0.6527 C   0  0  0  0  0  0  0  0  0  0  0  0
    3.1420   -1.1295   -0.2054 C   0  0  0  0  0  0  0  0  0  0  0  0
    2.5409   -2.4738   -0.0473 C   0  0  0  0  0  0  0  0  0  0  0  0
    3.3063   -3.3671    0.3004 O   0  0  0  0  0  0  0  0  0  0  0  0
    1.2056   -2.6410   -0.3890 N   0  0  0  0  0  0  0  0  0  0  0  0
    0.5170   -3.8814   -0.3754 C   0  0  0  0  0  0  0  0  0  0  0  0
    0.9859   -5.0024    0.3154 C   0  0  0  0  0  0  0  0  0  0  0  0
    0.3810   -6.2561    0.1777 C   0  0  0  0  0  0  0  0  0  0  0  0
    0.9121   -7.4159    0.7869 N   0  0  0  0  0  0  0  0  0  0  0  0
    1.7137   -7.4167    1.9113 C   0  0  0  0  0  0  0  0  0  0  0  0
    1.7553   -6.5002    2.7297 O   0  0  0  0  0  0  0  0  0  0  0  0
    2.6348   -8.5936    2.0468 C   0  0  0  0  0  0  0  0  0  0  0  0
    3.6927   -8.3743    2.8417 C   0  0  0  0  0  0  0  0  0  0  0  0
    4.9261   -9.0265    2.7123 O   0  0  0  0  0  0  0  0  0  0  0  0
    5.2034   -9.5213    1.4601 C   0  0  0  0  0  0  0  0  0  0  0  0
    6.3353   -9.5830    1.0034 O   0  0  0  0  0  0  0  0  0  0  0  0
    4.0386  -10.1223    0.7701 C   0  0  0  0  0  0  0  0  0  0  0  0
    4.2458  -11.1213   -0.1837 C   0  0  0  0  0  0  0  0  0  0  0  0
    3.1589  -11.8466   -0.6619 C   0  0  0  0  0  0  0  0  0  0  0  0
    1.8776  -11.5825   -0.1720 C   0  0  0  0  0  0  0  0  0  0  0  0
    1.6694  -10.5375    0.7350 C   0  0  0  0  0  0  0  0  0  0  0  0
    2.7483   -9.7566    1.1669 C   0  0  0  0  0  0  0  0  0  0  0  0
   -0.7232   -6.3863   -0.6627 C   0  0  0  0  0  0  0  0  0  0  0  0
   -1.2670   -5.2536   -1.2741 C   0  0  0  0  0  0  0  0  0  0  0  0
   -0.6574   -4.0035   -1.1235 C   0  0  0  0  0  0  0  0  0  0  0  0
    1.0287    1.2697    1.0767 H   0  0  0  0  0  0  0  0  0  0  0  0
    1.0202   -0.4297    1.5351 H   0  0  0  0  0  0  0  0  0  0  0  0
    0.4278    0.0833   -0.0770 H   0  0  0  0  0  0  0  0  0  0  0  0
    3.0066    2.2156    0.2153 H   0  0  0  0  0  0  0  0  0  0  0  0
    4.9938   -2.0391   -0.8981 H   0  0  0  0  0  0  0  0  0  0  0  0
    0.7466   -1.8788   -0.8856 H   0  0  0  0  0  0  0  0  0  0  0  0
    1.8745   -4.9203    0.9365 H   0  0  0  0  0  0  0  0  0  0  0  0
    0.7095   -8.2871    0.3223 H   0  0  0  0  0  0  0  0  0  0  0  0
    3.7994   -7.5588    3.5494 H   0  0  0  0  0  0  0  0  0  0  0  0
    5.2534  -11.3550   -0.5222 H   0  0  0  0  0  0  0  0  0  0  0  0
    3.3161  -12.6452   -1.3833 H   0  0  0  0  0  0  0  0  0  0  0  0
    1.0425  -12.1999   -0.4970 H   0  0  0  0  0  0  0  0  0  0  0  0
    0.6652  -10.3723    1.1207 H   0  0  0  0  0  0  0  0  0  0  0  0
   -1.1951   -7.3520   -0.8169 H   0  0  0  0  0  0  0  0  0  0  0  0
   -2.1620   -5.3504   -1.8845 H   0  0  0  0  0  0  0  0  0  0  0  0
   -1.0903   -3.1465   -1.6315 H   0  0  0  0  0  0  0  0  0  0  0  0
  1  2  1  0  0  0  0
  1 31  1  0  0  0  0
  1 32  1  0  0  0  0
  1 33  1  0  0  0  0
  2  3  2  0  0  0  0
  2  7  1  0  0  0  0
  3  4  1  0  0  0  0
  3 34  1  0  0  0  0
  4  5  2  0  0  0  0
  5  6  1  0  0  0  0
  6  7  2  0  0  0  0
  6 35  1  0  0  0  0
  7  8  1  0  0  0  0
  8  9  2  0  0  0  0
  8 10  1  0  0  0  0
 10 11  1  0  0  0  0
 10 36  1  0  0  0  0
 11 12  2  0  0  0  0
 11 30  1  0  0  0  0
 12 13  1  0  0  0  0
 12 37  1  0  0  0  0
 13 14  1  0  0  0  0
 13 28  2  0  0  0  0
 14 15  1  0  0  0  0
 14 38  1  0  0  0  0
 15 16  2  0  0  0  0
 15 17  1  0  0  0  0
 17 18  2  0  0  0  0
 17 27  1  0  0  0  0
 18 19  1  0  0  0  0
 18 39  1  0  0  0  0
 19 20  1  0  0  0  0
 20 21  2  0  0  0  0
 20 22  1  0  0  0  0
 22 23  2  0  0  0  0
 22 27  1  0  0  0  0
 23 24  1  0  0  0  0
 23 40  1  0  0  0  0
 24 25  2  0  0  0  0
 24 41  1  0  0  0  0
 25 26  1  0  0  0  0
 25 42  1  0  0  0  0
 26 27  2  0  0  0  0
 26 43  1  0  0  0  0
 28 29  1  0  0  0  0
 28 44  1  0  0  0  0
 29 30  2  0  0  0  0
 29 45  1  0  0  0  0
 30 46  1  0  0  0  0
M  END
$$$$
