
 OpenBabel01122422513D

 45 48  0  0  0  0  0  0  0  0999 V2000
    3.1944   -2.1970   -0.9741 O   0  0  0  0  0  0  0  0  0  0  0  0
    3.3595   -1.0773   -0.4994 C   0  0  0  0  0  0  0  0  0  0  0  0
    2.9315    0.0747   -1.1138 N   0  0  0  0  0  0  0  0  0  0  0  0
    2.2288    0.0598   -2.3789 C   0  0  0  0  0  0  0  0  0  0  0  0
    3.1609    0.1112   -3.5673 C   0  0  0  0  0  0  0  0  0  0  0  0
    3.6785   -1.0665   -4.1022 C   0  0  0  0  0  0  0  0  0  0  0  0
    4.5804   -0.9822   -5.1597 C   0  0  0  0  0  0  0  0  0  0  0  0
    5.1577   -2.0680   -5.7785 O   0  0  0  0  0  0  0  0  0  0  0  0
    5.4896   -3.1829   -5.0425 C   0  0  0  0  0  0  0  0  0  0  0  0
    5.9608   -3.1471   -3.7290 C   0  0  0  0  0  0  0  0  0  0  0  0
    6.2682   -4.3395   -3.0833 C   0  0  0  0  0  0  0  0  0  0  0  0
    6.6804   -4.3091   -1.8083 F   0  0  0  0  0  0  0  0  0  0  0  0
    6.1580   -5.5626   -3.7360 C   0  0  0  0  0  0  0  0  0  0  0  0
    5.7359   -5.5966   -5.0639 C   0  0  0  0  0  0  0  0  0  0  0  0
    5.4043   -4.4065   -5.7161 C   0  0  0  0  0  0  0  0  0  0  0  0
    4.8846    0.2609   -5.7006 C   0  0  0  0  0  0  0  0  0  0  0  0
    4.3165    1.3798   -5.1204 C   0  0  0  0  0  0  0  0  0  0  0  0
    3.4791    1.3355   -4.0614 N   0  0  0  0  0  0  0  0  0  0  0  0
    4.0435   -0.8928    0.8192 C   0  0  0  0  0  0  0  0  0  0  0  0
    4.5675   -2.0066    1.4663 C   0  0  0  0  0  0  0  0  0  0  0  0
    5.1608   -1.8337    2.7187 C   0  0  0  0  0  0  0  0  0  0  0  0
    5.7320   -2.9474    3.3992 N   0  0  0  0  0  0  0  0  0  0  0  0
    5.8307   -4.2443    2.9405 C   0  0  0  0  0  0  0  0  0  0  0  0
    6.5064   -4.9455    3.9103 C   0  0  0  0  0  0  0  0  0  0  0  0
    6.8026   -4.1399    4.9701 N   0  0  0  0  0  0  0  0  0  0  0  0
    6.3241   -2.9587    4.6447 C   0  0  0  0  0  0  0  0  0  0  0  0
    5.1928   -0.5508    3.2743 C   0  0  0  0  0  0  0  0  0  0  0  0
    4.6552    0.5028    2.5428 C   0  0  0  0  0  0  0  0  0  0  0  0
    4.0851    0.3685    1.3261 N   0  0  0  0  0  0  0  0  0  0  0  0
    3.2006    0.9611   -0.6974 H   0  0  0  0  0  0  0  0  0  0  0  0
    1.5666    0.9319   -2.3927 H   0  0  0  0  0  0  0  0  0  0  0  0
    1.5961   -0.8333   -2.4369 H   0  0  0  0  0  0  0  0  0  0  0  0
    3.3839   -2.0241   -3.6831 H   0  0  0  0  0  0  0  0  0  0  0  0
    6.0838   -2.2146   -3.1902 H   0  0  0  0  0  0  0  0  0  0  0  0
    6.4087   -6.4774   -3.2087 H   0  0  0  0  0  0  0  0  0  0  0  0
    5.6627   -6.5452   -5.5894 H   0  0  0  0  0  0  0  0  0  0  0  0
    5.0750   -4.4331   -6.7524 H   0  0  0  0  0  0  0  0  0  0  0  0
    5.5496    0.3546   -6.5508 H   0  0  0  0  0  0  0  0  0  0  0  0
    4.5252    2.3744   -5.5039 H   0  0  0  0  0  0  0  0  0  0  0  0
    4.4886   -2.9701    0.9775 H   0  0  0  0  0  0  0  0  0  0  0  0
    5.4506   -4.5703    1.9843 H   0  0  0  0  0  0  0  0  0  0  0  0
    6.7920   -5.9897    3.8939 H   0  0  0  0  0  0  0  0  0  0  0  0
    6.3875   -2.0883    5.2812 H   0  0  0  0  0  0  0  0  0  0  0  0
    5.6262   -0.3323    4.2436 H   0  0  0  0  0  0  0  0  0  0  0  0
    4.6732    1.5163    2.9377 H   0  0  0  0  0  0  0  0  0  0  0  0
  1  2  2  0  0  0  0
  2  3  1  0  0  0  0
  2 19  1  0  0  0  0
  3  4  1  0  0  0  0
  3 30  1  0  0  0  0
  4  5  1  0  0  0  0
  4 31  1  0  0  0  0
  4 32  1  0  0  0  0
  5  6  2  0  0  0  0
  5 18  1  0  0  0  0
  6  7  1  0  0  0  0
  6 33  1  0  0  0  0
  7  8  1  0  0  0  0
  7 16  2  0  0  0  0
  8  9  1  0  0  0  0
  9 10  2  0  0  0  0
  9 15  1  0  0  0  0
 10 11  1  0  0  0  0
 10 34  1  0  0  0  0
 11 12  1  0  0  0  0
 11 13  2  0  0  0  0
 13 14  1  0  0  0  0
 13 35  1  0  0  0  0
 14 15  2  0  0  0  0
 14 36  1  0  0  0  0
 15 37  1  0  0  0  0
 16 17  1  0  0  0  0
 16 38  1  0  0  0  0
 17 18  2  0  0  0  0
 17 39  1  0  0  0  0
 19 20  2  0  0  0  0
 19 29  1  0  0  0  0
 20 21  1  0  0  0  0
 20 40  1  0  0  0  0
 21 22  1  0  0  0  0
 21 27  2  0  0  0  0
 22 23  1  0  0  0  0
 22 26  1  0  0  0  0
 23 24  2  0  0  0  0
 23 41  1  0  0  0  0
 24 25  1  0  0  0  0
 24 42  1  0  0  0  0
 25 26  2  0  0  0  0
 26 43  1  0  0  0  0
 27 28  1  0  0  0  0
 27 44  1  0  0  0  0
 28 29  2  0  0  0  0
 28 45  1  0  0  0  0
M  END
$$$$
