
 OpenBabel01122422513D

 42 44  0  0  0  0  0  0  0  0999 V2000
    2.2774    0.8830    1.1108 N   0  0  0  0  0  0  0  0  0  0  0  0
    2.4054   -0.0576    0.1282 C   0  0  0  0  0  0  0  0  0  0  0  0
    2.0517   -1.2152    0.2909 O   0  0  0  0  0  0  0  0  0  0  0  0
    3.0429    0.3760   -1.1378 C   0  0  0  0  0  0  0  0  0  0  0  0
    4.1888    1.1808   -1.0532 C   0  0  0  0  0  0  0  0  0  0  0  0
    4.9115    1.5210   -2.2011 C   0  0  0  0  0  0  0  0  0  0  0  0
    4.5248    1.0654   -3.4690 C   0  0  0  0  0  0  0  0  0  0  0  0
    5.2919    1.4090   -4.6896 C   0  0  0  0  0  0  0  0  0  0  0  0
    5.9449    2.6492   -4.8186 C   0  0  0  0  0  0  0  0  0  0  0  0
    6.6164    3.0146   -5.9959 C   0  0  0  0  0  0  0  0  0  0  0  0
    7.2613    4.2872   -6.0997 N   0  0  0  0  0  0  0  0  0  0  0  0
    6.9963    5.1288   -7.1872 C   0  0  0  0  0  0  0  0  0  0  0  0
    7.5600    6.3400   -7.3137 C   0  0  0  0  0  0  0  0  0  0  0  0
    7.2477    7.2504   -8.4518 C   0  0  0  0  0  0  0  0  0  0  0  0
    8.0334    8.1000   -8.8421 O   0  0  0  0  0  0  0  0  0  0  0  0
    6.0234    7.1019   -8.9951 O   0  0  0  0  0  0  0  0  0  0  0  0
    8.5648    6.7341   -6.3494 C   0  0  0  0  0  0  0  0  0  0  0  0
    8.8657    5.9579   -5.3019 C   0  0  0  0  0  0  0  0  0  0  0  0
    8.1629    4.6619   -5.0877 C   0  0  0  0  0  0  0  0  0  0  0  0
    8.4552    4.0066   -4.0903 O   0  0  0  0  0  0  0  0  0  0  0  0
    6.6390    2.1260   -7.0751 C   0  0  0  0  0  0  0  0  0  0  0  0
    6.0489    0.8730   -6.9552 C   0  0  0  0  0  0  0  0  0  0  0  0
    5.3878    0.5198   -5.7754 C   0  0  0  0  0  0  0  0  0  0  0  0
    3.3583    0.2802   -3.5330 C   0  0  0  0  0  0  0  0  0  0  0  0
    2.5958   -0.0649   -2.3893 C   0  0  0  0  0  0  0  0  0  0  0  0
    1.3404   -0.8722   -2.6205 C   0  0  0  0  0  0  0  0  0  0  0  0
    0.4448   -0.9203   -1.6045 F   0  0  0  0  0  0  0  0  0  0  0  0
    0.6267   -0.3545   -3.6709 F   0  0  0  0  0  0  0  0  0  0  0  0
    1.6078   -2.1578   -2.9824 F   0  0  0  0  0  0  0  0  0  0  0  0
    1.8491    0.5926    1.9810 H   0  0  0  0  0  0  0  0  0  0  0  0
    2.5405    1.8525    1.0069 H   0  0  0  0  0  0  0  0  0  0  0  0
    4.5628    1.5173   -0.0886 H   0  0  0  0  0  0  0  0  0  0  0  0
    5.8092    2.1256   -2.0792 H   0  0  0  0  0  0  0  0  0  0  0  0
    5.8973    3.3722   -4.0056 H   0  0  0  0  0  0  0  0  0  0  0  0
    6.2689    4.7413   -7.8977 H   0  0  0  0  0  0  0  0  0  0  0  0
    5.3934    6.5451   -8.5060 H   0  0  0  0  0  0  0  0  0  0  0  0
    9.0952    7.6686   -6.5119 H   0  0  0  0  0  0  0  0  0  0  0  0
    9.6352    6.2154   -4.5861 H   0  0  0  0  0  0  0  0  0  0  0  0
    7.1749    2.3733   -7.9876 H   0  0  0  0  0  0  0  0  0  0  0  0
    6.1164    0.1600   -7.7728 H   0  0  0  0  0  0  0  0  0  0  0  0
    4.9537   -0.4765   -5.7145 H   0  0  0  0  0  0  0  0  0  0  0  0
    3.0045   -0.0739   -4.5037 H   0  0  0  0  0  0  0  0  0  0  0  0
  1  2  1  0  0  0  0
  1 30  1  0  0  0  0
  1 31  1  0  0  0  0
  2  3  2  0  0  0  0
  2  4  1  0  0  0  0
  4  5  2  0  0  0  0
  4 25  1  0  0  0  0
  5  6  1  0  0  0  0
  5 32  1  0  0  0  0
  6  7  2  0  0  0  0
  6 33  1  0  0  0  0
  7  8  1  0  0  0  0
  7 24  1  0  0  0  0
  8  9  2  0  0  0  0
  8 23  1  0  0  0  0
  9 10  1  0  0  0  0
  9 34  1  0  0  0  0
 10 11  1  0  0  0  0
 10 21  2  0  0  0  0
 11 12  1  0  0  0  0
 11 19  1  0  0  0  0
 12 13  2  0  0  0  0
 12 35  1  0  0  0  0
 13 14  1  0  0  0  0
 13 17  1  0  0  0  0
 14 15  2  0  0  0  0
 14 16  1  0  0  0  0
 16 36  1  0  0  0  0
 17 18  2  0  0  0  0
 17 37  1  0  0  0  0
 18 19  1  0  0  0  0
 18 38  1  0  0  0  0
 19 20  2  0  0  0  0
 21 22  1  0  0  0  0
 21 39  1  0  0  0  0
 22 23  2  0  0  0  0
 22 40  1  0  0  0  0
 23 41  1  0  0  0  0
 24 25  2  0  0  0  0
 24 42  1  0  0  0  0
 25 26  1  0  0  0  0
 26 27  1  0  0  0  0
 26 28  1  0  0  0  0
 26 29  1  0  0  0  0
M  END
$$$$
