
 OpenBabel01122422513D

 53 56  0  0  0  0  0  0  0  0999 V2000
    2.8391    1.1384    2.3543 C   0  0  0  0  0  0  0  0  0  0  0  0
    3.3419    0.5281    1.0774 C   0  0  0  0  0  0  0  0  0  0  0  0
    3.1518    1.1381   -0.0517 N   0  0  0  0  0  0  0  0  0  0  0  0
    3.5685    0.4965   -1.2281 C   0  0  0  0  0  0  0  0  0  0  0  0
    3.2716    1.1303   -2.4398 C   0  0  0  0  0  0  0  0  0  0  0  0
    3.5763    0.5247   -3.6570 C   0  0  0  0  0  0  0  0  0  0  0  0
    4.1976   -0.7188   -3.6697 C   0  0  0  0  0  0  0  0  0  0  0  0
    4.5273   -1.3505   -2.4673 C   0  0  0  0  0  0  0  0  0  0  0  0
    4.2158   -0.7545   -1.2353 C   0  0  0  0  0  0  0  0  0  0  0  0
    4.5058   -1.3786    0.0121 N   0  0  0  0  0  0  0  0  0  0  0  0
    5.1594   -2.6782    0.0922 C   0  0  0  0  0  0  0  0  0  0  0  0
    4.1576   -3.8333    0.0080 C   0  0  0  0  0  0  0  0  0  0  0  0
    4.7919   -5.1351    0.0454 N   0  0  0  0  0  0  0  0  0  0  0  0
    4.0238   -6.2832   -0.0131 C   0  0  0  0  0  0  0  0  0  0  0  0
    2.8019   -6.2819   -0.0855 O   0  0  0  0  0  0  0  0  0  0  0  0
    4.7793   -7.5613   -0.0342 C   0  0  0  0  0  0  0  0  0  0  0  0
    6.0178   -7.6664    0.5981 C   0  0  0  0  0  0  0  0  0  0  0  0
    6.7463   -8.8522    0.5148 C   0  0  0  0  0  0  0  0  0  0  0  0
    6.2401   -9.9664   -0.1668 C   0  0  0  0  0  0  0  0  0  0  0  0
    7.1508  -11.4943   -0.3455 S   0  0  0  0  0  0  0  0  0  0  0  0
    8.2152  -11.4712    1.1314 C   0  0  0  0  0  0  0  0  0  0  0  0
    9.1696  -12.6254    1.1805 C   0  0  0  0  0  0  0  0  0  0  0  0
    8.8164  -13.8485    1.7541 C   0  0  0  0  0  0  0  0  0  0  0  0
    9.7597  -14.8686    1.8266 C   0  0  0  0  0  0  0  0  0  0  0  0
   11.0260  -14.6312    1.3163 C   0  0  0  0  0  0  0  0  0  0  0  0
   11.3994  -13.4690    0.7402 N   0  0  0  0  0  0  0  0  0  0  0  0
   10.4623  -12.4989    0.6782 C   0  0  0  0  0  0  0  0  0  0  0  0
    4.9769   -9.8633   -0.7684 C   0  0  0  0  0  0  0  0  0  0  0  0
    4.2465   -8.6696   -0.6994 C   0  0  0  0  0  0  0  0  0  0  0  0
    4.0475   -0.8116    1.1978 C   0  0  0  0  0  0  0  0  0  0  0  0
    4.1720   -1.3138    2.3087 O   0  0  0  0  0  0  0  0  0  0  0  0
    2.3450    2.0930    2.1534 H   0  0  0  0  0  0  0  0  0  0  0  0
    3.6742    1.3061    3.0391 H   0  0  0  0  0  0  0  0  0  0  0  0
    2.1167    0.4611    2.8192 H   0  0  0  0  0  0  0  0  0  0  0  0
    2.7779    2.0990   -2.4267 H   0  0  0  0  0  0  0  0  0  0  0  0
    3.3156    1.0175   -4.5900 H   0  0  0  0  0  0  0  0  0  0  0  0
    4.4193   -1.2047   -4.6172 H   0  0  0  0  0  0  0  0  0  0  0  0
    5.0039   -2.3225   -2.5343 H   0  0  0  0  0  0  0  0  0  0  0  0
    5.6992   -2.7461    1.0463 H   0  0  0  0  0  0  0  0  0  0  0  0
    5.9395   -2.7603   -0.6731 H   0  0  0  0  0  0  0  0  0  0  0  0
    3.5775   -3.7766   -0.9193 H   0  0  0  0  0  0  0  0  0  0  0  0
    3.4435   -3.7835    0.8382 H   0  0  0  0  0  0  0  0  0  0  0  0
    5.7844   -5.2023   -0.1376 H   0  0  0  0  0  0  0  0  0  0  0  0
    6.4326   -6.8418    1.1710 H   0  0  0  0  0  0  0  0  0  0  0  0
    7.7181   -8.8616    0.9901 H   0  0  0  0  0  0  0  0  0  0  0  0
    7.5864  -11.4654    2.0291 H   0  0  0  0  0  0  0  0  0  0  0  0
    8.8147  -10.5571    1.1508 H   0  0  0  0  0  0  0  0  0  0  0  0
    7.8177  -14.0064    2.1529 H   0  0  0  0  0  0  0  0  0  0  0  0
    9.5164  -15.8255    2.2745 H   0  0  0  0  0  0  0  0  0  0  0  0
   11.7990  -15.3925    1.3603 H   0  0  0  0  0  0  0  0  0  0  0  0
   10.7981  -11.5779    0.2076 H   0  0  0  0  0  0  0  0  0  0  0  0
    4.5511  -10.7094   -1.3056 H   0  0  0  0  0  0  0  0  0  0  0  0
    3.2705   -8.6031   -1.1773 H   0  0  0  0  0  0  0  0  0  0  0  0
  1  2  1  0  0  0  0
  1 32  1  0  0  0  0
  1 33  1  0  0  0  0
  1 34  1  0  0  0  0
  2  3  2  0  0  0  0
  2 30  1  0  0  0  0
  3  4  1  0  0  0  0
  4  5  2  0  0  0  0
  4  9  1  0  0  0  0
  5  6  1  0  0  0  0
  5 35  1  0  0  0  0
  6  7  2  0  0  0  0
  6 36  1  0  0  0  0
  7  8  1  0  0  0  0
  7 37  1  0  0  0  0
  8  9  2  0  0  0  0
  8 38  1  0  0  0  0
  9 10  1  0  0  0  0
 10 11  1  0  0  0  0
 10 30  1  0  0  0  0
 11 12  1  0  0  0  0
 11 39  1  0  0  0  0
 11 40  1  0  0  0  0
 12 13  1  0  0  0  0
 12 41  1  0  0  0  0
 12 42  1  0  0  0  0
 13 14  1  0  0  0  0
 13 43  1  0  0  0  0
 14 15  2  0  0  0  0
 14 16  1  0  0  0  0
 16 17  2  0  0  0  0
 16 29  1  0  0  0  0
 17 18  1  0  0  0  0
 17 44  1  0  0  0  0
 18 19  2  0  0  0  0
 18 45  1  0  0  0  0
 19 20  1  0  0  0  0
 19 28  1  0  0  0  0
 20 21  1  0  0  0  0
 21 22  1  0  0  0  0
 21 46  1  0  0  0  0
 21 47  1  0  0  0  0
 22 23  2  0  0  0  0
 22 27  1  0  0  0  0
 23 24  1  0  0  0  0
 23 48  1  0  0  0  0
 24 25  2  0  0  0  0
 24 49  1  0  0  0  0
 25 26  1  0  0  0  0
 25 50  1  0  0  0  0
 26 27  2  0  0  0  0
 27 51  1  0  0  0  0
 28 29  2  0  0  0  0
 28 52  1  0  0  0  0
 29 53  1  0  0  0  0
 30 31  2  0  0  0  0
M  END
$$$$
