
 OpenBabel01122422513D

 48 51  0  0  0  0  0  0  0  0999 V2000
   -2.6952    2.6626   -0.1368 N   0  0  0  0  0  0  0  0  0  0  0  0
   -1.5702    2.5138    0.1012 C   0  0  0  0  0  0  0  0  0  0  0  0
   -0.1728    2.3025    0.3428 C   0  0  0  0  0  0  0  0  0  0  0  0
    0.7063    2.0899   -0.7257 C   0  0  0  0  0  0  0  0  0  0  0  0
    2.0643    1.8337   -0.4867 C   0  0  0  0  0  0  0  0  0  0  0  0
    2.5562    1.7821    0.8256 C   0  0  0  0  0  0  0  0  0  0  0  0
    3.9826    1.4353    1.1400 C   0  0  0  0  0  0  0  0  0  0  0  0
    4.3658    1.5754    2.3012 O   0  0  0  0  0  0  0  0  0  0  0  0
    4.8670    0.8941    0.0037 C   0  0  0  0  0  0  0  0  0  0  0  0
    6.2336    0.5737    0.4671 N   0  0  0  0  0  0  0  0  0  0  0  0
    7.2381    1.6332    0.3385 C   0  0  0  0  0  0  0  0  0  0  0  0
    8.0973    1.5250   -0.9195 C   0  0  0  0  0  0  0  0  0  0  0  0
    8.5047    2.5445   -1.4837 O   0  0  0  0  0  0  0  0  0  0  0  0
    8.4648    0.2357   -1.3063 N   0  0  0  0  0  0  0  0  0  0  0  0
    9.4386    0.0854   -2.3917 C   0  0  0  0  0  0  0  0  0  0  0  0
    8.7940   -0.1531   -3.7421 C   0  0  0  0  0  0  0  0  0  0  0  0
    8.0056    0.8484   -4.3287 C   0  0  0  0  0  0  0  0  0  0  0  0
    7.3575    0.6295   -5.5435 C   0  0  0  0  0  0  0  0  0  0  0  0
    7.5064   -0.5876   -6.2019 C   0  0  0  0  0  0  0  0  0  0  0  0
    8.3188   -1.5785   -5.6540 C   0  0  0  0  0  0  0  0  0  0  0  0
    8.9620   -1.3631   -4.4318 C   0  0  0  0  0  0  0  0  0  0  0  0
    7.8321   -0.9004   -0.7022 C   0  0  0  0  0  0  0  0  0  0  0  0
    8.2649   -2.2119   -0.9611 C   0  0  0  0  0  0  0  0  0  0  0  0
    7.6298   -3.3101   -0.3783 C   0  0  0  0  0  0  0  0  0  0  0  0
    6.5478   -3.1163    0.4696 C   0  0  0  0  0  0  0  0  0  0  0  0
    6.0973   -1.8224    0.7299 C   0  0  0  0  0  0  0  0  0  0  0  0
    6.7212   -0.7029    0.1545 C   0  0  0  0  0  0  0  0  0  0  0  0
    1.6764    2.0360    1.8892 C   0  0  0  0  0  0  0  0  0  0  0  0
    0.3272    2.2824    1.6406 C   0  0  0  0  0  0  0  0  0  0  0  0
   -0.4934    2.4886    2.6827 F   0  0  0  0  0  0  0  0  0  0  0  0
    0.3383    2.1104   -1.7513 H   0  0  0  0  0  0  0  0  0  0  0  0
    2.7082    1.6742   -1.3476 H   0  0  0  0  0  0  0  0  0  0  0  0
    4.9238    1.6569   -0.7817 H   0  0  0  0  0  0  0  0  0  0  0  0
    4.3680    0.0109   -0.4133 H   0  0  0  0  0  0  0  0  0  0  0  0
    7.9142    1.5990    1.2026 H   0  0  0  0  0  0  0  0  0  0  0  0
    6.7559    2.6179    0.3450 H   0  0  0  0  0  0  0  0  0  0  0  0
   10.1568   -0.7044   -2.1425 H   0  0  0  0  0  0  0  0  0  0  0  0
   10.0528    0.9920   -2.4656 H   0  0  0  0  0  0  0  0  0  0  0  0
    7.8906    1.8118   -3.8365 H   0  0  0  0  0  0  0  0  0  0  0  0
    6.7364    1.4115   -5.9715 H   0  0  0  0  0  0  0  0  0  0  0  0
    6.9939   -0.7607   -7.1443 H   0  0  0  0  0  0  0  0  0  0  0  0
    8.4469   -2.5222   -6.1782 H   0  0  0  0  0  0  0  0  0  0  0  0
    9.5896   -2.1527   -4.0259 H   0  0  0  0  0  0  0  0  0  0  0  0
    9.1104   -2.4235   -1.6039 H   0  0  0  0  0  0  0  0  0  0  0  0
    7.9896   -4.3154   -0.5815 H   0  0  0  0  0  0  0  0  0  0  0  0
    6.0668   -3.9669    0.9433 H   0  0  0  0  0  0  0  0  0  0  0  0
    5.2732   -1.6818    1.4259 H   0  0  0  0  0  0  0  0  0  0  0  0
    2.0247    2.0247    2.9205 H   0  0  0  0  0  0  0  0  0  0  0  0
  1  2  3  0  0  0  0
  2  3  1  0  0  0  0
  3  4  2  0  0  0  0
  3 29  1  0  0  0  0
  4  5  1  0  0  0  0
  4 31  1  0  0  0  0
  5  6  2  0  0  0  0
  5 32  1  0  0  0  0
  6  7  1  0  0  0  0
  6 28  1  0  0  0  0
  7  8  2  0  0  0  0
  7  9  1  0  0  0  0
  9 10  1  0  0  0  0
  9 33  1  0  0  0  0
  9 34  1  0  0  0  0
 10 11  1  0  0  0  0
 10 27  1  0  0  0  0
 11 12  1  0  0  0  0
 11 35  1  0  0  0  0
 11 36  1  0  0  0  0
 12 13  2  0  0  0  0
 12 14  1  0  0  0  0
 14 15  1  0  0  0  0
 14 22  1  0  0  0  0
 15 16  1  0  0  0  0
 15 37  1  0  0  0  0
 15 38  1  0  0  0  0
 16 17  2  0  0  0  0
 16 21  1  0  0  0  0
 17 18  1  0  0  0  0
 17 39  1  0  0  0  0
 18 19  2  0  0  0  0
 18 40  1  0  0  0  0
 19 20  1  0  0  0  0
 19 41  1  0  0  0  0
 20 21  2  0  0  0  0
 20 42  1  0  0  0  0
 21 43  1  0  0  0  0
 22 23  2  0  0  0  0
 22 27  1  0  0  0  0
 23 24  1  0  0  0  0
 23 44  1  0  0  0  0
 24 25  2  0  0  0  0
 24 45  1  0  0  0  0
 25 26  1  0  0  0  0
 25 46  1  0  0  0  0
 26 27  2  0  0  0  0
 26 47  1  0  0  0  0
 28 29  2  0  0  0  0
 28 48  1  0  0  0  0
 29 30  1  0  0  0  0
M  END
$$$$
