
 OpenBabel01122422463D

 43 46  0  0  0  0  0  0  0  0999 V2000
    3.7993    1.1318   -1.3893 O   0  0  0  0  0  0  0  0  0  0  0  0
    3.5071    0.1921   -0.6600 C   0  0  0  0  0  0  0  0  0  0  0  0
    2.8754   -0.9516   -1.0805 N   0  0  0  0  0  0  0  0  0  0  0  0
    2.2896   -1.0579   -2.3919 C   0  0  0  0  0  0  0  0  0  0  0  0
    3.2613   -1.6085   -3.3857 C   0  0  0  0  0  0  0  0  0  0  0  0
    4.0909   -0.7613   -4.1299 C   0  0  0  0  0  0  0  0  0  0  0  0
    4.9681   -1.2838   -5.0780 C   0  0  0  0  0  0  0  0  0  0  0  0
    5.0330   -2.6635   -5.2793 C   0  0  0  0  0  0  0  0  0  0  0  0
    5.9014   -3.0892   -6.2626 O   0  0  0  0  0  0  0  0  0  0  0  0
    5.5933   -4.2069   -7.0104 C   0  0  0  0  0  0  0  0  0  0  0  0
    4.2939   -4.6067   -7.3393 C   0  0  0  0  0  0  0  0  0  0  0  0
    4.0880   -5.7810   -8.0650 C   0  0  0  0  0  0  0  0  0  0  0  0
    5.1790   -6.5203   -8.5184 C   0  0  0  0  0  0  0  0  0  0  0  0
    6.4765   -6.0824   -8.2539 C   0  0  0  0  0  0  0  0  0  0  0  0
    6.6823   -4.9259   -7.5007 C   0  0  0  0  0  0  0  0  0  0  0  0
    4.2805   -3.5194   -4.4772 C   0  0  0  0  0  0  0  0  0  0  0  0
    3.3817   -2.9893   -3.5559 C   0  0  0  0  0  0  0  0  0  0  0  0
    2.6237   -3.8221   -2.8406 F   0  0  0  0  0  0  0  0  0  0  0  0
    3.7928    0.2834    0.7882 C   0  0  0  0  0  0  0  0  0  0  0  0
    4.8831    1.0410    1.2437 C   0  0  0  0  0  0  0  0  0  0  0  0
    5.0520    1.3018    2.6187 C   0  0  0  0  0  0  0  0  0  0  0  0
    4.1174    0.8432    3.5517 C   0  0  0  0  0  0  0  0  0  0  0  0
    3.0598    0.1098    3.0639 C   0  0  0  0  0  0  0  0  0  0  0  0
    2.9036   -0.1970    1.7294 C   0  0  0  0  0  0  0  0  0  0  0  0
    1.7279   -0.8960    1.4886 O   0  0  0  0  0  0  0  0  0  0  0  0
    1.1310   -0.9328    2.7513 C   0  0  0  0  0  0  0  0  0  0  0  0
    0.0236   -1.4013    2.9649 O   0  0  0  0  0  0  0  0  0  0  0  0
    1.9459   -0.3615    3.6960 N   0  0  0  0  0  0  0  0  0  0  0  0
    2.7314   -1.7205   -0.4400 H   0  0  0  0  0  0  0  0  0  0  0  0
    1.9223   -0.0755   -2.7147 H   0  0  0  0  0  0  0  0  0  0  0  0
    1.4122   -1.7085   -2.3081 H   0  0  0  0  0  0  0  0  0  0  0  0
    4.0529    0.3177   -3.9691 H   0  0  0  0  0  0  0  0  0  0  0  0
    5.5973   -0.6166   -5.6607 H   0  0  0  0  0  0  0  0  0  0  0  0
    3.4299   -4.0289   -7.0255 H   0  0  0  0  0  0  0  0  0  0  0  0
    3.0759   -6.1160   -8.2757 H   0  0  0  0  0  0  0  0  0  0  0  0
    5.0173   -7.4327   -9.0870 H   0  0  0  0  0  0  0  0  0  0  0  0
    7.3270   -6.6436   -8.6304 H   0  0  0  0  0  0  0  0  0  0  0  0
    7.6941   -4.5905   -7.2891 H   0  0  0  0  0  0  0  0  0  0  0  0
    4.3578   -4.5999   -4.5657 H   0  0  0  0  0  0  0  0  0  0  0  0
    5.5838    1.4655    0.5257 H   0  0  0  0  0  0  0  0  0  0  0  0
    5.8946    1.9077    2.9476 H   0  0  0  0  0  0  0  0  0  0  0  0
    4.2086    1.0911    4.6031 H   0  0  0  0  0  0  0  0  0  0  0  0
    1.6691   -0.2198    4.6551 H   0  0  0  0  0  0  0  0  0  0  0  0
  1  2  2  0  0  0  0
  2  3  1  0  0  0  0
  2 19  1  0  0  0  0
  3  4  1  0  0  0  0
  3 29  1  0  0  0  0
  4  5  1  0  0  0  0
  4 30  1  0  0  0  0
  4 31  1  0  0  0  0
  5  6  2  0  0  0  0
  5 17  1  0  0  0  0
  6  7  1  0  0  0  0
  6 32  1  0  0  0  0
  7  8  2  0  0  0  0
  7 33  1  0  0  0  0
  8  9  1  0  0  0  0
  8 16  1  0  0  0  0
  9 10  1  0  0  0  0
 10 11  2  0  0  0  0
 10 15  1  0  0  0  0
 11 12  1  0  0  0  0
 11 34  1  0  0  0  0
 12 13  2  0  0  0  0
 12 35  1  0  0  0  0
 13 14  1  0  0  0  0
 13 36  1  0  0  0  0
 14 15  2  0  0  0  0
 14 37  1  0  0  0  0
 15 38  1  0  0  0  0
 16 17  2  0  0  0  0
 16 39  1  0  0  0  0
 17 18  1  0  0  0  0
 19 20  2  0  0  0  0
 19 24  1  0  0  0  0
 20 21  1  0  0  0  0
 20 40  1  0  0  0  0
 21 22  2  0  0  0  0
 21 41  1  0  0  0  0
 22 23  1  0  0  0  0
 22 42  1  0  0  0  0
 23 24  2  0  0  0  0
 23 28  1  0  0  0  0
 24 25  1  0  0  0  0
 25 26  1  0  0  0  0
 26 27  2  0  0  0  0
 26 28  1  0  0  0  0
 28 43  1  0  0  0  0
M  END
$$$$
