
 OpenBabel01122422513D

 49 52  0  0  0  0  0  0  0  0999 V2000
    1.2095   -0.2911    0.5197 C   0  0  0  0  0  0  0  0  0  0  0  0
    2.3674    0.1409   -0.2154 N   0  0  0  0  0  0  0  0  0  0  0  0
    3.1202   -0.7544   -0.9444 C   0  0  0  0  0  0  0  0  0  0  0  0
    2.8367   -1.9472   -0.9934 O   0  0  0  0  0  0  0  0  0  0  0  0
    4.2597   -0.1751   -1.6323 C   0  0  0  0  0  0  0  0  0  0  0  0
    5.1651   -0.7633   -2.5124 C   0  0  0  0  0  0  0  0  0  0  0  0
    5.0698   -2.1975   -2.9271 C   0  0  0  0  0  0  0  0  0  0  0  0
    6.1489   -2.5797   -3.7986 N   0  0  0  0  0  0  0  0  0  0  0  0
    5.9304   -3.1247   -5.0438 C   0  0  0  0  0  0  0  0  0  0  0  0
    4.8236   -3.2568   -5.5503 O   0  0  0  0  0  0  0  0  0  0  0  0
    7.1489   -3.5332   -5.7936 C   0  0  0  0  0  0  0  0  0  0  0  0
    8.3122   -3.9383   -5.1242 C   0  0  0  0  0  0  0  0  0  0  0  0
    9.4556   -4.2633   -5.8479 C   0  0  0  0  0  0  0  0  0  0  0  0
    9.4325   -4.2116   -7.2395 C   0  0  0  0  0  0  0  0  0  0  0  0
    8.2503   -3.8922   -7.9165 C   0  0  0  0  0  0  0  0  0  0  0  0
    8.1598   -3.8539   -9.2909 O   0  0  0  0  0  0  0  0  0  0  0  0
    8.7929   -4.8630  -10.0116 C   0  0  0  0  0  0  0  0  0  0  0  0
    9.1232   -4.5730  -11.3268 C   0  0  0  0  0  0  0  0  0  0  0  0
    9.7862   -5.5476  -12.0691 C   0  0  0  0  0  0  0  0  0  0  0  0
   10.0868   -6.7706  -11.4767 C   0  0  0  0  0  0  0  0  0  0  0  0
    9.6943   -6.9777  -10.1656 C   0  0  0  0  0  0  0  0  0  0  0  0
    9.0451   -6.0571   -9.4257 N   0  0  0  0  0  0  0  0  0  0  0  0
    7.1148   -3.5233   -7.1938 C   0  0  0  0  0  0  0  0  0  0  0  0
    6.0941    0.2751   -2.8634 C   0  0  0  0  0  0  0  0  0  0  0  0
    7.2381    0.3987   -3.6817 C   0  0  0  0  0  0  0  0  0  0  0  0
    7.9080    1.6296   -3.7542 C   0  0  0  0  0  0  0  0  0  0  0  0
    7.4510    2.7366   -3.0410 C   0  0  0  0  0  0  0  0  0  0  0  0
    6.3141    2.6491   -2.2333 C   0  0  0  0  0  0  0  0  0  0  0  0
    5.6768    1.4093   -2.1731 C   0  0  0  0  0  0  0  0  0  0  0  0
    4.5678    1.1415   -1.4350 O   0  0  0  0  0  0  0  0  0  0  0  0
    0.7143    0.5810    0.9509 H   0  0  0  0  0  0  0  0  0  0  0  0
    1.5247   -0.9753    1.3130 H   0  0  0  0  0  0  0  0  0  0  0  0
    0.5254   -0.8157   -0.1539 H   0  0  0  0  0  0  0  0  0  0  0  0
    2.6646    1.1095   -0.1982 H   0  0  0  0  0  0  0  0  0  0  0  0
    4.1019   -2.3947   -3.3983 H   0  0  0  0  0  0  0  0  0  0  0  0
    5.1595   -2.8374   -2.0418 H   0  0  0  0  0  0  0  0  0  0  0  0
    7.0843   -2.4527   -3.4470 H   0  0  0  0  0  0  0  0  0  0  0  0
    8.3392   -4.0316   -4.0430 H   0  0  0  0  0  0  0  0  0  0  0  0
   10.3601   -4.5772   -5.3338 H   0  0  0  0  0  0  0  0  0  0  0  0
   10.3331   -4.4657   -7.7918 H   0  0  0  0  0  0  0  0  0  0  0  0
    8.8830   -3.6082  -11.7583 H   0  0  0  0  0  0  0  0  0  0  0  0
   10.0712   -5.3537  -13.0988 H   0  0  0  0  0  0  0  0  0  0  0  0
   10.6128   -7.5454  -12.0229 H   0  0  0  0  0  0  0  0  0  0  0  0
    9.9040   -7.9137   -9.6556 H   0  0  0  0  0  0  0  0  0  0  0  0
    6.2047   -3.2384   -7.7174 H   0  0  0  0  0  0  0  0  0  0  0  0
    7.6123   -0.4344   -4.2669 H   0  0  0  0  0  0  0  0  0  0  0  0
    8.7927    1.7204   -4.3818 H   0  0  0  0  0  0  0  0  0  0  0  0
    7.9831    3.6825   -3.1181 H   0  0  0  0  0  0  0  0  0  0  0  0
    5.9421    3.5014   -1.6781 H   0  0  0  0  0  0  0  0  0  0  0  0
  1  2  1  0  0  0  0
  1 31  1  0  0  0  0
  1 32  1  0  0  0  0
  1 33  1  0  0  0  0
  2  3  1  0  0  0  0
  2 34  1  0  0  0  0
  3  4  2  0  0  0  0
  3  5  1  0  0  0  0
  5  6  2  0  0  0  0
  5 30  1  0  0  0  0
  6  7  1  0  0  0  0
  6 24  1  0  0  0  0
  7  8  1  0  0  0  0
  7 35  1  0  0  0  0
  7 36  1  0  0  0  0
  8  9  1  0  0  0  0
  8 37  1  0  0  0  0
  9 10  2  0  0  0  0
  9 11  1  0  0  0  0
 11 12  2  0  0  0  0
 11 23  1  0  0  0  0
 12 13  1  0  0  0  0
 12 38  1  0  0  0  0
 13 14  2  0  0  0  0
 13 39  1  0  0  0  0
 14 15  1  0  0  0  0
 14 40  1  0  0  0  0
 15 16  1  0  0  0  0
 15 23  2  0  0  0  0
 16 17  1  0  0  0  0
 17 18  2  0  0  0  0
 17 22  1  0  0  0  0
 18 19  1  0  0  0  0
 18 41  1  0  0  0  0
 19 20  2  0  0  0  0
 19 42  1  0  0  0  0
 20 21  1  0  0  0  0
 20 43  1  0  0  0  0
 21 22  2  0  0  0  0
 21 44  1  0  0  0  0
 23 45  1  0  0  0  0
 24 25  2  0  0  0  0
 24 29  1  0  0  0  0
 25 26  1  0  0  0  0
 25 46  1  0  0  0  0
 26 27  2  0  0  0  0
 26 47  1  0  0  0  0
 27 28  1  0  0  0  0
 27 48  1  0  0  0  0
 28 29  2  0  0  0  0
 28 49  1  0  0  0  0
 29 30  1  0  0  0  0
M  END
$$$$
