
 OpenBabel01122422513D

 41 44  0  0  0  0  0  0  0  0999 V2000
    2.8963    0.7356    0.5485 O   0  0  0  0  0  0  0  0  0  0  0  0
    2.2643   -0.0163   -0.1800 C   0  0  0  0  0  0  0  0  0  0  0  0
    0.8726   -0.0500   -0.3369 N   0  0  0  0  0  0  0  0  0  0  0  0
   -0.0045    0.8096    0.3039 C   0  0  0  0  0  0  0  0  0  0  0  0
    0.3861    2.0405    0.6891 C   0  0  0  0  0  0  0  0  0  0  0  0
   -0.4758    2.9285    1.4876 C   0  0  0  0  0  0  0  0  0  0  0  0
   -0.1012    4.0552    1.8192 O   0  0  0  0  0  0  0  0  0  0  0  0
   -1.6995    2.4456    1.8340 N   0  0  0  0  0  0  0  0  0  0  0  0
   -2.1869    1.2040    1.4100 C   0  0  0  0  0  0  0  0  0  0  0  0
   -3.4725    0.8290    1.7877 C   0  0  0  0  0  0  0  0  0  0  0  0
   -3.9487   -0.3815    1.3225 C   0  0  0  0  0  0  0  0  0  0  0  0
   -3.2280   -1.2157    0.5465 N   0  0  0  0  0  0  0  0  0  0  0  0
   -1.9660   -0.8238    0.2254 C   0  0  0  0  0  0  0  0  0  0  0  0
   -1.3843    0.3780    0.6146 C   0  0  0  0  0  0  0  0  0  0  0  0
    2.9946   -1.0731   -0.9009 C   0  0  0  0  0  0  0  0  0  0  0  0
    2.5398   -1.4698   -2.1491 C   0  0  0  0  0  0  0  0  0  0  0  0
    3.1197   -2.5651   -2.7816 C   0  0  0  0  0  0  0  0  0  0  0  0
    2.5854   -3.0349   -4.0032 N   0  0  0  0  0  0  0  0  0  0  0  0
    2.5836   -4.3749   -4.2246 N   0  0  0  0  0  0  0  0  0  0  0  0
    1.8612   -4.5419   -5.3279 C   0  0  0  0  0  0  0  0  0  0  0  0
    1.4479   -3.3224   -5.8722 C   0  0  0  0  0  0  0  0  0  0  0  0
    1.9555   -2.3520   -5.0233 C   0  0  0  0  0  0  0  0  0  0  0  0
    1.9678   -0.8858   -5.2110 C   0  0  0  0  0  0  0  0  0  0  0  0
    2.6891   -0.1794   -4.3114 F   0  0  0  0  0  0  0  0  0  0  0  0
    2.4893   -0.5621   -6.4202 F   0  0  0  0  0  0  0  0  0  0  0  0
    0.7084   -0.3794   -5.1750 F   0  0  0  0  0  0  0  0  0  0  0  0
    4.1584   -3.2632   -2.1503 C   0  0  0  0  0  0  0  0  0  0  0  0
    4.6555   -2.8179   -0.9231 C   0  0  0  0  0  0  0  0  0  0  0  0
    4.0753   -1.7154   -0.2955 C   0  0  0  0  0  0  0  0  0  0  0  0
    0.4908   -0.8748   -0.7613 H   0  0  0  0  0  0  0  0  0  0  0  0
    1.3571    2.4552    0.4686 H   0  0  0  0  0  0  0  0  0  0  0  0
   -2.2619    3.0580    2.4090 H   0  0  0  0  0  0  0  0  0  0  0  0
   -4.0918    1.4548    2.4184 H   0  0  0  0  0  0  0  0  0  0  0  0
   -4.9529   -0.7188    1.5659 H   0  0  0  0  0  0  0  0  0  0  0  0
   -1.4427   -1.5596   -0.3790 H   0  0  0  0  0  0  0  0  0  0  0  0
    1.7064   -0.9328   -2.5866 H   0  0  0  0  0  0  0  0  0  0  0  0
    1.6972   -5.5456   -5.7008 H   0  0  0  0  0  0  0  0  0  0  0  0
    0.9104   -3.1576   -6.7959 H   0  0  0  0  0  0  0  0  0  0  0  0
    4.5962   -4.1479   -2.6108 H   0  0  0  0  0  0  0  0  0  0  0  0
    5.4681   -3.3523   -0.4380 H   0  0  0  0  0  0  0  0  0  0  0  0
    4.4288   -1.3912    0.6808 H   0  0  0  0  0  0  0  0  0  0  0  0
  1  2  2  0  0  0  0
  2  3  1  0  0  0  0
  2 15  1  0  0  0  0
  3  4  1  0  0  0  0
  3 30  1  0  0  0  0
  4  5  2  0  0  0  0
  4 14  1  0  0  0  0
  5  6  1  0  0  0  0
  5 31  1  0  0  0  0
  6  7  2  0  0  0  0
  6  8  1  0  0  0  0
  8  9  1  0  0  0  0
  8 32  1  0  0  0  0
  9 10  2  0  0  0  0
  9 14  1  0  0  0  0
 10 11  1  0  0  0  0
 10 33  1  0  0  0  0
 11 12  2  0  0  0  0
 11 34  1  0  0  0  0
 12 13  1  0  0  0  0
 13 14  2  0  0  0  0
 13 35  1  0  0  0  0
 15 16  2  0  0  0  0
 15 29  1  0  0  0  0
 16 17  1  0  0  0  0
 16 36  1  0  0  0  0
 17 18  1  0  0  0  0
 17 27  2  0  0  0  0
 18 19  1  0  0  0  0
 18 22  1  0  0  0  0
 19 20  2  0  0  0  0
 20 21  1  0  0  0  0
 20 37  1  0  0  0  0
 21 22  2  0  0  0  0
 21 38  1  0  0  0  0
 22 23  1  0  0  0  0
 23 24  1  0  0  0  0
 23 25  1  0  0  0  0
 23 26  1  0  0  0  0
 27 28  1  0  0  0  0
 27 39  1  0  0  0  0
 28 29  2  0  0  0  0
 28 40  1  0  0  0  0
 29 41  1  0  0  0  0
M  END
$$$$
