
 OpenBabel01122422513D

 43 46  0  0  0  0  0  0  0  0999 V2000
    0.3881    0.7932    0.3423 N   0  0  0  0  0  0  0  0  0  0  0  0
    1.4116    0.5597   -0.5189 C   0  0  0  0  0  0  0  0  0  0  0  0
    1.6139   -0.5435   -1.2036 N   0  0  0  0  0  0  0  0  0  0  0  0
    2.6266   -0.2745   -2.0847 N   0  0  0  0  0  0  0  0  0  0  0  0
    3.0497    0.9743   -1.9634 N   0  0  0  0  0  0  0  0  0  0  0  0
    2.3736    1.4967   -0.9102 N   0  0  0  0  0  0  0  0  0  0  0  0
    2.6892    2.7718   -0.3788 C   0  0  0  0  0  0  0  0  0  0  0  0
    2.3501    3.1008    0.9373 C   0  0  0  0  0  0  0  0  0  0  0  0
    2.6833    4.3534    1.4426 C   0  0  0  0  0  0  0  0  0  0  0  0
    3.3482    5.2808    0.6383 C   0  0  0  0  0  0  0  0  0  0  0  0
    3.7311    4.9758   -0.6795 C   0  0  0  0  0  0  0  0  0  0  0  0
    4.4873    5.9462   -1.5023 C   0  0  0  0  0  0  0  0  0  0  0  0
    5.4979    6.7553   -0.9554 C   0  0  0  0  0  0  0  0  0  0  0  0
    5.7965    6.6807    0.3514 F   0  0  0  0  0  0  0  0  0  0  0  0
    6.2517    7.6368   -1.7300 C   0  0  0  0  0  0  0  0  0  0  0  0
    6.0314    7.7223   -3.0996 C   0  0  0  0  0  0  0  0  0  0  0  0
    6.8752    8.5521   -3.7851 O   0  0  0  0  0  0  0  0  0  0  0  0
    7.0228    8.2476   -5.1740 C   0  0  0  0  0  0  0  0  0  0  0  0
    8.3148    8.8279   -5.6887 C   0  0  0  0  0  0  0  0  0  0  0  0
    9.3381    7.9803   -6.1389 C   0  0  0  0  0  0  0  0  0  0  0  0
   10.5192    8.5106   -6.6576 C   0  0  0  0  0  0  0  0  0  0  0  0
   10.6909    9.8905   -6.7260 C   0  0  0  0  0  0  0  0  0  0  0  0
    9.6864   10.7415   -6.2677 C   0  0  0  0  0  0  0  0  0  0  0  0
    8.5018   10.2131   -5.7485 C   0  0  0  0  0  0  0  0  0  0  0  0
    5.0034    6.9771   -3.6682 C   0  0  0  0  0  0  0  0  0  0  0  0
    4.2542    6.1044   -2.8765 C   0  0  0  0  0  0  0  0  0  0  0  0
    3.2856    5.4043   -3.4885 F   0  0  0  0  0  0  0  0  0  0  0  0
    3.3925    3.6983   -1.1702 C   0  0  0  0  0  0  0  0  0  0  0  0
   -0.3487    0.0907    0.3159 H   0  0  0  0  0  0  0  0  0  0  0  0
   -0.0015    1.7322    0.3791 H   0  0  0  0  0  0  0  0  0  0  0  0
    1.8857    2.3850    1.6105 H   0  0  0  0  0  0  0  0  0  0  0  0
    2.4491    4.6056    2.4741 H   0  0  0  0  0  0  0  0  0  0  0  0
    3.5860    6.2518    1.0705 H   0  0  0  0  0  0  0  0  0  0  0  0
    7.0306    8.2284   -1.2573 H   0  0  0  0  0  0  0  0  0  0  0  0
    6.1862    8.6768   -5.7386 H   0  0  0  0  0  0  0  0  0  0  0  0
    7.0378    7.1621   -5.3371 H   0  0  0  0  0  0  0  0  0  0  0  0
    9.2205    6.8998   -6.0924 H   0  0  0  0  0  0  0  0  0  0  0  0
   11.3034    7.8453   -7.0093 H   0  0  0  0  0  0  0  0  0  0  0  0
   11.6092   10.3040   -7.1338 H   0  0  0  0  0  0  0  0  0  0  0  0
    9.8256   11.8211   -6.3139 H   0  0  0  0  0  0  0  0  0  0  0  0
    7.7262   10.8881   -5.3924 H   0  0  0  0  0  0  0  0  0  0  0  0
    4.7582    7.0377   -4.7228 H   0  0  0  0  0  0  0  0  0  0  0  0
    3.6712    3.4277   -2.1895 H   0  0  0  0  0  0  0  0  0  0  0  0
  1  2  1  0  0  0  0
  1 29  1  0  0  0  0
  1 30  1  0  0  0  0
  2  3  2  0  0  0  0
  2  6  1  0  0  0  0
  3  4  1  0  0  0  0
  4  5  2  0  0  0  0
  5  6  1  0  0  0  0
  6  7  1  0  0  0  0
  7  8  2  0  0  0  0
  7 28  1  0  0  0  0
  8  9  1  0  0  0  0
  8 31  1  0  0  0  0
  9 10  2  0  0  0  0
  9 32  1  0  0  0  0
 10 11  1  0  0  0  0
 10 33  1  0  0  0  0
 11 12  1  0  0  0  0
 11 28  2  0  0  0  0
 12 13  2  0  0  0  0
 12 26  1  0  0  0  0
 13 14  1  0  0  0  0
 13 15  1  0  0  0  0
 15 16  2  0  0  0  0
 15 34  1  0  0  0  0
 16 17  1  0  0  0  0
 16 25  1  0  0  0  0
 17 18  1  0  0  0  0
 18 19  1  0  0  0  0
 18 35  1  0  0  0  0
 18 36  1  0  0  0  0
 19 20  2  0  0  0  0
 19 24  1  0  0  0  0
 20 21  1  0  0  0  0
 20 37  1  0  0  0  0
 21 22  2  0  0  0  0
 21 38  1  0  0  0  0
 22 23  1  0  0  0  0
 22 39  1  0  0  0  0
 23 24  2  0  0  0  0
 23 40  1  0  0  0  0
 24 41  1  0  0  0  0
 25 26  2  0  0  0  0
 25 42  1  0  0  0  0
 26 27  1  0  0  0  0
 28 43  1  0  0  0  0
M  END
$$$$
