
 OpenBabel01122422513D

 41 44  0  0  0  0  0  0  0  0999 V2000
    2.8925    0.4382    1.0462 C   0  0  0  0  0  0  0  0  0  0  0  0
    2.1570   -0.1021   -0.0563 O   0  0  0  0  0  0  0  0  0  0  0  0
    2.9108   -0.8810   -0.9077 C   0  0  0  0  0  0  0  0  0  0  0  0
    4.0063   -1.6154   -0.4510 C   0  0  0  0  0  0  0  0  0  0  0  0
    4.7494   -2.3185   -1.3716 C   0  0  0  0  0  0  0  0  0  0  0  0
    4.4621   -2.3615   -2.6827 N   0  0  0  0  0  0  0  0  0  0  0  0
    3.3815   -1.6978   -3.1149 C   0  0  0  0  0  0  0  0  0  0  0  0
    3.0990   -1.7758   -4.4637 C   0  0  0  0  0  0  0  0  0  0  0  0
    1.9927   -1.1417   -5.0256 C   0  0  0  0  0  0  0  0  0  0  0  0
    1.1302   -0.3984   -4.2319 C   0  0  0  0  0  0  0  0  0  0  0  0
   -0.0236    0.2335   -4.7421 N   0  0  0  0  0  0  0  0  0  0  0  0
   -0.4858    0.2255   -6.0466 C   0  0  0  0  0  0  0  0  0  0  0  0
    0.0602   -0.3060   -7.0099 O   0  0  0  0  0  0  0  0  0  0  0  0
   -1.7925    0.9233   -6.2404 C   0  0  0  0  0  0  0  0  0  0  0  0
   -2.3296    1.0018   -7.4711 C   0  0  0  0  0  0  0  0  0  0  0  0
   -3.5396    1.5751   -7.7798 N   0  0  0  0  0  0  0  0  0  0  0  0
   -4.4031    1.9935   -6.7569 C   0  0  0  0  0  0  0  0  0  0  0  0
   -3.9498    2.0021   -5.4211 C   0  0  0  0  0  0  0  0  0  0  0  0
   -4.7662    2.4367   -4.3782 C   0  0  0  0  0  0  0  0  0  0  0  0
   -6.0429    2.8819   -4.6741 C   0  0  0  0  0  0  0  0  0  0  0  0
   -6.8402    3.2935   -3.6768 F   0  0  0  0  0  0  0  0  0  0  0  0
   -6.4995    2.9034   -5.9892 C   0  0  0  0  0  0  0  0  0  0  0  0
   -7.7358    3.3427   -6.2628 F   0  0  0  0  0  0  0  0  0  0  0  0
   -5.6847    2.4719   -7.0355 C   0  0  0  0  0  0  0  0  0  0  0  0
   -2.5819    1.5171   -5.1313 C   0  0  0  0  0  0  0  0  0  0  0  0
   -2.1318    1.5926   -3.9888 O   0  0  0  0  0  0  0  0  0  0  0  0
    1.4124   -0.2856   -2.8584 C   0  0  0  0  0  0  0  0  0  0  0  0
    2.5405   -0.9358   -2.2766 C   0  0  0  0  0  0  0  0  0  0  0  0
    2.3055    1.2438    1.4947 H   0  0  0  0  0  0  0  0  0  0  0  0
    3.8479    0.8655    0.7169 H   0  0  0  0  0  0  0  0  0  0  0  0
    3.0565   -0.3212    1.8194 H   0  0  0  0  0  0  0  0  0  0  0  0
    4.2990   -1.6546    0.5893 H   0  0  0  0  0  0  0  0  0  0  0  0
    5.6275   -2.8810   -1.0716 H   0  0  0  0  0  0  0  0  0  0  0  0
    3.7572   -2.3539   -5.1077 H   0  0  0  0  0  0  0  0  0  0  0  0
    1.8410   -1.2616   -6.0927 H   0  0  0  0  0  0  0  0  0  0  0  0
   -0.5974    0.7300   -4.0569 H   0  0  0  0  0  0  0  0  0  0  0  0
   -1.8194    0.5834   -8.3408 H   0  0  0  0  0  0  0  0  0  0  0  0
   -3.9263    1.3937   -8.7022 H   0  0  0  0  0  0  0  0  0  0  0  0
   -4.4185    2.4260   -3.3487 H   0  0  0  0  0  0  0  0  0  0  0  0
   -6.0667    2.5096   -8.0506 H   0  0  0  0  0  0  0  0  0  0  0  0
    0.7562    0.2991   -2.2168 H   0  0  0  0  0  0  0  0  0  0  0  0
  1  2  1  0  0  0  0
  1 29  1  0  0  0  0
  1 30  1  0  0  0  0
  1 31  1  0  0  0  0
  2  3  1  0  0  0  0
  3  4  2  0  0  0  0
  3 28  1  0  0  0  0
  4  5  1  0  0  0  0
  4 32  1  0  0  0  0
  5  6  2  0  0  0  0
  5 33  1  0  0  0  0
  6  7  1  0  0  0  0
  7  8  2  0  0  0  0
  7 28  1  0  0  0  0
  8  9  1  0  0  0  0
  8 34  1  0  0  0  0
  9 10  2  0  0  0  0
  9 35  1  0  0  0  0
 10 11  1  0  0  0  0
 10 27  1  0  0  0  0
 11 12  1  0  0  0  0
 11 36  1  0  0  0  0
 12 13  2  0  0  0  0
 12 14  1  0  0  0  0
 14 15  2  0  0  0  0
 14 25  1  0  0  0  0
 15 16  1  0  0  0  0
 15 37  1  0  0  0  0
 16 17  1  0  0  0  0
 16 38  1  0  0  0  0
 17 18  2  0  0  0  0
 17 24  1  0  0  0  0
 18 19  1  0  0  0  0
 18 25  1  0  0  0  0
 19 20  2  0  0  0  0
 19 39  1  0  0  0  0
 20 21  1  0  0  0  0
 20 22  1  0  0  0  0
 22 23  1  0  0  0  0
 22 24  2  0  0  0  0
 24 40  1  0  0  0  0
 25 26  2  0  0  0  0
 27 28  2  0  0  0  0
 27 41  1  0  0  0  0
M  END
$$$$
