
 OpenBabel01122422513D

 47 50  0  0  0  0  0  0  0  0999 V2000
    9.5389    4.6695   -0.6069 C   0  0  0  0  0  0  0  0  0  0  0  0
    8.5259    3.7072   -0.3564 O   0  0  0  0  0  0  0  0  0  0  0  0
    7.8721    3.2061   -1.4458 C   0  0  0  0  0  0  0  0  0  0  0  0
    8.1188    3.5427   -2.7799 C   0  0  0  0  0  0  0  0  0  0  0  0
    7.3509    2.9783   -3.8030 C   0  0  0  0  0  0  0  0  0  0  0  0
    6.3088    2.1029   -3.4830 C   0  0  0  0  0  0  0  0  0  0  0  0
    5.3594    1.5907   -4.4981 C   0  0  0  0  0  0  0  0  0  0  0  0
    4.9805    0.4327   -4.3546 O   0  0  0  0  0  0  0  0  0  0  0  0
    4.7912    2.4701   -5.5667 C   0  0  0  0  0  0  0  0  0  0  0  0
    4.7542    3.8593   -5.2915 C   0  0  0  0  0  0  0  0  0  0  0  0
    4.3198    4.7867   -6.2359 C   0  0  0  0  0  0  0  0  0  0  0  0
    3.8863    4.3447   -7.4730 C   0  0  0  0  0  0  0  0  0  0  0  0
    3.8593    2.9736   -7.7453 C   0  0  0  0  0  0  0  0  0  0  0  0
    4.2833    2.0096   -6.7991 C   0  0  0  0  0  0  0  0  0  0  0  0
    4.0961    0.5882   -7.2638 C   0  0  0  0  0  0  0  0  0  0  0  0
    4.1607    0.3318   -8.4605 O   0  0  0  0  0  0  0  0  0  0  0  0
    3.7447   -0.3568   -6.3321 N   0  0  0  0  0  0  0  0  0  0  0  0
    3.5552   -1.7581   -6.6542 C   0  0  0  0  0  0  0  0  0  0  0  0
    2.6640   -2.4551   -5.6361 C   0  0  0  0  0  0  0  0  0  0  0  0
    1.3468   -1.9957   -5.4677 C   0  0  0  0  0  0  0  0  0  0  0  0
    0.4797   -2.6315   -4.5777 C   0  0  0  0  0  0  0  0  0  0  0  0
    1.0303   -3.7071   -3.9020 C   0  0  0  0  0  0  0  0  0  0  0  0
    0.4098   -4.5068   -2.9915 O   0  0  0  0  0  0  0  0  0  0  0  0
    1.3342   -5.4202   -2.5852 C   0  0  0  0  0  0  0  0  0  0  0  0
    2.5403   -5.2119   -3.2211 C   0  0  0  0  0  0  0  0  0  0  0  0
    2.3453   -4.1114   -4.0868 C   0  0  0  0  0  0  0  0  0  0  0  0
    3.1961   -3.5061   -4.9544 N   0  0  0  0  0  0  0  0  0  0  0  0
    6.0953    1.7221   -2.1553 C   0  0  0  0  0  0  0  0  0  0  0  0
    6.8728    2.2779   -1.1430 C   0  0  0  0  0  0  0  0  0  0  0  0
    9.9882    4.9404    0.3533 H   0  0  0  0  0  0  0  0  0  0  0  0
    9.1168    5.5792   -1.0485 H   0  0  0  0  0  0  0  0  0  0  0  0
   10.3312    4.2543   -1.2390 H   0  0  0  0  0  0  0  0  0  0  0  0
    8.8938    4.2502   -3.0561 H   0  0  0  0  0  0  0  0  0  0  0  0
    7.5588    3.2500   -4.8348 H   0  0  0  0  0  0  0  0  0  0  0  0
    5.0580    4.2517   -4.3222 H   0  0  0  0  0  0  0  0  0  0  0  0
    4.3213    5.8484   -5.9988 H   0  0  0  0  0  0  0  0  0  0  0  0
    3.5477    5.0569   -8.2203 H   0  0  0  0  0  0  0  0  0  0  0  0
    3.4845    2.6527   -8.7180 H   0  0  0  0  0  0  0  0  0  0  0  0
    3.9991   -0.1786   -5.3619 H   0  0  0  0  0  0  0  0  0  0  0  0
    4.5443   -2.2282   -6.6749 H   0  0  0  0  0  0  0  0  0  0  0  0
    3.1157   -1.8573   -7.6526 H   0  0  0  0  0  0  0  0  0  0  0  0
    0.9971   -1.1371   -6.0360 H   0  0  0  0  0  0  0  0  0  0  0  0
   -0.5438   -2.3172   -4.4253 H   0  0  0  0  0  0  0  0  0  0  0  0
    0.9882   -6.1364   -1.8521 H   0  0  0  0  0  0  0  0  0  0  0  0
    3.4452   -5.7819   -3.0837 H   0  0  0  0  0  0  0  0  0  0  0  0
    5.3103    1.0116   -1.9040 H   0  0  0  0  0  0  0  0  0  0  0  0
    6.6875    1.9976   -0.1084 H   0  0  0  0  0  0  0  0  0  0  0  0
  1  2  1  0  0  0  0
  1 30  1  0  0  0  0
  1 31  1  0  0  0  0
  1 32  1  0  0  0  0
  2  3  1  0  0  0  0
  3  4  2  0  0  0  0
  3 29  1  0  0  0  0
  4  5  1  0  0  0  0
  4 33  1  0  0  0  0
  5  6  2  0  0  0  0
  5 34  1  0  0  0  0
  6  7  1  0  0  0  0
  6 28  1  0  0  0  0
  7  8  2  0  0  0  0
  7  9  1  0  0  0  0
  9 10  2  0  0  0  0
  9 14  1  0  0  0  0
 10 11  1  0  0  0  0
 10 35  1  0  0  0  0
 11 12  2  0  0  0  0
 11 36  1  0  0  0  0
 12 13  1  0  0  0  0
 12 37  1  0  0  0  0
 13 14  2  0  0  0  0
 13 38  1  0  0  0  0
 14 15  1  0  0  0  0
 15 16  2  0  0  0  0
 15 17  1  0  0  0  0
 17 18  1  0  0  0  0
 17 39  1  0  0  0  0
 18 19  1  0  0  0  0
 18 40  1  0  0  0  0
 18 41  1  0  0  0  0
 19 20  2  0  0  0  0
 19 27  1  0  0  0  0
 20 21  1  0  0  0  0
 20 42  1  0  0  0  0
 21 22  2  0  0  0  0
 21 43  1  0  0  0  0
 22 23  1  0  0  0  0
 22 26  1  0  0  0  0
 23 24  1  0  0  0  0
 24 25  2  0  0  0  0
 24 44  1  0  0  0  0
 25 26  1  0  0  0  0
 25 45  1  0  0  0  0
 26 27  2  0  0  0  0
 28 29  2  0  0  0  0
 28 46  1  0  0  0  0
 29 47  1  0  0  0  0
M  END
$$$$
