
 OpenBabel01122422513D

 45 48  0  0  0  0  0  0  0  0999 V2000
    1.1623   -0.0958    0.4303 O   0  0  0  0  0  0  0  0  0  0  0  0
    2.3542   -0.0494    0.1388 C   0  0  0  0  0  0  0  0  0  0  0  0
    3.0414   -1.1244   -0.3796 N   0  0  0  0  0  0  0  0  0  0  0  0
    2.3457   -2.3627   -0.6742 C   0  0  0  0  0  0  0  0  0  0  0  0
    3.2956   -3.4891   -1.0677 C   0  0  0  0  0  0  0  0  0  0  0  0
    2.5701   -4.7523   -1.4041 C   0  0  0  0  0  0  0  0  0  0  0  0
    2.0668   -5.0941   -2.6506 C   0  0  0  0  0  0  0  0  0  0  0  0
    1.4752   -6.3265   -2.5575 N   0  0  0  0  0  0  0  0  0  0  0  0
    1.5828   -6.7972   -1.2789 C   0  0  0  0  0  0  0  0  0  0  0  0
    1.1065   -7.9875   -0.8691 N   0  0  0  0  0  0  0  0  0  0  0  0
    1.3383   -8.2148    0.4477 C   0  0  0  0  0  0  0  0  0  0  0  0
    1.9863   -7.3445    1.3101 C   0  0  0  0  0  0  0  0  0  0  0  0
    2.1603   -7.6750    2.5968 F   0  0  0  0  0  0  0  0  0  0  0  0
    2.4592   -6.1237    0.8385 C   0  0  0  0  0  0  0  0  0  0  0  0
    2.2536   -5.8373   -0.5228 C   0  0  0  0  0  0  0  0  0  0  0  0
    3.1239    1.1863    0.4053 C   0  0  0  0  0  0  0  0  0  0  0  0
    2.6385    2.0603    1.3851 C   0  0  0  0  0  0  0  0  0  0  0  0
    3.3405    3.2231    1.7438 C   0  0  0  0  0  0  0  0  0  0  0  0
    2.8480    4.1199    2.8119 C   0  0  0  0  0  0  0  0  0  0  0  0
    2.1507    3.6071    3.9254 C   0  0  0  0  0  0  0  0  0  0  0  0
    1.6358    4.4455    4.9211 C   0  0  0  0  0  0  0  0  0  0  0  0
    1.8199    5.8218    4.8391 C   0  0  0  0  0  0  0  0  0  0  0  0
    2.5234    6.3551    3.7637 C   0  0  0  0  0  0  0  0  0  0  0  0
    3.0243    5.5133    2.7693 C   0  0  0  0  0  0  0  0  0  0  0  0
    3.6754    6.0853    1.7441 F   0  0  0  0  0  0  0  0  0  0  0  0
    4.5209    3.4523    1.0297 C   0  0  0  0  0  0  0  0  0  0  0  0
    5.0166    2.6454    0.0522 N   0  0  0  0  0  0  0  0  0  0  0  0
    4.3034    1.5383   -0.2209 C   0  0  0  0  0  0  0  0  0  0  0  0
    4.8723    0.7933   -1.2040 O   0  0  0  0  0  0  0  0  0  0  0  0
    3.9614   -0.9540   -0.7751 H   0  0  0  0  0  0  0  0  0  0  0  0
    1.6292   -2.1537   -1.4785 H   0  0  0  0  0  0  0  0  0  0  0  0
    1.7617   -2.6447    0.2118 H   0  0  0  0  0  0  0  0  0  0  0  0
    4.0123   -3.6748   -0.2572 H   0  0  0  0  0  0  0  0  0  0  0  0
    3.8952   -3.1760   -1.9332 H   0  0  0  0  0  0  0  0  0  0  0  0
    2.0796   -4.5619   -3.5932 H   0  0  0  0  0  0  0  0  0  0  0  0
    1.0209   -6.8330   -3.3018 H   0  0  0  0  0  0  0  0  0  0  0  0
    0.9739   -9.1663    0.8198 H   0  0  0  0  0  0  0  0  0  0  0  0
    2.9666   -5.4345    1.5026 H   0  0  0  0  0  0  0  0  0  0  0  0
    1.6966    1.8155    1.8735 H   0  0  0  0  0  0  0  0  0  0  0  0
    1.9950    2.5353    4.0386 H   0  0  0  0  0  0  0  0  0  0  0  0
    1.0883    4.0176    5.7582 H   0  0  0  0  0  0  0  0  0  0  0  0
    1.4160    6.4738    5.6076 H   0  0  0  0  0  0  0  0  0  0  0  0
    2.6781    7.4268    3.6826 H   0  0  0  0  0  0  0  0  0  0  0  0
    5.1431    4.3219    1.2333 H   0  0  0  0  0  0  0  0  0  0  0  0
    5.6121    1.3847   -1.4434 H   0  0  0  0  0  0  0  0  0  0  0  0
  1  2  2  0  0  0  0
  2  3  1  0  0  0  0
  2 16  1  0  0  0  0
  3  4  1  0  0  0  0
  3 30  1  0  0  0  0
  4  5  1  0  0  0  0
  4 31  1  0  0  0  0
  4 32  1  0  0  0  0
  5  6  1  0  0  0  0
  5 33  1  0  0  0  0
  5 34  1  0  0  0  0
  6  7  2  0  0  0  0
  6 15  1  0  0  0  0
  7  8  1  0  0  0  0
  7 35  1  0  0  0  0
  8  9  1  0  0  0  0
  8 36  1  0  0  0  0
  9 10  2  0  0  0  0
  9 15  1  0  0  0  0
 10 11  1  0  0  0  0
 11 12  2  0  0  0  0
 11 37  1  0  0  0  0
 12 13  1  0  0  0  0
 12 14  1  0  0  0  0
 14 15  2  0  0  0  0
 14 38  1  0  0  0  0
 16 17  2  0  0  0  0
 16 28  1  0  0  0  0
 17 18  1  0  0  0  0
 17 39  1  0  0  0  0
 18 19  1  0  0  0  0
 18 26  2  0  0  0  0
 19 20  2  0  0  0  0
 19 24  1  0  0  0  0
 20 21  1  0  0  0  0
 20 40  1  0  0  0  0
 21 22  2  0  0  0  0
 21 41  1  0  0  0  0
 22 23  1  0  0  0  0
 22 42  1  0  0  0  0
 23 24  2  0  0  0  0
 23 43  1  0  0  0  0
 24 25  1  0  0  0  0
 26 27  1  0  0  0  0
 26 44  1  0  0  0  0
 27 28  2  0  0  0  0
 28 29  1  0  0  0  0
 29 45  1  0  0  0  0
M  END
$$$$
