
 OpenBabel01122422513D

 51 54  0  0  0  0  0  0  0  0999 V2000
    1.2505   -0.6620    0.3227 C   0  0  0  0  0  0  0  0  0  0  0  0
    2.6770   -0.6468    0.2125 O   0  0  0  0  0  0  0  0  0  0  0  0
    3.1713   -1.0260   -0.9965 C   0  0  0  0  0  0  0  0  0  0  0  0
    2.5059   -1.3726   -1.9593 O   0  0  0  0  0  0  0  0  0  0  0  0
    4.6669   -0.9586   -1.0030 C   0  0  0  0  0  0  0  0  0  0  0  0
    5.3775   -0.6045    0.1479 C   0  0  0  0  0  0  0  0  0  0  0  0
    6.7877   -0.5420    0.1651 C   0  0  0  0  0  0  0  0  0  0  0  0
    7.4764   -0.2381    1.4659 C   0  0  0  0  0  0  0  0  0  0  0  0
    7.4906   -0.8289   -1.0330 C   0  0  0  0  0  0  0  0  0  0  0  0
    8.8761   -0.8479   -1.3952 C   0  0  0  0  0  0  0  0  0  0  0  0
    8.9996   -1.4191   -2.6499 C   0  0  0  0  0  0  0  0  0  0  0  0
   10.1561   -1.8595   -3.4257 C   0  0  0  0  0  0  0  0  0  0  0  0
   10.0335   -2.1924   -4.5979 O   0  0  0  0  0  0  0  0  0  0  0  0
   11.2981   -2.0081   -2.6592 N   0  0  0  0  0  0  0  0  0  0  0  0
   12.5050   -1.9134   -3.1720 C   0  0  0  0  0  0  0  0  0  0  0  0
   12.7668   -1.4448   -4.6011 C   0  0  0  0  0  0  0  0  0  0  0  0
   14.0311   -1.3215   -5.0386 C   0  0  0  0  0  0  0  0  0  0  0  0
   15.1573   -1.6314   -4.1989 C   0  0  0  0  0  0  0  0  0  0  0  0
   14.9354   -2.0600   -2.9526 C   0  0  0  0  0  0  0  0  0  0  0  0
   13.6637   -2.2186   -2.3950 N   0  0  0  0  0  0  0  0  0  0  0  0
   13.5591   -2.7234   -1.0172 C   0  0  0  0  0  0  0  0  0  0  0  0
   13.6756   -4.2353   -0.9347 C   0  0  0  0  0  0  0  0  0  0  0  0
   14.9232   -4.8829   -0.8706 C   0  0  0  0  0  0  0  0  0  0  0  0
   15.0033   -6.2770   -0.7844 C   0  0  0  0  0  0  0  0  0  0  0  0
   13.8393   -7.0408   -0.7540 C   0  0  0  0  0  0  0  0  0  0  0  0
   12.5972   -6.4124   -0.8148 C   0  0  0  0  0  0  0  0  0  0  0  0
   12.5158   -5.0207   -0.9085 C   0  0  0  0  0  0  0  0  0  0  0  0
    7.7088   -1.5481   -3.1296 N   0  0  0  0  0  0  0  0  0  0  0  0
    6.7723   -1.2295   -2.1593 C   0  0  0  0  0  0  0  0  0  0  0  0
    5.3636   -1.2905   -2.1797 C   0  0  0  0  0  0  0  0  0  0  0  0
    0.9823   -0.2273    1.2912 H   0  0  0  0  0  0  0  0  0  0  0  0
    0.8774   -1.6903    0.2929 H   0  0  0  0  0  0  0  0  0  0  0  0
    0.7884   -0.0557   -0.4627 H   0  0  0  0  0  0  0  0  0  0  0  0
    4.8374   -0.3891    1.0691 H   0  0  0  0  0  0  0  0  0  0  0  0
    6.7637   -0.2090    2.2976 H   0  0  0  0  0  0  0  0  0  0  0  0
    7.9856    0.7275    1.4142 H   0  0  0  0  0  0  0  0  0  0  0  0
    8.2028   -1.0261    1.6890 H   0  0  0  0  0  0  0  0  0  0  0  0
    9.7036   -0.5483   -0.7659 H   0  0  0  0  0  0  0  0  0  0  0  0
   11.9472   -1.1955   -5.2573 H   0  0  0  0  0  0  0  0  0  0  0  0
   14.2370   -0.9846   -6.0497 H   0  0  0  0  0  0  0  0  0  0  0  0
   16.1627   -1.5195   -4.5909 H   0  0  0  0  0  0  0  0  0  0  0  0
   15.7654   -2.3120   -2.2998 H   0  0  0  0  0  0  0  0  0  0  0  0
   12.6360   -2.3864   -0.5322 H   0  0  0  0  0  0  0  0  0  0  0  0
   14.3626   -2.2860   -0.4066 H   0  0  0  0  0  0  0  0  0  0  0  0
   15.8479   -4.3114   -0.8851 H   0  0  0  0  0  0  0  0  0  0  0  0
   15.9727   -6.7684   -0.7427 H   0  0  0  0  0  0  0  0  0  0  0  0
   13.8985   -8.1242   -0.6872 H   0  0  0  0  0  0  0  0  0  0  0  0
   11.6866   -7.0052   -0.7910 H   0  0  0  0  0  0  0  0  0  0  0  0
   11.5380   -4.5463   -0.9595 H   0  0  0  0  0  0  0  0  0  0  0  0
    7.4821   -1.9139   -4.0457 H   0  0  0  0  0  0  0  0  0  0  0  0
    4.8247   -1.5983   -3.0719 H   0  0  0  0  0  0  0  0  0  0  0  0
  1  2  1  0  0  0  0
  1 31  1  0  0  0  0
  1 32  1  0  0  0  0
  1 33  1  0  0  0  0
  2  3  1  0  0  0  0
  3  4  2  0  0  0  0
  3  5  1  0  0  0  0
  5  6  2  0  0  0  0
  5 30  1  0  0  0  0
  6  7  1  0  0  0  0
  6 34  1  0  0  0  0
  7  8  1  0  0  0  0
  7  9  2  0  0  0  0
  8 35  1  0  0  0  0
  8 36  1  0  0  0  0
  8 37  1  0  0  0  0
  9 10  1  0  0  0  0
  9 29  1  0  0  0  0
 10 11  2  0  0  0  0
 10 38  1  0  0  0  0
 11 12  1  0  0  0  0
 11 28  1  0  0  0  0
 12 13  2  0  0  0  0
 12 14  1  0  0  0  0
 14 15  2  3  0  0  0
 15 16  1  0  0  0  0
 15 20  1  0  0  0  0
 16 17  2  0  0  0  0
 16 39  1  0  0  0  0
 17 18  1  0  0  0  0
 17 40  1  0  0  0  0
 18 19  2  0  0  0  0
 18 41  1  0  0  0  0
 19 20  1  0  0  0  0
 19 42  1  0  0  0  0
 20 21  1  0  0  0  0
 21 22  1  0  0  0  0
 21 43  1  0  0  0  0
 21 44  1  0  0  0  0
 22 23  2  0  0  0  0
 22 27  1  0  0  0  0
 23 24  1  0  0  0  0
 23 45  1  0  0  0  0
 24 25  2  0  0  0  0
 24 46  1  0  0  0  0
 25 26  1  0  0  0  0
 25 47  1  0  0  0  0
 26 27  2  0  0  0  0
 26 48  1  0  0  0  0
 27 49  1  0  0  0  0
 28 29  1  0  0  0  0
 28 50  1  0  0  0  0
 29 30  2  0  0  0  0
 30 51  1  0  0  0  0
M  END
$$$$
