
 OpenBabel01122422513D

 46 49  0  0  1  0  0  0  0  0999 V2000
    1.0185    0.0071   -0.0702 C   0  0  0  0  0  0  0  0  0  0  0  0
    2.5503    0.0013   -0.1216 C   0  0  3  0  0  0  0  0  0  0  0  0
    3.0284   -0.8705   -1.1782 N   0  0  0  0  0  0  0  0  0  0  0  0
    3.2592   -2.2158   -0.9710 C   0  0  0  0  0  0  0  0  0  0  0  0
    3.1197   -2.7733    0.1106 O   0  0  0  0  0  0  0  0  0  0  0  0
    3.7147   -2.9777   -2.1818 C   0  0  0  0  0  0  0  0  0  0  0  0
    4.0074   -4.3264   -2.0682 C   0  0  0  0  0  0  0  0  0  0  0  0
    4.4815   -4.9755   -3.2055 C   0  0  0  0  0  0  0  0  0  0  0  0
    4.6472   -4.3061   -4.4163 C   0  0  0  0  0  0  0  0  0  0  0  0
    4.3055   -2.9588   -4.4214 C   0  0  0  0  0  0  0  0  0  0  0  0
    3.8417   -2.2706   -3.3398 N   0  0  0  0  0  0  0  0  0  0  0  0
    5.1378   -4.9330   -5.5772 N   0  0  0  0  0  0  0  0  0  0  0  0
    5.4484   -6.1834   -5.4867 C   0  0  0  0  0  0  0  0  0  0  0  0
    5.3249   -6.9217   -4.3427 N   0  0  0  0  0  0  0  0  0  0  0  0
    4.8442   -6.4025   -3.1696 C   0  0  0  0  0  0  0  0  0  0  0  0
    4.7280   -7.0776   -2.1558 O   0  0  0  0  0  0  0  0  0  0  0  0
    3.1115    1.4040   -0.2695 C   0  0  0  0  0  0  0  0  0  0  0  0
    3.9327    1.9400    0.7305 C   0  0  0  0  0  0  0  0  0  0  0  0
    4.3469    3.2774    0.6830 C   0  0  0  0  0  0  0  0  0  0  0  0
    3.9660    4.1376   -0.3652 C   0  0  0  0  0  0  0  0  0  0  0  0
    4.2774    5.5871   -0.2984 C   0  0  0  0  0  0  0  0  0  0  0  0
    5.4331    6.0656    0.3488 C   0  0  0  0  0  0  0  0  0  0  0  0
    5.6505    7.4334    0.5492 C   0  0  0  0  0  0  0  0  0  0  0  0
    4.7276    8.3610    0.0797 C   0  0  0  0  0  0  0  0  0  0  0  0
    3.5997    7.9226   -0.6046 C   0  0  0  0  0  0  0  0  0  0  0  0
    3.3784    6.5533   -0.7883 C   0  0  0  0  0  0  0  0  0  0  0  0
    3.2150    3.5557   -1.3995 C   0  0  0  0  0  0  0  0  0  0  0  0
    2.8436    4.2812   -2.4673 F   0  0  0  0  0  0  0  0  0  0  0  0
    2.7963    2.2225   -1.3609 C   0  0  0  0  0  0  0  0  0  0  0  0
    0.6251   -1.0116    0.0163 H   0  0  0  0  0  0  0  0  0  0  0  0
    0.5800    0.4467   -0.9731 H   0  0  0  0  0  0  0  0  0  0  0  0
    0.6560    0.5823    0.7894 H   0  0  0  0  0  0  0  0  0  0  0  0
    2.8983   -0.4133    0.8327 H   0  0  0  0  0  0  0  0  0  0  0  0
    3.0682   -0.5432   -2.1376 H   0  0  0  0  0  0  0  0  0  0  0  0
    3.8849   -4.8533   -1.1271 H   0  0  0  0  0  0  0  0  0  0  0  0
    4.4066   -2.3741   -5.3324 H   0  0  0  0  0  0  0  0  0  0  0  0
    5.8461   -6.7481   -6.3441 H   0  0  0  0  0  0  0  0  0  0  0  0
    5.5814   -7.8994   -4.3286 H   0  0  0  0  0  0  0  0  0  0  0  0
    4.2308    1.3354    1.5851 H   0  0  0  0  0  0  0  0  0  0  0  0
    4.9355    3.6526    1.5174 H   0  0  0  0  0  0  0  0  0  0  0  0
    6.1818    5.3743    0.7298 H   0  0  0  0  0  0  0  0  0  0  0  0
    6.5347    7.7682    1.0854 H   0  0  0  0  0  0  0  0  0  0  0  0
    4.8848    9.4226    0.2491 H   0  0  0  0  0  0  0  0  0  0  0  0
    2.8753    8.6406   -0.9799 H   0  0  0  0  0  0  0  0  0  0  0  0
    2.4644    6.2524   -1.2960 H   0  0  0  0  0  0  0  0  0  0  0  0
    2.1882    1.8495   -2.1827 H   0  0  0  0  0  0  0  0  0  0  0  0
  1  2  1  0  0  0  0
  1 30  1  0  0  0  0
  1 31  1  0  0  0  0
  1 32  1  0  0  0  0
  2  3  1  0  0  0  0
  2 17  1  0  0  0  0
  2 33  1  0  0  0  0
  3  4  1  0  0  0  0
  3 34  1  0  0  0  0
  4  5  2  0  0  0  0
  4  6  1  0  0  0  0
  6  7  2  0  0  0  0
  6 11  1  0  0  0  0
  7  8  1  0  0  0  0
  7 35  1  0  0  0  0
  8  9  2  0  0  0  0
  8 15  1  0  0  0  0
  9 10  1  0  0  0  0
  9 12  1  0  0  0  0
 10 11  2  0  0  0  0
 10 36  1  0  0  0  0
 12 13  2  0  0  0  0
 13 14  1  0  0  0  0
 13 37  1  0  0  0  0
 14 15  1  0  0  0  0
 14 38  1  0  0  0  0
 15 16  2  0  0  0  0
 17 18  2  0  0  0  0
 17 29  1  0  0  0  0
 18 19  1  0  0  0  0
 18 39  1  0  0  0  0
 19 20  2  0  0  0  0
 19 40  1  0  0  0  0
 20 21  1  0  0  0  0
 20 27  1  0  0  0  0
 21 22  2  0  0  0  0
 21 26  1  0  0  0  0
 22 23  1  0  0  0  0
 22 41  1  0  0  0  0
 23 24  2  0  0  0  0
 23 42  1  0  0  0  0
 24 25  1  0  0  0  0
 24 43  1  0  0  0  0
 25 26  2  0  0  0  0
 25 44  1  0  0  0  0
 26 45  1  0  0  0  0
 27 28  1  0  0  0  0
 27 29  2  0  0  0  0
 29 46  1  0  0  0  0
M  END
$$$$
