
 OpenBabel01122422513D

 49 52  0  0  1  0  0  0  0  0999 V2000
    7.9541   -3.6958   -0.4915 C   0  0  0  0  0  0  0  0  0  0  0  0
    7.0646   -2.4797   -0.5030 C   0  0  0  0  0  0  0  0  0  0  0  0
    7.6018   -1.2500   -0.5493 C   0  0  0  0  0  0  0  0  0  0  0  0
    6.7572   -0.0650   -0.5193 C   0  0  0  0  0  0  0  0  0  0  0  0
    7.3937    1.1359   -0.5092 N   0  0  0  0  0  0  0  0  0  0  0  0
    6.5949    2.2403   -0.4266 C   0  0  0  0  0  0  0  0  0  0  0  0
    7.2786    3.5770   -0.3716 C   0  0  0  0  0  0  0  0  0  0  0  0
    6.6355    4.6115   -0.2257 O   0  0  0  0  0  0  0  0  0  0  0  0
    8.6455    3.5393   -0.4903 N   0  0  0  0  0  0  0  0  0  0  0  0
    9.4893    4.7213   -0.4371 C   0  0  3  0  0  0  0  0  0  0  0  0
   10.3909    4.6547    0.7928 C   0  0  0  0  0  0  0  0  0  0  0  0
   11.3512    3.6364    0.9263 C   0  0  0  0  0  0  0  0  0  0  0  0
   12.1692    3.5854    2.0482 C   0  0  0  0  0  0  0  0  0  0  0  0
   13.0789    2.6082    2.1567 F   0  0  0  0  0  0  0  0  0  0  0  0
   12.0578    4.5325    3.0569 C   0  0  0  0  0  0  0  0  0  0  0  0
   11.1155    5.5535    2.9387 C   0  0  0  0  0  0  0  0  0  0  0  0
   10.2862    5.6155    1.8134 C   0  0  0  0  0  0  0  0  0  0  0  0
   10.3144    4.8924   -1.7167 C   0  0  0  0  0  0  0  0  0  0  0  0
   10.6363    6.1776   -2.1598 C   0  0  0  0  0  0  0  0  0  0  0  0
   11.5147    6.3226   -3.2301 C   0  0  0  0  0  0  0  0  0  0  0  0
   12.0494    5.1898   -3.8297 C   0  0  0  0  0  0  0  0  0  0  0  0
   11.6682    3.9498   -3.3464 C   0  0  0  0  0  0  0  0  0  0  0  0
   10.8174    3.7733   -2.3123 N   0  0  0  0  0  0  0  0  0  0  0  0
    5.2050    2.1862   -0.3620 C   0  0  0  0  0  0  0  0  0  0  0  0
    4.5870    0.9388   -0.3908 C   0  0  0  0  0  0  0  0  0  0  0  0
    5.3798   -0.2070   -0.4660 C   0  0  0  0  0  0  0  0  0  0  0  0
    4.7871   -1.5601   -0.4646 C   0  0  0  0  0  0  0  0  0  0  0  0
    3.5623   -1.6667   -0.4581 O   0  0  0  0  0  0  0  0  0  0  0  0
    5.6763   -2.6478   -0.4572 N   0  0  0  0  0  0  0  0  0  0  0  0
    5.0974   -3.9859   -0.3910 C   0  0  0  0  0  0  0  0  0  0  0  0
    9.0150   -3.4263   -0.5479 H   0  0  0  0  0  0  0  0  0  0  0  0
    7.7415   -4.3455   -1.3471 H   0  0  0  0  0  0  0  0  0  0  0  0
    7.8161   -4.2671    0.4317 H   0  0  0  0  0  0  0  0  0  0  0  0
    8.6753   -1.0849   -0.5849 H   0  0  0  0  0  0  0  0  0  0  0  0
    9.0864    2.6461   -0.6861 H   0  0  0  0  0  0  0  0  0  0  0  0
    8.8339    5.5964   -0.3494 H   0  0  0  0  0  0  0  0  0  0  0  0
   11.4770    2.8821    0.1548 H   0  0  0  0  0  0  0  0  0  0  0  0
   12.7038    4.4682    3.9265 H   0  0  0  0  0  0  0  0  0  0  0  0
   11.0247    6.3002    3.7235 H   0  0  0  0  0  0  0  0  0  0  0  0
    9.5547    6.4183    1.7414 H   0  0  0  0  0  0  0  0  0  0  0  0
   10.2336    7.0556   -1.6655 H   0  0  0  0  0  0  0  0  0  0  0  0
   11.7934    7.3124   -3.5801 H   0  0  0  0  0  0  0  0  0  0  0  0
   12.7531    5.2705   -4.6509 H   0  0  0  0  0  0  0  0  0  0  0  0
   12.0604    3.0361   -3.7834 H   0  0  0  0  0  0  0  0  0  0  0  0
    4.6158    3.0942   -0.2830 H   0  0  0  0  0  0  0  0  0  0  0  0
    3.5032    0.8606   -0.3375 H   0  0  0  0  0  0  0  0  0  0  0  0
    4.0037   -3.9617   -0.3585 H   0  0  0  0  0  0  0  0  0  0  0  0
    5.4471   -4.4863    0.5181 H   0  0  0  0  0  0  0  0  0  0  0  0
    5.3957   -4.5585   -1.2745 H   0  0  0  0  0  0  0  0  0  0  0  0
  1  2  1  0  0  0  0
  1 31  1  0  0  0  0
  1 32  1  0  0  0  0
  1 33  1  0  0  0  0
  2  3  2  0  0  0  0
  2 29  1  0  0  0  0
  3  4  1  0  0  0  0
  3 34  1  0  0  0  0
  4  5  2  0  0  0  0
  4 26  1  0  0  0  0
  5  6  1  0  0  0  0
  6  7  1  0  0  0  0
  6 24  2  0  0  0  0
  7  8  2  0  0  0  0
  7  9  1  0  0  0  0
  9 10  1  0  0  0  0
  9 35  1  0  0  0  0
 10 11  1  0  0  0  0
 10 18  1  0  0  0  0
 10 36  1  0  0  0  0
 11 12  2  0  0  0  0
 11 17  1  0  0  0  0
 12 13  1  0  0  0  0
 12 37  1  0  0  0  0
 13 14  1  0  0  0  0
 13 15  2  0  0  0  0
 15 16  1  0  0  0  0
 15 38  1  0  0  0  0
 16 17  2  0  0  0  0
 16 39  1  0  0  0  0
 17 40  1  0  0  0  0
 18 19  2  0  0  0  0
 18 23  1  0  0  0  0
 19 20  1  0  0  0  0
 19 41  1  0  0  0  0
 20 21  2  0  0  0  0
 20 42  1  0  0  0  0
 21 22  1  0  0  0  0
 21 43  1  0  0  0  0
 22 23  2  0  0  0  0
 22 44  1  0  0  0  0
 24 25  1  0  0  0  0
 24 45  1  0  0  0  0
 25 26  2  0  0  0  0
 25 46  1  0  0  0  0
 26 27  1  0  0  0  0
 27 28  2  0  0  0  0
 27 29  1  0  0  0  0
 29 30  1  0  0  0  0
 30 47  1  0  0  0  0
 30 48  1  0  0  0  0
 30 49  1  0  0  0  0
M  END
$$$$
