
 OpenBabel01122422513D

 46 49  0  0  0  0  0  0  0  0999 V2000
    0.9650   -2.1152   -0.3448 C   0  0  0  0  0  0  0  0  0  0  0  0
    2.4593   -2.0969   -0.2415 C   0  0  0  0  0  0  0  0  0  0  0  0
    3.1774   -0.9711   -0.1003 C   0  0  0  0  0  0  0  0  0  0  0  0
    4.6655   -1.0304   -0.0096 C   0  0  0  0  0  0  0  0  0  0  0  0
    5.3341    0.0676    0.1661 N   0  0  0  0  0  0  0  0  0  0  0  0
    6.6971   -0.0379    0.2615 C   0  0  0  0  0  0  0  0  0  0  0  0
    7.4040   -1.1710    0.1444 C   0  0  0  0  0  0  0  0  0  0  0  0
    8.8883   -1.1127    0.2789 C   0  0  0  0  0  0  0  0  0  0  0  0
    9.4722   -0.0580    0.5121 O   0  0  0  0  0  0  0  0  0  0  0  0
    9.5431   -2.3069    0.1202 N   0  0  0  0  0  0  0  0  0  0  0  0
   10.9767   -2.4311    0.1766 C   0  0  0  0  0  0  0  0  0  0  0  0
   11.4207   -3.3298    1.2998 C   0  0  0  0  0  0  0  0  0  0  0  0
   11.6621   -2.8097    2.5763 C   0  0  0  0  0  0  0  0  0  0  0  0
   12.1701   -3.6262    3.5973 C   0  0  0  0  0  0  0  0  0  0  0  0
   12.4470   -4.9888    3.3794 C   0  0  0  0  0  0  0  0  0  0  0  0
   13.0458   -5.8257    4.4382 C   0  0  0  0  0  0  0  0  0  0  0  0
   13.9200   -6.8805    4.1654 C   0  0  0  0  0  0  0  0  0  0  0  0
   14.4103   -7.6591    5.2115 C   0  0  0  0  0  0  0  0  0  0  0  0
   14.0364   -7.3585    6.5120 C   0  0  0  0  0  0  0  0  0  0  0  0
   13.1991   -6.2757    6.7122 C   0  0  0  0  0  0  0  0  0  0  0  0
   12.7044   -5.5068    5.7145 N   0  0  0  0  0  0  0  0  0  0  0  0
   12.1264   -5.5010    2.1128 C   0  0  0  0  0  0  0  0  0  0  0  0
   12.3065   -6.8029    1.8368 F   0  0  0  0  0  0  0  0  0  0  0  0
   11.6196   -4.6970    1.0898 C   0  0  0  0  0  0  0  0  0  0  0  0
    6.6368   -2.4098   -0.1126 C   0  0  0  0  0  0  0  0  0  0  0  0
    7.2313   -3.4746   -0.3046 O   0  0  0  0  0  0  0  0  0  0  0  0
    5.2525   -2.2862   -0.1248 N   0  0  0  0  0  0  0  0  0  0  0  0
    4.4745   -3.4249   -0.2694 C   0  0  0  0  0  0  0  0  0  0  0  0
    3.1394   -3.3703   -0.3126 C   0  0  0  0  0  0  0  0  0  0  0  0
    0.5461   -1.1043   -0.3846 H   0  0  0  0  0  0  0  0  0  0  0  0
    0.5274   -2.6268    0.5193 H   0  0  0  0  0  0  0  0  0  0  0  0
    0.6483   -2.6394   -1.2531 H   0  0  0  0  0  0  0  0  0  0  0  0
    2.7271    0.0128   -0.0443 H   0  0  0  0  0  0  0  0  0  0  0  0
    7.2075    0.9056    0.4522 H   0  0  0  0  0  0  0  0  0  0  0  0
    8.9984   -3.1428   -0.0895 H   0  0  0  0  0  0  0  0  0  0  0  0
   11.4545   -1.4503    0.2720 H   0  0  0  0  0  0  0  0  0  0  0  0
   11.3032   -2.8470   -0.7837 H   0  0  0  0  0  0  0  0  0  0  0  0
   11.4782   -1.7551    2.7808 H   0  0  0  0  0  0  0  0  0  0  0  0
   12.3700   -3.1847    4.5734 H   0  0  0  0  0  0  0  0  0  0  0  0
   14.2236   -7.1080    3.1485 H   0  0  0  0  0  0  0  0  0  0  0  0
   15.0724   -8.4949    5.0049 H   0  0  0  0  0  0  0  0  0  0  0  0
   14.3895   -7.9511    7.3478 H   0  0  0  0  0  0  0  0  0  0  0  0
   12.8873   -5.9897    7.7125 H   0  0  0  0  0  0  0  0  0  0  0  0
   11.4058   -5.1540    0.1283 H   0  0  0  0  0  0  0  0  0  0  0  0
    4.9973   -4.3762   -0.3348 H   0  0  0  0  0  0  0  0  0  0  0  0
    2.5547   -4.2805   -0.4101 H   0  0  0  0  0  0  0  0  0  0  0  0
  1  2  1  0  0  0  0
  1 30  1  0  0  0  0
  1 31  1  0  0  0  0
  1 32  1  0  0  0  0
  2  3  2  0  0  0  0
  2 29  1  0  0  0  0
  3  4  1  0  0  0  0
  3 33  1  0  0  0  0
  4  5  2  0  0  0  0
  4 27  1  0  0  0  0
  5  6  1  0  0  0  0
  6  7  2  0  0  0  0
  6 34  1  0  0  0  0
  7  8  1  0  0  0  0
  7 25  1  0  0  0  0
  8  9  2  0  0  0  0
  8 10  1  0  0  0  0
 10 11  1  0  0  0  0
 10 35  1  0  0  0  0
 11 12  1  0  0  0  0
 11 36  1  0  0  0  0
 11 37  1  0  0  0  0
 12 13  2  0  0  0  0
 12 24  1  0  0  0  0
 13 14  1  0  0  0  0
 13 38  1  0  0  0  0
 14 15  2  0  0  0  0
 14 39  1  0  0  0  0
 15 16  1  0  0  0  0
 15 22  1  0  0  0  0
 16 17  2  0  0  0  0
 16 21  1  0  0  0  0
 17 18  1  0  0  0  0
 17 40  1  0  0  0  0
 18 19  2  0  0  0  0
 18 41  1  0  0  0  0
 19 20  1  0  0  0  0
 19 42  1  0  0  0  0
 20 21  2  0  0  0  0
 20 43  1  0  0  0  0
 22 23  1  0  0  0  0
 22 24  2  0  0  0  0
 24 44  1  0  0  0  0
 25 26  2  0  0  0  0
 25 27  1  0  0  0  0
 27 28  1  0  0  0  0
 28 29  2  0  0  0  0
 28 45  1  0  0  0  0
 29 46  1  0  0  0  0
M  END
$$$$
