
 OpenBabel01122422513D

 49 52  0  0  1  0  0  0  0  0999 V2000
    2.5636   -1.8766   -1.4529 O   0  0  0  0  0  0  0  0  0  0  0  0
    2.1680   -1.4441   -0.4013 C   0  0  0  0  0  0  0  0  0  0  0  0
    0.6785   -1.2855   -0.0555 C   0  0  0  0  0  0  0  0  0  0  0  0
   -0.2103   -2.4999   -0.0311 C   0  0  0  0  0  0  0  0  0  0  0  0
    0.2107   -3.8002   -0.2445 C   0  0  0  0  0  0  0  0  0  0  0  0
   -0.6029   -4.8804   -0.1657 N   0  0  0  0  0  0  0  0  0  0  0  0
   -1.8963   -4.6922    0.1532 C   0  0  0  0  0  0  0  0  0  0  0  0
   -2.7341   -5.7867    0.3094 C   0  0  0  0  0  0  0  0  0  0  0  0
   -4.0811   -5.6393    0.6535 C   0  0  0  0  0  0  0  0  0  0  0  0
   -4.6166   -4.3696    0.8363 C   0  0  0  0  0  0  0  0  0  0  0  0
   -3.7990   -3.2526    0.6870 C   0  0  0  0  0  0  0  0  0  0  0  0
   -2.4395   -3.4104    0.3607 C   0  0  0  0  0  0  0  0  0  0  0  0
   -1.5741   -2.3163    0.2568 C   0  0  0  0  0  0  0  0  0  0  0  0
    3.0232   -0.9625    0.5750 N   0  0  0  0  0  0  0  0  0  0  0  0
    4.5109   -1.0700    0.5664 C   0  0  3  0  0  0  0  0  0  0  0  0
    5.0704    0.1057    1.4523 C   0  0  0  0  0  0  0  0  0  0  0  0
    6.1525    0.1188    2.0241 O   0  0  0  0  0  0  0  0  0  0  0  0
    4.2415    1.1863    1.5585 O   0  0  0  0  0  0  0  0  0  0  0  0
    4.9550   -2.4593    1.0384 C   0  0  0  0  0  0  0  0  0  0  0  0
    5.1575   -2.7751    2.3882 C   0  0  0  0  0  0  0  0  0  0  0  0
    5.3884   -4.0884    2.8026 C   0  0  0  0  0  0  0  0  0  0  0  0
    5.3950   -5.1217    1.8784 C   0  0  0  0  0  0  0  0  0  0  0  0
    5.1880   -4.8620    0.5171 C   0  0  0  0  0  0  0  0  0  0  0  0
    5.0622   -5.9783   -0.4380 C   0  0  0  0  0  0  0  0  0  0  0  0
    4.2673   -5.8494   -1.5831 C   0  0  0  0  0  0  0  0  0  0  0  0
    4.1483   -6.9183   -2.4506 C   0  0  0  0  0  0  0  0  0  0  0  0
    4.7550   -8.1054   -2.2572 N   0  0  0  0  0  0  0  0  0  0  0  0
    5.5061   -8.2282   -1.1436 C   0  0  0  0  0  0  0  0  0  0  0  0
    5.6833   -7.2146   -0.2170 C   0  0  0  0  0  0  0  0  0  0  0  0
    5.0141   -3.5179    0.1114 C   0  0  0  0  0  0  0  0  0  0  0  0
    0.2338   -0.5601   -0.7507 H   0  0  0  0  0  0  0  0  0  0  0  0
    0.6345   -0.8703    0.9592 H   0  0  0  0  0  0  0  0  0  0  0  0
    1.2385   -4.0416   -0.4975 H   0  0  0  0  0  0  0  0  0  0  0  0
   -2.3196   -6.7820    0.1724 H   0  0  0  0  0  0  0  0  0  0  0  0
   -4.7048   -6.5207    0.7804 H   0  0  0  0  0  0  0  0  0  0  0  0
   -5.6630   -4.2505    1.1045 H   0  0  0  0  0  0  0  0  0  0  0  0
   -4.2211   -2.2620    0.8420 H   0  0  0  0  0  0  0  0  0  0  0  0
   -1.9657   -1.3114    0.4110 H   0  0  0  0  0  0  0  0  0  0  0  0
    2.6001   -0.8430    1.4849 H   0  0  0  0  0  0  0  0  0  0  0  0
    4.8718   -0.9061   -0.4633 H   0  0  0  0  0  0  0  0  0  0  0  0
    3.3823    1.0964    1.1065 H   0  0  0  0  0  0  0  0  0  0  0  0
    5.1290   -2.0202    3.1698 H   0  0  0  0  0  0  0  0  0  0  0  0
    5.5162   -4.3103    3.8594 H   0  0  0  0  0  0  0  0  0  0  0  0
    5.5203   -6.1393    2.2361 H   0  0  0  0  0  0  0  0  0  0  0  0
    3.7394   -4.9285   -1.8019 H   0  0  0  0  0  0  0  0  0  0  0  0
    3.5453   -6.8405   -3.3500 H   0  0  0  0  0  0  0  0  0  0  0  0
    5.9746   -9.1968   -1.0064 H   0  0  0  0  0  0  0  0  0  0  0  0
    6.2997   -7.3965    0.6584 H   0  0  0  0  0  0  0  0  0  0  0  0
    4.8634   -3.3054   -0.9497 H   0  0  0  0  0  0  0  0  0  0  0  0
  1  2  2  0  0  0  0
  2  3  1  0  0  0  0
  2 14  1  0  0  0  0
  3  4  1  0  0  0  0
  3 31  1  0  0  0  0
  3 32  1  0  0  0  0
  4  5  2  0  0  0  0
  4 13  1  0  0  0  0
  5  6  1  0  0  0  0
  5 33  1  0  0  0  0
  6  7  2  0  0  0  0
  7  8  1  0  0  0  0
  7 12  1  0  0  0  0
  8  9  2  0  0  0  0
  8 34  1  0  0  0  0
  9 10  1  0  0  0  0
  9 35  1  0  0  0  0
 10 11  2  0  0  0  0
 10 36  1  0  0  0  0
 11 12  1  0  0  0  0
 11 37  1  0  0  0  0
 12 13  2  0  0  0  0
 13 38  1  0  0  0  0
 14 15  1  0  0  0  0
 14 39  1  0  0  0  0
 15 16  1  0  0  0  0
 15 19  1  0  0  0  0
 15 40  1  0  0  0  0
 16 17  2  0  0  0  0
 16 18  1  0  0  0  0
 18 41  1  0  0  0  0
 19 20  2  0  0  0  0
 19 30  1  0  0  0  0
 20 21  1  0  0  0  0
 20 42  1  0  0  0  0
 21 22  2  0  0  0  0
 21 43  1  0  0  0  0
 22 23  1  0  0  0  0
 22 44  1  0  0  0  0
 23 24  1  0  0  0  0
 23 30  2  0  0  0  0
 24 25  2  0  0  0  0
 24 29  1  0  0  0  0
 25 26  1  0  0  0  0
 25 45  1  0  0  0  0
 26 27  2  0  0  0  0
 26 46  1  0  0  0  0
 27 28  1  0  0  0  0
 28 29  2  0  0  0  0
 28 47  1  0  0  0  0
 29 48  1  0  0  0  0
 30 49  1  0  0  0  0
M  END
$$$$
