
 OpenBabel01122422513D

 49 52  0  0  1  0  0  0  0  0999 V2000
    2.4467   -1.0925   -1.1959 C   0  0  0  0  0  0  0  0  0  0  0  0
    2.3218   -0.1310   -0.0201 C   0  0  0  0  0  0  0  0  0  0  0  0
    2.8232   -0.6865    1.2444 N   0  0  0  0  0  0  0  0  0  0  0  0
    1.8888   -1.1948    2.1753 C   0  0  0  0  0  0  0  0  0  0  0  0
    0.6748   -1.1513    1.9619 O   0  0  0  0  0  0  0  0  0  0  0  0
    2.3861   -1.7961    3.4966 C   0  0  0  0  0  0  0  0  0  0  0  0
    1.5677   -1.8437    4.5523 C   0  0  0  0  0  0  0  0  0  0  0  0
    2.1146   -2.3433    5.8412 C   0  0  0  0  0  0  0  0  0  0  0  0
    1.3688   -2.3762    6.8229 O   0  0  0  0  0  0  0  0  0  0  0  0
    3.4459   -2.7365    5.8433 N   0  0  0  0  0  0  0  0  0  0  0  0
    4.0653   -3.1952    7.0045 C   0  0  0  0  0  0  0  0  0  0  0  0
    5.3443   -3.6052    7.0124 C   0  0  0  0  0  0  0  0  0  0  0  0
    6.1092   -3.5938    5.7983 C   0  0  0  0  0  0  0  0  0  0  0  0
    5.5601   -3.1375    4.6676 C   0  0  0  0  0  0  0  0  0  0  0  0
    4.1541   -2.6825    4.6672 C   0  0  0  0  0  0  0  0  0  0  0  0
    3.6581   -2.2594    3.5560 N   0  0  0  0  0  0  0  0  0  0  0  0
    4.3142   -0.6435    1.4282 C   0  0  3  0  0  0  0  0  0  0  0  0
    4.7212    0.2438    2.6573 C   0  0  0  0  0  0  0  0  0  0  0  0
    3.7875    1.0958    3.3001 C   0  0  0  0  0  0  0  0  0  0  0  0
    4.1186    1.8252    4.4506 C   0  0  0  0  0  0  0  0  0  0  0  0
    5.4102    1.7675    4.9435 C   0  0  0  0  0  0  0  0  0  0  0  0
    5.7329    2.4611    6.0439 F   0  0  0  0  0  0  0  0  0  0  0  0
    6.3747    1.0087    4.3006 C   0  0  0  0  0  0  0  0  0  0  0  0
    6.0354    0.2605    3.1611 C   0  0  0  0  0  0  0  0  0  0  0  0
    5.0028   -2.0390    1.2134 C   0  0  0  0  0  0  0  0  0  0  0  0
    4.2519   -3.2157    1.0371 C   0  0  0  0  0  0  0  0  0  0  0  0
    4.8748   -4.4630    1.0474 C   0  0  0  0  0  0  0  0  0  0  0  0
    6.2524   -4.5263    1.1458 C   0  0  0  0  0  0  0  0  0  0  0  0
    6.9473   -3.3319    1.2091 C   0  0  0  0  0  0  0  0  0  0  0  0
    6.3633   -2.1066    1.2372 N   0  0  0  0  0  0  0  0  0  0  0  0
    1.8281   -0.7489   -2.0320 H   0  0  0  0  0  0  0  0  0  0  0  0
    2.1265   -2.1043   -0.9315 H   0  0  0  0  0  0  0  0  0  0  0  0
    3.4804   -1.1456   -1.5550 H   0  0  0  0  0  0  0  0  0  0  0  0
    1.2728    0.1586    0.0899 H   0  0  0  0  0  0  0  0  0  0  0  0
    2.8728    0.7920   -0.2406 H   0  0  0  0  0  0  0  0  0  0  0  0
    0.5361   -1.5146    4.5357 H   0  0  0  0  0  0  0  0  0  0  0  0
    3.4668   -3.1922    7.9085 H   0  0  0  0  0  0  0  0  0  0  0  0
    5.8292   -3.9475    7.9190 H   0  0  0  0  0  0  0  0  0  0  0  0
    7.1340   -3.9484    5.8048 H   0  0  0  0  0  0  0  0  0  0  0  0
    6.1095   -3.0869    3.7439 H   0  0  0  0  0  0  0  0  0  0  0  0
    4.7014   -0.0582    0.5816 H   0  0  0  0  0  0  0  0  0  0  0  0
    2.7641    1.1870    2.9419 H   0  0  0  0  0  0  0  0  0  0  0  0
    3.3745    2.4300    4.9598 H   0  0  0  0  0  0  0  0  0  0  0  0
    7.3881    0.9922    4.6869 H   0  0  0  0  0  0  0  0  0  0  0  0
    6.8220   -0.3150    2.6875 H   0  0  0  0  0  0  0  0  0  0  0  0
    3.1683   -3.1976    0.9983 H   0  0  0  0  0  0  0  0  0  0  0  0
    4.2755   -5.3693    1.0190 H   0  0  0  0  0  0  0  0  0  0  0  0
    6.7662   -5.4797    1.1854 H   0  0  0  0  0  0  0  0  0  0  0  0
    8.0302   -3.3278    1.2935 H   0  0  0  0  0  0  0  0  0  0  0  0
  1  2  1  0  0  0  0
  1 31  1  0  0  0  0
  1 32  1  0  0  0  0
  1 33  1  0  0  0  0
  2  3  1  0  0  0  0
  2 34  1  0  0  0  0
  2 35  1  0  0  0  0
  3  4  1  0  0  0  0
  3 17  1  0  0  0  0
  4  5  2  0  0  0  0
  4  6  1  0  0  0  0
  6  7  2  0  0  0  0
  6 16  1  0  0  0  0
  7  8  1  0  0  0  0
  7 36  1  0  0  0  0
  8  9  2  0  0  0  0
  8 10  1  0  0  0  0
 10 11  1  0  0  0  0
 10 15  1  0  0  0  0
 11 12  2  0  0  0  0
 11 37  1  0  0  0  0
 12 13  1  0  0  0  0
 12 38  1  0  0  0  0
 13 14  2  0  0  0  0
 13 39  1  0  0  0  0
 14 15  1  0  0  0  0
 14 40  1  0  0  0  0
 15 16  2  0  0  0  0
 17 18  1  0  0  0  0
 17 25  1  0  0  0  0
 17 41  1  0  0  0  0
 18 19  2  0  0  0  0
 18 24  1  0  0  0  0
 19 20  1  0  0  0  0
 19 42  1  0  0  0  0
 20 21  2  0  0  0  0
 20 43  1  0  0  0  0
 21 22  1  0  0  0  0
 21 23  1  0  0  0  0
 23 24  2  0  0  0  0
 23 44  1  0  0  0  0
 24 45  1  0  0  0  0
 25 26  2  0  0  0  0
 25 30  1  0  0  0  0
 26 27  1  0  0  0  0
 26 46  1  0  0  0  0
 27 28  2  0  0  0  0
 27 47  1  0  0  0  0
 28 29  1  0  0  0  0
 28 48  1  0  0  0  0
 29 30  2  0  0  0  0
 29 49  1  0  0  0  0
M  END
$$$$
