
 OpenBabel01122422463D

 46 49  0  0  0  0  0  0  0  0999 V2000
   -2.3280    1.9302    1.3598 C   0  0  0  0  0  0  0  0  0  0  0  0
   -2.2289    1.6850   -0.0546 N   0  0  0  0  0  0  0  0  0  0  0  0
   -3.0617    0.8789   -0.7682 C   0  0  0  0  0  0  0  0  0  0  0  0
   -2.7773    0.9752   -2.0429 N   0  0  0  0  0  0  0  0  0  0  0  0
   -1.7042    1.8288   -2.1613 N   0  0  0  0  0  0  0  0  0  0  0  0
   -1.3184    2.2050   -0.9512 C   0  0  0  0  0  0  0  0  0  0  0  0
   -0.1551    3.0349   -0.6086 C   0  0  0  0  0  0  0  0  0  0  0  0
   -0.3905    3.8613    0.4579 N   0  0  0  0  0  0  0  0  0  0  0  0
    0.6032    4.6737    0.8685 C   0  0  0  0  0  0  0  0  0  0  0  0
    1.8486    4.7121    0.2772 C   0  0  0  0  0  0  0  0  0  0  0  0
    2.0878    3.8702   -0.8059 C   0  0  0  0  0  0  0  0  0  0  0  0
    1.0751    3.0205   -1.2804 C   0  0  0  0  0  0  0  0  0  0  0  0
    1.3583    2.0674   -2.3886 C   0  0  0  0  0  0  0  0  0  0  0  0
    0.8912    0.9339   -2.3333 O   0  0  0  0  0  0  0  0  0  0  0  0
    2.2609    2.4774   -3.3697 N   0  0  0  0  0  0  0  0  0  0  0  0
    2.5536    1.6214   -4.4488 C   0  0  0  0  0  0  0  0  0  0  0  0
    1.5264    1.1549   -5.2719 C   0  0  0  0  0  0  0  0  0  0  0  0
    1.8072    0.2520   -6.2983 C   0  0  0  0  0  0  0  0  0  0  0  0
    3.1211   -0.1719   -6.5122 C   0  0  0  0  0  0  0  0  0  0  0  0
    3.4950   -1.0945   -7.4640 O   0  0  0  0  0  0  0  0  0  0  0  0
    2.8369   -1.1444   -8.6799 C   0  0  0  0  0  0  0  0  0  0  0  0
    2.3642   -0.0007   -9.3256 C   0  0  0  0  0  0  0  0  0  0  0  0
    1.7028   -0.1138  -10.5490 C   0  0  0  0  0  0  0  0  0  0  0  0
    1.5603   -1.3559  -11.1575 C   0  0  0  0  0  0  0  0  0  0  0  0
    2.0847   -2.4920  -10.5517 C   0  0  0  0  0  0  0  0  0  0  0  0
    2.7255   -2.3936   -9.3063 C   0  0  0  0  0  0  0  0  0  0  0  0
    3.2700   -3.5771   -8.7117 C   0  0  0  0  0  0  0  0  0  0  0  0
    3.7110   -4.5575   -8.2758 N   0  0  0  0  0  0  0  0  0  0  0  0
    4.1436    0.2912   -5.6798 C   0  0  0  0  0  0  0  0  0  0  0  0
    3.8690    1.2161   -4.6691 C   0  0  0  0  0  0  0  0  0  0  0  0
   -3.1031    1.2890    1.7890 H   0  0  0  0  0  0  0  0  0  0  0  0
   -2.6140    2.9748    1.5110 H   0  0  0  0  0  0  0  0  0  0  0  0
   -1.3706    1.7082    1.8361 H   0  0  0  0  0  0  0  0  0  0  0  0
   -3.8422    0.2722   -0.3312 H   0  0  0  0  0  0  0  0  0  0  0  0
    0.3646    5.3074    1.7189 H   0  0  0  0  0  0  0  0  0  0  0  0
    2.6230    5.3671    0.6605 H   0  0  0  0  0  0  0  0  0  0  0  0
    3.0849    3.8692   -1.2323 H   0  0  0  0  0  0  0  0  0  0  0  0
    2.9929    3.1154   -3.0976 H   0  0  0  0  0  0  0  0  0  0  0  0
    0.5024    1.4887   -5.1160 H   0  0  0  0  0  0  0  0  0  0  0  0
    0.9841   -0.1156   -6.9038 H   0  0  0  0  0  0  0  0  0  0  0  0
    2.4892    0.9799   -8.8837 H   0  0  0  0  0  0  0  0  0  0  0  0
    1.2964    0.7779  -11.0239 H   0  0  0  0  0  0  0  0  0  0  0  0
    1.0483   -1.4393  -12.1127 H   0  0  0  0  0  0  0  0  0  0  0  0
    1.9970   -3.4573  -11.0451 H   0  0  0  0  0  0  0  0  0  0  0  0
    5.1538   -0.0915   -5.8025 H   0  0  0  0  0  0  0  0  0  0  0  0
    4.6705    1.5359   -4.0106 H   0  0  0  0  0  0  0  0  0  0  0  0
  1  2  1  0  0  0  0
  1 31  1  0  0  0  0
  1 32  1  0  0  0  0
  1 33  1  0  0  0  0
  2  3  1  0  0  0  0
  2  6  1  0  0  0  0
  3  4  2  0  0  0  0
  3 34  1  0  0  0  0
  4  5  1  0  0  0  0
  5  6  2  0  0  0  0
  6  7  1  0  0  0  0
  7  8  2  0  0  0  0
  7 12  1  0  0  0  0
  8  9  1  0  0  0  0
  9 10  2  0  0  0  0
  9 35  1  0  0  0  0
 10 11  1  0  0  0  0
 10 36  1  0  0  0  0
 11 12  2  0  0  0  0
 11 37  1  0  0  0  0
 12 13  1  0  0  0  0
 13 14  2  0  0  0  0
 13 15  1  0  0  0  0
 15 16  1  0  0  0  0
 15 38  1  0  0  0  0
 16 17  2  0  0  0  0
 16 30  1  0  0  0  0
 17 18  1  0  0  0  0
 17 39  1  0  0  0  0
 18 19  2  0  0  0  0
 18 40  1  0  0  0  0
 19 20  1  0  0  0  0
 19 29  1  0  0  0  0
 20 21  1  0  0  0  0
 21 22  2  0  0  0  0
 21 26  1  0  0  0  0
 22 23  1  0  0  0  0
 22 41  1  0  0  0  0
 23 24  2  0  0  0  0
 23 42  1  0  0  0  0
 24 25  1  0  0  0  0
 24 43  1  0  0  0  0
 25 26  2  0  0  0  0
 25 44  1  0  0  0  0
 26 27  1  0  0  0  0
 27 28  3  0  0  0  0
 29 30  2  0  0  0  0
 29 45  1  0  0  0  0
 30 46  1  0  0  0  0
M  END
$$$$
