
 OpenBabel01122422513D

 48 51  0  0  1  0  0  0  0  0999 V2000
    1.2076    0.5133    0.2237 C   0  0  0  0  0  0  0  0  0  0  0  0
    2.5883   -0.0937   -0.0224 C   0  0  1  0  0  0  0  0  0  0  0  0
    3.0587    0.2084   -1.3642 N   0  0  0  0  0  0  0  0  0  0  0  0
    2.7230   -0.5704   -2.4444 C   0  0  0  0  0  0  0  0  0  0  0  0
    1.9892   -1.5506   -2.3572 O   0  0  0  0  0  0  0  0  0  0  0  0
    3.2751   -0.1699   -3.7693 C   0  0  0  0  0  0  0  0  0  0  0  0
    4.4550    0.5721   -3.9051 C   0  0  0  0  0  0  0  0  0  0  0  0
    4.9331    0.9076   -5.1801 C   0  0  0  0  0  0  0  0  0  0  0  0
    4.2358    0.5055   -6.3274 C   0  0  0  0  0  0  0  0  0  0  0  0
    4.7627    0.9044   -7.6674 C   0  0  0  0  0  0  0  0  0  0  0  0
    5.9648    1.1046   -7.8091 O   0  0  0  0  0  0  0  0  0  0  0  0
    3.8496    1.0650   -8.8343 C   0  0  0  0  0  0  0  0  0  0  0  0
    2.5364    1.5334   -8.6793 C   0  0  0  0  0  0  0  0  0  0  0  0
    1.6968    1.5963   -9.7865 C   0  0  0  0  0  0  0  0  0  0  0  0
    0.3983    1.9951   -9.6688 O   0  0  0  0  0  0  0  0  0  0  0  0
    2.1544    1.2444  -11.0506 C   0  0  0  0  0  0  0  0  0  0  0  0
    3.4756    0.8292  -11.2177 C   0  0  0  0  0  0  0  0  0  0  0  0
    4.3242    0.7392  -10.1116 C   0  0  0  0  0  0  0  0  0  0  0  0
    3.0903   -0.2866   -6.1899 C   0  0  0  0  0  0  0  0  0  0  0  0
    2.6035   -0.6059   -4.9192 C   0  0  0  0  0  0  0  0  0  0  0  0
    3.5771    0.4917    0.9414 C   0  0  0  0  0  0  0  0  0  0  0  0
    4.2894    1.5908    0.7342 N   0  0  0  0  0  0  0  0  0  0  0  0
    4.9472    1.8334    1.9118 C   0  0  0  0  0  0  0  0  0  0  0  0
    4.6484    0.8730    2.8467 C   0  0  0  0  0  0  0  0  0  0  0  0
    4.9919    0.6242    4.2035 C   0  0  0  0  0  0  0  0  0  0  0  0
    4.5039   -0.4718    4.8166 C   0  0  0  0  0  0  0  0  0  0  0  0
    3.6404   -1.4123    4.1194 C   0  0  0  0  0  0  0  0  0  0  0  0
    3.3023   -1.1655    2.8420 C   0  0  0  0  0  0  0  0  0  0  0  0
    3.7959   -0.0207    2.2101 N   0  0  0  0  0  0  0  0  0  0  0  0
    0.4669    0.1200   -0.4796 H   0  0  0  0  0  0  0  0  0  0  0  0
    1.2268    1.6041    0.1081 H   0  0  0  0  0  0  0  0  0  0  0  0
    0.8596    0.2972    1.2402 H   0  0  0  0  0  0  0  0  0  0  0  0
    2.5347   -1.1826    0.0793 H   0  0  0  0  0  0  0  0  0  0  0  0
    3.5462    1.0892   -1.4711 H   0  0  0  0  0  0  0  0  0  0  0  0
    5.0346    0.8727   -3.0358 H   0  0  0  0  0  0  0  0  0  0  0  0
    5.8561    1.4789   -5.2747 H   0  0  0  0  0  0  0  0  0  0  0  0
    2.1722    1.8405   -7.7048 H   0  0  0  0  0  0  0  0  0  0  0  0
    0.2115    2.2117   -8.7402 H   0  0  0  0  0  0  0  0  0  0  0  0
    1.4851    1.3009  -11.9051 H   0  0  0  0  0  0  0  0  0  0  0  0
    3.8412    0.5705  -12.2082 H   0  0  0  0  0  0  0  0  0  0  0  0
    5.3521    0.4071  -10.2460 H   0  0  0  0  0  0  0  0  0  0  0  0
    2.5626   -0.6749   -7.0575 H   0  0  0  0  0  0  0  0  0  0  0  0
    1.6995   -1.2065   -4.8294 H   0  0  0  0  0  0  0  0  0  0  0  0
    5.5901    2.6960    2.0283 H   0  0  0  0  0  0  0  0  0  0  0  0
    5.6316    1.3224    4.7338 H   0  0  0  0  0  0  0  0  0  0  0  0
    4.7428   -0.6783    5.8559 H   0  0  0  0  0  0  0  0  0  0  0  0
    3.2849   -2.2898    4.6493 H   0  0  0  0  0  0  0  0  0  0  0  0
    2.6610   -1.8288    2.2762 H   0  0  0  0  0  0  0  0  0  0  0  0
  1  2  1  0  0  0  0
  1 30  1  0  0  0  0
  1 31  1  0  0  0  0
  1 32  1  0  0  0  0
  2  3  1  0  0  0  0
  2 21  1  0  0  0  0
  2 33  1  1  0  0  0
  3  4  1  0  0  0  0
  3 34  1  0  0  0  0
  4  5  2  0  0  0  0
  4  6  1  0  0  0  0
  6  7  2  0  0  0  0
  6 20  1  0  0  0  0
  7  8  1  0  0  0  0
  7 35  1  0  0  0  0
  8  9  2  0  0  0  0
  8 36  1  0  0  0  0
  9 10  1  0  0  0  0
  9 19  1  0  0  0  0
 10 11  2  0  0  0  0
 10 12  1  0  0  0  0
 12 13  2  0  0  0  0
 12 18  1  0  0  0  0
 13 14  1  0  0  0  0
 13 37  1  0  0  0  0
 14 15  1  0  0  0  0
 14 16  2  0  0  0  0
 15 38  1  0  0  0  0
 16 17  1  0  0  0  0
 16 39  1  0  0  0  0
 17 18  2  0  0  0  0
 17 40  1  0  0  0  0
 18 41  1  0  0  0  0
 19 20  2  0  0  0  0
 19 42  1  0  0  0  0
 20 43  1  0  0  0  0
 21 22  2  0  0  0  0
 21 29  1  0  0  0  0
 22 23  1  0  0  0  0
 23 24  2  0  0  0  0
 23 44  1  0  0  0  0
 24 25  1  0  0  0  0
 24 29  1  0  0  0  0
 25 26  2  0  0  0  0
 25 45  1  0  0  0  0
 26 27  1  0  0  0  0
 26 46  1  0  0  0  0
 27 28  2  0  0  0  0
 27 47  1  0  0  0  0
 28 29  1  0  0  0  0
 28 48  1  0  0  0  0
M  END
$$$$
