
 OpenBabel01122422513D

 54 57  0  0  0  0  0  0  0  0999 V2000
    0.9483   -0.0230   -1.1191 C   0  0  0  0  0  0  0  0  0  0  0  0
    2.3925   -0.0440   -0.9906 N   0  0  0  0  0  0  0  0  0  0  0  0
    3.1182    1.0617   -1.4008 C   0  0  0  0  0  0  0  0  0  0  0  0
    2.6227    2.0814   -1.8771 O   0  0  0  0  0  0  0  0  0  0  0  0
    4.4771    0.9902   -1.2587 N   0  0  0  0  0  0  0  0  0  0  0  0
    5.1513   -0.1253   -0.7669 C   0  0  0  0  0  0  0  0  0  0  0  0
    6.5451   -0.1283   -0.6965 C   0  0  0  0  0  0  0  0  0  0  0  0
    7.2152   -1.2732   -0.2388 C   0  0  0  0  0  0  0  0  0  0  0  0
    8.7020   -1.2432   -0.1683 C   0  0  0  0  0  0  0  0  0  0  0  0
    9.2837   -0.1768   -0.0039 O   0  0  0  0  0  0  0  0  0  0  0  0
    9.3494   -2.4471   -0.3250 N   0  0  0  0  0  0  0  0  0  0  0  0
   10.7936   -2.5029   -0.2969 C   0  0  0  0  0  0  0  0  0  0  0  0
   11.2971   -3.9065   -0.5116 C   0  0  0  0  0  0  0  0  0  0  0  0
   11.4141   -4.7881    0.5723 C   0  0  0  0  0  0  0  0  0  0  0  0
   11.9054   -6.0806    0.3850 C   0  0  0  0  0  0  0  0  0  0  0  0
   12.2841   -6.5040   -0.8882 C   0  0  0  0  0  0  0  0  0  0  0  0
   12.1631   -5.6442   -1.9893 C   0  0  0  0  0  0  0  0  0  0  0  0
   12.6254   -6.1443   -3.3148 C   0  0  0  0  0  0  0  0  0  0  0  0
   13.1035   -7.2568   -3.4724 O   0  0  0  0  0  0  0  0  0  0  0  0
   12.4748   -5.1969   -4.2699 O   0  0  0  0  0  0  0  0  0  0  0  0
   12.9938   -5.5274   -5.5653 C   0  0  0  0  0  0  0  0  0  0  0  0
   11.8819   -5.4744   -6.5806 C   0  0  0  0  0  0  0  0  0  0  0  0
   11.5937   -4.2858   -7.2655 C   0  0  0  0  0  0  0  0  0  0  0  0
   10.5663   -4.2446   -8.2099 C   0  0  0  0  0  0  0  0  0  0  0  0
    9.8129   -5.3874   -8.4727 C   0  0  0  0  0  0  0  0  0  0  0  0
   10.0841   -6.5719   -7.7900 C   0  0  0  0  0  0  0  0  0  0  0  0
   11.1109   -6.6153   -6.8451 C   0  0  0  0  0  0  0  0  0  0  0  0
   11.6530   -4.3507   -1.7974 C   0  0  0  0  0  0  0  0  0  0  0  0
    6.4837   -2.3962    0.1719 C   0  0  0  0  0  0  0  0  0  0  0  0
    5.0865   -2.3767    0.1152 C   0  0  0  0  0  0  0  0  0  0  0  0
    4.4268   -1.2380   -0.3578 C   0  0  0  0  0  0  0  0  0  0  0  0
    2.9545   -1.1909   -0.4348 C   0  0  0  0  0  0  0  0  0  0  0  0
    2.3009   -2.1443   -0.0178 O   0  0  0  0  0  0  0  0  0  0  0  0
    0.5824    0.8907   -1.5935 H   0  0  0  0  0  0  0  0  0  0  0  0
    0.5016   -0.1152   -0.1238 H   0  0  0  0  0  0  0  0  0  0  0  0
    0.6342   -0.8851   -1.7170 H   0  0  0  0  0  0  0  0  0  0  0  0
    4.9867    1.8098   -1.5649 H   0  0  0  0  0  0  0  0  0  0  0  0
    7.1189    0.7449   -0.9988 H   0  0  0  0  0  0  0  0  0  0  0  0
    8.8486   -3.2590   -0.6573 H   0  0  0  0  0  0  0  0  0  0  0  0
   11.1358   -2.1166    0.6703 H   0  0  0  0  0  0  0  0  0  0  0  0
   11.1878   -1.8262   -1.0639 H   0  0  0  0  0  0  0  0  0  0  0  0
   11.1361   -4.4658    1.5747 H   0  0  0  0  0  0  0  0  0  0  0  0
   12.0074   -6.7536    1.2335 H   0  0  0  0  0  0  0  0  0  0  0  0
   12.6858   -7.5085   -1.0180 H   0  0  0  0  0  0  0  0  0  0  0  0
   13.4942   -6.5020   -5.6072 H   0  0  0  0  0  0  0  0  0  0  0  0
   13.7581   -4.7810   -5.8112 H   0  0  0  0  0  0  0  0  0  0  0  0
   12.1726   -3.3858   -7.0713 H   0  0  0  0  0  0  0  0  0  0  0  0
   10.3546   -3.3209   -8.7421 H   0  0  0  0  0  0  0  0  0  0  0  0
    9.0142   -5.3548   -9.2090 H   0  0  0  0  0  0  0  0  0  0  0  0
    9.4967   -7.4633   -7.9948 H   0  0  0  0  0  0  0  0  0  0  0  0
   11.3129   -7.5467   -6.3193 H   0  0  0  0  0  0  0  0  0  0  0  0
   11.5489   -3.6732   -2.6426 H   0  0  0  0  0  0  0  0  0  0  0  0
    6.9793   -3.2792    0.5662 H   0  0  0  0  0  0  0  0  0  0  0  0
    4.5175   -3.2444    0.4432 H   0  0  0  0  0  0  0  0  0  0  0  0
  1  2  1  0  0  0  0
  1 34  1  0  0  0  0
  1 35  1  0  0  0  0
  1 36  1  0  0  0  0
  2  3  1  0  0  0  0
  2 32  1  0  0  0  0
  3  4  2  0  0  0  0
  3  5  1  0  0  0  0
  5  6  1  0  0  0  0
  5 37  1  0  0  0  0
  6  7  2  0  0  0  0
  6 31  1  0  0  0  0
  7  8  1  0  0  0  0
  7 38  1  0  0  0  0
  8  9  1  0  0  0  0
  8 29  2  0  0  0  0
  9 10  2  0  0  0  0
  9 11  1  0  0  0  0
 11 12  1  0  0  0  0
 11 39  1  0  0  0  0
 12 13  1  0  0  0  0
 12 40  1  0  0  0  0
 12 41  1  0  0  0  0
 13 14  2  0  0  0  0
 13 28  1  0  0  0  0
 14 15  1  0  0  0  0
 14 42  1  0  0  0  0
 15 16  2  0  0  0  0
 15 43  1  0  0  0  0
 16 17  1  0  0  0  0
 16 44  1  0  0  0  0
 17 18  1  0  0  0  0
 17 28  2  0  0  0  0
 18 19  2  0  0  0  0
 18 20  1  0  0  0  0
 20 21  1  0  0  0  0
 21 22  1  0  0  0  0
 21 45  1  0  0  0  0
 21 46  1  0  0  0  0
 22 23  2  0  0  0  0
 22 27  1  0  0  0  0
 23 24  1  0  0  0  0
 23 47  1  0  0  0  0
 24 25  2  0  0  0  0
 24 48  1  0  0  0  0
 25 26  1  0  0  0  0
 25 49  1  0  0  0  0
 26 27  2  0  0  0  0
 26 50  1  0  0  0  0
 27 51  1  0  0  0  0
 28 52  1  0  0  0  0
 29 30  1  0  0  0  0
 29 53  1  0  0  0  0
 30 31  2  0  0  0  0
 30 54  1  0  0  0  0
 31 32  1  0  0  0  0
 32 33  2  0  0  0  0
M  END
$$$$
