
 OpenBabel01122422513D

 45 48  0  0  0  0  0  0  0  0999 V2000
    2.9233   -1.1624   -1.9060 O   0  0  0  0  0  0  0  0  0  0  0  0
    2.3122   -0.2705   -1.3317 C   0  0  0  0  0  0  0  0  0  0  0  0
    0.7975   -0.1602   -1.3283 C   0  0  0  0  0  0  0  0  0  0  0  0
    0.3375    0.3248   -2.6201 N   0  0  0  0  0  0  0  0  0  0  0  0
    0.0168   -0.5517   -3.6254 C   0  0  0  0  0  0  0  0  0  0  0  0
   -0.4466   -0.2110   -4.7812 N   0  0  0  0  0  0  0  0  0  0  0  0
   -0.6292    1.1579   -5.0352 C   0  0  0  0  0  0  0  0  0  0  0  0
   -1.1693    1.5560   -6.2595 C   0  0  0  0  0  0  0  0  0  0  0  0
   -1.3620    2.9129   -6.5423 C   0  0  0  0  0  0  0  0  0  0  0  0
   -0.9958    3.8702   -5.6001 C   0  0  0  0  0  0  0  0  0  0  0  0
   -1.1784    5.1688   -5.8769 F   0  0  0  0  0  0  0  0  0  0  0  0
   -0.4586    3.5011   -4.3784 C   0  0  0  0  0  0  0  0  0  0  0  0
   -0.2862    2.1407   -4.1019 C   0  0  0  0  0  0  0  0  0  0  0  0
    0.2338    1.6975   -2.8005 C   0  0  0  0  0  0  0  0  0  0  0  0
    0.5267    2.5236   -1.9429 O   0  0  0  0  0  0  0  0  0  0  0  0
    2.8758    0.7819   -0.6889 O   0  0  0  0  0  0  0  0  0  0  0  0
    4.3074    0.8868   -0.7445 C   0  0  0  0  0  0  0  0  0  0  0  0
    4.7396    2.0114   -1.6171 C   0  0  0  0  0  0  0  0  0  0  0  0
    5.1324    1.9975   -2.9375 C   0  0  0  0  0  0  0  0  0  0  0  0
    5.3661    3.2822   -3.3289 O   0  0  0  0  0  0  0  0  0  0  0  0
    5.1025    4.0294   -2.2093 C   0  0  0  0  0  0  0  0  0  0  0  0
    5.1393    5.4839   -2.3503 C   0  0  0  0  0  0  0  0  0  0  0  0
    4.9575    6.2873   -1.2147 C   0  0  0  0  0  0  0  0  0  0  0  0
    4.8902    7.6775   -1.3201 C   0  0  0  0  0  0  0  0  0  0  0  0
    4.9943    8.2868   -2.5690 C   0  0  0  0  0  0  0  0  0  0  0  0
    5.1817    7.5125   -3.7228 C   0  0  0  0  0  0  0  0  0  0  0  0
    5.2512    8.1545   -5.0869 C   0  0  0  0  0  0  0  0  0  0  0  0
    5.0506    9.5021   -5.0665 F   0  0  0  0  0  0  0  0  0  0  0  0
    6.4557    7.9660   -5.6932 F   0  0  0  0  0  0  0  0  0  0  0  0
    4.3185    7.6542   -5.9442 F   0  0  0  0  0  0  0  0  0  0  0  0
    5.2724    6.1124   -3.5988 C   0  0  0  0  0  0  0  0  0  0  0  0
    4.7741    3.3099   -1.1525 N   0  0  0  0  0  0  0  0  0  0  0  0
    0.4640    0.4981   -0.5185 H   0  0  0  0  0  0  0  0  0  0  0  0
    0.3855   -1.1561   -1.1325 H   0  0  0  0  0  0  0  0  0  0  0  0
    0.1780   -1.6158   -3.3834 H   0  0  0  0  0  0  0  0  0  0  0  0
   -1.4521    0.8045   -6.9933 H   0  0  0  0  0  0  0  0  0  0  0  0
   -1.7906    3.2261   -7.4882 H   0  0  0  0  0  0  0  0  0  0  0  0
   -0.1834    4.2620   -3.6533 H   0  0  0  0  0  0  0  0  0  0  0  0
    4.7895   -0.0491   -1.0573 H   0  0  0  0  0  0  0  0  0  0  0  0
    4.6458    1.0798    0.2789 H   0  0  0  0  0  0  0  0  0  0  0  0
    5.2585    1.2342   -3.6914 H   0  0  0  0  0  0  0  0  0  0  0  0
    4.8431    5.8234   -0.2354 H   0  0  0  0  0  0  0  0  0  0  0  0
    4.7327    8.2807   -0.4290 H   0  0  0  0  0  0  0  0  0  0  0  0
    4.9123    9.3708   -2.6394 H   0  0  0  0  0  0  0  0  0  0  0  0
    5.4116    5.5106   -4.4971 H   0  0  0  0  0  0  0  0  0  0  0  0
  1  2  2  0  0  0  0
  2  3  1  0  0  0  0
  2 16  1  0  0  0  0
  3  4  1  0  0  0  0
  3 33  1  0  0  0  0
  3 34  1  0  0  0  0
  4  5  1  0  0  0  0
  4 14  1  0  0  0  0
  5  6  2  0  0  0  0
  5 35  1  0  0  0  0
  6  7  1  0  0  0  0
  7  8  2  0  0  0  0
  7 13  1  0  0  0  0
  8  9  1  0  0  0  0
  8 36  1  0  0  0  0
  9 10  2  0  0  0  0
  9 37  1  0  0  0  0
 10 11  1  0  0  0  0
 10 12  1  0  0  0  0
 12 13  2  0  0  0  0
 12 38  1  0  0  0  0
 13 14  1  0  0  0  0
 14 15  2  0  0  0  0
 16 17  1  0  0  0  0
 17 18  1  0  0  0  0
 17 39  1  0  0  0  0
 17 40  1  0  0  0  0
 18 19  2  0  0  0  0
 18 32  1  0  0  0  0
 19 20  1  0  0  0  0
 19 41  1  0  0  0  0
 20 21  1  0  0  0  0
 21 22  1  0  0  0  0
 21 32  2  0  0  0  0
 22 23  2  0  0  0  0
 22 31  1  0  0  0  0
 23 24  1  0  0  0  0
 23 42  1  0  0  0  0
 24 25  2  0  0  0  0
 24 43  1  0  0  0  0
 25 26  1  0  0  0  0
 25 44  1  0  0  0  0
 26 27  1  0  0  0  0
 26 31  2  0  0  0  0
 27 28  1  0  0  0  0
 27 29  1  0  0  0  0
 27 30  1  0  0  0  0
 31 45  1  0  0  0  0
M  END
$$$$
