
 OpenBabel01122422513D

 41 44  0  0  0  0  0  0  0  0999 V2000
    0.8889   -0.2613   -0.3979 O   0  0  0  0  0  0  0  0  0  0  0  0
    2.0680   -0.1256   -0.1025 C   0  0  0  0  0  0  0  0  0  0  0  0
    2.7236   -0.7875    0.9098 N   0  0  0  0  0  0  0  0  0  0  0  0
    2.1152   -1.6870    1.7723 C   0  0  0  0  0  0  0  0  0  0  0  0
    0.8689   -2.1042    1.5468 N   0  0  0  0  0  0  0  0  0  0  0  0
    0.2929   -2.9383    2.4321 C   0  0  0  0  0  0  0  0  0  0  0  0
   -1.0874   -3.3367    2.0974 C   0  0  0  0  0  0  0  0  0  0  0  0
   -1.4988   -3.4360    0.7525 C   0  0  0  0  0  0  0  0  0  0  0  0
   -2.8018   -3.8048    0.4250 C   0  0  0  0  0  0  0  0  0  0  0  0
   -3.1577   -3.9031   -0.8630 F   0  0  0  0  0  0  0  0  0  0  0  0
   -3.7369   -4.0757    1.4100 C   0  0  0  0  0  0  0  0  0  0  0  0
   -3.3494   -3.9677    2.7364 C   0  0  0  0  0  0  0  0  0  0  0  0
   -4.2411   -4.2115    3.7045 F   0  0  0  0  0  0  0  0  0  0  0  0
   -2.0483   -3.6051    3.0866 C   0  0  0  0  0  0  0  0  0  0  0  0
    0.9719   -3.3680    3.5518 C   0  0  0  0  0  0  0  0  0  0  0  0
    2.2587   -2.9005    3.6949 C   0  0  0  0  0  0  0  0  0  0  0  0
    2.8551   -2.0687    2.8194 N   0  0  0  0  0  0  0  0  0  0  0  0
    2.9002    0.8241   -0.7968 C   0  0  0  0  0  0  0  0  0  0  0  0
    4.1510    0.6110   -1.3468 C   0  0  0  0  0  0  0  0  0  0  0  0
    4.5664    1.6824   -2.0798 N   0  0  0  0  0  0  0  0  0  0  0  0
    3.5765    2.5422   -2.0068 C   0  0  0  0  0  0  0  0  0  0  0  0
    2.5339    2.0989   -1.2168 N   0  0  0  0  0  0  0  0  0  0  0  0
    1.3666    2.8543   -0.8976 C   0  0  0  0  0  0  0  0  0  0  0  0
    0.6711    2.6378    0.2985 C   0  0  0  0  0  0  0  0  0  0  0  0
   -0.4793    3.3719    0.5733 C   0  0  0  0  0  0  0  0  0  0  0  0
   -1.1348    3.1604    1.7222 F   0  0  0  0  0  0  0  0  0  0  0  0
   -0.9540    4.3266   -0.3161 C   0  0  0  0  0  0  0  0  0  0  0  0
   -0.2584    4.5639   -1.4986 C   0  0  0  0  0  0  0  0  0  0  0  0
    0.9044    3.8396   -1.7869 C   0  0  0  0  0  0  0  0  0  0  0  0
    3.6686   -0.5548    1.1600 H   0  0  0  0  0  0  0  0  0  0  0  0
   -0.8038   -3.2191   -0.0576 H   0  0  0  0  0  0  0  0  0  0  0  0
   -4.7500   -4.3565    1.1499 H   0  0  0  0  0  0  0  0  0  0  0  0
   -1.8157   -3.5104    4.1437 H   0  0  0  0  0  0  0  0  0  0  0  0
    0.5419   -4.0455    4.2764 H   0  0  0  0  0  0  0  0  0  0  0  0
    2.8654   -3.1910    4.5480 H   0  0  0  0  0  0  0  0  0  0  0  0
    4.7496   -0.2907   -1.2957 H   0  0  0  0  0  0  0  0  0  0  0  0
    3.5858    3.5219   -2.4654 H   0  0  0  0  0  0  0  0  0  0  0  0
    0.9945    1.9283    1.0516 H   0  0  0  0  0  0  0  0  0  0  0  0
   -1.8614    4.8739   -0.0820 H   0  0  0  0  0  0  0  0  0  0  0  0
   -0.6289    5.3029   -2.2053 H   0  0  0  0  0  0  0  0  0  0  0  0
    1.3945    4.0296   -2.7389 H   0  0  0  0  0  0  0  0  0  0  0  0
  1  2  2  0  0  0  0
  2  3  1  0  0  0  0
  2 18  1  0  0  0  0
  3  4  1  0  0  0  0
  3 30  1  0  0  0  0
  4  5  2  0  0  0  0
  4 17  1  0  0  0  0
  5  6  1  0  0  0  0
  6  7  1  0  0  0  0
  6 15  2  0  0  0  0
  7  8  2  0  0  0  0
  7 14  1  0  0  0  0
  8  9  1  0  0  0  0
  8 31  1  0  0  0  0
  9 10  1  0  0  0  0
  9 11  2  0  0  0  0
 11 12  1  0  0  0  0
 11 32  1  0  0  0  0
 12 13  1  0  0  0  0
 12 14  2  0  0  0  0
 14 33  1  0  0  0  0
 15 16  1  0  0  0  0
 15 34  1  0  0  0  0
 16 17  2  0  0  0  0
 16 35  1  0  0  0  0
 18 19  2  0  0  0  0
 18 22  1  0  0  0  0
 19 20  1  0  0  0  0
 19 36  1  0  0  0  0
 20 21  2  0  0  0  0
 21 22  1  0  0  0  0
 21 37  1  0  0  0  0
 22 23  1  0  0  0  0
 23 24  2  0  0  0  0
 23 29  1  0  0  0  0
 24 25  1  0  0  0  0
 24 38  1  0  0  0  0
 25 26  1  0  0  0  0
 25 27  2  0  0  0  0
 27 28  1  0  0  0  0
 27 39  1  0  0  0  0
 28 29  2  0  0  0  0
 28 40  1  0  0  0  0
 29 41  1  0  0  0  0
M  END
$$$$
