
 OpenBabel01122422513D

 40 42  0  0  0  0  0  0  0  0999 V2000
    0.9306   -0.0081    0.0716 N   0  0  0  0  0  0  0  0  0  0  0  0
    2.1916   -0.0081    0.0716 C   0  0  0  0  0  0  0  0  0  0  0  0
    3.7116   -0.0081    0.0716 C   0  0  0  0  0  0  0  0  0  0  0  0
    4.3868    1.1645    0.2250 C   0  0  0  0  0  0  0  0  0  0  0  0
    3.7481    2.4126    0.3342 N   0  0  0  0  0  0  0  0  0  0  0  0
    4.3174    3.7010    0.4212 C   0  0  0  0  0  0  0  0  0  0  0  0
    5.5242    3.9394    0.3623 O   0  0  0  0  0  0  0  0  0  0  0  0
    3.2736    4.8468    0.6627 C   0  0  0  0  0  0  0  0  0  0  0  0
    2.0017    4.3407    0.5445 F   0  0  0  0  0  0  0  0  0  0  0  0
    3.3475    5.2450    1.9743 F   0  0  0  0  0  0  0  0  0  0  0  0
    3.4686    6.0232   -0.2744 C   0  0  0  0  0  0  0  0  0  0  0  0
    3.7182    7.3244    0.1955 C   0  0  0  0  0  0  0  0  0  0  0  0
    3.8080    8.3932   -0.7047 C   0  0  0  0  0  0  0  0  0  0  0  0
    4.0231    9.6306   -0.2406 F   0  0  0  0  0  0  0  0  0  0  0  0
    3.6568    8.1940   -2.0735 C   0  0  0  0  0  0  0  0  0  0  0  0
    3.4288    6.9056   -2.5508 C   0  0  0  0  0  0  0  0  0  0  0  0
    3.3378    5.8410   -1.6516 C   0  0  0  0  0  0  0  0  0  0  0  0
    3.1013    4.6108   -2.1338 F   0  0  0  0  0  0  0  0  0  0  0  0
    5.8306    1.0842    0.3293 C   0  0  0  0  0  0  0  0  0  0  0  0
    6.4678   -0.0915    0.2749 C   0  0  0  0  0  0  0  0  0  0  0  0
    5.7915   -1.2896    0.1399 N   0  0  0  0  0  0  0  0  0  0  0  0
    6.5025   -2.5236    0.0696 C   0  0  0  0  0  0  0  0  0  0  0  0
    7.5953   -2.6537   -0.7957 C   0  0  0  0  0  0  0  0  0  0  0  0
    8.2197   -3.8913   -0.9503 C   0  0  0  0  0  0  0  0  0  0  0  0
    7.7880   -4.9905   -0.2089 C   0  0  0  0  0  0  0  0  0  0  0  0
    6.7351   -4.8557    0.6925 C   0  0  0  0  0  0  0  0  0  0  0  0
    6.0878   -3.6280    0.8248 C   0  0  0  0  0  0  0  0  0  0  0  0
    4.3929   -1.3249    0.0232 C   0  0  0  0  0  0  0  0  0  0  0  0
    3.7131   -2.3362   -0.1443 O   0  0  0  0  0  0  0  0  0  0  0  0
    2.7260    2.4244    0.3294 H   0  0  0  0  0  0  0  0  0  0  0  0
    3.8318    7.5352    1.2564 H   0  0  0  0  0  0  0  0  0  0  0  0
    3.7134    9.0420   -2.7519 H   0  0  0  0  0  0  0  0  0  0  0  0
    3.3134    6.7256   -3.6159 H   0  0  0  0  0  0  0  0  0  0  0  0
    6.4318    1.9686    0.4995 H   0  0  0  0  0  0  0  0  0  0  0  0
    7.5472   -0.1335    0.3989 H   0  0  0  0  0  0  0  0  0  0  0  0
    7.9175   -1.8195   -1.4132 H   0  0  0  0  0  0  0  0  0  0  0  0
    9.0252   -4.0038   -1.6711 H   0  0  0  0  0  0  0  0  0  0  0  0
    8.2645   -5.9578   -0.3427 H   0  0  0  0  0  0  0  0  0  0  0  0
    6.4008   -5.7069    1.2790 H   0  0  0  0  0  0  0  0  0  0  0  0
    5.2612   -3.5417    1.5266 H   0  0  0  0  0  0  0  0  0  0  0  0
  1  2  3  0  0  0  0
  2  3  1  0  0  0  0
  3  4  2  0  0  0  0
  3 28  1  0  0  0  0
  4  5  1  0  0  0  0
  4 19  1  0  0  0  0
  5  6  1  0  0  0  0
  5 30  1  0  0  0  0
  6  7  2  0  0  0  0
  6  8  1  0  0  0  0
  8  9  1  0  0  0  0
  8 10  1  0  0  0  0
  8 11  1  0  0  0  0
 11 12  2  0  0  0  0
 11 17  1  0  0  0  0
 12 13  1  0  0  0  0
 12 31  1  0  0  0  0
 13 14  1  0  0  0  0
 13 15  2  0  0  0  0
 15 16  1  0  0  0  0
 15 32  1  0  0  0  0
 16 17  2  0  0  0  0
 16 33  1  0  0  0  0
 17 18  1  0  0  0  0
 19 20  2  0  0  0  0
 19 34  1  0  0  0  0
 20 21  1  0  0  0  0
 20 35  1  0  0  0  0
 21 22  1  0  0  0  0
 21 28  1  0  0  0  0
 22 23  2  0  0  0  0
 22 27  1  0  0  0  0
 23 24  1  0  0  0  0
 23 36  1  0  0  0  0
 24 25  2  0  0  0  0
 24 37  1  0  0  0  0
 25 26  1  0  0  0  0
 25 38  1  0  0  0  0
 26 27  2  0  0  0  0
 26 39  1  0  0  0  0
 27 40  1  0  0  0  0
 28 29  2  0  0  0  0
M  END
$$$$
