
 OpenBabel01122422513D

 54 57  0  0  0  0  0  0  0  0999 V2000
    6.6229   -2.8574    9.5783 N   0  0  0  0  0  0  0  0  0  0  0  0
    6.5533   -3.7837    8.8728 C   0  0  0  0  0  0  0  0  0  0  0  0
    6.4506   -4.9340    7.9641 C   0  0  0  0  0  0  0  0  0  0  0  0
    6.2027   -4.5650    6.5698 N   0  0  0  0  0  0  0  0  0  0  0  0
    5.6089   -3.4031    6.1479 C   0  0  0  0  0  0  0  0  0  0  0  0
    6.0951   -3.1346    4.8782 C   0  0  0  0  0  0  0  0  0  0  0  0
    6.0533   -1.8463    4.1776 C   0  0  0  0  0  0  0  0  0  0  0  0
    5.8170   -1.8053    2.9708 O   0  0  0  0  0  0  0  0  0  0  0  0
    6.3214   -0.6677    4.9029 N   0  0  0  0  0  0  0  0  0  0  0  0
    6.3703    0.5938    4.1245 C   0  0  0  0  0  0  0  0  0  0  0  0
    5.0553    1.3349    3.8585 C   0  0  0  0  0  0  0  0  0  0  0  0
    3.9032    0.7521    4.2956 N   0  0  0  0  0  0  0  0  0  0  0  0
    5.0126    2.4148    3.2763 O   0  0  0  0  0  0  0  0  0  0  0  0
    6.6263   -0.6424    6.3518 C   0  0  0  0  0  0  0  0  0  0  0  0
    7.4329    0.5370    6.8200 C   0  0  0  0  0  0  0  0  0  0  0  0
    6.7895    1.6829    7.2913 C   0  0  0  0  0  0  0  0  0  0  0  0
    7.5000    2.8779    7.4101 C   0  0  0  0  0  0  0  0  0  0  0  0
    8.8717    2.9539    7.1037 C   0  0  0  0  0  0  0  0  0  0  0  0
    9.5700    4.2607    7.0327 C   0  0  0  0  0  0  0  0  0  0  0  0
    9.1939    5.3473    7.8417 C   0  0  0  0  0  0  0  0  0  0  0  0
    9.7925    6.6039    7.7028 C   0  0  0  0  0  0  0  0  0  0  0  0
   10.7978    6.7994    6.7617 C   0  0  0  0  0  0  0  0  0  0  0  0
   11.2057    5.7394    5.9608 C   0  0  0  0  0  0  0  0  0  0  0  0
   10.5938    4.4889    6.0914 C   0  0  0  0  0  0  0  0  0  0  0  0
    9.5255    1.7522    6.7772 C   0  0  0  0  0  0  0  0  0  0  0  0
    8.8174    0.5584    6.6259 C   0  0  0  0  0  0  0  0  0  0  0  0
    6.5528   -4.4070    4.3800 C   0  0  0  0  0  0  0  0  0  0  0  0
    6.9729   -4.8807    3.1187 C   0  0  0  0  0  0  0  0  0  0  0  0
    7.3438   -6.2234    2.9660 C   0  0  0  0  0  0  0  0  0  0  0  0
    7.3431   -7.0865    4.0569 C   0  0  0  0  0  0  0  0  0  0  0  0
    6.9873   -6.6347    5.3305 C   0  0  0  0  0  0  0  0  0  0  0  0
    6.5835   -5.2945    5.4658 C   0  0  0  0  0  0  0  0  0  0  0  0
    5.6381   -5.6023    8.2637 H   0  0  0  0  0  0  0  0  0  0  0  0
    7.3980   -5.4835    7.9849 H   0  0  0  0  0  0  0  0  0  0  0  0
    5.0388   -2.7899    6.8302 H   0  0  0  0  0  0  0  0  0  0  0  0
    6.8214    0.3800    3.1482 H   0  0  0  0  0  0  0  0  0  0  0  0
    7.0339    1.3195    4.5955 H   0  0  0  0  0  0  0  0  0  0  0  0
    3.8860   -0.2477    4.4309 H   0  0  0  0  0  0  0  0  0  0  0  0
    3.0547    1.1896    3.9567 H   0  0  0  0  0  0  0  0  0  0  0  0
    7.1926   -1.5390    6.6207 H   0  0  0  0  0  0  0  0  0  0  0  0
    5.6719   -0.6722    6.8900 H   0  0  0  0  0  0  0  0  0  0  0  0
    5.7170    1.6812    7.4743 H   0  0  0  0  0  0  0  0  0  0  0  0
    6.9369    3.7713    7.6695 H   0  0  0  0  0  0  0  0  0  0  0  0
    8.4150    5.2337    8.5919 H   0  0  0  0  0  0  0  0  0  0  0  0
    9.4636    7.4301    8.3273 H   0  0  0  0  0  0  0  0  0  0  0  0
   11.2575    7.7771    6.6484 H   0  0  0  0  0  0  0  0  0  0  0  0
   11.9873    5.8843    5.2197 H   0  0  0  0  0  0  0  0  0  0  0  0
   10.9114    3.6982    5.4154 H   0  0  0  0  0  0  0  0  0  0  0  0
   10.5940    1.7396    6.5760 H   0  0  0  0  0  0  0  0  0  0  0  0
    9.3404   -0.3311    6.2809 H   0  0  0  0  0  0  0  0  0  0  0  0
    6.9740   -4.2188    2.2546 H   0  0  0  0  0  0  0  0  0  0  0  0
    7.6264   -6.5945    1.9834 H   0  0  0  0  0  0  0  0  0  0  0  0
    7.6239   -8.1288    3.9159 H   0  0  0  0  0  0  0  0  0  0  0  0
    6.9993   -7.3177    6.1737 H   0  0  0  0  0  0  0  0  0  0  0  0
  1  2  3  0  0  0  0
  2  3  1  0  0  0  0
  3  4  1  0  0  0  0
  3 33  1  0  0  0  0
  3 34  1  0  0  0  0
  4  5  1  0  0  0  0
  4 32  1  0  0  0  0
  5  6  2  0  0  0  0
  5 35  1  0  0  0  0
  6  7  1  0  0  0  0
  6 27  1  0  0  0  0
  7  8  2  0  0  0  0
  7  9  1  0  0  0  0
  9 10  1  0  0  0  0
  9 14  1  0  0  0  0
 10 11  1  0  0  0  0
 10 36  1  0  0  0  0
 10 37  1  0  0  0  0
 11 12  1  0  0  0  0
 11 13  2  0  0  0  0
 12 38  1  0  0  0  0
 12 39  1  0  0  0  0
 14 15  1  0  0  0  0
 14 40  1  0  0  0  0
 14 41  1  0  0  0  0
 15 16  2  0  0  0  0
 15 26  1  0  0  0  0
 16 17  1  0  0  0  0
 16 42  1  0  0  0  0
 17 18  2  0  0  0  0
 17 43  1  0  0  0  0
 18 19  1  0  0  0  0
 18 25  1  0  0  0  0
 19 20  2  0  0  0  0
 19 24  1  0  0  0  0
 20 21  1  0  0  0  0
 20 44  1  0  0  0  0
 21 22  2  0  0  0  0
 21 45  1  0  0  0  0
 22 23  1  0  0  0  0
 22 46  1  0  0  0  0
 23 24  2  0  0  0  0
 23 47  1  0  0  0  0
 24 48  1  0  0  0  0
 25 26  2  0  0  0  0
 25 49  1  0  0  0  0
 26 50  1  0  0  0  0
 27 28  2  0  0  0  0
 27 32  1  0  0  0  0
 28 29  1  0  0  0  0
 28 51  1  0  0  0  0
 29 30  2  0  0  0  0
 29 52  1  0  0  0  0
 30 31  1  0  0  0  0
 30 53  1  0  0  0  0
 31 32  2  0  0  0  0
 31 54  1  0  0  0  0
M  END
$$$$
