
 OpenBabel01122422513D

 44 47  0  0  0  0  0  0  0  0999 V2000
    0.8762   -0.1506    0.0551 O   0  0  0  0  0  0  0  0  0  0  0  0
    2.0758   -0.3575    0.1905 C   0  0  0  0  0  0  0  0  0  0  0  0
    2.6987   -0.2760    1.4255 N   0  0  0  0  0  0  0  0  0  0  0  0
    1.9855    0.0833    2.6405 C   0  0  0  0  0  0  0  0  0  0  0  0
    1.6704   -1.1159    3.5199 C   0  0  0  0  0  0  0  0  0  0  0  0
    0.4624   -1.7942    3.3305 C   0  0  0  0  0  0  0  0  0  0  0  0
    0.1163   -2.8503    4.1779 C   0  0  0  0  0  0  0  0  0  0  0  0
    1.0211   -3.1893    5.1948 C   0  0  0  0  0  0  0  0  0  0  0  0
    1.0477   -4.1378    6.2515 C   0  0  0  0  0  0  0  0  0  0  0  0
    2.2364   -3.9649    6.9311 C   0  0  0  0  0  0  0  0  0  0  0  0
    2.9292   -2.9509    6.3177 N   0  0  0  0  0  0  0  0  0  0  0  0
    2.2035   -2.4595    5.2641 C   0  0  0  0  0  0  0  0  0  0  0  0
    2.5909   -1.4418    4.4704 N   0  0  0  0  0  0  0  0  0  0  0  0
    2.9061   -0.8174   -0.9776 C   0  0  0  0  0  0  0  0  0  0  0  0
    2.5004   -0.6440   -2.3261 C   0  0  0  0  0  0  0  0  0  0  0  0
    1.3894    0.2551   -2.7538 C   0  0  0  0  0  0  0  0  0  0  0  0
    1.3430    1.3833   -2.2717 O   0  0  0  0  0  0  0  0  0  0  0  0
    0.4915   -0.0999   -3.9041 C   0  0  0  0  0  0  0  0  0  0  0  0
   -0.0364    0.9435   -4.6796 C   0  0  0  0  0  0  0  0  0  0  0  0
   -0.7894    0.6692   -5.8255 C   0  0  0  0  0  0  0  0  0  0  0  0
   -1.0262   -0.6505   -6.2048 C   0  0  0  0  0  0  0  0  0  0  0  0
   -0.5301   -1.6957   -5.4261 C   0  0  0  0  0  0  0  0  0  0  0  0
    0.2158   -1.4246   -4.2721 C   0  0  0  0  0  0  0  0  0  0  0  0
    3.2668   -1.2135   -3.3658 C   0  0  0  0  0  0  0  0  0  0  0  0
    4.4015   -1.9564   -3.0773 C   0  0  0  0  0  0  0  0  0  0  0  0
    5.0942   -2.5154   -4.0775 F   0  0  0  0  0  0  0  0  0  0  0  0
    4.8151   -2.1107   -1.7674 C   0  0  0  0  0  0  0  0  0  0  0  0
    5.9214   -2.8113   -1.4869 F   0  0  0  0  0  0  0  0  0  0  0  0
    4.0818   -1.5546   -0.7237 C   0  0  0  0  0  0  0  0  0  0  0  0
    3.6689   -0.5069    1.5641 H   0  0  0  0  0  0  0  0  0  0  0  0
    1.0704    0.6365    2.4043 H   0  0  0  0  0  0  0  0  0  0  0  0
    2.6409    0.7630    3.1978 H   0  0  0  0  0  0  0  0  0  0  0  0
   -0.2181   -1.4902    2.5386 H   0  0  0  0  0  0  0  0  0  0  0  0
   -0.8258   -3.3755    4.0608 H   0  0  0  0  0  0  0  0  0  0  0  0
    0.2821   -4.8595    6.4998 H   0  0  0  0  0  0  0  0  0  0  0  0
    2.6520   -4.4730    7.7976 H   0  0  0  0  0  0  0  0  0  0  0  0
    3.8331   -2.5936    6.5898 H   0  0  0  0  0  0  0  0  0  0  0  0
    0.1542    1.9793   -4.4046 H   0  0  0  0  0  0  0  0  0  0  0  0
   -1.1826    1.4864   -6.4262 H   0  0  0  0  0  0  0  0  0  0  0  0
   -1.6012   -0.8633   -7.1035 H   0  0  0  0  0  0  0  0  0  0  0  0
   -0.7217   -2.7247   -5.7236 H   0  0  0  0  0  0  0  0  0  0  0  0
    0.5803   -2.2612   -3.6830 H   0  0  0  0  0  0  0  0  0  0  0  0
    3.0082   -1.0722   -4.4122 H   0  0  0  0  0  0  0  0  0  0  0  0
    4.4479   -1.7513    0.2772 H   0  0  0  0  0  0  0  0  0  0  0  0
  1  2  2  0  0  0  0
  2  3  1  0  0  0  0
  2 14  1  0  0  0  0
  3  4  1  0  0  0  0
  3 30  1  0  0  0  0
  4  5  1  0  0  0  0
  4 31  1  0  0  0  0
  4 32  1  0  0  0  0
  5  6  2  0  0  0  0
  5 13  1  0  0  0  0
  6  7  1  0  0  0  0
  6 33  1  0  0  0  0
  7  8  2  0  0  0  0
  7 34  1  0  0  0  0
  8  9  1  0  0  0  0
  8 12  1  0  0  0  0
  9 10  2  0  0  0  0
  9 35  1  0  0  0  0
 10 11  1  0  0  0  0
 10 36  1  0  0  0  0
 11 12  1  0  0  0  0
 11 37  1  0  0  0  0
 12 13  2  0  0  0  0
 14 15  2  0  0  0  0
 14 29  1  0  0  0  0
 15 16  1  0  0  0  0
 15 24  1  0  0  0  0
 16 17  2  0  0  0  0
 16 18  1  0  0  0  0
 18 19  2  0  0  0  0
 18 23  1  0  0  0  0
 19 20  1  0  0  0  0
 19 38  1  0  0  0  0
 20 21  2  0  0  0  0
 20 39  1  0  0  0  0
 21 22  1  0  0  0  0
 21 40  1  0  0  0  0
 22 23  2  0  0  0  0
 22 41  1  0  0  0  0
 23 42  1  0  0  0  0
 24 25  2  0  0  0  0
 24 43  1  0  0  0  0
 25 26  1  0  0  0  0
 25 27  1  0  0  0  0
 27 28  1  0  0  0  0
 27 29  2  0  0  0  0
 29 44  1  0  0  0  0
M  END
$$$$
