
 OpenBabel01122422513D

 54 56  0  0  0  0  0  0  0  0999 V2000
    0.8182   -0.4732    1.4298 N   0  0  0  0  0  0  0  0  0  0  0  0
    2.1015   -0.8000    1.0558 C   0  0  0  0  0  0  0  0  0  0  0  0
    2.3469   -1.9179    0.5702 O   0  0  0  0  0  0  0  0  0  0  0  0
    3.1393    0.2846    1.3124 C   0  0  0  0  0  0  0  0  0  0  0  0
    4.5812    0.1386    1.0605 N   0  0  0  0  0  0  0  0  0  0  0  0
    5.0801   -0.0921   -0.3368 C   0  0  0  0  0  0  0  0  0  0  0  0
    5.8462   -1.3846   -0.5836 C   0  0  0  0  0  0  0  0  0  0  0  0
    6.0822   -2.3017    0.4445 C   0  0  0  0  0  0  0  0  0  0  0  0
    6.5812   -3.5750    0.1751 C   0  0  0  0  0  0  0  0  0  0  0  0
    6.8708   -3.9757   -1.1335 C   0  0  0  0  0  0  0  0  0  0  0  0
    7.2725   -5.3587   -1.4458 C   0  0  0  0  0  0  0  0  0  0  0  0
    6.8303   -6.4561   -0.6868 C   0  0  0  0  0  0  0  0  0  0  0  0
    7.1987   -7.7597   -1.0181 C   0  0  0  0  0  0  0  0  0  0  0  0
    8.0167   -7.9909   -2.1228 C   0  0  0  0  0  0  0  0  0  0  0  0
    8.4637   -6.9256   -2.8911 C   0  0  0  0  0  0  0  0  0  0  0  0
    8.0976   -5.6246   -2.5524 C   0  0  0  0  0  0  0  0  0  0  0  0
    6.7302   -3.0155   -2.1530 C   0  0  0  0  0  0  0  0  0  0  0  0
    6.2440   -1.7323   -1.8815 C   0  0  0  0  0  0  0  0  0  0  0  0
    5.4929    0.5498    2.0434 C   0  0  0  0  0  0  0  0  0  0  0  0
    6.7051    0.5028    1.8694 O   0  0  0  0  0  0  0  0  0  0  0  0
    4.9081    1.0940    3.3379 C   0  0  0  0  0  0  0  0  0  0  0  0
    5.9726    1.5002    4.3272 C   0  0  0  0  0  0  0  0  0  0  0  0
    5.3601    2.0280    5.6094 C   0  0  0  0  0  0  0  0  0  0  0  0
    4.1414    2.1113    5.7680 O   0  0  0  0  0  0  0  0  0  0  0  0
    6.2681    2.4664    6.7117 C   0  0  0  0  0  0  0  0  0  0  0  0
    7.6634    2.3740    6.6165 C   0  0  0  0  0  0  0  0  0  0  0  0
    8.4727    2.8410    7.6598 C   0  0  0  0  0  0  0  0  0  0  0  0
    7.8863    3.3876    8.7973 C   0  0  0  0  0  0  0  0  0  0  0  0
    8.6676    3.8455    9.7879 F   0  0  0  0  0  0  0  0  0  0  0  0
    6.5052    3.4681    8.9024 C   0  0  0  0  0  0  0  0  0  0  0  0
    5.9388    3.9948    9.9974 F   0  0  0  0  0  0  0  0  0  0  0  0
    5.6922    3.0115    7.8694 C   0  0  0  0  0  0  0  0  0  0  0  0
    0.1354   -1.1866    1.2064 H   0  0  0  0  0  0  0  0  0  0  0  0
    0.6818   -0.0823    2.3567 H   0  0  0  0  0  0  0  0  0  0  0  0
    3.0039    0.4119    2.3809 H   0  0  0  0  0  0  0  0  0  0  0  0
    2.8186    1.2311    0.8591 H   0  0  0  0  0  0  0  0  0  0  0  0
    5.7339    0.7446   -0.6115 H   0  0  0  0  0  0  0  0  0  0  0  0
    4.2302   -0.0898   -1.0332 H   0  0  0  0  0  0  0  0  0  0  0  0
    5.8297   -2.0536    1.4673 H   0  0  0  0  0  0  0  0  0  0  0  0
    6.6846   -4.2666    1.0085 H   0  0  0  0  0  0  0  0  0  0  0  0
    6.1732   -6.3062    0.1702 H   0  0  0  0  0  0  0  0  0  0  0  0
    6.8431   -8.5936   -0.4188 H   0  0  0  0  0  0  0  0  0  0  0  0
    8.3037   -9.0041   -2.3831 H   0  0  0  0  0  0  0  0  0  0  0  0
    9.0987   -7.0936   -3.7542 H   0  0  0  0  0  0  0  0  0  0  0  0
    8.4698   -4.8087   -3.1655 H   0  0  0  0  0  0  0  0  0  0  0  0
    6.9341   -3.2834   -3.1879 H   0  0  0  0  0  0  0  0  0  0  0  0
    6.1204   -1.0445   -2.7174 H   0  0  0  0  0  0  0  0  0  0  0  0
    4.2818    0.3156    3.7950 H   0  0  0  0  0  0  0  0  0  0  0  0
    4.2753    1.9602    3.0854 H   0  0  0  0  0  0  0  0  0  0  0  0
    6.5994    2.2748    3.8703 H   0  0  0  0  0  0  0  0  0  0  0  0
    6.5846    0.6285    4.5663 H   0  0  0  0  0  0  0  0  0  0  0  0
    8.1487    1.9594    5.7356 H   0  0  0  0  0  0  0  0  0  0  0  0
    9.5540    2.7903    7.5898 H   0  0  0  0  0  0  0  0  0  0  0  0
    4.6129    3.0953    7.9700 H   0  0  0  0  0  0  0  0  0  0  0  0
  1  2  1  0  0  0  0
  1 33  1  0  0  0  0
  1 34  1  0  0  0  0
  2  3  2  0  0  0  0
  2  4  1  0  0  0  0
  4  5  1  0  0  0  0
  4 35  1  0  0  0  0
  4 36  1  0  0  0  0
  5  6  1  0  0  0  0
  5 19  1  0  0  0  0
  6  7  1  0  0  0  0
  6 37  1  0  0  0  0
  6 38  1  0  0  0  0
  7  8  2  0  0  0  0
  7 18  1  0  0  0  0
  8  9  1  0  0  0  0
  8 39  1  0  0  0  0
  9 10  2  0  0  0  0
  9 40  1  0  0  0  0
 10 11  1  0  0  0  0
 10 17  1  0  0  0  0
 11 12  2  0  0  0  0
 11 16  1  0  0  0  0
 12 13  1  0  0  0  0
 12 41  1  0  0  0  0
 13 14  2  0  0  0  0
 13 42  1  0  0  0  0
 14 15  1  0  0  0  0
 14 43  1  0  0  0  0
 15 16  2  0  0  0  0
 15 44  1  0  0  0  0
 16 45  1  0  0  0  0
 17 18  2  0  0  0  0
 17 46  1  0  0  0  0
 18 47  1  0  0  0  0
 19 20  2  0  0  0  0
 19 21  1  0  0  0  0
 21 22  1  0  0  0  0
 21 48  1  0  0  0  0
 21 49  1  0  0  0  0
 22 23  1  0  0  0  0
 22 50  1  0  0  0  0
 22 51  1  0  0  0  0
 23 24  2  0  0  0  0
 23 25  1  0  0  0  0
 25 26  2  0  0  0  0
 25 32  1  0  0  0  0
 26 27  1  0  0  0  0
 26 52  1  0  0  0  0
 27 28  2  0  0  0  0
 27 53  1  0  0  0  0
 28 29  1  0  0  0  0
 28 30  1  0  0  0  0
 30 31  1  0  0  0  0
 30 32  2  0  0  0  0
 32 54  1  0  0  0  0
M  END
$$$$
