
 OpenBabel01122422513D

 39 42  0  0  0  0  0  0  0  0999 V2000
    2.8316   -0.7928    0.4855 O   0  0  0  0  0  0  0  0  0  0  0  0
    2.1758    0.0835   -0.0744 C   0  0  0  0  0  0  0  0  0  0  0  0
    0.7197    0.1611    0.2030 C   0  0  0  0  0  0  0  0  0  0  0  0
    0.2679   -0.2329    1.4658 C   0  0  0  0  0  0  0  0  0  0  0  0
   -1.0822   -0.1144    1.7948 C   0  0  0  0  0  0  0  0  0  0  0  0
   -1.9848    0.3877    0.8578 C   0  0  0  0  0  0  0  0  0  0  0  0
   -1.5458    0.7523   -0.4151 C   0  0  0  0  0  0  0  0  0  0  0  0
   -0.1969    0.6284   -0.7518 C   0  0  0  0  0  0  0  0  0  0  0  0
    2.8469    1.0570   -0.9615 C   0  0  0  0  0  0  0  0  0  0  0  0
    2.4594    2.4137   -0.9715 C   0  0  0  0  0  0  0  0  0  0  0  0
    3.1457    3.3571   -1.7546 C   0  0  0  0  0  0  0  0  0  0  0  0
    2.8379    4.8056   -1.7360 C   0  0  0  0  0  0  0  0  0  0  0  0
    3.0341    5.5747   -2.9030 C   0  0  0  0  0  0  0  0  0  0  0  0
    3.0140    6.9658   -2.8757 C   0  0  0  0  0  0  0  0  0  0  0  0
    2.6912    7.6092   -1.6934 C   0  0  0  0  0  0  0  0  0  0  0  0
    2.6947    9.0047   -1.7220 O   0  0  0  0  0  0  0  0  0  0  0  0
    2.0999    9.7062   -0.6817 C   0  0  0  0  0  0  0  0  0  0  0  0
    1.9516   10.9219   -0.7382 O   0  0  0  0  0  0  0  0  0  0  0  0
    1.6917    8.9798    0.4048 N   0  0  0  0  0  0  0  0  0  0  0  0
    1.8474    7.6322    0.5952 C   0  0  0  0  0  0  0  0  0  0  0  0
    1.5525    7.0756    1.6439 O   0  0  0  0  0  0  0  0  0  0  0  0
    2.3544    6.8848   -0.5621 C   0  0  0  0  0  0  0  0  0  0  0  0
    2.4486    5.4853   -0.5655 C   0  0  0  0  0  0  0  0  0  0  0  0
    4.2255    2.8892   -2.5347 C   0  0  0  0  0  0  0  0  0  0  0  0
    4.6145    1.5514   -2.5287 C   0  0  0  0  0  0  0  0  0  0  0  0
    3.9309    0.6429   -1.7356 C   0  0  0  0  0  0  0  0  0  0  0  0
    4.3402   -0.6328   -1.7495 F   0  0  0  0  0  0  0  0  0  0  0  0
    0.9703   -0.6227    2.1995 H   0  0  0  0  0  0  0  0  0  0  0  0
   -1.4266   -0.4141    2.7802 H   0  0  0  0  0  0  0  0  0  0  0  0
   -3.0356    0.4887    1.1201 H   0  0  0  0  0  0  0  0  0  0  0  0
   -2.2561    1.1334   -1.1447 H   0  0  0  0  0  0  0  0  0  0  0  0
    0.1208    0.8957   -1.7559 H   0  0  0  0  0  0  0  0  0  0  0  0
    1.6331    2.7395   -0.3427 H   0  0  0  0  0  0  0  0  0  0  0  0
    3.2438    5.0891   -3.8550 H   0  0  0  0  0  0  0  0  0  0  0  0
    3.2429    7.5360   -3.7710 H   0  0  0  0  0  0  0  0  0  0  0  0
    1.2750    9.5087    1.1550 H   0  0  0  0  0  0  0  0  0  0  0  0
    2.2398    4.9426    0.3552 H   0  0  0  0  0  0  0  0  0  0  0  0
    4.8109    3.5813   -3.1390 H   0  0  0  0  0  0  0  0  0  0  0  0
    5.4608    1.2230   -3.1242 H   0  0  0  0  0  0  0  0  0  0  0  0
  1  2  2  0  0  0  0
  2  3  1  0  0  0  0
  2  9  1  0  0  0  0
  3  4  2  0  0  0  0
  3  8  1  0  0  0  0
  4  5  1  0  0  0  0
  4 28  1  0  0  0  0
  5  6  2  0  0  0  0
  5 29  1  0  0  0  0
  6  7  1  0  0  0  0
  6 30  1  0  0  0  0
  7  8  2  0  0  0  0
  7 31  1  0  0  0  0
  8 32  1  0  0  0  0
  9 10  2  0  0  0  0
  9 26  1  0  0  0  0
 10 11  1  0  0  0  0
 10 33  1  0  0  0  0
 11 12  1  0  0  0  0
 11 24  2  0  0  0  0
 12 13  2  0  0  0  0
 12 23  1  0  0  0  0
 13 14  1  0  0  0  0
 13 34  1  0  0  0  0
 14 15  2  0  0  0  0
 14 35  1  0  0  0  0
 15 16  1  0  0  0  0
 15 22  1  0  0  0  0
 16 17  1  0  0  0  0
 17 18  2  0  0  0  0
 17 19  1  0  0  0  0
 19 20  1  0  0  0  0
 19 36  1  0  0  0  0
 20 21  2  0  0  0  0
 20 22  1  0  0  0  0
 22 23  2  0  0  0  0
 23 37  1  0  0  0  0
 24 25  1  0  0  0  0
 24 38  1  0  0  0  0
 25 26  2  0  0  0  0
 25 39  1  0  0  0  0
 26 27  1  0  0  0  0
M  END
$$$$
