
 OpenBabel01122422513D

 46 49  0  0  0  0  0  0  0  0999 V2000
    4.6105    1.1611   -1.7852 N   0  0  0  0  0  0  0  0  0  0  0  0
    4.0955    0.6132   -0.5937 C   0  0  0  0  0  0  0  0  0  0  0  0
    4.5597   -0.6340   -0.1777 C   0  0  0  0  0  0  0  0  0  0  0  0
    3.9733   -1.2579    0.9145 C   0  0  0  0  0  0  0  0  0  0  0  0
    4.4413   -2.4357    1.3456 F   0  0  0  0  0  0  0  0  0  0  0  0
    2.8936   -0.6573    1.5416 C   0  0  0  0  0  0  0  0  0  0  0  0
    2.3516    0.5196    1.1479 N   0  0  0  0  0  0  0  0  0  0  0  0
    2.9675    1.1298    0.0859 C   0  0  0  0  0  0  0  0  0  0  0  0
    2.3981    2.4640   -0.3006 C   0  0  0  0  0  0  0  0  0  0  0  0
    3.1105    3.2456   -0.9267 O   0  0  0  0  0  0  0  0  0  0  0  0
    1.1109    2.7033    0.1539 N   0  0  0  0  0  0  0  0  0  0  0  0
    0.3418    3.8671   -0.0791 C   0  0  0  0  0  0  0  0  0  0  0  0
    0.6852    4.8307   -1.0368 C   0  0  0  0  0  0  0  0  0  0  0  0
   -0.0618    6.0060   -1.2049 C   0  0  0  0  0  0  0  0  0  0  0  0
    0.2458    7.0045   -2.1668 N   0  0  0  0  0  0  0  0  0  0  0  0
    1.1842    6.9047   -3.1835 C   0  0  0  0  0  0  0  0  0  0  0  0
    1.8307    5.9009   -3.4664 O   0  0  0  0  0  0  0  0  0  0  0  0
    1.3492    8.0851   -4.0884 C   0  0  0  0  0  0  0  0  0  0  0  0
    1.5596    7.7549   -5.4407 C   0  0  0  0  0  0  0  0  0  0  0  0
    1.7405    8.7455   -6.3935 C   0  0  0  0  0  0  0  0  0  0  0  0
    1.6971   10.0775   -6.0007 C   0  0  0  0  0  0  0  0  0  0  0  0
    1.5063   10.4480   -4.6787 C   0  0  0  0  0  0  0  0  0  0  0  0
    1.5002   11.7660   -4.4217 N   0  0  0  0  0  0  0  0  0  0  0  0
    1.3754   12.1718   -3.1451 C   0  0  0  0  0  0  0  0  0  0  0  0
    1.2627   11.3029   -2.0825 C   0  0  0  0  0  0  0  0  0  0  0  0
    1.2649    9.9355   -2.3510 C   0  0  0  0  0  0  0  0  0  0  0  0
    1.3553    9.4525   -3.6802 C   0  0  0  0  0  0  0  0  0  0  0  0
   -1.1681    6.2141   -0.3763 C   0  0  0  0  0  0  0  0  0  0  0  0
   -1.5537    5.2378    0.5484 C   0  0  0  0  0  0  0  0  0  0  0  0
   -0.8115    4.0604    0.6814 C   0  0  0  0  0  0  0  0  0  0  0  0
    5.5787    0.9385   -1.9886 H   0  0  0  0  0  0  0  0  0  0  0  0
    4.4249    2.1724   -1.8493 H   0  0  0  0  0  0  0  0  0  0  0  0
    5.3769   -1.1274   -0.6944 H   0  0  0  0  0  0  0  0  0  0  0  0
    2.4299   -1.1312    2.4004 H   0  0  0  0  0  0  0  0  0  0  0  0
    0.7447    2.0008    0.7894 H   0  0  0  0  0  0  0  0  0  0  0  0
    1.5506    4.6608   -1.6630 H   0  0  0  0  0  0  0  0  0  0  0  0
   -0.3474    7.8232   -2.1626 H   0  0  0  0  0  0  0  0  0  0  0  0
    1.5949    6.7110   -5.7519 H   0  0  0  0  0  0  0  0  0  0  0  0
    1.9185    8.4845   -7.4334 H   0  0  0  0  0  0  0  0  0  0  0  0
    1.8372   10.8561   -6.7489 H   0  0  0  0  0  0  0  0  0  0  0  0
    1.3816   13.2482   -2.9986 H   0  0  0  0  0  0  0  0  0  0  0  0
    1.1878   11.6799   -1.0684 H   0  0  0  0  0  0  0  0  0  0  0  0
    1.2273    9.2565   -1.5034 H   0  0  0  0  0  0  0  0  0  0  0  0
   -1.7556    7.1249   -0.4485 H   0  0  0  0  0  0  0  0  0  0  0  0
   -2.4315    5.3987    1.1709 H   0  0  0  0  0  0  0  0  0  0  0  0
   -1.1316    3.3176    1.4105 H   0  0  0  0  0  0  0  0  0  0  0  0
  1  2  1  0  0  0  0
  1 31  1  0  0  0  0
  1 32  1  0  0  0  0
  2  3  2  0  0  0  0
  2  8  1  0  0  0  0
  3  4  1  0  0  0  0
  3 33  1  0  0  0  0
  4  5  1  0  0  0  0
  4  6  2  0  0  0  0
  6  7  1  0  0  0  0
  6 34  1  0  0  0  0
  7  8  2  0  0  0  0
  8  9  1  0  0  0  0
  9 10  2  0  0  0  0
  9 11  1  0  0  0  0
 11 12  1  0  0  0  0
 11 35  1  0  0  0  0
 12 13  2  0  0  0  0
 12 30  1  0  0  0  0
 13 14  1  0  0  0  0
 13 36  1  0  0  0  0
 14 15  1  0  0  0  0
 14 28  2  0  0  0  0
 15 16  1  0  0  0  0
 15 37  1  0  0  0  0
 16 17  2  0  0  0  0
 16 18  1  0  0  0  0
 18 19  2  0  0  0  0
 18 27  1  0  0  0  0
 19 20  1  0  0  0  0
 19 38  1  0  0  0  0
 20 21  2  0  0  0  0
 20 39  1  0  0  0  0
 21 22  1  0  0  0  0
 21 40  1  0  0  0  0
 22 23  2  0  0  0  0
 22 27  1  0  0  0  0
 23 24  1  0  0  0  0
 24 25  2  0  0  0  0
 24 41  1  0  0  0  0
 25 26  1  0  0  0  0
 25 42  1  0  0  0  0
 26 27  2  0  0  0  0
 26 43  1  0  0  0  0
 28 29  1  0  0  0  0
 28 44  1  0  0  0  0
 29 30  2  0  0  0  0
 29 45  1  0  0  0  0
 30 46  1  0  0  0  0
M  END
$$$$
