
 OpenBabel01122422513D

 48 51  0  0  0  0  0  0  0  0999 V2000
    0.9231    0.1967    0.0422 O   0  0  0  0  0  0  0  0  0  0  0  0
    2.1348    0.0281   -0.0536 C   0  0  0  0  0  0  0  0  0  0  0  0
    2.7828   -0.8825   -0.8644 N   0  0  0  0  0  0  0  0  0  0  0  0
    2.1457   -1.7896   -1.7438 C   0  0  0  0  0  0  0  0  0  0  0  0
    0.8077   -1.6679   -2.1295 C   0  0  0  0  0  0  0  0  0  0  0  0
    0.2083   -2.6295   -2.9443 C   0  0  0  0  0  0  0  0  0  0  0  0
    0.9456   -3.7208   -3.3915 C   0  0  0  0  0  0  0  0  0  0  0  0
    2.2903   -3.8353   -3.0425 C   0  0  0  0  0  0  0  0  0  0  0  0
    2.8928   -2.8684   -2.2315 C   0  0  0  0  0  0  0  0  0  0  0  0
    2.9988    0.8263    0.8505 C   0  0  0  0  0  0  0  0  0  0  0  0
    2.5108    1.0893    2.1357 C   0  0  0  0  0  0  0  0  0  0  0  0
    3.2406    1.8851    3.0134 C   0  0  0  0  0  0  0  0  0  0  0  0
    4.4634    2.4409    2.6158 C   0  0  0  0  0  0  0  0  0  0  0  0
    5.1774    3.3882    3.5431 C   0  0  0  0  0  0  0  0  0  0  0  0
    6.4562    2.8972    3.9550 O   0  0  0  0  0  0  0  0  0  0  0  0
    7.5054    3.5621    3.4060 C   0  0  0  0  0  0  0  0  0  0  0  0
    7.4411    4.2497    2.3964 O   0  0  0  0  0  0  0  0  0  0  0  0
    8.6572    3.4271    4.2479 C   0  0  0  0  0  0  0  0  0  0  0  0
    9.1007    2.3361    4.9730 C   0  0  0  0  0  0  0  0  0  0  0  0
   10.3697    2.7033    5.4400 C   0  0  0  0  0  0  0  0  0  0  0  0
   10.7107    3.9353    5.0632 N   0  0  0  0  0  0  0  0  0  0  0  0
    9.6004    4.4235    4.4476 N   0  0  0  0  0  0  0  0  0  0  0  0
    9.5072    5.8063    4.1545 C   0  0  0  0  0  0  0  0  0  0  0  0
    8.2809    6.4778    4.1145 C   0  0  0  0  0  0  0  0  0  0  0  0
    8.2462    7.8188    3.7438 C   0  0  0  0  0  0  0  0  0  0  0  0
    9.4435    8.4469    3.4485 C   0  0  0  0  0  0  0  0  0  0  0  0
   10.6501    7.8438    3.5351 N   0  0  0  0  0  0  0  0  0  0  0  0
   10.6592    6.5370    3.9008 C   0  0  0  0  0  0  0  0  0  0  0  0
    4.9465    2.1751    1.3237 C   0  0  0  0  0  0  0  0  0  0  0  0
    4.2191    1.3670    0.4411 C   0  0  0  0  0  0  0  0  0  0  0  0
    3.7698   -1.0314   -0.7028 H   0  0  0  0  0  0  0  0  0  0  0  0
    0.1988   -0.8270   -1.8129 H   0  0  0  0  0  0  0  0  0  0  0  0
   -0.8386   -2.5232   -3.2170 H   0  0  0  0  0  0  0  0  0  0  0  0
    0.4718   -4.4779   -4.0101 H   0  0  0  0  0  0  0  0  0  0  0  0
    2.8670   -4.6871   -3.3948 H   0  0  0  0  0  0  0  0  0  0  0  0
    3.9372   -2.9921   -1.9628 H   0  0  0  0  0  0  0  0  0  0  0  0
    1.5471    0.6892    2.4471 H   0  0  0  0  0  0  0  0  0  0  0  0
    2.8280    2.0930    3.9986 H   0  0  0  0  0  0  0  0  0  0  0  0
    4.5992    3.5101    4.4665 H   0  0  0  0  0  0  0  0  0  0  0  0
    5.2191    4.3893    3.0948 H   0  0  0  0  0  0  0  0  0  0  0  0
    8.6042    1.3806    5.0797 H   0  0  0  0  0  0  0  0  0  0  0  0
   11.0736    2.1164    6.0173 H   0  0  0  0  0  0  0  0  0  0  0  0
    7.3465    5.9962    4.3818 H   0  0  0  0  0  0  0  0  0  0  0  0
    7.3073    8.3575    3.6851 H   0  0  0  0  0  0  0  0  0  0  0  0
    9.4645    9.4851    3.1284 H   0  0  0  0  0  0  0  0  0  0  0  0
   11.6482    6.0862    3.9384 H   0  0  0  0  0  0  0  0  0  0  0  0
    5.8747    2.6308    0.9803 H   0  0  0  0  0  0  0  0  0  0  0  0
    4.5881    1.2174   -0.5695 H   0  0  0  0  0  0  0  0  0  0  0  0
  1  2  2  0  0  0  0
  2  3  1  0  0  0  0
  2 10  1  0  0  0  0
  3  4  1  0  0  0  0
  3 31  1  0  0  0  0
  4  5  2  0  0  0  0
  4  9  1  0  0  0  0
  5  6  1  0  0  0  0
  5 32  1  0  0  0  0
  6  7  2  0  0  0  0
  6 33  1  0  0  0  0
  7  8  1  0  0  0  0
  7 34  1  0  0  0  0
  8  9  2  0  0  0  0
  8 35  1  0  0  0  0
  9 36  1  0  0  0  0
 10 11  2  0  0  0  0
 10 30  1  0  0  0  0
 11 12  1  0  0  0  0
 11 37  1  0  0  0  0
 12 13  2  0  0  0  0
 12 38  1  0  0  0  0
 13 14  1  0  0  0  0
 13 29  1  0  0  0  0
 14 15  1  0  0  0  0
 14 39  1  0  0  0  0
 14 40  1  0  0  0  0
 15 16  1  0  0  0  0
 16 17  2  0  0  0  0
 16 18  1  0  0  0  0
 18 19  2  0  0  0  0
 18 22  1  0  0  0  0
 19 20  1  0  0  0  0
 19 41  1  0  0  0  0
 20 21  2  0  0  0  0
 20 42  1  0  0  0  0
 21 22  1  0  0  0  0
 22 23  1  0  0  0  0
 23 24  2  0  0  0  0
 23 28  1  0  0  0  0
 24 25  1  0  0  0  0
 24 43  1  0  0  0  0
 25 26  2  0  0  0  0
 25 44  1  0  0  0  0
 26 27  1  0  0  0  0
 26 45  1  0  0  0  0
 27 28  2  0  0  0  0
 28 46  1  0  0  0  0
 29 30  2  0  0  0  0
 29 47  1  0  0  0  0
 30 48  1  0  0  0  0
M  END
$$$$
