
 OpenBabel01122422513D

 45 48  0  0  0  0  0  0  0  0999 V2000
    1.2073   -0.1420    0.0350 O   0  0  0  0  0  0  0  0  0  0  0  0
    2.4341   -0.1273    0.1236 C   0  0  0  0  0  0  0  0  0  0  0  0
    3.1735    0.9160   -0.3920 N   0  0  0  0  0  0  0  0  0  0  0  0
    2.4453    2.0188   -0.9806 C   0  0  0  0  0  0  0  0  0  0  0  0
    3.3308    3.1178   -1.4900 C   0  0  0  0  0  0  0  0  0  0  0  0
    3.8693    3.0448   -2.7809 C   0  0  0  0  0  0  0  0  0  0  0  0
    4.6389    4.0933   -3.2892 C   0  0  0  0  0  0  0  0  0  0  0  0
    4.8363    5.2469   -2.5283 C   0  0  0  0  0  0  0  0  0  0  0  0
    5.5479    6.3467   -2.9492 O   0  0  0  0  0  0  0  0  0  0  0  0
    5.5095    6.7416   -4.2676 C   0  0  0  0  0  0  0  0  0  0  0  0
    4.4221    6.5664   -5.1246 C   0  0  0  0  0  0  0  0  0  0  0  0
    4.5189    6.9917   -6.4454 C   0  0  0  0  0  0  0  0  0  0  0  0
    3.4974    6.7702   -7.2834 F   0  0  0  0  0  0  0  0  0  0  0  0
    5.6574    7.6380   -6.9143 C   0  0  0  0  0  0  0  0  0  0  0  0
    6.7191    7.8727   -6.0436 C   0  0  0  0  0  0  0  0  0  0  0  0
    6.6434    7.4243   -4.7227 C   0  0  0  0  0  0  0  0  0  0  0  0
    4.3523    5.3015   -1.2203 C   0  0  0  0  0  0  0  0  0  0  0  0
    3.6059    4.2421   -0.7000 C   0  0  0  0  0  0  0  0  0  0  0  0
    3.1144   -1.2431    0.8470 C   0  0  0  0  0  0  0  0  0  0  0  0
    2.2569   -2.1773    1.4618 C   0  0  0  0  0  0  0  0  0  0  0  0
    2.7496   -3.1882    2.2813 C   0  0  0  0  0  0  0  0  0  0  0  0
    4.1216   -3.3047    2.4330 C   0  0  0  0  0  0  0  0  0  0  0  0
    4.6897   -4.2963    3.3388 C   0  0  0  0  0  0  0  0  0  0  0  0
    5.9356   -4.6495    3.3267 N   0  0  0  0  0  0  0  0  0  0  0  0
    6.7468   -3.9955    2.4352 N   0  0  0  0  0  0  0  0  0  0  0  0
    6.4136   -2.8691    1.7319 C   0  0  0  0  0  0  0  0  0  0  0  0
    7.2287   -2.2295    1.0728 O   0  0  0  0  0  0  0  0  0  0  0  0
    4.9917   -2.4839    1.7272 C   0  0  0  0  0  0  0  0  0  0  0  0
    4.5006   -1.4096    0.9635 C   0  0  0  0  0  0  0  0  0  0  0  0
    4.1815    0.9577   -0.3484 H   0  0  0  0  0  0  0  0  0  0  0  0
    1.7452    2.4135   -0.2328 H   0  0  0  0  0  0  0  0  0  0  0  0
    1.8285    1.6274   -1.7994 H   0  0  0  0  0  0  0  0  0  0  0  0
    3.6707    2.1773   -3.4078 H   0  0  0  0  0  0  0  0  0  0  0  0
    5.0553    4.0007   -4.2880 H   0  0  0  0  0  0  0  0  0  0  0  0
    3.5016    6.0965   -4.7964 H   0  0  0  0  0  0  0  0  0  0  0  0
    5.7044    7.9610   -7.9493 H   0  0  0  0  0  0  0  0  0  0  0  0
    7.6046    8.3988   -6.3905 H   0  0  0  0  0  0  0  0  0  0  0  0
    7.4733    7.6054   -4.0434 H   0  0  0  0  0  0  0  0  0  0  0  0
    4.5448    6.1790   -0.6079 H   0  0  0  0  0  0  0  0  0  0  0  0
    3.2167    4.3125    0.3143 H   0  0  0  0  0  0  0  0  0  0  0  0
    1.1789   -2.1080    1.3135 H   0  0  0  0  0  0  0  0  0  0  0  0
    2.0646   -3.8750    2.7674 H   0  0  0  0  0  0  0  0  0  0  0  0
    4.0164   -4.7562    4.0858 H   0  0  0  0  0  0  0  0  0  0  0  0
    7.7036   -4.3348    2.3841 H   0  0  0  0  0  0  0  0  0  0  0  0
    5.2046   -0.7498    0.4658 H   0  0  0  0  0  0  0  0  0  0  0  0
  1  2  2  0  0  0  0
  2  3  1  0  0  0  0
  2 19  1  0  0  0  0
  3  4  1  0  0  0  0
  3 30  1  0  0  0  0
  4  5  1  0  0  0  0
  4 31  1  0  0  0  0
  4 32  1  0  0  0  0
  5  6  2  0  0  0  0
  5 18  1  0  0  0  0
  6  7  1  0  0  0  0
  6 33  1  0  0  0  0
  7  8  2  0  0  0  0
  7 34  1  0  0  0  0
  8  9  1  0  0  0  0
  8 17  1  0  0  0  0
  9 10  1  0  0  0  0
 10 11  2  0  0  0  0
 10 16  1  0  0  0  0
 11 12  1  0  0  0  0
 11 35  1  0  0  0  0
 12 13  1  0  0  0  0
 12 14  2  0  0  0  0
 14 15  1  0  0  0  0
 14 36  1  0  0  0  0
 15 16  2  0  0  0  0
 15 37  1  0  0  0  0
 16 38  1  0  0  0  0
 17 18  2  0  0  0  0
 17 39  1  0  0  0  0
 18 40  1  0  0  0  0
 19 20  2  0  0  0  0
 19 29  1  0  0  0  0
 20 21  1  0  0  0  0
 20 41  1  0  0  0  0
 21 22  2  0  0  0  0
 21 42  1  0  0  0  0
 22 23  1  0  0  0  0
 22 28  1  0  0  0  0
 23 24  2  0  0  0  0
 23 43  1  0  0  0  0
 24 25  1  0  0  0  0
 25 26  1  0  0  0  0
 25 44  1  0  0  0  0
 26 27  2  0  0  0  0
 26 28  1  0  0  0  0
 28 29  2  0  0  0  0
 29 45  1  0  0  0  0
M  END
$$$$
