
 OpenBabel01122422513D

 45 48  0  0  0  0  0  0  0  0999 V2000
    1.0272   -0.2673    0.0710 O   0  0  0  0  0  0  0  0  0  0  0  0
    2.2396   -0.1303   -0.0419 C   0  0  0  0  0  0  0  0  0  0  0  0
    2.9414   -0.4602   -1.1806 N   0  0  0  0  0  0  0  0  0  0  0  0
    2.2683   -1.0871   -2.2947 C   0  0  0  0  0  0  0  0  0  0  0  0
    2.9735   -0.7538   -3.5570 C   0  0  0  0  0  0  0  0  0  0  0  0
    2.5715   -0.0682   -4.6825 C   0  0  0  0  0  0  0  0  0  0  0  0
    3.6669   -0.0850   -5.5736 C   0  0  0  0  0  0  0  0  0  0  0  0
    4.6902   -0.7684   -4.9442 C   0  0  0  0  0  0  0  0  0  0  0  0
    6.0727   -1.0714   -5.3149 C   0  0  0  0  0  0  0  0  0  0  0  0
    6.9085   -1.8346   -4.4906 C   0  0  0  0  0  0  0  0  0  0  0  0
    8.2422   -2.0367   -4.8411 C   0  0  0  0  0  0  0  0  0  0  0  0
    9.0349   -2.7498   -4.0299 F   0  0  0  0  0  0  0  0  0  0  0  0
    8.7725   -1.5019   -6.0091 C   0  0  0  0  0  0  0  0  0  0  0  0
    7.9496   -0.7678   -6.8556 C   0  0  0  0  0  0  0  0  0  0  0  0
    6.6097   -0.5596   -6.5116 C   0  0  0  0  0  0  0  0  0  0  0  0
    4.2630   -1.1858   -3.7088 O   0  0  0  0  0  0  0  0  0  0  0  0
    3.0352    0.3786    1.1067 C   0  0  0  0  0  0  0  0  0  0  0  0
    2.5628    0.1266    2.4009 C   0  0  0  0  0  0  0  0  0  0  0  0
    3.2686    0.5885    3.5154 C   0  0  0  0  0  0  0  0  0  0  0  0
    4.4374    1.3378    3.3436 C   0  0  0  0  0  0  0  0  0  0  0  0
    5.2000    1.8864    4.5081 C   0  0  0  0  0  0  0  0  0  0  0  0
    6.4892    2.0423    4.4077 N   0  0  0  0  0  0  0  0  0  0  0  0
    7.1369    2.5600    5.4942 N   0  0  0  0  0  0  0  0  0  0  0  0
    6.5502    2.9542    6.6683 C   0  0  0  0  0  0  0  0  0  0  0  0
    7.1712    3.4385    7.6069 O   0  0  0  0  0  0  0  0  0  0  0  0
    5.0901    2.7689    6.7463 C   0  0  0  0  0  0  0  0  0  0  0  0
    4.4196    2.2540    5.7173 C   0  0  0  0  0  0  0  0  0  0  0  0
    4.9114    1.5896    2.0473 C   0  0  0  0  0  0  0  0  0  0  0  0
    4.2096    1.1182    0.9309 C   0  0  0  0  0  0  0  0  0  0  0  0
    3.9462   -0.5654   -1.1391 H   0  0  0  0  0  0  0  0  0  0  0  0
    1.2293   -0.7430   -2.3412 H   0  0  0  0  0  0  0  0  0  0  0  0
    2.2603   -2.1686   -2.1251 H   0  0  0  0  0  0  0  0  0  0  0  0
    1.6032    0.3877   -4.8367 H   0  0  0  0  0  0  0  0  0  0  0  0
    3.7072    0.3648   -6.5552 H   0  0  0  0  0  0  0  0  0  0  0  0
    6.5424   -2.2697   -3.5658 H   0  0  0  0  0  0  0  0  0  0  0  0
    9.8192   -1.6592   -6.2491 H   0  0  0  0  0  0  0  0  0  0  0  0
    8.3470   -0.3470   -7.7762 H   0  0  0  0  0  0  0  0  0  0  0  0
    5.9928    0.0257   -7.1900 H   0  0  0  0  0  0  0  0  0  0  0  0
    1.6430   -0.4389    2.5437 H   0  0  0  0  0  0  0  0  0  0  0  0
    2.8905    0.3379    4.5018 H   0  0  0  0  0  0  0  0  0  0  0  0
    8.1418    2.6746    5.4135 H   0  0  0  0  0  0  0  0  0  0  0  0
    4.6082    3.0804    7.6641 H   0  0  0  0  0  0  0  0  0  0  0  0
    3.3449    2.1428    5.7457 H   0  0  0  0  0  0  0  0  0  0  0  0
    5.8193    2.1720    1.8984 H   0  0  0  0  0  0  0  0  0  0  0  0
    4.5737    1.3636   -0.0637 H   0  0  0  0  0  0  0  0  0  0  0  0
  1  2  2  0  0  0  0
  2  3  1  0  0  0  0
  2 17  1  0  0  0  0
  3  4  1  0  0  0  0
  3 30  1  0  0  0  0
  4  5  1  0  0  0  0
  4 31  1  0  0  0  0
  4 32  1  0  0  0  0
  5  6  2  0  0  0  0
  5 16  1  0  0  0  0
  6  7  1  0  0  0  0
  6 33  1  0  0  0  0
  7  8  2  0  0  0  0
  7 34  1  0  0  0  0
  8  9  1  0  0  0  0
  8 16  1  0  0  0  0
  9 10  2  0  0  0  0
  9 15  1  0  0  0  0
 10 11  1  0  0  0  0
 10 35  1  0  0  0  0
 11 12  1  0  0  0  0
 11 13  2  0  0  0  0
 13 14  1  0  0  0  0
 13 36  1  0  0  0  0
 14 15  2  0  0  0  0
 14 37  1  0  0  0  0
 15 38  1  0  0  0  0
 17 18  2  0  0  0  0
 17 29  1  0  0  0  0
 18 19  1  0  0  0  0
 18 39  1  0  0  0  0
 19 20  2  0  0  0  0
 19 40  1  0  0  0  0
 20 21  1  0  0  0  0
 20 28  1  0  0  0  0
 21 22  2  0  0  0  0
 21 27  1  0  0  0  0
 22 23  1  0  0  0  0
 23 24  1  0  0  0  0
 23 41  1  0  0  0  0
 24 25  2  0  0  0  0
 24 26  1  0  0  0  0
 26 27  2  0  0  0  0
 26 42  1  0  0  0  0
 27 43  1  0  0  0  0
 28 29  2  0  0  0  0
 28 44  1  0  0  0  0
 29 45  1  0  0  0  0
M  END
$$$$
