
 OpenBabel01122422513D

 49 52  0  0  0  0  0  0  0  0999 V2000
    2.3183   -1.2191   -0.6492 C   0  0  0  0  0  0  0  0  0  0  0  0
    1.1303   -0.5639   -0.1582 N   0  0  0  0  0  0  0  0  0  0  0  0
    1.1353    0.7789   -0.0841 N   0  0  0  0  0  0  0  0  0  0  0  0
   -0.0704    1.0905    0.4044 C   0  0  0  0  0  0  0  0  0  0  0  0
   -0.4756    2.5113    0.6245 C   0  0  0  0  0  0  0  0  0  0  0  0
   -0.1010    2.8580    2.0438 C   0  0  0  0  0  0  0  0  0  0  0  0
    1.1938    3.3090    2.3449 C   0  0  0  0  0  0  0  0  0  0  0  0
    1.5370    3.6662    3.6494 C   0  0  0  0  0  0  0  0  0  0  0  0
    0.5922    3.5726    4.6687 C   0  0  0  0  0  0  0  0  0  0  0  0
   -0.6945    3.1176    4.3857 C   0  0  0  0  0  0  0  0  0  0  0  0
   -1.0409    2.7611    3.0808 C   0  0  0  0  0  0  0  0  0  0  0  0
   -0.8584   -0.0715    0.5915 C   0  0  0  0  0  0  0  0  0  0  0  0
   -0.0786   -1.1354    0.1896 C   0  0  0  0  0  0  0  0  0  0  0  0
   -0.4293   -2.4977    0.1488 N   0  0  0  0  0  0  0  0  0  0  0  0
   -1.8016   -2.9249    0.2860 C   0  0  0  0  0  0  0  0  0  0  0  0
   -2.7221   -2.1266    0.3602 O   0  0  0  0  0  0  0  0  0  0  0  0
   -2.0419   -4.4035    0.2351 C   0  0  0  0  0  0  0  0  0  0  0  0
   -1.1354   -5.3324    0.5864 C   0  0  0  0  0  0  0  0  0  0  0  0
   -1.3979   -6.7034    0.4840 N   0  0  0  0  0  0  0  0  0  0  0  0
   -0.3844   -7.6562    0.8044 C   0  0  0  0  0  0  0  0  0  0  0  0
   -0.0066   -8.6289   -0.1338 C   0  0  0  0  0  0  0  0  0  0  0  0
    1.0325   -9.5156    0.1526 C   0  0  0  0  0  0  0  0  0  0  0  0
    1.6617   -9.4551    1.3887 C   0  0  0  0  0  0  0  0  0  0  0  0
    2.6560  -10.3078    1.6664 F   0  0  0  0  0  0  0  0  0  0  0  0
    1.2769   -8.5205    2.3444 C   0  0  0  0  0  0  0  0  0  0  0  0
    0.2638   -7.6065    2.0471 C   0  0  0  0  0  0  0  0  0  0  0  0
   -2.6414   -7.1920    0.0340 C   0  0  0  0  0  0  0  0  0  0  0  0
   -2.9572   -8.3710   -0.0963 O   0  0  0  0  0  0  0  0  0  0  0  0
   -3.6686   -6.1587   -0.2585 C   0  0  0  0  0  0  0  0  0  0  0  0
   -3.3671   -4.8585   -0.1625 C   0  0  0  0  0  0  0  0  0  0  0  0
    3.0910   -0.4693   -0.8481 H   0  0  0  0  0  0  0  0  0  0  0  0
    2.0706   -1.7417   -1.5752 H   0  0  0  0  0  0  0  0  0  0  0  0
    2.6723   -1.9151    0.1132 H   0  0  0  0  0  0  0  0  0  0  0  0
   -1.5524    2.6378    0.4643 H   0  0  0  0  0  0  0  0  0  0  0  0
    0.0304    3.1834   -0.0826 H   0  0  0  0  0  0  0  0  0  0  0  0
    1.9414    3.3882    1.5573 H   0  0  0  0  0  0  0  0  0  0  0  0
    2.5399    4.0241    3.8678 H   0  0  0  0  0  0  0  0  0  0  0  0
    0.8577    3.8596    5.6830 H   0  0  0  0  0  0  0  0  0  0  0  0
   -1.4314    3.0507    5.1821 H   0  0  0  0  0  0  0  0  0  0  0  0
   -2.0539    2.4207    2.8788 H   0  0  0  0  0  0  0  0  0  0  0  0
   -1.8726   -0.0829    0.9629 H   0  0  0  0  0  0  0  0  0  0  0  0
    0.2961   -3.1607   -0.0697 H   0  0  0  0  0  0  0  0  0  0  0  0
   -0.1404   -5.0774    0.9354 H   0  0  0  0  0  0  0  0  0  0  0  0
   -0.4971   -8.6871   -1.1031 H   0  0  0  0  0  0  0  0  0  0  0  0
    1.3500  -10.2527   -0.5785 H   0  0  0  0  0  0  0  0  0  0  0  0
    1.7618   -8.5187    3.3159 H   0  0  0  0  0  0  0  0  0  0  0  0
   -0.0530   -6.9030    2.8124 H   0  0  0  0  0  0  0  0  0  0  0  0
   -4.6536   -6.5166   -0.5279 H   0  0  0  0  0  0  0  0  0  0  0  0
   -4.1361   -4.1147   -0.3649 H   0  0  0  0  0  0  0  0  0  0  0  0
  1  2  1  0  0  0  0
  1 31  1  0  0  0  0
  1 32  1  0  0  0  0
  1 33  1  0  0  0  0
  2  3  1  0  0  0  0
  2 13  1  0  0  0  0
  3  4  2  0  0  0  0
  4  5  1  0  0  0  0
  4 12  1  0  0  0  0
  5  6  1  0  0  0  0
  5 34  1  0  0  0  0
  5 35  1  0  0  0  0
  6  7  2  0  0  0  0
  6 11  1  0  0  0  0
  7  8  1  0  0  0  0
  7 36  1  0  0  0  0
  8  9  2  0  0  0  0
  8 37  1  0  0  0  0
  9 10  1  0  0  0  0
  9 38  1  0  0  0  0
 10 11  2  0  0  0  0
 10 39  1  0  0  0  0
 11 40  1  0  0  0  0
 12 13  2  0  0  0  0
 12 41  1  0  0  0  0
 13 14  1  0  0  0  0
 14 15  1  0  0  0  0
 14 42  1  0  0  0  0
 15 16  2  0  0  0  0
 15 17  1  0  0  0  0
 17 18  2  0  0  0  0
 17 30  1  0  0  0  0
 18 19  1  0  0  0  0
 18 43  1  0  0  0  0
 19 20  1  0  0  0  0
 19 27  1  0  0  0  0
 20 21  2  0  0  0  0
 20 26  1  0  0  0  0
 21 22  1  0  0  0  0
 21 44  1  0  0  0  0
 22 23  2  0  0  0  0
 22 45  1  0  0  0  0
 23 24  1  0  0  0  0
 23 25  1  0  0  0  0
 25 26  2  0  0  0  0
 25 46  1  0  0  0  0
 26 47  1  0  0  0  0
 27 28  2  0  0  0  0
 27 29  1  0  0  0  0
 29 30  2  0  0  0  0
 29 48  1  0  0  0  0
 30 49  1  0  0  0  0
M  END
$$$$
