
 OpenBabel01122422513D

 52 55  0  0  0  0  0  0  0  0999 V2000
    1.8464    0.6374    2.0415 C   0  0  0  0  0  0  0  0  0  0  0  0
    2.8794   -0.2720    1.4603 C   0  0  0  0  0  0  0  0  0  0  0  0
    4.2022   -0.0089    1.4934 C   0  0  0  0  0  0  0  0  0  0  0  0
    5.0852   -0.8740    0.8603 N   0  0  0  0  0  0  0  0  0  0  0  0
    6.4427   -0.7781    0.7255 C   0  0  0  0  0  0  0  0  0  0  0  0
    6.8203   -1.8610   -0.0405 C   0  0  0  0  0  0  0  0  0  0  0  0
    8.1737   -2.2490   -0.5121 C   0  0  0  0  0  0  0  0  0  0  0  0
    9.1869   -1.3499   -0.0333 O   0  0  0  0  0  0  0  0  0  0  0  0
   10.4526   -1.8661    0.0479 C   0  0  0  0  0  0  0  0  0  0  0  0
   10.8594   -2.9578   -0.7397 C   0  0  0  0  0  0  0  0  0  0  0  0
   12.1291   -3.5147   -0.5950 C   0  0  0  0  0  0  0  0  0  0  0  0
   13.0286   -2.9624    0.3062 C   0  0  0  0  0  0  0  0  0  0  0  0
   12.6529   -1.8557    1.0669 C   0  0  0  0  0  0  0  0  0  0  0  0
   11.3655   -1.2964    0.9486 C   0  0  0  0  0  0  0  0  0  0  0  0
   11.0721   -0.1706    1.8780 C   0  0  0  0  0  0  0  0  0  0  0  0
   11.6845   -0.0280    2.9234 O   0  0  0  0  0  0  0  0  0  0  0  0
   10.1380    0.6831    1.3963 O   0  0  0  0  0  0  0  0  0  0  0  0
    9.8034    1.7876    2.2500 C   0  0  0  0  0  0  0  0  0  0  0  0
   10.0680    3.0838    1.5330 C   0  0  0  0  0  0  0  0  0  0  0  0
   11.3622    3.4206    1.1135 C   0  0  0  0  0  0  0  0  0  0  0  0
   11.6146    4.6552    0.5032 C   0  0  0  0  0  0  0  0  0  0  0  0
   10.5778    5.5825    0.3307 C   0  0  0  0  0  0  0  0  0  0  0  0
   10.7868    6.9509   -0.2210 C   0  0  0  0  0  0  0  0  0  0  0  0
   12.0589    7.3475   -0.5226 N   0  0  0  0  0  0  0  0  0  0  0  0
    9.8539    7.7326   -0.3642 O   0  0  0  0  0  0  0  0  0  0  0  0
    9.2805    5.2365    0.7251 C   0  0  0  0  0  0  0  0  0  0  0  0
    9.0388    4.0015    1.3183 C   0  0  0  0  0  0  0  0  0  0  0  0
    7.7898    3.7109    1.7099 F   0  0  0  0  0  0  0  0  0  0  0  0
    5.7234   -2.6410   -0.3537 N   0  0  0  0  0  0  0  0  0  0  0  0
    4.6927   -2.0274    0.1886 C   0  0  0  0  0  0  0  0  0  0  0  0
    3.3044   -2.3301    0.1841 C   0  0  0  0  0  0  0  0  0  0  0  0
    2.4357   -1.4949    0.7892 C   0  0  0  0  0  0  0  0  0  0  0  0
    2.2999    1.4265    2.6524 H   0  0  0  0  0  0  0  0  0  0  0  0
    1.1454    0.0875    2.6787 H   0  0  0  0  0  0  0  0  0  0  0  0
    1.2820    1.1196    1.2375 H   0  0  0  0  0  0  0  0  0  0  0  0
    4.6276    0.8677    1.9626 H   0  0  0  0  0  0  0  0  0  0  0  0
    7.0121    0.0329    1.1508 H   0  0  0  0  0  0  0  0  0  0  0  0
    8.1814   -2.2420   -1.6105 H   0  0  0  0  0  0  0  0  0  0  0  0
    8.3571   -3.2694   -0.1501 H   0  0  0  0  0  0  0  0  0  0  0  0
   10.1992   -3.4083   -1.4739 H   0  0  0  0  0  0  0  0  0  0  0  0
   12.4083   -4.3822   -1.1892 H   0  0  0  0  0  0  0  0  0  0  0  0
   14.0203   -3.3924    0.4190 H   0  0  0  0  0  0  0  0  0  0  0  0
   13.3709   -1.4337    1.7693 H   0  0  0  0  0  0  0  0  0  0  0  0
   10.3522    1.7949    3.2002 H   0  0  0  0  0  0  0  0  0  0  0  0
    8.7432    1.6893    2.5046 H   0  0  0  0  0  0  0  0  0  0  0  0
   12.1849    2.7253    1.2745 H   0  0  0  0  0  0  0  0  0  0  0  0
   12.6296    4.8650    0.1834 H   0  0  0  0  0  0  0  0  0  0  0  0
   12.8855    6.8601   -0.2167 H   0  0  0  0  0  0  0  0  0  0  0  0
   12.1633    8.3246   -0.7660 H   0  0  0  0  0  0  0  0  0  0  0  0
    8.4535    5.9292    0.5911 H   0  0  0  0  0  0  0  0  0  0  0  0
    2.9724   -3.2309   -0.3178 H   0  0  0  0  0  0  0  0  0  0  0  0
    1.3740   -1.7226    0.7883 H   0  0  0  0  0  0  0  0  0  0  0  0
  1  2  1  0  0  0  0
  1 33  1  0  0  0  0
  1 34  1  0  0  0  0
  1 35  1  0  0  0  0
  2  3  2  0  0  0  0
  2 32  1  0  0  0  0
  3  4  1  0  0  0  0
  3 36  1  0  0  0  0
  4  5  1  0  0  0  0
  4 30  1  0  0  0  0
  5  6  2  0  0  0  0
  5 37  1  0  0  0  0
  6  7  1  0  0  0  0
  6 29  1  0  0  0  0
  7  8  1  0  0  0  0
  7 38  1  0  0  0  0
  7 39  1  0  0  0  0
  8  9  1  0  0  0  0
  9 10  2  0  0  0  0
  9 14  1  0  0  0  0
 10 11  1  0  0  0  0
 10 40  1  0  0  0  0
 11 12  2  0  0  0  0
 11 41  1  0  0  0  0
 12 13  1  0  0  0  0
 12 42  1  0  0  0  0
 13 14  2  0  0  0  0
 13 43  1  0  0  0  0
 14 15  1  0  0  0  0
 15 16  2  0  0  0  0
 15 17  1  0  0  0  0
 17 18  1  0  0  0  0
 18 19  1  0  0  0  0
 18 44  1  0  0  0  0
 18 45  1  0  0  0  0
 19 20  2  0  0  0  0
 19 27  1  0  0  0  0
 20 21  1  0  0  0  0
 20 46  1  0  0  0  0
 21 22  2  0  0  0  0
 21 47  1  0  0  0  0
 22 23  1  0  0  0  0
 22 26  1  0  0  0  0
 23 24  1  0  0  0  0
 23 25  2  0  0  0  0
 24 48  1  0  0  0  0
 24 49  1  0  0  0  0
 26 27  2  0  0  0  0
 26 50  1  0  0  0  0
 27 28  1  0  0  0  0
 29 30  2  0  0  0  0
 30 31  1  0  0  0  0
 31 32  2  0  0  0  0
 31 51  1  0  0  0  0
 32 52  1  0  0  0  0
M  END
$$$$
