
 OpenBabel01122422513D

 42 45  0  0  0  0  0  0  0  0999 V2000
    0.9449   -0.1380   -0.3866 O   0  0  0  0  0  0  0  0  0  0  0  0
    2.1287   -0.0445   -0.0757 C   0  0  0  0  0  0  0  0  0  0  0  0
    2.7105   -0.4889    1.0946 N   0  0  0  0  0  0  0  0  0  0  0  0
    2.0178   -1.1009    2.1139 C   0  0  0  0  0  0  0  0  0  0  0  0
    0.7196   -1.3716    2.0896 N   0  0  0  0  0  0  0  0  0  0  0  0
    0.4972   -1.9646    3.2765 N   0  0  0  0  0  0  0  0  0  0  0  0
   -0.7836   -2.4704    3.6056 C   0  0  0  0  0  0  0  0  0  0  0  0
   -1.8115   -2.4220    2.6458 C   0  0  0  0  0  0  0  0  0  0  0  0
   -3.0664   -2.9510    2.9421 C   0  0  0  0  0  0  0  0  0  0  0  0
   -3.2900   -3.5103    4.1939 C   0  0  0  0  0  0  0  0  0  0  0  0
   -4.4932   -4.0231    4.4794 F   0  0  0  0  0  0  0  0  0  0  0  0
   -2.2840   -3.5507    5.1574 C   0  0  0  0  0  0  0  0  0  0  0  0
   -1.0212   -3.0318    4.8663 C   0  0  0  0  0  0  0  0  0  0  0  0
    1.5756   -2.0713    4.1009 N   0  0  0  0  0  0  0  0  0  0  0  0
    2.5419   -1.5416    3.3448 C   0  0  0  0  0  0  0  0  0  0  0  0
    3.0312    0.6386   -1.0369 C   0  0  0  0  0  0  0  0  0  0  0  0
    2.4745    1.2395   -2.1772 C   0  0  0  0  0  0  0  0  0  0  0  0
    3.2758    1.9264   -3.1019 C   0  0  0  0  0  0  0  0  0  0  0  0
    2.7065    2.5896   -4.2956 C   0  0  0  0  0  0  0  0  0  0  0  0
    1.4328    3.1915   -4.2660 C   0  0  0  0  0  0  0  0  0  0  0  0
    0.8964    3.8242   -5.3947 C   0  0  0  0  0  0  0  0  0  0  0  0
    1.6229    3.8784   -6.5805 C   0  0  0  0  0  0  0  0  0  0  0  0
    2.8829    3.2941   -6.6385 C   0  0  0  0  0  0  0  0  0  0  0  0
    3.4066    2.6583   -5.5138 C   0  0  0  0  0  0  0  0  0  0  0  0
    4.6184    2.0932   -5.6328 F   0  0  0  0  0  0  0  0  0  0  0  0
    4.6432    1.9492   -2.8101 C   0  0  0  0  0  0  0  0  0  0  0  0
    5.2283    1.3714   -1.7288 N   0  0  0  0  0  0  0  0  0  0  0  0
    4.4021    0.7401   -0.8828 C   0  0  0  0  0  0  0  0  0  0  0  0
    5.0732    0.2035    0.1700 O   0  0  0  0  0  0  0  0  0  0  0  0
    3.7074   -0.3545    1.2271 H   0  0  0  0  0  0  0  0  0  0  0  0
   -1.6401   -1.9888    1.6600 H   0  0  0  0  0  0  0  0  0  0  0  0
   -3.8605   -2.9356    2.2038 H   0  0  0  0  0  0  0  0  0  0  0  0
   -2.4901   -3.9881    6.1289 H   0  0  0  0  0  0  0  0  0  0  0  0
   -0.2395   -3.0690    5.6218 H   0  0  0  0  0  0  0  0  0  0  0  0
    3.5549   -1.4976    3.7191 H   0  0  0  0  0  0  0  0  0  0  0  0
    1.3993    1.1587   -2.3375 H   0  0  0  0  0  0  0  0  0  0  0  0
    0.8353    3.1876   -3.3559 H   0  0  0  0  0  0  0  0  0  0  0  0
   -0.0918    4.2761   -5.3431 H   0  0  0  0  0  0  0  0  0  0  0  0
    1.2079    4.3714   -7.4556 H   0  0  0  0  0  0  0  0  0  0  0  0
    3.4674    3.3248   -7.5533 H   0  0  0  0  0  0  0  0  0  0  0  0
    5.3489    2.4651   -3.4580 H   0  0  0  0  0  0  0  0  0  0  0  0
    5.9849    0.4449   -0.0918 H   0  0  0  0  0  0  0  0  0  0  0  0
  1  2  2  0  0  0  0
  2  3  1  0  0  0  0
  2 16  1  0  0  0  0
  3  4  1  0  0  0  0
  3 30  1  0  0  0  0
  4  5  2  0  0  0  0
  4 15  1  0  0  0  0
  5  6  1  0  0  0  0
  6  7  1  0  0  0  0
  6 14  1  0  0  0  0
  7  8  2  0  0  0  0
  7 13  1  0  0  0  0
  8  9  1  0  0  0  0
  8 31  1  0  0  0  0
  9 10  2  0  0  0  0
  9 32  1  0  0  0  0
 10 11  1  0  0  0  0
 10 12  1  0  0  0  0
 12 13  2  0  0  0  0
 12 33  1  0  0  0  0
 13 34  1  0  0  0  0
 14 15  2  0  0  0  0
 15 35  1  0  0  0  0
 16 17  2  0  0  0  0
 16 28  1  0  0  0  0
 17 18  1  0  0  0  0
 17 36  1  0  0  0  0
 18 19  1  0  0  0  0
 18 26  2  0  0  0  0
 19 20  2  0  0  0  0
 19 24  1  0  0  0  0
 20 21  1  0  0  0  0
 20 37  1  0  0  0  0
 21 22  2  0  0  0  0
 21 38  1  0  0  0  0
 22 23  1  0  0  0  0
 22 39  1  0  0  0  0
 23 24  2  0  0  0  0
 23 40  1  0  0  0  0
 24 25  1  0  0  0  0
 26 27  1  0  0  0  0
 26 41  1  0  0  0  0
 27 28  2  0  0  0  0
 28 29  1  0  0  0  0
 29 42  1  0  0  0  0
M  END
$$$$
