
 OpenBabel01122422513D

 47 50  0  0  0  0  0  0  0  0999 V2000
    6.4318    2.0728   -2.6544 N   0  0  0  0  0  0  0  0  0  0  0  0
    5.8665    3.0272   -1.8634 C   0  0  0  0  0  0  0  0  0  0  0  0
    6.3629    4.1487   -1.8182 O   0  0  0  0  0  0  0  0  0  0  0  0
    4.6376    2.6852   -1.0811 C   0  0  0  0  0  0  0  0  0  0  0  0
    4.0526    3.7480   -0.3623 C   0  0  0  0  0  0  0  0  0  0  0  0
    2.8787    3.5702    0.3718 C   0  0  0  0  0  0  0  0  0  0  0  0
    2.2940    2.3137    0.4384 C   0  0  0  0  0  0  0  0  0  0  0  0
    2.8874    1.2388   -0.2227 C   0  0  0  0  0  0  0  0  0  0  0  0
    4.0296    1.4171   -1.0305 C   0  0  0  0  0  0  0  0  0  0  0  0
    4.5776    0.3613   -1.7482 O   0  0  0  0  0  0  0  0  0  0  0  0
    3.7298   -0.6259   -2.2049 C   0  0  0  0  0  0  0  0  0  0  0  0
    2.4867   -0.3394   -2.7610 C   0  0  0  0  0  0  0  0  0  0  0  0
    1.5869   -1.3712   -3.0181 C   0  0  0  0  0  0  0  0  0  0  0  0
    1.9371   -2.7071   -2.7919 C   0  0  0  0  0  0  0  0  0  0  0  0
    1.0225   -3.7794   -2.9404 N   0  0  0  0  0  0  0  0  0  0  0  0
   -0.3511   -3.6541   -3.1269 C   0  0  0  0  0  0  0  0  0  0  0  0
   -0.9378   -2.5785   -3.1540 O   0  0  0  0  0  0  0  0  0  0  0  0
   -1.0816   -4.8878   -3.2627 C   0  0  0  0  0  0  0  0  0  0  0  0
   -0.8908   -6.1187   -2.6582 C   0  0  0  0  0  0  0  0  0  0  0  0
   -2.0846   -6.8244   -2.8896 C   0  0  0  0  0  0  0  0  0  0  0  0
   -2.9524   -6.1264   -3.6164 N   0  0  0  0  0  0  0  0  0  0  0  0
   -2.2857   -4.9878   -3.9492 N   0  0  0  0  0  0  0  0  0  0  0  0
   -2.8332   -4.1182   -4.9344 C   0  0  0  0  0  0  0  0  0  0  0  0
   -4.2188   -4.0321   -5.0850 C   0  0  0  0  0  0  0  0  0  0  0  0
   -4.7149   -3.1430   -6.0244 C   0  0  0  0  0  0  0  0  0  0  0  0
   -3.9393   -2.3848   -6.8302 N   0  0  0  0  0  0  0  0  0  0  0  0
   -2.6046   -2.5136   -6.6862 C   0  0  0  0  0  0  0  0  0  0  0  0
   -2.0068   -3.3569   -5.7650 C   0  0  0  0  0  0  0  0  0  0  0  0
    3.2439   -2.9927   -2.3851 C   0  0  0  0  0  0  0  0  0  0  0  0
    4.1388   -1.9535   -2.0856 C   0  0  0  0  0  0  0  0  0  0  0  0
    7.2383    2.3374   -3.2029 H   0  0  0  0  0  0  0  0  0  0  0  0
    6.0511    1.1416   -2.7508 H   0  0  0  0  0  0  0  0  0  0  0  0
    4.5091    4.7370   -0.3836 H   0  0  0  0  0  0  0  0  0  0  0  0
    2.4278    4.4119    0.8907 H   0  0  0  0  0  0  0  0  0  0  0  0
    1.3754    2.1654    1.0011 H   0  0  0  0  0  0  0  0  0  0  0  0
    2.4189    0.2624   -0.1199 H   0  0  0  0  0  0  0  0  0  0  0  0
    2.1681    0.6863   -2.9276 H   0  0  0  0  0  0  0  0  0  0  0  0
    0.6061   -1.0760   -3.3779 H   0  0  0  0  0  0  0  0  0  0  0  0
    1.3924   -4.7130   -2.8277 H   0  0  0  0  0  0  0  0  0  0  0  0
   -0.0688   -6.4283   -2.0279 H   0  0  0  0  0  0  0  0  0  0  0  0
   -2.3697   -7.8043   -2.5302 H   0  0  0  0  0  0  0  0  0  0  0  0
   -4.9012   -4.5997   -4.4609 H   0  0  0  0  0  0  0  0  0  0  0  0
   -5.7846   -3.0041   -6.1530 H   0  0  0  0  0  0  0  0  0  0  0  0
   -2.0040   -1.9031   -7.3548 H   0  0  0  0  0  0  0  0  0  0  0  0
   -0.9255   -3.4141   -5.7340 H   0  0  0  0  0  0  0  0  0  0  0  0
    3.5744   -4.0189   -2.2494 H   0  0  0  0  0  0  0  0  0  0  0  0
    5.1342   -2.1868   -1.7157 H   0  0  0  0  0  0  0  0  0  0  0  0
  1  2  1  0  0  0  0
  1 31  1  0  0  0  0
  1 32  1  0  0  0  0
  2  3  2  0  0  0  0
  2  4  1  0  0  0  0
  4  5  2  0  0  0  0
  4  9  1  0  0  0  0
  5  6  1  0  0  0  0
  5 33  1  0  0  0  0
  6  7  2  0  0  0  0
  6 34  1  0  0  0  0
  7  8  1  0  0  0  0
  7 35  1  0  0  0  0
  8  9  2  0  0  0  0
  8 36  1  0  0  0  0
  9 10  1  0  0  0  0
 10 11  1  0  0  0  0
 11 12  2  0  0  0  0
 11 30  1  0  0  0  0
 12 13  1  0  0  0  0
 12 37  1  0  0  0  0
 13 14  2  0  0  0  0
 13 38  1  0  0  0  0
 14 15  1  0  0  0  0
 14 29  1  0  0  0  0
 15 16  1  0  0  0  0
 15 39  1  0  0  0  0
 16 17  2  0  0  0  0
 16 18  1  0  0  0  0
 18 19  2  0  0  0  0
 18 22  1  0  0  0  0
 19 20  1  0  0  0  0
 19 40  1  0  0  0  0
 20 21  2  0  0  0  0
 20 41  1  0  0  0  0
 21 22  1  0  0  0  0
 22 23  1  0  0  0  0
 23 24  2  0  0  0  0
 23 28  1  0  0  0  0
 24 25  1  0  0  0  0
 24 42  1  0  0  0  0
 25 26  2  0  0  0  0
 25 43  1  0  0  0  0
 26 27  1  0  0  0  0
 27 28  2  0  0  0  0
 27 44  1  0  0  0  0
 28 45  1  0  0  0  0
 29 30  2  0  0  0  0
 29 46  1  0  0  0  0
 30 47  1  0  0  0  0
M  END
$$$$
