
 OpenBabel01122422513D

 45 48  0  0  0  0  0  0  0  0999 V2000
    1.1864    0.7398    0.4903 O   0  0  0  0  0  0  0  0  0  0  0  0
    2.3035    0.3477    0.1663 C   0  0  0  0  0  0  0  0  0  0  0  0
    2.8544    0.3843   -1.1137 N   0  0  0  0  0  0  0  0  0  0  0  0
    2.1828    0.9244   -2.2387 C   0  0  0  0  0  0  0  0  0  0  0  0
    1.0965    1.7931   -2.0893 C   0  0  0  0  0  0  0  0  0  0  0  0
    0.3452    2.1925   -3.1852 C   0  0  0  0  0  0  0  0  0  0  0  0
    0.6800    1.7381   -4.4503 C   0  0  0  0  0  0  0  0  0  0  0  0
   -0.1553    2.0595   -5.4470 F   0  0  0  0  0  0  0  0  0  0  0  0
    1.8160    0.9502   -4.6539 C   0  0  0  0  0  0  0  0  0  0  0  0
    2.1815    0.4411   -6.0078 C   0  0  0  0  0  0  0  0  0  0  0  0
    2.7852   -0.6277   -6.0723 O   0  0  0  0  0  0  0  0  0  0  0  0
    1.8317    1.2078   -7.2060 C   0  0  0  0  0  0  0  0  0  0  0  0
    1.7491    2.5883   -7.3126 C   0  0  0  0  0  0  0  0  0  0  0  0
    1.3976    2.9137   -8.5935 N   0  0  0  0  0  0  0  0  0  0  0  0
    1.2474    1.7783   -9.3505 C   0  0  0  0  0  0  0  0  0  0  0  0
    0.8953    1.6373  -10.7002 C   0  0  0  0  0  0  0  0  0  0  0  0
    0.8117    0.3424  -11.2181 C   0  0  0  0  0  0  0  0  0  0  0  0
    1.0693   -0.7657  -10.4142 C   0  0  0  0  0  0  0  0  0  0  0  0
    1.4207   -0.6055   -9.0670 C   0  0  0  0  0  0  0  0  0  0  0  0
    1.5190    0.6919   -8.5155 C   0  0  0  0  0  0  0  0  0  0  0  0
    2.5774    0.5487   -3.5330 C   0  0  0  0  0  0  0  0  0  0  0  0
    3.1033   -0.2799    1.2297 C   0  0  0  0  0  0  0  0  0  0  0  0
    2.4534   -0.9916    2.2455 C   0  0  0  0  0  0  0  0  0  0  0  0
    3.1916   -1.5408    3.2967 C   0  0  0  0  0  0  0  0  0  0  0  0
    2.5754   -2.3563    4.3962 C   0  0  0  0  0  0  0  0  0  0  0  0
    1.2516   -1.9394    4.6980 O   0  0  0  0  0  0  0  0  0  0  0  0
    4.5676   -1.3623    3.2550 C   0  0  0  0  0  0  0  0  0  0  0  0
    5.2284   -0.6625    2.2951 N   0  0  0  0  0  0  0  0  0  0  0  0
    4.4756   -0.1227    1.3096 C   0  0  0  0  0  0  0  0  0  0  0  0
    3.6655   -0.1940   -1.3007 H   0  0  0  0  0  0  0  0  0  0  0  0
    0.7850    2.1597   -1.1170 H   0  0  0  0  0  0  0  0  0  0  0  0
   -0.5257    2.8260   -3.0445 H   0  0  0  0  0  0  0  0  0  0  0  0
    1.8876    3.3670   -6.5760 H   0  0  0  0  0  0  0  0  0  0  0  0
    1.2633    3.8539   -8.9383 H   0  0  0  0  0  0  0  0  0  0  0  0
    0.6990    2.4999  -11.3300 H   0  0  0  0  0  0  0  0  0  0  0  0
    0.5462    0.1989  -12.2633 H   0  0  0  0  0  0  0  0  0  0  0  0
    1.0026   -1.7664  -10.8344 H   0  0  0  0  0  0  0  0  0  0  0  0
    1.6178   -1.4778   -8.4495 H   0  0  0  0  0  0  0  0  0  0  0  0
    3.4411   -0.0962   -3.6847 H   0  0  0  0  0  0  0  0  0  0  0  0
    1.3688   -1.1086    2.2155 H   0  0  0  0  0  0  0  0  0  0  0  0
    3.1648   -2.2692    5.3152 H   0  0  0  0  0  0  0  0  0  0  0  0
    2.5457   -3.4106    4.1041 H   0  0  0  0  0  0  0  0  0  0  0  0
    1.2987   -1.0128    4.9901 H   0  0  0  0  0  0  0  0  0  0  0  0
    5.2159   -1.7847    4.0203 H   0  0  0  0  0  0  0  0  0  0  0  0
    5.0296    0.4738    0.5913 H   0  0  0  0  0  0  0  0  0  0  0  0
  1  2  2  0  0  0  0
  2  3  1  0  0  0  0
  2 22  1  0  0  0  0
  3  4  1  0  0  0  0
  3 30  1  0  0  0  0
  4  5  2  0  0  0  0
  4 21  1  0  0  0  0
  5  6  1  0  0  0  0
  5 31  1  0  0  0  0
  6  7  2  0  0  0  0
  6 32  1  0  0  0  0
  7  8  1  0  0  0  0
  7  9  1  0  0  0  0
  9 10  1  0  0  0  0
  9 21  2  0  0  0  0
 10 11  2  0  0  0  0
 10 12  1  0  0  0  0
 12 13  2  0  0  0  0
 12 20  1  0  0  0  0
 13 14  1  0  0  0  0
 13 33  1  0  0  0  0
 14 15  1  0  0  0  0
 14 34  1  0  0  0  0
 15 16  2  0  0  0  0
 15 20  1  0  0  0  0
 16 17  1  0  0  0  0
 16 35  1  0  0  0  0
 17 18  2  0  0  0  0
 17 36  1  0  0  0  0
 18 19  1  0  0  0  0
 18 37  1  0  0  0  0
 19 20  2  0  0  0  0
 19 38  1  0  0  0  0
 21 39  1  0  0  0  0
 22 23  2  0  0  0  0
 22 29  1  0  0  0  0
 23 24  1  0  0  0  0
 23 40  1  0  0  0  0
 24 25  1  0  0  0  0
 24 27  2  0  0  0  0
 25 26  1  0  0  0  0
 25 41  1  0  0  0  0
 25 42  1  0  0  0  0
 26 43  1  0  0  0  0
 27 28  1  0  0  0  0
 27 44  1  0  0  0  0
 28 29  2  0  0  0  0
 29 45  1  0  0  0  0
M  END
$$$$
