
 OpenBabel01122422513D

 44 47  0  0  0  0  0  0  0  0999 V2000
    2.2101    0.0972   -0.0201 C   0  0  0  0  0  0  0  0  0  0  0  0
    0.7610    0.0054   -0.0437 N   0  0  0  0  0  0  0  0  0  0  0  0
    0.0130   -1.1651   -0.1170 C   0  0  0  0  0  0  0  0  0  0  0  0
    0.5284   -2.5275   -0.1337 C   0  0  0  0  0  0  0  0  0  0  0  0
    1.5822   -2.8363    0.4127 O   0  0  0  0  0  0  0  0  0  0  0  0
   -0.2716   -3.4118   -0.8481 N   0  0  0  0  0  0  0  0  0  0  0  0
   -0.0902   -4.8042   -0.9676 C   0  0  0  0  0  0  0  0  0  0  0  0
    0.7696   -5.5314   -0.1341 C   0  0  0  0  0  0  0  0  0  0  0  0
    0.9268   -6.9115   -0.2876 C   0  0  0  0  0  0  0  0  0  0  0  0
    0.2196   -7.5815   -1.2770 C   0  0  0  0  0  0  0  0  0  0  0  0
    0.4245   -8.9359   -1.3770 O   0  0  0  0  0  0  0  0  0  0  0  0
   -0.2731   -9.6156   -2.3469 C   0  0  0  0  0  0  0  0  0  0  0  0
   -1.1304   -9.0743   -3.2143 C   0  0  0  0  0  0  0  0  0  0  0  0
   -1.3736   -7.6207   -3.1532 C   0  0  0  0  0  0  0  0  0  0  0  0
   -2.1362   -7.0722   -3.9372 O   0  0  0  0  0  0  0  0  0  0  0  0
   -0.6497   -6.8750   -2.1044 C   0  0  0  0  0  0  0  0  0  0  0  0
   -0.8204   -5.4917   -1.9482 C   0  0  0  0  0  0  0  0  0  0  0  0
   -1.3181   -0.7804   -0.1170 C   0  0  0  0  0  0  0  0  0  0  0  0
   -1.3723    0.6228   -0.1107 C   0  0  0  0  0  0  0  0  0  0  0  0
   -0.0793    1.1154   -0.0184 C   0  0  0  0  0  0  0  0  0  0  0  0
    0.3482    2.5131    0.0705 C   0  0  0  0  0  0  0  0  0  0  0  0
    1.4649    2.9008   -0.2678 O   0  0  0  0  0  0  0  0  0  0  0  0
   -0.6303    3.5418    0.5214 C   0  0  0  0  0  0  0  0  0  0  0  0
   -0.6790    4.7801   -0.1330 C   0  0  0  0  0  0  0  0  0  0  0  0
   -1.6741    5.7067    0.1983 C   0  0  0  0  0  0  0  0  0  0  0  0
   -2.6188    5.4037    1.1807 C   0  0  0  0  0  0  0  0  0  0  0  0
   -2.5367    4.1979    1.8725 C   0  0  0  0  0  0  0  0  0  0  0  0
   -1.5288    3.2897    1.5603 C   0  0  0  0  0  0  0  0  0  0  0  0
   -1.4559    2.1642    2.2850 F   0  0  0  0  0  0  0  0  0  0  0  0
    2.6696   -0.8625    0.2041 H   0  0  0  0  0  0  0  0  0  0  0  0
    2.5096    0.8021    0.7597 H   0  0  0  0  0  0  0  0  0  0  0  0
    2.5432    0.4365   -1.0044 H   0  0  0  0  0  0  0  0  0  0  0  0
   -1.0011   -2.9965   -1.4131 H   0  0  0  0  0  0  0  0  0  0  0  0
    1.3244   -5.0523    0.6654 H   0  0  0  0  0  0  0  0  0  0  0  0
    1.6046   -7.4512    0.3685 H   0  0  0  0  0  0  0  0  0  0  0  0
   -0.0304  -10.6693   -2.3193 H   0  0  0  0  0  0  0  0  0  0  0  0
   -1.6536   -9.6479   -3.9669 H   0  0  0  0  0  0  0  0  0  0  0  0
   -1.5036   -4.9636   -2.6099 H   0  0  0  0  0  0  0  0  0  0  0  0
   -2.1725   -1.4455   -0.1066 H   0  0  0  0  0  0  0  0  0  0  0  0
   -2.2783    1.2148   -0.1261 H   0  0  0  0  0  0  0  0  0  0  0  0
    0.0420    5.0190   -0.9125 H   0  0  0  0  0  0  0  0  0  0  0  0
   -1.7219    6.6620   -0.3202 H   0  0  0  0  0  0  0  0  0  0  0  0
   -3.4118    6.1102    1.4148 H   0  0  0  0  0  0  0  0  0  0  0  0
   -3.2534    3.9518    2.6504 H   0  0  0  0  0  0  0  0  0  0  0  0
  1  2  1  0  0  0  0
  1 30  1  0  0  0  0
  1 31  1  0  0  0  0
  1 32  1  0  0  0  0
  2  3  1  0  0  0  0
  2 20  1  0  0  0  0
  3  4  1  0  0  0  0
  3 18  2  0  0  0  0
  4  5  2  0  0  0  0
  4  6  1  0  0  0  0
  6  7  1  0  0  0  0
  6 33  1  0  0  0  0
  7  8  2  0  0  0  0
  7 17  1  0  0  0  0
  8  9  1  0  0  0  0
  8 34  1  0  0  0  0
  9 10  2  0  0  0  0
  9 35  1  0  0  0  0
 10 11  1  0  0  0  0
 10 16  1  0  0  0  0
 11 12  1  0  0  0  0
 12 13  2  0  0  0  0
 12 36  1  0  0  0  0
 13 14  1  0  0  0  0
 13 37  1  0  0  0  0
 14 15  2  0  0  0  0
 14 16  1  0  0  0  0
 16 17  2  0  0  0  0
 17 38  1  0  0  0  0
 18 19  1  0  0  0  0
 18 39  1  0  0  0  0
 19 20  2  0  0  0  0
 19 40  1  0  0  0  0
 20 21  1  0  0  0  0
 21 22  2  0  0  0  0
 21 23  1  0  0  0  0
 23 24  2  0  0  0  0
 23 28  1  0  0  0  0
 24 25  1  0  0  0  0
 24 41  1  0  0  0  0
 25 26  2  0  0  0  0
 25 42  1  0  0  0  0
 26 27  1  0  0  0  0
 26 43  1  0  0  0  0
 27 28  2  0  0  0  0
 27 44  1  0  0  0  0
 28 29  1  0  0  0  0
M  END
$$$$
