
 OpenBabel01122422513D

 47 50  0  0  0  0  0  0  0  0999 V2000
    1.0322   -0.0990    0.0917 O   0  0  0  0  0  0  0  0  0  0  0  0
    2.2437    0.0452    0.0003 C   0  0  0  0  0  0  0  0  0  0  0  0
    2.9295   -0.0097   -1.1848 N   0  0  0  0  0  0  0  0  0  0  0  0
    2.2600   -0.2678   -2.4368 C   0  0  0  0  0  0  0  0  0  0  0  0
    3.0414    0.3630   -3.5558 C   0  0  0  0  0  0  0  0  0  0  0  0
    2.7483    1.6679   -3.9619 C   0  0  0  0  0  0  0  0  0  0  0  0
    3.5063    2.2758   -4.9562 C   0  0  0  0  0  0  0  0  0  0  0  0
    4.5742    1.5902   -5.5413 C   0  0  0  0  0  0  0  0  0  0  0  0
    4.9222    0.2878   -5.1389 C   0  0  0  0  0  0  0  0  0  0  0  0
    6.0902   -0.4125   -5.7171 C   0  0  0  0  0  0  0  0  0  0  0  0
    6.1162   -1.8012   -5.9152 C   0  0  0  0  0  0  0  0  0  0  0  0
    7.2482   -2.4268   -6.4402 C   0  0  0  0  0  0  0  0  0  0  0  0
    8.3383   -1.6433   -6.7706 C   0  0  0  0  0  0  0  0  0  0  0  0
    8.3690   -0.3069   -6.6076 N   0  0  0  0  0  0  0  0  0  0  0  0
    7.2556    0.2671   -6.0861 C   0  0  0  0  0  0  0  0  0  0  0  0
    4.1289   -0.3098   -4.1404 C   0  0  0  0  0  0  0  0  0  0  0  0
    3.0910    0.2214    1.1679 C   0  0  0  0  0  0  0  0  0  0  0  0
    2.8149   -0.2065    2.4631 C   0  0  0  0  0  0  0  0  0  0  0  0
    1.6424   -0.9718    2.9341 C   0  0  0  0  0  0  0  0  0  0  0  0
    2.0257   -2.0712    3.6354 F   0  0  0  0  0  0  0  0  0  0  0  0
    0.8682   -0.2249    3.7633 F   0  0  0  0  0  0  0  0  0  0  0  0
    3.9276    0.1056    3.2333 N   0  0  0  0  0  0  0  0  0  0  0  0
    4.2323   -0.1161    4.6116 C   0  0  0  0  0  0  0  0  0  0  0  0
    5.5796   -0.1061    5.0051 C   0  0  0  0  0  0  0  0  0  0  0  0
    5.8908   -0.3418    6.3338 C   0  0  0  0  0  0  0  0  0  0  0  0
    4.9667   -0.5594    7.2894 N   0  0  0  0  0  0  0  0  0  0  0  0
    3.6769   -0.5357    6.8968 C   0  0  0  0  0  0  0  0  0  0  0  0
    3.2633   -0.3226    5.5886 C   0  0  0  0  0  0  0  0  0  0  0  0
    4.8852    0.7083    2.4687 N   0  0  0  0  0  0  0  0  0  0  0  0
    4.3531    0.8223    1.2591 C   0  0  0  0  0  0  0  0  0  0  0  0
    3.9359   -0.0999   -1.1742 H   0  0  0  0  0  0  0  0  0  0  0  0
    1.2333    0.1139   -2.4092 H   0  0  0  0  0  0  0  0  0  0  0  0
    2.1961   -1.3543   -2.5719 H   0  0  0  0  0  0  0  0  0  0  0  0
    1.9323    2.2191   -3.4984 H   0  0  0  0  0  0  0  0  0  0  0  0
    3.2719    3.2890   -5.2737 H   0  0  0  0  0  0  0  0  0  0  0  0
    5.1333    2.0971   -6.3257 H   0  0  0  0  0  0  0  0  0  0  0  0
    5.2524   -2.4149   -5.6724 H   0  0  0  0  0  0  0  0  0  0  0  0
    7.2747   -3.5005   -6.5887 H   0  0  0  0  0  0  0  0  0  0  0  0
    9.2411   -2.0817   -7.1856 H   0  0  0  0  0  0  0  0  0  0  0  0
    7.3458    1.3429   -5.9568 H   0  0  0  0  0  0  0  0  0  0  0  0
    4.3717   -1.3103   -3.7853 H   0  0  0  0  0  0  0  0  0  0  0  0
    1.0022   -1.3262    2.1273 H   0  0  0  0  0  0  0  0  0  0  0  0
    6.3869    0.0518    4.2956 H   0  0  0  0  0  0  0  0  0  0  0  0
    6.9232   -0.3666    6.6706 H   0  0  0  0  0  0  0  0  0  0  0  0
    2.9503   -0.6897    7.6903 H   0  0  0  0  0  0  0  0  0  0  0  0
    2.2010   -0.2874    5.4055 H   0  0  0  0  0  0  0  0  0  0  0  0
    4.9266    1.3216    0.4867 H   0  0  0  0  0  0  0  0  0  0  0  0
  1  2  2  0  0  0  0
  2  3  1  0  0  0  0
  2 17  1  0  0  0  0
  3  4  1  0  0  0  0
  3 31  1  0  0  0  0
  4  5  1  0  0  0  0
  4 32  1  0  0  0  0
  4 33  1  0  0  0  0
  5  6  2  0  0  0  0
  5 16  1  0  0  0  0
  6  7  1  0  0  0  0
  6 34  1  0  0  0  0
  7  8  2  0  0  0  0
  7 35  1  0  0  0  0
  8  9  1  0  0  0  0
  8 36  1  0  0  0  0
  9 10  1  0  0  0  0
  9 16  2  0  0  0  0
 10 11  2  0  0  0  0
 10 15  1  0  0  0  0
 11 12  1  0  0  0  0
 11 37  1  0  0  0  0
 12 13  2  0  0  0  0
 12 38  1  0  0  0  0
 13 14  1  0  0  0  0
 13 39  1  0  0  0  0
 14 15  2  0  0  0  0
 15 40  1  0  0  0  0
 16 41  1  0  0  0  0
 17 18  2  0  0  0  0
 17 30  1  0  0  0  0
 18 19  1  0  0  0  0
 18 22  1  0  0  0  0
 19 20  1  0  0  0  0
 19 21  1  0  0  0  0
 19 42  1  0  0  0  0
 22 23  1  0  0  0  0
 22 29  1  0  0  0  0
 23 24  2  0  0  0  0
 23 28  1  0  0  0  0
 24 25  1  0  0  0  0
 24 43  1  0  0  0  0
 25 26  2  0  0  0  0
 25 44  1  0  0  0  0
 26 27  1  0  0  0  0
 27 28  2  0  0  0  0
 27 45  1  0  0  0  0
 28 46  1  0  0  0  0
 29 30  2  0  0  0  0
 30 47  1  0  0  0  0
M  END
$$$$
