
 OpenBabel01122422463D

 40 43  0  0  0  0  0  0  0  0999 V2000
    0.9835   -0.0837   -0.2681 O   0  0  0  0  0  0  0  0  0  0  0  0
    2.2022    0.0319   -0.1322 C   0  0  0  0  0  0  0  0  0  0  0  0
    2.9906    0.4373   -1.1851 N   0  0  0  0  0  0  0  0  0  0  0  0
    2.3776    0.6951   -2.4709 C   0  0  0  0  0  0  0  0  0  0  0  0
    3.3635    1.1396   -3.4811 C   0  0  0  0  0  0  0  0  0  0  0  0
    4.6640    1.3216   -3.3821 N   0  0  0  0  0  0  0  0  0  0  0  0
    5.0921    1.7258   -4.6315 N   0  0  0  0  0  0  0  0  0  0  0  0
    4.0263    1.7592   -5.4084 C   0  0  0  0  0  0  0  0  0  0  0  0
    3.9050    2.0656   -6.8295 C   0  0  0  0  0  0  0  0  0  0  0  0
    5.0523    2.3890   -7.5706 C   0  0  0  0  0  0  0  0  0  0  0  0
    4.9739    2.6334   -8.9445 C   0  0  0  0  0  0  0  0  0  0  0  0
    3.7447    2.5634   -9.5959 C   0  0  0  0  0  0  0  0  0  0  0  0
    2.5923    2.2642   -8.8725 C   0  0  0  0  0  0  0  0  0  0  0  0
    2.6710    2.0199   -7.4979 C   0  0  0  0  0  0  0  0  0  0  0  0
    2.8836    1.4011   -4.7379 O   0  0  0  0  0  0  0  0  0  0  0  0
    2.8698   -0.2668    1.1075 C   0  0  0  0  0  0  0  0  0  0  0  0
    2.3710   -0.7740    2.2825 C   0  0  0  0  0  0  0  0  0  0  0  0
    3.4888   -0.9149    3.1429 C   0  0  0  0  0  0  0  0  0  0  0  0
    3.5024   -1.4947    4.4825 C   0  0  0  0  0  0  0  0  0  0  0  0
    2.6323   -2.5470    4.8043 C   0  0  0  0  0  0  0  0  0  0  0  0
    1.7821   -3.0362    3.8883 F   0  0  0  0  0  0  0  0  0  0  0  0
    2.6194   -3.1310    6.0681 C   0  0  0  0  0  0  0  0  0  0  0  0
    3.4916   -2.6579    7.0357 C   0  0  0  0  0  0  0  0  0  0  0  0
    3.4865   -3.2143    8.2536 F   0  0  0  0  0  0  0  0  0  0  0  0
    4.3638   -1.6155    6.7595 C   0  0  0  0  0  0  0  0  0  0  0  0
    4.3641   -1.0405    5.4874 C   0  0  0  0  0  0  0  0  0  0  0  0
    5.1996   -0.0146    5.2694 F   0  0  0  0  0  0  0  0  0  0  0  0
    4.5959   -0.4667    2.5272 N   0  0  0  0  0  0  0  0  0  0  0  0
    4.2069   -0.0701    1.2565 O   0  0  0  0  0  0  0  0  0  0  0  0
    4.0008    0.4899   -1.0841 H   0  0  0  0  0  0  0  0  0  0  0  0
    1.6052    1.4605   -2.3359 H   0  0  0  0  0  0  0  0  0  0  0  0
    1.8863   -0.2260   -2.8059 H   0  0  0  0  0  0  0  0  0  0  0  0
    6.0236    2.4418   -7.0802 H   0  0  0  0  0  0  0  0  0  0  0  0
    5.8745    2.8702   -9.5059 H   0  0  0  0  0  0  0  0  0  0  0  0
    3.6853    2.7405  -10.6670 H   0  0  0  0  0  0  0  0  0  0  0  0
    1.6317    2.2131   -9.3798 H   0  0  0  0  0  0  0  0  0  0  0  0
    1.7562    1.7830   -6.9588 H   0  0  0  0  0  0  0  0  0  0  0  0
    1.3405   -1.0393    2.4679 H   0  0  0  0  0  0  0  0  0  0  0  0
    1.9383   -3.9455    6.2888 H   0  0  0  0  0  0  0  0  0  0  0  0
    5.0366   -1.2477    7.5269 H   0  0  0  0  0  0  0  0  0  0  0  0
  1  2  2  0  0  0  0
  2  3  1  0  0  0  0
  2 16  1  0  0  0  0
  3  4  1  0  0  0  0
  3 30  1  0  0  0  0
  4  5  1  0  0  0  0
  4 31  1  0  0  0  0
  4 32  1  0  0  0  0
  5  6  2  0  0  0  0
  5 15  1  0  0  0  0
  6  7  1  0  0  0  0
  7  8  2  0  0  0  0
  8  9  1  0  0  0  0
  8 15  1  0  0  0  0
  9 10  2  0  0  0  0
  9 14  1  0  0  0  0
 10 11  1  0  0  0  0
 10 33  1  0  0  0  0
 11 12  2  0  0  0  0
 11 34  1  0  0  0  0
 12 13  1  0  0  0  0
 12 35  1  0  0  0  0
 13 14  2  0  0  0  0
 13 36  1  0  0  0  0
 14 37  1  0  0  0  0
 16 17  2  0  0  0  0
 16 29  1  0  0  0  0
 17 18  1  0  0  0  0
 17 38  1  0  0  0  0
 18 19  1  0  0  0  0
 18 28  2  0  0  0  0
 19 20  2  0  0  0  0
 19 26  1  0  0  0  0
 20 21  1  0  0  0  0
 20 22  1  0  0  0  0
 22 23  2  0  0  0  0
 22 39  1  0  0  0  0
 23 24  1  0  0  0  0
 23 25  1  0  0  0  0
 25 26  2  0  0  0  0
 25 40  1  0  0  0  0
 26 27  1  0  0  0  0
 28 29  1  0  0  0  0
M  END
$$$$
