
 OpenBabel01122422513D

 42 45  0  0  0  0  0  0  0  0999 V2000
    5.1260   -1.8780    1.7330 O   0  0  0  0  0  0  0  0  0  0  0  0
    4.6011   -1.2383    0.8215 C   0  0  0  0  0  0  0  0  0  0  0  0
    3.3058   -1.4557    0.4274 N   0  0  0  0  0  0  0  0  0  0  0  0
    2.4414   -2.3016    1.1107 C   0  0  0  0  0  0  0  0  0  0  0  0
    2.5420   -2.6069    2.4158 C   0  0  0  0  0  0  0  0  0  0  0  0
    1.6860   -3.5787    3.0309 C   0  0  0  0  0  0  0  0  0  0  0  0
    0.7829   -4.2249    2.2938 C   0  0  0  0  0  0  0  0  0  0  0  0
    0.5903   -3.9337    0.9479 N   0  0  0  0  0  0  0  0  0  0  0  0
   -0.3144   -4.7114    0.1680 C   0  0  0  0  0  0  0  0  0  0  0  0
   -0.2668   -6.1115    0.2354 C   0  0  0  0  0  0  0  0  0  0  0  0
   -1.0758   -6.8823   -0.5992 C   0  0  0  0  0  0  0  0  0  0  0  0
   -1.9673   -6.2604   -1.4717 C   0  0  0  0  0  0  0  0  0  0  0  0
   -2.0530   -4.8700   -1.5109 C   0  0  0  0  0  0  0  0  0  0  0  0
   -1.2208   -4.0970   -0.7023 C   0  0  0  0  0  0  0  0  0  0  0  0
    1.3434   -2.9341    0.2977 C   0  0  0  0  0  0  0  0  0  0  0  0
    1.2461   -2.5902   -0.8840 O   0  0  0  0  0  0  0  0  0  0  0  0
    5.3966   -0.1741    0.1258 C   0  0  0  0  0  0  0  0  0  0  0  0
    6.5448    0.0803    0.7870 C   0  0  0  0  0  0  0  0  0  0  0  0
    7.3801    1.1408    0.4012 C   0  0  0  0  0  0  0  0  0  0  0  0
    8.4666    1.5861    0.9750 N   0  0  0  0  0  0  0  0  0  0  0  0
    8.8331    2.7097    0.2707 C   0  0  0  0  0  0  0  0  0  0  0  0
    9.9916    3.5349    0.7387 C   0  0  0  0  0  0  0  0  0  0  0  0
   10.5496    3.0518    1.8809 F   0  0  0  0  0  0  0  0  0  0  0  0
   10.9845    3.5956   -0.1867 F   0  0  0  0  0  0  0  0  0  0  0  0
    9.6200    4.8162    1.0033 F   0  0  0  0  0  0  0  0  0  0  0  0
    7.9602    2.8869   -0.8053 C   0  0  0  0  0  0  0  0  0  0  0  0
    7.0101    1.8936   -0.6961 N   0  0  0  0  0  0  0  0  0  0  0  0
    5.8549    1.6223   -1.4396 C   0  0  0  0  0  0  0  0  0  0  0  0
    5.0376    0.6128   -1.0572 C   0  0  0  0  0  0  0  0  0  0  0  0
    3.0122   -1.2047   -0.5136 H   0  0  0  0  0  0  0  0  0  0  0  0
    3.2962   -2.1683    3.0614 H   0  0  0  0  0  0  0  0  0  0  0  0
    1.8272   -3.7988    4.0854 H   0  0  0  0  0  0  0  0  0  0  0  0
    0.1390   -4.9776    2.7409 H   0  0  0  0  0  0  0  0  0  0  0  0
    0.4516   -6.6131    0.8790 H   0  0  0  0  0  0  0  0  0  0  0  0
   -0.9914   -7.9653   -0.5854 H   0  0  0  0  0  0  0  0  0  0  0  0
   -2.5882   -6.8600   -2.1313 H   0  0  0  0  0  0  0  0  0  0  0  0
   -2.7545   -4.3832   -2.1824 H   0  0  0  0  0  0  0  0  0  0  0  0
   -1.2936   -3.0133   -0.7470 H   0  0  0  0  0  0  0  0  0  0  0  0
    6.8557   -0.4607    1.6760 H   0  0  0  0  0  0  0  0  0  0  0  0
    7.9161    3.6405   -1.5785 H   0  0  0  0  0  0  0  0  0  0  0  0
    5.6590    2.2541   -2.2988 H   0  0  0  0  0  0  0  0  0  0  0  0
    4.1360    0.3857   -1.6155 H   0  0  0  0  0  0  0  0  0  0  0  0
  1  2  2  0  0  0  0
  2  3  1  0  0  0  0
  2 17  1  0  0  0  0
  3  4  1  0  0  0  0
  3 30  1  0  0  0  0
  4  5  2  0  0  0  0
  4 15  1  0  0  0  0
  5  6  1  0  0  0  0
  5 31  1  0  0  0  0
  6  7  2  0  0  0  0
  6 32  1  0  0  0  0
  7  8  1  0  0  0  0
  7 33  1  0  0  0  0
  8  9  1  0  0  0  0
  8 15  1  0  0  0  0
  9 10  2  0  0  0  0
  9 14  1  0  0  0  0
 10 11  1  0  0  0  0
 10 34  1  0  0  0  0
 11 12  2  0  0  0  0
 11 35  1  0  0  0  0
 12 13  1  0  0  0  0
 12 36  1  0  0  0  0
 13 14  2  0  0  0  0
 13 37  1  0  0  0  0
 14 38  1  0  0  0  0
 15 16  2  0  0  0  0
 17 18  2  0  0  0  0
 17 29  1  0  0  0  0
 18 19  1  0  0  0  0
 18 39  1  0  0  0  0
 19 20  2  0  0  0  0
 19 27  1  0  0  0  0
 20 21  1  0  0  0  0
 21 22  1  0  0  0  0
 21 26  2  0  0  0  0
 22 23  1  0  0  0  0
 22 24  1  0  0  0  0
 22 25  1  0  0  0  0
 26 27  1  0  0  0  0
 26 40  1  0  0  0  0
 27 28  1  0  0  0  0
 28 29  2  0  0  0  0
 28 41  1  0  0  0  0
 29 42  1  0  0  0  0
M  END
$$$$
