
 OpenBabel01122422513D

 42 45  0  0  0  0  0  0  0  0999 V2000
    0.8645   -0.1429    0.1298 O   0  0  0  0  0  0  0  0  0  0  0  0
    2.0767   -0.1940   -0.0746 C   0  0  0  0  0  0  0  0  0  0  0  0
    2.6498   -0.3619   -1.3115 N   0  0  0  0  0  0  0  0  0  0  0  0
    1.9175   -0.5319   -2.4565 C   0  0  0  0  0  0  0  0  0  0  0  0
    0.6114   -0.7787   -2.5567 N   0  0  0  0  0  0  0  0  0  0  0  0
    0.3932   -0.7698   -3.8852 N   0  0  0  0  0  0  0  0  0  0  0  0
   -0.9084   -0.9347   -4.4322 C   0  0  0  0  0  0  0  0  0  0  0  0
   -1.9848   -1.2486   -3.5841 C   0  0  0  0  0  0  0  0  0  0  0  0
   -3.2635   -1.4133   -4.1150 C   0  0  0  0  0  0  0  0  0  0  0  0
   -4.2806   -1.7238   -3.3019 F   0  0  0  0  0  0  0  0  0  0  0  0
   -3.5022   -1.2622   -5.4739 C   0  0  0  0  0  0  0  0  0  0  0  0
   -2.4376   -0.9443   -6.3052 C   0  0  0  0  0  0  0  0  0  0  0  0
   -2.6553   -0.7824   -7.6171 F   0  0  0  0  0  0  0  0  0  0  0  0
   -1.1437   -0.7835   -5.8061 C   0  0  0  0  0  0  0  0  0  0  0  0
    1.5866   -0.5691   -4.5274 C   0  0  0  0  0  0  0  0  0  0  0  0
    2.5664   -0.4503   -3.6598 N   0  0  0  0  0  0  0  0  0  0  0  0
    2.9771   -0.0566    1.1199 C   0  0  0  0  0  0  0  0  0  0  0  0
    2.3045    0.1046    2.3529 C   0  0  0  0  0  0  0  0  0  0  0  0
    2.9899    0.1987    3.5639 C   0  0  0  0  0  0  0  0  0  0  0  0
    4.3663    0.0547    3.5804 C   0  0  0  0  0  0  0  0  0  0  0  0
    5.0504   -0.1329    2.3817 C   0  0  0  0  0  0  0  0  0  0  0  0
    4.3814   -0.0881    1.1366 C   0  0  0  0  0  0  0  0  0  0  0  0
    5.1122   -0.0434   -0.0441 O   0  0  0  0  0  0  0  0  0  0  0  0
    6.3211    0.6407   -0.0106 C   0  0  0  0  0  0  0  0  0  0  0  0
    7.4082    0.0748   -0.6659 C   0  0  0  0  0  0  0  0  0  0  0  0
    8.6455    0.6816   -0.5046 C   0  0  0  0  0  0  0  0  0  0  0  0
    8.8548    1.7846    0.2503 N   0  0  0  0  0  0  0  0  0  0  0  0
    7.7724    2.3393    0.8308 C   0  0  0  0  0  0  0  0  0  0  0  0
    6.4916    1.8366    0.6931 C   0  0  0  0  0  0  0  0  0  0  0  0
    3.6451   -0.2747   -1.4480 H   0  0  0  0  0  0  0  0  0  0  0  0
   -1.8475   -1.3770   -2.5125 H   0  0  0  0  0  0  0  0  0  0  0  0
   -4.5010   -1.3878   -5.8759 H   0  0  0  0  0  0  0  0  0  0  0  0
   -0.3651   -0.5242   -6.5159 H   0  0  0  0  0  0  0  0  0  0  0  0
    1.6920   -0.5266   -5.6032 H   0  0  0  0  0  0  0  0  0  0  0  0
    1.2160    0.1673    2.3787 H   0  0  0  0  0  0  0  0  0  0  0  0
    2.4405    0.3610    4.4873 H   0  0  0  0  0  0  0  0  0  0  0  0
    4.9129    0.1064    4.5184 H   0  0  0  0  0  0  0  0  0  0  0  0
    6.1312   -0.2546    2.4304 H   0  0  0  0  0  0  0  0  0  0  0  0
    7.3144   -0.8292   -1.2555 H   0  0  0  0  0  0  0  0  0  0  0  0
    9.5366    0.2789   -0.9775 H   0  0  0  0  0  0  0  0  0  0  0  0
    7.9670    3.2106    1.4504 H   0  0  0  0  0  0  0  0  0  0  0  0
    5.6664    2.3302    1.1928 H   0  0  0  0  0  0  0  0  0  0  0  0
  1  2  2  0  0  0  0
  2  3  1  0  0  0  0
  2 17  1  0  0  0  0
  3  4  1  0  0  0  0
  3 30  1  0  0  0  0
  4  5  2  0  0  0  0
  4 16  1  0  0  0  0
  5  6  1  0  0  0  0
  6  7  1  0  0  0  0
  6 15  1  0  0  0  0
  7  8  2  0  0  0  0
  7 14  1  0  0  0  0
  8  9  1  0  0  0  0
  8 31  1  0  0  0  0
  9 10  1  0  0  0  0
  9 11  2  0  0  0  0
 11 12  1  0  0  0  0
 11 32  1  0  0  0  0
 12 13  1  0  0  0  0
 12 14  2  0  0  0  0
 14 33  1  0  0  0  0
 15 16  2  0  0  0  0
 15 34  1  0  0  0  0
 17 18  2  0  0  0  0
 17 22  1  0  0  0  0
 18 19  1  0  0  0  0
 18 35  1  0  0  0  0
 19 20  2  0  0  0  0
 19 36  1  0  0  0  0
 20 21  1  0  0  0  0
 20 37  1  0  0  0  0
 21 22  2  0  0  0  0
 21 38  1  0  0  0  0
 22 23  1  0  0  0  0
 23 24  1  0  0  0  0
 24 25  2  0  0  0  0
 24 29  1  0  0  0  0
 25 26  1  0  0  0  0
 25 39  1  0  0  0  0
 26 27  2  0  0  0  0
 26 40  1  0  0  0  0
 27 28  1  0  0  0  0
 28 29  2  0  0  0  0
 28 41  1  0  0  0  0
 29 42  1  0  0  0  0
M  END
$$$$
