
 OpenBabel01122422513D

 49 52  0  0  1  0  0  0  0  0999 V2000
    3.2049   -2.1160    0.9009 O   0  0  0  0  0  0  0  0  0  0  0  0
    3.6088   -1.1471    0.2531 C   0  0  0  0  0  0  0  0  0  0  0  0
    3.2937   -1.0223   -1.0765 N   0  0  0  0  0  0  0  0  0  0  0  0
    2.5149   -2.1457   -1.6264 C   0  0  3  0  0  0  0  0  0  0  0  0
    1.5879   -1.7339   -2.7770 C   0  0  0  0  0  0  0  0  0  0  0  0
    1.6296   -2.2494   -3.8979 O   0  0  0  0  0  0  0  0  0  0  0  0
    0.5127   -0.7079   -2.4486 C   0  0  0  0  0  0  0  0  0  0  0  0
   -0.7786   -1.2959   -1.9263 C   0  0  0  0  0  0  0  0  0  0  0  0
   -1.2947   -0.8943   -0.6849 C   0  0  0  0  0  0  0  0  0  0  0  0
   -2.5210   -1.3867   -0.2275 C   0  0  0  0  0  0  0  0  0  0  0  0
   -3.2476   -2.2859   -1.0046 C   0  0  0  0  0  0  0  0  0  0  0  0
   -2.7471   -2.6933   -2.2390 C   0  0  0  0  0  0  0  0  0  0  0  0
   -1.5218   -2.2007   -2.6986 C   0  0  0  0  0  0  0  0  0  0  0  0
    3.4469   -3.3127   -1.9185 C   0  0  0  0  0  0  0  0  0  0  0  0
    3.3570   -4.5014   -1.1690 C   0  0  0  0  0  0  0  0  0  0  0  0
    4.2608   -5.5440   -1.3766 C   0  0  0  0  0  0  0  0  0  0  0  0
    5.2702   -5.4066   -2.3258 C   0  0  0  0  0  0  0  0  0  0  0  0
    5.3809   -4.2276   -3.0611 C   0  0  0  0  0  0  0  0  0  0  0  0
    4.4753   -3.1871   -2.8602 C   0  0  0  0  0  0  0  0  0  0  0  0
    4.3617   -0.1199    1.0158 C   0  0  0  0  0  0  0  0  0  0  0  0
    3.9500   -0.1227    2.3387 C   0  0  0  0  0  0  0  0  0  0  0  0
    4.6451    0.4970    3.3250 C   0  0  0  0  0  0  0  0  0  0  0  0
    4.1876    0.2450    4.5492 N   0  0  0  0  0  0  0  0  0  0  0  0
    4.9077    0.7502    5.5519 C   0  0  0  0  0  0  0  0  0  0  0  0
    6.0167    1.5377    5.3156 C   0  0  0  0  0  0  0  0  0  0  0  0
    6.7235    2.0588    6.3621 O   0  0  0  0  0  0  0  0  0  0  0  0
    6.4695    1.8276    4.0695 N   0  0  0  0  0  0  0  0  0  0  0  0
    5.7823    1.2765    3.0274 C   0  0  0  0  0  0  0  0  0  0  0  0
    6.1359    1.3831    1.6645 C   0  0  0  0  0  0  0  0  0  0  0  0
    5.4419    0.6796    0.6493 C   0  0  0  0  0  0  0  0  0  0  0  0
    3.8602   -0.4493   -1.6874 H   0  0  0  0  0  0  0  0  0  0  0  0
    1.8075   -2.4773   -0.8506 H   0  0  0  0  0  0  0  0  0  0  0  0
    0.2995   -0.1405   -3.3627 H   0  0  0  0  0  0  0  0  0  0  0  0
    0.9213    0.0197   -1.7387 H   0  0  0  0  0  0  0  0  0  0  0  0
   -0.7552   -0.1831   -0.0632 H   0  0  0  0  0  0  0  0  0  0  0  0
   -2.9131   -1.0623    0.7337 H   0  0  0  0  0  0  0  0  0  0  0  0
   -4.2040   -2.6638   -0.6509 H   0  0  0  0  0  0  0  0  0  0  0  0
   -3.3158   -3.3903   -2.8504 H   0  0  0  0  0  0  0  0  0  0  0  0
   -1.1584   -2.5217   -3.6738 H   0  0  0  0  0  0  0  0  0  0  0  0
    2.6031   -4.6097   -0.3894 H   0  0  0  0  0  0  0  0  0  0  0  0
    4.1853   -6.4550   -0.7880 H   0  0  0  0  0  0  0  0  0  0  0  0
    5.9760   -6.2161   -2.4885 H   0  0  0  0  0  0  0  0  0  0  0  0
    6.1759   -4.1148   -3.7920 H   0  0  0  0  0  0  0  0  0  0  0  0
    4.5784   -2.2722   -3.4364 H   0  0  0  0  0  0  0  0  0  0  0  0
    3.0909   -0.7200    2.6435 H   0  0  0  0  0  0  0  0  0  0  0  0
    4.5551    0.4857    6.5396 H   0  0  0  0  0  0  0  0  0  0  0  0
    6.2835    1.7750    7.1818 H   0  0  0  0  0  0  0  0  0  0  0  0
    7.0062    1.9875    1.4093 H   0  0  0  0  0  0  0  0  0  0  0  0
    5.8005    0.7330   -0.3802 H   0  0  0  0  0  0  0  0  0  0  0  0
  1  2  2  0  0  0  0
  2  3  1  0  0  0  0
  2 20  1  0  0  0  0
  3  4  1  0  0  0  0
  3 31  1  0  0  0  0
  4  5  1  0  0  0  0
  4 14  1  0  0  0  0
  4 32  1  0  0  0  0
  5  6  2  0  0  0  0
  5  7  1  0  0  0  0
  7  8  1  0  0  0  0
  7 33  1  0  0  0  0
  7 34  1  0  0  0  0
  8  9  2  0  0  0  0
  8 13  1  0  0  0  0
  9 10  1  0  0  0  0
  9 35  1  0  0  0  0
 10 11  2  0  0  0  0
 10 36  1  0  0  0  0
 11 12  1  0  0  0  0
 11 37  1  0  0  0  0
 12 13  2  0  0  0  0
 12 38  1  0  0  0  0
 13 39  1  0  0  0  0
 14 15  2  0  0  0  0
 14 19  1  0  0  0  0
 15 16  1  0  0  0  0
 15 40  1  0  0  0  0
 16 17  2  0  0  0  0
 16 41  1  0  0  0  0
 17 18  1  0  0  0  0
 17 42  1  0  0  0  0
 18 19  2  0  0  0  0
 18 43  1  0  0  0  0
 19 44  1  0  0  0  0
 20 21  2  0  0  0  0
 20 30  1  0  0  0  0
 21 22  1  0  0  0  0
 21 45  1  0  0  0  0
 22 23  2  0  0  0  0
 22 28  1  0  0  0  0
 23 24  1  0  0  0  0
 24 25  2  0  0  0  0
 24 46  1  0  0  0  0
 25 26  1  0  0  0  0
 25 27  1  0  0  0  0
 26 47  1  0  0  0  0
 27 28  2  0  0  0  0
 28 29  1  0  0  0  0
 29 30  2  0  0  0  0
 29 48  1  0  0  0  0
 30 49  1  0  0  0  0
M  END
$$$$
