
 OpenBabel01122422513D

 44 47  0  0  0  0  0  0  0  0999 V2000
   -2.8914    1.9945    1.1188 C   0  0  0  0  0  0  0  0  0  0  0  0
   -1.5094    1.7839    0.7261 N   0  0  0  0  0  0  0  0  0  0  0  0
   -0.6594    2.8656    0.6091 C   0  0  0  0  0  0  0  0  0  0  0  0
    0.6419    2.7213    0.3430 C   0  0  0  0  0  0  0  0  0  0  0  0
    1.1952    1.3782    0.1851 C   0  0  0  0  0  0  0  0  0  0  0  0
    2.5708    1.1981    0.0012 C   0  0  0  0  0  0  0  0  0  0  0  0
    3.1228   -0.0803   -0.1461 C   0  0  0  0  0  0  0  0  0  0  0  0
    4.5143   -0.3160   -0.2812 N   0  0  0  0  0  0  0  0  0  0  0  0
    5.5043    0.6516   -0.2418 C   0  0  0  0  0  0  0  0  0  0  0  0
    5.3298    1.8576   -0.0970 O   0  0  0  0  0  0  0  0  0  0  0  0
    6.9165    0.2015   -0.3597 C   0  0  0  0  0  0  0  0  0  0  0  0
    7.3136   -0.9548   -1.0322 C   0  0  0  0  0  0  0  0  0  0  0  0
    8.6810   -1.2602   -1.1500 C   0  0  0  0  0  0  0  0  0  0  0  0
    9.6835   -0.4191   -0.6198 C   0  0  0  0  0  0  0  0  0  0  0  0
   11.1258   -0.7386   -0.7626 C   0  0  0  0  0  0  0  0  0  0  0  0
   11.6275   -1.4055   -1.8898 C   0  0  0  0  0  0  0  0  0  0  0  0
   12.9855   -1.6832   -1.9751 C   0  0  0  0  0  0  0  0  0  0  0  0
   13.8841   -1.3398   -1.0327 N   0  0  0  0  0  0  0  0  0  0  0  0
   13.4020   -0.6901    0.0434 C   0  0  0  0  0  0  0  0  0  0  0  0
   12.0608   -0.3838    0.2221 C   0  0  0  0  0  0  0  0  0  0  0  0
    9.2425    0.7395    0.0406 C   0  0  0  0  0  0  0  0  0  0  0  0
   10.1203    1.6194    0.5466 F   0  0  0  0  0  0  0  0  0  0  0  0
    7.8931    1.0441    0.1792 C   0  0  0  0  0  0  0  0  0  0  0  0
    2.2629   -1.1868   -0.1441 C   0  0  0  0  0  0  0  0  0  0  0  0
    0.8849   -1.0173    0.0461 C   0  0  0  0  0  0  0  0  0  0  0  0
    0.3575    0.2651    0.2319 C   0  0  0  0  0  0  0  0  0  0  0  0
   -1.0875    0.4611    0.5249 C   0  0  0  0  0  0  0  0  0  0  0  0
   -1.8330   -0.5124    0.6055 O   0  0  0  0  0  0  0  0  0  0  0  0
   -3.1337    3.0590    1.1905 H   0  0  0  0  0  0  0  0  0  0  0  0
   -3.0478    1.5233    2.0946 H   0  0  0  0  0  0  0  0  0  0  0  0
   -3.5534    1.5189    0.3895 H   0  0  0  0  0  0  0  0  0  0  0  0
   -1.0870    3.8550    0.7446 H   0  0  0  0  0  0  0  0  0  0  0  0
    1.2990    3.5799    0.2501 H   0  0  0  0  0  0  0  0  0  0  0  0
    3.1930    2.0857   -0.0031 H   0  0  0  0  0  0  0  0  0  0  0  0
    4.7944   -1.2863   -0.3302 H   0  0  0  0  0  0  0  0  0  0  0  0
    6.5916   -1.6141   -1.5053 H   0  0  0  0  0  0  0  0  0  0  0  0
    8.9535   -2.1748   -1.6743 H   0  0  0  0  0  0  0  0  0  0  0  0
   10.9857   -1.7009   -2.7128 H   0  0  0  0  0  0  0  0  0  0  0  0
   13.3959   -2.2033   -2.8359 H   0  0  0  0  0  0  0  0  0  0  0  0
   14.1410   -0.4089    0.7884 H   0  0  0  0  0  0  0  0  0  0  0  0
   11.7662    0.1318    1.1309 H   0  0  0  0  0  0  0  0  0  0  0  0
    7.6177    1.9610    0.6959 H   0  0  0  0  0  0  0  0  0  0  0  0
    2.6462   -2.1957   -0.2744 H   0  0  0  0  0  0  0  0  0  0  0  0
    0.2268   -1.8833    0.0654 H   0  0  0  0  0  0  0  0  0  0  0  0
  1  2  1  0  0  0  0
  1 29  1  0  0  0  0
  1 30  1  0  0  0  0
  1 31  1  0  0  0  0
  2  3  1  0  0  0  0
  2 27  1  0  0  0  0
  3  4  2  0  0  0  0
  3 32  1  0  0  0  0
  4  5  1  0  0  0  0
  4 33  1  0  0  0  0
  5  6  2  0  0  0  0
  5 26  1  0  0  0  0
  6  7  1  0  0  0  0
  6 34  1  0  0  0  0
  7  8  1  0  0  0  0
  7 24  2  0  0  0  0
  8  9  1  0  0  0  0
  8 35  1  0  0  0  0
  9 10  2  0  0  0  0
  9 11  1  0  0  0  0
 11 12  2  0  0  0  0
 11 23  1  0  0  0  0
 12 13  1  0  0  0  0
 12 36  1  0  0  0  0
 13 14  2  0  0  0  0
 13 37  1  0  0  0  0
 14 15  1  0  0  0  0
 14 21  1  0  0  0  0
 15 16  2  0  0  0  0
 15 20  1  0  0  0  0
 16 17  1  0  0  0  0
 16 38  1  0  0  0  0
 17 18  2  0  0  0  0
 17 39  1  0  0  0  0
 18 19  1  0  0  0  0
 19 20  2  0  0  0  0
 19 40  1  0  0  0  0
 20 41  1  0  0  0  0
 21 22  1  0  0  0  0
 21 23  2  0  0  0  0
 23 42  1  0  0  0  0
 24 25  1  0  0  0  0
 24 43  1  0  0  0  0
 25 26  2  0  0  0  0
 25 44  1  0  0  0  0
 26 27  1  0  0  0  0
 27 28  2  0  0  0  0
M  END
$$$$
