
 OpenBabel01122422463D

 40 43  0  0  0  0  0  0  0  0999 V2000
    1.0039    0.1220    0.4733 O   0  0  0  0  0  0  0  0  0  0  0  0
    2.1546    0.1005    0.0405 C   0  0  0  0  0  0  0  0  0  0  0  0
    2.7454    1.0939   -0.7108 N   0  0  0  0  0  0  0  0  0  0  0  0
    2.1494    2.2984   -1.1220 C   0  0  0  0  0  0  0  0  0  0  0  0
    0.9601    2.7880   -0.5840 C   0  0  0  0  0  0  0  0  0  0  0  0
    0.3789    3.9540   -1.0857 C   0  0  0  0  0  0  0  0  0  0  0  0
    0.9787    4.6505   -2.1400 C   0  0  0  0  0  0  0  0  0  0  0  0
    0.3167    5.8118   -2.7234 C   0  0  0  0  0  0  0  0  0  0  0  0
    0.9980    6.8002   -3.3230 N   0  0  0  0  0  0  0  0  0  0  0  0
    0.0568    7.7015   -3.7799 O   0  0  0  0  0  0  0  0  0  0  0  0
   -1.1872    7.2564   -3.4682 C   0  0  0  0  0  0  0  0  0  0  0  0
   -2.3257    8.0764   -3.9106 C   0  0  0  0  0  0  0  0  0  0  0  0
   -1.9581    9.1972   -4.5801 F   0  0  0  0  0  0  0  0  0  0  0  0
   -3.1502    7.3776   -4.7349 F   0  0  0  0  0  0  0  0  0  0  0  0
   -3.0878    8.4810   -2.8585 F   0  0  0  0  0  0  0  0  0  0  0  0
   -1.0795    6.0680   -2.7886 C   0  0  0  0  0  0  0  0  0  0  0  0
    2.1996    4.1876   -2.6470 C   0  0  0  0  0  0  0  0  0  0  0  0
    2.7852    3.0241   -2.1359 C   0  0  0  0  0  0  0  0  0  0  0  0
    3.0073   -1.1107    0.2650 C   0  0  0  0  0  0  0  0  0  0  0  0
    2.4414   -2.1353    0.9299 C   0  0  0  0  0  0  0  0  0  0  0  0
    3.1655   -3.3858    1.1230 C   0  0  0  0  0  0  0  0  0  0  0  0
    2.5890   -4.4878    1.7508 C   0  0  0  0  0  0  0  0  0  0  0  0
    3.3244   -5.6651    1.8535 C   0  0  0  0  0  0  0  0  0  0  0  0
    4.6102   -5.6899    1.3325 C   0  0  0  0  0  0  0  0  0  0  0  0
    5.2025   -4.6344    0.7321 N   0  0  0  0  0  0  0  0  0  0  0  0
    4.4660   -3.5121    0.6370 C   0  0  0  0  0  0  0  0  0  0  0  0
    5.0472   -2.4277   -0.0088 N   0  0  0  0  0  0  0  0  0  0  0  0
    4.4069   -1.2440   -0.2392 C   0  0  0  0  0  0  0  0  0  0  0  0
    4.9561   -0.3295   -0.8510 O   0  0  0  0  0  0  0  0  0  0  0  0
    3.6769    0.9011   -1.0830 H   0  0  0  0  0  0  0  0  0  0  0  0
    0.4586    2.2885    0.2388 H   0  0  0  0  0  0  0  0  0  0  0  0
   -0.5476    4.2997   -0.6348 H   0  0  0  0  0  0  0  0  0  0  0  0
   -1.8903    5.4562   -2.4209 H   0  0  0  0  0  0  0  0  0  0  0  0
    2.6918    4.7120   -3.4642 H   0  0  0  0  0  0  0  0  0  0  0  0
    3.7193    2.6745   -2.5695 H   0  0  0  0  0  0  0  0  0  0  0  0
    1.4245   -2.0780    1.3091 H   0  0  0  0  0  0  0  0  0  0  0  0
    1.5786   -4.4445    2.1465 H   0  0  0  0  0  0  0  0  0  0  0  0
    2.9004   -6.5476    2.3214 H   0  0  0  0  0  0  0  0  0  0  0  0
    5.2142   -6.5920    1.3811 H   0  0  0  0  0  0  0  0  0  0  0  0
    5.9891   -2.5499   -0.3507 H   0  0  0  0  0  0  0  0  0  0  0  0
  1  2  2  0  0  0  0
  2  3  1  0  0  0  0
  2 19  1  0  0  0  0
  3  4  1  0  0  0  0
  3 30  1  0  0  0  0
  4  5  2  0  0  0  0
  4 18  1  0  0  0  0
  5  6  1  0  0  0  0
  5 31  1  0  0  0  0
  6  7  2  0  0  0  0
  6 32  1  0  0  0  0
  7  8  1  0  0  0  0
  7 17  1  0  0  0  0
  8  9  2  0  0  0  0
  8 16  1  0  0  0  0
  9 10  1  0  0  0  0
 10 11  1  0  0  0  0
 11 12  1  0  0  0  0
 11 16  2  0  0  0  0
 12 13  1  0  0  0  0
 12 14  1  0  0  0  0
 12 15  1  0  0  0  0
 16 33  1  0  0  0  0
 17 18  2  0  0  0  0
 17 34  1  0  0  0  0
 18 35  1  0  0  0  0
 19 20  2  0  0  0  0
 19 28  1  0  0  0  0
 20 21  1  0  0  0  0
 20 36  1  0  0  0  0
 21 22  2  0  0  0  0
 21 26  1  0  0  0  0
 22 23  1  0  0  0  0
 22 37  1  0  0  0  0
 23 24  2  0  0  0  0
 23 38  1  0  0  0  0
 24 25  1  0  0  0  0
 24 39  1  0  0  0  0
 25 26  2  0  0  0  0
 26 27  1  0  0  0  0
 27 28  1  0  0  0  0
 27 40  1  0  0  0  0
 28 29  2  0  0  0  0
M  END
$$$$
