
 OpenBabel01122422513D

 48 51  0  0  1  0  0  0  0  0999 V2000
    0.8423    0.0054    0.0645 C   0  0  0  0  0  0  0  0  0  0  0  0
    2.3735    0.0254    0.0918 C   0  0  3  0  0  0  0  0  0  0  0  0
    2.8708    1.3790    0.2715 N   0  0  0  0  0  0  0  0  0  0  0  0
    3.1248    2.2248   -0.7876 C   0  0  0  0  0  0  0  0  0  0  0  0
    2.9895    1.9060   -1.9636 O   0  0  0  0  0  0  0  0  0  0  0  0
    3.5740    3.6063   -0.4092 C   0  0  0  0  0  0  0  0  0  0  0  0
    3.8564    4.5324   -1.4114 C   0  0  0  0  0  0  0  0  0  0  0  0
    4.2105    5.8287   -1.0422 C   0  0  0  0  0  0  0  0  0  0  0  0
    4.2524    6.1579    0.3099 C   0  0  0  0  0  0  0  0  0  0  0  0
    4.5287    7.5181    0.7694 C   0  0  0  0  0  0  0  0  0  0  0  0
    4.4823    7.7933    2.0796 C   0  0  0  0  0  0  0  0  0  0  0  0
    4.2023    6.7320    3.0792 C   0  0  0  0  0  0  0  0  0  0  0  0
    4.1604    6.9977    4.2748 O   0  0  0  0  0  0  0  0  0  0  0  0
    3.9926    5.4729    2.5969 N   0  0  0  0  0  0  0  0  0  0  0  0
    3.9728    5.1513    1.2428 C   0  0  0  0  0  0  0  0  0  0  0  0
    3.6423    3.8829    0.9232 N   0  0  0  0  0  0  0  0  0  0  0  0
    2.9166   -0.8957    1.1702 C   0  0  0  0  0  0  0  0  0  0  0  0
    3.7622   -1.9615    0.8400 C   0  0  0  0  0  0  0  0  0  0  0  0
    4.2523   -2.8241    1.8323 C   0  0  0  0  0  0  0  0  0  0  0  0
    3.9136   -2.6605    3.1877 C   0  0  0  0  0  0  0  0  0  0  0  0
    4.4200   -3.5761    4.2411 C   0  0  0  0  0  0  0  0  0  0  0  0
    4.6544   -3.1273    5.5559 C   0  0  0  0  0  0  0  0  0  0  0  0
    5.1146   -3.9875    6.5579 C   0  0  0  0  0  0  0  0  0  0  0  0
    5.3698   -5.3229    6.2645 C   0  0  0  0  0  0  0  0  0  0  0  0
    5.1547   -5.7996    4.9718 C   0  0  0  0  0  0  0  0  0  0  0  0
    5.4236   -7.1698    4.6598 C   0  0  0  0  0  0  0  0  0  0  0  0
    5.6415   -8.2832    4.4073 N   0  0  0  0  0  0  0  0  0  0  0  0
    4.6790   -4.9342    3.9749 C   0  0  0  0  0  0  0  0  0  0  0  0
    3.0618   -1.5868    3.5045 C   0  0  0  0  0  0  0  0  0  0  0  0
    2.5795   -0.7189    2.5171 C   0  0  0  0  0  0  0  0  0  0  0  0
    0.4539    0.6629   -0.7201 H   0  0  0  0  0  0  0  0  0  0  0  0
    0.4111    0.3472    1.0123 H   0  0  0  0  0  0  0  0  0  0  0  0
    0.4692   -1.0078   -0.1232 H   0  0  0  0  0  0  0  0  0  0  0  0
    2.7212   -0.3290   -0.8871 H   0  0  0  0  0  0  0  0  0  0  0  0
    2.9259    1.7836    1.2003 H   0  0  0  0  0  0  0  0  0  0  0  0
    3.7828    4.2561   -2.4592 H   0  0  0  0  0  0  0  0  0  0  0  0
    4.4216    6.5696   -1.8091 H   0  0  0  0  0  0  0  0  0  0  0  0
    4.7357    8.2942    0.0407 H   0  0  0  0  0  0  0  0  0  0  0  0
    4.6415    8.7907    2.4713 H   0  0  0  0  0  0  0  0  0  0  0  0
    3.7956    4.7375    3.2579 H   0  0  0  0  0  0  0  0  0  0  0  0
    4.0500   -2.1381   -0.1952 H   0  0  0  0  0  0  0  0  0  0  0  0
    4.9169   -3.6275    1.5201 H   0  0  0  0  0  0  0  0  0  0  0  0
    4.4889   -2.0848    5.8220 H   0  0  0  0  0  0  0  0  0  0  0  0
    5.2760   -3.6089    7.5645 H   0  0  0  0  0  0  0  0  0  0  0  0
    5.7359   -5.9838    7.0474 H   0  0  0  0  0  0  0  0  0  0  0  0
    4.4960   -5.3384    2.9802 H   0  0  0  0  0  0  0  0  0  0  0  0
    2.7441   -1.4122    4.5259 H   0  0  0  0  0  0  0  0  0  0  0  0
    1.9227    0.0942    2.8174 H   0  0  0  0  0  0  0  0  0  0  0  0
  1  2  1  0  0  0  0
  1 31  1  0  0  0  0
  1 32  1  0  0  0  0
  1 33  1  0  0  0  0
  2  3  1  0  0  0  0
  2 17  1  0  0  0  0
  2 34  1  0  0  0  0
  3  4  1  0  0  0  0
  3 35  1  0  0  0  0
  4  5  2  0  0  0  0
  4  6  1  0  0  0  0
  6  7  2  0  0  0  0
  6 16  1  0  0  0  0
  7  8  1  0  0  0  0
  7 36  1  0  0  0  0
  8  9  2  0  0  0  0
  8 37  1  0  0  0  0
  9 10  1  0  0  0  0
  9 15  1  0  0  0  0
 10 11  2  0  0  0  0
 10 38  1  0  0  0  0
 11 12  1  0  0  0  0
 11 39  1  0  0  0  0
 12 13  2  0  0  0  0
 12 14  1  0  0  0  0
 14 15  1  0  0  0  0
 14 40  1  0  0  0  0
 15 16  2  0  0  0  0
 17 18  2  0  0  0  0
 17 30  1  0  0  0  0
 18 19  1  0  0  0  0
 18 41  1  0  0  0  0
 19 20  2  0  0  0  0
 19 42  1  0  0  0  0
 20 21  1  0  0  0  0
 20 29  1  0  0  0  0
 21 22  2  0  0  0  0
 21 28  1  0  0  0  0
 22 23  1  0  0  0  0
 22 43  1  0  0  0  0
 23 24  2  0  0  0  0
 23 44  1  0  0  0  0
 24 25  1  0  0  0  0
 24 45  1  0  0  0  0
 25 26  1  0  0  0  0
 25 28  2  0  0  0  0
 26 27  3  0  0  0  0
 28 46  1  0  0  0  0
 29 30  2  0  0  0  0
 29 47  1  0  0  0  0
 30 48  1  0  0  0  0
M  END
$$$$
