
 OpenBabel01122422513D

 49 52  0  0  0  0  0  0  0  0999 V2000
   10.1280   -1.9274   -0.8705 C   0  0  0  0  0  0  0  0  0  0  0  0
    8.8099   -2.0682   -1.5776 C   0  0  0  0  0  0  0  0  0  0  0  0
    8.6582   -1.8657   -2.8975 C   0  0  0  0  0  0  0  0  0  0  0  0
    7.3631   -1.9471   -3.5074 C   0  0  0  0  0  0  0  0  0  0  0  0
    6.2740   -2.1337   -2.7442 C   0  0  0  0  0  0  0  0  0  0  0  0
    6.3767   -2.3151   -1.3689 N   0  0  0  0  0  0  0  0  0  0  0  0
    5.1599   -2.2862   -0.5360 C   0  0  0  0  0  0  0  0  0  0  0  0
    4.3939   -3.5891   -0.4163 C   0  0  0  0  0  0  0  0  0  0  0  0
    3.5055   -3.8989   -1.4566 C   0  0  0  0  0  0  0  0  0  0  0  0
    3.3522   -3.0509   -2.4853 F   0  0  0  0  0  0  0  0  0  0  0  0
    2.7107   -5.0400   -1.4537 C   0  0  0  0  0  0  0  0  0  0  0  0
    2.7916   -5.9135   -0.3889 C   0  0  0  0  0  0  0  0  0  0  0  0
    3.6506   -5.6211    0.6715 C   0  0  0  0  0  0  0  0  0  0  0  0
    4.4556   -4.4634    0.6963 C   0  0  0  0  0  0  0  0  0  0  0  0
    5.2470   -4.1659    1.8409 N   0  0  0  0  0  0  0  0  0  0  0  0
    5.3833   -4.9424    2.9937 C   0  0  0  0  0  0  0  0  0  0  0  0
    4.8825   -6.0455    3.1775 O   0  0  0  0  0  0  0  0  0  0  0  0
    6.2334   -4.3219    4.0744 C   0  0  0  0  0  0  0  0  0  0  0  0
    6.4276   -2.9763    3.9127 N   0  0  0  0  0  0  0  0  0  0  0  0
    7.1857   -2.3632    4.8286 C   0  0  0  0  0  0  0  0  0  0  0  0
    7.5134   -1.0229    4.6111 N   0  0  0  0  0  0  0  0  0  0  0  0
    7.7348   -3.0090    5.9187 C   0  0  0  0  0  0  0  0  0  0  0  0
    7.7051   -4.3975    5.9544 C   0  0  0  0  0  0  0  0  0  0  0  0
    8.6012   -5.0754    6.7921 C   0  0  0  0  0  0  0  0  0  0  0  0
    8.6437   -6.4649    6.8121 C   0  0  0  0  0  0  0  0  0  0  0  0
    7.6971   -7.1861    6.1009 C   0  0  0  0  0  0  0  0  0  0  0  0
    6.8036   -6.5183    5.2596 C   0  0  0  0  0  0  0  0  0  0  0  0
    6.8638   -5.1080    5.0789 C   0  0  0  0  0  0  0  0  0  0  0  0
    7.6098   -2.3691   -0.7257 C   0  0  0  0  0  0  0  0  0  0  0  0
    7.7462   -2.5847    0.4782 O   0  0  0  0  0  0  0  0  0  0  0  0
   10.9154   -1.5577   -1.5370 H   0  0  0  0  0  0  0  0  0  0  0  0
   10.4543   -2.8893   -0.4638 H   0  0  0  0  0  0  0  0  0  0  0  0
   10.0419   -1.2112   -0.0460 H   0  0  0  0  0  0  0  0  0  0  0  0
    9.4988   -1.6016   -3.5343 H   0  0  0  0  0  0  0  0  0  0  0  0
    7.2689   -1.8105   -4.5807 H   0  0  0  0  0  0  0  0  0  0  0  0
    5.2859   -2.1346   -3.1837 H   0  0  0  0  0  0  0  0  0  0  0  0
    4.4969   -1.5141   -0.9511 H   0  0  0  0  0  0  0  0  0  0  0  0
    5.4210   -1.8974    0.4531 H   0  0  0  0  0  0  0  0  0  0  0  0
    2.0253   -5.2251   -2.2733 H   0  0  0  0  0  0  0  0  0  0  0  0
    2.1792   -6.8112   -0.3544 H   0  0  0  0  0  0  0  0  0  0  0  0
    3.6370   -6.3312    1.4905 H   0  0  0  0  0  0  0  0  0  0  0  0
    5.7959   -3.3075    1.8589 H   0  0  0  0  0  0  0  0  0  0  0  0
    8.5246   -0.9176    4.6393 H   0  0  0  0  0  0  0  0  0  0  0  0
    7.1583   -0.7764    3.6908 H   0  0  0  0  0  0  0  0  0  0  0  0
    8.2709   -2.4388    6.6706 H   0  0  0  0  0  0  0  0  0  0  0  0
    9.3402   -4.5199    7.3666 H   0  0  0  0  0  0  0  0  0  0  0  0
    9.4154   -6.9782    7.3786 H   0  0  0  0  0  0  0  0  0  0  0  0
    7.6763   -8.2710    6.1625 H   0  0  0  0  0  0  0  0  0  0  0  0
    6.0908   -7.1281    4.7095 H   0  0  0  0  0  0  0  0  0  0  0  0
  1  2  1  0  0  0  0
  1 31  1  0  0  0  0
  1 32  1  0  0  0  0
  1 33  1  0  0  0  0
  2  3  2  0  0  0  0
  2 29  1  0  0  0  0
  3  4  1  0  0  0  0
  3 34  1  0  0  0  0
  4  5  2  0  0  0  0
  4 35  1  0  0  0  0
  5  6  1  0  0  0  0
  5 36  1  0  0  0  0
  6  7  1  0  0  0  0
  6 29  1  0  0  0  0
  7  8  1  0  0  0  0
  7 37  1  0  0  0  0
  7 38  1  0  0  0  0
  8  9  2  0  0  0  0
  8 14  1  0  0  0  0
  9 10  1  0  0  0  0
  9 11  1  0  0  0  0
 11 12  2  0  0  0  0
 11 39  1  0  0  0  0
 12 13  1  0  0  0  0
 12 40  1  0  0  0  0
 13 14  2  0  0  0  0
 13 41  1  0  0  0  0
 14 15  1  0  0  0  0
 15 16  1  0  0  0  0
 15 42  1  0  0  0  0
 16 17  2  0  0  0  0
 16 18  1  0  0  0  0
 18 19  2  0  0  0  0
 18 28  1  0  0  0  0
 19 20  1  0  0  0  0
 20 21  1  0  0  0  0
 20 22  2  0  0  0  0
 21 43  1  0  0  0  0
 21 44  1  0  0  0  0
 22 23  1  0  0  0  0
 22 45  1  0  0  0  0
 23 24  2  0  0  0  0
 23 28  1  0  0  0  0
 24 25  1  0  0  0  0
 24 46  1  0  0  0  0
 25 26  2  0  0  0  0
 25 47  1  0  0  0  0
 26 27  1  0  0  0  0
 26 48  1  0  0  0  0
 27 28  2  0  0  0  0
 27 49  1  0  0  0  0
 29 30  2  0  0  0  0
M  END
$$$$
