
 OpenBabel01122422513D

 42 45  0  0  0  0  0  0  0  0999 V2000
    3.3965   -0.6379   -2.2083 O   0  0  0  0  0  0  0  0  0  0  0  0
    3.7215   -0.2851   -1.0759 C   0  0  0  0  0  0  0  0  0  0  0  0
    3.3496    0.9481   -0.5861 N   0  0  0  0  0  0  0  0  0  0  0  0
    2.5277    1.8027   -1.4237 C   0  0  0  0  0  0  0  0  0  0  0  0
    3.3617    2.6380   -2.3459 C   0  0  0  0  0  0  0  0  0  0  0  0
    3.7378    3.9261   -1.9938 C   0  0  0  0  0  0  0  0  0  0  0  0
    4.5541    4.6627   -2.8401 C   0  0  0  0  0  0  0  0  0  0  0  0
    4.9580    4.1163   -4.0629 C   0  0  0  0  0  0  0  0  0  0  0  0
    5.8689    4.8223   -4.9878 C   0  0  0  0  0  0  0  0  0  0  0  0
    6.8592    5.7071   -4.5263 C   0  0  0  0  0  0  0  0  0  0  0  0
    7.6867    6.3409   -5.4395 C   0  0  0  0  0  0  0  0  0  0  0  0
    7.6031    6.1730   -6.7735 N   0  0  0  0  0  0  0  0  0  0  0  0
    6.6598    5.3049   -7.2104 C   0  0  0  0  0  0  0  0  0  0  0  0
    5.7911    4.6232   -6.3722 C   0  0  0  0  0  0  0  0  0  0  0  0
    4.5561    2.8821   -4.4463 N   0  0  0  0  0  0  0  0  0  0  0  0
    3.7817    2.1732   -3.5966 C   0  0  0  0  0  0  0  0  0  0  0  0
    4.4646   -1.2562   -0.2112 C   0  0  0  0  0  0  0  0  0  0  0  0
    4.5959   -2.5204   -0.7437 C   0  0  0  0  0  0  0  0  0  0  0  0
    5.0296   -3.5396    0.0720 C   0  0  0  0  0  0  0  0  0  0  0  0
    5.4549   -3.2400    1.3548 C   0  0  0  0  0  0  0  0  0  0  0  0
    5.9403   -4.2839    2.1390 C   0  0  0  0  0  0  0  0  0  0  0  0
    6.8027   -3.9756    3.1668 C   0  0  0  0  0  0  0  0  0  0  0  0
    7.5175   -4.9577    3.7309 F   0  0  0  0  0  0  0  0  0  0  0  0
    6.9770   -2.6527    3.5413 C   0  0  0  0  0  0  0  0  0  0  0  0
    7.8637   -2.3485    4.4988 F   0  0  0  0  0  0  0  0  0  0  0  0
    6.2551   -1.6283    2.9144 C   0  0  0  0  0  0  0  0  0  0  0  0
    5.5034   -1.8794    1.7641 C   0  0  0  0  0  0  0  0  0  0  0  0
    4.9199   -0.8887    1.0309 N   0  0  0  0  0  0  0  0  0  0  0  0
    3.6502    1.2388    0.3368 H   0  0  0  0  0  0  0  0  0  0  0  0
    1.9124    2.4307   -0.7678 H   0  0  0  0  0  0  0  0  0  0  0  0
    1.8204    1.1893   -2.0017 H   0  0  0  0  0  0  0  0  0  0  0  0
    3.4294    4.3499   -1.0463 H   0  0  0  0  0  0  0  0  0  0  0  0
    4.8435    5.6713   -2.5642 H   0  0  0  0  0  0  0  0  0  0  0  0
    7.0151    5.8817   -3.4684 H   0  0  0  0  0  0  0  0  0  0  0  0
    8.4625    7.0251   -5.1069 H   0  0  0  0  0  0  0  0  0  0  0  0
    6.6177    5.1766   -8.2872 H   0  0  0  0  0  0  0  0  0  0  0  0
    5.0615    3.9378   -6.7924 H   0  0  0  0  0  0  0  0  0  0  0  0
    3.5147    1.1753   -3.9436 H   0  0  0  0  0  0  0  0  0  0  0  0
    4.3380   -2.7226   -1.7762 H   0  0  0  0  0  0  0  0  0  0  0  0
    5.1150   -4.5429   -0.3365 H   0  0  0  0  0  0  0  0  0  0  0  0
    5.7315   -5.3232    1.9025 H   0  0  0  0  0  0  0  0  0  0  0  0
    6.3668   -0.6137    3.2829 H   0  0  0  0  0  0  0  0  0  0  0  0
  1  2  2  0  0  0  0
  2  3  1  0  0  0  0
  2 17  1  0  0  0  0
  3  4  1  0  0  0  0
  3 29  1  0  0  0  0
  4  5  1  0  0  0  0
  4 30  1  0  0  0  0
  4 31  1  0  0  0  0
  5  6  2  0  0  0  0
  5 16  1  0  0  0  0
  6  7  1  0  0  0  0
  6 32  1  0  0  0  0
  7  8  2  0  0  0  0
  7 33  1  0  0  0  0
  8  9  1  0  0  0  0
  8 15  1  0  0  0  0
  9 10  2  0  0  0  0
  9 14  1  0  0  0  0
 10 11  1  0  0  0  0
 10 34  1  0  0  0  0
 11 12  2  0  0  0  0
 11 35  1  0  0  0  0
 12 13  1  0  0  0  0
 13 14  2  0  0  0  0
 13 36  1  0  0  0  0
 14 37  1  0  0  0  0
 15 16  2  0  0  0  0
 16 38  1  0  0  0  0
 17 18  2  0  0  0  0
 17 28  1  0  0  0  0
 18 19  1  0  0  0  0
 18 39  1  0  0  0  0
 19 20  2  0  0  0  0
 19 40  1  0  0  0  0
 20 21  1  0  0  0  0
 20 27  1  0  0  0  0
 21 22  2  0  0  0  0
 21 41  1  0  0  0  0
 22 23  1  0  0  0  0
 22 24  1  0  0  0  0
 24 25  1  0  0  0  0
 24 26  2  0  0  0  0
 26 27  1  0  0  0  0
 26 42  1  0  0  0  0
 27 28  2  0  0  0  0
M  END
$$$$
