
 OpenBabel01122422513D

 47 50  0  0  0  0  0  0  0  0999 V2000
    1.0615   -0.0587   -0.0444 O   0  0  0  0  0  0  0  0  0  0  0  0
    2.2793   -0.0769   -0.1538 C   0  0  0  0  0  0  0  0  0  0  0  0
    2.9876    0.7611   -0.9924 N   0  0  0  0  0  0  0  0  0  0  0  0
    2.2989    1.6994   -1.8613 C   0  0  0  0  0  0  0  0  0  0  0  0
    3.2897    2.5845   -2.6241 C   0  0  0  0  0  0  0  0  0  0  0  0
    2.6040    3.5659   -3.5479 C   0  0  0  0  0  0  0  0  0  0  0  0
    2.7866    4.9018   -3.3974 C   0  0  0  0  0  0  0  0  0  0  0  0
    2.1464    5.8857   -4.2603 C   0  0  0  0  0  0  0  0  0  0  0  0
    1.3330    5.4633   -5.2411 C   0  0  0  0  0  0  0  0  0  0  0  0
    1.1353    4.0982   -5.4083 N   0  0  0  0  0  0  0  0  0  0  0  0
    0.3557    3.4289   -6.3185 C   0  0  0  0  0  0  0  0  0  0  0  0
    0.5341    2.0947   -6.0437 C   0  0  0  0  0  0  0  0  0  0  0  0
    1.4126    1.9160   -5.0047 N   0  0  0  0  0  0  0  0  0  0  0  0
    1.7475    3.1302   -4.6223 C   0  0  0  0  0  0  0  0  0  0  0  0
    3.0969   -1.0165    0.6589 C   0  0  0  0  0  0  0  0  0  0  0  0
    4.3338   -0.5522    1.1511 C   0  0  0  0  0  0  0  0  0  0  0  0
    5.0806   -1.3161    2.0466 C   0  0  0  0  0  0  0  0  0  0  0  0
    4.5877   -2.5380    2.4878 C   0  0  0  0  0  0  0  0  0  0  0  0
    3.3733   -3.0180    1.9934 C   0  0  0  0  0  0  0  0  0  0  0  0
    2.6301   -2.2815    1.0506 C   0  0  0  0  0  0  0  0  0  0  0  0
    1.3906   -2.9386    0.5497 C   0  0  0  0  0  0  0  0  0  0  0  0
    0.7288   -3.6133    1.3389 O   0  0  0  0  0  0  0  0  0  0  0  0
    0.9826   -2.9245   -0.8821 C   0  0  0  0  0  0  0  0  0  0  0  0
   -0.3781   -3.0962   -1.1840 C   0  0  0  0  0  0  0  0  0  0  0  0
   -0.8087   -3.1141   -2.5122 C   0  0  0  0  0  0  0  0  0  0  0  0
    0.1213   -2.9659   -3.5338 C   0  0  0  0  0  0  0  0  0  0  0  0
   -0.2887   -2.9876   -4.8089 F   0  0  0  0  0  0  0  0  0  0  0  0
    1.4748   -2.8107   -3.2528 C   0  0  0  0  0  0  0  0  0  0  0  0
    1.9118   -2.8039   -1.9249 C   0  0  0  0  0  0  0  0  0  0  0  0
    3.9580    0.5584   -1.1894 H   0  0  0  0  0  0  0  0  0  0  0  0
    1.6328    2.3101   -1.2397 H   0  0  0  0  0  0  0  0  0  0  0  0
    1.6721    1.1095   -2.5373 H   0  0  0  0  0  0  0  0  0  0  0  0
    3.9608    1.9530   -3.2196 H   0  0  0  0  0  0  0  0  0  0  0  0
    3.9327    3.1084   -1.9043 H   0  0  0  0  0  0  0  0  0  0  0  0
    3.4246    5.2953   -2.6097 H   0  0  0  0  0  0  0  0  0  0  0  0
    2.3373    6.9395   -4.0881 H   0  0  0  0  0  0  0  0  0  0  0  0
    0.8144    6.1305   -5.9148 H   0  0  0  0  0  0  0  0  0  0  0  0
   -0.2460    3.9438   -7.0502 H   0  0  0  0  0  0  0  0  0  0  0  0
    0.0764    1.2451   -6.5383 H   0  0  0  0  0  0  0  0  0  0  0  0
    4.7078    0.4334    0.8841 H   0  0  0  0  0  0  0  0  0  0  0  0
    6.0266   -0.9382    2.4275 H   0  0  0  0  0  0  0  0  0  0  0  0
    5.1417   -3.1159    3.2239 H   0  0  0  0  0  0  0  0  0  0  0  0
    2.9991   -3.9762    2.3534 H   0  0  0  0  0  0  0  0  0  0  0  0
   -1.1051   -3.2079   -0.3815 H   0  0  0  0  0  0  0  0  0  0  0  0
   -1.8595   -3.2400   -2.7524 H   0  0  0  0  0  0  0  0  0  0  0  0
    2.1792   -2.6999   -4.0710 H   0  0  0  0  0  0  0  0  0  0  0  0
    2.9746   -2.7119   -1.7269 H   0  0  0  0  0  0  0  0  0  0  0  0
  1  2  2  0  0  0  0
  2  3  1  0  0  0  0
  2 15  1  0  0  0  0
  3  4  1  0  0  0  0
  3 30  1  0  0  0  0
  4  5  1  0  0  0  0
  4 31  1  0  0  0  0
  4 32  1  0  0  0  0
  5  6  1  0  0  0  0
  5 33  1  0  0  0  0
  5 34  1  0  0  0  0
  6  7  2  0  0  0  0
  6 14  1  0  0  0  0
  7  8  1  0  0  0  0
  7 35  1  0  0  0  0
  8  9  2  0  0  0  0
  8 36  1  0  0  0  0
  9 10  1  0  0  0  0
  9 37  1  0  0  0  0
 10 11  1  0  0  0  0
 10 14  1  0  0  0  0
 11 12  2  0  0  0  0
 11 38  1  0  0  0  0
 12 13  1  0  0  0  0
 12 39  1  0  0  0  0
 13 14  2  0  0  0  0
 15 16  2  0  0  0  0
 15 20  1  0  0  0  0
 16 17  1  0  0  0  0
 16 40  1  0  0  0  0
 17 18  2  0  0  0  0
 17 41  1  0  0  0  0
 18 19  1  0  0  0  0
 18 42  1  0  0  0  0
 19 20  2  0  0  0  0
 19 43  1  0  0  0  0
 20 21  1  0  0  0  0
 21 22  2  0  0  0  0
 21 23  1  0  0  0  0
 23 24  2  0  0  0  0
 23 29  1  0  0  0  0
 24 25  1  0  0  0  0
 24 44  1  0  0  0  0
 25 26  2  0  0  0  0
 25 45  1  0  0  0  0
 26 27  1  0  0  0  0
 26 28  1  0  0  0  0
 28 29  2  0  0  0  0
 28 46  1  0  0  0  0
 29 47  1  0  0  0  0
M  END
$$$$
