
 OpenBabel01122422513D

 52 55  0  0  0  0  0  0  0  0999 V2000
    1.7209    1.4985   -3.6743 C   0  0  0  0  0  0  0  0  0  0  0  0
    3.1519    1.2810   -3.5642 N   0  0  0  0  0  0  0  0  0  0  0  0
    3.9847    1.6171   -4.7081 C   0  0  0  0  0  0  0  0  0  0  0  0
    3.6233    0.6739   -2.3924 C   0  0  0  0  0  0  0  0  0  0  0  0
    2.8473    0.2612   -1.5262 O   0  0  0  0  0  0  0  0  0  0  0  0
    5.0976    0.4888   -2.1598 C   0  0  0  0  0  0  0  0  0  0  0  0
    5.5124   -0.5514   -1.3355 C   0  0  0  0  0  0  0  0  0  0  0  0
    6.8802   -0.7312   -1.1253 C   0  0  0  0  0  0  0  0  0  0  0  0
    7.4321   -1.7261   -0.3396 O   0  0  0  0  0  0  0  0  0  0  0  0
    6.8144   -2.9552   -0.2674 C   0  0  0  0  0  0  0  0  0  0  0  0
    6.1166   -3.5154   -1.3304 C   0  0  0  0  0  0  0  0  0  0  0  0
    5.4256   -4.7115   -1.1605 C   0  0  0  0  0  0  0  0  0  0  0  0
    5.4817   -5.4244    0.0380 C   0  0  0  0  0  0  0  0  0  0  0  0
    4.7628   -6.6323    0.2437 N   0  0  0  0  0  0  0  0  0  0  0  0
    3.8930   -7.2008   -0.6720 C   0  0  0  0  0  0  0  0  0  0  0  0
    3.6150   -6.7550   -1.7823 O   0  0  0  0  0  0  0  0  0  0  0  0
    3.2238   -8.4733   -0.3084 C   0  0  0  0  0  0  0  0  0  0  0  0
    2.9038   -8.8391    0.9889 C   0  0  0  0  0  0  0  0  0  0  0  0
    2.1918  -10.0138    1.1672 C   0  0  0  0  0  0  0  0  0  0  0  0
    1.8055  -10.8283    0.1561 N   0  0  0  0  0  0  0  0  0  0  0  0
    2.1282  -10.4538   -1.1080 C   0  0  0  0  0  0  0  0  0  0  0  0
    1.7235  -11.3451   -2.2039 C   0  0  0  0  0  0  0  0  0  0  0  0
    1.9784  -11.0635   -3.4969 N   0  0  0  0  0  0  0  0  0  0  0  0
    1.4897  -12.1096   -4.1762 N   0  0  0  0  0  0  0  0  0  0  0  0
    0.9332  -13.0632   -3.3814 C   0  0  0  0  0  0  0  0  0  0  0  0
    1.0545  -12.5946   -2.0961 C   0  0  0  0  0  0  0  0  0  0  0  0
    2.8271   -9.2911   -1.3751 C   0  0  0  0  0  0  0  0  0  0  0  0
    6.2813   -4.9160    1.0704 C   0  0  0  0  0  0  0  0  0  0  0  0
    6.9393   -3.6812    0.9186 C   0  0  0  0  0  0  0  0  0  0  0  0
    7.7761    0.1733   -1.6852 C   0  0  0  0  0  0  0  0  0  0  0  0
    7.2718    1.1973   -2.4681 C   0  0  0  0  0  0  0  0  0  0  0  0
    5.9591    1.3711   -2.7272 N   0  0  0  0  0  0  0  0  0  0  0  0
    1.4695    2.0429   -4.5883 H   0  0  0  0  0  0  0  0  0  0  0  0
    1.3751    2.0735   -2.8097 H   0  0  0  0  0  0  0  0  0  0  0  0
    1.2153    0.5277   -3.6774 H   0  0  0  0  0  0  0  0  0  0  0  0
    3.3717    1.7709   -5.6008 H   0  0  0  0  0  0  0  0  0  0  0  0
    4.6842    0.8019   -4.9119 H   0  0  0  0  0  0  0  0  0  0  0  0
    4.5293    2.5405   -4.4932 H   0  0  0  0  0  0  0  0  0  0  0  0
    4.7726   -1.2114   -0.8939 H   0  0  0  0  0  0  0  0  0  0  0  0
    6.0548   -3.0251   -2.2961 H   0  0  0  0  0  0  0  0  0  0  0  0
    4.8437   -5.0445   -2.0110 H   0  0  0  0  0  0  0  0  0  0  0  0
    4.9258   -7.1038    1.1226 H   0  0  0  0  0  0  0  0  0  0  0  0
    3.1491   -8.2260    1.8509 H   0  0  0  0  0  0  0  0  0  0  0  0
    1.8864  -10.3426    2.1569 H   0  0  0  0  0  0  0  0  0  0  0  0
    1.5785  -12.1084   -5.1879 H   0  0  0  0  0  0  0  0  0  0  0  0
    0.5122  -13.9697   -3.7904 H   0  0  0  0  0  0  0  0  0  0  0  0
    0.7272  -13.0792   -1.1878 H   0  0  0  0  0  0  0  0  0  0  0  0
    3.0537   -9.0110   -2.4020 H   0  0  0  0  0  0  0  0  0  0  0  0
    6.3909   -5.4514    2.0102 H   0  0  0  0  0  0  0  0  0  0  0  0
    7.5378   -3.2842    1.7358 H   0  0  0  0  0  0  0  0  0  0  0  0
    8.8428    0.0817   -1.5162 H   0  0  0  0  0  0  0  0  0  0  0  0
    7.9329    1.9310   -2.9237 H   0  0  0  0  0  0  0  0  0  0  0  0
  1  2  1  0  0  0  0
  1 33  1  0  0  0  0
  1 34  1  0  0  0  0
  1 35  1  0  0  0  0
  2  3  1  0  0  0  0
  2  4  1  0  0  0  0
  3 36  1  0  0  0  0
  3 37  1  0  0  0  0
  3 38  1  0  0  0  0
  4  5  2  0  0  0  0
  4  6  1  0  0  0  0
  6  7  2  0  0  0  0
  6 32  1  0  0  0  0
  7  8  1  0  0  0  0
  7 39  1  0  0  0  0
  8  9  1  0  0  0  0
  8 30  2  0  0  0  0
  9 10  1  0  0  0  0
 10 11  2  0  0  0  0
 10 29  1  0  0  0  0
 11 12  1  0  0  0  0
 11 40  1  0  0  0  0
 12 13  2  0  0  0  0
 12 41  1  0  0  0  0
 13 14  1  0  0  0  0
 13 28  1  0  0  0  0
 14 15  1  0  0  0  0
 14 42  1  0  0  0  0
 15 16  2  0  0  0  0
 15 17  1  0  0  0  0
 17 18  2  0  0  0  0
 17 27  1  0  0  0  0
 18 19  1  0  0  0  0
 18 43  1  0  0  0  0
 19 20  2  0  0  0  0
 19 44  1  0  0  0  0
 20 21  1  0  0  0  0
 21 22  1  0  0  0  0
 21 27  2  0  0  0  0
 22 23  2  0  0  0  0
 22 26  1  0  0  0  0
 23 24  1  0  0  0  0
 24 25  1  0  0  0  0
 24 45  1  0  0  0  0
 25 26  2  0  0  0  0
 25 46  1  0  0  0  0
 26 47  1  0  0  0  0
 27 48  1  0  0  0  0
 28 29  2  0  0  0  0
 28 49  1  0  0  0  0
 29 50  1  0  0  0  0
 30 31  1  0  0  0  0
 30 51  1  0  0  0  0
 31 32  2  0  0  0  0
 31 52  1  0  0  0  0
M  END
$$$$
