
 OpenBabel01122422513D

 49 52  0  0  0  0  0  0  0  0999 V2000
    1.3930    0.0738   -0.3747 C   0  0  0  0  0  0  0  0  0  0  0  0
    1.7007    0.1976    1.0917 C   0  0  0  0  0  0  0  0  0  0  0  0
    1.4486    1.4675    1.6608 C   0  0  0  0  0  0  0  0  0  0  0  0
    1.6797    1.7301    3.0092 C   0  0  0  0  0  0  0  0  0  0  0  0
    2.1650    0.7220    3.8262 C   0  0  0  0  0  0  0  0  0  0  0  0
    2.4242   -0.5382    3.2842 C   0  0  0  0  0  0  0  0  0  0  0  0
    2.2075   -0.8209    1.9215 C   0  0  0  0  0  0  0  0  0  0  0  0
    2.5678   -2.1094    1.6146 O   0  0  0  0  0  0  0  0  0  0  0  0
    2.2980   -2.6222    0.3260 C   0  0  0  0  0  0  0  0  0  0  0  0
    2.7103   -4.0843    0.1986 C   0  0  0  0  0  0  0  0  0  0  0  0
    1.8843   -4.9923    0.1553 O   0  0  0  0  0  0  0  0  0  0  0  0
    4.0869   -4.2512    0.1227 N   0  0  0  0  0  0  0  0  0  0  0  0
    4.6736   -5.5177   -0.0426 C   0  0  0  0  0  0  0  0  0  0  0  0
    4.2173   -6.4326   -0.9976 C   0  0  0  0  0  0  0  0  0  0  0  0
    4.8111   -7.6953   -1.0975 C   0  0  0  0  0  0  0  0  0  0  0  0
    5.8204   -8.0728   -0.2112 C   0  0  0  0  0  0  0  0  0  0  0  0
    6.3380   -9.3672   -0.2757 N   0  0  0  0  0  0  0  0  0  0  0  0
    7.1527   -9.7317    0.6613 C   0  0  0  0  0  0  0  0  0  0  0  0
    7.6005   -8.9499    1.7082 N   0  0  0  0  0  0  0  0  0  0  0  0
    8.4474   -9.5126    2.7344 C   0  0  0  0  0  0  0  0  0  0  0  0
    8.4802   -8.9681    4.0323 C   0  0  0  0  0  0  0  0  0  0  0  0
    9.2956   -9.5171    5.0227 C   0  0  0  0  0  0  0  0  0  0  0  0
    9.3400   -8.9837    6.2786 O   0  0  0  0  0  0  0  0  0  0  0  0
   10.0844  -10.6255    4.7637 C   0  0  0  0  0  0  0  0  0  0  0  0
   10.0628  -11.1887    3.4937 C   0  0  0  0  0  0  0  0  0  0  0  0
    9.2544  -10.6388    2.4902 C   0  0  0  0  0  0  0  0  0  0  0  0
    7.2327   -7.5944    1.7497 C   0  0  0  0  0  0  0  0  0  0  0  0
    7.6661   -6.7487    2.5201 O   0  0  0  0  0  0  0  0  0  0  0  0
    6.2545   -7.1554    0.7396 C   0  0  0  0  0  0  0  0  0  0  0  0
    5.7272   -5.8605    0.7946 C   0  0  0  0  0  0  0  0  0  0  0  0
    1.0233    1.0165   -0.7932 H   0  0  0  0  0  0  0  0  0  0  0  0
    0.6028   -0.6617   -0.5459 H   0  0  0  0  0  0  0  0  0  0  0  0
    2.2925   -0.1725   -0.9437 H   0  0  0  0  0  0  0  0  0  0  0  0
    1.0635    2.2772    1.0420 H   0  0  0  0  0  0  0  0  0  0  0  0
    1.4777    2.7182    3.4143 H   0  0  0  0  0  0  0  0  0  0  0  0
    2.3430    0.9122    4.8813 H   0  0  0  0  0  0  0  0  0  0  0  0
    2.8021   -1.3199    3.9411 H   0  0  0  0  0  0  0  0  0  0  0  0
    2.8812   -2.0821   -0.4245 H   0  0  0  0  0  0  0  0  0  0  0  0
    1.2281   -2.5830    0.1032 H   0  0  0  0  0  0  0  0  0  0  0  0
    4.6260   -3.5494    0.6196 H   0  0  0  0  0  0  0  0  0  0  0  0
    3.4082   -6.1731   -1.6768 H   0  0  0  0  0  0  0  0  0  0  0  0
    4.4618   -8.4014   -1.8483 H   0  0  0  0  0  0  0  0  0  0  0  0
    7.5014  -10.7730    0.6456 H   0  0  0  0  0  0  0  0  0  0  0  0
    7.8456   -8.1293    4.3007 H   0  0  0  0  0  0  0  0  0  0  0  0
    8.8198   -8.1616    6.2840 H   0  0  0  0  0  0  0  0  0  0  0  0
   10.7153  -11.0426    5.5418 H   0  0  0  0  0  0  0  0  0  0  0  0
   10.6890  -12.0497    3.2760 H   0  0  0  0  0  0  0  0  0  0  0  0
    9.3197  -11.0982    1.5076 H   0  0  0  0  0  0  0  0  0  0  0  0
    6.0788   -5.1656    1.5535 H   0  0  0  0  0  0  0  0  0  0  0  0
  1  2  1  0  0  0  0
  1 31  1  0  0  0  0
  1 32  1  0  0  0  0
  1 33  1  0  0  0  0
  2  3  2  0  0  0  0
  2  7  1  0  0  0  0
  3  4  1  0  0  0  0
  3 34  1  0  0  0  0
  4  5  2  0  0  0  0
  4 35  1  0  0  0  0
  5  6  1  0  0  0  0
  5 36  1  0  0  0  0
  6  7  2  0  0  0  0
  6 37  1  0  0  0  0
  7  8  1  0  0  0  0
  8  9  1  0  0  0  0
  9 10  1  0  0  0  0
  9 38  1  0  0  0  0
  9 39  1  0  0  0  0
 10 11  2  0  0  0  0
 10 12  1  0  0  0  0
 12 13  1  0  0  0  0
 12 40  1  0  0  0  0
 13 14  2  0  0  0  0
 13 30  1  0  0  0  0
 14 15  1  0  0  0  0
 14 41  1  0  0  0  0
 15 16  2  0  0  0  0
 15 42  1  0  0  0  0
 16 17  1  0  0  0  0
 16 29  1  0  0  0  0
 17 18  2  0  0  0  0
 18 19  1  0  0  0  0
 18 43  1  0  0  0  0
 19 20  1  0  0  0  0
 19 27  1  0  0  0  0
 20 21  2  0  0  0  0
 20 26  1  0  0  0  0
 21 22  1  0  0  0  0
 21 44  1  0  0  0  0
 22 23  1  0  0  0  0
 22 24  2  0  0  0  0
 23 45  1  0  0  0  0
 24 25  1  0  0  0  0
 24 46  1  0  0  0  0
 25 26  2  0  0  0  0
 25 47  1  0  0  0  0
 26 48  1  0  0  0  0
 27 28  2  0  0  0  0
 27 29  1  0  0  0  0
 29 30  2  0  0  0  0
 30 49  1  0  0  0  0
M  END
$$$$
