
 OpenBabel01122422513D

 49 52  0  0  0  0  0  0  0  0999 V2000
   -0.4857   -2.4469   -2.4850 C   0  0  0  0  0  0  0  0  0  0  0  0
    0.6632   -3.1170   -3.1702 C   0  0  0  0  0  0  0  0  0  0  0  0
    1.7160   -3.6610   -2.5266 C   0  0  0  0  0  0  0  0  0  0  0  0
    2.7497   -4.2694   -3.2500 N   0  0  0  0  0  0  0  0  0  0  0  0
    3.9253   -4.8888   -2.8310 C   0  0  0  0  0  0  0  0  0  0  0  0
    4.3679   -5.0409   -1.4631 C   0  0  0  0  0  0  0  0  0  0  0  0
    3.7519   -4.6119   -0.4917 O   0  0  0  0  0  0  0  0  0  0  0  0
    5.5600   -5.7174   -1.2994 N   0  0  0  0  0  0  0  0  0  0  0  0
    6.1340   -5.9245    0.0104 C   0  0  0  0  0  0  0  0  0  0  0  0
    7.4463   -6.6639   -0.0876 C   0  0  0  0  0  0  0  0  0  0  0  0
    8.6441   -5.9507   -0.2059 C   0  0  0  0  0  0  0  0  0  0  0  0
    9.8578   -6.6294   -0.3241 C   0  0  0  0  0  0  0  0  0  0  0  0
    9.8963   -8.0304   -0.3444 C   0  0  0  0  0  0  0  0  0  0  0  0
   11.2335   -8.6702   -0.4366 C   0  0  0  0  0  0  0  0  0  0  0  0
   12.1668   -8.0914    0.1093 O   0  0  0  0  0  0  0  0  0  0  0  0
   11.3275   -9.8216   -1.2098 N   0  0  0  0  0  0  0  0  0  0  0  0
   12.5414  -10.4784   -1.5417 C   0  0  0  0  0  0  0  0  0  0  0  0
   13.7452  -10.2478   -0.8636 C   0  0  0  0  0  0  0  0  0  0  0  0
   14.9382  -10.8313   -1.2985 C   0  0  0  0  0  0  0  0  0  0  0  0
   14.9261  -11.6645   -2.4042 C   0  0  0  0  0  0  0  0  0  0  0  0
   16.0747  -12.1987   -2.8442 F   0  0  0  0  0  0  0  0  0  0  0  0
   13.7367  -11.9516   -3.0635 C   0  0  0  0  0  0  0  0  0  0  0  0
   12.5415  -11.3683   -2.6245 C   0  0  0  0  0  0  0  0  0  0  0  0
    8.7067   -8.7536   -0.2247 C   0  0  0  0  0  0  0  0  0  0  0  0
    7.4880   -8.0689   -0.0998 C   0  0  0  0  0  0  0  0  0  0  0  0
    4.5279   -5.2923   -4.0125 C   0  0  0  0  0  0  0  0  0  0  0  0
    3.7924   -4.9580   -5.1150 N   0  0  0  0  0  0  0  0  0  0  0  0
    2.7332   -4.3431   -4.6439 C   0  0  0  0  0  0  0  0  0  0  0  0
    1.6251   -3.7704   -5.3261 C   0  0  0  0  0  0  0  0  0  0  0  0
    0.6358   -3.1832   -4.6288 C   0  0  0  0  0  0  0  0  0  0  0  0
   -0.3733   -2.4592   -1.3955 H   0  0  0  0  0  0  0  0  0  0  0  0
   -1.4269   -2.9527   -2.7275 H   0  0  0  0  0  0  0  0  0  0  0  0
   -0.5646   -1.4012   -2.8002 H   0  0  0  0  0  0  0  0  0  0  0  0
    1.8009   -3.6483   -1.4457 H   0  0  0  0  0  0  0  0  0  0  0  0
    6.0672   -6.0694   -2.0957 H   0  0  0  0  0  0  0  0  0  0  0  0
    5.4185   -6.4809    0.6270 H   0  0  0  0  0  0  0  0  0  0  0  0
    6.2742   -4.9478    0.4896 H   0  0  0  0  0  0  0  0  0  0  0  0
    8.6465   -4.8617   -0.1956 H   0  0  0  0  0  0  0  0  0  0  0  0
   10.7847   -6.0595   -0.3943 H   0  0  0  0  0  0  0  0  0  0  0  0
   10.5088  -10.0966   -1.7371 H   0  0  0  0  0  0  0  0  0  0  0  0
   13.7922   -9.6093    0.0135 H   0  0  0  0  0  0  0  0  0  0  0  0
   15.8703  -10.6233   -0.7827 H   0  0  0  0  0  0  0  0  0  0  0  0
   13.7527  -12.6127   -3.9246 H   0  0  0  0  0  0  0  0  0  0  0  0
   11.6263  -11.5905   -3.1688 H   0  0  0  0  0  0  0  0  0  0  0  0
    8.7125   -9.8395   -0.1860 H   0  0  0  0  0  0  0  0  0  0  0  0
    6.5658   -8.6394    0.0070 H   0  0  0  0  0  0  0  0  0  0  0  0
    5.4675   -5.8129   -4.1375 H   0  0  0  0  0  0  0  0  0  0  0  0
    1.6032   -3.8204   -6.4089 H   0  0  0  0  0  0  0  0  0  0  0  0
   -0.2111   -2.7449   -5.1497 H   0  0  0  0  0  0  0  0  0  0  0  0
  1  2  1  0  0  0  0
  1 31  1  0  0  0  0
  1 32  1  0  0  0  0
  1 33  1  0  0  0  0
  2  3  2  0  0  0  0
  2 30  1  0  0  0  0
  3  4  1  0  0  0  0
  3 34  1  0  0  0  0
  4  5  1  0  0  0  0
  4 28  1  0  0  0  0
  5  6  1  0  0  0  0
  5 26  2  0  0  0  0
  6  7  2  0  0  0  0
  6  8  1  0  0  0  0
  8  9  1  0  0  0  0
  8 35  1  0  0  0  0
  9 10  1  0  0  0  0
  9 36  1  0  0  0  0
  9 37  1  0  0  0  0
 10 11  2  0  0  0  0
 10 25  1  0  0  0  0
 11 12  1  0  0  0  0
 11 38  1  0  0  0  0
 12 13  2  0  0  0  0
 12 39  1  0  0  0  0
 13 14  1  0  0  0  0
 13 24  1  0  0  0  0
 14 15  2  0  0  0  0
 14 16  1  0  0  0  0
 16 17  1  0  0  0  0
 16 40  1  0  0  0  0
 17 18  2  0  0  0  0
 17 23  1  0  0  0  0
 18 19  1  0  0  0  0
 18 41  1  0  0  0  0
 19 20  2  0  0  0  0
 19 42  1  0  0  0  0
 20 21  1  0  0  0  0
 20 22  1  0  0  0  0
 22 23  2  0  0  0  0
 22 43  1  0  0  0  0
 23 44  1  0  0  0  0
 24 25  2  0  0  0  0
 24 45  1  0  0  0  0
 25 46  1  0  0  0  0
 26 27  1  0  0  0  0
 26 47  1  0  0  0  0
 27 28  2  0  0  0  0
 28 29  1  0  0  0  0
 29 30  2  0  0  0  0
 29 48  1  0  0  0  0
 30 49  1  0  0  0  0
M  END
$$$$
