
 OpenBabel01122422463D

 48 51  0  0  0  0  0  0  0  0999 V2000
    2.9660   -1.4070    0.1132 N   0  0  0  0  0  0  0  0  0  0  0  0
    3.7605   -0.5705    0.2490 C   0  0  0  0  0  0  0  0  0  0  0  0
    4.7501    0.5104    0.4357 C   0  0  0  0  0  0  0  0  0  0  0  0
    4.4192    1.6835   -0.3817 N   0  0  0  0  0  0  0  0  0  0  0  0
    3.5778    2.6570    0.1436 C   0  0  0  0  0  0  0  0  0  0  0  0
    3.0198    3.6412   -0.6003 C   0  0  0  0  0  0  0  0  0  0  0  0
    2.0866    4.5754   -0.1316 N   0  0  0  0  0  0  0  0  0  0  0  0
    1.5639    4.5850    1.1606 C   0  0  0  0  0  0  0  0  0  0  0  0
    1.8856    3.7271    1.9867 O   0  0  0  0  0  0  0  0  0  0  0  0
    0.6008    5.5697    1.6277 C   0  0  0  0  0  0  0  0  0  0  0  0
    0.0083    6.7729    1.2635 C   0  0  0  0  0  0  0  0  0  0  0  0
   -0.7698    7.2490    2.3965 C   0  0  0  0  0  0  0  0  0  0  0  0
   -1.5678    8.3809    2.6906 C   0  0  0  0  0  0  0  0  0  0  0  0
   -2.0713    8.5580    4.0007 C   0  0  0  0  0  0  0  0  0  0  0  0
   -1.7779    7.6563    5.0237 C   0  0  0  0  0  0  0  0  0  0  0  0
   -2.0864    7.8468    6.3522 O   0  0  0  0  0  0  0  0  0  0  0  0
   -2.1615    9.2284    6.7346 C   0  0  0  0  0  0  0  0  0  0  0  0
   -1.8582    9.4658    8.1983 C   0  0  0  0  0  0  0  0  0  0  0  0
   -1.2422   10.6715    8.5807 C   0  0  0  0  0  0  0  0  0  0  0  0
   -0.9643   10.9415    9.9211 C   0  0  0  0  0  0  0  0  0  0  0  0
   -1.3163   10.0163   10.8997 C   0  0  0  0  0  0  0  0  0  0  0  0
   -1.9584    8.8323   10.5383 C   0  0  0  0  0  0  0  0  0  0  0  0
   -2.2339    8.5591    9.1949 C   0  0  0  0  0  0  0  0  0  0  0  0
   -1.1042    6.4721    4.7167 C   0  0  0  0  0  0  0  0  0  0  0  0
   -0.6185    6.3219    3.4210 C   0  0  0  0  0  0  0  0  0  0  0  0
    0.0899    5.2884    2.8864 N   0  0  0  0  0  0  0  0  0  0  0  0
    3.4249    3.7017   -1.9983 C   0  0  0  0  0  0  0  0  0  0  0  0
    4.2722    2.8053   -2.5282 C   0  0  0  0  0  0  0  0  0  0  0  0
    4.8058    1.6818   -1.7102 C   0  0  0  0  0  0  0  0  0  0  0  0
    5.5271    0.8321   -2.2248 O   0  0  0  0  0  0  0  0  0  0  0  0
    5.7476    0.1455    0.1685 H   0  0  0  0  0  0  0  0  0  0  0  0
    4.7914    0.8023    1.4930 H   0  0  0  0  0  0  0  0  0  0  0  0
    3.3755    2.5236    1.1949 H   0  0  0  0  0  0  0  0  0  0  0  0
    1.7027    5.2428   -0.7875 H   0  0  0  0  0  0  0  0  0  0  0  0
    0.1464    7.3173    0.3376 H   0  0  0  0  0  0  0  0  0  0  0  0
   -1.7841    9.1365    1.9414 H   0  0  0  0  0  0  0  0  0  0  0  0
   -2.6815    9.4332    4.2040 H   0  0  0  0  0  0  0  0  0  0  0  0
   -3.1730    9.5966    6.5298 H   0  0  0  0  0  0  0  0  0  0  0  0
   -1.4300    9.8127    6.1619 H   0  0  0  0  0  0  0  0  0  0  0  0
   -0.9706   11.4127    7.8311 H   0  0  0  0  0  0  0  0  0  0  0  0
   -0.4754   11.8712   10.1996 H   0  0  0  0  0  0  0  0  0  0  0  0
   -1.0934   10.2198   11.9437 H   0  0  0  0  0  0  0  0  0  0  0  0
   -2.2462    8.1180   11.3054 H   0  0  0  0  0  0  0  0  0  0  0  0
   -2.7413    7.6343    8.9308 H   0  0  0  0  0  0  0  0  0  0  0  0
   -0.9151    5.7225    5.4804 H   0  0  0  0  0  0  0  0  0  0  0  0
    0.3452    4.4452    3.3828 H   0  0  0  0  0  0  0  0  0  0  0  0
    3.0448    4.4991   -2.6258 H   0  0  0  0  0  0  0  0  0  0  0  0
    4.5992    2.8297   -3.5599 H   0  0  0  0  0  0  0  0  0  0  0  0
  1  2  3  0  0  0  0
  2  3  1  0  0  0  0
  3  4  1  0  0  0  0
  3 31  1  0  0  0  0
  3 32  1  0  0  0  0
  4  5  1  0  0  0  0
  4 29  1  0  0  0  0
  5  6  2  0  0  0  0
  5 33  1  0  0  0  0
  6  7  1  0  0  0  0
  6 27  1  0  0  0  0
  7  8  1  0  0  0  0
  7 34  1  0  0  0  0
  8  9  2  0  0  0  0
  8 10  1  0  0  0  0
 10 11  2  0  0  0  0
 10 26  1  0  0  0  0
 11 12  1  0  0  0  0
 11 35  1  0  0  0  0
 12 13  2  0  0  0  0
 12 25  1  0  0  0  0
 13 14  1  0  0  0  0
 13 36  1  0  0  0  0
 14 15  2  0  0  0  0
 14 37  1  0  0  0  0
 15 16  1  0  0  0  0
 15 24  1  0  0  0  0
 16 17  1  0  0  0  0
 17 18  1  0  0  0  0
 17 38  1  0  0  0  0
 17 39  1  0  0  0  0
 18 19  2  0  0  0  0
 18 23  1  0  0  0  0
 19 20  1  0  0  0  0
 19 40  1  0  0  0  0
 20 21  2  0  0  0  0
 20 41  1  0  0  0  0
 21 22  1  0  0  0  0
 21 42  1  0  0  0  0
 22 23  2  0  0  0  0
 22 43  1  0  0  0  0
 23 44  1  0  0  0  0
 24 25  2  0  0  0  0
 24 45  1  0  0  0  0
 25 26  1  0  0  0  0
 26 46  1  0  0  0  0
 27 28  2  0  0  0  0
 27 47  1  0  0  0  0
 28 29  1  0  0  0  0
 28 48  1  0  0  0  0
 29 30  2  0  0  0  0
M  END
$$$$
