
 OpenBabel01122422513D

 47 50  0  0  0  0  0  0  0  0999 V2000
    5.7727   -0.3757    2.7716 O   0  0  0  0  0  0  0  0  0  0  0  0
    5.5450   -0.6763    1.6163 C   0  0  0  0  0  0  0  0  0  0  0  0
    4.8346   -1.7703    1.2606 O   0  0  0  0  0  0  0  0  0  0  0  0
    6.0452    0.1125    0.4775 C   0  0  0  0  0  0  0  0  0  0  0  0
    7.2284    0.8125    0.6123 C   0  0  0  0  0  0  0  0  0  0  0  0
    7.7543    1.6004   -0.3625 N   0  0  0  0  0  0  0  0  0  0  0  0
    7.1135    1.7100   -1.5266 C   0  0  0  0  0  0  0  0  0  0  0  0
    7.6379    2.4943   -2.4691 N   0  0  0  0  0  0  0  0  0  0  0  0
    7.0689    2.5138   -3.6945 C   0  0  0  0  0  0  0  0  0  0  0  0
    7.6977    3.3211   -4.6313 N   0  0  0  0  0  0  0  0  0  0  0  0
    7.9315    2.9584   -5.9393 C   0  0  0  0  0  0  0  0  0  0  0  0
    7.6258    1.8689   -6.4174 O   0  0  0  0  0  0  0  0  0  0  0  0
    8.6551    3.9619   -6.7903 C   0  0  0  0  0  0  0  0  0  0  0  0
    9.0415    3.5578   -8.0817 C   0  0  0  0  0  0  0  0  0  0  0  0
    9.6731    4.4467   -8.9681 C   0  0  0  0  0  0  0  0  0  0  0  0
   10.0851    3.9921  -10.3520 C   0  0  0  0  0  0  0  0  0  0  0  0
    8.9981    4.1566  -11.3875 C   0  0  0  0  0  0  0  0  0  0  0  0
    8.9019    5.3358  -12.1402 C   0  0  0  0  0  0  0  0  0  0  0  0
    7.8583    5.5119  -13.0505 C   0  0  0  0  0  0  0  0  0  0  0  0
    6.9038    4.5112  -13.2208 C   0  0  0  0  0  0  0  0  0  0  0  0
    7.0006    3.3267  -12.4934 C   0  0  0  0  0  0  0  0  0  0  0  0
    8.0422    3.1492  -11.5816 C   0  0  0  0  0  0  0  0  0  0  0  0
    9.8886    5.7670   -8.5570 C   0  0  0  0  0  0  0  0  0  0  0  0
    9.5307    6.1789   -7.2718 C   0  0  0  0  0  0  0  0  0  0  0  0
    8.9345    5.2766   -6.3882 C   0  0  0  0  0  0  0  0  0  0  0  0
    8.6387    5.7014   -5.1186 O   0  0  0  0  0  0  0  0  0  0  0  0
    5.8977    1.8466   -3.9992 C   0  0  0  0  0  0  0  0  0  0  0  0
    5.2825    1.1100   -2.9968 C   0  0  0  0  0  0  0  0  0  0  0  0
    5.9071    1.0155   -1.7498 C   0  0  0  0  0  0  0  0  0  0  0  0
    5.3566    0.2324   -0.7233 C   0  0  0  0  0  0  0  0  0  0  0  0
    4.8761   -2.0195    0.3198 H   0  0  0  0  0  0  0  0  0  0  0  0
    7.8117    0.7721    1.5290 H   0  0  0  0  0  0  0  0  0  0  0  0
    8.2642    4.0722   -4.2527 H   0  0  0  0  0  0  0  0  0  0  0  0
    8.8462    2.5350   -8.4018 H   0  0  0  0  0  0  0  0  0  0  0  0
   10.4063    2.9427  -10.3148 H   0  0  0  0  0  0  0  0  0  0  0  0
   10.9819    4.5437  -10.6661 H   0  0  0  0  0  0  0  0  0  0  0  0
    9.6354    6.1288  -12.0165 H   0  0  0  0  0  0  0  0  0  0  0  0
    7.7850    6.4340  -13.6211 H   0  0  0  0  0  0  0  0  0  0  0  0
    6.0827    4.6550  -13.9180 H   0  0  0  0  0  0  0  0  0  0  0  0
    6.2591    2.5435  -12.6284 H   0  0  0  0  0  0  0  0  0  0  0  0
    8.0968    2.2222  -11.0148 H   0  0  0  0  0  0  0  0  0  0  0  0
   10.3439    6.4852   -9.2362 H   0  0  0  0  0  0  0  0  0  0  0  0
    9.7214    7.2074   -6.9806 H   0  0  0  0  0  0  0  0  0  0  0  0
    8.9410    6.6203   -5.0096 H   0  0  0  0  0  0  0  0  0  0  0  0
    5.4375    1.9360   -4.9758 H   0  0  0  0  0  0  0  0  0  0  0  0
    4.3377    0.6148   -3.1998 H   0  0  0  0  0  0  0  0  0  0  0  0
    4.3929   -0.2477   -0.8673 H   0  0  0  0  0  0  0  0  0  0  0  0
  1  2  2  0  0  0  0
  2  3  1  0  0  0  0
  2  4  1  0  0  0  0
  3 31  1  0  0  0  0
  4  5  2  0  0  0  0
  4 30  1  0  0  0  0
  5  6  1  0  0  0  0
  5 32  1  0  0  0  0
  6  7  2  0  0  0  0
  7  8  1  0  0  0  0
  7 29  1  0  0  0  0
  8  9  2  0  0  0  0
  9 10  1  0  0  0  0
  9 27  1  0  0  0  0
 10 11  1  0  0  0  0
 10 33  1  0  0  0  0
 11 12  2  0  0  0  0
 11 13  1  0  0  0  0
 13 14  2  0  0  0  0
 13 25  1  0  0  0  0
 14 15  1  0  0  0  0
 14 34  1  0  0  0  0
 15 16  1  0  0  0  0
 15 23  2  0  0  0  0
 16 17  1  0  0  0  0
 16 35  1  0  0  0  0
 16 36  1  0  0  0  0
 17 18  2  0  0  0  0
 17 22  1  0  0  0  0
 18 19  1  0  0  0  0
 18 37  1  0  0  0  0
 19 20  2  0  0  0  0
 19 38  1  0  0  0  0
 20 21  1  0  0  0  0
 20 39  1  0  0  0  0
 21 22  2  0  0  0  0
 21 40  1  0  0  0  0
 22 41  1  0  0  0  0
 23 24  1  0  0  0  0
 23 42  1  0  0  0  0
 24 25  2  0  0  0  0
 24 43  1  0  0  0  0
 25 26  1  0  0  0  0
 26 44  1  0  0  0  0
 27 28  2  0  0  0  0
 27 45  1  0  0  0  0
 28 29  1  0  0  0  0
 28 46  1  0  0  0  0
 29 30  2  0  0  0  0
 30 47  1  0  0  0  0
M  END
$$$$
