
 OpenBabel01122422513D

 54 57  0  0  0  0  0  0  0  0999 V2000
    5.6489   -5.6917   -6.2429 C   0  0  0  0  0  0  0  0  0  0  0  0
    4.7755   -5.9038   -5.1407 O   0  0  0  0  0  0  0  0  0  0  0  0
    3.5732   -6.5042   -5.4048 C   0  0  0  0  0  0  0  0  0  0  0  0
    3.3975   -7.3649   -6.4994 C   0  0  0  0  0  0  0  0  0  0  0  0
    2.1772   -8.0038   -6.7261 C   0  0  0  0  0  0  0  0  0  0  0  0
    1.1163   -7.7999   -5.8541 C   0  0  0  0  0  0  0  0  0  0  0  0
    1.2807   -6.9547   -4.7579 C   0  0  0  0  0  0  0  0  0  0  0  0
    2.4997   -6.3002   -4.5189 C   0  0  0  0  0  0  0  0  0  0  0  0
    2.4520   -5.5145   -3.3968 O   0  0  0  0  0  0  0  0  0  0  0  0
    3.5884   -4.7305   -3.0610 C   0  0  0  0  0  0  0  0  0  0  0  0
    3.2907   -4.0086   -1.7462 C   0  0  0  0  0  0  0  0  0  0  0  0
    2.8376   -2.8626   -1.7115 O   0  0  0  0  0  0  0  0  0  0  0  0
    3.5119   -4.6839   -0.5675 N   0  0  0  0  0  0  0  0  0  0  0  0
    4.1023   -5.9459   -0.4739 C   0  0  0  0  0  0  0  0  0  0  0  0
    5.4926   -6.0475   -0.5188 C   0  0  0  0  0  0  0  0  0  0  0  0
    6.0782   -7.3039   -0.5489 C   0  0  0  0  0  0  0  0  0  0  0  0
    5.2742   -8.4432   -0.4950 C   0  0  0  0  0  0  0  0  0  0  0  0
    3.8813   -8.3559   -0.3700 C   0  0  0  0  0  0  0  0  0  0  0  0
    3.0551   -9.5015   -0.2139 N   0  0  0  0  0  0  0  0  0  0  0  0
    3.5180  -10.7479    0.1963 C   0  0  0  0  0  0  0  0  0  0  0  0
    4.6982  -10.9796    0.4550 O   0  0  0  0  0  0  0  0  0  0  0  0
    2.5263  -11.7763    0.3695 C   0  0  0  0  0  0  0  0  0  0  0  0
    1.3098  -11.9977   -0.2524 C   0  0  0  0  0  0  0  0  0  0  0  0
    0.7272  -13.1674    0.1696 N   0  0  0  0  0  0  0  0  0  0  0  0
    1.5694  -13.6826    1.0401 C   0  0  0  0  0  0  0  0  0  0  0  0
    1.5191  -14.8920    1.7925 C   0  0  0  0  0  0  0  0  0  0  0  0
    2.5101  -15.1939    2.6563 C   0  0  0  0  0  0  0  0  0  0  0  0
    3.6506  -14.3060    2.8507 C   0  0  0  0  0  0  0  0  0  0  0  0
    4.7225  -14.6724    3.8289 C   0  0  0  0  0  0  0  0  0  0  0  0
    3.7005  -13.1716    2.1277 C   0  0  0  0  0  0  0  0  0  0  0  0
    2.6804  -12.8646    1.2198 N   0  0  0  0  0  0  0  0  0  0  0  0
    3.2924   -7.0876   -0.3919 C   0  0  0  0  0  0  0  0  0  0  0  0
    6.4978   -5.1015   -5.8852 H   0  0  0  0  0  0  0  0  0  0  0  0
    5.1491   -5.1217   -7.0327 H   0  0  0  0  0  0  0  0  0  0  0  0
    6.0500   -6.6355   -6.6242 H   0  0  0  0  0  0  0  0  0  0  0  0
    4.2051   -7.5792   -7.1908 H   0  0  0  0  0  0  0  0  0  0  0  0
    2.0625   -8.6659   -7.5810 H   0  0  0  0  0  0  0  0  0  0  0  0
    0.1663   -8.2996   -6.0217 H   0  0  0  0  0  0  0  0  0  0  0  0
    0.4462   -6.7982   -4.0779 H   0  0  0  0  0  0  0  0  0  0  0  0
    3.7853   -3.9692   -3.8239 H   0  0  0  0  0  0  0  0  0  0  0  0
    4.4755   -5.3534   -2.9304 H   0  0  0  0  0  0  0  0  0  0  0  0
    3.2681   -4.1884    0.2812 H   0  0  0  0  0  0  0  0  0  0  0  0
    6.1217   -5.1624   -0.5660 H   0  0  0  0  0  0  0  0  0  0  0  0
    7.1567   -7.4129   -0.6255 H   0  0  0  0  0  0  0  0  0  0  0  0
    5.7808   -9.4001   -0.5709 H   0  0  0  0  0  0  0  0  0  0  0  0
    2.0545   -9.3507   -0.2326 H   0  0  0  0  0  0  0  0  0  0  0  0
    0.8342  -11.3986   -1.0204 H   0  0  0  0  0  0  0  0  0  0  0  0
    0.6752  -15.5558    1.6495 H   0  0  0  0  0  0  0  0  0  0  0  0
    2.4721  -16.1182    3.2257 H   0  0  0  0  0  0  0  0  0  0  0  0
    4.5023  -15.6112    4.3493 H   0  0  0  0  0  0  0  0  0  0  0  0
    4.8294  -13.8927    4.5914 H   0  0  0  0  0  0  0  0  0  0  0  0
    5.6839  -14.7943    3.3194 H   0  0  0  0  0  0  0  0  0  0  0  0
    4.5216  -12.4713    2.2251 H   0  0  0  0  0  0  0  0  0  0  0  0
    2.2131   -6.9669   -0.3535 H   0  0  0  0  0  0  0  0  0  0  0  0
  1  2  1  0  0  0  0
  1 33  1  0  0  0  0
  1 34  1  0  0  0  0
  1 35  1  0  0  0  0
  2  3  1  0  0  0  0
  3  4  2  0  0  0  0
  3  8  1  0  0  0  0
  4  5  1  0  0  0  0
  4 36  1  0  0  0  0
  5  6  2  0  0  0  0
  5 37  1  0  0  0  0
  6  7  1  0  0  0  0
  6 38  1  0  0  0  0
  7  8  2  0  0  0  0
  7 39  1  0  0  0  0
  8  9  1  0  0  0  0
  9 10  1  0  0  0  0
 10 11  1  0  0  0  0
 10 40  1  0  0  0  0
 10 41  1  0  0  0  0
 11 12  2  0  0  0  0
 11 13  1  0  0  0  0
 13 14  1  0  0  0  0
 13 42  1  0  0  0  0
 14 15  2  0  0  0  0
 14 32  1  0  0  0  0
 15 16  1  0  0  0  0
 15 43  1  0  0  0  0
 16 17  2  0  0  0  0
 16 44  1  0  0  0  0
 17 18  1  0  0  0  0
 17 45  1  0  0  0  0
 18 19  1  0  0  0  0
 18 32  2  0  0  0  0
 19 20  1  0  0  0  0
 19 46  1  0  0  0  0
 20 21  2  0  0  0  0
 20 22  1  0  0  0  0
 22 23  2  0  0  0  0
 22 31  1  0  0  0  0
 23 24  1  0  0  0  0
 23 47  1  0  0  0  0
 24 25  2  0  0  0  0
 25 26  1  0  0  0  0
 25 31  1  0  0  0  0
 26 27  2  0  0  0  0
 26 48  1  0  0  0  0
 27 28  1  0  0  0  0
 27 49  1  0  0  0  0
 28 29  1  0  0  0  0
 28 30  2  0  0  0  0
 29 50  1  0  0  0  0
 29 51  1  0  0  0  0
 29 52  1  0  0  0  0
 30 31  1  0  0  0  0
 30 53  1  0  0  0  0
 32 54  1  0  0  0  0
M  END
$$$$
