
 OpenBabel01122422513D

 42 45  0  0  0  0  0  0  0  0999 V2000
    2.3975   -0.6542   -1.3104 O   0  0  0  0  0  0  0  0  0  0  0  0
    3.3234   -0.4970   -0.5227 C   0  0  0  0  0  0  0  0  0  0  0  0
    3.4688   -1.0723    0.7372 N   0  0  0  0  0  0  0  0  0  0  0  0
    2.6232   -2.0162    1.3676 C   0  0  0  0  0  0  0  0  0  0  0  0
    1.4309   -2.4513    0.7898 C   0  0  0  0  0  0  0  0  0  0  0  0
    0.6440   -3.4045    1.4288 C   0  0  0  0  0  0  0  0  0  0  0  0
    1.0573   -3.9601    2.6367 C   0  0  0  0  0  0  0  0  0  0  0  0
    2.2660   -3.5830    3.2277 C   0  0  0  0  0  0  0  0  0  0  0  0
    2.7581   -4.2126    4.4080 N   0  0  0  0  0  0  0  0  0  0  0  0
    2.3175   -5.4448    4.8876 C   0  0  0  0  0  0  0  0  0  0  0  0
    1.4619   -6.1419    4.3549 O   0  0  0  0  0  0  0  0  0  0  0  0
    2.9531   -5.9503    6.0920 C   0  0  0  0  0  0  0  0  0  0  0  0
    3.9235   -5.4211    6.9038 C   0  0  0  0  0  0  0  0  0  0  0  0
    4.5307   -4.2750    6.7506 F   0  0  0  0  0  0  0  0  0  0  0  0
    4.1444   -6.3120    7.9141 N   0  0  0  0  0  0  0  0  0  0  0  0
    3.3852   -7.4175    7.8165 N   0  0  0  0  0  0  0  0  0  0  0  0
    2.6649   -7.1965    6.7145 C   0  0  0  0  0  0  0  0  0  0  0  0
    3.0209   -2.5668    2.6085 C   0  0  0  0  0  0  0  0  0  0  0  0
    4.4934    0.3632   -0.9277 C   0  0  0  0  0  0  0  0  0  0  0  0
    4.5220    0.9861   -2.1770 C   0  0  0  0  0  0  0  0  0  0  0  0
    5.7008    1.6346   -2.5790 C   0  0  0  0  0  0  0  0  0  0  0  0
    5.8414    2.2457   -3.8427 C   0  0  0  0  0  0  0  0  0  0  0  0
    7.0657    2.7955   -4.2372 C   0  0  0  0  0  0  0  0  0  0  0  0
    8.1470    2.7542   -3.3682 C   0  0  0  0  0  0  0  0  0  0  0  0
    9.3324    3.2382   -3.7615 F   0  0  0  0  0  0  0  0  0  0  0  0
    8.0261    2.2040   -2.0991 C   0  0  0  0  0  0  0  0  0  0  0  0
    6.8026    1.6405   -1.6964 C   0  0  0  0  0  0  0  0  0  0  0  0
    6.6383    1.0465   -0.4428 C   0  0  0  0  0  0  0  0  0  0  0  0
    5.5192    0.4064   -0.0345 N   0  0  0  0  0  0  0  0  0  0  0  0
    4.3331   -0.8181    1.2080 H   0  0  0  0  0  0  0  0  0  0  0  0
    1.0798   -2.0715   -0.1636 H   0  0  0  0  0  0  0  0  0  0  0  0
   -0.2886   -3.7320    0.9766 H   0  0  0  0  0  0  0  0  0  0  0  0
    0.3956   -4.6899    3.0922 H   0  0  0  0  0  0  0  0  0  0  0  0
    3.5702   -3.8015    4.8528 H   0  0  0  0  0  0  0  0  0  0  0  0
    4.7892   -6.2342    8.6909 H   0  0  0  0  0  0  0  0  0  0  0  0
    1.9481   -7.9426    6.3874 H   0  0  0  0  0  0  0  0  0  0  0  0
    3.9494   -2.2343    3.0641 H   0  0  0  0  0  0  0  0  0  0  0  0
    3.6615    0.9221   -2.8353 H   0  0  0  0  0  0  0  0  0  0  0  0
    5.0042    2.2815   -4.5382 H   0  0  0  0  0  0  0  0  0  0  0  0
    7.1871    3.2397   -5.2208 H   0  0  0  0  0  0  0  0  0  0  0  0
    8.8930    2.1923   -1.4478 H   0  0  0  0  0  0  0  0  0  0  0  0
    7.4421    1.0550    0.2874 H   0  0  0  0  0  0  0  0  0  0  0  0
  1  2  2  0  0  0  0
  2  3  1  0  0  0  0
  2 19  1  0  0  0  0
  3  4  1  0  0  0  0
  3 30  1  0  0  0  0
  4  5  2  0  0  0  0
  4 18  1  0  0  0  0
  5  6  1  0  0  0  0
  5 31  1  0  0  0  0
  6  7  2  0  0  0  0
  6 32  1  0  0  0  0
  7  8  1  0  0  0  0
  7 33  1  0  0  0  0
  8  9  1  0  0  0  0
  8 18  2  0  0  0  0
  9 10  1  0  0  0  0
  9 34  1  0  0  0  0
 10 11  2  0  0  0  0
 10 12  1  0  0  0  0
 12 13  2  0  0  0  0
 12 17  1  0  0  0  0
 13 14  1  0  0  0  0
 13 15  1  0  0  0  0
 15 16  1  0  0  0  0
 15 35  1  0  0  0  0
 16 17  2  0  0  0  0
 17 36  1  0  0  0  0
 18 37  1  0  0  0  0
 19 20  2  0  0  0  0
 19 29  1  0  0  0  0
 20 21  1  0  0  0  0
 20 38  1  0  0  0  0
 21 22  2  0  0  0  0
 21 27  1  0  0  0  0
 22 23  1  0  0  0  0
 22 39  1  0  0  0  0
 23 24  2  0  0  0  0
 23 40  1  0  0  0  0
 24 25  1  0  0  0  0
 24 26  1  0  0  0  0
 26 27  2  0  0  0  0
 26 41  1  0  0  0  0
 27 28  1  0  0  0  0
 28 29  2  0  0  0  0
 28 42  1  0  0  0  0
M  END
$$$$
