
 OpenBabel01122422513D

 51 54  0  0  0  0  0  0  0  0999 V2000
    0.5461   -1.0738   -0.2681 C   0  0  0  0  0  0  0  0  0  0  0  0
    1.8214   -1.4577    0.2410 O   0  0  0  0  0  0  0  0  0  0  0  0
    2.7371   -1.9088   -0.6800 C   0  0  0  0  0  0  0  0  0  0  0  0
    2.4409   -2.1558   -2.0296 C   0  0  0  0  0  0  0  0  0  0  0  0
    3.4311   -2.5968   -2.9103 C   0  0  0  0  0  0  0  0  0  0  0  0
    4.7314   -2.7717   -2.4558 C   0  0  0  0  0  0  0  0  0  0  0  0
    5.0308   -2.5334   -1.1113 C   0  0  0  0  0  0  0  0  0  0  0  0
    4.0442   -2.1284   -0.2037 C   0  0  0  0  0  0  0  0  0  0  0  0
    4.3793   -2.0201    1.1522 N   0  0  0  0  0  0  0  0  0  0  0  0
    5.6627   -2.2253    1.6383 C   0  0  0  0  0  0  0  0  0  0  0  0
    5.7741   -2.0926    3.1460 C   0  0  0  0  0  0  0  0  0  0  0  0
    5.0025   -1.3534    3.7559 O   0  0  0  0  0  0  0  0  0  0  0  0
    6.6644   -2.9157    3.7760 N   0  0  0  0  0  0  0  0  0  0  0  0
    6.8610   -2.8954    5.2145 C   0  0  0  0  0  0  0  0  0  0  0  0
    8.0776   -3.6987    5.6449 C   0  0  0  0  0  0  0  0  0  0  0  0
    8.8523   -4.1385    4.5946 N   0  0  0  0  0  0  0  0  0  0  0  0
    9.9913   -4.8027    4.8692 C   0  0  0  0  0  0  0  0  0  0  0  0
   10.4299   -5.0493    6.1482 C   0  0  0  0  0  0  0  0  0  0  0  0
    9.6360   -4.6116    7.2058 C   0  0  0  0  0  0  0  0  0  0  0  0
    8.4091   -3.9394    6.9986 C   0  0  0  0  0  0  0  0  0  0  0  0
    7.5844   -3.5746    8.1905 C   0  0  0  0  0  0  0  0  0  0  0  0
    6.8604   -2.3760    8.2969 C   0  0  0  0  0  0  0  0  0  0  0  0
    6.1045   -2.0617    9.4345 C   0  0  0  0  0  0  0  0  0  0  0  0
    6.0900   -2.9189   10.5268 C   0  0  0  0  0  0  0  0  0  0  0  0
    6.8087   -4.1049   10.4698 C   0  0  0  0  0  0  0  0  0  0  0  0
    7.5268   -4.4336    9.3126 C   0  0  0  0  0  0  0  0  0  0  0  0
    6.7138   -2.4863    0.8302 C   0  0  0  0  0  0  0  0  0  0  0  0
    8.1786   -2.5714    1.1491 C   0  0  0  0  0  0  0  0  0  0  0  0
    6.4123   -2.6961   -0.6246 C   0  0  0  0  0  0  0  0  0  0  0  0
    7.3074   -3.0052   -1.4059 O   0  0  0  0  0  0  0  0  0  0  0  0
   -0.0346   -0.6443    0.5534 H   0  0  0  0  0  0  0  0  0  0  0  0
   -0.0012   -1.9457   -0.6423 H   0  0  0  0  0  0  0  0  0  0  0  0
    0.6375   -0.3047   -1.0441 H   0  0  0  0  0  0  0  0  0  0  0  0
    1.4407   -2.0248   -2.4311 H   0  0  0  0  0  0  0  0  0  0  0  0
    3.1883   -2.7979   -3.9507 H   0  0  0  0  0  0  0  0  0  0  0  0
    5.5097   -3.1026   -3.1402 H   0  0  0  0  0  0  0  0  0  0  0  0
    3.6867   -1.6515    1.8004 H   0  0  0  0  0  0  0  0  0  0  0  0
    7.2618   -3.5610    3.2746 H   0  0  0  0  0  0  0  0  0  0  0  0
    5.9479   -3.2816    5.6765 H   0  0  0  0  0  0  0  0  0  0  0  0
    7.0087   -1.8457    5.4827 H   0  0  0  0  0  0  0  0  0  0  0  0
   10.5612   -5.1325    4.0047 H   0  0  0  0  0  0  0  0  0  0  0  0
   11.3635   -5.5709    6.3273 H   0  0  0  0  0  0  0  0  0  0  0  0
    9.9991   -4.7990    8.2156 H   0  0  0  0  0  0  0  0  0  0  0  0
    6.8759   -1.6301    7.5112 H   0  0  0  0  0  0  0  0  0  0  0  0
    5.5395   -1.1330    9.4649 H   0  0  0  0  0  0  0  0  0  0  0  0
    5.5260   -2.6592   11.4186 H   0  0  0  0  0  0  0  0  0  0  0  0
    6.8134   -4.7785   11.3234 H   0  0  0  0  0  0  0  0  0  0  0  0
    8.0531   -5.3869    9.3084 H   0  0  0  0  0  0  0  0  0  0  0  0
    8.4390   -2.1991    2.1413 H   0  0  0  0  0  0  0  0  0  0  0  0
    8.7555   -1.9563    0.4467 H   0  0  0  0  0  0  0  0  0  0  0  0
    8.5243   -3.6062    1.0554 H   0  0  0  0  0  0  0  0  0  0  0  0
  1  2  1  0  0  0  0
  1 31  1  0  0  0  0
  1 32  1  0  0  0  0
  1 33  1  0  0  0  0
  2  3  1  0  0  0  0
  3  4  2  0  0  0  0
  3  8  1  0  0  0  0
  4  5  1  0  0  0  0
  4 34  1  0  0  0  0
  5  6  2  0  0  0  0
  5 35  1  0  0  0  0
  6  7  1  0  0  0  0
  6 36  1  0  0  0  0
  7  8  2  0  0  0  0
  7 29  1  0  0  0  0
  8  9  1  0  0  0  0
  9 10  1  0  0  0  0
  9 37  1  0  0  0  0
 10 11  1  0  0  0  0
 10 27  2  0  0  0  0
 11 12  2  0  0  0  0
 11 13  1  0  0  0  0
 13 14  1  0  0  0  0
 13 38  1  0  0  0  0
 14 15  1  0  0  0  0
 14 39  1  0  0  0  0
 14 40  1  0  0  0  0
 15 16  2  0  0  0  0
 15 20  1  0  0  0  0
 16 17  1  0  0  0  0
 17 18  2  0  0  0  0
 17 41  1  0  0  0  0
 18 19  1  0  0  0  0
 18 42  1  0  0  0  0
 19 20  2  0  0  0  0
 19 43  1  0  0  0  0
 20 21  1  0  0  0  0
 21 22  2  0  0  0  0
 21 26  1  0  0  0  0
 22 23  1  0  0  0  0
 22 44  1  0  0  0  0
 23 24  2  0  0  0  0
 23 45  1  0  0  0  0
 24 25  1  0  0  0  0
 24 46  1  0  0  0  0
 25 26  2  0  0  0  0
 25 47  1  0  0  0  0
 26 48  1  0  0  0  0
 27 28  1  0  0  0  0
 27 29  1  0  0  0  0
 28 49  1  0  0  0  0
 28 50  1  0  0  0  0
 28 51  1  0  0  0  0
 29 30  2  0  0  0  0
M  END
$$$$
