
 OpenBabel01122422513D

 51 54  0  0  0  0  0  0  0  0999 V2000
    0.8741    1.1695   -1.9203 C   0  0  0  0  0  0  0  0  0  0  0  0
    0.3456   -0.2302   -1.9686 C   0  0  0  0  0  0  0  0  0  0  0  0
    0.7534   -1.1387   -2.9528 C   0  0  0  0  0  0  0  0  0  0  0  0
    0.2665   -2.4479   -2.9623 C   0  0  0  0  0  0  0  0  0  0  0  0
   -0.6240   -2.8647   -1.9807 C   0  0  0  0  0  0  0  0  0  0  0  0
   -1.0184   -1.9745   -0.9800 C   0  0  0  0  0  0  0  0  0  0  0  0
   -1.8179   -2.4678    0.1832 C   0  0  0  0  0  0  0  0  0  0  0  0
   -3.2159   -2.2275    0.0643 O   0  0  0  0  0  0  0  0  0  0  0  0
   -4.0405   -3.3158    0.2084 C   0  0  0  0  0  0  0  0  0  0  0  0
   -5.0853   -3.3115   -0.7357 C   0  0  0  0  0  0  0  0  0  0  0  0
   -6.0127   -4.3471   -0.8044 C   0  0  0  0  0  0  0  0  0  0  0  0
   -5.9114   -5.4066    0.0844 C   0  0  0  0  0  0  0  0  0  0  0  0
   -4.9021   -5.4068    1.0568 C   0  0  0  0  0  0  0  0  0  0  0  0
   -3.9655   -4.3556    1.1590 C   0  0  0  0  0  0  0  0  0  0  0  0
   -2.9499   -4.4883    2.2694 C   0  0  0  0  0  0  0  0  0  0  0  0
   -2.6631   -5.5944    2.7178 O   0  0  0  0  0  0  0  0  0  0  0  0
   -2.3625   -3.3362    2.7416 N   0  0  0  0  0  0  0  0  0  0  0  0
   -1.1558   -3.3074    3.5683 C   0  0  0  0  0  0  0  0  0  0  0  0
    0.1810   -3.3383    2.8142 C   0  0  0  0  0  0  0  0  0  0  0  0
    0.8317   -4.5550    2.5993 C   0  0  0  0  0  0  0  0  0  0  0  0
    2.0951   -4.5685    1.9940 C   0  0  0  0  0  0  0  0  0  0  0  0
    2.6768   -3.3754    1.5832 C   0  0  0  0  0  0  0  0  0  0  0  0
    3.9924   -3.3161    0.9498 C   0  0  0  0  0  0  0  0  0  0  0  0
    4.4961   -2.1322    0.5713 C   0  0  0  0  0  0  0  0  0  0  0  0
    3.7412   -0.8726    0.8002 C   0  0  0  0  0  0  0  0  0  0  0  0
    4.2055    0.2041    0.4523 O   0  0  0  0  0  0  0  0  0  0  0  0
    2.5263   -0.9927    1.4143 N   0  0  0  0  0  0  0  0  0  0  0  0
    1.9577   -2.2001    1.8132 C   0  0  0  0  0  0  0  0  0  0  0  0
    0.7373   -2.1562    2.4148 N   0  0  0  0  0  0  0  0  0  0  0  0
   -0.5493   -0.6556   -0.9876 C   0  0  0  0  0  0  0  0  0  0  0  0
    1.5459    1.3737   -2.7587 H   0  0  0  0  0  0  0  0  0  0  0  0
    1.4300    1.3301   -0.9900 H   0  0  0  0  0  0  0  0  0  0  0  0
    0.0440    1.8822   -1.9677 H   0  0  0  0  0  0  0  0  0  0  0  0
    1.4648   -0.8353   -3.7158 H   0  0  0  0  0  0  0  0  0  0  0  0
    0.5991   -3.1515   -3.7190 H   0  0  0  0  0  0  0  0  0  0  0  0
   -0.9728   -3.8954   -1.9658 H   0  0  0  0  0  0  0  0  0  0  0  0
   -1.4798   -1.8796    1.0390 H   0  0  0  0  0  0  0  0  0  0  0  0
   -1.5626   -3.5203    0.3421 H   0  0  0  0  0  0  0  0  0  0  0  0
   -5.1540   -2.4895   -1.4507 H   0  0  0  0  0  0  0  0  0  0  0  0
   -6.7975   -4.3265   -1.5569 H   0  0  0  0  0  0  0  0  0  0  0  0
   -6.6185   -6.2313    0.0254 H   0  0  0  0  0  0  0  0  0  0  0  0
   -4.8538   -6.2511    1.7452 H   0  0  0  0  0  0  0  0  0  0  0  0
   -2.7620   -2.4481    2.4660 H   0  0  0  0  0  0  0  0  0  0  0  0
   -1.1925   -4.1323    4.2859 H   0  0  0  0  0  0  0  0  0  0  0  0
   -1.1992   -2.3706    4.1336 H   0  0  0  0  0  0  0  0  0  0  0  0
    0.3754   -5.4883    2.9206 H   0  0  0  0  0  0  0  0  0  0  0  0
    2.6145   -5.5152    1.8573 H   0  0  0  0  0  0  0  0  0  0  0  0
    4.5490   -4.2386    0.7882 H   0  0  0  0  0  0  0  0  0  0  0  0
    5.4674   -2.0312    0.0975 H   0  0  0  0  0  0  0  0  0  0  0  0
    1.9946   -0.1516    1.5749 H   0  0  0  0  0  0  0  0  0  0  0  0
   -0.8434    0.0271   -0.1912 H   0  0  0  0  0  0  0  0  0  0  0  0
  1  2  1  0  0  0  0
  1 31  1  0  0  0  0
  1 32  1  0  0  0  0
  1 33  1  0  0  0  0
  2  3  2  0  0  0  0
  2 30  1  0  0  0  0
  3  4  1  0  0  0  0
  3 34  1  0  0  0  0
  4  5  2  0  0  0  0
  4 35  1  0  0  0  0
  5  6  1  0  0  0  0
  5 36  1  0  0  0  0
  6  7  1  0  0  0  0
  6 30  2  0  0  0  0
  7  8  1  0  0  0  0
  7 37  1  0  0  0  0
  7 38  1  0  0  0  0
  8  9  1  0  0  0  0
  9 10  2  0  0  0  0
  9 14  1  0  0  0  0
 10 11  1  0  0  0  0
 10 39  1  0  0  0  0
 11 12  2  0  0  0  0
 11 40  1  0  0  0  0
 12 13  1  0  0  0  0
 12 41  1  0  0  0  0
 13 14  2  0  0  0  0
 13 42  1  0  0  0  0
 14 15  1  0  0  0  0
 15 16  2  0  0  0  0
 15 17  1  0  0  0  0
 17 18  1  0  0  0  0
 17 43  1  0  0  0  0
 18 19  1  0  0  0  0
 18 44  1  0  0  0  0
 18 45  1  0  0  0  0
 19 20  2  0  0  0  0
 19 29  1  0  0  0  0
 20 21  1  0  0  0  0
 20 46  1  0  0  0  0
 21 22  2  0  0  0  0
 21 47  1  0  0  0  0
 22 23  1  0  0  0  0
 22 28  1  0  0  0  0
 23 24  2  0  0  0  0
 23 48  1  0  0  0  0
 24 25  1  0  0  0  0
 24 49  1  0  0  0  0
 25 26  2  0  0  0  0
 25 27  1  0  0  0  0
 27 28  1  0  0  0  0
 27 50  1  0  0  0  0
 28 29  2  0  0  0  0
 30 51  1  0  0  0  0
M  END
$$$$
