
 OpenBabel01122422513D

 48 51  0  0  0  0  0  0  0  0999 V2000
    4.0762    2.1297   -1.0002 C   0  0  0  0  0  0  0  0  0  0  0  0
    3.6915    0.9407   -0.3175 O   0  0  0  0  0  0  0  0  0  0  0  0
    4.6362    0.3463    0.4715 C   0  0  0  0  0  0  0  0  0  0  0  0
    5.9361    0.7963    0.6544 C   0  0  0  0  0  0  0  0  0  0  0  0
    6.7964    0.1087    1.5144 C   0  0  0  0  0  0  0  0  0  0  0  0
    6.3810   -1.0582    2.2015 C   0  0  0  0  0  0  0  0  0  0  0  0
    7.1901   -1.8053    3.0994 C   0  0  0  0  0  0  0  0  0  0  0  0
    8.4665   -1.4044    3.4205 O   0  0  0  0  0  0  0  0  0  0  0  0
    6.7131   -2.9861    3.6761 C   0  0  0  0  0  0  0  0  0  0  0  0
    7.4853   -3.8706    4.5880 C   0  0  0  0  0  0  0  0  0  0  0  0
    7.2036   -5.0623    4.6610 O   0  0  0  0  0  0  0  0  0  0  0  0
    8.4802   -3.2814    5.3324 N   0  0  0  0  0  0  0  0  0  0  0  0
    9.3908   -4.0505    6.1478 C   0  0  0  0  0  0  0  0  0  0  0  0
    9.8813   -3.2430    7.3221 C   0  0  0  0  0  0  0  0  0  0  0  0
    9.1611   -3.2417    8.5217 C   0  0  0  0  0  0  0  0  0  0  0  0
    9.5913   -2.4733    9.5995 C   0  0  0  0  0  0  0  0  0  0  0  0
   10.7402   -1.6867    9.4849 C   0  0  0  0  0  0  0  0  0  0  0  0
   11.4930   -1.6529    8.2963 C   0  0  0  0  0  0  0  0  0  0  0  0
   12.6904   -0.7921    8.1563 C   0  0  0  0  0  0  0  0  0  0  0  0
   13.4901   -0.4179    9.2391 C   0  0  0  0  0  0  0  0  0  0  0  0
   14.5583    0.4548    9.0372 C   0  0  0  0  0  0  0  0  0  0  0  0
   14.8183    0.9252    7.7589 C   0  0  0  0  0  0  0  0  0  0  0  0
   14.0028    0.4904    6.7303 C   0  0  0  0  0  0  0  0  0  0  0  0
   12.9566   -0.3493    6.8988 N   0  0  0  0  0  0  0  0  0  0  0  0
   11.0366   -2.4462    7.2227 C   0  0  0  0  0  0  0  0  0  0  0  0
    5.4220   -3.3656    3.3521 C   0  0  0  0  0  0  0  0  0  0  0  0
    4.5982   -2.6553    2.5436 N   0  0  0  0  0  0  0  0  0  0  0  0
    5.0665   -1.5292    1.9785 C   0  0  0  0  0  0  0  0  0  0  0  0
    4.2232   -0.8120    1.1340 C   0  0  0  0  0  0  0  0  0  0  0  0
    3.1899    2.5371   -1.4957 H   0  0  0  0  0  0  0  0  0  0  0  0
    4.8220    1.9090   -1.7712 H   0  0  0  0  0  0  0  0  0  0  0  0
    4.4427    2.8932   -0.3053 H   0  0  0  0  0  0  0  0  0  0  0  0
    6.3202    1.6700    0.1403 H   0  0  0  0  0  0  0  0  0  0  0  0
    7.8025    0.5017    1.6147 H   0  0  0  0  0  0  0  0  0  0  0  0
    8.6582   -0.5350    3.0379 H   0  0  0  0  0  0  0  0  0  0  0  0
    8.7491   -2.3337    5.0869 H   0  0  0  0  0  0  0  0  0  0  0  0
   10.2310   -4.3514    5.5116 H   0  0  0  0  0  0  0  0  0  0  0  0
    8.9083   -4.9722    6.4927 H   0  0  0  0  0  0  0  0  0  0  0  0
    8.2545   -3.8362    8.6165 H   0  0  0  0  0  0  0  0  0  0  0  0
    9.0246   -2.4726   10.5271 H   0  0  0  0  0  0  0  0  0  0  0  0
   11.0216   -1.0738   10.3380 H   0  0  0  0  0  0  0  0  0  0  0  0
   13.2977   -0.7946   10.2380 H   0  0  0  0  0  0  0  0  0  0  0  0
   15.1774    0.7646    9.8745 H   0  0  0  0  0  0  0  0  0  0  0  0
   15.6364    1.6103    7.5682 H   0  0  0  0  0  0  0  0  0  0  0  0
   14.1693    0.8201    5.7090 H   0  0  0  0  0  0  0  0  0  0  0  0
   11.5947   -2.4373    6.2863 H   0  0  0  0  0  0  0  0  0  0  0  0
    4.9855   -4.2777    3.7546 H   0  0  0  0  0  0  0  0  0  0  0  0
    3.2077   -1.1733    0.9834 H   0  0  0  0  0  0  0  0  0  0  0  0
  1  2  1  0  0  0  0
  1 30  1  0  0  0  0
  1 31  1  0  0  0  0
  1 32  1  0  0  0  0
  2  3  1  0  0  0  0
  3  4  2  0  0  0  0
  3 29  1  0  0  0  0
  4  5  1  0  0  0  0
  4 33  1  0  0  0  0
  5  6  2  0  0  0  0
  5 34  1  0  0  0  0
  6  7  1  0  0  0  0
  6 28  1  0  0  0  0
  7  8  1  0  0  0  0
  7  9  2  0  0  0  0
  8 35  1  0  0  0  0
  9 10  1  0  0  0  0
  9 26  1  0  0  0  0
 10 11  2  0  0  0  0
 10 12  1  0  0  0  0
 12 13  1  0  0  0  0
 12 36  1  0  0  0  0
 13 14  1  0  0  0  0
 13 37  1  0  0  0  0
 13 38  1  0  0  0  0
 14 15  2  0  0  0  0
 14 25  1  0  0  0  0
 15 16  1  0  0  0  0
 15 39  1  0  0  0  0
 16 17  2  0  0  0  0
 16 40  1  0  0  0  0
 17 18  1  0  0  0  0
 17 41  1  0  0  0  0
 18 19  1  0  0  0  0
 18 25  2  0  0  0  0
 19 20  2  0  0  0  0
 19 24  1  0  0  0  0
 20 21  1  0  0  0  0
 20 42  1  0  0  0  0
 21 22  2  0  0  0  0
 21 43  1  0  0  0  0
 22 23  1  0  0  0  0
 22 44  1  0  0  0  0
 23 24  2  0  0  0  0
 23 45  1  0  0  0  0
 25 46  1  0  0  0  0
 26 27  2  0  0  0  0
 26 47  1  0  0  0  0
 27 28  1  0  0  0  0
 28 29  2  0  0  0  0
 29 48  1  0  0  0  0
M  END
$$$$
