
 OpenBabel01122422513D

 39 42  0  0  0  0  0  0  0  0999 V2000
    1.8564   -1.0515    1.1494 N   0  0  0  0  0  0  0  0  0  0  0  0
    2.8851   -0.7207    0.7307 C   0  0  0  0  0  0  0  0  0  0  0  0
    4.1654   -0.3066    0.2432 C   0  0  0  0  0  0  0  0  0  0  0  0
    4.9664    0.6970    0.7428 C   0  0  0  0  0  0  0  0  0  0  0  0
    6.1306    0.7161   -0.0117 N   0  0  0  0  0  0  0  0  0  0  0  0
    7.2975    1.5227    0.2124 C   0  0  0  0  0  0  0  0  0  0  0  0
    7.3758    2.3242    1.3453 C   0  0  0  0  0  0  0  0  0  0  0  0
    8.5319    3.0718    1.6207 C   0  0  0  0  0  0  0  0  0  0  0  0
    9.6584    3.0687    0.7880 C   0  0  0  0  0  0  0  0  0  0  0  0
   10.8639    3.7980    1.1016 N   0  0  0  0  0  0  0  0  0  0  0  0
   11.0355    4.5797    2.2466 C   0  0  0  0  0  0  0  0  0  0  0  0
   10.1267    4.8339    3.0423 O   0  0  0  0  0  0  0  0  0  0  0  0
   12.3793    5.1610    2.6241 C   0  0  0  0  0  0  0  0  0  0  0  0
   13.4242    5.2373    1.7523 N   0  0  0  0  0  0  0  0  0  0  0  0
   14.5994    5.7645    2.2307 C   0  0  0  0  0  0  0  0  0  0  0  0
   15.7654    5.7924    1.4645 C   0  0  0  0  0  0  0  0  0  0  0  0
   16.9982    6.1985    2.0034 C   0  0  0  0  0  0  0  0  0  0  0  0
   18.1075    6.0961    1.2592 F   0  0  0  0  0  0  0  0  0  0  0  0
   17.1078    6.6644    3.2964 C   0  0  0  0  0  0  0  0  0  0  0  0
   15.9553    6.7270    4.0556 C   0  0  0  0  0  0  0  0  0  0  0  0
   16.0417    7.1791    5.3179 F   0  0  0  0  0  0  0  0  0  0  0  0
   14.7293    6.2609    3.5540 C   0  0  0  0  0  0  0  0  0  0  0  0
   13.6292    6.2126    4.3947 C   0  0  0  0  0  0  0  0  0  0  0  0
   12.4663    5.6190    3.9428 C   0  0  0  0  0  0  0  0  0  0  0  0
    9.5669    2.2821   -0.3709 C   0  0  0  0  0  0  0  0  0  0  0  0
    8.4003    1.5106   -0.6564 C   0  0  0  0  0  0  0  0  0  0  0  0
    6.0640   -0.1963   -1.0224 N   0  0  0  0  0  0  0  0  0  0  0  0
    4.8916   -0.8211   -0.8426 C   0  0  0  0  0  0  0  0  0  0  0  0
    4.8010    1.3749    1.5634 H   0  0  0  0  0  0  0  0  0  0  0  0
    6.5744    2.3853    2.0750 H   0  0  0  0  0  0  0  0  0  0  0  0
    8.4942    3.6407    2.5409 H   0  0  0  0  0  0  0  0  0  0  0  0
   11.6559    3.7139    0.4718 H   0  0  0  0  0  0  0  0  0  0  0  0
   15.7453    5.4453    0.4360 H   0  0  0  0  0  0  0  0  0  0  0  0
   18.0634    6.9461    3.7245 H   0  0  0  0  0  0  0  0  0  0  0  0
   13.6797    6.5805    5.4173 H   0  0  0  0  0  0  0  0  0  0  0  0
   11.6369    5.4966    4.6340 H   0  0  0  0  0  0  0  0  0  0  0  0
   10.3954    2.2373   -1.0744 H   0  0  0  0  0  0  0  0  0  0  0  0
    8.3799    0.9044   -1.5625 H   0  0  0  0  0  0  0  0  0  0  0  0
    4.6139   -1.6215   -1.5094 H   0  0  0  0  0  0  0  0  0  0  0  0
  1  2  3  0  0  0  0
  2  3  1  0  0  0  0
  3  4  2  0  0  0  0
  3 28  1  0  0  0  0
  4  5  1  0  0  0  0
  4 29  1  0  0  0  0
  5  6  1  0  0  0  0
  5 27  1  0  0  0  0
  6  7  2  0  0  0  0
  6 26  1  0  0  0  0
  7  8  1  0  0  0  0
  7 30  1  0  0  0  0
  8  9  2  0  0  0  0
  8 31  1  0  0  0  0
  9 10  1  0  0  0  0
  9 25  1  0  0  0  0
 10 11  1  0  0  0  0
 10 32  1  0  0  0  0
 11 12  2  0  0  0  0
 11 13  1  0  0  0  0
 13 14  2  0  0  0  0
 13 24  1  0  0  0  0
 14 15  1  0  0  0  0
 15 16  2  0  0  0  0
 15 22  1  0  0  0  0
 16 17  1  0  0  0  0
 16 33  1  0  0  0  0
 17 18  1  0  0  0  0
 17 19  2  0  0  0  0
 19 20  1  0  0  0  0
 19 34  1  0  0  0  0
 20 21  1  0  0  0  0
 20 22  2  0  0  0  0
 22 23  1  0  0  0  0
 23 24  2  0  0  0  0
 23 35  1  0  0  0  0
 24 36  1  0  0  0  0
 25 26  2  0  0  0  0
 25 37  1  0  0  0  0
 26 38  1  0  0  0  0
 27 28  2  0  0  0  0
 28 39  1  0  0  0  0
M  END
$$$$
