
 OpenBabel01122422513D

 41 44  0  0  0  0  0  0  0  0999 V2000
    1.0683   -0.2503   -0.2576 N   0  0  0  0  0  0  0  0  0  0  0  0
    2.2298   -0.1751   -0.2163 C   0  0  0  0  0  0  0  0  0  0  0  0
    3.6545   -0.0711   -0.1519 C   0  0  0  0  0  0  0  0  0  0  0  0
    4.3570   -0.9924   -0.8598 N   0  0  0  0  0  0  0  0  0  0  0  0
    5.7104   -0.9055   -0.7928 C   0  0  0  0  0  0  0  0  0  0  0  0
    6.4231    0.0566   -0.0652 C   0  0  0  0  0  0  0  0  0  0  0  0
    7.8999    0.0765   -0.0216 C   0  0  0  0  0  0  0  0  0  0  0  0
    8.6778   -0.3391   -1.1216 C   0  0  0  0  0  0  0  0  0  0  0  0
   10.0825   -0.3436   -1.0782 C   0  0  0  0  0  0  0  0  0  0  0  0
   10.8587   -0.7745   -2.2468 C   0  0  0  0  0  0  0  0  0  0  0  0
   10.3946   -1.7482   -3.0500 N   0  0  0  0  0  0  0  0  0  0  0  0
   11.3669   -1.9698   -3.9621 N   0  0  0  0  0  0  0  0  0  0  0  0
   11.2376   -2.9843   -4.9501 C   0  0  0  0  0  0  0  0  0  0  0  0
   10.0392   -3.6931   -5.0695 C   0  0  0  0  0  0  0  0  0  0  0  0
    9.9638   -4.6911   -6.0276 C   0  0  0  0  0  0  0  0  0  0  0  0
   10.9842   -5.0269   -6.8454 N   0  0  0  0  0  0  0  0  0  0  0  0
   12.1284   -4.3274   -6.7124 C   0  0  0  0  0  0  0  0  0  0  0  0
   12.3026   -3.3012   -5.7986 C   0  0  0  0  0  0  0  0  0  0  0  0
   12.4342   -1.1240   -3.7694 C   0  0  0  0  0  0  0  0  0  0  0  0
   12.1318   -0.3110   -2.6938 C   0  0  0  0  0  0  0  0  0  0  0  0
   12.9370    0.7881   -2.1903 C   0  0  0  0  0  0  0  0  0  0  0  0
   12.4798    1.7721   -1.6301 O   0  0  0  0  0  0  0  0  0  0  0  0
   14.2740    0.6440   -2.3784 O   0  0  0  0  0  0  0  0  0  0  0  0
   10.7192    0.0507    0.1038 C   0  0  0  0  0  0  0  0  0  0  0  0
    9.9776    0.4947    1.1933 C   0  0  0  0  0  0  0  0  0  0  0  0
    8.5856    0.5061    1.1291 C   0  0  0  0  0  0  0  0  0  0  0  0
    5.6443    0.9873    0.6396 C   0  0  0  0  0  0  0  0  0  0  0  0
    4.2564    0.9183    0.6031 C   0  0  0  0  0  0  0  0  0  0  0  0
    3.5363    1.8069    1.3011 F   0  0  0  0  0  0  0  0  0  0  0  0
    6.2229   -1.6813   -1.3588 H   0  0  0  0  0  0  0  0  0  0  0  0
    8.1941   -0.6553   -2.0445 H   0  0  0  0  0  0  0  0  0  0  0  0
    9.1761   -3.4831   -4.4451 H   0  0  0  0  0  0  0  0  0  0  0  0
    9.0530   -5.2678   -6.1673 H   0  0  0  0  0  0  0  0  0  0  0  0
   12.9340   -4.6264   -7.3778 H   0  0  0  0  0  0  0  0  0  0  0  0
   13.2620   -2.8017   -5.7677 H   0  0  0  0  0  0  0  0  0  0  0  0
   13.2829   -1.1246   -4.4346 H   0  0  0  0  0  0  0  0  0  0  0  0
   14.5197   -0.2229   -2.7458 H   0  0  0  0  0  0  0  0  0  0  0  0
   11.8010    0.0326    0.1972 H   0  0  0  0  0  0  0  0  0  0  0  0
   10.4861    0.8310    2.0932 H   0  0  0  0  0  0  0  0  0  0  0  0
    8.0455    0.8435    2.0110 H   0  0  0  0  0  0  0  0  0  0  0  0
    6.1003    1.7829    1.2231 H   0  0  0  0  0  0  0  0  0  0  0  0
  1  2  3  0  0  0  0
  2  3  1  0  0  0  0
  3  4  2  0  0  0  0
  3 28  1  0  0  0  0
  4  5  1  0  0  0  0
  5  6  2  0  0  0  0
  5 30  1  0  0  0  0
  6  7  1  0  0  0  0
  6 27  1  0  0  0  0
  7  8  2  0  0  0  0
  7 26  1  0  0  0  0
  8  9  1  0  0  0  0
  8 31  1  0  0  0  0
  9 10  1  0  0  0  0
  9 24  2  0  0  0  0
 10 11  2  0  0  0  0
 10 20  1  0  0  0  0
 11 12  1  0  0  0  0
 12 13  1  0  0  0  0
 12 19  1  0  0  0  0
 13 14  2  0  0  0  0
 13 18  1  0  0  0  0
 14 15  1  0  0  0  0
 14 32  1  0  0  0  0
 15 16  2  0  0  0  0
 15 33  1  0  0  0  0
 16 17  1  0  0  0  0
 17 18  2  0  0  0  0
 17 34  1  0  0  0  0
 18 35  1  0  0  0  0
 19 20  2  0  0  0  0
 19 36  1  0  0  0  0
 20 21  1  0  0  0  0
 21 22  2  0  0  0  0
 21 23  1  0  0  0  0
 23 37  1  0  0  0  0
 24 25  1  0  0  0  0
 24 38  1  0  0  0  0
 25 26  2  0  0  0  0
 25 39  1  0  0  0  0
 26 40  1  0  0  0  0
 27 28  2  0  0  0  0
 27 41  1  0  0  0  0
 28 29  1  0  0  0  0
M  END
$$$$
