
 OpenBabel01122422513D

 42 45  0  0  0  0  0  0  0  0999 V2000
    2.9234   -1.1126   -0.5844 O   0  0  0  0  0  0  0  0  0  0  0  0
    2.4654   -0.0852   -0.0892 C   0  0  0  0  0  0  0  0  0  0  0  0
    3.0973    1.1224   -0.1029 O   0  0  0  0  0  0  0  0  0  0  0  0
    4.4781    1.0907   -0.4636 C   0  0  0  0  0  0  0  0  0  0  0  0
    4.7133    1.7180   -1.8132 C   0  0  0  0  0  0  0  0  0  0  0  0
    4.8011    0.9306   -2.9699 C   0  0  0  0  0  0  0  0  0  0  0  0
    5.0762    1.5168   -4.2123 C   0  0  0  0  0  0  0  0  0  0  0  0
    5.2973    2.8990   -4.3036 C   0  0  0  0  0  0  0  0  0  0  0  0
    5.6389    3.4790   -5.5485 N   0  0  0  0  0  0  0  0  0  0  0  0
    6.3008    4.6678   -5.7780 C   0  0  0  0  0  0  0  0  0  0  0  0
    6.3515    4.8512   -7.1381 C   0  0  0  0  0  0  0  0  0  0  0  0
    5.7187    3.7173   -7.6649 C   0  0  0  0  0  0  0  0  0  0  0  0
    5.3479    2.8510   -6.7198 N   0  0  0  0  0  0  0  0  0  0  0  0
    5.1770    3.6835   -3.1572 C   0  0  0  0  0  0  0  0  0  0  0  0
    5.3004    5.0179   -3.2002 F   0  0  0  0  0  0  0  0  0  0  0  0
    4.8705    3.1043   -1.9268 C   0  0  0  0  0  0  0  0  0  0  0  0
    1.1983   -0.0677    0.6592 C   0  0  0  0  0  0  0  0  0  0  0  0
    0.7269    1.0171    1.3015 N   0  0  0  0  0  0  0  0  0  0  0  0
   -0.3908    0.6026    1.9508 N   0  0  0  0  0  0  0  0  0  0  0  0
   -1.1104    1.4830    2.8075 C   0  0  0  0  0  0  0  0  0  0  0  0
   -2.2008    1.0275    3.5579 C   0  0  0  0  0  0  0  0  0  0  0  0
   -2.8788    1.9123    4.3926 C   0  0  0  0  0  0  0  0  0  0  0  0
   -3.9177    1.4665    5.1147 F   0  0  0  0  0  0  0  0  0  0  0  0
   -2.4998    3.2467    4.4954 C   0  0  0  0  0  0  0  0  0  0  0  0
   -1.4149    3.7063    3.7500 C   0  0  0  0  0  0  0  0  0  0  0  0
   -0.7194    2.8289    2.9116 C   0  0  0  0  0  0  0  0  0  0  0  0
   -0.6677   -0.7162    1.6764 C   0  0  0  0  0  0  0  0  0  0  0  0
    0.3349   -1.1762    0.8594 C   0  0  0  0  0  0  0  0  0  0  0  0
    4.9167    0.0872   -0.4178 H   0  0  0  0  0  0  0  0  0  0  0  0
    5.0129    1.6738    0.2959 H   0  0  0  0  0  0  0  0  0  0  0  0
    4.6750   -0.1502   -2.9091 H   0  0  0  0  0  0  0  0  0  0  0  0
    5.1604    0.8797   -5.0916 H   0  0  0  0  0  0  0  0  0  0  0  0
    6.6956    5.2628   -4.9677 H   0  0  0  0  0  0  0  0  0  0  0  0
    6.7915    5.6839   -7.6677 H   0  0  0  0  0  0  0  0  0  0  0  0
    5.5291    3.4760   -8.7032 H   0  0  0  0  0  0  0  0  0  0  0  0
    4.7642    3.7503   -1.0585 H   0  0  0  0  0  0  0  0  0  0  0  0
   -2.5458    0.0009    3.5387 H   0  0  0  0  0  0  0  0  0  0  0  0
   -3.0483    3.9139    5.1498 H   0  0  0  0  0  0  0  0  0  0  0  0
   -1.1111    4.7475    3.8197 H   0  0  0  0  0  0  0  0  0  0  0  0
    0.1255    3.2120    2.3400 H   0  0  0  0  0  0  0  0  0  0  0  0
   -1.5291   -1.2272    2.0780 H   0  0  0  0  0  0  0  0  0  0  0  0
    0.4564   -2.1780    0.4671 H   0  0  0  0  0  0  0  0  0  0  0  0
  1  2  2  0  0  0  0
  2  3  1  0  0  0  0
  2 17  1  0  0  0  0
  3  4  1  0  0  0  0
  4  5  1  0  0  0  0
  4 29  1  0  0  0  0
  4 30  1  0  0  0  0
  5  6  2  0  0  0  0
  5 16  1  0  0  0  0
  6  7  1  0  0  0  0
  6 31  1  0  0  0  0
  7  8  2  0  0  0  0
  7 32  1  0  0  0  0
  8  9  1  0  0  0  0
  8 14  1  0  0  0  0
  9 10  1  0  0  0  0
  9 13  1  0  0  0  0
 10 11  2  0  0  0  0
 10 33  1  0  0  0  0
 11 12  1  0  0  0  0
 11 34  1  0  0  0  0
 12 13  2  0  0  0  0
 12 35  1  0  0  0  0
 14 15  1  0  0  0  0
 14 16  2  0  0  0  0
 16 36  1  0  0  0  0
 17 18  2  0  0  0  0
 17 28  1  0  0  0  0
 18 19  1  0  0  0  0
 19 20  1  0  0  0  0
 19 27  1  0  0  0  0
 20 21  2  0  0  0  0
 20 26  1  0  0  0  0
 21 22  1  0  0  0  0
 21 37  1  0  0  0  0
 22 23  1  0  0  0  0
 22 24  2  0  0  0  0
 24 25  1  0  0  0  0
 24 38  1  0  0  0  0
 25 26  2  0  0  0  0
 25 39  1  0  0  0  0
 26 40  1  0  0  0  0
 27 28  2  0  0  0  0
 27 41  1  0  0  0  0
 28 42  1  0  0  0  0
M  END
$$$$
