
 OpenBabel01122422513D

 48 51  0  0  0  0  0  0  0  0999 V2000
   -5.3717   -3.3000   -5.1489 C   0  0  0  0  0  0  0  0  0  0  0  0
   -4.2368   -2.7013   -4.3717 C   0  0  0  0  0  0  0  0  0  0  0  0
   -3.5340   -1.5948   -4.8621 C   0  0  0  0  0  0  0  0  0  0  0  0
   -2.5091   -1.0158   -4.1111 C   0  0  0  0  0  0  0  0  0  0  0  0
   -2.1798   -1.5353   -2.8584 C   0  0  0  0  0  0  0  0  0  0  0  0
   -2.8653   -2.6540   -2.3610 C   0  0  0  0  0  0  0  0  0  0  0  0
   -2.5201   -3.1969   -1.0948 N   0  0  0  0  0  0  0  0  0  0  0  0
   -1.5978   -2.6037   -0.2885 N   0  0  0  0  0  0  0  0  0  0  0  0
   -1.5562   -3.4365    0.7522 C   0  0  0  0  0  0  0  0  0  0  0  0
   -2.4311   -4.5169    0.5554 C   0  0  0  0  0  0  0  0  0  0  0  0
   -2.6331   -5.6538    1.4517 C   0  0  0  0  0  0  0  0  0  0  0  0
   -2.0129   -5.7759    2.5024 O   0  0  0  0  0  0  0  0  0  0  0  0
   -3.5617   -6.5679    1.0127 N   0  0  0  0  0  0  0  0  0  0  0  0
   -3.8809   -7.7719    1.7484 C   0  0  0  0  0  0  0  0  0  0  0  0
   -3.0006   -8.9441    1.3813 C   0  0  0  0  0  0  0  0  0  0  0  0
   -1.7820   -9.1311    2.0287 C   0  0  0  0  0  0  0  0  0  0  0  0
   -0.9679  -10.1935    1.6365 C   0  0  0  0  0  0  0  0  0  0  0  0
    0.2616  -10.4688    2.1929 O   0  0  0  0  0  0  0  0  0  0  0  0
    1.0838   -9.4282    2.5666 C   0  0  0  0  0  0  0  0  0  0  0  0
    1.1680   -8.2112    1.8800 C   0  0  0  0  0  0  0  0  0  0  0  0
    2.0148   -7.1994    2.3409 C   0  0  0  0  0  0  0  0  0  0  0  0
    2.8150   -7.4235    3.4586 C   0  0  0  0  0  0  0  0  0  0  0  0
    2.7668   -8.6566    4.1006 C   0  0  0  0  0  0  0  0  0  0  0  0
    3.5581   -8.8774    5.1592 F   0  0  0  0  0  0  0  0  0  0  0  0
    1.9105   -9.6619    3.6656 C   0  0  0  0  0  0  0  0  0  0  0  0
   -1.4231  -11.0853    0.6750 C   0  0  0  0  0  0  0  0  0  0  0  0
   -2.6528  -10.8359    0.0908 C   0  0  0  0  0  0  0  0  0  0  0  0
   -3.4371   -9.7821    0.4060 N   0  0  0  0  0  0  0  0  0  0  0  0
   -3.0740   -4.3507   -0.6186 N   0  0  0  0  0  0  0  0  0  0  0  0
   -3.8901   -3.2360   -3.1220 C   0  0  0  0  0  0  0  0  0  0  0  0
   -5.4798   -2.8285   -6.1313 H   0  0  0  0  0  0  0  0  0  0  0  0
   -6.3104   -3.1612   -4.6034 H   0  0  0  0  0  0  0  0  0  0  0  0
   -5.2026   -4.3701   -5.3078 H   0  0  0  0  0  0  0  0  0  0  0  0
   -3.7826   -1.1697   -5.8328 H   0  0  0  0  0  0  0  0  0  0  0  0
   -1.9693   -0.1572   -4.5007 H   0  0  0  0  0  0  0  0  0  0  0  0
   -1.3811   -1.0654   -2.2869 H   0  0  0  0  0  0  0  0  0  0  0  0
   -0.8990   -3.2348    1.5870 H   0  0  0  0  0  0  0  0  0  0  0  0
   -3.9615   -6.4221    0.0904 H   0  0  0  0  0  0  0  0  0  0  0  0
   -4.9260   -8.0181    1.5284 H   0  0  0  0  0  0  0  0  0  0  0  0
   -3.8109   -7.5756    2.8247 H   0  0  0  0  0  0  0  0  0  0  0  0
   -1.4749   -8.4482    2.8145 H   0  0  0  0  0  0  0  0  0  0  0  0
    0.5696   -8.0277    0.9908 H   0  0  0  0  0  0  0  0  0  0  0  0
    2.0457   -6.2425    1.8281 H   0  0  0  0  0  0  0  0  0  0  0  0
    3.4807   -6.6497    3.8285 H   0  0  0  0  0  0  0  0  0  0  0  0
    1.8902  -10.6120    4.1866 H   0  0  0  0  0  0  0  0  0  0  0  0
   -0.8334  -11.9472    0.3843 H   0  0  0  0  0  0  0  0  0  0  0  0
   -3.0512  -11.5011   -0.6702 H   0  0  0  0  0  0  0  0  0  0  0  0
   -4.4366   -4.0983   -2.7441 H   0  0  0  0  0  0  0  0  0  0  0  0
  1  2  1  0  0  0  0
  1 31  1  0  0  0  0
  1 32  1  0  0  0  0
  1 33  1  0  0  0  0
  2  3  2  0  0  0  0
  2 30  1  0  0  0  0
  3  4  1  0  0  0  0
  3 34  1  0  0  0  0
  4  5  2  0  0  0  0
  4 35  1  0  0  0  0
  5  6  1  0  0  0  0
  5 36  1  0  0  0  0
  6  7  1  0  0  0  0
  6 30  2  0  0  0  0
  7  8  1  0  0  0  0
  7 29  1  0  0  0  0
  8  9  2  0  0  0  0
  9 10  1  0  0  0  0
  9 37  1  0  0  0  0
 10 11  1  0  0  0  0
 10 29  2  0  0  0  0
 11 12  2  0  0  0  0
 11 13  1  0  0  0  0
 13 14  1  0  0  0  0
 13 38  1  0  0  0  0
 14 15  1  0  0  0  0
 14 39  1  0  0  0  0
 14 40  1  0  0  0  0
 15 16  2  0  0  0  0
 15 28  1  0  0  0  0
 16 17  1  0  0  0  0
 16 41  1  0  0  0  0
 17 18  1  0  0  0  0
 17 26  2  0  0  0  0
 18 19  1  0  0  0  0
 19 20  2  0  0  0  0
 19 25  1  0  0  0  0
 20 21  1  0  0  0  0
 20 42  1  0  0  0  0
 21 22  2  0  0  0  0
 21 43  1  0  0  0  0
 22 23  1  0  0  0  0
 22 44  1  0  0  0  0
 23 24  1  0  0  0  0
 23 25  2  0  0  0  0
 25 45  1  0  0  0  0
 26 27  1  0  0  0  0
 26 46  1  0  0  0  0
 27 28  2  0  0  0  0
 27 47  1  0  0  0  0
 30 48  1  0  0  0  0
M  END
$$$$
