
 OpenBabel01122422513D

 48 51  0  0  0  0  0  0  0  0999 V2000
    2.6043    0.2562   -3.0649 O   0  0  0  0  0  0  0  0  0  0  0  0
    3.5818   -0.4235   -2.8065 C   0  0  0  0  0  0  0  0  0  0  0  0
    4.6856   -0.4587   -3.5848 O   0  0  0  0  0  0  0  0  0  0  0  0
    3.6432   -1.3474   -1.6476 C   0  0  0  0  0  0  0  0  0  0  0  0
    2.4678   -1.9729   -1.2414 C   0  0  0  0  0  0  0  0  0  0  0  0
    2.5068   -2.8714   -0.1831 C   0  0  0  0  0  0  0  0  0  0  0  0
    3.7197   -3.1556    0.4601 C   0  0  0  0  0  0  0  0  0  0  0  0
    4.9159   -2.4981    0.1295 C   0  0  0  0  0  0  0  0  0  0  0  0
    6.2238   -2.7148    0.8371 C   0  0  0  0  0  0  0  0  0  0  0  0
    7.4079   -2.6395    0.0557 C   0  0  0  0  0  0  0  0  0  0  0  0
    8.6858   -2.6519    0.6155 C   0  0  0  0  0  0  0  0  0  0  0  0
    8.8288   -2.7553    1.9860 C   0  0  0  0  0  0  0  0  0  0  0  0
    7.6985   -2.9005    2.7848 C   0  0  0  0  0  0  0  0  0  0  0  0
    6.3910   -2.9169    2.2411 C   0  0  0  0  0  0  0  0  0  0  0  0
    5.2201   -3.1596    3.1781 C   0  0  0  0  0  0  0  0  0  0  0  0
    5.5541   -3.3457    4.5755 N   0  0  0  0  0  0  0  0  0  0  0  0
    4.9606   -2.6027    5.5643 C   0  0  0  0  0  0  0  0  0  0  0  0
    4.2149   -1.6570    5.3471 O   0  0  0  0  0  0  0  0  0  0  0  0
    5.2921   -3.0393    6.9239 C   0  0  0  0  0  0  0  0  0  0  0  0
    4.8800   -2.4000    8.0724 C   0  0  0  0  0  0  0  0  0  0  0  0
    5.3975   -3.1238    9.1005 N   0  0  0  0  0  0  0  0  0  0  0  0
    6.1392   -4.1611    8.5789 C   0  0  0  0  0  0  0  0  0  0  0  0
    6.8851   -5.0955    9.4270 C   0  0  0  0  0  0  0  0  0  0  0  0
    7.0780   -6.4205    9.0325 C   0  0  0  0  0  0  0  0  0  0  0  0
    7.7956   -7.2632    9.8668 C   0  0  0  0  0  0  0  0  0  0  0  0
    8.3287   -6.8815   11.0444 N   0  0  0  0  0  0  0  0  0  0  0  0
    8.1406   -5.5984   11.4086 C   0  0  0  0  0  0  0  0  0  0  0  0
    7.4361   -4.6816   10.6481 C   0  0  0  0  0  0  0  0  0  0  0  0
    6.0556   -4.1559    7.2558 N   0  0  0  0  0  0  0  0  0  0  0  0
    4.8371   -1.5752   -0.9416 C   0  0  0  0  0  0  0  0  0  0  0  0
    5.3104   -1.1787   -3.3824 H   0  0  0  0  0  0  0  0  0  0  0  0
    1.5269   -1.7659   -1.7472 H   0  0  0  0  0  0  0  0  0  0  0  0
    1.5932   -3.3613    0.1471 H   0  0  0  0  0  0  0  0  0  0  0  0
    3.6822   -3.9141    1.2317 H   0  0  0  0  0  0  0  0  0  0  0  0
    7.3497   -2.5536   -1.0274 H   0  0  0  0  0  0  0  0  0  0  0  0
    9.5620   -2.5607   -0.0208 H   0  0  0  0  0  0  0  0  0  0  0  0
    9.8160   -2.7341    2.4394 H   0  0  0  0  0  0  0  0  0  0  0  0
    7.8546   -2.9876    3.8580 H   0  0  0  0  0  0  0  0  0  0  0  0
    4.7588   -4.1118    2.9040 H   0  0  0  0  0  0  0  0  0  0  0  0
    4.4912   -2.3507    3.0738 H   0  0  0  0  0  0  0  0  0  0  0  0
    6.0701   -4.1696    4.8727 H   0  0  0  0  0  0  0  0  0  0  0  0
    4.2798   -1.5125    8.2217 H   0  0  0  0  0  0  0  0  0  0  0  0
    5.2684   -2.9336   10.0838 H   0  0  0  0  0  0  0  0  0  0  0  0
    6.6710   -6.7920    8.0986 H   0  0  0  0  0  0  0  0  0  0  0  0
    7.9676   -8.3039    9.5998 H   0  0  0  0  0  0  0  0  0  0  0  0
    8.5919   -5.3114   12.3544 H   0  0  0  0  0  0  0  0  0  0  0  0
    7.3459   -3.6611   11.0038 H   0  0  0  0  0  0  0  0  0  0  0  0
    5.7158   -0.9921   -1.2130 H   0  0  0  0  0  0  0  0  0  0  0  0
  1  2  2  0  0  0  0
  2  3  1  0  0  0  0
  2  4  1  0  0  0  0
  3 31  1  0  0  0  0
  4  5  2  0  0  0  0
  4 30  1  0  0  0  0
  5  6  1  0  0  0  0
  5 32  1  0  0  0  0
  6  7  2  0  0  0  0
  6 33  1  0  0  0  0
  7  8  1  0  0  0  0
  7 34  1  0  0  0  0
  8  9  1  0  0  0  0
  8 30  2  0  0  0  0
  9 10  2  0  0  0  0
  9 14  1  0  0  0  0
 10 11  1  0  0  0  0
 10 35  1  0  0  0  0
 11 12  2  0  0  0  0
 11 36  1  0  0  0  0
 12 13  1  0  0  0  0
 12 37  1  0  0  0  0
 13 14  2  0  0  0  0
 13 38  1  0  0  0  0
 14 15  1  0  0  0  0
 15 16  1  0  0  0  0
 15 39  1  0  0  0  0
 15 40  1  0  0  0  0
 16 17  1  0  0  0  0
 16 41  1  0  0  0  0
 17 18  2  0  0  0  0
 17 19  1  0  0  0  0
 19 20  2  0  0  0  0
 19 29  1  0  0  0  0
 20 21  1  0  0  0  0
 20 42  1  0  0  0  0
 21 22  1  0  0  0  0
 21 43  1  0  0  0  0
 22 23  1  0  0  0  0
 22 29  2  0  0  0  0
 23 24  2  0  0  0  0
 23 28  1  0  0  0  0
 24 25  1  0  0  0  0
 24 44  1  0  0  0  0
 25 26  2  0  0  0  0
 25 45  1  0  0  0  0
 26 27  1  0  0  0  0
 27 28  2  0  0  0  0
 27 46  1  0  0  0  0
 28 47  1  0  0  0  0
 30 48  1  0  0  0  0
M  END
$$$$
