
 OpenBabel01122422513D

 47 50  0  0  0  0  0  0  0  0999 V2000
    3.2660    0.9677    0.6716 N   0  0  0  0  0  0  0  0  0  0  0  0
    2.6011   -0.1003    0.1310 C   0  0  0  0  0  0  0  0  0  0  0  0
    1.4176    0.0026   -0.1600 O   0  0  0  0  0  0  0  0  0  0  0  0
    3.3821   -1.3577   -0.0662 C   0  0  0  0  0  0  0  0  0  0  0  0
    4.4144   -1.6380    0.8430 C   0  0  0  0  0  0  0  0  0  0  0  0
    5.1212   -2.8145    0.6998 C   0  0  0  0  0  0  0  0  0  0  0  0
    6.1739   -3.0804    1.5916 N   0  0  0  0  0  0  0  0  0  0  0  0
    6.9463   -4.2256    1.5429 C   0  0  0  0  0  0  0  0  0  0  0  0
    6.8510   -5.1467    0.7353 O   0  0  0  0  0  0  0  0  0  0  0  0
    8.0256   -4.3439    2.5641 C   0  0  0  0  0  0  0  0  0  0  0  0
    7.9665   -3.7318    3.8186 C   0  0  0  0  0  0  0  0  0  0  0  0
    8.9959   -3.9417    4.7396 C   0  0  0  0  0  0  0  0  0  0  0  0
   10.0588   -4.7961    4.4336 C   0  0  0  0  0  0  0  0  0  0  0  0
   10.1110   -5.4517    3.1975 C   0  0  0  0  0  0  0  0  0  0  0  0
   11.1568   -6.5083    2.9045 C   0  0  0  0  0  0  0  0  0  0  0  0
   10.7374   -7.9034    3.3307 C   0  0  0  0  0  0  0  0  0  0  0  0
    9.6188   -8.5187    2.7640 C   0  0  0  0  0  0  0  0  0  0  0  0
    9.2091   -9.7592    3.2419 C   0  0  0  0  0  0  0  0  0  0  0  0
    9.9424  -10.3746    4.2468 C   0  0  0  0  0  0  0  0  0  0  0  0
   11.0678   -9.7235    4.7222 C   0  0  0  0  0  0  0  0  0  0  0  0
   11.4776   -8.5070    4.2945 N   0  0  0  0  0  0  0  0  0  0  0  0
    9.1048   -5.1873    2.2593 C   0  0  0  0  0  0  0  0  0  0  0  0
    4.8308   -3.6908   -0.2657 N   0  0  0  0  0  0  0  0  0  0  0  0
    3.8524   -3.4434   -1.1381 C   0  0  0  0  0  0  0  0  0  0  0  0
    3.6290   -4.4028   -2.1130 C   0  0  0  0  0  0  0  0  0  0  0  0
    2.6504   -4.2471   -3.0904 C   0  0  0  0  0  0  0  0  0  0  0  0
    1.8763   -3.0979   -3.0938 C   0  0  0  0  0  0  0  0  0  0  0  0
    2.0850   -2.1203   -2.1176 C   0  0  0  0  0  0  0  0  0  0  0  0
    3.0740   -2.2744   -1.1079 C   0  0  0  0  0  0  0  0  0  0  0  0
    2.7414    1.8311    0.7453 H   0  0  0  0  0  0  0  0  0  0  0  0
    4.2688    1.0195    0.7655 H   0  0  0  0  0  0  0  0  0  0  0  0
    4.6373   -0.9640    1.6605 H   0  0  0  0  0  0  0  0  0  0  0  0
    6.3984   -2.3652    2.2635 H   0  0  0  0  0  0  0  0  0  0  0  0
    7.1140   -3.1319    4.1208 H   0  0  0  0  0  0  0  0  0  0  0  0
    8.9503   -3.4717    5.7195 H   0  0  0  0  0  0  0  0  0  0  0  0
   10.8322   -4.9771    5.1796 H   0  0  0  0  0  0  0  0  0  0  0  0
   12.0950   -6.2342    3.4071 H   0  0  0  0  0  0  0  0  0  0  0  0
   11.3900   -6.5187    1.8333 H   0  0  0  0  0  0  0  0  0  0  0  0
    9.0470   -8.0367    1.9772 H   0  0  0  0  0  0  0  0  0  0  0  0
    8.3178  -10.2325    2.8402 H   0  0  0  0  0  0  0  0  0  0  0  0
    9.6436  -11.3358    4.6489 H   0  0  0  0  0  0  0  0  0  0  0  0
   11.6869  -10.1749    5.4918 H   0  0  0  0  0  0  0  0  0  0  0  0
    9.1312   -5.6840    1.2893 H   0  0  0  0  0  0  0  0  0  0  0  0
    4.2454   -5.3015   -2.1076 H   0  0  0  0  0  0  0  0  0  0  0  0
    2.5038   -5.0184   -3.8404 H   0  0  0  0  0  0  0  0  0  0  0  0
    1.1108   -2.9574   -3.8538 H   0  0  0  0  0  0  0  0  0  0  0  0
    1.4614   -1.2287   -2.1556 H   0  0  0  0  0  0  0  0  0  0  0  0
  1  2  1  0  0  0  0
  1 30  1  0  0  0  0
  1 31  1  0  0  0  0
  2  3  2  0  0  0  0
  2  4  1  0  0  0  0
  4  5  2  0  0  0  0
  4 29  1  0  0  0  0
  5  6  1  0  0  0  0
  5 32  1  0  0  0  0
  6  7  1  0  0  0  0
  6 23  2  0  0  0  0
  7  8  1  0  0  0  0
  7 33  1  0  0  0  0
  8  9  2  0  0  0  0
  8 10  1  0  0  0  0
 10 11  2  0  0  0  0
 10 22  1  0  0  0  0
 11 12  1  0  0  0  0
 11 34  1  0  0  0  0
 12 13  2  0  0  0  0
 12 35  1  0  0  0  0
 13 14  1  0  0  0  0
 13 36  1  0  0  0  0
 14 15  1  0  0  0  0
 14 22  2  0  0  0  0
 15 16  1  0  0  0  0
 15 37  1  0  0  0  0
 15 38  1  0  0  0  0
 16 17  2  0  0  0  0
 16 21  1  0  0  0  0
 17 18  1  0  0  0  0
 17 39  1  0  0  0  0
 18 19  2  0  0  0  0
 18 40  1  0  0  0  0
 19 20  1  0  0  0  0
 19 41  1  0  0  0  0
 20 21  2  0  0  0  0
 20 42  1  0  0  0  0
 22 43  1  0  0  0  0
 23 24  1  0  0  0  0
 24 25  2  0  0  0  0
 24 29  1  0  0  0  0
 25 26  1  0  0  0  0
 25 44  1  0  0  0  0
 26 27  2  0  0  0  0
 26 45  1  0  0  0  0
 27 28  1  0  0  0  0
 27 46  1  0  0  0  0
 28 29  2  0  0  0  0
 28 47  1  0  0  0  0
M  END
$$$$
