
 OpenBabel01122422513D

 52 54  0  0  0  0  0  0  0  0999 V2000
    3.4676    1.1671   -2.5990 N   0  0  0  0  0  0  0  0  0  0  0  0
    2.6455    0.3571   -1.8740 C   0  0  0  0  0  0  0  0  0  0  0  0
    1.4338    0.5663   -1.8781 O   0  0  0  0  0  0  0  0  0  0  0  0
    3.2686   -0.8404   -1.1419 C   0  0  0  0  0  0  0  0  0  0  0  0
    4.7254   -0.7606   -0.8609 N   0  0  0  0  0  0  0  0  0  0  0  0
    5.1972    0.2600    0.0879 C   0  0  0  0  0  0  0  0  0  0  0  0
    5.0702   -0.0832    1.5595 C   0  0  0  0  0  0  0  0  0  0  0  0
    4.5301   -1.2782    2.0499 C   0  0  0  0  0  0  0  0  0  0  0  0
    4.3737   -1.4805    3.4255 C   0  0  0  0  0  0  0  0  0  0  0  0
    4.7754   -0.5023    4.3336 C   0  0  0  0  0  0  0  0  0  0  0  0
    5.3503    0.6752    3.8671 C   0  0  0  0  0  0  0  0  0  0  0  0
    5.4976    0.8813    2.4936 C   0  0  0  0  0  0  0  0  0  0  0  0
    5.6437   -1.3395   -1.7355 C   0  0  0  0  0  0  0  0  0  0  0  0
    5.3815   -1.4584   -3.1084 C   0  0  0  0  0  0  0  0  0  0  0  0
    6.3129   -2.0034   -3.9882 C   0  0  0  0  0  0  0  0  0  0  0  0
    7.5275   -2.4761   -3.5134 C   0  0  0  0  0  0  0  0  0  0  0  0
    7.8290   -2.4068   -2.1572 C   0  0  0  0  0  0  0  0  0  0  0  0
    9.0583   -2.8721   -1.6294 N   0  0  0  0  0  0  0  0  0  0  0  0
   10.0225   -3.6033   -2.3067 C   0  0  0  0  0  0  0  0  0  0  0  0
    9.9430   -4.0518   -3.4495 O   0  0  0  0  0  0  0  0  0  0  0  0
   11.2423   -3.9721   -1.5535 C   0  0  0  0  0  0  0  0  0  0  0  0
   11.1308   -4.4318   -0.2339 C   0  0  0  0  0  0  0  0  0  0  0  0
    9.9353   -4.3973    0.4897 N   0  0  0  0  0  0  0  0  0  0  0  0
   12.1744   -4.9274    0.4609 N   0  0  0  0  0  0  0  0  0  0  0  0
   13.3645   -5.0125   -0.1653 C   0  0  0  0  0  0  0  0  0  0  0  0
   13.5772   -4.5699   -1.4547 C   0  0  0  0  0  0  0  0  0  0  0  0
   12.5063   -4.0104   -2.1749 C   0  0  0  0  0  0  0  0  0  0  0  0
   12.8170   -3.4916   -3.5559 C   0  0  0  0  0  0  0  0  0  0  0  0
   11.8797   -2.7195   -4.1567 F   0  0  0  0  0  0  0  0  0  0  0  0
   13.9327   -2.6963   -3.5224 F   0  0  0  0  0  0  0  0  0  0  0  0
   13.1302   -4.4915   -4.4257 F   0  0  0  0  0  0  0  0  0  0  0  0
    6.8840   -1.8356   -1.2780 C   0  0  0  0  0  0  0  0  0  0  0  0
    3.0561    1.9370   -3.1062 H   0  0  0  0  0  0  0  0  0  0  0  0
    4.4743    1.0697   -2.5544 H   0  0  0  0  0  0  0  0  0  0  0  0
    3.0364   -1.7410   -1.7239 H   0  0  0  0  0  0  0  0  0  0  0  0
    2.7282   -0.9397   -0.1942 H   0  0  0  0  0  0  0  0  0  0  0  0
    4.6282    1.1841   -0.0766 H   0  0  0  0  0  0  0  0  0  0  0  0
    6.2456    0.5178   -0.1093 H   0  0  0  0  0  0  0  0  0  0  0  0
    4.2131   -2.0622    1.3677 H   0  0  0  0  0  0  0  0  0  0  0  0
    3.9296   -2.4034    3.7910 H   0  0  0  0  0  0  0  0  0  0  0  0
    4.6416   -0.6580    5.4006 H   0  0  0  0  0  0  0  0  0  0  0  0
    5.6743    1.4386    4.5698 H   0  0  0  0  0  0  0  0  0  0  0  0
    5.9428    1.8140    2.1518 H   0  0  0  0  0  0  0  0  0  0  0  0
    4.4550   -1.0971   -3.5423 H   0  0  0  0  0  0  0  0  0  0  0  0
    6.0957   -2.0541   -5.0517 H   0  0  0  0  0  0  0  0  0  0  0  0
    8.2234   -2.8872   -4.2352 H   0  0  0  0  0  0  0  0  0  0  0  0
    9.2071   -2.7373   -0.6298 H   0  0  0  0  0  0  0  0  0  0  0  0
    9.1980   -4.9058    0.0056 H   0  0  0  0  0  0  0  0  0  0  0  0
   10.1338   -4.8245    1.3913 H   0  0  0  0  0  0  0  0  0  0  0  0
   14.1669   -5.4595    0.4132 H   0  0  0  0  0  0  0  0  0  0  0  0
   14.5646   -4.6565   -1.9025 H   0  0  0  0  0  0  0  0  0  0  0  0
    7.0946   -1.8120   -0.2103 H   0  0  0  0  0  0  0  0  0  0  0  0
  1  2  1  0  0  0  0
  1 33  1  0  0  0  0
  1 34  1  0  0  0  0
  2  3  2  0  0  0  0
  2  4  1  0  0  0  0
  4  5  1  0  0  0  0
  4 35  1  0  0  0  0
  4 36  1  0  0  0  0
  5  6  1  0  0  0  0
  5 13  1  0  0  0  0
  6  7  1  0  0  0  0
  6 37  1  0  0  0  0
  6 38  1  0  0  0  0
  7  8  2  0  0  0  0
  7 12  1  0  0  0  0
  8  9  1  0  0  0  0
  8 39  1  0  0  0  0
  9 10  2  0  0  0  0
  9 40  1  0  0  0  0
 10 11  1  0  0  0  0
 10 41  1  0  0  0  0
 11 12  2  0  0  0  0
 11 42  1  0  0  0  0
 12 43  1  0  0  0  0
 13 14  2  0  0  0  0
 13 32  1  0  0  0  0
 14 15  1  0  0  0  0
 14 44  1  0  0  0  0
 15 16  2  0  0  0  0
 15 45  1  0  0  0  0
 16 17  1  0  0  0  0
 16 46  1  0  0  0  0
 17 18  1  0  0  0  0
 17 32  2  0  0  0  0
 18 19  1  0  0  0  0
 18 47  1  0  0  0  0
 19 20  2  0  0  0  0
 19 21  1  0  0  0  0
 21 22  2  0  0  0  0
 21 27  1  0  0  0  0
 22 23  1  0  0  0  0
 22 24  1  0  0  0  0
 23 48  1  0  0  0  0
 23 49  1  0  0  0  0
 24 25  2  0  0  0  0
 25 26  1  0  0  0  0
 25 50  1  0  0  0  0
 26 27  2  0  0  0  0
 26 51  1  0  0  0  0
 27 28  1  0  0  0  0
 28 29  1  0  0  0  0
 28 30  1  0  0  0  0
 28 31  1  0  0  0  0
 32 52  1  0  0  0  0
M  END
$$$$
