
 OpenBabel01122422513D

 50 53  0  0  0  0  0  0  0  0999 V2000
    1.1158    0.2634   -0.1104 O   0  0  0  0  0  0  0  0  0  0  0  0
    2.3238    0.0444   -0.0679 C   0  0  0  0  0  0  0  0  0  0  0  0
    2.9300   -0.5490    1.0018 N   0  0  0  0  0  0  0  0  0  0  0  0
    2.2145   -0.9364    2.2042 C   0  0  0  0  0  0  0  0  0  0  0  0
    3.1604   -1.4712    3.2871 C   0  0  0  0  0  0  0  0  0  0  0  0
    2.4372   -1.8558    4.5137 N   0  0  0  0  0  0  0  0  0  0  0  0
    2.2355   -0.9423    5.5423 C   0  0  0  0  0  0  0  0  0  0  0  0
    1.6239   -1.2307    6.6985 C   0  0  0  0  0  0  0  0  0  0  0  0
    1.1269   -2.6125    6.8984 C   0  0  0  0  0  0  0  0  0  0  0  0
    0.5686   -2.9472    7.9318 O   0  0  0  0  0  0  0  0  0  0  0  0
    1.3151   -3.5753    5.7836 C   0  0  0  0  0  0  0  0  0  0  0  0
    1.9439   -3.1462    4.6827 C   0  0  0  0  0  0  0  0  0  0  0  0
    3.1384    0.4938   -1.0662 N   0  0  0  0  0  0  0  0  0  0  0  0
    4.4860    0.3079   -1.0995 C   0  0  0  0  0  0  0  0  0  0  0  0
    5.1955   -0.5653   -0.4173 N   0  0  0  0  0  0  0  0  0  0  0  0
    6.4845   -0.3289   -0.8268 C   0  0  0  0  0  0  0  0  0  0  0  0
    7.6051   -1.1469   -0.3893 C   0  0  0  0  0  0  0  0  0  0  0  0
    8.7009   -1.3946   -1.2293 C   0  0  0  0  0  0  0  0  0  0  0  0
    9.8281   -2.0619   -0.7519 C   0  0  0  0  0  0  0  0  0  0  0  0
    9.8347   -2.5615    0.5452 C   0  0  0  0  0  0  0  0  0  0  0  0
    8.7198   -2.3912    1.3623 C   0  0  0  0  0  0  0  0  0  0  0  0
    7.6092   -1.6804    0.9020 C   0  0  0  0  0  0  0  0  0  0  0  0
    6.5227    0.7832   -1.6553 C   0  0  0  0  0  0  0  0  0  0  0  0
    7.5790    1.5708   -2.2863 C   0  0  0  0  0  0  0  0  0  0  0  0
    7.4046    2.1715   -3.5363 C   0  0  0  0  0  0  0  0  0  0  0  0
    8.5011    2.7114   -4.2193 C   0  0  0  0  0  0  0  0  0  0  0  0
    9.7800    2.6517   -3.6644 C   0  0  0  0  0  0  0  0  0  0  0  0
    9.9545    2.1287   -2.3898 C   0  0  0  0  0  0  0  0  0  0  0  0
    8.8516    1.6417   -1.6900 C   0  0  0  0  0  0  0  0  0  0  0  0
    5.2139    1.1388   -1.9044 O   0  0  0  0  0  0  0  0  0  0  0  0
    3.8574   -0.9306    0.8269 H   0  0  0  0  0  0  0  0  0  0  0  0
    1.4674   -1.6875    1.9281 H   0  0  0  0  0  0  0  0  0  0  0  0
    1.6731   -0.0553    2.5703 H   0  0  0  0  0  0  0  0  0  0  0  0
    3.9221   -0.7158    3.5229 H   0  0  0  0  0  0  0  0  0  0  0  0
    3.7172   -2.3334    2.8961 H   0  0  0  0  0  0  0  0  0  0  0  0
    2.6194    0.0571    5.3538 H   0  0  0  0  0  0  0  0  0  0  0  0
    1.4739   -0.5202    7.4968 H   0  0  0  0  0  0  0  0  0  0  0  0
    0.9407   -4.5807    5.9113 H   0  0  0  0  0  0  0  0  0  0  0  0
    2.1150   -3.8157    3.8454 H   0  0  0  0  0  0  0  0  0  0  0  0
    2.7177    1.0923   -1.7591 H   0  0  0  0  0  0  0  0  0  0  0  0
    8.7137   -1.0353   -2.2564 H   0  0  0  0  0  0  0  0  0  0  0  0
   10.6979   -2.1792   -1.3933 H   0  0  0  0  0  0  0  0  0  0  0  0
   10.7085   -3.0910    0.9174 H   0  0  0  0  0  0  0  0  0  0  0  0
    8.7189   -2.8030    2.3702 H   0  0  0  0  0  0  0  0  0  0  0  0
    6.7578   -1.5333    1.5619 H   0  0  0  0  0  0  0  0  0  0  0  0
    6.4266    2.1882   -4.0105 H   0  0  0  0  0  0  0  0  0  0  0  0
    8.3633    3.1493   -5.2047 H   0  0  0  0  0  0  0  0  0  0  0  0
   10.6393    3.0131   -4.2226 H   0  0  0  0  0  0  0  0  0  0  0  0
   10.9455    2.0697   -1.9461 H   0  0  0  0  0  0  0  0  0  0  0  0
    9.0200    1.2493   -0.6884 H   0  0  0  0  0  0  0  0  0  0  0  0
  1  2  2  0  0  0  0
  2  3  1  0  0  0  0
  2 13  1  0  0  0  0
  3  4  1  0  0  0  0
  3 31  1  0  0  0  0
  4  5  1  0  0  0  0
  4 32  1  0  0  0  0
  4 33  1  0  0  0  0
  5  6  1  0  0  0  0
  5 34  1  0  0  0  0
  5 35  1  0  0  0  0
  6  7  1  0  0  0  0
  6 12  1  0  0  0  0
  7  8  2  0  0  0  0
  7 36  1  0  0  0  0
  8  9  1  0  0  0  0
  8 37  1  0  0  0  0
  9 10  2  0  0  0  0
  9 11  1  0  0  0  0
 11 12  2  0  0  0  0
 11 38  1  0  0  0  0
 12 39  1  0  0  0  0
 13 14  1  0  0  0  0
 13 40  1  0  0  0  0
 14 15  2  0  0  0  0
 14 30  1  0  0  0  0
 15 16  1  0  0  0  0
 16 17  1  0  0  0  0
 16 23  2  0  0  0  0
 17 18  2  0  0  0  0
 17 22  1  0  0  0  0
 18 19  1  0  0  0  0
 18 41  1  0  0  0  0
 19 20  2  0  0  0  0
 19 42  1  0  0  0  0
 20 21  1  0  0  0  0
 20 43  1  0  0  0  0
 21 22  2  0  0  0  0
 21 44  1  0  0  0  0
 22 45  1  0  0  0  0
 23 24  1  0  0  0  0
 23 30  1  0  0  0  0
 24 25  2  0  0  0  0
 24 29  1  0  0  0  0
 25 26  1  0  0  0  0
 25 46  1  0  0  0  0
 26 27  2  0  0  0  0
 26 47  1  0  0  0  0
 27 28  1  0  0  0  0
 27 48  1  0  0  0  0
 28 29  2  0  0  0  0
 28 49  1  0  0  0  0
 29 50  1  0  0  0  0
M  END
$$$$
