
 OpenBabel01122422513D

 47 50  0  0  1  0  0  0  0  0999 V2000
    4.4903   -1.6480   -1.5638 O   0  0  0  0  0  0  0  0  0  0  0  0
    4.1132   -0.8769   -0.6843 C   0  0  0  0  0  0  0  0  0  0  0  0
    4.9642    0.2990   -0.3488 C   0  0  0  0  0  0  0  0  0  0  0  0
    4.5863    1.1584    0.6059 C   0  0  0  0  0  0  0  0  0  0  0  0
    3.3462    0.9633    1.3107 C   0  0  0  0  0  0  0  0  0  0  0  0
    2.5864   -0.1062    1.0451 C   0  0  0  0  0  0  0  0  0  0  0  0
    2.9537   -1.0299    0.0767 N   0  0  0  0  0  0  0  0  0  0  0  0
    2.1619   -2.2548   -0.0968 C   0  0  0  0  0  0  0  0  0  0  0  0
    0.6859   -2.0682   -0.5439 C   0  0  3  0  0  0  0  0  0  0  0  0
    0.5961   -1.3988   -1.8556 N   0  0  0  0  0  0  0  0  0  0  0  0
   -0.5957   -0.6836   -2.0704 C   0  0  0  0  0  0  0  0  0  0  0  0
   -1.2529   -0.1445   -1.0328 N   0  0  0  0  0  0  0  0  0  0  0  0
   -2.3464    0.6046   -1.2873 C   0  0  0  0  0  0  0  0  0  0  0  0
   -3.0175    1.2826   -0.1456 C   0  0  0  0  0  0  0  0  0  0  0  0
   -4.2119    1.9979   -0.3171 C   0  0  0  0  0  0  0  0  0  0  0  0
   -4.7766    2.6802    0.7618 C   0  0  0  0  0  0  0  0  0  0  0  0
   -4.1389    2.6329    1.9882 C   0  0  0  0  0  0  0  0  0  0  0  0
   -4.6403    3.2936    3.0385 F   0  0  0  0  0  0  0  0  0  0  0  0
   -2.9756    1.8978    2.1052 C   0  0  0  0  0  0  0  0  0  0  0  0
   -2.4068    1.2222    1.0779 N   0  0  0  0  0  0  0  0  0  0  0  0
   -2.8429    0.8226   -2.5241 N   0  0  0  0  0  0  0  0  0  0  0  0
   -2.1497    0.2863   -3.5400 C   0  0  0  0  0  0  0  0  0  0  0  0
   -1.0024   -0.4524   -3.3695 C   0  0  0  0  0  0  0  0  0  0  0  0
   -0.0014   -3.4350   -0.6303 C   0  0  0  0  0  0  0  0  0  0  0  0
   -1.1276   -3.7047    0.1614 C   0  0  0  0  0  0  0  0  0  0  0  0
   -1.7563   -4.9508    0.1023 C   0  0  0  0  0  0  0  0  0  0  0  0
   -1.2787   -5.9386   -0.7573 C   0  0  0  0  0  0  0  0  0  0  0  0
   -0.1713   -5.6824   -1.5603 C   0  0  0  0  0  0  0  0  0  0  0  0
    0.4640   -4.4416   -1.4978 C   0  0  0  0  0  0  0  0  0  0  0  0
    5.8923    0.3978   -0.8955 H   0  0  0  0  0  0  0  0  0  0  0  0
    5.2078    2.0058    0.8734 H   0  0  0  0  0  0  0  0  0  0  0  0
    3.0523    1.6882    2.0622 H   0  0  0  0  0  0  0  0  0  0  0  0
    1.6590   -0.2797    1.5823 H   0  0  0  0  0  0  0  0  0  0  0  0
    2.1849   -2.7796    0.8684 H   0  0  0  0  0  0  0  0  0  0  0  0
    2.6815   -2.9125   -0.8022 H   0  0  0  0  0  0  0  0  0  0  0  0
    0.2018   -1.4745    0.2402 H   0  0  0  0  0  0  0  0  0  0  0  0
    0.7617   -2.0547   -2.6099 H   0  0  0  0  0  0  0  0  0  0  0  0
   -4.6952    2.0370   -1.2899 H   0  0  0  0  0  0  0  0  0  0  0  0
   -5.6928    3.2486    0.6446 H   0  0  0  0  0  0  0  0  0  0  0  0
   -2.4527    1.8378    3.0536 H   0  0  0  0  0  0  0  0  0  0  0  0
   -2.5494    0.4780   -4.5309 H   0  0  0  0  0  0  0  0  0  0  0  0
   -0.4640   -0.8470   -4.2196 H   0  0  0  0  0  0  0  0  0  0  0  0
   -1.5251   -2.9416    0.8292 H   0  0  0  0  0  0  0  0  0  0  0  0
   -2.6240   -5.1500    0.7261 H   0  0  0  0  0  0  0  0  0  0  0  0
   -1.7713   -6.9062   -0.8029 H   0  0  0  0  0  0  0  0  0  0  0  0
    0.2001   -6.4489   -2.2362 H   0  0  0  0  0  0  0  0  0  0  0  0
    1.3292   -4.2701   -2.1355 H   0  0  0  0  0  0  0  0  0  0  0  0
  1  2  2  0  0  0  0
  2  3  1  0  0  0  0
  2  7  1  0  0  0  0
  3  4  2  0  0  0  0
  3 30  1  0  0  0  0
  4  5  1  0  0  0  0
  4 31  1  0  0  0  0
  5  6  2  0  0  0  0
  5 32  1  0  0  0  0
  6  7  1  0  0  0  0
  6 33  1  0  0  0  0
  7  8  1  0  0  0  0
  8  9  1  0  0  0  0
  8 34  1  0  0  0  0
  8 35  1  0  0  0  0
  9 10  1  0  0  0  0
  9 24  1  0  0  0  0
  9 36  1  0  0  0  0
 10 11  1  0  0  0  0
 10 37  1  0  0  0  0
 11 12  2  0  0  0  0
 11 23  1  0  0  0  0
 12 13  1  0  0  0  0
 13 14  1  0  0  0  0
 13 21  2  0  0  0  0
 14 15  2  0  0  0  0
 14 20  1  0  0  0  0
 15 16  1  0  0  0  0
 15 38  1  0  0  0  0
 16 17  2  0  0  0  0
 16 39  1  0  0  0  0
 17 18  1  0  0  0  0
 17 19  1  0  0  0  0
 19 20  2  0  0  0  0
 19 40  1  0  0  0  0
 21 22  1  0  0  0  0
 22 23  2  0  0  0  0
 22 41  1  0  0  0  0
 23 42  1  0  0  0  0
 24 25  2  0  0  0  0
 24 29  1  0  0  0  0
 25 26  1  0  0  0  0
 25 43  1  0  0  0  0
 26 27  2  0  0  0  0
 26 44  1  0  0  0  0
 27 28  1  0  0  0  0
 27 45  1  0  0  0  0
 28 29  2  0  0  0  0
 28 46  1  0  0  0  0
 29 47  1  0  0  0  0
M  END
$$$$
