
 OpenBabel01122422513D

 41 44  0  0  0  0  0  0  0  0999 V2000
   -0.7048   -0.7857   -2.4262 C   0  0  0  0  0  0  0  0  0  0  0  0
   -0.6941   -0.4270   -1.0318 N   0  0  0  0  0  0  0  0  0  0  0  0
   -0.9608    0.8490   -0.6856 N   0  0  0  0  0  0  0  0  0  0  0  0
   -0.7884    0.8090    0.6335 C   0  0  0  0  0  0  0  0  0  0  0  0
   -0.4312   -0.4055    1.1319 N   0  0  0  0  0  0  0  0  0  0  0  0
   -0.3810   -1.1940    0.0691 C   0  0  0  0  0  0  0  0  0  0  0  0
    0.0069   -2.6090    0.1045 C   0  0  0  0  0  0  0  0  0  0  0  0
    0.9048   -3.0250    1.0993 C   0  0  0  0  0  0  0  0  0  0  0  0
    1.3060   -4.3553    1.1927 C   0  0  0  0  0  0  0  0  0  0  0  0
    0.7870   -5.3009    0.3119 C   0  0  0  0  0  0  0  0  0  0  0  0
   -0.1487   -4.9278   -0.6527 C   0  0  0  0  0  0  0  0  0  0  0  0
   -0.7703   -5.8492   -1.5164 N   0  0  0  0  0  0  0  0  0  0  0  0
   -0.8143   -7.2237   -1.3599 C   0  0  0  0  0  0  0  0  0  0  0  0
   -0.3060   -7.8636   -0.4432 O   0  0  0  0  0  0  0  0  0  0  0  0
   -1.5957   -7.9048   -2.3902 C   0  0  0  0  0  0  0  0  0  0  0  0
   -2.1245   -7.2571   -3.4437 N   0  0  0  0  0  0  0  0  0  0  0  0
   -2.7859   -8.2253   -4.1820 O   0  0  0  0  0  0  0  0  0  0  0  0
   -2.6662   -9.4396   -3.5722 C   0  0  0  0  0  0  0  0  0  0  0  0
   -3.2979  -10.5696   -4.2301 C   0  0  0  0  0  0  0  0  0  0  0  0
   -2.8036  -11.8714   -4.0537 C   0  0  0  0  0  0  0  0  0  0  0  0
   -1.7351  -12.0914   -3.2754 F   0  0  0  0  0  0  0  0  0  0  0  0
   -3.3904  -12.9684   -4.6784 C   0  0  0  0  0  0  0  0  0  0  0  0
   -4.4977  -12.7703   -5.4911 C   0  0  0  0  0  0  0  0  0  0  0  0
   -5.0681  -13.8170   -6.0939 F   0  0  0  0  0  0  0  0  0  0  0  0
   -5.0231  -11.5000   -5.6807 C   0  0  0  0  0  0  0  0  0  0  0  0
   -4.4207  -10.4144   -5.0517 C   0  0  0  0  0  0  0  0  0  0  0  0
   -4.9703   -9.2034   -5.2352 F   0  0  0  0  0  0  0  0  0  0  0  0
   -1.9144   -9.2836   -2.4337 C   0  0  0  0  0  0  0  0  0  0  0  0
   -0.5165   -3.5786   -0.7655 C   0  0  0  0  0  0  0  0  0  0  0  0
   -0.8623    0.1104   -3.0329 H   0  0  0  0  0  0  0  0  0  0  0  0
   -1.5320   -1.4754   -2.6031 H   0  0  0  0  0  0  0  0  0  0  0  0
    0.2547   -1.2388   -2.6844 H   0  0  0  0  0  0  0  0  0  0  0  0
   -0.9216    1.6893    1.2491 H   0  0  0  0  0  0  0  0  0  0  0  0
    1.2944   -2.3046    1.8178 H   0  0  0  0  0  0  0  0  0  0  0  0
    2.0120   -4.6610    1.9603 H   0  0  0  0  0  0  0  0  0  0  0  0
    1.1348   -6.3252    0.4075 H   0  0  0  0  0  0  0  0  0  0  0  0
   -1.3521   -5.4900   -2.2680 H   0  0  0  0  0  0  0  0  0  0  0  0
   -2.9869  -13.9644   -4.5311 H   0  0  0  0  0  0  0  0  0  0  0  0
   -5.8955  -11.3546   -6.3075 H   0  0  0  0  0  0  0  0  0  0  0  0
   -1.6320  -10.0416   -1.7167 H   0  0  0  0  0  0  0  0  0  0  0  0
   -1.2706   -3.3073   -1.4952 H   0  0  0  0  0  0  0  0  0  0  0  0
  1  2  1  0  0  0  0
  1 30  1  0  0  0  0
  1 31  1  0  0  0  0
  1 32  1  0  0  0  0
  2  3  1  0  0  0  0
  2  6  1  0  0  0  0
  3  4  2  0  0  0  0
  4  5  1  0  0  0  0
  4 33  1  0  0  0  0
  5  6  2  0  0  0  0
  6  7  1  0  0  0  0
  7  8  2  0  0  0  0
  7 29  1  0  0  0  0
  8  9  1  0  0  0  0
  8 34  1  0  0  0  0
  9 10  2  0  0  0  0
  9 35  1  0  0  0  0
 10 11  1  0  0  0  0
 10 36  1  0  0  0  0
 11 12  1  0  0  0  0
 11 29  2  0  0  0  0
 12 13  1  0  0  0  0
 12 37  1  0  0  0  0
 13 14  2  0  0  0  0
 13 15  1  0  0  0  0
 15 16  2  0  0  0  0
 15 28  1  0  0  0  0
 16 17  1  0  0  0  0
 17 18  1  0  0  0  0
 18 19  1  0  0  0  0
 18 28  2  0  0  0  0
 19 20  2  0  0  0  0
 19 26  1  0  0  0  0
 20 21  1  0  0  0  0
 20 22  1  0  0  0  0
 22 23  2  0  0  0  0
 22 38  1  0  0  0  0
 23 24  1  0  0  0  0
 23 25  1  0  0  0  0
 25 26  2  0  0  0  0
 25 39  1  0  0  0  0
 26 27  1  0  0  0  0
 28 40  1  0  0  0  0
 29 41  1  0  0  0  0
M  END
$$$$
