
 OpenBabel01122422523D

 48 51  0  0  0  0  0  0  0  0999 V2000
    1.1115    0.2410   -0.1313 C   0  0  0  0  0  0  0  0  0  0  0  0
    2.5587    0.0500   -0.1939 N   0  0  0  0  0  0  0  0  0  0  0  0
    3.1124   -0.9849   -1.0758 C   0  0  0  0  0  0  0  0  0  0  0  0
    2.1662   -1.9759   -1.6562 C   0  0  0  0  0  0  0  0  0  0  0  0
    1.6714   -1.9089   -2.8971 N   0  0  0  0  0  0  0  0  0  0  0  0
    0.9932   -3.0650   -2.9696 N   0  0  0  0  0  0  0  0  0  0  0  0
    1.1186   -3.8168   -1.8301 C   0  0  0  0  0  0  0  0  0  0  0  0
    0.5495   -5.1482   -1.6452 C   0  0  0  0  0  0  0  0  0  0  0  0
    0.3331   -5.9982   -2.7378 C   0  0  0  0  0  0  0  0  0  0  0  0
   -0.2288   -7.2647   -2.5519 C   0  0  0  0  0  0  0  0  0  0  0  0
   -0.5705   -7.6928   -1.2719 C   0  0  0  0  0  0  0  0  0  0  0  0
   -0.3385   -6.8681   -0.1733 C   0  0  0  0  0  0  0  0  0  0  0  0
    0.2265   -5.6042   -0.3581 C   0  0  0  0  0  0  0  0  0  0  0  0
    1.8264   -3.1225   -0.9677 N   0  0  0  0  0  0  0  0  0  0  0  0
    3.3230    1.0179    0.4814 C   0  0  0  0  0  0  0  0  0  0  0  0
    2.7660    1.9211    1.1161 O   0  0  0  0  0  0  0  0  0  0  0  0
    4.8189    1.1063    0.4202 C   0  0  0  0  0  0  0  0  0  0  0  0
    5.3367    2.4141    0.3781 C   0  0  0  0  0  0  0  0  0  0  0  0
    6.7067    2.6070    0.3430 C   0  0  0  0  0  0  0  0  0  0  0  0
    7.5918    1.5977    0.2833 N   0  0  0  0  0  0  0  0  0  0  0  0
    7.0828    0.3479    0.3523 C   0  0  0  0  0  0  0  0  0  0  0  0
    5.7288    0.0496    0.5143 C   0  0  0  0  0  0  0  0  0  0  0  0
    5.2750   -1.2148    0.7829 O   0  0  0  0  0  0  0  0  0  0  0  0
    6.1030   -2.1481    1.3502 C   0  0  0  0  0  0  0  0  0  0  0  0
    6.8754   -1.8582    2.4760 C   0  0  0  0  0  0  0  0  0  0  0  0
    7.7131   -2.8344    3.0043 C   0  0  0  0  0  0  0  0  0  0  0  0
    7.7287   -4.1044    2.4373 C   0  0  0  0  0  0  0  0  0  0  0  0
    8.5364   -5.0405    2.9507 F   0  0  0  0  0  0  0  0  0  0  0  0
    6.9143   -4.4203    1.3539 C   0  0  0  0  0  0  0  0  0  0  0  0
    6.0919   -3.4363    0.8055 C   0  0  0  0  0  0  0  0  0  0  0  0
    0.5414   -0.5495   -0.6194 H   0  0  0  0  0  0  0  0  0  0  0  0
    0.8552    1.1970   -0.6006 H   0  0  0  0  0  0  0  0  0  0  0  0
    0.8067    0.2741    0.9195 H   0  0  0  0  0  0  0  0  0  0  0  0
    3.7249   -1.6232   -0.4551 H   0  0  0  0  0  0  0  0  0  0  0  0
    3.7547   -0.5245   -1.8310 H   0  0  0  0  0  0  0  0  0  0  0  0
    0.4811   -3.2813   -3.8132 H   0  0  0  0  0  0  0  0  0  0  0  0
    0.6156   -5.7054   -3.7439 H   0  0  0  0  0  0  0  0  0  0  0  0
   -0.3905   -7.9146   -3.4046 H   0  0  0  0  0  0  0  0  0  0  0  0
   -1.0113   -8.6771   -1.1291 H   0  0  0  0  0  0  0  0  0  0  0  0
   -0.5966   -7.2066    0.8268 H   0  0  0  0  0  0  0  0  0  0  0  0
    0.4095   -4.9690    0.5082 H   0  0  0  0  0  0  0  0  0  0  0  0
    4.6790    3.2789    0.4026 H   0  0  0  0  0  0  0  0  0  0  0  0
    7.1377    3.6041    0.3614 H   0  0  0  0  0  0  0  0  0  0  0  0
    7.8384   -0.4323    0.3062 H   0  0  0  0  0  0  0  0  0  0  0  0
    6.8358   -0.8743    2.9358 H   0  0  0  0  0  0  0  0  0  0  0  0
    8.3493   -2.6105    3.8527 H   0  0  0  0  0  0  0  0  0  0  0  0
    6.9273   -5.4269    0.9482 H   0  0  0  0  0  0  0  0  0  0  0  0
    5.4483   -3.6775   -0.0383 H   0  0  0  0  0  0  0  0  0  0  0  0
  1  2  1  0  0  0  0
  1 31  1  0  0  0  0
  1 32  1  0  0  0  0
  1 33  1  0  0  0  0
  2  3  1  0  0  0  0
  2 15  1  0  0  0  0
  3  4  1  0  0  0  0
  3 34  1  0  0  0  0
  3 35  1  0  0  0  0
  4  5  2  0  0  0  0
  4 14  1  0  0  0  0
  5  6  1  0  0  0  0
  6  7  1  0  0  0  0
  6 36  1  0  0  0  0
  7  8  1  0  0  0  0
  7 14  2  0  0  0  0
  8  9  2  0  0  0  0
  8 13  1  0  0  0  0
  9 10  1  0  0  0  0
  9 37  1  0  0  0  0
 10 11  2  0  0  0  0
 10 38  1  0  0  0  0
 11 12  1  0  0  0  0
 11 39  1  0  0  0  0
 12 13  2  0  0  0  0
 12 40  1  0  0  0  0
 13 41  1  0  0  0  0
 15 16  2  0  0  0  0
 15 17  1  0  0  0  0
 17 18  2  0  0  0  0
 17 22  1  0  0  0  0
 18 19  1  0  0  0  0
 18 42  1  0  0  0  0
 19 20  2  0  0  0  0
 19 43  1  0  0  0  0
 20 21  1  0  0  0  0
 21 22  2  0  0  0  0
 21 44  1  0  0  0  0
 22 23  1  0  0  0  0
 23 24  1  0  0  0  0
 24 25  2  0  0  0  0
 24 30  1  0  0  0  0
 25 26  1  0  0  0  0
 25 45  1  0  0  0  0
 26 27  2  0  0  0  0
 26 46  1  0  0  0  0
 27 28  1  0  0  0  0
 27 29  1  0  0  0  0
 29 30  2  0  0  0  0
 29 47  1  0  0  0  0
 30 48  1  0  0  0  0
M  END
$$$$
