
 OpenBabel01122422463D

 49 52  0  0  0  0  0  0  0  0999 V2000
    1.2480   -0.4840    0.6618 O   0  0  0  0  0  0  0  0  0  0  0  0
    2.4592   -0.3965    0.4816 C   0  0  0  0  0  0  0  0  0  0  0  0
    3.2089   -1.1628   -0.5847 C   0  0  0  0  0  0  0  0  0  0  0  0
    3.0145   -2.6597   -0.5552 C   0  0  0  0  0  0  0  0  0  0  0  0
    1.8856   -3.1840   -1.2209 C   0  0  0  0  0  0  0  0  0  0  0  0
    1.6860   -4.5531   -1.3503 C   0  0  0  0  0  0  0  0  0  0  0  0
    2.6394   -5.4380   -0.8632 C   0  0  0  0  0  0  0  0  0  0  0  0
    3.7634   -4.9373   -0.2093 C   0  0  0  0  0  0  0  0  0  0  0  0
    3.9173   -3.5644    0.0402 C   0  0  0  0  0  0  0  0  0  0  0  0
    4.9431   -3.1010    0.8616 O   0  0  0  0  0  0  0  0  0  0  0  0
    5.3538   -3.9465    1.8887 C   0  0  0  0  0  0  0  0  0  0  0  0
    6.7219   -4.0651    2.1461 C   0  0  0  0  0  0  0  0  0  0  0  0
    7.1278   -5.0179    3.0695 C   0  0  0  0  0  0  0  0  0  0  0  0
    6.2807   -5.8396    3.7333 N   0  0  0  0  0  0  0  0  0  0  0  0
    4.9651   -5.6731    3.4934 C   0  0  0  0  0  0  0  0  0  0  0  0
    4.4596   -4.7158    2.6330 C   0  0  0  0  0  0  0  0  0  0  0  0
    3.2612    0.4883    1.1773 N   0  0  0  0  0  0  0  0  0  0  0  0
    2.7772    1.3212    2.2531 C   0  0  0  0  0  0  0  0  0  0  0  0
    3.4379    0.9392    3.5507 C   0  0  0  0  0  0  0  0  0  0  0  0
    4.2808    1.8341    4.2199 C   0  0  0  0  0  0  0  0  0  0  0  0
    4.8457    1.4839    5.4483 C   0  0  0  0  0  0  0  0  0  0  0  0
    4.6018    0.2279    6.0178 C   0  0  0  0  0  0  0  0  0  0  0  0
    5.2178   -0.1074    7.2991 C   0  0  0  0  0  0  0  0  0  0  0  0
    5.5189    0.7359    8.2703 N   0  0  0  0  0  0  0  0  0  0  0  0
    6.1179   -0.0091    9.2516 C   0  0  0  0  0  0  0  0  0  0  0  0
    6.2132   -1.3238    8.8713 C   0  0  0  0  0  0  0  0  0  0  0  0
    5.6263   -1.3771    7.6379 N   0  0  0  0  0  0  0  0  0  0  0  0
    3.7715   -0.6730    5.3391 C   0  0  0  0  0  0  0  0  0  0  0  0
    3.1951   -0.3200    4.1169 C   0  0  0  0  0  0  0  0  0  0  0  0
    4.2765   -0.9233   -0.5752 H   0  0  0  0  0  0  0  0  0  0  0  0
    2.8459   -0.7794   -1.5506 H   0  0  0  0  0  0  0  0  0  0  0  0
    1.1455   -2.5057   -1.6480 H   0  0  0  0  0  0  0  0  0  0  0  0
    0.8036   -4.9259   -1.8567 H   0  0  0  0  0  0  0  0  0  0  0  0
    2.5083   -6.5048   -0.9702 H   0  0  0  0  0  0  0  0  0  0  0  0
    4.4972   -5.6590    0.1483 H   0  0  0  0  0  0  0  0  0  0  0  0
    7.4586   -3.4674    1.6227 H   0  0  0  0  0  0  0  0  0  0  0  0
    8.1781   -5.1780    3.2971 H   0  0  0  0  0  0  0  0  0  0  0  0
    4.3035   -6.3716    3.9993 H   0  0  0  0  0  0  0  0  0  0  0  0
    3.3885   -4.6436    2.4816 H   0  0  0  0  0  0  0  0  0  0  0  0
    4.2627    0.4633    1.0417 H   0  0  0  0  0  0  0  0  0  0  0  0
    1.6884    1.2564    2.3559 H   0  0  0  0  0  0  0  0  0  0  0  0
    3.0240    2.3546    1.9852 H   0  0  0  0  0  0  0  0  0  0  0  0
    4.4968    2.8153    3.8032 H   0  0  0  0  0  0  0  0  0  0  0  0
    5.4825    2.1973    5.9701 H   0  0  0  0  0  0  0  0  0  0  0  0
    6.4604    0.4456   10.1720 H   0  0  0  0  0  0  0  0  0  0  0  0
    6.6364   -2.1962    9.3472 H   0  0  0  0  0  0  0  0  0  0  0  0
    5.5436   -2.1912    7.0463 H   0  0  0  0  0  0  0  0  0  0  0  0
    3.5340   -1.6452    5.7621 H   0  0  0  0  0  0  0  0  0  0  0  0
    2.5397   -1.0267    3.6094 H   0  0  0  0  0  0  0  0  0  0  0  0
  1  2  2  0  0  0  0
  2  3  1  0  0  0  0
  2 17  1  0  0  0  0
  3  4  1  0  0  0  0
  3 30  1  0  0  0  0
  3 31  1  0  0  0  0
  4  5  2  0  0  0  0
  4  9  1  0  0  0  0
  5  6  1  0  0  0  0
  5 32  1  0  0  0  0
  6  7  2  0  0  0  0
  6 33  1  0  0  0  0
  7  8  1  0  0  0  0
  7 34  1  0  0  0  0
  8  9  2  0  0  0  0
  8 35  1  0  0  0  0
  9 10  1  0  0  0  0
 10 11  1  0  0  0  0
 11 12  2  0  0  0  0
 11 16  1  0  0  0  0
 12 13  1  0  0  0  0
 12 36  1  0  0  0  0
 13 14  2  0  0  0  0
 13 37  1  0  0  0  0
 14 15  1  0  0  0  0
 15 16  2  0  0  0  0
 15 38  1  0  0  0  0
 16 39  1  0  0  0  0
 17 18  1  0  0  0  0
 17 40  1  0  0  0  0
 18 19  1  0  0  0  0
 18 41  1  0  0  0  0
 18 42  1  0  0  0  0
 19 20  2  0  0  0  0
 19 29  1  0  0  0  0
 20 21  1  0  0  0  0
 20 43  1  0  0  0  0
 21 22  2  0  0  0  0
 21 44  1  0  0  0  0
 22 23  1  0  0  0  0
 22 28  1  0  0  0  0
 23 24  2  0  0  0  0
 23 27  1  0  0  0  0
 24 25  1  0  0  0  0
 25 26  2  0  0  0  0
 25 45  1  0  0  0  0
 26 27  1  0  0  0  0
 26 46  1  0  0  0  0
 27 47  1  0  0  0  0
 28 29  2  0  0  0  0
 28 48  1  0  0  0  0
 29 49  1  0  0  0  0
M  END
$$$$
