
 OpenBabel01122422523D

 45 48  0  0  0  0  0  0  0  0999 V2000
    1.7816   -1.3237   -0.7384 C   0  0  0  0  0  0  0  0  0  0  0  0
    3.0834   -0.8991   -0.3381 O   0  0  0  0  0  0  0  0  0  0  0  0
    3.4355   -1.2222    0.9428 C   0  0  0  0  0  0  0  0  0  0  0  0
    2.9071   -2.2837    1.6646 C   0  0  0  0  0  0  0  0  0  0  0  0
    3.3207   -2.4982    2.9777 C   0  0  0  0  0  0  0  0  0  0  0  0
    4.2413   -1.6737    3.6006 C   0  0  0  0  0  0  0  0  0  0  0  0
    4.5409   -1.9684    4.8721 N   0  0  0  0  0  0  0  0  0  0  0  0
    5.4483   -1.2123    5.5127 C   0  0  0  0  0  0  0  0  0  0  0  0
    6.0814   -0.1467    4.9263 C   0  0  0  0  0  0  0  0  0  0  0  0
    5.7733    0.1690    3.5965 C   0  0  0  0  0  0  0  0  0  0  0  0
    6.5758    1.2897    3.0378 C   0  0  0  0  0  0  0  0  0  0  0  0
    7.7591    1.3237    3.3605 O   0  0  0  0  0  0  0  0  0  0  0  0
    5.9146    2.2724    2.3137 N   0  0  0  0  0  0  0  0  0  0  0  0
    6.4934    3.4453    1.8513 C   0  0  0  0  0  0  0  0  0  0  0  0
    7.8178    3.6701    1.7757 C   0  0  0  0  0  0  0  0  0  0  0  0
    8.3745    4.9021    1.4287 N   0  0  0  0  0  0  0  0  0  0  0  0
    9.7949    5.1105    1.5291 C   0  0  0  0  0  0  0  0  0  0  0  0
   10.5227    4.5294    2.5820 C   0  0  0  0  0  0  0  0  0  0  0  0
   11.8875    4.7850    2.7380 C   0  0  0  0  0  0  0  0  0  0  0  0
   12.5531    5.5942    1.8221 C   0  0  0  0  0  0  0  0  0  0  0  0
   11.8552    6.1461    0.7504 C   0  0  0  0  0  0  0  0  0  0  0  0
   10.4830    5.9143    0.6106 C   0  0  0  0  0  0  0  0  0  0  0  0
    7.5469    5.9970    1.1227 C   0  0  0  0  0  0  0  0  0  0  0  0
    7.9003    7.1528    0.8960 O   0  0  0  0  0  0  0  0  0  0  0  0
    6.0821    5.7218    1.1282 C   0  0  0  0  0  0  0  0  0  0  0  0
    5.6027    4.5173    1.4635 C   0  0  0  0  0  0  0  0  0  0  0  0
    4.8176   -0.6005    2.8818 C   0  0  0  0  0  0  0  0  0  0  0  0
    4.4177   -0.4159    1.5299 C   0  0  0  0  0  0  0  0  0  0  0  0
    1.5554   -0.8546   -1.7000 H   0  0  0  0  0  0  0  0  0  0  0  0
    1.0191   -0.9984   -0.0203 H   0  0  0  0  0  0  0  0  0  0  0  0
    1.7457   -2.4083   -0.8822 H   0  0  0  0  0  0  0  0  0  0  0  0
    2.1868   -2.9732    1.2372 H   0  0  0  0  0  0  0  0  0  0  0  0
    2.9108   -3.3388    3.5342 H   0  0  0  0  0  0  0  0  0  0  0  0
    5.6646   -1.5067    6.5353 H   0  0  0  0  0  0  0  0  0  0  0  0
    6.8190    0.4233    5.4876 H   0  0  0  0  0  0  0  0  0  0  0  0
    4.9042    2.2152    2.2717 H   0  0  0  0  0  0  0  0  0  0  0  0
    8.5363    2.8842    1.9763 H   0  0  0  0  0  0  0  0  0  0  0  0
   10.0257    3.9224    3.3354 H   0  0  0  0  0  0  0  0  0  0  0  0
   12.4221    4.3655    3.5861 H   0  0  0  0  0  0  0  0  0  0  0  0
   13.6125    5.8007    1.9474 H   0  0  0  0  0  0  0  0  0  0  0  0
   12.3739    6.7690    0.0264 H   0  0  0  0  0  0  0  0  0  0  0  0
    9.9646    6.3564   -0.2366 H   0  0  0  0  0  0  0  0  0  0  0  0
    5.4430    6.5583    0.8744 H   0  0  0  0  0  0  0  0  0  0  0  0
    4.5314    4.3523    1.4660 H   0  0  0  0  0  0  0  0  0  0  0  0
    4.8616    0.3613    0.9123 H   0  0  0  0  0  0  0  0  0  0  0  0
  1  2  1  0  0  0  0
  1 29  1  0  0  0  0
  1 30  1  0  0  0  0
  1 31  1  0  0  0  0
  2  3  1  0  0  0  0
  3  4  2  0  0  0  0
  3 28  1  0  0  0  0
  4  5  1  0  0  0  0
  4 32  1  0  0  0  0
  5  6  2  0  0  0  0
  5 33  1  0  0  0  0
  6  7  1  0  0  0  0
  6 27  1  0  0  0  0
  7  8  2  0  0  0  0
  8  9  1  0  0  0  0
  8 34  1  0  0  0  0
  9 10  2  0  0  0  0
  9 35  1  0  0  0  0
 10 11  1  0  0  0  0
 10 27  1  0  0  0  0
 11 12  2  0  0  0  0
 11 13  1  0  0  0  0
 13 14  1  0  0  0  0
 13 36  1  0  0  0  0
 14 15  2  0  0  0  0
 14 26  1  0  0  0  0
 15 16  1  0  0  0  0
 15 37  1  0  0  0  0
 16 17  1  0  0  0  0
 16 23  1  0  0  0  0
 17 18  2  0  0  0  0
 17 22  1  0  0  0  0
 18 19  1  0  0  0  0
 18 38  1  0  0  0  0
 19 20  2  0  0  0  0
 19 39  1  0  0  0  0
 20 21  1  0  0  0  0
 20 40  1  0  0  0  0
 21 22  2  0  0  0  0
 21 41  1  0  0  0  0
 22 42  1  0  0  0  0
 23 24  2  0  0  0  0
 23 25  1  0  0  0  0
 25 26  2  0  0  0  0
 25 43  1  0  0  0  0
 26 44  1  0  0  0  0
 27 28  2  0  0  0  0
 28 45  1  0  0  0  0
M  END
$$$$
