
 OpenBabel01122422523D

 48 51  0  0  0  0  0  0  0  0999 V2000
    5.3656    4.3548   -2.2114 N   0  0  0  0  0  0  0  0  0  0  0  0
    5.5438    3.2752   -1.5846 C   0  0  0  0  0  0  0  0  0  0  0  0
    5.7586    1.9739   -0.8290 C   0  0  0  0  0  0  0  0  0  0  0  0
    5.9130    2.1934    0.6478 C   0  0  0  0  0  0  0  0  0  0  0  0
    4.7794    2.2554    1.4642 C   0  0  0  0  0  0  0  0  0  0  0  0
    4.9117    2.4173    2.8424 C   0  0  0  0  0  0  0  0  0  0  0  0
    6.1772    2.5279    3.4230 C   0  0  0  0  0  0  0  0  0  0  0  0
    6.4314    2.6495    4.7638 O   0  0  0  0  0  0  0  0  0  0  0  0
    5.2837    2.6293    5.6074 C   0  0  0  0  0  0  0  0  0  0  0  0
    5.6973    2.8280    7.0410 C   0  0  0  0  0  0  0  0  0  0  0  0
    5.8047    4.1333    7.5371 C   0  0  0  0  0  0  0  0  0  0  0  0
    6.0734    4.3873    8.8847 C   0  0  0  0  0  0  0  0  0  0  0  0
    6.0866    5.7004    9.4189 N   0  0  0  0  0  0  0  0  0  0  0  0
    5.4862    6.7843    8.8066 C   0  0  0  0  0  0  0  0  0  0  0  0
    4.8078    6.7344    7.7795 O   0  0  0  0  0  0  0  0  0  0  0  0
    5.6562    8.1046    9.4917 C   0  0  0  0  0  0  0  0  0  0  0  0
    4.7569    9.0514    9.1752 C   0  0  0  0  0  0  0  0  0  0  0  0
    4.9368   10.3621    9.6623 C   0  0  0  0  0  0  0  0  0  0  0  0
    4.2599   11.5451    9.4637 C   0  0  0  0  0  0  0  0  0  0  0  0
    4.9717   12.5534   10.1521 C   0  0  0  0  0  0  0  0  0  0  0  0
    6.0432   11.9490   10.7743 C   0  0  0  0  0  0  0  0  0  0  0  0
    6.0347   10.5990   10.4725 N   0  0  0  0  0  0  0  0  0  0  0  0
    6.9777    9.6285   10.8663 C   0  0  0  0  0  0  0  0  0  0  0  0
    7.9216    9.9170   11.5877 O   0  0  0  0  0  0  0  0  0  0  0  0
    6.7188    8.3820   10.3284 N   0  0  0  0  0  0  0  0  0  0  0  0
    6.3206    3.3043    9.7307 C   0  0  0  0  0  0  0  0  0  0  0  0
    6.2548    1.9938    9.2386 C   0  0  0  0  0  0  0  0  0  0  0  0
    5.9423    1.7551    7.8987 C   0  0  0  0  0  0  0  0  0  0  0  0
    7.3074    2.5118    2.6044 C   0  0  0  0  0  0  0  0  0  0  0  0
    7.1798    2.3503    1.2236 C   0  0  0  0  0  0  0  0  0  0  0  0
    6.6469    1.4715   -1.2307 H   0  0  0  0  0  0  0  0  0  0  0  0
    4.9130    1.3028   -1.0227 H   0  0  0  0  0  0  0  0  0  0  0  0
    3.7818    2.1709    1.0369 H   0  0  0  0  0  0  0  0  0  0  0  0
    3.9999    2.4477    3.4292 H   0  0  0  0  0  0  0  0  0  0  0  0
    4.7493    1.6760    5.5119 H   0  0  0  0  0  0  0  0  0  0  0  0
    4.5988    3.4439    5.3340 H   0  0  0  0  0  0  0  0  0  0  0  0
    5.6618    4.9453    6.8292 H   0  0  0  0  0  0  0  0  0  0  0  0
    6.3935    5.8012   10.3758 H   0  0  0  0  0  0  0  0  0  0  0  0
    3.9247    8.8498    8.5049 H   0  0  0  0  0  0  0  0  0  0  0  0
    3.3702   11.6732    8.8584 H   0  0  0  0  0  0  0  0  0  0  0  0
    4.7341   13.6093   10.1789 H   0  0  0  0  0  0  0  0  0  0  0  0
    6.8343   12.3598   11.3887 H   0  0  0  0  0  0  0  0  0  0  0  0
    7.4312    7.6837   10.4956 H   0  0  0  0  0  0  0  0  0  0  0  0
    6.5318    3.4531   10.7856 H   0  0  0  0  0  0  0  0  0  0  0  0
    6.4253    1.1531    9.9065 H   0  0  0  0  0  0  0  0  0  0  0  0
    5.8784    0.7329    7.5320 H   0  0  0  0  0  0  0  0  0  0  0  0
    8.2956    2.6183    3.0459 H   0  0  0  0  0  0  0  0  0  0  0  0
    8.0770    2.3397    0.6079 H   0  0  0  0  0  0  0  0  0  0  0  0
  1  2  3  0  0  0  0
  2  3  1  0  0  0  0
  3  4  1  0  0  0  0
  3 31  1  0  0  0  0
  3 32  1  0  0  0  0
  4  5  2  0  0  0  0
  4 30  1  0  0  0  0
  5  6  1  0  0  0  0
  5 33  1  0  0  0  0
  6  7  2  0  0  0  0
  6 34  1  0  0  0  0
  7  8  1  0  0  0  0
  7 29  1  0  0  0  0
  8  9  1  0  0  0  0
  9 10  1  0  0  0  0
  9 35  1  0  0  0  0
  9 36  1  0  0  0  0
 10 11  2  0  0  0  0
 10 28  1  0  0  0  0
 11 12  1  0  0  0  0
 11 37  1  0  0  0  0
 12 13  1  0  0  0  0
 12 26  2  0  0  0  0
 13 14  1  0  0  0  0
 13 38  1  0  0  0  0
 14 15  2  0  0  0  0
 14 16  1  0  0  0  0
 16 17  2  0  0  0  0
 16 25  1  0  0  0  0
 17 18  1  0  0  0  0
 17 39  1  0  0  0  0
 18 19  2  0  0  0  0
 18 22  1  0  0  0  0
 19 20  1  0  0  0  0
 19 40  1  0  0  0  0
 20 21  2  0  0  0  0
 20 41  1  0  0  0  0
 21 22  1  0  0  0  0
 21 42  1  0  0  0  0
 22 23  1  0  0  0  0
 23 24  2  0  0  0  0
 23 25  1  0  0  0  0
 25 43  1  0  0  0  0
 26 27  1  0  0  0  0
 26 44  1  0  0  0  0
 27 28  2  0  0  0  0
 27 45  1  0  0  0  0
 28 46  1  0  0  0  0
 29 30  2  0  0  0  0
 29 47  1  0  0  0  0
 30 48  1  0  0  0  0
M  END
$$$$
