
 OpenBabel01122422523D

 41 44  0  0  0  0  0  0  0  0999 V2000
    0.9783   -0.3119    0.0130 O   0  0  0  0  0  0  0  0  0  0  0  0
    2.1801   -0.0735    0.1218 C   0  0  0  0  0  0  0  0  0  0  0  0
    2.7986    0.3645    1.2787 N   0  0  0  0  0  0  0  0  0  0  0  0
    2.1653    0.4943    2.4985 C   0  0  0  0  0  0  0  0  0  0  0  0
    1.0299   -0.1461    2.8237 C   0  0  0  0  0  0  0  0  0  0  0  0
    0.3421    0.0687    4.0129 N   0  0  0  0  0  0  0  0  0  0  0  0
   -0.9327   -0.5558    4.2250 C   0  0  0  0  0  0  0  0  0  0  0  0
   -1.8490   -0.6721    3.1651 C   0  0  0  0  0  0  0  0  0  0  0  0
   -3.1135   -1.2272    3.3714 C   0  0  0  0  0  0  0  0  0  0  0  0
   -3.4634   -1.7095    4.6294 C   0  0  0  0  0  0  0  0  0  0  0  0
   -2.5507   -1.6363    5.6798 C   0  0  0  0  0  0  0  0  0  0  0  0
   -1.2967   -1.0519    5.4821 C   0  0  0  0  0  0  0  0  0  0  0  0
    0.8203    0.9932    4.9569 C   0  0  0  0  0  0  0  0  0  0  0  0
    0.2671    1.3382    5.9990 O   0  0  0  0  0  0  0  0  0  0  0  0
    2.1176    1.6498    4.6201 C   0  0  0  0  0  0  0  0  0  0  0  0
    2.7488    1.3914    3.4677 C   0  0  0  0  0  0  0  0  0  0  0  0
    3.0652   -0.2181   -1.0725 C   0  0  0  0  0  0  0  0  0  0  0  0
    2.4465   -0.0781   -2.2669 C   0  0  0  0  0  0  0  0  0  0  0  0
    3.1169   -0.4555   -3.4564 C   0  0  0  0  0  0  0  0  0  0  0  0
    2.7499   -0.4575   -4.7190 N   0  0  0  0  0  0  0  0  0  0  0  0
    3.7578   -1.0448   -5.4460 N   0  0  0  0  0  0  0  0  0  0  0  0
    4.7242   -1.3877   -4.6113 C   0  0  0  0  0  0  0  0  0  0  0  0
    5.9665   -2.1192   -4.9003 C   0  0  0  0  0  0  0  0  0  0  0  0
    6.0545   -2.5578   -6.1790 F   0  0  0  0  0  0  0  0  0  0  0  0
    7.0663   -1.3471   -4.6709 F   0  0  0  0  0  0  0  0  0  0  0  0
    6.1019   -3.2121   -4.1016 F   0  0  0  0  0  0  0  0  0  0  0  0
    4.3887   -0.9919   -3.3392 N   0  0  0  0  0  0  0  0  0  0  0  0
    5.0644   -1.0852   -2.1182 C   0  0  0  0  0  0  0  0  0  0  0  0
    4.4450   -0.6976   -0.9915 C   0  0  0  0  0  0  0  0  0  0  0  0
    3.7205    0.7726    1.1900 H   0  0  0  0  0  0  0  0  0  0  0  0
    0.5952   -0.8930    2.1677 H   0  0  0  0  0  0  0  0  0  0  0  0
   -1.6155   -0.2755    2.1790 H   0  0  0  0  0  0  0  0  0  0  0  0
   -3.8273   -1.2660    2.5526 H   0  0  0  0  0  0  0  0  0  0  0  0
   -4.4494   -2.1358    4.7931 H   0  0  0  0  0  0  0  0  0  0  0  0
   -2.8159   -2.0248    6.6594 H   0  0  0  0  0  0  0  0  0  0  0  0
   -0.6002   -1.0110    6.3157 H   0  0  0  0  0  0  0  0  0  0  0  0
    2.4944    2.3560    5.3490 H   0  0  0  0  0  0  0  0  0  0  0  0
    3.6856    1.8900    3.2460 H   0  0  0  0  0  0  0  0  0  0  0  0
    1.4075    0.2356   -2.3488 H   0  0  0  0  0  0  0  0  0  0  0  0
    6.0737   -1.4876   -2.1203 H   0  0  0  0  0  0  0  0  0  0  0  0
    4.9362   -0.7823   -0.0264 H   0  0  0  0  0  0  0  0  0  0  0  0
  1  2  2  0  0  0  0
  2  3  1  0  0  0  0
  2 17  1  0  0  0  0
  3  4  1  0  0  0  0
  3 30  1  0  0  0  0
  4  5  2  0  0  0  0
  4 16  1  0  0  0  0
  5  6  1  0  0  0  0
  5 31  1  0  0  0  0
  6  7  1  0  0  0  0
  6 13  1  0  0  0  0
  7  8  2  0  0  0  0
  7 12  1  0  0  0  0
  8  9  1  0  0  0  0
  8 32  1  0  0  0  0
  9 10  2  0  0  0  0
  9 33  1  0  0  0  0
 10 11  1  0  0  0  0
 10 34  1  0  0  0  0
 11 12  2  0  0  0  0
 11 35  1  0  0  0  0
 12 36  1  0  0  0  0
 13 14  2  0  0  0  0
 13 15  1  0  0  0  0
 15 16  2  0  0  0  0
 15 37  1  0  0  0  0
 16 38  1  0  0  0  0
 17 18  2  0  0  0  0
 17 29  1  0  0  0  0
 18 19  1  0  0  0  0
 18 39  1  0  0  0  0
 19 20  2  0  0  0  0
 19 27  1  0  0  0  0
 20 21  1  0  0  0  0
 21 22  2  0  0  0  0
 22 23  1  0  0  0  0
 22 27  1  0  0  0  0
 23 24  1  0  0  0  0
 23 25  1  0  0  0  0
 23 26  1  0  0  0  0
 27 28  1  0  0  0  0
 28 29  2  0  0  0  0
 28 40  1  0  0  0  0
 29 41  1  0  0  0  0
M  END
$$$$
