
 OpenBabel01122422523D

 41 44  0  0  0  0  0  0  0  0999 V2000
    1.2816    0.0207   -1.1303 O   0  0  0  0  0  0  0  0  0  0  0  0
    2.2836    0.1762   -0.4443 C   0  0  0  0  0  0  0  0  0  0  0  0
    2.6045   -0.5091    0.7181 N   0  0  0  0  0  0  0  0  0  0  0  0
    1.9470   -1.5407    1.3458 C   0  0  0  0  0  0  0  0  0  0  0  0
    0.8108   -2.1232    0.9218 C   0  0  0  0  0  0  0  0  0  0  0  0
    0.2030   -3.1835    1.6048 N   0  0  0  0  0  0  0  0  0  0  0  0
   -1.0414   -3.7380    1.1503 C   0  0  0  0  0  0  0  0  0  0  0  0
   -2.0668   -2.8971    0.6952 C   0  0  0  0  0  0  0  0  0  0  0  0
   -3.3098   -3.4231    0.3335 C   0  0  0  0  0  0  0  0  0  0  0  0
   -3.5317   -4.7983    0.3871 C   0  0  0  0  0  0  0  0  0  0  0  0
   -2.5098   -5.6476    0.8011 C   0  0  0  0  0  0  0  0  0  0  0  0
   -1.2764   -5.1204    1.1895 C   0  0  0  0  0  0  0  0  0  0  0  0
    0.7561   -3.6848    2.7987 C   0  0  0  0  0  0  0  0  0  0  0  0
    0.2865   -4.5620    3.5222 O   0  0  0  0  0  0  0  0  0  0  0  0
    2.0138   -3.0382    3.2542 C   0  0  0  0  0  0  0  0  0  0  0  0
    2.5624   -2.0335    2.5617 C   0  0  0  0  0  0  0  0  0  0  0  0
    3.3396    1.1312   -0.8075 C   0  0  0  0  0  0  0  0  0  0  0  0
    3.4240    1.9312   -1.9234 C   0  0  0  0  0  0  0  0  0  0  0  0
    2.5540    2.2459   -3.0202 C   0  0  0  0  0  0  0  0  0  0  0  0
    3.0009    2.8517   -4.0870 N   0  0  0  0  0  0  0  0  0  0  0  0
    4.3463    3.1647   -4.1394 C   0  0  0  0  0  0  0  0  0  0  0  0
    5.1959    2.9894   -3.1133 C   0  0  0  0  0  0  0  0  0  0  0  0
    4.7149    2.4085   -1.9499 N   0  0  0  0  0  0  0  0  0  0  0  0
    5.2646    2.1497   -0.7128 C   0  0  0  0  0  0  0  0  0  0  0  0
    6.5267    2.7916   -0.2399 C   0  0  0  0  0  0  0  0  0  0  0  0
    7.0822    3.6391   -1.1450 F   0  0  0  0  0  0  0  0  0  0  0  0
    6.3157    3.5287    0.8831 F   0  0  0  0  0  0  0  0  0  0  0  0
    7.4799    1.8750    0.0641 F   0  0  0  0  0  0  0  0  0  0  0  0
    4.4840    1.3076   -0.0356 N   0  0  0  0  0  0  0  0  0  0  0  0
    3.4873   -0.1987    1.1238 H   0  0  0  0  0  0  0  0  0  0  0  0
    0.3296   -1.8276   -0.0062 H   0  0  0  0  0  0  0  0  0  0  0  0
   -1.9355   -1.8184    0.6814 H   0  0  0  0  0  0  0  0  0  0  0  0
   -4.1137   -2.7554    0.0361 H   0  0  0  0  0  0  0  0  0  0  0  0
   -4.5024   -5.2052    0.1158 H   0  0  0  0  0  0  0  0  0  0  0  0
   -2.6730   -6.7216    0.8359 H   0  0  0  0  0  0  0  0  0  0  0  0
   -0.4947   -5.8069    1.5063 H   0  0  0  0  0  0  0  0  0  0  0  0
    2.4416   -3.4158    4.1732 H   0  0  0  0  0  0  0  0  0  0  0  0
    3.4754   -1.5729    2.9222 H   0  0  0  0  0  0  0  0  0  0  0  0
    1.4813    2.0001   -2.9575 H   0  0  0  0  0  0  0  0  0  0  0  0
    4.6998    3.5800   -5.0807 H   0  0  0  0  0  0  0  0  0  0  0  0
    6.2451    3.2444   -3.1858 H   0  0  0  0  0  0  0  0  0  0  0  0
  1  2  2  0  0  0  0
  2  3  1  0  0  0  0
  2 17  1  0  0  0  0
  3  4  1  0  0  0  0
  3 30  1  0  0  0  0
  4  5  2  0  0  0  0
  4 16  1  0  0  0  0
  5  6  1  0  0  0  0
  5 31  1  0  0  0  0
  6  7  1  0  0  0  0
  6 13  1  0  0  0  0
  7  8  2  0  0  0  0
  7 12  1  0  0  0  0
  8  9  1  0  0  0  0
  8 32  1  0  0  0  0
  9 10  2  0  0  0  0
  9 33  1  0  0  0  0
 10 11  1  0  0  0  0
 10 34  1  0  0  0  0
 11 12  2  0  0  0  0
 11 35  1  0  0  0  0
 12 36  1  0  0  0  0
 13 14  2  0  0  0  0
 13 15  1  0  0  0  0
 15 16  2  0  0  0  0
 15 37  1  0  0  0  0
 16 38  1  0  0  0  0
 17 18  2  0  0  0  0
 17 29  1  0  0  0  0
 18 19  1  0  0  0  0
 18 23  1  0  0  0  0
 19 20  2  0  0  0  0
 19 39  1  0  0  0  0
 20 21  1  0  0  0  0
 21 22  2  0  0  0  0
 21 40  1  0  0  0  0
 22 23  1  0  0  0  0
 22 41  1  0  0  0  0
 23 24  1  0  0  0  0
 24 25  1  0  0  0  0
 24 29  2  0  0  0  0
 25 26  1  0  0  0  0
 25 27  1  0  0  0  0
 25 28  1  0  0  0  0
M  END
$$$$
