
 OpenBabel01122422523D

 52 55  0  0  1  0  0  0  0  0999 V2000
    2.5760    1.2764    0.1101 C   0  0  0  0  0  0  0  0  0  0  0  0
    1.3188    0.4646    0.0294 C   0  0  0  0  0  0  0  0  0  0  0  0
    0.7826    0.0820   -1.1969 C   0  0  0  0  0  0  0  0  0  0  0  0
   -0.4208   -0.6236   -1.2475 C   0  0  0  0  0  0  0  0  0  0  0  0
   -1.1179   -0.9799   -0.0726 C   0  0  0  0  0  0  0  0  0  0  0  0
   -2.4552   -1.7227   -0.1626 C   0  0  1  0  0  0  0  0  0  0  0  0
   -3.1850   -1.4067   -1.3842 N   0  0  0  0  0  0  0  0  0  0  0  0
   -4.0361   -0.3226   -1.4838 C   0  0  0  0  0  0  0  0  0  0  0  0
   -4.1969    0.5071   -0.5996 O   0  0  0  0  0  0  0  0  0  0  0  0
   -4.8406   -0.2205   -2.7443 C   0  0  0  0  0  0  0  0  0  0  0  0
   -5.0506   -1.3475   -3.5521 C   0  0  0  0  0  0  0  0  0  0  0  0
   -5.9437   -1.2951   -4.6169 C   0  0  0  0  0  0  0  0  0  0  0  0
   -6.6534   -0.1225   -4.8696 C   0  0  0  0  0  0  0  0  0  0  0  0
   -6.4563    1.0168   -4.0765 C   0  0  0  0  0  0  0  0  0  0  0  0
   -7.3374    2.1750   -4.3432 C   0  0  0  0  0  0  0  0  0  0  0  0
   -8.3710    2.1371   -5.1392 N   0  0  0  0  0  0  0  0  0  0  0  0
   -8.9072    3.3921   -5.0547 N   0  0  0  0  0  0  0  0  0  0  0  0
   -8.1670    4.1791   -4.1884 C   0  0  0  0  0  0  0  0  0  0  0  0
   -8.3726    5.3382   -3.8745 O   0  0  0  0  0  0  0  0  0  0  0  0
   -7.1515    3.3793   -3.7442 N   0  0  0  0  0  0  0  0  0  0  0  0
   -5.5260    0.9781   -3.0279 C   0  0  0  0  0  0  0  0  0  0  0  0
   -2.3470   -3.2439   -0.0138 C   0  0  0  0  0  0  0  0  0  0  0  0
   -3.4250   -3.9571    0.5425 C   0  0  0  0  0  0  0  0  0  0  0  0
   -3.3365   -5.3382    0.7675 C   0  0  0  0  0  0  0  0  0  0  0  0
   -2.1780   -6.0280    0.4236 C   0  0  0  0  0  0  0  0  0  0  0  0
   -1.1195   -5.3476   -0.1705 C   0  0  0  0  0  0  0  0  0  0  0  0
   -1.2060   -3.9704   -0.3970 C   0  0  0  0  0  0  0  0  0  0  0  0
   -0.5339   -0.6561    1.1730 C   0  0  0  0  0  0  0  0  0  0  0  0
   -1.1388   -1.0401    2.4975 C   0  0  0  0  0  0  0  0  0  0  0  0
    0.6529    0.0987    1.2027 C   0  0  0  0  0  0  0  0  0  0  0  0
    3.0634    1.3611   -0.8668 H   0  0  0  0  0  0  0  0  0  0  0  0
    3.2869    0.8046    0.7963 H   0  0  0  0  0  0  0  0  0  0  0  0
    2.3473    2.2853    0.4675 H   0  0  0  0  0  0  0  0  0  0  0  0
    1.2861    0.3392   -2.1260 H   0  0  0  0  0  0  0  0  0  0  0  0
   -0.8119   -0.8914   -2.2255 H   0  0  0  0  0  0  0  0  0  0  0  0
   -3.0767   -1.3520    0.6632 H   0  0  0  0  0  0  0  0  0  0  0  0
   -2.9216   -1.9279   -2.2038 H   0  0  0  0  0  0  0  0  0  0  0  0
   -4.5816   -2.3019   -3.3357 H   0  0  0  0  0  0  0  0  0  0  0  0
   -6.1316   -2.1797   -5.2179 H   0  0  0  0  0  0  0  0  0  0  0  0
   -7.3927   -0.1188   -5.6674 H   0  0  0  0  0  0  0  0  0  0  0  0
   -9.7460    3.6684   -5.5437 H   0  0  0  0  0  0  0  0  0  0  0  0
   -6.4546    3.6826   -3.0955 H   0  0  0  0  0  0  0  0  0  0  0  0
   -5.3689    1.8385   -2.3837 H   0  0  0  0  0  0  0  0  0  0  0  0
   -4.3383   -3.4387    0.8252 H   0  0  0  0  0  0  0  0  0  0  0  0
   -4.1680   -5.8686    1.2257 H   0  0  0  0  0  0  0  0  0  0  0  0
   -2.0989   -7.0938    0.6204 H   0  0  0  0  0  0  0  0  0  0  0  0
   -0.2148   -5.8847   -0.4436 H   0  0  0  0  0  0  0  0  0  0  0  0
   -0.3502   -3.4698   -0.8462 H   0  0  0  0  0  0  0  0  0  0  0  0
   -1.7125   -1.9680    2.4402 H   0  0  0  0  0  0  0  0  0  0  0  0
   -1.7844   -0.2384    2.8673 H   0  0  0  0  0  0  0  0  0  0  0  0
   -0.3476   -1.2228    3.2348 H   0  0  0  0  0  0  0  0  0  0  0  0
    1.0671    0.4037    2.1635 H   0  0  0  0  0  0  0  0  0  0  0  0
  1  2  1  0  0  0  0
  1 31  1  0  0  0  0
  1 32  1  0  0  0  0
  1 33  1  0  0  0  0
  2  3  2  0  0  0  0
  2 30  1  0  0  0  0
  3  4  1  0  0  0  0
  3 34  1  0  0  0  0
  4  5  2  0  0  0  0
  4 35  1  0  0  0  0
  5  6  1  0  0  0  0
  5 28  1  0  0  0  0
  6  7  1  0  0  0  0
  6 22  1  0  0  0  0
  6 36  1  1  0  0  0
  7  8  1  0  0  0  0
  7 37  1  0  0  0  0
  8  9  2  0  0  0  0
  8 10  1  0  0  0  0
 10 11  2  0  0  0  0
 10 21  1  0  0  0  0
 11 12  1  0  0  0  0
 11 38  1  0  0  0  0
 12 13  2  0  0  0  0
 12 39  1  0  0  0  0
 13 14  1  0  0  0  0
 13 40  1  0  0  0  0
 14 15  1  0  0  0  0
 14 21  2  0  0  0  0
 15 16  2  0  0  0  0
 15 20  1  0  0  0  0
 16 17  1  0  0  0  0
 17 18  1  0  0  0  0
 17 41  1  0  0  0  0
 18 19  2  0  0  0  0
 18 20  1  0  0  0  0
 20 42  1  0  0  0  0
 21 43  1  0  0  0  0
 22 23  2  0  0  0  0
 22 27  1  0  0  0  0
 23 24  1  0  0  0  0
 23 44  1  0  0  0  0
 24 25  2  0  0  0  0
 24 45  1  0  0  0  0
 25 26  1  0  0  0  0
 25 46  1  0  0  0  0
 26 27  2  0  0  0  0
 26 47  1  0  0  0  0
 27 48  1  0  0  0  0
 28 29  1  0  0  0  0
 28 30  2  0  0  0  0
 29 49  1  0  0  0  0
 29 50  1  0  0  0  0
 29 51  1  0  0  0  0
 30 52  1  0  0  0  0
M  END
$$$$
