
 OpenBabel01122422463D

 45 47  0  0  1  0  0  0  0  0999 V2000
    1.3060   -0.8571   -2.1242 C   0  0  0  0  0  0  0  0  0  0  0  0
    2.6823   -0.8511   -1.7427 O   0  0  0  0  0  0  0  0  0  0  0  0
    3.2433    0.3933   -1.6869 C   0  0  0  0  0  0  0  0  0  0  0  0
    2.6518    1.4272   -1.9850 O   0  0  0  0  0  0  0  0  0  0  0  0
    4.7141    0.3517   -1.2053 C   0  0  3  0  0  0  0  0  0  0  0  0
    5.1945   -0.9980   -0.9148 N   0  0  0  0  0  0  0  0  0  0  0  0
    4.9883   -1.5834    0.3093 C   0  0  0  0  0  0  0  0  0  0  0  0
    4.5481   -0.9847    1.2804 O   0  0  0  0  0  0  0  0  0  0  0  0
    5.3581   -3.0160    0.4207 C   0  0  0  0  0  0  0  0  0  0  0  0
    5.8190   -3.4770    1.6546 C   0  0  0  0  0  0  0  0  0  0  0  0
    6.1756   -4.8172    1.7961 C   0  0  0  0  0  0  0  0  0  0  0  0
    6.6864   -5.3477    3.0772 C   0  0  0  0  0  0  0  0  0  0  0  0
    6.2541   -4.8180    4.3091 C   0  0  0  0  0  0  0  0  0  0  0  0
    6.8108   -5.2328    5.5209 C   0  0  0  0  0  0  0  0  0  0  0  0
    7.7993   -6.2101    5.5305 C   0  0  0  0  0  0  0  0  0  0  0  0
    8.2097   -6.7898    4.3329 C   0  0  0  0  0  0  0  0  0  0  0  0
    7.6546   -6.3664    3.1188 C   0  0  0  0  0  0  0  0  0  0  0  0
    6.0982   -5.6841    0.7538 N   0  0  0  0  0  0  0  0  0  0  0  0
    5.6335   -5.1961   -0.4080 C   0  0  0  0  0  0  0  0  0  0  0  0
    5.5570   -6.1119   -1.4064 O   0  0  0  0  0  0  0  0  0  0  0  0
    5.2461   -3.8984   -0.6435 C   0  0  0  0  0  0  0  0  0  0  0  0
    5.6193    1.0586   -2.1991 C   0  0  0  0  0  0  0  0  0  0  0  0
    5.8944    2.4296   -2.0488 C   0  0  0  0  0  0  0  0  0  0  0  0
    6.6798    3.1110   -2.9847 C   0  0  0  0  0  0  0  0  0  0  0  0
    7.1999    2.4343   -4.0869 C   0  0  0  0  0  0  0  0  0  0  0  0
    6.9304    1.0806   -4.2450 C   0  0  0  0  0  0  0  0  0  0  0  0
    7.4284    0.4313   -5.3067 F   0  0  0  0  0  0  0  0  0  0  0  0
    6.1455    0.4013   -3.3175 C   0  0  0  0  0  0  0  0  0  0  0  0
    5.8983   -0.9059   -3.5007 F   0  0  0  0  0  0  0  0  0  0  0  0
    0.9771   -1.8980   -2.1878 H   0  0  0  0  0  0  0  0  0  0  0  0
    1.1716   -0.3920   -3.1059 H   0  0  0  0  0  0  0  0  0  0  0  0
    0.7000   -0.3483   -1.3676 H   0  0  0  0  0  0  0  0  0  0  0  0
    4.7288    0.9028   -0.2560 H   0  0  0  0  0  0  0  0  0  0  0  0
    5.4854   -1.5571   -1.7064 H   0  0  0  0  0  0  0  0  0  0  0  0
    5.9193   -2.7802    2.4813 H   0  0  0  0  0  0  0  0  0  0  0  0
    5.4716   -4.0621    4.3418 H   0  0  0  0  0  0  0  0  0  0  0  0
    6.4742   -4.7838    6.4517 H   0  0  0  0  0  0  0  0  0  0  0  0
    8.2460   -6.5211    6.4710 H   0  0  0  0  0  0  0  0  0  0  0  0
    8.9731   -7.5636    4.3394 H   0  0  0  0  0  0  0  0  0  0  0  0
    8.0040   -6.8238    2.1948 H   0  0  0  0  0  0  0  0  0  0  0  0
    5.8727   -6.9048   -0.9404 H   0  0  0  0  0  0  0  0  0  0  0  0
    4.8589   -3.6147   -1.6126 H   0  0  0  0  0  0  0  0  0  0  0  0
    5.4812    2.9832   -1.2057 H   0  0  0  0  0  0  0  0  0  0  0  0
    6.8757    4.1735   -2.8570 H   0  0  0  0  0  0  0  0  0  0  0  0
    7.8047    2.9537   -4.8239 H   0  0  0  0  0  0  0  0  0  0  0  0
  1  2  1  0  0  0  0
  1 30  1  0  0  0  0
  1 31  1  0  0  0  0
  1 32  1  0  0  0  0
  2  3  1  0  0  0  0
  3  4  2  0  0  0  0
  3  5  1  0  0  0  0
  5  6  1  0  0  0  0
  5 22  1  0  0  0  0
  5 33  1  0  0  0  0
  6  7  1  0  0  0  0
  6 34  1  0  0  0  0
  7  8  2  0  0  0  0
  7  9  1  0  0  0  0
  9 10  2  0  0  0  0
  9 21  1  0  0  0  0
 10 11  1  0  0  0  0
 10 35  1  0  0  0  0
 11 12  1  0  0  0  0
 11 18  2  0  0  0  0
 12 13  2  0  0  0  0
 12 17  1  0  0  0  0
 13 14  1  0  0  0  0
 13 36  1  0  0  0  0
 14 15  2  0  0  0  0
 14 37  1  0  0  0  0
 15 16  1  0  0  0  0
 15 38  1  0  0  0  0
 16 17  2  0  0  0  0
 16 39  1  0  0  0  0
 17 40  1  0  0  0  0
 18 19  1  0  0  0  0
 19 20  1  0  0  0  0
 19 21  2  0  0  0  0
 20 41  1  0  0  0  0
 21 42  1  0  0  0  0
 22 23  2  0  0  0  0
 22 28  1  0  0  0  0
 23 24  1  0  0  0  0
 23 43  1  0  0  0  0
 24 25  2  0  0  0  0
 24 44  1  0  0  0  0
 25 26  1  0  0  0  0
 25 45  1  0  0  0  0
 26 27  1  0  0  0  0
 26 28  2  0  0  0  0
 28 29  1  0  0  0  0
M  END
$$$$
