
 OpenBabel01122422523D

 43 46  0  0  0  0  0  0  0  0999 V2000
    1.1109    0.2526    0.1729 O   0  0  0  0  0  0  0  0  0  0  0  0
    2.3311    0.2261    0.0691 C   0  0  0  0  0  0  0  0  0  0  0  0
    3.0277    0.8613   -0.9261 N   0  0  0  0  0  0  0  0  0  0  0  0
    2.3469    1.7355   -1.8501 C   0  0  0  0  0  0  0  0  0  0  0  0
    3.2863    2.4557   -2.7965 C   0  0  0  0  0  0  0  0  0  0  0  0
    4.6210    2.2353   -2.5477 N   0  0  0  0  0  0  0  0  0  0  0  0
    5.5225    2.8192   -3.3583 C   0  0  0  0  0  0  0  0  0  0  0  0
    5.1725    3.6279   -4.4163 C   0  0  0  0  0  0  0  0  0  0  0  0
    3.8171    3.8593   -4.6499 C   0  0  0  0  0  0  0  0  0  0  0  0
    2.8135    3.2776   -3.8467 C   0  0  0  0  0  0  0  0  0  0  0  0
    1.3731    3.5160   -4.1711 C   0  0  0  0  0  0  0  0  0  0  0  0
    0.9369    3.6122   -5.5109 C   0  0  0  0  0  0  0  0  0  0  0  0
   -0.4150    3.7840   -5.8386 C   0  0  0  0  0  0  0  0  0  0  0  0
   -1.3651    3.8253   -4.8315 C   0  0  0  0  0  0  0  0  0  0  0  0
   -2.6619    3.9434   -5.1417 F   0  0  0  0  0  0  0  0  0  0  0  0
   -0.9812    3.7593   -3.5051 C   0  0  0  0  0  0  0  0  0  0  0  0
    0.3767    3.6540   -3.1848 C   0  0  0  0  0  0  0  0  0  0  0  0
    3.1458   -0.5353    1.0389 C   0  0  0  0  0  0  0  0  0  0  0  0
    4.3971   -0.0724    1.4535 C   0  0  0  0  0  0  0  0  0  0  0  0
    5.1718   -0.8162    2.3274 C   0  0  0  0  0  0  0  0  0  0  0  0
    6.3794   -0.3475    2.6897 N   0  0  0  0  0  0  0  0  0  0  0  0
    7.0938   -1.1347    3.5251 C   0  0  0  0  0  0  0  0  0  0  0  0
    6.6181   -2.3483    3.9844 C   0  0  0  0  0  0  0  0  0  0  0  0
    7.3365   -3.1513    4.8176 O   0  0  0  0  0  0  0  0  0  0  0  0
    5.4127   -2.8261    3.6396 N   0  0  0  0  0  0  0  0  0  0  0  0
    4.6819   -2.0586    2.8112 C   0  0  0  0  0  0  0  0  0  0  0  0
    3.4214   -2.4869    2.4186 C   0  0  0  0  0  0  0  0  0  0  0  0
    2.6426   -1.7288    1.5414 C   0  0  0  0  0  0  0  0  0  0  0  0
    4.0362    0.8158   -1.0240 H   0  0  0  0  0  0  0  0  0  0  0  0
    1.8406    2.4631   -1.2140 H   0  0  0  0  0  0  0  0  0  0  0  0
    1.6173    1.1357   -2.4034 H   0  0  0  0  0  0  0  0  0  0  0  0
    6.5638    2.6128   -3.1274 H   0  0  0  0  0  0  0  0  0  0  0  0
    5.9333    4.0726   -5.0486 H   0  0  0  0  0  0  0  0  0  0  0  0
    3.5542    4.5113   -5.4805 H   0  0  0  0  0  0  0  0  0  0  0  0
    1.6463    3.5449   -6.3335 H   0  0  0  0  0  0  0  0  0  0  0  0
   -0.7292    3.8705   -6.8737 H   0  0  0  0  0  0  0  0  0  0  0  0
   -1.7310    3.7960   -2.7204 H   0  0  0  0  0  0  0  0  0  0  0  0
    0.6209    3.6930   -2.1296 H   0  0  0  0  0  0  0  0  0  0  0  0
    4.7791    0.8842    1.1059 H   0  0  0  0  0  0  0  0  0  0  0  0
    8.0637   -0.7466    3.8093 H   0  0  0  0  0  0  0  0  0  0  0  0
    8.1758   -2.7136    5.0202 H   0  0  0  0  0  0  0  0  0  0  0  0
    3.0410   -3.4334    2.7941 H   0  0  0  0  0  0  0  0  0  0  0  0
    1.6522   -2.0795    1.2489 H   0  0  0  0  0  0  0  0  0  0  0  0
  1  2  2  0  0  0  0
  2  3  1  0  0  0  0
  2 18  1  0  0  0  0
  3  4  1  0  0  0  0
  3 29  1  0  0  0  0
  4  5  1  0  0  0  0
  4 30  1  0  0  0  0
  4 31  1  0  0  0  0
  5  6  2  0  0  0  0
  5 10  1  0  0  0  0
  6  7  1  0  0  0  0
  7  8  2  0  0  0  0
  7 32  1  0  0  0  0
  8  9  1  0  0  0  0
  8 33  1  0  0  0  0
  9 10  2  0  0  0  0
  9 34  1  0  0  0  0
 10 11  1  0  0  0  0
 11 12  2  0  0  0  0
 11 17  1  0  0  0  0
 12 13  1  0  0  0  0
 12 35  1  0  0  0  0
 13 14  2  0  0  0  0
 13 36  1  0  0  0  0
 14 15  1  0  0  0  0
 14 16  1  0  0  0  0
 16 17  2  0  0  0  0
 16 37  1  0  0  0  0
 17 38  1  0  0  0  0
 18 19  2  0  0  0  0
 18 28  1  0  0  0  0
 19 20  1  0  0  0  0
 19 39  1  0  0  0  0
 20 21  2  0  0  0  0
 20 26  1  0  0  0  0
 21 22  1  0  0  0  0
 22 23  2  0  0  0  0
 22 40  1  0  0  0  0
 23 24  1  0  0  0  0
 23 25  1  0  0  0  0
 24 41  1  0  0  0  0
 25 26  2  0  0  0  0
 26 27  1  0  0  0  0
 27 28  2  0  0  0  0
 27 42  1  0  0  0  0
 28 43  1  0  0  0  0
M  END
$$$$
