
 OpenBabel01122422523D

 54 57  0  0  0  0  0  0  0  0999 V2000
   -0.7648    0.3586   -1.0696 N   0  0  0  0  0  0  0  0  0  0  0  0
   -0.0424    0.7786   -2.1851 C   0  0  0  0  0  0  0  0  0  0  0  0
   -0.2800    0.0757   -3.3003 N   0  0  0  0  0  0  0  0  0  0  0  0
    0.3807    0.4506   -4.4048 C   0  0  0  0  0  0  0  0  0  0  0  0
    1.2618    1.4518   -4.4781 N   0  0  0  0  0  0  0  0  0  0  0  0
    1.4579    2.1358   -3.3364 C   0  0  0  0  0  0  0  0  0  0  0  0
    0.8389    1.8448   -2.1324 C   0  0  0  0  0  0  0  0  0  0  0  0
    1.0820    2.6931   -0.9209 C   0  0  0  0  0  0  0  0  0  0  0  0
    2.4770    2.6466   -0.5174 N   0  0  0  0  0  0  0  0  0  0  0  0
    3.1099    3.7016    0.1162 C   0  0  0  0  0  0  0  0  0  0  0  0
    2.5173    4.6943    0.5232 O   0  0  0  0  0  0  0  0  0  0  0  0
    4.5957    3.5739    0.2771 C   0  0  0  0  0  0  0  0  0  0  0  0
    5.2938    2.7555   -0.6397 C   0  0  0  0  0  0  0  0  0  0  0  0
    6.6797    2.6325   -0.5900 C   0  0  0  0  0  0  0  0  0  0  0  0
    7.3885    3.3276    0.3731 C   0  0  0  0  0  0  0  0  0  0  0  0
    6.7137    4.1442    1.2816 C   0  0  0  0  0  0  0  0  0  0  0  0
    5.3167    4.3076    1.2485 C   0  0  0  0  0  0  0  0  0  0  0  0
    4.6524    5.1729    2.1771 N   0  0  0  0  0  0  0  0  0  0  0  0
    5.2831    6.0707    3.0323 C   0  0  0  0  0  0  0  0  0  0  0  0
    6.4892    6.3093    3.0261 O   0  0  0  0  0  0  0  0  0  0  0  0
    4.4663    6.8327    4.0255 C   0  0  0  0  0  0  0  0  0  0  0  0
    3.0967    6.6603    4.2391 C   0  0  0  0  0  0  0  0  0  0  0  0
    2.4348    7.4402    5.2043 C   0  0  0  0  0  0  0  0  0  0  0  0
    3.1444    8.3488    5.9972 C   0  0  0  0  0  0  0  0  0  0  0  0
    2.5938    9.1781    6.9427 O   0  0  0  0  0  0  0  0  0  0  0  0
    1.5493    8.7600    7.7294 C   0  0  0  0  0  0  0  0  0  0  0  0
    1.3074    7.4373    8.1057 C   0  0  0  0  0  0  0  0  0  0  0  0
    0.1998    7.1290    8.8968 C   0  0  0  0  0  0  0  0  0  0  0  0
   -0.6344    8.1460    9.3600 C   0  0  0  0  0  0  0  0  0  0  0  0
   -0.3568    9.4742    9.0421 C   0  0  0  0  0  0  0  0  0  0  0  0
    0.7339    9.7794    8.2283 C   0  0  0  0  0  0  0  0  0  0  0  0
    4.5068    8.5269    5.7845 C   0  0  0  0  0  0  0  0  0  0  0  0
    5.1587    7.7757    4.8095 C   0  0  0  0  0  0  0  0  0  0  0  0
   -1.3259   -0.4373   -1.3715 H   0  0  0  0  0  0  0  0  0  0  0  0
   -0.1610    0.0985   -0.2987 H   0  0  0  0  0  0  0  0  0  0  0  0
    0.1816   -0.1101   -5.3111 H   0  0  0  0  0  0  0  0  0  0  0  0
    2.1607    2.9634   -3.4247 H   0  0  0  0  0  0  0  0  0  0  0  0
    0.4929    2.3687   -0.0607 H   0  0  0  0  0  0  0  0  0  0  0  0
    0.7978    3.7294   -1.1372 H   0  0  0  0  0  0  0  0  0  0  0  0
    2.9245    1.7391   -0.4988 H   0  0  0  0  0  0  0  0  0  0  0  0
    4.7753    2.2278   -1.4363 H   0  0  0  0  0  0  0  0  0  0  0  0
    7.2049    2.0087   -1.3086 H   0  0  0  0  0  0  0  0  0  0  0  0
    8.4729    3.2584    0.4197 H   0  0  0  0  0  0  0  0  0  0  0  0
    7.3357    4.6464    2.0145 H   0  0  0  0  0  0  0  0  0  0  0  0
    3.6392    5.2064    2.0785 H   0  0  0  0  0  0  0  0  0  0  0  0
    2.5139    5.9366    3.6794 H   0  0  0  0  0  0  0  0  0  0  0  0
    1.3609    7.3261    5.3261 H   0  0  0  0  0  0  0  0  0  0  0  0
    1.9667    6.6345    7.7898 H   0  0  0  0  0  0  0  0  0  0  0  0
   -0.0079    6.0943    9.1562 H   0  0  0  0  0  0  0  0  0  0  0  0
   -1.4937    7.9039    9.9797 H   0  0  0  0  0  0  0  0  0  0  0  0
   -0.9883   10.2714    9.4250 H   0  0  0  0  0  0  0  0  0  0  0  0
    0.9514   10.8159    7.9820 H   0  0  0  0  0  0  0  0  0  0  0  0
    5.0650    9.2527    6.3730 H   0  0  0  0  0  0  0  0  0  0  0  0
    6.2266    7.9340    4.6663 H   0  0  0  0  0  0  0  0  0  0  0  0
  1  2  1  0  0  0  0
  1 34  1  0  0  0  0
  1 35  1  0  0  0  0
  2  3  2  0  0  0  0
  2  7  1  0  0  0  0
  3  4  1  0  0  0  0
  4  5  2  0  0  0  0
  4 36  1  0  0  0  0
  5  6  1  0  0  0  0
  6  7  2  0  0  0  0
  6 37  1  0  0  0  0
  7  8  1  0  0  0  0
  8  9  1  0  0  0  0
  8 38  1  0  0  0  0
  8 39  1  0  0  0  0
  9 10  1  0  0  0  0
  9 40  1  0  0  0  0
 10 11  2  0  0  0  0
 10 12  1  0  0  0  0
 12 13  2  0  0  0  0
 12 17  1  0  0  0  0
 13 14  1  0  0  0  0
 13 41  1  0  0  0  0
 14 15  2  0  0  0  0
 14 42  1  0  0  0  0
 15 16  1  0  0  0  0
 15 43  1  0  0  0  0
 16 17  2  0  0  0  0
 16 44  1  0  0  0  0
 17 18  1  0  0  0  0
 18 19  1  0  0  0  0
 18 45  1  0  0  0  0
 19 20  2  0  0  0  0
 19 21  1  0  0  0  0
 21 22  2  0  0  0  0
 21 33  1  0  0  0  0
 22 23  1  0  0  0  0
 22 46  1  0  0  0  0
 23 24  2  0  0  0  0
 23 47  1  0  0  0  0
 24 25  1  0  0  0  0
 24 32  1  0  0  0  0
 25 26  1  0  0  0  0
 26 27  2  0  0  0  0
 26 31  1  0  0  0  0
 27 28  1  0  0  0  0
 27 48  1  0  0  0  0
 28 29  2  0  0  0  0
 28 49  1  0  0  0  0
 29 30  1  0  0  0  0
 29 50  1  0  0  0  0
 30 31  2  0  0  0  0
 30 51  1  0  0  0  0
 31 52  1  0  0  0  0
 32 33  2  0  0  0  0
 32 53  1  0  0  0  0
 33 54  1  0  0  0  0
M  END
$$$$
