
 OpenBabel01122422523D

 46 49  0  0  1  0  0  0  0  0999 V2000
    2.9616   -0.4106    1.1039 O   0  0  0  0  0  0  0  0  0  0  0  0
    2.4452    0.0335    0.0922 C   0  0  0  0  0  0  0  0  0  0  0  0
    3.0697    0.3256   -1.0716 O   0  0  0  0  0  0  0  0  0  0  0  0
    4.5002    0.1196   -1.1351 C   0  0  3  0  0  0  0  0  0  0  0  0
    4.8253   -0.8088   -2.3036 C   0  0  0  0  0  0  0  0  0  0  0  0
    4.0122   -0.8817   -3.4472 C   0  0  0  0  0  0  0  0  0  0  0  0
    4.3642   -1.7115   -4.5076 C   0  0  0  0  0  0  0  0  0  0  0  0
    3.5816   -1.7545   -5.5943 F   0  0  0  0  0  0  0  0  0  0  0  0
    5.5158   -2.4849   -4.4638 C   0  0  0  0  0  0  0  0  0  0  0  0
    6.3340   -2.4279   -3.3374 C   0  0  0  0  0  0  0  0  0  0  0  0
    5.9934   -1.5924   -2.2671 C   0  0  0  0  0  0  0  0  0  0  0  0
    5.1810    1.4814   -1.2567 C   0  0  0  0  0  0  0  0  0  0  0  0
    4.8661    2.3573   -2.2995 C   0  0  0  0  0  0  0  0  0  0  0  0
    5.4915    3.6006   -2.3579 C   0  0  0  0  0  0  0  0  0  0  0  0
    6.4128    3.9456   -1.3790 C   0  0  0  0  0  0  0  0  0  0  0  0
    6.6769    3.0253   -0.3801 C   0  0  0  0  0  0  0  0  0  0  0  0
    6.0864    1.8111   -0.2976 N   0  0  0  0  0  0  0  0  0  0  0  0
    0.9938    0.3034   -0.0100 C   0  0  0  0  0  0  0  0  0  0  0  0
    0.4227    0.7825   -1.1168 C   0  0  0  0  0  0  0  0  0  0  0  0
   -1.0307    1.0256   -1.2072 C   0  0  0  0  0  0  0  0  0  0  0  0
   -1.4247    1.5145   -2.2638 O   0  0  0  0  0  0  0  0  0  0  0  0
   -1.7860    0.6975   -0.0759 N   0  0  0  0  0  0  0  0  0  0  0  0
   -3.2160    0.8499   -0.0213 C   0  0  0  0  0  0  0  0  0  0  0  0
   -3.9973    0.9571   -1.1831 C   0  0  0  0  0  0  0  0  0  0  0  0
   -5.3780    1.1750   -1.1215 C   0  0  0  0  0  0  0  0  0  0  0  0
   -6.0116    1.2844    0.1102 C   0  0  0  0  0  0  0  0  0  0  0  0
   -5.2678    1.1406    1.2777 C   0  0  0  0  0  0  0  0  0  0  0  0
   -3.8870    0.9107    1.2125 C   0  0  0  0  0  0  0  0  0  0  0  0
   -1.2062    0.2524    1.1042 N   0  0  0  0  0  0  0  0  0  0  0  0
    0.0763    0.0706    1.1134 C   0  0  0  0  0  0  0  0  0  0  0  0
    4.8579   -0.3664   -0.2184 H   0  0  0  0  0  0  0  0  0  0  0  0
    3.1044   -0.2924   -3.5361 H   0  0  0  0  0  0  0  0  0  0  0  0
    5.7702   -3.1215   -5.3049 H   0  0  0  0  0  0  0  0  0  0  0  0
    7.2386   -3.0278   -3.2925 H   0  0  0  0  0  0  0  0  0  0  0  0
    6.6532   -1.5526   -1.4007 H   0  0  0  0  0  0  0  0  0  0  0  0
    4.1431    2.0848   -3.0612 H   0  0  0  0  0  0  0  0  0  0  0  0
    5.2587    4.2941   -3.1615 H   0  0  0  0  0  0  0  0  0  0  0  0
    6.9127    4.9076   -1.3935 H   0  0  0  0  0  0  0  0  0  0  0  0
    7.3918    3.2471    0.4072 H   0  0  0  0  0  0  0  0  0  0  0  0
    0.9741    1.0249   -2.0159 H   0  0  0  0  0  0  0  0  0  0  0  0
   -3.5615    0.8531   -2.1721 H   0  0  0  0  0  0  0  0  0  0  0  0
   -5.9499    1.2637   -2.0416 H   0  0  0  0  0  0  0  0  0  0  0  0
   -7.0794    1.4764    0.1579 H   0  0  0  0  0  0  0  0  0  0  0  0
   -5.7591    1.2202    2.2442 H   0  0  0  0  0  0  0  0  0  0  0  0
   -3.3379    0.8188    2.1464 H   0  0  0  0  0  0  0  0  0  0  0  0
    0.5408   -0.2907    2.0470 H   0  0  0  0  0  0  0  0  0  0  0  0
  1  2  2  0  0  0  0
  2  3  1  0  0  0  0
  2 18  1  0  0  0  0
  3  4  1  0  0  0  0
  4  5  1  0  0  0  0
  4 12  1  0  0  0  0
  4 31  1  0  0  0  0
  5  6  2  0  0  0  0
  5 11  1  0  0  0  0
  6  7  1  0  0  0  0
  6 32  1  0  0  0  0
  7  8  1  0  0  0  0
  7  9  2  0  0  0  0
  9 10  1  0  0  0  0
  9 33  1  0  0  0  0
 10 11  2  0  0  0  0
 10 34  1  0  0  0  0
 11 35  1  0  0  0  0
 12 13  2  0  0  0  0
 12 17  1  0  0  0  0
 13 14  1  0  0  0  0
 13 36  1  0  0  0  0
 14 15  2  0  0  0  0
 14 37  1  0  0  0  0
 15 16  1  0  0  0  0
 15 38  1  0  0  0  0
 16 17  2  0  0  0  0
 16 39  1  0  0  0  0
 18 19  2  0  0  0  0
 18 30  1  0  0  0  0
 19 20  1  0  0  0  0
 19 40  1  0  0  0  0
 20 21  2  0  0  0  0
 20 22  1  0  0  0  0
 22 23  1  0  0  0  0
 22 29  1  0  0  0  0
 23 24  2  0  0  0  0
 23 28  1  0  0  0  0
 24 25  1  0  0  0  0
 24 41  1  0  0  0  0
 25 26  2  0  0  0  0
 25 42  1  0  0  0  0
 26 27  1  0  0  0  0
 26 43  1  0  0  0  0
 27 28  2  0  0  0  0
 27 44  1  0  0  0  0
 28 45  1  0  0  0  0
 29 30  2  0  0  0  0
 30 46  1  0  0  0  0
M  END
$$$$
