
 OpenBabel01122422523D

 53 56  0  0  0  0  0  0  0  0999 V2000
    2.2645    1.2326    4.2577 N   0  0  0  0  0  0  0  0  0  0  0  0
    2.0568   -0.0916    4.0194 C   0  0  0  0  0  0  0  0  0  0  0  0
    1.4294   -0.7640    4.8346 O   0  0  0  0  0  0  0  0  0  0  0  0
    2.5777   -0.6836    2.7453 C   0  0  0  0  0  0  0  0  0  0  0  0
    2.3043   -2.0571    2.5677 C   0  0  0  0  0  0  0  0  0  0  0  0
    2.6743   -2.7287    1.4041 C   0  0  0  0  0  0  0  0  0  0  0  0
    3.3363   -2.0412    0.4011 C   0  0  0  0  0  0  0  0  0  0  0  0
    3.6369   -0.6875    0.5670 C   0  0  0  0  0  0  0  0  0  0  0  0
    3.2575    0.0176    1.7258 C   0  0  0  0  0  0  0  0  0  0  0  0
    3.5628    1.3547    1.9007 O   0  0  0  0  0  0  0  0  0  0  0  0
    3.7469    2.0956    0.6871 C   0  0  0  0  0  0  0  0  0  0  0  0
    4.1440    3.5279    0.9455 C   0  0  0  0  0  0  0  0  0  0  0  0
    3.3199    4.5854    0.5348 C   0  0  0  0  0  0  0  0  0  0  0  0
    3.7542    5.9089    0.6378 C   0  0  0  0  0  0  0  0  0  0  0  0
    5.0121    6.1925    1.1671 C   0  0  0  0  0  0  0  0  0  0  0  0
    5.8328    5.1459    1.6005 C   0  0  0  0  0  0  0  0  0  0  0  0
    7.1854    5.4046    2.1434 C   0  0  0  0  0  0  0  0  0  0  0  0
    8.1002    4.6228    1.9092 O   0  0  0  0  0  0  0  0  0  0  0  0
    7.3094    6.5327    2.9189 N   0  0  0  0  0  0  0  0  0  0  0  0
    8.5304    6.8005    3.6351 C   0  0  0  0  0  0  0  0  0  0  0  0
    8.2874    6.8223    5.1044 C   0  0  0  0  0  0  0  0  0  0  0  0
    9.2088    7.0555    6.1121 C   0  0  0  0  0  0  0  0  0  0  0  0
   10.6351    7.3433    6.1728 C   0  0  0  0  0  0  0  0  0  0  0  0
   11.1756    8.0916    7.2271 C   0  0  0  0  0  0  0  0  0  0  0  0
   12.5318    8.4248    7.2458 C   0  0  0  0  0  0  0  0  0  0  0  0
   13.3721    8.0106    6.2138 C   0  0  0  0  0  0  0  0  0  0  0  0
   12.8562    7.2527    5.1696 C   0  0  0  0  0  0  0  0  0  0  0  0
   11.5019    6.9149    5.1552 C   0  0  0  0  0  0  0  0  0  0  0  0
    8.5299    7.0107    7.3032 O   0  0  0  0  0  0  0  0  0  0  0  0
    7.2434    6.7530    6.9469 C   0  0  0  0  0  0  0  0  0  0  0  0
    7.0264    6.6544    5.6557 N   0  0  0  0  0  0  0  0  0  0  0  0
    5.4069    3.8189    1.4791 C   0  0  0  0  0  0  0  0  0  0  0  0
    1.9044    1.6242    5.1166 H   0  0  0  0  0  0  0  0  0  0  0  0
    2.8110    1.8106    3.6300 H   0  0  0  0  0  0  0  0  0  0  0  0
    1.7849   -2.6149    3.3466 H   0  0  0  0  0  0  0  0  0  0  0  0
    2.4451   -3.7843    1.2849 H   0  0  0  0  0  0  0  0  0  0  0  0
    3.6293   -2.5501   -0.5132 H   0  0  0  0  0  0  0  0  0  0  0  0
    4.1870   -0.2247   -0.2447 H   0  0  0  0  0  0  0  0  0  0  0  0
    2.8171    2.0629    0.1065 H   0  0  0  0  0  0  0  0  0  0  0  0
    4.5627    1.6834    0.0841 H   0  0  0  0  0  0  0  0  0  0  0  0
    2.3452    4.3837    0.0951 H   0  0  0  0  0  0  0  0  0  0  0  0
    3.1199    6.7173    0.2821 H   0  0  0  0  0  0  0  0  0  0  0  0
    5.3550    7.2231    1.2052 H   0  0  0  0  0  0  0  0  0  0  0  0
    6.4753    6.9825    3.2749 H   0  0  0  0  0  0  0  0  0  0  0  0
    8.8942    7.7783    3.3052 H   0  0  0  0  0  0  0  0  0  0  0  0
    9.2774    6.0430    3.3889 H   0  0  0  0  0  0  0  0  0  0  0  0
   10.5372    8.4381    8.0379 H   0  0  0  0  0  0  0  0  0  0  0  0
   12.9340    9.0106    8.0718 H   0  0  0  0  0  0  0  0  0  0  0  0
   14.4241    8.2766    6.2253 H   0  0  0  0  0  0  0  0  0  0  0  0
   13.5046    6.9216    4.3611 H   0  0  0  0  0  0  0  0  0  0  0  0
   11.1519    6.2977    4.3344 H   0  0  0  0  0  0  0  0  0  0  0  0
    6.5287    6.6630    7.7532 H   0  0  0  0  0  0  0  0  0  0  0  0
    6.0770    3.0125    1.7758 H   0  0  0  0  0  0  0  0  0  0  0  0
  1  2  1  0  0  0  0
  1 33  1  0  0  0  0
  1 34  1  0  0  0  0
  2  3  2  0  0  0  0
  2  4  1  0  0  0  0
  4  5  2  0  0  0  0
  4  9  1  0  0  0  0
  5  6  1  0  0  0  0
  5 35  1  0  0  0  0
  6  7  2  0  0  0  0
  6 36  1  0  0  0  0
  7  8  1  0  0  0  0
  7 37  1  0  0  0  0
  8  9  2  0  0  0  0
  8 38  1  0  0  0  0
  9 10  1  0  0  0  0
 10 11  1  0  0  0  0
 11 12  1  0  0  0  0
 11 39  1  0  0  0  0
 11 40  1  0  0  0  0
 12 13  2  0  0  0  0
 12 32  1  0  0  0  0
 13 14  1  0  0  0  0
 13 41  1  0  0  0  0
 14 15  2  0  0  0  0
 14 42  1  0  0  0  0
 15 16  1  0  0  0  0
 15 43  1  0  0  0  0
 16 17  1  0  0  0  0
 16 32  2  0  0  0  0
 17 18  2  0  0  0  0
 17 19  1  0  0  0  0
 19 20  1  0  0  0  0
 19 44  1  0  0  0  0
 20 21  1  0  0  0  0
 20 45  1  0  0  0  0
 20 46  1  0  0  0  0
 21 22  2  0  0  0  0
 21 31  1  0  0  0  0
 22 23  1  0  0  0  0
 22 29  1  0  0  0  0
 23 24  2  0  0  0  0
 23 28  1  0  0  0  0
 24 25  1  0  0  0  0
 24 47  1  0  0  0  0
 25 26  2  0  0  0  0
 25 48  1  0  0  0  0
 26 27  1  0  0  0  0
 26 49  1  0  0  0  0
 27 28  2  0  0  0  0
 27 50  1  0  0  0  0
 28 51  1  0  0  0  0
 29 30  1  0  0  0  0
 30 31  2  0  0  0  0
 30 52  1  0  0  0  0
 32 53  1  0  0  0  0
M  END
$$$$
