
 OpenBabel01122422463D

 41 44  0  0  0  0  0  0  0  0999 V2000
    1.0422   -0.3472   -0.6157 O   0  0  0  0  0  0  0  0  0  0  0  0
    2.2556   -0.2256   -0.5229 C   0  0  0  0  0  0  0  0  0  0  0  0
    2.9756    0.9188   -0.8301 N   0  0  0  0  0  0  0  0  0  0  0  0
    2.3548    2.0545   -1.3251 C   0  0  0  0  0  0  0  0  0  0  0  0
    2.8053    2.7634   -2.4198 C   0  0  0  0  0  0  0  0  0  0  0  0
    3.8957    2.4071   -3.3273 C   0  0  0  0  0  0  0  0  0  0  0  0
    4.4417    1.2016   -2.9872 F   0  0  0  0  0  0  0  0  0  0  0  0
    3.5029    2.2882   -4.6148 F   0  0  0  0  0  0  0  0  0  0  0  0
    4.9272    3.2845   -3.2769 F   0  0  0  0  0  0  0  0  0  0  0  0
    1.8792    3.7658   -2.6533 N   0  0  0  0  0  0  0  0  0  0  0  0
    1.8043    4.7700   -3.6713 C   0  0  0  0  0  0  0  0  0  0  0  0
    0.5591    5.3708   -3.9322 C   0  0  0  0  0  0  0  0  0  0  0  0
    0.4322    6.3607   -4.9108 C   0  0  0  0  0  0  0  0  0  0  0  0
    1.5481    6.7754   -5.6301 C   0  0  0  0  0  0  0  0  0  0  0  0
    2.7865    6.1964   -5.3758 C   0  0  0  0  0  0  0  0  0  0  0  0
    2.9163    5.1993   -4.4027 C   0  0  0  0  0  0  0  0  0  0  0  0
    0.8779    3.7196   -1.7250 N   0  0  0  0  0  0  0  0  0  0  0  0
    1.1695    2.6878   -0.9369 C   0  0  0  0  0  0  0  0  0  0  0  0
    3.0976   -1.3806   -0.1253 C   0  0  0  0  0  0  0  0  0  0  0  0
    4.0987   -1.1430    0.8191 C   0  0  0  0  0  0  0  0  0  0  0  0
    4.9381   -2.0875    1.2993 N   0  0  0  0  0  0  0  0  0  0  0  0
    4.7551   -3.3468    0.8390 C   0  0  0  0  0  0  0  0  0  0  0  0
    3.7880   -3.6835   -0.0963 C   0  0  0  0  0  0  0  0  0  0  0  0
    2.9364   -2.6886   -0.6119 C   0  0  0  0  0  0  0  0  0  0  0  0
    1.9705   -3.0887   -1.6488 C   0  0  0  0  0  0  0  0  0  0  0  0
    1.9040   -4.3630   -2.0494 C   0  0  0  0  0  0  0  0  0  0  0  0
    2.7193   -5.3302   -1.5167 N   0  0  0  0  0  0  0  0  0  0  0  0
    3.6719   -5.0885   -0.5491 C   0  0  0  0  0  0  0  0  0  0  0  0
    4.3791   -5.9722   -0.0944 O   0  0  0  0  0  0  0  0  0  0  0  0
    3.9451    0.7798   -1.1040 H   0  0  0  0  0  0  0  0  0  0  0  0
   -0.3358    5.0639   -3.3916 H   0  0  0  0  0  0  0  0  0  0  0  0
   -0.5390    6.8084   -5.1059 H   0  0  0  0  0  0  0  0  0  0  0  0
    1.4556    7.5562   -6.3809 H   0  0  0  0  0  0  0  0  0  0  0  0
    3.6641    6.5301   -5.9253 H   0  0  0  0  0  0  0  0  0  0  0  0
    3.9190    4.8390   -4.2283 H   0  0  0  0  0  0  0  0  0  0  0  0
    0.5091    2.4537   -0.1100 H   0  0  0  0  0  0  0  0  0  0  0  0
    4.2591   -0.1536    1.2409 H   0  0  0  0  0  0  0  0  0  0  0  0
    5.4294   -4.0939    1.2519 H   0  0  0  0  0  0  0  0  0  0  0  0
    1.3129   -2.3452   -2.0911 H   0  0  0  0  0  0  0  0  0  0  0  0
    1.2023   -4.6959   -2.8088 H   0  0  0  0  0  0  0  0  0  0  0  0
    2.6358   -6.2872   -1.8270 H   0  0  0  0  0  0  0  0  0  0  0  0
  1  2  2  0  0  0  0
  2  3  1  0  0  0  0
  2 19  1  0  0  0  0
  3  4  1  0  0  0  0
  3 30  1  0  0  0  0
  4  5  2  0  0  0  0
  4 18  1  0  0  0  0
  5  6  1  0  0  0  0
  5 10  1  0  0  0  0
  6  7  1  0  0  0  0
  6  8  1  0  0  0  0
  6  9  1  0  0  0  0
 10 11  1  0  0  0  0
 10 17  1  0  0  0  0
 11 12  2  0  0  0  0
 11 16  1  0  0  0  0
 12 13  1  0  0  0  0
 12 31  1  0  0  0  0
 13 14  2  0  0  0  0
 13 32  1  0  0  0  0
 14 15  1  0  0  0  0
 14 33  1  0  0  0  0
 15 16  2  0  0  0  0
 15 34  1  0  0  0  0
 16 35  1  0  0  0  0
 17 18  2  0  0  0  0
 18 36  1  0  0  0  0
 19 20  2  0  0  0  0
 19 24  1  0  0  0  0
 20 21  1  0  0  0  0
 20 37  1  0  0  0  0
 21 22  2  0  0  0  0
 22 23  1  0  0  0  0
 22 38  1  0  0  0  0
 23 24  2  0  0  0  0
 23 28  1  0  0  0  0
 24 25  1  0  0  0  0
 25 26  2  0  0  0  0
 25 39  1  0  0  0  0
 26 27  1  0  0  0  0
 26 40  1  0  0  0  0
 27 28  1  0  0  0  0
 27 41  1  0  0  0  0
 28 29  2  0  0  0  0
M  END
$$$$
