
 OpenBabel01122422523D

 48 51  0  0  0  0  0  0  0  0999 V2000
    6.0325    4.6928    1.1528 O   0  0  0  0  0  0  0  0  0  0  0  0
    5.6329    3.7239    0.5258 C   0  0  0  0  0  0  0  0  0  0  0  0
    5.9706    3.5141   -0.7624 O   0  0  0  0  0  0  0  0  0  0  0  0
    4.7235    2.6943    1.0964 C   0  0  0  0  0  0  0  0  0  0  0  0
    3.9907    3.0637    2.1616 C   0  0  0  0  0  0  0  0  0  0  0  0
    3.1325    2.1902    2.8395 N   0  0  0  0  0  0  0  0  0  0  0  0
    2.3916    2.6366    3.9984 C   0  0  0  0  0  0  0  0  0  0  0  0
    2.0223    1.7494    5.0140 C   0  0  0  0  0  0  0  0  0  0  0  0
    1.2738    2.1741    6.1193 C   0  0  0  0  0  0  0  0  0  0  0  0
    0.8742    3.5099    6.2722 C   0  0  0  0  0  0  0  0  0  0  0  0
    0.0064    3.9234    7.3989 C   0  0  0  0  0  0  0  0  0  0  0  0
    0.0657    3.2781    8.6457 C   0  0  0  0  0  0  0  0  0  0  0  0
   -0.8500    3.5666    9.6613 C   0  0  0  0  0  0  0  0  0  0  0  0
   -1.8499    4.5253    9.4693 C   0  0  0  0  0  0  0  0  0  0  0  0
   -2.8914    4.7658   10.5375 C   0  0  0  0  0  0  0  0  0  0  0  0
   -2.4594    5.7362   11.5344 N   0  0  0  0  0  0  0  0  0  0  0  0
   -2.7400    7.0787   11.3456 C   0  0  0  0  0  0  0  0  0  0  0  0
   -2.3197    8.0060   12.2129 C   0  0  0  0  0  0  0  0  0  0  0  0
   -1.5389    7.6120   13.3564 C   0  0  0  0  0  0  0  0  0  0  0  0
   -1.2606    6.3235   13.5800 C   0  0  0  0  0  0  0  0  0  0  0  0
   -1.7466    5.2754   12.6415 C   0  0  0  0  0  0  0  0  0  0  0  0
   -1.5012    4.0977   12.8852 O   0  0  0  0  0  0  0  0  0  0  0  0
   -1.8681    5.2400    8.2687 C   0  0  0  0  0  0  0  0  0  0  0  0
   -0.9619    4.9328    7.2473 C   0  0  0  0  0  0  0  0  0  0  0  0
    1.2875    4.4071    5.2770 C   0  0  0  0  0  0  0  0  0  0  0  0
    2.0255    3.9805    4.1609 C   0  0  0  0  0  0  0  0  0  0  0  0
    2.9847    0.8570    2.3893 C   0  0  0  0  0  0  0  0  0  0  0  0
    2.2180   -0.0004    2.8230 O   0  0  0  0  0  0  0  0  0  0  0  0
    3.8327    0.4555    1.2305 C   0  0  0  0  0  0  0  0  0  0  0  0
    4.6477    1.3290    0.6319 C   0  0  0  0  0  0  0  0  0  0  0  0
    5.4749    2.8128   -1.2190 H   0  0  0  0  0  0  0  0  0  0  0  0
    4.0860    4.0692    2.5610 H   0  0  0  0  0  0  0  0  0  0  0  0
    2.3150    0.7030    4.9902 H   0  0  0  0  0  0  0  0  0  0  0  0
    0.9861    1.4190    6.8480 H   0  0  0  0  0  0  0  0  0  0  0  0
    0.8174    2.5171    8.8430 H   0  0  0  0  0  0  0  0  0  0  0  0
   -0.7885    3.0176   10.6001 H   0  0  0  0  0  0  0  0  0  0  0  0
   -3.1310    3.8135   11.0274 H   0  0  0  0  0  0  0  0  0  0  0  0
   -3.8288    5.1045   10.0770 H   0  0  0  0  0  0  0  0  0  0  0  0
   -3.3222    7.3502   10.4682 H   0  0  0  0  0  0  0  0  0  0  0  0
   -2.5450    9.0567   12.0687 H   0  0  0  0  0  0  0  0  0  0  0  0
   -1.1780    8.3865   14.0277 H   0  0  0  0  0  0  0  0  0  0  0  0
   -0.6771    5.9844   14.4244 H   0  0  0  0  0  0  0  0  0  0  0  0
   -2.6078    6.0184    8.0998 H   0  0  0  0  0  0  0  0  0  0  0  0
   -1.0563    5.4712    6.3073 H   0  0  0  0  0  0  0  0  0  0  0  0
    1.0267    5.4613    5.3421 H   0  0  0  0  0  0  0  0  0  0  0  0
    2.2504    4.7274    3.4052 H   0  0  0  0  0  0  0  0  0  0  0  0
    3.7502   -0.5767    0.9212 H   0  0  0  0  0  0  0  0  0  0  0  0
    5.2815    0.9881   -0.1785 H   0  0  0  0  0  0  0  0  0  0  0  0
  1  2  2  0  0  0  0
  2  3  1  0  0  0  0
  2  4  1  0  0  0  0
  3 31  1  0  0  0  0
  4  5  2  0  0  0  0
  4 30  1  0  0  0  0
  5  6  1  0  0  0  0
  5 32  1  0  0  0  0
  6  7  1  0  0  0  0
  6 27  1  0  0  0  0
  7  8  2  0  0  0  0
  7 26  1  0  0  0  0
  8  9  1  0  0  0  0
  8 33  1  0  0  0  0
  9 10  2  0  0  0  0
  9 34  1  0  0  0  0
 10 11  1  0  0  0  0
 10 25  1  0  0  0  0
 11 12  2  0  0  0  0
 11 24  1  0  0  0  0
 12 13  1  0  0  0  0
 12 35  1  0  0  0  0
 13 14  2  0  0  0  0
 13 36  1  0  0  0  0
 14 15  1  0  0  0  0
 14 23  1  0  0  0  0
 15 16  1  0  0  0  0
 15 37  1  0  0  0  0
 15 38  1  0  0  0  0
 16 17  1  0  0  0  0
 16 21  1  0  0  0  0
 17 18  2  0  0  0  0
 17 39  1  0  0  0  0
 18 19  1  0  0  0  0
 18 40  1  0  0  0  0
 19 20  2  0  0  0  0
 19 41  1  0  0  0  0
 20 21  1  0  0  0  0
 20 42  1  0  0  0  0
 21 22  2  0  0  0  0
 23 24  2  0  0  0  0
 23 43  1  0  0  0  0
 24 44  1  0  0  0  0
 25 26  2  0  0  0  0
 25 45  1  0  0  0  0
 26 46  1  0  0  0  0
 27 28  2  0  0  0  0
 27 29  1  0  0  0  0
 29 30  2  0  0  0  0
 29 47  1  0  0  0  0
 30 48  1  0  0  0  0
M  END
$$$$
