
 OpenBabel01122422523D

 45 48  0  0  0  0  0  0  0  0999 V2000
    1.8256    0.1016    2.1660 O   0  0  0  0  0  0  0  0  0  0  0  0
    2.7224    0.1225    1.0327 S   0  0  0  0  0  0  0  0  0  0  0  0
    3.9691    0.8662    1.0830 O   0  0  0  0  0  0  0  0  0  0  0  0
    3.1804   -1.4427    0.6712 N   0  0  0  0  0  0  0  0  0  0  0  0
    2.4580   -2.4815    1.4178 C   0  0  0  0  0  0  0  0  0  0  0  0
    3.0264   -3.8540    1.1596 C   0  0  0  0  0  0  0  0  0  0  0  0
    3.9981   -4.3828    2.0100 C   0  0  0  0  0  0  0  0  0  0  0  0
    4.5515   -5.6177    1.6964 C   0  0  0  0  0  0  0  0  0  0  0  0
    5.4902   -6.2686    2.4609 O   0  0  0  0  0  0  0  0  0  0  0  0
    6.5073   -5.5616    3.0544 C   0  0  0  0  0  0  0  0  0  0  0  0
    7.0926   -4.4089    2.5122 C   0  0  0  0  0  0  0  0  0  0  0  0
    8.1359   -3.7705    3.1889 C   0  0  0  0  0  0  0  0  0  0  0  0
    8.6170   -4.3109    4.3767 C   0  0  0  0  0  0  0  0  0  0  0  0
    9.6231   -3.6998    5.0163 F   0  0  0  0  0  0  0  0  0  0  0  0
    8.0676   -5.4796    4.8892 C   0  0  0  0  0  0  0  0  0  0  0  0
    8.5515   -6.0130    6.0192 F   0  0  0  0  0  0  0  0  0  0  0  0
    7.0146   -6.1098    4.2346 C   0  0  0  0  0  0  0  0  0  0  0  0
    4.0824   -6.3129    0.5845 C   0  0  0  0  0  0  0  0  0  0  0  0
    3.1149   -5.7173   -0.1993 C   0  0  0  0  0  0  0  0  0  0  0  0
    2.5900   -4.5019    0.0530 N   0  0  0  0  0  0  0  0  0  0  0  0
    1.8332    0.6862   -0.4306 C   0  0  0  0  0  0  0  0  0  0  0  0
    2.6851    1.1371   -1.4484 C   0  0  0  0  0  0  0  0  0  0  0  0
    2.3978    2.3300   -2.0957 C   0  0  0  0  0  0  0  0  0  0  0  0
    1.2441    3.0348   -1.7454 C   0  0  0  0  0  0  0  0  0  0  0  0
    0.2867    2.4657   -0.8918 C   0  0  0  0  0  0  0  0  0  0  0  0
   -0.9305    3.0982   -0.6207 C   0  0  0  0  0  0  0  0  0  0  0  0
   -1.9434    2.5493    0.0855 N   0  0  0  0  0  0  0  0  0  0  0  0
   -1.7309    1.3136    0.5757 C   0  0  0  0  0  0  0  0  0  0  0  0
   -0.5250    0.6370    0.4559 C   0  0  0  0  0  0  0  0  0  0  0  0
    0.5339    1.2302   -0.2654 C   0  0  0  0  0  0  0  0  0  0  0  0
    4.1976   -1.5191    0.6959 H   0  0  0  0  0  0  0  0  0  0  0  0
    1.4033   -2.4680    1.1207 H   0  0  0  0  0  0  0  0  0  0  0  0
    2.5122   -2.2843    2.4954 H   0  0  0  0  0  0  0  0  0  0  0  0
    4.3112   -3.8360    2.8924 H   0  0  0  0  0  0  0  0  0  0  0  0
    6.7540   -3.9989    1.5648 H   0  0  0  0  0  0  0  0  0  0  0  0
    8.5824   -2.8636    2.7926 H   0  0  0  0  0  0  0  0  0  0  0  0
    6.6010   -7.0253    4.6454 H   0  0  0  0  0  0  0  0  0  0  0  0
    4.4516   -7.3014    0.3456 H   0  0  0  0  0  0  0  0  0  0  0  0
    2.7172   -6.2163   -1.0797 H   0  0  0  0  0  0  0  0  0  0  0  0
    3.6430    0.6502   -1.6207 H   0  0  0  0  0  0  0  0  0  0  0  0
    3.1059    2.7517   -2.7958 H   0  0  0  0  0  0  0  0  0  0  0  0
    1.0831    4.0216   -2.1741 H   0  0  0  0  0  0  0  0  0  0  0  0
   -1.1379    4.0969   -0.9969 H   0  0  0  0  0  0  0  0  0  0  0  0
   -2.5821    0.8647    1.0792 H   0  0  0  0  0  0  0  0  0  0  0  0
   -0.4393   -0.3604    0.8781 H   0  0  0  0  0  0  0  0  0  0  0  0
  1  2  2  0  0  0  0
  2  3  2  0  0  0  0
  2  4  1  0  0  0  0
  2 21  1  0  0  0  0
  4  5  1  0  0  0  0
  4 31  1  0  0  0  0
  5  6  1  0  0  0  0
  5 32  1  0  0  0  0
  5 33  1  0  0  0  0
  6  7  2  0  0  0  0
  6 20  1  0  0  0  0
  7  8  1  0  0  0  0
  7 34  1  0  0  0  0
  8  9  1  0  0  0  0
  8 18  2  0  0  0  0
  9 10  1  0  0  0  0
 10 11  2  0  0  0  0
 10 17  1  0  0  0  0
 11 12  1  0  0  0  0
 11 35  1  0  0  0  0
 12 13  2  0  0  0  0
 12 36  1  0  0  0  0
 13 14  1  0  0  0  0
 13 15  1  0  0  0  0
 15 16  1  0  0  0  0
 15 17  2  0  0  0  0
 17 37  1  0  0  0  0
 18 19  1  0  0  0  0
 18 38  1  0  0  0  0
 19 20  2  0  0  0  0
 19 39  1  0  0  0  0
 21 22  2  0  0  0  0
 21 30  1  0  0  0  0
 22 23  1  0  0  0  0
 22 40  1  0  0  0  0
 23 24  2  0  0  0  0
 23 41  1  0  0  0  0
 24 25  1  0  0  0  0
 24 42  1  0  0  0  0
 25 26  2  0  0  0  0
 25 30  1  0  0  0  0
 26 27  1  0  0  0  0
 26 43  1  0  0  0  0
 27 28  2  0  0  0  0
 28 29  1  0  0  0  0
 28 44  1  0  0  0  0
 29 30  2  0  0  0  0
 29 45  1  0  0  0  0
M  END
$$$$
