
 OpenBabel01122422523D

 43 46  0  0  0  0  0  0  0  0999 V2000
   -1.9146    1.7446   -4.0086 N   0  0  0  0  0  0  0  0  0  0  0  0
   -1.2166    1.2896   -3.1944 C   0  0  0  0  0  0  0  0  0  0  0  0
   -0.3273    0.6881   -2.2452 C   0  0  0  0  0  0  0  0  0  0  0  0
    0.3483   -0.4789   -2.6544 C   0  0  0  0  0  0  0  0  0  0  0  0
    1.2897   -1.0882   -1.8202 C   0  0  0  0  0  0  0  0  0  0  0  0
    1.5485   -0.5334   -0.5772 C   0  0  0  0  0  0  0  0  0  0  0  0
    0.8688    0.6095   -0.1529 C   0  0  0  0  0  0  0  0  0  0  0  0
   -0.0901    1.2348   -0.9728 C   0  0  0  0  0  0  0  0  0  0  0  0
   -0.7779    2.7806   -0.3726 S   0  0  0  0  0  0  0  0  0  0  0  0
   -2.5252    2.4657   -0.2005 C   0  0  0  0  0  0  0  0  0  0  0  0
   -3.0571    1.8955    0.9582 C   0  0  0  0  0  0  0  0  0  0  0  0
   -4.4479    1.7265    1.1054 C   0  0  0  0  0  0  0  0  0  0  0  0
   -5.3298    2.1201    0.0954 C   0  0  0  0  0  0  0  0  0  0  0  0
   -6.7348    1.9315    0.1303 N   0  0  0  0  0  0  0  0  0  0  0  0
   -7.4655    1.2761    1.1067 C   0  0  0  0  0  0  0  0  0  0  0  0
   -7.0355    0.8169    2.1593 O   0  0  0  0  0  0  0  0  0  0  0  0
   -8.9022    1.0254    0.7775 C   0  0  0  0  0  0  0  0  0  0  0  0
   -9.4373   -0.2223    1.1508 C   0  0  0  0  0  0  0  0  0  0  0  0
  -10.7214   -0.5978    0.7520 C   0  0  0  0  0  0  0  0  0  0  0  0
  -11.4958    0.3169    0.0485 C   0  0  0  0  0  0  0  0  0  0  0  0
  -12.8125   -0.0449   -0.4700 C   0  0  0  0  0  0  0  0  0  0  0  0
  -13.7000    0.8276   -0.8307 N   0  0  0  0  0  0  0  0  0  0  0  0
  -13.3337    2.1436   -0.7648 N   0  0  0  0  0  0  0  0  0  0  0  0
  -12.0404    2.6054   -0.6204 C   0  0  0  0  0  0  0  0  0  0  0  0
  -11.7277    3.7802   -0.7818 O   0  0  0  0  0  0  0  0  0  0  0  0
  -11.0445    1.6121   -0.1745 C   0  0  0  0  0  0  0  0  0  0  0  0
   -9.7217    1.9645    0.1357 C   0  0  0  0  0  0  0  0  0  0  0  0
   -4.7942    2.7256   -1.0464 C   0  0  0  0  0  0  0  0  0  0  0  0
   -3.4108    2.9104   -1.1841 C   0  0  0  0  0  0  0  0  0  0  0  0
    0.1660   -0.9051   -3.6367 H   0  0  0  0  0  0  0  0  0  0  0  0
    1.8192   -1.9769   -2.1459 H   0  0  0  0  0  0  0  0  0  0  0  0
    2.3036   -0.9895    0.0720 H   0  0  0  0  0  0  0  0  0  0  0  0
    1.1185    1.0328    0.8223 H   0  0  0  0  0  0  0  0  0  0  0  0
   -2.4047    1.5935    1.7745 H   0  0  0  0  0  0  0  0  0  0  0  0
   -4.8075    1.2854    2.0305 H   0  0  0  0  0  0  0  0  0  0  0  0
   -7.2274    2.2139   -0.7078 H   0  0  0  0  0  0  0  0  0  0  0  0
   -8.8382   -0.9136    1.7430 H   0  0  0  0  0  0  0  0  0  0  0  0
  -11.1117   -1.5759    1.0201 H   0  0  0  0  0  0  0  0  0  0  0  0
  -13.0506   -1.1175   -0.5729 H   0  0  0  0  0  0  0  0  0  0  0  0
  -14.0566    2.8195   -0.9933 H   0  0  0  0  0  0  0  0  0  0  0  0
   -9.3689    2.9706   -0.0781 H   0  0  0  0  0  0  0  0  0  0  0  0
   -5.4369    3.0692   -1.8528 H   0  0  0  0  0  0  0  0  0  0  0  0
   -3.0384    3.4122   -2.0751 H   0  0  0  0  0  0  0  0  0  0  0  0
  1  2  3  0  0  0  0
  2  3  1  0  0  0  0
  3  4  2  0  0  0  0
  3  8  1  0  0  0  0
  4  5  1  0  0  0  0
  4 30  1  0  0  0  0
  5  6  2  0  0  0  0
  5 31  1  0  0  0  0
  6  7  1  0  0  0  0
  6 32  1  0  0  0  0
  7  8  2  0  0  0  0
  7 33  1  0  0  0  0
  8  9  1  0  0  0  0
  9 10  1  0  0  0  0
 10 11  2  0  0  0  0
 10 29  1  0  0  0  0
 11 12  1  0  0  0  0
 11 34  1  0  0  0  0
 12 13  2  0  0  0  0
 12 35  1  0  0  0  0
 13 14  1  0  0  0  0
 13 28  1  0  0  0  0
 14 15  1  0  0  0  0
 14 36  1  0  0  0  0
 15 16  2  0  0  0  0
 15 17  1  0  0  0  0
 17 18  2  0  0  0  0
 17 27  1  0  0  0  0
 18 19  1  0  0  0  0
 18 37  1  0  0  0  0
 19 20  2  0  0  0  0
 19 38  1  0  0  0  0
 20 21  1  0  0  0  0
 20 26  1  0  0  0  0
 21 22  2  0  0  0  0
 21 39  1  0  0  0  0
 22 23  1  0  0  0  0
 23 24  1  0  0  0  0
 23 40  1  0  0  0  0
 24 25  2  0  0  0  0
 24 26  1  0  0  0  0
 26 27  2  0  0  0  0
 27 41  1  0  0  0  0
 28 29  2  0  0  0  0
 28 42  1  0  0  0  0
 29 43  1  0  0  0  0
M  END
$$$$
