
 OpenBabel01122422453D

 41 44  0  0  0  0  0  0  0  0999 V2000
    2.9400   -0.8156   -0.7143 O   0  0  0  0  0  0  0  0  0  0  0  0
    2.2653   -0.2091    0.1100 C   0  0  0  0  0  0  0  0  0  0  0  0
    0.8962   -0.2941    0.2637 N   0  0  0  0  0  0  0  0  0  0  0  0
    0.1160   -1.1298   -0.5353 C   0  0  0  0  0  0  0  0  0  0  0  0
    0.4976   -2.4460   -0.7869 C   0  0  0  0  0  0  0  0  0  0  0  0
   -0.2924   -3.2275   -1.6221 C   0  0  0  0  0  0  0  0  0  0  0  0
   -1.4024   -2.6393   -2.2153 C   0  0  0  0  0  0  0  0  0  0  0  0
   -2.2415   -3.3489   -3.1909 C   0  0  0  0  0  0  0  0  0  0  0  0
   -2.0528   -4.5301   -3.4505 O   0  0  0  0  0  0  0  0  0  0  0  0
   -3.2237   -2.6047   -3.7916 N   0  0  0  0  0  0  0  0  0  0  0  0
   -3.4920   -1.2900   -3.5481 C   0  0  0  0  0  0  0  0  0  0  0  0
   -4.3511   -0.6796   -4.1750 O   0  0  0  0  0  0  0  0  0  0  0  0
   -2.7529   -0.6927   -2.5748 N   0  0  0  0  0  0  0  0  0  0  0  0
   -1.7095   -1.3237   -1.9104 C   0  0  0  0  0  0  0  0  0  0  0  0
   -1.0091   -0.5747   -1.0338 N   0  0  0  0  0  0  0  0  0  0  0  0
    2.9179    0.7883    0.9834 C   0  0  0  0  0  0  0  0  0  0  0  0
    2.6953    0.7551    2.3678 C   0  0  0  0  0  0  0  0  0  0  0  0
    3.2928    1.6972    3.2219 C   0  0  0  0  0  0  0  0  0  0  0  0
    3.0803    1.6742    4.6937 C   0  0  0  0  0  0  0  0  0  0  0  0
    4.0739    2.0980    5.5964 C   0  0  0  0  0  0  0  0  0  0  0  0
    5.2841    2.4753    5.1545 F   0  0  0  0  0  0  0  0  0  0  0  0
    3.8680    2.1412    6.9779 C   0  0  0  0  0  0  0  0  0  0  0  0
    2.6541    1.7308    7.5132 C   0  0  0  0  0  0  0  0  0  0  0  0
    1.6599    1.2666    6.6593 C   0  0  0  0  0  0  0  0  0  0  0  0
    1.8746    1.2458    5.2773 C   0  0  0  0  0  0  0  0  0  0  0  0
    0.8598    0.8117    4.5125 F   0  0  0  0  0  0  0  0  0  0  0  0
    4.1085    2.6749    2.6139 C   0  0  0  0  0  0  0  0  0  0  0  0
    4.3599    2.6864    1.2366 C   0  0  0  0  0  0  0  0  0  0  0  0
    3.7701    1.7336    0.4162 C   0  0  0  0  0  0  0  0  0  0  0  0
    0.4173    0.5314    0.6002 H   0  0  0  0  0  0  0  0  0  0  0  0
    1.3928   -2.8644   -0.3367 H   0  0  0  0  0  0  0  0  0  0  0  0
   -0.0241   -4.2598   -1.8329 H   0  0  0  0  0  0  0  0  0  0  0  0
   -3.7916   -3.0557   -4.4991 H   0  0  0  0  0  0  0  0  0  0  0  0
   -2.9148    0.2852   -2.3781 H   0  0  0  0  0  0  0  0  0  0  0  0
    2.0706   -0.0391    2.7723 H   0  0  0  0  0  0  0  0  0  0  0  0
    4.6661    2.5006    7.6217 H   0  0  0  0  0  0  0  0  0  0  0  0
    2.4857    1.7690    8.5861 H   0  0  0  0  0  0  0  0  0  0  0  0
    0.7069    0.9270    7.0552 H   0  0  0  0  0  0  0  0  0  0  0  0
    4.5782    3.4531    3.2131 H   0  0  0  0  0  0  0  0  0  0  0  0
    5.0186    3.4411    0.8139 H   0  0  0  0  0  0  0  0  0  0  0  0
    3.9666    1.7328   -0.6531 H   0  0  0  0  0  0  0  0  0  0  0  0
  1  2  2  0  0  0  0
  2  3  1  0  0  0  0
  2 16  1  0  0  0  0
  3  4  1  0  0  0  0
  3 30  1  0  0  0  0
  4  5  2  0  0  0  0
  4 15  1  0  0  0  0
  5  6  1  0  0  0  0
  5 31  1  0  0  0  0
  6  7  2  0  0  0  0
  6 32  1  0  0  0  0
  7  8  1  0  0  0  0
  7 14  1  0  0  0  0
  8  9  2  0  0  0  0
  8 10  1  0  0  0  0
 10 11  1  0  0  0  0
 10 33  1  0  0  0  0
 11 12  2  0  0  0  0
 11 13  1  0  0  0  0
 13 14  1  0  0  0  0
 13 34  1  0  0  0  0
 14 15  2  0  0  0  0
 16 17  2  0  0  0  0
 16 29  1  0  0  0  0
 17 18  1  0  0  0  0
 17 35  1  0  0  0  0
 18 19  1  0  0  0  0
 18 27  2  0  0  0  0
 19 20  2  0  0  0  0
 19 25  1  0  0  0  0
 20 21  1  0  0  0  0
 20 22  1  0  0  0  0
 22 23  2  0  0  0  0
 22 36  1  0  0  0  0
 23 24  1  0  0  0  0
 23 37  1  0  0  0  0
 24 25  2  0  0  0  0
 24 38  1  0  0  0  0
 25 26  1  0  0  0  0
 27 28  1  0  0  0  0
 27 39  1  0  0  0  0
 28 29  2  0  0  0  0
 28 40  1  0  0  0  0
 29 41  1  0  0  0  0
M  END
$$$$
