
 OpenBabel01122422463D

 50 53  0  0  0  0  0  0  0  0999 V2000
    4.1887   -2.7532   -0.2754 C   0  0  0  0  0  0  0  0  0  0  0  0
    2.7589   -2.5193   -0.1807 N   0  0  0  0  0  0  0  0  0  0  0  0
    1.9139   -3.6244   -0.1430 C   0  0  0  0  0  0  0  0  0  0  0  0
    2.2900   -4.7940   -0.1907 O   0  0  0  0  0  0  0  0  0  0  0  0
    0.4579   -3.3649   -0.0397 C   0  0  0  0  0  0  0  0  0  0  0  0
   -0.0337   -2.1257    0.0324 C   0  0  0  0  0  0  0  0  0  0  0  0
    0.8733   -0.9866    0.0069 C   0  0  0  0  0  0  0  0  0  0  0  0
    0.3549    0.3033    0.1011 C   0  0  0  0  0  0  0  0  0  0  0  0
    1.2083    1.4026    0.0851 C   0  0  0  0  0  0  0  0  0  0  0  0
    2.5911    1.2444   -0.0311 C   0  0  0  0  0  0  0  0  0  0  0  0
    3.4959    2.3363   -0.0441 N   0  0  0  0  0  0  0  0  0  0  0  0
    3.1534    3.6674    0.0299 C   0  0  0  0  0  0  0  0  0  0  0  0
    2.0136    4.1201    0.0873 O   0  0  0  0  0  0  0  0  0  0  0  0
    4.2357    4.5123   -0.0070 N   0  0  0  0  0  0  0  0  0  0  0  0
    4.0217    5.9455    0.0290 C   0  0  0  0  0  0  0  0  0  0  0  0
    4.0420    6.5167    1.4268 C   0  0  0  0  0  0  0  0  0  0  0  0
    5.2376    6.9921    1.9810 C   0  0  0  0  0  0  0  0  0  0  0  0
    5.2548    7.5602    3.2584 C   0  0  0  0  0  0  0  0  0  0  0  0
    4.0758    7.6588    4.0079 C   0  0  0  0  0  0  0  0  0  0  0  0
    4.1034    8.2445    5.3578 C   0  0  0  0  0  0  0  0  0  0  0  0
    3.9019    9.5683    5.4958 C   0  0  0  0  0  0  0  0  0  0  0  0
    3.9264   10.1593    6.7366 N   0  0  0  0  0  0  0  0  0  0  0  0
    4.1504    9.4789    7.9087 C   0  0  0  0  0  0  0  0  0  0  0  0
    4.1707   10.0259    9.0042 O   0  0  0  0  0  0  0  0  0  0  0  0
    4.3715    8.0173    7.7717 C   0  0  0  0  0  0  0  0  0  0  0  0
    4.3451    7.4535    6.5553 C   0  0  0  0  0  0  0  0  0  0  0  0
    2.8812    7.1744    3.4668 C   0  0  0  0  0  0  0  0  0  0  0  0
    2.8655    6.6046    2.1889 C   0  0  0  0  0  0  0  0  0  0  0  0
    3.1080   -0.0557   -0.1330 C   0  0  0  0  0  0  0  0  0  0  0  0
    2.2596   -1.1807   -0.1065 C   0  0  0  0  0  0  0  0  0  0  0  0
    4.4290   -3.8194   -0.3039 H   0  0  0  0  0  0  0  0  0  0  0  0
    4.6847   -2.3210    0.5995 H   0  0  0  0  0  0  0  0  0  0  0  0
    4.5697   -2.2967   -1.1942 H   0  0  0  0  0  0  0  0  0  0  0  0
   -0.1833   -4.2372   -0.0238 H   0  0  0  0  0  0  0  0  0  0  0  0
   -1.1015   -1.9536    0.1082 H   0  0  0  0  0  0  0  0  0  0  0  0
   -0.7148    0.4758    0.1941 H   0  0  0  0  0  0  0  0  0  0  0  0
    0.7426    2.3791    0.1650 H   0  0  0  0  0  0  0  0  0  0  0  0
    4.4748    2.1221   -0.1465 H   0  0  0  0  0  0  0  0  0  0  0  0
    5.1690    4.1585    0.1152 H   0  0  0  0  0  0  0  0  0  0  0  0
    3.0707    6.1973   -0.4566 H   0  0  0  0  0  0  0  0  0  0  0  0
    4.8077    6.4075   -0.5770 H   0  0  0  0  0  0  0  0  0  0  0  0
    6.1640    6.9380    1.4137 H   0  0  0  0  0  0  0  0  0  0  0  0
    6.1928    7.9322    3.6635 H   0  0  0  0  0  0  0  0  0  0  0  0
    3.7141   10.2295    4.6549 H   0  0  0  0  0  0  0  0  0  0  0  0
    3.7736   11.1564    6.8289 H   0  0  0  0  0  0  0  0  0  0  0  0
    4.5471    7.4589    8.6809 H   0  0  0  0  0  0  0  0  0  0  0  0
    4.5028    6.3857    6.4392 H   0  0  0  0  0  0  0  0  0  0  0  0
    1.9539    7.2405    4.0341 H   0  0  0  0  0  0  0  0  0  0  0  0
    1.9230    6.2340    1.7862 H   0  0  0  0  0  0  0  0  0  0  0  0
    4.1813   -0.1820   -0.2329 H   0  0  0  0  0  0  0  0  0  0  0  0
  1  2  1  0  0  0  0
  1 31  1  0  0  0  0
  1 32  1  0  0  0  0
  1 33  1  0  0  0  0
  2  3  1  0  0  0  0
  2 30  1  0  0  0  0
  3  4  2  0  0  0  0
  3  5  1  0  0  0  0
  5  6  2  0  0  0  0
  5 34  1  0  0  0  0
  6  7  1  0  0  0  0
  6 35  1  0  0  0  0
  7  8  2  0  0  0  0
  7 30  1  0  0  0  0
  8  9  1  0  0  0  0
  8 36  1  0  0  0  0
  9 10  2  0  0  0  0
  9 37  1  0  0  0  0
 10 11  1  0  0  0  0
 10 29  1  0  0  0  0
 11 12  1  0  0  0  0
 11 38  1  0  0  0  0
 12 13  2  0  0  0  0
 12 14  1  0  0  0  0
 14 15  1  0  0  0  0
 14 39  1  0  0  0  0
 15 16  1  0  0  0  0
 15 40  1  0  0  0  0
 15 41  1  0  0  0  0
 16 17  2  0  0  0  0
 16 28  1  0  0  0  0
 17 18  1  0  0  0  0
 17 42  1  0  0  0  0
 18 19  2  0  0  0  0
 18 43  1  0  0  0  0
 19 20  1  0  0  0  0
 19 27  1  0  0  0  0
 20 21  2  0  0  0  0
 20 26  1  0  0  0  0
 21 22  1  0  0  0  0
 21 44  1  0  0  0  0
 22 23  1  0  0  0  0
 22 45  1  0  0  0  0
 23 24  2  0  0  0  0
 23 25  1  0  0  0  0
 25 26  2  0  0  0  0
 25 46  1  0  0  0  0
 26 47  1  0  0  0  0
 27 28  2  0  0  0  0
 27 48  1  0  0  0  0
 28 49  1  0  0  0  0
 29 30  2  0  0  0  0
 29 50  1  0  0  0  0
M  END
$$$$
