
 OpenBabel01122422523D

 46 49  0  0  0  0  0  0  0  0999 V2000
    0.5831   -0.6987   -2.4590 N   0  0  0  0  0  0  0  0  0  0  0  0
    0.4673   -1.6564   -1.4908 C   0  0  0  0  0  0  0  0  0  0  0  0
   -0.5727   -1.8094   -0.8658 O   0  0  0  0  0  0  0  0  0  0  0  0
    1.6397   -2.5374   -1.2782 C   0  0  0  0  0  0  0  0  0  0  0  0
    2.9424   -2.0883   -1.5286 C   0  0  0  0  0  0  0  0  0  0  0  0
    4.0213   -2.9565   -1.3662 C   0  0  0  0  0  0  0  0  0  0  0  0
    3.8062   -4.2808   -0.9658 C   0  0  0  0  0  0  0  0  0  0  0  0
    4.9476   -5.2485   -0.8115 C   0  0  0  0  0  0  0  0  0  0  0  0
    5.9586   -4.9565   -1.7868 O   0  0  0  0  0  0  0  0  0  0  0  0
    6.8342   -5.9783   -2.0276 C   0  0  0  0  0  0  0  0  0  0  0  0
    7.4646   -5.9719   -3.2702 C   0  0  0  0  0  0  0  0  0  0  0  0
    8.3180   -7.0215   -3.6355 C   0  0  0  0  0  0  0  0  0  0  0  0
    8.5562   -8.0977   -2.7606 C   0  0  0  0  0  0  0  0  0  0  0  0
    9.3552   -9.2799   -3.1455 C   0  0  0  0  0  0  0  0  0  0  0  0
   10.1392   -9.9589   -2.1949 C   0  0  0  0  0  0  0  0  0  0  0  0
   10.7837  -11.1572   -2.4993 C   0  0  0  0  0  0  0  0  0  0  0  0
   10.6602  -11.7118   -3.7698 C   0  0  0  0  0  0  0  0  0  0  0  0
    9.8984  -11.0554   -4.7434 C   0  0  0  0  0  0  0  0  0  0  0  0
    9.6935  -11.6397   -6.0189 N   0  0  0  0  0  0  0  0  0  0  0  0
   10.0852  -12.8777   -6.4708 C   0  0  0  0  0  0  0  0  0  0  0  0
    9.6577  -13.0808   -7.6959 N   0  0  0  0  0  0  0  0  0  0  0  0
    8.9938  -11.9255   -7.9720 C   0  0  0  0  0  0  0  0  0  0  0  0
    8.9884  -11.0165   -6.9968 N   0  0  0  0  0  0  0  0  0  0  0  0
    9.2752   -9.8322   -4.4363 C   0  0  0  0  0  0  0  0  0  0  0  0
    7.9460   -8.0476   -1.4965 C   0  0  0  0  0  0  0  0  0  0  0  0
    7.1119   -6.9960   -1.1231 C   0  0  0  0  0  0  0  0  0  0  0  0
    2.5047   -4.6938   -0.6653 C   0  0  0  0  0  0  0  0  0  0  0  0
    2.2846   -5.9441   -0.2334 F   0  0  0  0  0  0  0  0  0  0  0  0
    1.4217   -3.8371   -0.8163 C   0  0  0  0  0  0  0  0  0  0  0  0
   -0.2606   -0.1886   -2.6833 H   0  0  0  0  0  0  0  0  0  0  0  0
    1.3154   -0.7186   -3.1556 H   0  0  0  0  0  0  0  0  0  0  0  0
    3.1354   -1.0643   -1.8355 H   0  0  0  0  0  0  0  0  0  0  0  0
    5.0309   -2.6013   -1.5667 H   0  0  0  0  0  0  0  0  0  0  0  0
    4.5660   -6.2673   -0.9589 H   0  0  0  0  0  0  0  0  0  0  0  0
    5.3652   -5.1429    0.1968 H   0  0  0  0  0  0  0  0  0  0  0  0
    7.2687   -5.1658   -3.9739 H   0  0  0  0  0  0  0  0  0  0  0  0
    8.7779   -6.9957   -4.6212 H   0  0  0  0  0  0  0  0  0  0  0  0
   10.2399   -9.5670   -1.1841 H   0  0  0  0  0  0  0  0  0  0  0  0
   11.3611  -11.6679   -1.7324 H   0  0  0  0  0  0  0  0  0  0  0  0
   11.1642  -12.6545   -3.9586 H   0  0  0  0  0  0  0  0  0  0  0  0
   10.6446  -13.5844   -5.8770 H   0  0  0  0  0  0  0  0  0  0  0  0
    8.4945  -11.7412   -8.9147 H   0  0  0  0  0  0  0  0  0  0  0  0
    8.6656   -9.3365   -5.1914 H   0  0  0  0  0  0  0  0  0  0  0  0
    8.0818   -8.8601   -0.7822 H   0  0  0  0  0  0  0  0  0  0  0  0
    6.6792   -7.0193   -0.1290 H   0  0  0  0  0  0  0  0  0  0  0  0
    0.4199   -4.1912   -0.5908 H   0  0  0  0  0  0  0  0  0  0  0  0
  1  2  1  0  0  0  0
  1 30  1  0  0  0  0
  1 31  1  0  0  0  0
  2  3  2  0  0  0  0
  2  4  1  0  0  0  0
  4  5  2  0  0  0  0
  4 29  1  0  0  0  0
  5  6  1  0  0  0  0
  5 32  1  0  0  0  0
  6  7  2  0  0  0  0
  6 33  1  0  0  0  0
  7  8  1  0  0  0  0
  7 27  1  0  0  0  0
  8  9  1  0  0  0  0
  8 34  1  0  0  0  0
  8 35  1  0  0  0  0
  9 10  1  0  0  0  0
 10 11  2  0  0  0  0
 10 26  1  0  0  0  0
 11 12  1  0  0  0  0
 11 36  1  0  0  0  0
 12 13  2  0  0  0  0
 12 37  1  0  0  0  0
 13 14  1  0  0  0  0
 13 25  1  0  0  0  0
 14 15  2  0  0  0  0
 14 24  1  0  0  0  0
 15 16  1  0  0  0  0
 15 38  1  0  0  0  0
 16 17  2  0  0  0  0
 16 39  1  0  0  0  0
 17 18  1  0  0  0  0
 17 40  1  0  0  0  0
 18 19  1  0  0  0  0
 18 24  2  0  0  0  0
 19 20  1  0  0  0  0
 19 23  1  0  0  0  0
 20 21  2  0  0  0  0
 20 41  1  0  0  0  0
 21 22  1  0  0  0  0
 22 23  2  0  0  0  0
 22 42  1  0  0  0  0
 24 43  1  0  0  0  0
 25 26  2  0  0  0  0
 25 44  1  0  0  0  0
 26 45  1  0  0  0  0
 27 28  1  0  0  0  0
 27 29  2  0  0  0  0
 29 46  1  0  0  0  0
M  END
$$$$
