
 OpenBabel01122422523D

 49 52  0  0  0  0  0  0  0  0999 V2000
    0.9195   -0.0370   -0.1700 C   0  0  0  0  0  0  0  0  0  0  0  0
    2.3740    0.1298   -0.0475 N   0  0  0  0  0  0  0  0  0  0  0  0
    3.1143    0.8616    0.9794 C   0  0  0  0  0  0  0  0  0  0  0  0
    4.3330    0.8875    0.9046 O   0  0  0  0  0  0  0  0  0  0  0  0
    2.3494    1.5869    2.0314 C   0  0  0  0  0  0  0  0  0  0  0  0
    1.3067    1.0251    2.6725 C   0  0  0  0  0  0  0  0  0  0  0  0
    0.5551    1.7505    3.6627 C   0  0  0  0  0  0  0  0  0  0  0  0
    0.9723    2.9472    4.0819 C   0  0  0  0  0  0  0  0  0  0  0  0
    2.1081    3.5328    3.5446 N   0  0  0  0  0  0  0  0  0  0  0  0
    2.5347    4.8432    4.0607 C   0  0  0  0  0  0  0  0  0  0  0  0
    1.8535    5.9840    3.3376 C   0  0  0  0  0  0  0  0  0  0  0  0
    0.6182    6.4828    3.7760 C   0  0  0  0  0  0  0  0  0  0  0  0
   -0.0403    7.4580    3.0329 C   0  0  0  0  0  0  0  0  0  0  0  0
   -1.2339    7.9022    3.4453 F   0  0  0  0  0  0  0  0  0  0  0  0
    0.5113    7.9626    1.8623 C   0  0  0  0  0  0  0  0  0  0  0  0
    1.7552    7.5025    1.4368 C   0  0  0  0  0  0  0  0  0  0  0  0
    2.4223    6.5189    2.1709 C   0  0  0  0  0  0  0  0  0  0  0  0
    2.8253    2.9364    2.4915 C   0  0  0  0  0  0  0  0  0  0  0  0
    3.7715    3.4891    1.9358 O   0  0  0  0  0  0  0  0  0  0  0  0
    3.1370   -0.3949   -1.1048 C   0  0  0  0  0  0  0  0  0  0  0  0
    3.6799   -1.6571   -1.0931 C   0  0  0  0  0  0  0  0  0  0  0  0
    4.1749   -1.8439   -2.3916 C   0  0  0  0  0  0  0  0  0  0  0  0
    3.9605   -0.7873   -3.1792 N   0  0  0  0  0  0  0  0  0  0  0  0
    3.3886    0.1491   -2.3692 N   0  0  0  0  0  0  0  0  0  0  0  0
    3.1299    1.4644   -2.8662 C   0  0  0  0  0  0  0  0  0  0  0  0
    3.4395    1.7691   -4.1997 C   0  0  0  0  0  0  0  0  0  0  0  0
    3.2896    3.0732   -4.6802 C   0  0  0  0  0  0  0  0  0  0  0  0
    2.8281    4.0835   -3.8405 C   0  0  0  0  0  0  0  0  0  0  0  0
    2.4854    3.7830   -2.5250 C   0  0  0  0  0  0  0  0  0  0  0  0
    2.6269    2.4814   -2.0453 C   0  0  0  0  0  0  0  0  0  0  0  0
    0.3672    0.7504    0.3383 H   0  0  0  0  0  0  0  0  0  0  0  0
    0.6412   -1.0175    0.2252 H   0  0  0  0  0  0  0  0  0  0  0  0
    0.6229    0.0035   -1.2239 H   0  0  0  0  0  0  0  0  0  0  0  0
    0.9729    0.0136    2.4697 H   0  0  0  0  0  0  0  0  0  0  0  0
   -0.3510    1.3067    4.0682 H   0  0  0  0  0  0  0  0  0  0  0  0
    0.4315    3.5036    4.8390 H   0  0  0  0  0  0  0  0  0  0  0  0
    3.6224    4.9403    3.9691 H   0  0  0  0  0  0  0  0  0  0  0  0
    2.3188    4.8952    5.1358 H   0  0  0  0  0  0  0  0  0  0  0  0
    0.1492    6.1156    4.6840 H   0  0  0  0  0  0  0  0  0  0  0  0
   -0.0289    8.7110    1.2910 H   0  0  0  0  0  0  0  0  0  0  0  0
    2.2040    7.8993    0.5298 H   0  0  0  0  0  0  0  0  0  0  0  0
    3.3905    6.1597    1.8211 H   0  0  0  0  0  0  0  0  0  0  0  0
    3.6896   -2.3655   -0.2759 H   0  0  0  0  0  0  0  0  0  0  0  0
    4.6655   -2.7133   -2.8130 H   0  0  0  0  0  0  0  0  0  0  0  0
    3.8201    1.0090   -4.8781 H   0  0  0  0  0  0  0  0  0  0  0  0
    3.5544    3.3049   -5.7093 H   0  0  0  0  0  0  0  0  0  0  0  0
    2.7433    5.1041   -4.2051 H   0  0  0  0  0  0  0  0  0  0  0  0
    2.1313    4.5735   -1.8641 H   0  0  0  0  0  0  0  0  0  0  0  0
    2.3592    2.3290   -1.0110 H   0  0  0  0  0  0  0  0  0  0  0  0
  1  2  1  0  0  0  0
  1 31  1  0  0  0  0
  1 32  1  0  0  0  0
  1 33  1  0  0  0  0
  2  3  1  0  0  0  0
  2 20  1  0  0  0  0
  3  4  2  0  0  0  0
  3  5  1  0  0  0  0
  5  6  2  0  0  0  0
  5 18  1  0  0  0  0
  6  7  1  0  0  0  0
  6 34  1  0  0  0  0
  7  8  2  0  0  0  0
  7 35  1  0  0  0  0
  8  9  1  0  0  0  0
  8 36  1  0  0  0  0
  9 10  1  0  0  0  0
  9 18  1  0  0  0  0
 10 11  1  0  0  0  0
 10 37  1  0  0  0  0
 10 38  1  0  0  0  0
 11 12  2  0  0  0  0
 11 17  1  0  0  0  0
 12 13  1  0  0  0  0
 12 39  1  0  0  0  0
 13 14  1  0  0  0  0
 13 15  2  0  0  0  0
 15 16  1  0  0  0  0
 15 40  1  0  0  0  0
 16 17  2  0  0  0  0
 16 41  1  0  0  0  0
 17 42  1  0  0  0  0
 18 19  2  0  0  0  0
 20 21  2  0  0  0  0
 20 24  1  0  0  0  0
 21 22  1  0  0  0  0
 21 43  1  0  0  0  0
 22 23  2  0  0  0  0
 22 44  1  0  0  0  0
 23 24  1  0  0  0  0
 24 25  1  0  0  0  0
 25 26  2  0  0  0  0
 25 30  1  0  0  0  0
 26 27  1  0  0  0  0
 26 45  1  0  0  0  0
 27 28  2  0  0  0  0
 27 46  1  0  0  0  0
 28 29  1  0  0  0  0
 28 47  1  0  0  0  0
 29 30  2  0  0  0  0
 29 48  1  0  0  0  0
 30 49  1  0  0  0  0
M  END
$$$$
