
 OpenBabel01122422523D

 46 49  0  0  0  0  0  0  0  0999 V2000
   -0.3938    0.2220    1.7614 N   0  0  0  0  0  0  0  0  0  0  0  0
   -0.6439   -0.0085    0.6484 C   0  0  0  0  0  0  0  0  0  0  0  0
   -0.9332   -0.3048   -0.7167 C   0  0  0  0  0  0  0  0  0  0  0  0
   -0.5897   -1.5940   -1.1341 C   0  0  0  0  0  0  0  0  0  0  0  0
   -0.8107   -2.0201   -2.4503 C   0  0  0  0  0  0  0  0  0  0  0  0
   -1.3919   -1.1433   -3.3518 C   0  0  0  0  0  0  0  0  0  0  0  0
   -1.7479    0.1474   -2.9341 C   0  0  0  0  0  0  0  0  0  0  0  0
   -1.5293    0.5934   -1.6095 C   0  0  0  0  0  0  0  0  0  0  0  0
   -1.9581    1.8870   -1.4381 O   0  0  0  0  0  0  0  0  0  0  0  0
   -1.8356    2.5008   -0.1575 C   0  0  0  0  0  0  0  0  0  0  0  0
   -2.3855    3.9118   -0.1668 C   0  0  0  0  0  0  0  0  0  0  0  0
   -3.7198    4.1557    0.1789 C   0  0  0  0  0  0  0  0  0  0  0  0
   -4.2365    5.4654    0.3055 C   0  0  0  0  0  0  0  0  0  0  0  0
   -5.6563    5.5794    0.7355 C   0  0  0  0  0  0  0  0  0  0  0  0
   -6.2528    4.5057    0.8533 O   0  0  0  0  0  0  0  0  0  0  0  0
   -6.2362    6.8336    0.9565 N   0  0  0  0  0  0  0  0  0  0  0  0
   -7.5995    6.9849    1.3400 C   0  0  0  0  0  0  0  0  0  0  0  0
   -8.3234    5.8907    1.8316 C   0  0  0  0  0  0  0  0  0  0  0  0
   -9.7047    5.8855    1.8365 C   0  0  0  0  0  0  0  0  0  0  0  0
  -10.3367    7.0696    1.5421 C   0  0  0  0  0  0  0  0  0  0  0  0
  -11.7829    7.1948    1.5345 C   0  0  0  0  0  0  0  0  0  0  0  0
  -12.4679    6.5840    0.7251 O   0  0  0  0  0  0  0  0  0  0  0  0
  -12.2144    8.1883    2.3540 N   0  0  0  0  0  0  0  0  0  0  0  0
  -11.4934    9.3605    2.2770 C   0  0  0  0  0  0  0  0  0  0  0  0
  -10.3195    9.4795    1.7357 N   0  0  0  0  0  0  0  0  0  0  0  0
   -9.6409    8.2797    1.4314 C   0  0  0  0  0  0  0  0  0  0  0  0
   -8.2564    8.2219    1.2252 C   0  0  0  0  0  0  0  0  0  0  0  0
   -3.3970    6.5484    0.0542 C   0  0  0  0  0  0  0  0  0  0  0  0
   -2.0721    6.3165   -0.3309 C   0  0  0  0  0  0  0  0  0  0  0  0
   -1.5724    5.0127   -0.4450 C   0  0  0  0  0  0  0  0  0  0  0  0
   -0.1265   -2.3072   -0.4458 H   0  0  0  0  0  0  0  0  0  0  0  0
   -0.5353   -3.0287   -2.7644 H   0  0  0  0  0  0  0  0  0  0  0  0
   -1.5732   -1.4516   -4.3783 H   0  0  0  0  0  0  0  0  0  0  0  0
   -2.2047    0.8217   -3.6592 H   0  0  0  0  0  0  0  0  0  0  0  0
   -0.7795    2.5542    0.1303 H   0  0  0  0  0  0  0  0  0  0  0  0
   -2.3938    1.9245    0.5896 H   0  0  0  0  0  0  0  0  0  0  0  0
   -4.3670    3.2992    0.3859 H   0  0  0  0  0  0  0  0  0  0  0  0
   -5.7567    7.6628    0.6358 H   0  0  0  0  0  0  0  0  0  0  0  0
   -7.8267    4.9942    2.1867 H   0  0  0  0  0  0  0  0  0  0  0  0
  -10.2569    4.9976    2.1165 H   0  0  0  0  0  0  0  0  0  0  0  0
  -12.2266    7.8619    3.3186 H   0  0  0  0  0  0  0  0  0  0  0  0
  -12.0083   10.2013    2.7624 H   0  0  0  0  0  0  0  0  0  0  0  0
   -7.7254    9.1403    1.0020 H   0  0  0  0  0  0  0  0  0  0  0  0
   -3.7329    7.5737    0.1574 H   0  0  0  0  0  0  0  0  0  0  0  0
   -1.4134    7.1593   -0.5284 H   0  0  0  0  0  0  0  0  0  0  0  0
   -0.5318    4.8637   -0.7252 H   0  0  0  0  0  0  0  0  0  0  0  0
  1  2  3  0  0  0  0
  2  3  1  0  0  0  0
  3  4  2  0  0  0  0
  3  8  1  0  0  0  0
  4  5  1  0  0  0  0
  4 31  1  0  0  0  0
  5  6  2  0  0  0  0
  5 32  1  0  0  0  0
  6  7  1  0  0  0  0
  6 33  1  0  0  0  0
  7  8  2  0  0  0  0
  7 34  1  0  0  0  0
  8  9  1  0  0  0  0
  9 10  1  0  0  0  0
 10 11  1  0  0  0  0
 10 35  1  0  0  0  0
 10 36  1  0  0  0  0
 11 12  2  0  0  0  0
 11 30  1  0  0  0  0
 12 13  1  0  0  0  0
 12 37  1  0  0  0  0
 13 14  1  0  0  0  0
 13 28  2  0  0  0  0
 14 15  2  0  0  0  0
 14 16  1  0  0  0  0
 16 17  1  0  0  0  0
 16 38  1  0  0  0  0
 17 18  2  0  0  0  0
 17 27  1  0  0  0  0
 18 19  1  0  0  0  0
 18 39  1  0  0  0  0
 19 20  2  0  0  0  0
 19 40  1  0  0  0  0
 20 21  1  0  0  0  0
 20 26  1  0  0  0  0
 21 22  2  0  0  0  0
 21 23  1  0  0  0  0
 23 24  1  0  0  0  0
 23 41  1  0  0  0  0
 24 25  2  0  0  0  0
 24 42  1  0  0  0  0
 25 26  1  0  0  0  0
 26 27  2  0  0  0  0
 27 43  1  0  0  0  0
 28 29  1  0  0  0  0
 28 44  1  0  0  0  0
 29 30  2  0  0  0  0
 29 45  1  0  0  0  0
 30 46  1  0  0  0  0
M  END
$$$$
