
 OpenBabel01122422523D

 41 44  0  0  0  0  0  0  0  0999 V2000
    0.9894    0.1610    0.0614 O   0  0  0  0  0  0  0  0  0  0  0  0
    2.2032   -0.0413   -0.0163 C   0  0  0  0  0  0  0  0  0  0  0  0
    2.9419   -0.3898    1.0953 N   0  0  0  0  0  0  0  0  0  0  0  0
    2.2999   -0.4241    2.3934 C   0  0  0  0  0  0  0  0  0  0  0  0
    2.9602   -1.4091    3.3058 C   0  0  0  0  0  0  0  0  0  0  0  0
    2.3217   -2.4856    3.8021 C   0  0  0  0  0  0  0  0  0  0  0  0
    2.9956   -3.4118    4.7116 C   0  0  0  0  0  0  0  0  0  0  0  0
    2.3545   -4.5508    5.2070 C   0  0  0  0  0  0  0  0  0  0  0  0
    3.0430   -5.4296    6.0471 C   0  0  0  0  0  0  0  0  0  0  0  0
    4.3678   -5.1691    6.4014 C   0  0  0  0  0  0  0  0  0  0  0  0
    5.0084   -4.0241    5.9246 C   0  0  0  0  0  0  0  0  0  0  0  0
    4.3199   -3.1520    5.0816 C   0  0  0  0  0  0  0  0  0  0  0  0
    4.9536   -2.0049    4.5890 N   0  0  0  0  0  0  0  0  0  0  0  0
    4.3611   -1.1189    3.7287 C   0  0  0  0  0  0  0  0  0  0  0  0
    4.9608   -0.1315    3.3129 O   0  0  0  0  0  0  0  0  0  0  0  0
    2.9058    0.0709   -1.2684 C   0  0  0  0  0  0  0  0  0  0  0  0
    2.4357    0.4494   -2.5008 C   0  0  0  0  0  0  0  0  0  0  0  0
    3.5404    0.3467   -3.3798 C   0  0  0  0  0  0  0  0  0  0  0  0
    3.5437    0.6608   -4.8041 C   0  0  0  0  0  0  0  0  0  0  0  0
    2.7148    1.6807   -5.2976 C   0  0  0  0  0  0  0  0  0  0  0  0
    1.9584    2.4111   -4.4643 F   0  0  0  0  0  0  0  0  0  0  0  0
    2.6366    1.9725   -6.6550 C   0  0  0  0  0  0  0  0  0  0  0  0
    3.4016    1.2365   -7.5456 C   0  0  0  0  0  0  0  0  0  0  0  0
    3.3167    1.4950   -8.8534 F   0  0  0  0  0  0  0  0  0  0  0  0
    4.2452    0.2272   -7.0955 C   0  0  0  0  0  0  0  0  0  0  0  0
    4.3124   -0.0510   -5.7292 C   0  0  0  0  0  0  0  0  0  0  0  0
    5.1113   -1.0556   -5.3400 F   0  0  0  0  0  0  0  0  0  0  0  0
    4.6207   -0.0860   -2.7091 N   0  0  0  0  0  0  0  0  0  0  0  0
    4.2216   -0.2508   -1.3871 O   0  0  0  0  0  0  0  0  0  0  0  0
    3.9492   -0.2642    1.0599 H   0  0  0  0  0  0  0  0  0  0  0  0
    1.2454   -0.6925    2.2573 H   0  0  0  0  0  0  0  0  0  0  0  0
    2.3201    0.5863    2.8155 H   0  0  0  0  0  0  0  0  0  0  0  0
    1.2901   -2.6975    3.5391 H   0  0  0  0  0  0  0  0  0  0  0  0
    1.3236   -4.7700    4.9401 H   0  0  0  0  0  0  0  0  0  0  0  0
    2.5472   -6.3226    6.4214 H   0  0  0  0  0  0  0  0  0  0  0  0
    4.9019   -5.8614    7.0479 H   0  0  0  0  0  0  0  0  0  0  0  0
    6.0389   -3.8318    6.2078 H   0  0  0  0  0  0  0  0  0  0  0  0
    5.9051   -1.7948    4.8570 H   0  0  0  0  0  0  0  0  0  0  0  0
    1.4237    0.7567   -2.7229 H   0  0  0  0  0  0  0  0  0  0  0  0
    1.9808    2.7601   -7.0078 H   0  0  0  0  0  0  0  0  0  0  0  0
    4.8343   -0.3458   -7.8015 H   0  0  0  0  0  0  0  0  0  0  0  0
  1  2  2  0  0  0  0
  2  3  1  0  0  0  0
  2 16  1  0  0  0  0
  3  4  1  0  0  0  0
  3 30  1  0  0  0  0
  4  5  1  0  0  0  0
  4 31  1  0  0  0  0
  4 32  1  0  0  0  0
  5  6  2  0  0  0  0
  5 14  1  0  0  0  0
  6  7  1  0  0  0  0
  6 33  1  0  0  0  0
  7  8  2  0  0  0  0
  7 12  1  0  0  0  0
  8  9  1  0  0  0  0
  8 34  1  0  0  0  0
  9 10  2  0  0  0  0
  9 35  1  0  0  0  0
 10 11  1  0  0  0  0
 10 36  1  0  0  0  0
 11 12  2  0  0  0  0
 11 37  1  0  0  0  0
 12 13  1  0  0  0  0
 13 14  1  0  0  0  0
 13 38  1  0  0  0  0
 14 15  2  0  0  0  0
 16 17  2  0  0  0  0
 16 29  1  0  0  0  0
 17 18  1  0  0  0  0
 17 39  1  0  0  0  0
 18 19  1  0  0  0  0
 18 28  2  0  0  0  0
 19 20  2  0  0  0  0
 19 26  1  0  0  0  0
 20 21  1  0  0  0  0
 20 22  1  0  0  0  0
 22 23  2  0  0  0  0
 22 40  1  0  0  0  0
 23 24  1  0  0  0  0
 23 25  1  0  0  0  0
 25 26  2  0  0  0  0
 25 41  1  0  0  0  0
 26 27  1  0  0  0  0
 28 29  1  0  0  0  0
M  END
$$$$
