
 OpenBabel01122422523D

 47 50  0  0  0  0  0  0  0  0999 V2000
    4.6607   -2.3532   -2.3572 O   0  0  0  0  0  0  0  0  0  0  0  0
    4.4430   -1.4605   -1.5409 C   0  0  0  0  0  0  0  0  0  0  0  0
    5.3399   -0.2691   -1.5583 C   0  0  0  0  0  0  0  0  0  0  0  0
    5.1597    0.7362   -0.6949 C   0  0  0  0  0  0  0  0  0  0  0  0
    4.0968    0.6804    0.2713 C   0  0  0  0  0  0  0  0  0  0  0  0
    3.3048   -0.3960    0.3354 C   0  0  0  0  0  0  0  0  0  0  0  0
    3.4460   -1.4659   -0.5439 N   0  0  0  0  0  0  0  0  0  0  0  0
    2.5644   -2.5877   -0.4564 C   0  0  0  0  0  0  0  0  0  0  0  0
    1.9326   -3.0920   -1.5985 C   0  0  0  0  0  0  0  0  0  0  0  0
    1.0364   -4.1654   -1.5100 C   0  0  0  0  0  0  0  0  0  0  0  0
    0.7589   -4.7716   -0.2822 C   0  0  0  0  0  0  0  0  0  0  0  0
   -0.0512   -5.9053   -0.1570 N   0  0  0  0  0  0  0  0  0  0  0  0
   -1.1866   -6.0927   -1.0584 C   0  0  0  0  0  0  0  0  0  0  0  0
   -1.9789   -7.3234   -0.7772 C   0  0  0  0  0  0  0  0  0  0  0  0
   -1.5308   -8.6284   -0.7698 C   0  0  0  0  0  0  0  0  0  0  0  0
   -2.5912   -9.4036   -0.3968 N   0  0  0  0  0  0  0  0  0  0  0  0
   -2.5362  -10.8073   -0.0167 C   0  0  0  0  0  0  0  0  0  0  0  0
   -2.8409  -11.7376   -1.1570 C   0  0  0  0  0  0  0  0  0  0  0  0
   -4.1581  -12.1286   -1.4371 C   0  0  0  0  0  0  0  0  0  0  0  0
   -4.4177  -13.0731   -2.4337 C   0  0  0  0  0  0  0  0  0  0  0  0
   -3.3683  -13.6231   -3.1708 C   0  0  0  0  0  0  0  0  0  0  0  0
   -2.0597  -13.2104   -2.9276 C   0  0  0  0  0  0  0  0  0  0  0  0
   -1.8081  -12.2712   -1.9314 C   0  0  0  0  0  0  0  0  0  0  0  0
   -0.5412  -11.8993   -1.6984 F   0  0  0  0  0  0  0  0  0  0  0  0
   -3.7212   -8.6894   -0.1983 N   0  0  0  0  0  0  0  0  0  0  0  0
   -3.3439   -7.4295   -0.4317 C   0  0  0  0  0  0  0  0  0  0  0  0
    1.4462   -4.2851    0.8432 C   0  0  0  0  0  0  0  0  0  0  0  0
    1.2578   -4.8779    2.0346 F   0  0  0  0  0  0  0  0  0  0  0  0
    2.3080   -3.1923    0.7764 C   0  0  0  0  0  0  0  0  0  0  0  0
    6.1343   -0.2783   -2.2932 H   0  0  0  0  0  0  0  0  0  0  0  0
    5.8110    1.6033   -0.7039 H   0  0  0  0  0  0  0  0  0  0  0  0
    3.9493    1.5268    0.9342 H   0  0  0  0  0  0  0  0  0  0  0  0
    2.4862   -0.4402    1.0478 H   0  0  0  0  0  0  0  0  0  0  0  0
    2.1119   -2.6415   -2.5728 H   0  0  0  0  0  0  0  0  0  0  0  0
    0.5839   -4.5224   -2.4299 H   0  0  0  0  0  0  0  0  0  0  0  0
   -0.2995   -6.0778    0.8173 H   0  0  0  0  0  0  0  0  0  0  0  0
   -0.8381   -6.1634   -2.0956 H   0  0  0  0  0  0  0  0  0  0  0  0
   -1.8463   -5.2165   -0.9934 H   0  0  0  0  0  0  0  0  0  0  0  0
   -0.5517   -9.0502   -0.9547 H   0  0  0  0  0  0  0  0  0  0  0  0
   -3.2402  -10.9603    0.8070 H   0  0  0  0  0  0  0  0  0  0  0  0
   -1.5354  -11.0000    0.3883 H   0  0  0  0  0  0  0  0  0  0  0  0
   -4.9868  -11.7083   -0.8691 H   0  0  0  0  0  0  0  0  0  0  0  0
   -5.4408  -13.3864   -2.6287 H   0  0  0  0  0  0  0  0  0  0  0  0
   -3.5715  -14.3709   -3.9331 H   0  0  0  0  0  0  0  0  0  0  0  0
   -1.2336  -13.6232   -3.4980 H   0  0  0  0  0  0  0  0  0  0  0  0
   -4.0753   -6.6381   -0.3223 H   0  0  0  0  0  0  0  0  0  0  0  0
    2.8142   -2.8714    1.6806 H   0  0  0  0  0  0  0  0  0  0  0  0
  1  2  2  0  0  0  0
  2  3  1  0  0  0  0
  2  7  1  0  0  0  0
  3  4  2  0  0  0  0
  3 30  1  0  0  0  0
  4  5  1  0  0  0  0
  4 31  1  0  0  0  0
  5  6  2  0  0  0  0
  5 32  1  0  0  0  0
  6  7  1  0  0  0  0
  6 33  1  0  0  0  0
  7  8  1  0  0  0  0
  8  9  2  0  0  0  0
  8 29  1  0  0  0  0
  9 10  1  0  0  0  0
  9 34  1  0  0  0  0
 10 11  2  0  0  0  0
 10 35  1  0  0  0  0
 11 12  1  0  0  0  0
 11 27  1  0  0  0  0
 12 13  1  0  0  0  0
 12 36  1  0  0  0  0
 13 14  1  0  0  0  0
 13 37  1  0  0  0  0
 13 38  1  0  0  0  0
 14 15  2  0  0  0  0
 14 26  1  0  0  0  0
 15 16  1  0  0  0  0
 15 39  1  0  0  0  0
 16 17  1  0  0  0  0
 16 25  1  0  0  0  0
 17 18  1  0  0  0  0
 17 40  1  0  0  0  0
 17 41  1  0  0  0  0
 18 19  2  0  0  0  0
 18 23  1  0  0  0  0
 19 20  1  0  0  0  0
 19 42  1  0  0  0  0
 20 21  2  0  0  0  0
 20 43  1  0  0  0  0
 21 22  1  0  0  0  0
 21 44  1  0  0  0  0
 22 23  2  0  0  0  0
 22 45  1  0  0  0  0
 23 24  1  0  0  0  0
 25 26  2  0  0  0  0
 26 46  1  0  0  0  0
 27 28  1  0  0  0  0
 27 29  2  0  0  0  0
 29 47  1  0  0  0  0
M  END
$$$$
