
 OpenBabel01122422523D

 55 58  0  0  1  0  0  0  0  0999 V2000
    2.2181   -0.4363   -3.1508 C   0  0  0  0  0  0  0  0  0  0  0  0
    3.5332   -0.8051   -2.7409 O   0  0  0  0  0  0  0  0  0  0  0  0
    3.5952   -1.6619   -1.6738 C   0  0  0  0  0  0  0  0  0  0  0  0
    2.5590   -2.5052   -1.2764 C   0  0  0  0  0  0  0  0  0  0  0  0
    2.7063   -3.2963   -0.1440 C   0  0  0  0  0  0  0  0  0  0  0  0
    3.8986   -3.2669    0.5768 C   0  0  0  0  0  0  0  0  0  0  0  0
    5.0083   -2.5274    0.1300 C   0  0  0  0  0  0  0  0  0  0  0  0
    6.4088   -2.6992    0.7444 C   0  0  3  0  0  0  0  0  0  0  0  0
    6.4451   -2.4088    2.1791 N   0  0  0  0  0  0  0  0  0  0  0  0
    6.0649   -3.2449    3.1972 C   0  0  0  0  0  0  0  0  0  0  0  0
    5.5787   -4.3602    3.0475 O   0  0  0  0  0  0  0  0  0  0  0  0
    6.3278   -2.7048    4.5274 C   0  0  0  0  0  0  0  0  0  0  0  0
    5.9709   -3.2612    5.7355 C   0  0  0  0  0  0  0  0  0  0  0  0
    6.5247   -2.4285    6.6688 N   0  0  0  0  0  0  0  0  0  0  0  0
    6.5785   -2.6280    8.1072 C   0  0  0  0  0  0  0  0  0  0  0  0
    5.3845   -2.0314    8.7933 C   0  0  0  0  0  0  0  0  0  0  0  0
    4.2246   -2.7736    9.0401 C   0  0  0  0  0  0  0  0  0  0  0  0
    3.1255   -2.1598    9.6352 C   0  0  0  0  0  0  0  0  0  0  0  0
    3.2252   -0.8211    9.9730 C   0  0  0  0  0  0  0  0  0  0  0  0
    4.3328   -0.0781    9.7667 N   0  0  0  0  0  0  0  0  0  0  0  0
    5.3817   -0.6939    9.1776 C   0  0  0  0  0  0  0  0  0  0  0  0
    7.1606   -1.3969    6.0821 N   0  0  0  0  0  0  0  0  0  0  0  0
    7.0351   -1.5468    4.7692 N   0  0  0  0  0  0  0  0  0  0  0  0
    7.1505   -3.9886    0.3537 C   0  0  0  0  0  0  0  0  0  0  0  0
    6.4095   -5.1697    0.1090 C   0  0  0  0  0  0  0  0  0  0  0  0
    6.9994   -6.3503   -0.3225 C   0  0  0  0  0  0  0  0  0  0  0  0
    6.2249   -7.4070   -0.5996 F   0  0  0  0  0  0  0  0  0  0  0  0
    8.3627   -6.4260   -0.5047 C   0  0  0  0  0  0  0  0  0  0  0  0
    9.1339   -5.2922   -0.2566 C   0  0  0  0  0  0  0  0  0  0  0  0
    8.5464   -4.0805    0.1667 C   0  0  0  0  0  0  0  0  0  0  0  0
    9.4268   -3.0320    0.1585 O   0  0  0  0  0  0  0  0  0  0  0  0
    9.5640   -2.2814    1.3569 C   0  0  0  0  0  0  0  0  0  0  0  0
    4.8203   -1.6967   -0.9914 C   0  0  0  0  0  0  0  0  0  0  0  0
    2.3065    0.3589   -3.8966 H   0  0  0  0  0  0  0  0  0  0  0  0
    1.6354   -0.0428   -2.3097 H   0  0  0  0  0  0  0  0  0  0  0  0
    1.7013   -1.2767   -3.6260 H   0  0  0  0  0  0  0  0  0  0  0  0
    1.6323   -2.5810   -1.8341 H   0  0  0  0  0  0  0  0  0  0  0  0
    1.9070   -3.9659    0.1634 H   0  0  0  0  0  0  0  0  0  0  0  0
    3.9705   -3.9177    1.4432 H   0  0  0  0  0  0  0  0  0  0  0  0
    7.0015   -1.8812    0.3102 H   0  0  0  0  0  0  0  0  0  0  0  0
    6.7593   -1.4826    2.4532 H   0  0  0  0  0  0  0  0  0  0  0  0
    5.4142   -4.1562    5.9906 H   0  0  0  0  0  0  0  0  0  0  0  0
    7.5108   -2.1873    8.4774 H   0  0  0  0  0  0  0  0  0  0  0  0
    6.6389   -3.7081    8.2961 H   0  0  0  0  0  0  0  0  0  0  0  0
    4.1629   -3.8242    8.7668 H   0  0  0  0  0  0  0  0  0  0  0  0
    2.2101   -2.7094    9.8249 H   0  0  0  0  0  0  0  0  0  0  0  0
    2.3916   -0.2937   10.4281 H   0  0  0  0  0  0  0  0  0  0  0  0
    6.2474   -0.0547    9.0169 H   0  0  0  0  0  0  0  0  0  0  0  0
    5.3330   -5.2068    0.2147 H   0  0  0  0  0  0  0  0  0  0  0  0
    8.8050   -7.3494   -0.8599 H   0  0  0  0  0  0  0  0  0  0  0  0
   10.2066   -5.3441   -0.4273 H   0  0  0  0  0  0  0  0  0  0  0  0
   10.6080   -2.3233    1.6850 H   0  0  0  0  0  0  0  0  0  0  0  0
    8.9429   -2.6284    2.1832 H   0  0  0  0  0  0  0  0  0  0  0  0
    9.3335   -1.2377    1.1212 H   0  0  0  0  0  0  0  0  0  0  0  0
    5.6354   -1.0769   -1.3601 H   0  0  0  0  0  0  0  0  0  0  0  0
  1  2  1  0  0  0  0
  1 34  1  0  0  0  0
  1 35  1  0  0  0  0
  1 36  1  0  0  0  0
  2  3  1  0  0  0  0
  3  4  2  0  0  0  0
  3 33  1  0  0  0  0
  4  5  1  0  0  0  0
  4 37  1  0  0  0  0
  5  6  2  0  0  0  0
  5 38  1  0  0  0  0
  6  7  1  0  0  0  0
  6 39  1  0  0  0  0
  7  8  1  0  0  0  0
  7 33  2  0  0  0  0
  8  9  1  0  0  0  0
  8 24  1  0  0  0  0
  8 40  1  0  0  0  0
  9 10  1  0  0  0  0
  9 41  1  0  0  0  0
 10 11  2  0  0  0  0
 10 12  1  0  0  0  0
 12 13  2  0  0  0  0
 12 23  1  0  0  0  0
 13 14  1  0  0  0  0
 13 42  1  0  0  0  0
 14 15  1  0  0  0  0
 14 22  1  0  0  0  0
 15 16  1  0  0  0  0
 15 43  1  0  0  0  0
 15 44  1  0  0  0  0
 16 17  2  0  0  0  0
 16 21  1  0  0  0  0
 17 18  1  0  0  0  0
 17 45  1  0  0  0  0
 18 19  2  0  0  0  0
 18 46  1  0  0  0  0
 19 20  1  0  0  0  0
 19 47  1  0  0  0  0
 20 21  2  0  0  0  0
 21 48  1  0  0  0  0
 22 23  2  0  0  0  0
 24 25  2  0  0  0  0
 24 30  1  0  0  0  0
 25 26  1  0  0  0  0
 25 49  1  0  0  0  0
 26 27  1  0  0  0  0
 26 28  2  0  0  0  0
 28 29  1  0  0  0  0
 28 50  1  0  0  0  0
 29 30  2  0  0  0  0
 29 51  1  0  0  0  0
 30 31  1  0  0  0  0
 31 32  1  0  0  0  0
 32 52  1  0  0  0  0
 32 53  1  0  0  0  0
 32 54  1  0  0  0  0
 33 55  1  0  0  0  0
M  END
$$$$
