
 OpenBabel01122422523D

 43 46  0  0  0  0  0  0  0  0999 V2000
    2.2127    1.8020   -0.0816 O   0  0  0  0  0  0  0  0  0  0  0  0
    2.9228    0.8015   -0.1593 C   0  0  0  0  0  0  0  0  0  0  0  0
    3.0191    0.0351   -1.2915 N   0  0  0  0  0  0  0  0  0  0  0  0
    2.3092    0.3876   -2.5039 C   0  0  0  0  0  0  0  0  0  0  0  0
    3.2732    0.6482   -3.6294 C   0  0  0  0  0  0  0  0  0  0  0  0
    3.7445    1.9444   -3.8786 C   0  0  0  0  0  0  0  0  0  0  0  0
    4.6812    2.1742   -4.8815 C   0  0  0  0  0  0  0  0  0  0  0  0
    5.1862    1.1010   -5.6139 C   0  0  0  0  0  0  0  0  0  0  0  0
    4.7748   -0.2199   -5.3611 C   0  0  0  0  0  0  0  0  0  0  0  0
    5.4354   -1.3640   -6.0169 C   0  0  0  0  0  0  0  0  0  0  0  0
    6.8006   -1.3260   -6.3249 C   0  0  0  0  0  0  0  0  0  0  0  0
    7.4054   -2.4354   -6.9001 C   0  0  0  0  0  0  0  0  0  0  0  0
    6.6424   -3.5644   -7.1490 C   0  0  0  0  0  0  0  0  0  0  0  0
    5.2981   -3.5354   -6.8064 C   0  0  0  0  0  0  0  0  0  0  0  0
    4.6868   -2.4695   -6.2419 N   0  0  0  0  0  0  0  0  0  0  0  0
    3.7747   -0.4186   -4.3934 C   0  0  0  0  0  0  0  0  0  0  0  0
    3.7783    0.3548    0.9834 C   0  0  0  0  0  0  0  0  0  0  0  0
    3.6976    1.0848    2.1043 C   0  0  0  0  0  0  0  0  0  0  0  0
    4.6002    0.7865    3.2194 C   0  0  0  0  0  0  0  0  0  0  0  0
    4.5141    1.3767    4.2864 O   0  0  0  0  0  0  0  0  0  0  0  0
    5.6270   -0.2318    2.9675 C   0  0  0  0  0  0  0  0  0  0  0  0
    6.6617   -0.4319    3.8828 C   0  0  0  0  0  0  0  0  0  0  0  0
    7.6013   -1.4187    3.6211 C   0  0  0  0  0  0  0  0  0  0  0  0
    8.6179   -1.6029    4.4723 F   0  0  0  0  0  0  0  0  0  0  0  0
    7.5066   -2.2193    2.4843 C   0  0  0  0  0  0  0  0  0  0  0  0
    6.4770   -2.0024    1.5638 C   0  0  0  0  0  0  0  0  0  0  0  0
    5.5519   -0.9829    1.7926 C   0  0  0  0  0  0  0  0  0  0  0  0
    4.6147   -0.7426    0.8145 O   0  0  0  0  0  0  0  0  0  0  0  0
    3.6347   -0.7658   -1.3034 H   0  0  0  0  0  0  0  0  0  0  0  0
    1.6707    1.2642   -2.3464 H   0  0  0  0  0  0  0  0  0  0  0  0
    1.6490   -0.4495   -2.7503 H   0  0  0  0  0  0  0  0  0  0  0  0
    3.3883    2.7836   -3.2826 H   0  0  0  0  0  0  0  0  0  0  0  0
    5.0426    3.1798   -5.0781 H   0  0  0  0  0  0  0  0  0  0  0  0
    5.9317    1.3086   -6.3803 H   0  0  0  0  0  0  0  0  0  0  0  0
    7.4007   -0.4540   -6.0974 H   0  0  0  0  0  0  0  0  0  0  0  0
    8.4655   -2.4146   -7.1367 H   0  0  0  0  0  0  0  0  0  0  0  0
    7.0839   -4.4502   -7.5969 H   0  0  0  0  0  0  0  0  0  0  0  0
    4.6637   -4.3973   -6.9797 H   0  0  0  0  0  0  0  0  0  0  0  0
    3.4117   -1.4285   -4.2046 H   0  0  0  0  0  0  0  0  0  0  0  0
    3.0199    1.9214    2.2312 H   0  0  0  0  0  0  0  0  0  0  0  0
    6.7470    0.1780    4.7776 H   0  0  0  0  0  0  0  0  0  0  0  0
    8.2457   -2.9977    2.3182 H   0  0  0  0  0  0  0  0  0  0  0  0
    6.4107   -2.6180    0.6705 H   0  0  0  0  0  0  0  0  0  0  0  0
  1  2  2  0  0  0  0
  2  3  1  0  0  0  0
  2 17  1  0  0  0  0
  3  4  1  0  0  0  0
  3 29  1  0  0  0  0
  4  5  1  0  0  0  0
  4 30  1  0  0  0  0
  4 31  1  0  0  0  0
  5  6  2  0  0  0  0
  5 16  1  0  0  0  0
  6  7  1  0  0  0  0
  6 32  1  0  0  0  0
  7  8  2  0  0  0  0
  7 33  1  0  0  0  0
  8  9  1  0  0  0  0
  8 34  1  0  0  0  0
  9 10  1  0  0  0  0
  9 16  2  0  0  0  0
 10 11  2  0  0  0  0
 10 15  1  0  0  0  0
 11 12  1  0  0  0  0
 11 35  1  0  0  0  0
 12 13  2  0  0  0  0
 12 36  1  0  0  0  0
 13 14  1  0  0  0  0
 13 37  1  0  0  0  0
 14 15  2  0  0  0  0
 14 38  1  0  0  0  0
 16 39  1  0  0  0  0
 17 18  2  0  0  0  0
 17 28  1  0  0  0  0
 18 19  1  0  0  0  0
 18 40  1  0  0  0  0
 19 20  2  0  0  0  0
 19 21  1  0  0  0  0
 21 22  2  0  0  0  0
 21 27  1  0  0  0  0
 22 23  1  0  0  0  0
 22 41  1  0  0  0  0
 23 24  1  0  0  0  0
 23 25  2  0  0  0  0
 25 26  1  0  0  0  0
 25 42  1  0  0  0  0
 26 27  2  0  0  0  0
 26 43  1  0  0  0  0
 27 28  1  0  0  0  0
M  END
$$$$
