
 OpenBabel01122422523D

 42 45  0  0  0  0  0  0  0  0999 V2000
    1.9749    0.1370    0.3997 O   0  0  0  0  0  0  0  0  0  0  0  0
    3.0483    0.0387   -0.1746 C   0  0  0  0  0  0  0  0  0  0  0  0
    3.2763   -0.0160   -1.5425 N   0  0  0  0  0  0  0  0  0  0  0  0
    2.4012    0.1956   -2.5714 C   0  0  0  0  0  0  0  0  0  0  0  0
    1.2811    0.9127   -2.4568 C   0  0  0  0  0  0  0  0  0  0  0  0
    0.3406    1.0571   -3.5991 C   0  0  0  0  0  0  0  0  0  0  0  0
   -0.6592    1.7414   -3.3835 O   0  0  0  0  0  0  0  0  0  0  0  0
    0.6580    0.3459   -4.7797 N   0  0  0  0  0  0  0  0  0  0  0  0
   -0.2987    0.2908   -5.8662 C   0  0  0  0  0  0  0  0  0  0  0  0
   -1.2551    1.2971   -6.0692 C   0  0  0  0  0  0  0  0  0  0  0  0
   -2.2274    1.1952   -7.0697 C   0  0  0  0  0  0  0  0  0  0  0  0
   -2.2563    0.0857   -7.9050 C   0  0  0  0  0  0  0  0  0  0  0  0
   -1.3016   -0.9126   -7.7493 C   0  0  0  0  0  0  0  0  0  0  0  0
   -0.3311   -0.8093   -6.7443 C   0  0  0  0  0  0  0  0  0  0  0  0
    1.8814   -0.3261   -4.8667 C   0  0  0  0  0  0  0  0  0  0  0  0
    2.7443   -0.3799   -3.8398 C   0  0  0  0  0  0  0  0  0  0  0  0
    4.3304   -0.0135    0.5197 C   0  0  0  0  0  0  0  0  0  0  0  0
    4.6446   -0.1279    1.8629 C   0  0  0  0  0  0  0  0  0  0  0  0
    6.0060    0.0684    1.9306 N   0  0  0  0  0  0  0  0  0  0  0  0
    6.9056    0.0008    2.9903 C   0  0  0  0  0  0  0  0  0  0  0  0
    8.1793    0.3840    2.7771 C   0  0  0  0  0  0  0  0  0  0  0  0
    8.5183    1.0178    1.5053 C   0  0  0  0  0  0  0  0  0  0  0  0
    7.6439    1.0852    0.4730 C   0  0  0  0  0  0  0  0  0  0  0  0
    7.8700    1.9624   -0.7268 C   0  0  0  0  0  0  0  0  0  0  0  0
    6.7507    2.1458   -1.4830 F   0  0  0  0  0  0  0  0  0  0  0  0
    8.2660    3.2090   -0.3531 F   0  0  0  0  0  0  0  0  0  0  0  0
    8.8232    1.4755   -1.5562 F   0  0  0  0  0  0  0  0  0  0  0  0
    6.4012    0.4263    0.6525 C   0  0  0  0  0  0  0  0  0  0  0  0
    5.4746    0.1620   -0.2266 N   0  0  0  0  0  0  0  0  0  0  0  0
    4.2423   -0.2444   -1.7816 H   0  0  0  0  0  0  0  0  0  0  0  0
    0.9931    1.4270   -1.5477 H   0  0  0  0  0  0  0  0  0  0  0  0
   -1.2645    2.2009   -5.4664 H   0  0  0  0  0  0  0  0  0  0  0  0
   -2.9640    1.9865   -7.1823 H   0  0  0  0  0  0  0  0  0  0  0  0
   -3.0231   -0.0001   -8.6696 H   0  0  0  0  0  0  0  0  0  0  0  0
   -1.3221   -1.7868   -8.3952 H   0  0  0  0  0  0  0  0  0  0  0  0
    0.3532   -1.6445   -6.6327 H   0  0  0  0  0  0  0  0  0  0  0  0
    2.1407   -0.7919   -5.8099 H   0  0  0  0  0  0  0  0  0  0  0  0
    3.6941   -0.8972   -3.9649 H   0  0  0  0  0  0  0  0  0  0  0  0
    4.0303   -0.2593    2.7422 H   0  0  0  0  0  0  0  0  0  0  0  0
    6.5469   -0.3825    3.9373 H   0  0  0  0  0  0  0  0  0  0  0  0
    8.9395    0.3225    3.5511 H   0  0  0  0  0  0  0  0  0  0  0  0
    9.4786    1.5348    1.4507 H   0  0  0  0  0  0  0  0  0  0  0  0
  1  2  2  0  0  0  0
  2  3  1  0  0  0  0
  2 17  1  0  0  0  0
  3  4  1  0  0  0  0
  3 30  1  0  0  0  0
  4  5  2  0  0  0  0
  4 16  1  0  0  0  0
  5  6  1  0  0  0  0
  5 31  1  0  0  0  0
  6  7  2  0  0  0  0
  6  8  1  0  0  0  0
  8  9  1  0  0  0  0
  8 15  1  0  0  0  0
  9 10  2  0  0  0  0
  9 14  1  0  0  0  0
 10 11  1  0  0  0  0
 10 32  1  0  0  0  0
 11 12  2  0  0  0  0
 11 33  1  0  0  0  0
 12 13  1  0  0  0  0
 12 34  1  0  0  0  0
 13 14  2  0  0  0  0
 13 35  1  0  0  0  0
 14 36  1  0  0  0  0
 15 16  2  0  0  0  0
 15 37  1  0  0  0  0
 16 38  1  0  0  0  0
 17 18  2  0  0  0  0
 17 29  1  0  0  0  0
 18 19  1  0  0  0  0
 18 39  1  0  0  0  0
 19 20  1  0  0  0  0
 19 28  1  0  0  0  0
 20 21  2  0  0  0  0
 20 40  1  0  0  0  0
 21 22  1  0  0  0  0
 21 41  1  0  0  0  0
 22 23  2  0  0  0  0
 22 42  1  0  0  0  0
 23 24  1  0  0  0  0
 23 28  1  0  0  0  0
 24 25  1  0  0  0  0
 24 26  1  0  0  0  0
 24 27  1  0  0  0  0
 28 29  2  0  0  0  0
M  END
$$$$
