
 OpenBabel01122422523D

 49 52  0  0  0  0  0  0  0  0999 V2000
    1.1538    0.0160   -0.0791 O   0  0  0  0  0  0  0  0  0  0  0  0
    2.3747   -0.0731    0.0294 C   0  0  0  0  0  0  0  0  0  0  0  0
    2.9913   -0.7001    1.0631 N   0  0  0  0  0  0  0  0  0  0  0  0
    2.2853   -1.2414    2.1932 C   0  0  0  0  0  0  0  0  0  0  0  0
    3.0234   -2.3961    2.8300 C   0  0  0  0  0  0  0  0  0  0  0  0
    3.4393   -2.3356    4.1674 C   0  0  0  0  0  0  0  0  0  0  0  0
    4.0645   -3.4332    4.7735 C   0  0  0  0  0  0  0  0  0  0  0  0
    4.2810   -4.6148    4.0546 C   0  0  0  0  0  0  0  0  0  0  0  0
    4.9290   -5.7736    4.6965 C   0  0  0  0  0  0  0  0  0  0  0  0
    4.1554   -6.6833    5.3213 C   0  0  0  0  0  0  0  0  0  0  0  0
    4.7115   -7.7808    5.9349 N   0  0  0  0  0  0  0  0  0  0  0  0
    6.0601   -8.0453    5.9710 C   0  0  0  0  0  0  0  0  0  0  0  0
    6.5337   -9.0252    6.5262 O   0  0  0  0  0  0  0  0  0  0  0  0
    6.9243   -7.0528    5.2826 C   0  0  0  0  0  0  0  0  0  0  0  0
    6.3686   -5.9858    4.6867 C   0  0  0  0  0  0  0  0  0  0  0  0
    3.8789   -4.6765    2.7156 C   0  0  0  0  0  0  0  0  0  0  0  0
    3.2586   -3.5769    2.1093 C   0  0  0  0  0  0  0  0  0  0  0  0
    3.1747    0.4656   -0.9360 N   0  0  0  0  0  0  0  0  0  0  0  0
    4.5631    0.3537   -1.0721 C   0  0  0  0  0  0  0  0  0  0  0  0
    5.1582    0.8897   -2.2092 C   0  0  0  0  0  0  0  0  0  0  0  0
    6.5335    0.7003   -2.4373 C   0  0  0  0  0  0  0  0  0  0  0  0
    7.1980    1.2161   -3.6540 C   0  0  0  0  0  0  0  0  0  0  0  0
    6.5227    1.3553   -4.8761 C   0  0  0  0  0  0  0  0  0  0  0  0
    7.1793    1.8471   -6.0036 C   0  0  0  0  0  0  0  0  0  0  0  0
    8.5150    2.1834   -5.8916 C   0  0  0  0  0  0  0  0  0  0  0  0
    9.2172    2.0632   -4.7489 N   0  0  0  0  0  0  0  0  0  0  0  0
    8.5459    1.5902   -3.6698 C   0  0  0  0  0  0  0  0  0  0  0  0
    7.2455   -0.0182   -1.4677 C   0  0  0  0  0  0  0  0  0  0  0  0
    6.5852   -0.4793   -0.3449 C   0  0  0  0  0  0  0  0  0  0  0  0
    5.2710   -0.2969   -0.1288 N   0  0  0  0  0  0  0  0  0  0  0  0
    3.9878   -0.5152    1.1472 H   0  0  0  0  0  0  0  0  0  0  0  0
    1.2844   -1.5677    1.8906 H   0  0  0  0  0  0  0  0  0  0  0  0
    2.1594   -0.4193    2.9065 H   0  0  0  0  0  0  0  0  0  0  0  0
    3.2690   -1.4357    4.7548 H   0  0  0  0  0  0  0  0  0  0  0  0
    4.3708   -3.3621    5.8150 H   0  0  0  0  0  0  0  0  0  0  0  0
    3.0744   -6.6031    5.3746 H   0  0  0  0  0  0  0  0  0  0  0  0
    4.1185   -8.4553    6.4025 H   0  0  0  0  0  0  0  0  0  0  0  0
    7.9900   -7.2379    5.2949 H   0  0  0  0  0  0  0  0  0  0  0  0
    6.9884   -5.2529    4.1809 H   0  0  0  0  0  0  0  0  0  0  0  0
    4.0357   -5.5842    2.1371 H   0  0  0  0  0  0  0  0  0  0  0  0
    2.9473   -3.6472    1.0682 H   0  0  0  0  0  0  0  0  0  0  0  0
    2.6520    0.9170   -1.6717 H   0  0  0  0  0  0  0  0  0  0  0  0
    4.5536    1.4462   -2.9178 H   0  0  0  0  0  0  0  0  0  0  0  0
    5.4792    1.0681   -4.9766 H   0  0  0  0  0  0  0  0  0  0  0  0
    6.6577    1.9581   -6.9479 H   0  0  0  0  0  0  0  0  0  0  0  0
    9.0716    2.5665   -6.7413 H   0  0  0  0  0  0  0  0  0  0  0  0
    9.1633    1.5272   -2.7771 H   0  0  0  0  0  0  0  0  0  0  0  0
    8.3022   -0.2407   -1.5738 H   0  0  0  0  0  0  0  0  0  0  0  0
    7.1081   -1.0366    0.4269 H   0  0  0  0  0  0  0  0  0  0  0  0
  1  2  2  0  0  0  0
  2  3  1  0  0  0  0
  2 18  1  0  0  0  0
  3  4  1  0  0  0  0
  3 31  1  0  0  0  0
  4  5  1  0  0  0  0
  4 32  1  0  0  0  0
  4 33  1  0  0  0  0
  5  6  2  0  0  0  0
  5 17  1  0  0  0  0
  6  7  1  0  0  0  0
  6 34  1  0  0  0  0
  7  8  2  0  0  0  0
  7 35  1  0  0  0  0
  8  9  1  0  0  0  0
  8 16  1  0  0  0  0
  9 10  2  0  0  0  0
  9 15  1  0  0  0  0
 10 11  1  0  0  0  0
 10 36  1  0  0  0  0
 11 12  1  0  0  0  0
 11 37  1  0  0  0  0
 12 13  2  0  0  0  0
 12 14  1  0  0  0  0
 14 15  2  0  0  0  0
 14 38  1  0  0  0  0
 15 39  1  0  0  0  0
 16 17  2  0  0  0  0
 16 40  1  0  0  0  0
 17 41  1  0  0  0  0
 18 19  1  0  0  0  0
 18 42  1  0  0  0  0
 19 20  2  0  0  0  0
 19 30  1  0  0  0  0
 20 21  1  0  0  0  0
 20 43  1  0  0  0  0
 21 22  1  0  0  0  0
 21 28  2  0  0  0  0
 22 23  2  0  0  0  0
 22 27  1  0  0  0  0
 23 24  1  0  0  0  0
 23 44  1  0  0  0  0
 24 25  2  0  0  0  0
 24 45  1  0  0  0  0
 25 26  1  0  0  0  0
 25 46  1  0  0  0  0
 26 27  2  0  0  0  0
 27 47  1  0  0  0  0
 28 29  1  0  0  0  0
 28 48  1  0  0  0  0
 29 30  2  0  0  0  0
 29 49  1  0  0  0  0
M  END
$$$$
