
 OpenBabel01122422523D

 42 45  0  0  0  0  0  0  0  0999 V2000
    1.3129   -0.3550   -0.9432 O   0  0  0  0  0  0  0  0  0  0  0  0
    2.4346   -0.0331   -0.5651 C   0  0  0  0  0  0  0  0  0  0  0  0
    2.9824    1.2325   -0.7646 N   0  0  0  0  0  0  0  0  0  0  0  0
    2.1498    2.4694   -1.1226 S   0  0  3  0  0  0  0  0  0  0  0  0
    1.1479    2.5433   -2.1676 O   0  0  0  0  0  0  0  0  0  0  0  0
    1.3757    3.0166    0.3988 C   0  0  0  0  0  0  0  0  0  0  0  0
    2.1621    3.4270    1.4811 C   0  0  0  0  0  0  0  0  0  0  0  0
    1.5444    3.8951    2.6447 C   0  0  0  0  0  0  0  0  0  0  0  0
    0.1515    3.9481    2.7306 C   0  0  0  0  0  0  0  0  0  0  0  0
   -0.6296    3.5326    1.6522 C   0  0  0  0  0  0  0  0  0  0  0  0
   -0.0210    3.0650    0.4837 C   0  0  0  0  0  0  0  0  0  0  0  0
    3.3617    3.6845   -1.6078 C   0  0  0  0  0  0  0  0  0  0  0  0
    4.5642    3.2444   -2.1654 C   0  0  0  0  0  0  0  0  0  0  0  0
    5.4930    4.1987   -2.5205 C   0  0  0  0  0  0  0  0  0  0  0  0
    5.2938    5.5222   -2.3654 N   0  0  0  0  0  0  0  0  0  0  0  0
    4.1099    5.9159   -1.8384 C   0  0  0  0  0  0  0  0  0  0  0  0
    3.1121    5.0424   -1.4466 C   0  0  0  0  0  0  0  0  0  0  0  0
    3.2575   -0.9974    0.2508 C   0  0  0  0  0  0  0  0  0  0  0  0
    2.5360   -1.8701    0.9648 C   0  0  0  0  0  0  0  0  0  0  0  0
    2.8566   -2.2111    2.2885 O   0  0  0  0  0  0  0  0  0  0  0  0
    3.5687   -1.2419    2.9642 C   0  0  0  0  0  0  0  0  0  0  0  0
    3.3973   -0.9760    4.1411 O   0  0  0  0  0  0  0  0  0  0  0  0
    4.6747   -0.6572    2.1838 C   0  0  0  0  0  0  0  0  0  0  0  0
    5.8256   -0.1833    2.8205 C   0  0  0  0  0  0  0  0  0  0  0  0
    6.9538    0.1116    2.0568 C   0  0  0  0  0  0  0  0  0  0  0  0
    6.9232   -0.0736    0.6719 C   0  0  0  0  0  0  0  0  0  0  0  0
    5.7339   -0.4483    0.0315 C   0  0  0  0  0  0  0  0  0  0  0  0
    4.5839   -0.6920    0.7922 C   0  0  0  0  0  0  0  0  0  0  0  0
    3.2475    3.3868    1.4317 H   0  0  0  0  0  0  0  0  0  0  0  0
    2.1457    4.2204    3.4910 H   0  0  0  0  0  0  0  0  0  0  0  0
   -0.3242    4.3151    3.6385 H   0  0  0  0  0  0  0  0  0  0  0  0
   -1.7150    3.5728    1.7227 H   0  0  0  0  0  0  0  0  0  0  0  0
   -0.6422    2.7481   -0.3519 H   0  0  0  0  0  0  0  0  0  0  0  0
    4.7731    2.1927   -2.3179 H   0  0  0  0  0  0  0  0  0  0  0  0
    6.4454    3.9144   -2.9573 H   0  0  0  0  0  0  0  0  0  0  0  0
    3.9856    6.9904   -1.7433 H   0  0  0  0  0  0  0  0  0  0  0  0
    2.1783    5.4200   -1.0471 H   0  0  0  0  0  0  0  0  0  0  0  0
    1.5235   -2.1924    0.7509 H   0  0  0  0  0  0  0  0  0  0  0  0
    5.8494   -0.0801    3.9021 H   0  0  0  0  0  0  0  0  0  0  0  0
    7.8658    0.4459    2.5465 H   0  0  0  0  0  0  0  0  0  0  0  0
    7.8306    0.0819    0.0915 H   0  0  0  0  0  0  0  0  0  0  0  0
    5.7283   -0.5730   -1.0479 H   0  0  0  0  0  0  0  0  0  0  0  0
  1  2  2  0  0  0  0
  2  3  1  0  0  0  0
  2 18  1  0  0  0  0
  3  4  2  0  0  0  0
  4  5  2  0  0  0  0
  4  6  1  0  0  0  0
  4 12  1  0  0  0  0
  6  7  2  0  0  0  0
  6 11  1  0  0  0  0
  7  8  1  0  0  0  0
  7 29  1  0  0  0  0
  8  9  2  0  0  0  0
  8 30  1  0  0  0  0
  9 10  1  0  0  0  0
  9 31  1  0  0  0  0
 10 11  2  0  0  0  0
 10 32  1  0  0  0  0
 11 33  1  0  0  0  0
 12 13  2  0  0  0  0
 12 17  1  0  0  0  0
 13 14  1  0  0  0  0
 13 34  1  0  0  0  0
 14 15  2  0  0  0  0
 14 35  1  0  0  0  0
 15 16  1  0  0  0  0
 16 17  2  0  0  0  0
 16 36  1  0  0  0  0
 17 37  1  0  0  0  0
 18 19  2  0  0  0  0
 18 28  1  0  0  0  0
 19 20  1  0  0  0  0
 19 38  1  0  0  0  0
 20 21  1  0  0  0  0
 21 22  2  0  0  0  0
 21 23  1  0  0  0  0
 23 24  2  0  0  0  0
 23 28  1  0  0  0  0
 24 25  1  0  0  0  0
 24 39  1  0  0  0  0
 25 26  2  0  0  0  0
 25 40  1  0  0  0  0
 26 27  1  0  0  0  0
 26 41  1  0  0  0  0
 27 28  2  0  0  0  0
 27 42  1  0  0  0  0
M  END
$$$$
