
 OpenBabel01122422523D

 52 55  0  0  0  0  0  0  0  0999 V2000
    1.4647   -0.1263    1.4304 N   0  0  0  0  0  0  0  0  0  0  0  0
    2.5963   -0.1231    0.7208 C   0  0  0  0  0  0  0  0  0  0  0  0
    3.3162    0.9766    0.5254 N   0  0  0  0  0  0  0  0  0  0  0  0
    4.3656    0.5587   -0.2068 N   0  0  0  0  0  0  0  0  0  0  0  0
    5.3272    1.5351   -0.7112 C   0  0  0  0  0  0  0  0  0  0  0  0
    6.5087    1.7156    0.2120 C   0  0  0  0  0  0  0  0  0  0  0  0
    7.8128    1.4634   -0.2403 C   0  0  0  0  0  0  0  0  0  0  0  0
    8.9046    1.6200    0.6171 C   0  0  0  0  0  0  0  0  0  0  0  0
    8.7084    2.0447    1.9297 C   0  0  0  0  0  0  0  0  0  0  0  0
    7.4226    2.3302    2.3820 C   0  0  0  0  0  0  0  0  0  0  0  0
    6.3300    2.1719    1.5277 C   0  0  0  0  0  0  0  0  0  0  0  0
    4.3359   -0.7859   -0.4678 C   0  0  0  0  0  0  0  0  0  0  0  0
    3.1794   -1.2714    0.1237 C   0  0  0  0  0  0  0  0  0  0  0  0
    2.6588   -2.6310    0.1256 C   0  0  0  0  0  0  0  0  0  0  0  0
    1.4639   -2.8776    0.2666 O   0  0  0  0  0  0  0  0  0  0  0  0
    3.6084   -3.6191   -0.0177 N   0  0  0  0  0  0  0  0  0  0  0  0
    3.2596   -5.0192   -0.0273 C   0  0  0  0  0  0  0  0  0  0  0  0
    3.2413   -5.6588    1.3410 C   0  0  0  0  0  0  0  0  0  0  0  0
    2.0427   -5.7143    2.0819 C   0  0  0  0  0  0  0  0  0  0  0  0
    1.9457   -6.4119    3.3036 C   0  0  0  0  0  0  0  0  0  0  0  0
    0.6554   -6.5265    4.0302 C   0  0  0  0  0  0  0  0  0  0  0  0
    0.6005   -6.5820    5.4368 C   0  0  0  0  0  0  0  0  0  0  0  0
   -0.6209   -6.6979    6.1020 C   0  0  0  0  0  0  0  0  0  0  0  0
   -0.6839   -6.7581    7.4635 O   0  0  0  0  0  0  0  0  0  0  0  0
   -1.8152   -6.7515    5.3991 C   0  0  0  0  0  0  0  0  0  0  0  0
   -1.7903   -6.7029    4.0102 C   0  0  0  0  0  0  0  0  0  0  0  0
   -0.5691   -6.6001    3.3361 C   0  0  0  0  0  0  0  0  0  0  0  0
    3.1155   -7.0185    3.7924 C   0  0  0  0  0  0  0  0  0  0  0  0
    4.3245   -6.9311    3.0930 C   0  0  0  0  0  0  0  0  0  0  0  0
    4.3839   -6.2580    1.8763 C   0  0  0  0  0  0  0  0  0  0  0  0
    1.2259    0.6824    1.9886 H   0  0  0  0  0  0  0  0  0  0  0  0
    0.9839   -0.9910    1.6611 H   0  0  0  0  0  0  0  0  0  0  0  0
    4.8034    2.4878   -0.8531 H   0  0  0  0  0  0  0  0  0  0  0  0
    5.6451    1.1845   -1.7002 H   0  0  0  0  0  0  0  0  0  0  0  0
    7.9929    1.1439   -1.2643 H   0  0  0  0  0  0  0  0  0  0  0  0
    9.9103    1.4104    0.2617 H   0  0  0  0  0  0  0  0  0  0  0  0
    9.5571    2.1575    2.5993 H   0  0  0  0  0  0  0  0  0  0  0  0
    7.2669    2.6731    3.4018 H   0  0  0  0  0  0  0  0  0  0  0  0
    5.3312    2.4002    1.8993 H   0  0  0  0  0  0  0  0  0  0  0  0
    5.1037   -1.2583   -1.0630 H   0  0  0  0  0  0  0  0  0  0  0  0
    4.5826   -3.3603   -0.0441 H   0  0  0  0  0  0  0  0  0  0  0  0
    4.0012   -5.5277   -0.6563 H   0  0  0  0  0  0  0  0  0  0  0  0
    2.2888   -5.1555   -0.5172 H   0  0  0  0  0  0  0  0  0  0  0  0
    1.1659   -5.2120    1.6757 H   0  0  0  0  0  0  0  0  0  0  0  0
    1.5169   -6.5244    6.0159 H   0  0  0  0  0  0  0  0  0  0  0  0
    0.2182   -6.6981    7.8182 H   0  0  0  0  0  0  0  0  0  0  0  0
   -2.7591   -6.8319    5.9299 H   0  0  0  0  0  0  0  0  0  0  0  0
   -2.7187   -6.7485    3.4472 H   0  0  0  0  0  0  0  0  0  0  0  0
   -0.5891   -6.5893    2.2484 H   0  0  0  0  0  0  0  0  0  0  0  0
    3.1017   -7.5912    4.7142 H   0  0  0  0  0  0  0  0  0  0  0  0
    5.2129   -7.4141    3.4970 H   0  0  0  0  0  0  0  0  0  0  0  0
    5.3286   -6.2297    1.3315 H   0  0  0  0  0  0  0  0  0  0  0  0
  1  2  1  0  0  0  0
  1 31  1  0  0  0  0
  1 32  1  0  0  0  0
  2  3  2  0  0  0  0
  2 13  1  0  0  0  0
  3  4  1  0  0  0  0
  4  5  1  0  0  0  0
  4 12  1  0  0  0  0
  5  6  1  0  0  0  0
  5 33  1  0  0  0  0
  5 34  1  0  0  0  0
  6  7  2  0  0  0  0
  6 11  1  0  0  0  0
  7  8  1  0  0  0  0
  7 35  1  0  0  0  0
  8  9  2  0  0  0  0
  8 36  1  0  0  0  0
  9 10  1  0  0  0  0
  9 37  1  0  0  0  0
 10 11  2  0  0  0  0
 10 38  1  0  0  0  0
 11 39  1  0  0  0  0
 12 13  2  0  0  0  0
 12 40  1  0  0  0  0
 13 14  1  0  0  0  0
 14 15  2  0  0  0  0
 14 16  1  0  0  0  0
 16 17  1  0  0  0  0
 16 41  1  0  0  0  0
 17 18  1  0  0  0  0
 17 42  1  0  0  0  0
 17 43  1  0  0  0  0
 18 19  2  0  0  0  0
 18 30  1  0  0  0  0
 19 20  1  0  0  0  0
 19 44  1  0  0  0  0
 20 21  1  0  0  0  0
 20 28  2  0  0  0  0
 21 22  2  0  0  0  0
 21 27  1  0  0  0  0
 22 23  1  0  0  0  0
 22 45  1  0  0  0  0
 23 24  1  0  0  0  0
 23 25  2  0  0  0  0
 24 46  1  0  0  0  0
 25 26  1  0  0  0  0
 25 47  1  0  0  0  0
 26 27  2  0  0  0  0
 26 48  1  0  0  0  0
 27 49  1  0  0  0  0
 28 29  1  0  0  0  0
 28 50  1  0  0  0  0
 29 30  2  0  0  0  0
 29 51  1  0  0  0  0
 30 52  1  0  0  0  0
M  END
$$$$
