
 OpenBabel01122422523D

 47 50  0  0  1  0  0  0  0  0999 V2000
    2.8735   -1.2922   -2.3121 O   0  0  0  0  0  0  0  0  0  0  0  0
    3.3009   -0.5470   -1.4371 C   0  0  0  0  0  0  0  0  0  0  0  0
    2.8914    0.7540   -1.2553 N   0  0  0  0  0  0  0  0  0  0  0  0
    2.0215    1.4666   -2.1682 C   0  0  3  0  0  0  0  0  0  0  0  0
    1.0490    2.3999   -1.4023 C   0  0  0  0  0  0  0  0  0  0  0  0
    0.0100    1.7638   -0.4921 C   0  0  0  0  0  0  0  0  0  0  0  0
   -0.5106    2.5214    0.5729 C   0  0  0  0  0  0  0  0  0  0  0  0
   -1.5595    2.0357    1.3592 C   0  0  0  0  0  0  0  0  0  0  0  0
   -2.1074    0.7839    1.0938 C   0  0  0  0  0  0  0  0  0  0  0  0
   -1.5910    0.0128    0.0563 C   0  0  0  0  0  0  0  0  0  0  0  0
   -0.5423    0.4975   -0.7317 C   0  0  0  0  0  0  0  0  0  0  0  0
    2.9023    2.2451   -3.1286 C   0  0  0  0  0  0  0  0  0  0  0  0
    2.7957    2.0314   -4.5053 C   0  0  0  0  0  0  0  0  0  0  0  0
    3.6612    2.7063   -5.3506 C   0  0  0  0  0  0  0  0  0  0  0  0
    4.6132    3.5655   -4.9281 N   0  0  0  0  0  0  0  0  0  0  0  0
    4.7071    3.7553   -3.5957 C   0  0  0  0  0  0  0  0  0  0  0  0
    3.8847    3.1360   -2.6697 C   0  0  0  0  0  0  0  0  0  0  0  0
    4.1902   -1.0106   -0.3369 C   0  0  0  0  0  0  0  0  0  0  0  0
    4.1885   -2.3207   -0.0191 C   0  0  0  0  0  0  0  0  0  0  0  0
    4.2748   -2.7775    1.3108 N   0  0  0  0  0  0  0  0  0  0  0  0
    3.6218   -1.8499    2.1980 C   0  0  0  0  0  0  0  0  0  0  0  0
    2.5468   -2.2547    2.9821 C   0  0  0  0  0  0  0  0  0  0  0  0
    1.7306   -1.2842    3.5776 C   0  0  0  0  0  0  0  0  0  0  0  0
    2.0235    0.0752    3.4363 C   0  0  0  0  0  0  0  0  0  0  0  0
    1.1905    0.9854    3.9559 F   0  0  0  0  0  0  0  0  0  0  0  0
    3.1013    0.5040    2.6821 C   0  0  0  0  0  0  0  0  0  0  0  0
    3.8550   -0.4688    2.0279 C   0  0  0  0  0  0  0  0  0  0  0  0
    4.5454   -0.0952    0.7869 C   0  0  0  0  0  0  0  0  0  0  0  0
    5.1001    0.9849    0.6279 O   0  0  0  0  0  0  0  0  0  0  0  0
    3.4078    1.3302   -0.5988 H   0  0  0  0  0  0  0  0  0  0  0  0
    1.4472    0.7297   -2.7400 H   0  0  0  0  0  0  0  0  0  0  0  0
    0.4938    3.0050   -2.1314 H   0  0  0  0  0  0  0  0  0  0  0  0
    1.6372    3.1041   -0.7968 H   0  0  0  0  0  0  0  0  0  0  0  0
   -0.1163    3.5125    0.7886 H   0  0  0  0  0  0  0  0  0  0  0  0
   -1.9584    2.6418    2.1691 H   0  0  0  0  0  0  0  0  0  0  0  0
   -2.9404    0.4162    1.6884 H   0  0  0  0  0  0  0  0  0  0  0  0
   -2.0207   -0.9638   -0.1554 H   0  0  0  0  0  0  0  0  0  0  0  0
   -0.1860   -0.1307   -1.5432 H   0  0  0  0  0  0  0  0  0  0  0  0
    2.0712    1.3351   -4.9151 H   0  0  0  0  0  0  0  0  0  0  0  0
    3.6162    2.5587   -6.4252 H   0  0  0  0  0  0  0  0  0  0  0  0
    5.4976    4.4301   -3.2776 H   0  0  0  0  0  0  0  0  0  0  0  0
    4.0379    3.3289   -1.6122 H   0  0  0  0  0  0  0  0  0  0  0  0
    3.7851   -3.0863   -0.6788 H   0  0  0  0  0  0  0  0  0  0  0  0
    5.2726   -2.7462    1.5630 H   0  0  0  0  0  0  0  0  0  0  0  0
    2.2698   -3.3049    3.0315 H   0  0  0  0  0  0  0  0  0  0  0  0
    0.8250   -1.5758    4.1020 H   0  0  0  0  0  0  0  0  0  0  0  0
    3.2463    1.5617    2.4868 H   0  0  0  0  0  0  0  0  0  0  0  0
  1  2  2  0  0  0  0
  2  3  1  0  0  0  0
  2 18  1  0  0  0  0
  3  4  1  0  0  0  0
  3 30  1  0  0  0  0
  4  5  1  0  0  0  0
  4 12  1  0  0  0  0
  4 31  1  0  0  0  0
  5  6  1  0  0  0  0
  5 32  1  0  0  0  0
  5 33  1  0  0  0  0
  6  7  2  0  0  0  0
  6 11  1  0  0  0  0
  7  8  1  0  0  0  0
  7 34  1  0  0  0  0
  8  9  2  0  0  0  0
  8 35  1  0  0  0  0
  9 10  1  0  0  0  0
  9 36  1  0  0  0  0
 10 11  2  0  0  0  0
 10 37  1  0  0  0  0
 11 38  1  0  0  0  0
 12 13  2  0  0  0  0
 12 17  1  0  0  0  0
 13 14  1  0  0  0  0
 13 39  1  0  0  0  0
 14 15  2  0  0  0  0
 14 40  1  0  0  0  0
 15 16  1  0  0  0  0
 16 17  2  0  0  0  0
 16 41  1  0  0  0  0
 17 42  1  0  0  0  0
 18 19  2  0  0  0  0
 18 28  1  0  0  0  0
 19 20  1  0  0  0  0
 19 43  1  0  0  0  0
 20 21  1  0  0  0  0
 20 44  1  0  0  0  0
 21 22  2  0  0  0  0
 21 27  1  0  0  0  0
 22 23  1  0  0  0  0
 22 45  1  0  0  0  0
 23 24  2  0  0  0  0
 23 46  1  0  0  0  0
 24 25  1  0  0  0  0
 24 26  1  0  0  0  0
 26 27  2  0  0  0  0
 26 47  1  0  0  0  0
 27 28  1  0  0  0  0
 28 29  2  0  0  0  0
M  END
$$$$
