
 OpenBabel01122422523D

 50 53  0  0  0  0  0  0  0  0999 V2000
    2.8515    0.0345    0.7934 N   0  0  0  0  0  0  0  0  0  0  0  0
    4.1411   -0.2967    0.1989 C   0  0  0  0  0  0  0  0  0  0  0  0
    3.9859   -0.6938   -1.2529 C   0  0  0  0  0  0  0  0  0  0  0  0
    3.7861   -2.0612   -1.5278 C   0  0  0  0  0  0  0  0  0  0  0  0
    3.6047   -2.5099   -2.8300 C   0  0  0  0  0  0  0  0  0  0  0  0
    3.6127   -1.5980   -3.8807 C   0  0  0  0  0  0  0  0  0  0  0  0
    3.8014   -0.2265   -3.6469 C   0  0  0  0  0  0  0  0  0  0  0  0
    3.8082    0.6734   -4.7261 C   0  0  0  0  0  0  0  0  0  0  0  0
    4.0046    2.0414   -4.5231 C   0  0  0  0  0  0  0  0  0  0  0  0
    4.1811    2.5353   -3.2303 C   0  0  0  0  0  0  0  0  0  0  0  0
    4.4331    3.9930   -3.0376 C   0  0  0  0  0  0  0  0  0  0  0  0
    4.9834    4.6455   -3.9190 O   0  0  0  0  0  0  0  0  0  0  0  0
    3.9973    4.5452   -1.8474 N   0  0  0  0  0  0  0  0  0  0  0  0
    4.1770    5.9560   -1.5862 C   0  0  0  0  0  0  0  0  0  0  0  0
    3.6146    6.3708   -0.2474 C   0  0  0  0  0  0  0  0  0  0  0  0
    4.3915    6.3224    0.9197 C   0  0  0  0  0  0  0  0  0  0  0  0
    3.8597    6.7346    2.1504 C   0  0  0  0  0  0  0  0  0  0  0  0
    2.5427    7.2018    2.2355 C   0  0  0  0  0  0  0  0  0  0  0  0
    1.9843    7.6484    3.5252 C   0  0  0  0  0  0  0  0  0  0  0  0
    2.1205    8.9418    3.8755 C   0  0  0  0  0  0  0  0  0  0  0  0
    1.6183    9.4089    5.0671 N   0  0  0  0  0  0  0  0  0  0  0  0
    0.9529    8.6299    5.9802 C   0  0  0  0  0  0  0  0  0  0  0  0
    0.5139    9.0651    7.0392 O   0  0  0  0  0  0  0  0  0  0  0  0
    0.7898    7.2017    5.6076 C   0  0  0  0  0  0  0  0  0  0  0  0
    1.2859    6.7587    4.4401 C   0  0  0  0  0  0  0  0  0  0  0  0
    1.7602    7.2367    1.0764 C   0  0  0  0  0  0  0  0  0  0  0  0
    2.2897    6.8201   -0.1507 C   0  0  0  0  0  0  0  0  0  0  0  0
    4.1766    1.6437   -2.1472 C   0  0  0  0  0  0  0  0  0  0  0  0
    3.9896    0.2493   -2.3225 C   0  0  0  0  0  0  0  0  0  0  0  0
    2.9737    0.1916    1.7917 H   0  0  0  0  0  0  0  0  0  0  0  0
    2.2361   -0.7746    0.7087 H   0  0  0  0  0  0  0  0  0  0  0  0
    4.5983   -1.1209    0.7601 H   0  0  0  0  0  0  0  0  0  0  0  0
    4.8322    0.5441    0.3087 H   0  0  0  0  0  0  0  0  0  0  0  0
    3.7692   -2.7859   -0.7161 H   0  0  0  0  0  0  0  0  0  0  0  0
    3.4540   -3.5684   -3.0261 H   0  0  0  0  0  0  0  0  0  0  0  0
    3.4683   -1.9711   -4.8928 H   0  0  0  0  0  0  0  0  0  0  0  0
    3.6659    0.3117   -5.7432 H   0  0  0  0  0  0  0  0  0  0  0  0
    4.0190    2.7153   -5.3775 H   0  0  0  0  0  0  0  0  0  0  0  0
    3.3279    4.0350   -1.2857 H   0  0  0  0  0  0  0  0  0  0  0  0
    3.6909    6.5213   -2.3910 H   0  0  0  0  0  0  0  0  0  0  0  0
    5.2468    6.1909   -1.6451 H   0  0  0  0  0  0  0  0  0  0  0  0
    5.4233    5.9782    0.8783 H   0  0  0  0  0  0  0  0  0  0  0  0
    4.4840    6.6973    3.0413 H   0  0  0  0  0  0  0  0  0  0  0  0
    2.6237    9.6741    3.2513 H   0  0  0  0  0  0  0  0  0  0  0  0
    1.7287   10.3840    5.3200 H   0  0  0  0  0  0  0  0  0  0  0  0
    0.2655    6.5683    6.3089 H   0  0  0  0  0  0  0  0  0  0  0  0
    1.1696    5.7175    4.1560 H   0  0  0  0  0  0  0  0  0  0  0  0
    0.7343    7.5967    1.1171 H   0  0  0  0  0  0  0  0  0  0  0  0
    1.6633    6.8645   -1.0395 H   0  0  0  0  0  0  0  0  0  0  0  0
    4.3506    2.0404   -1.1519 H   0  0  0  0  0  0  0  0  0  0  0  0
  1  2  1  0  0  0  0
  1 30  1  0  0  0  0
  1 31  1  0  0  0  0
  2  3  1  0  0  0  0
  2 32  1  0  0  0  0
  2 33  1  0  0  0  0
  3  4  2  0  0  0  0
  3 29  1  0  0  0  0
  4  5  1  0  0  0  0
  4 34  1  0  0  0  0
  5  6  2  0  0  0  0
  5 35  1  0  0  0  0
  6  7  1  0  0  0  0
  6 36  1  0  0  0  0
  7  8  2  0  0  0  0
  7 29  1  0  0  0  0
  8  9  1  0  0  0  0
  8 37  1  0  0  0  0
  9 10  2  0  0  0  0
  9 38  1  0  0  0  0
 10 11  1  0  0  0  0
 10 28  1  0  0  0  0
 11 12  2  0  0  0  0
 11 13  1  0  0  0  0
 13 14  1  0  0  0  0
 13 39  1  0  0  0  0
 14 15  1  0  0  0  0
 14 40  1  0  0  0  0
 14 41  1  0  0  0  0
 15 16  2  0  0  0  0
 15 27  1  0  0  0  0
 16 17  1  0  0  0  0
 16 42  1  0  0  0  0
 17 18  2  0  0  0  0
 17 43  1  0  0  0  0
 18 19  1  0  0  0  0
 18 26  1  0  0  0  0
 19 20  2  0  0  0  0
 19 25  1  0  0  0  0
 20 21  1  0  0  0  0
 20 44  1  0  0  0  0
 21 22  1  0  0  0  0
 21 45  1  0  0  0  0
 22 23  2  0  0  0  0
 22 24  1  0  0  0  0
 24 25  2  0  0  0  0
 24 46  1  0  0  0  0
 25 47  1  0  0  0  0
 26 27  2  0  0  0  0
 26 48  1  0  0  0  0
 27 49  1  0  0  0  0
 28 29  2  0  0  0  0
 28 50  1  0  0  0  0
M  END
$$$$
