
 OpenBabel01122422463D

 48 51  0  0  1  0  0  0  0  0999 V2000
    1.0752    0.1153    0.4442 C   0  0  0  0  0  0  0  0  0  0  0  0
    2.4903    0.2740    0.5618 O   0  0  0  0  0  0  0  0  0  0  0  0
    3.0475    1.2039   -0.2690 C   0  0  0  0  0  0  0  0  0  0  0  0
    2.4055    1.8899   -1.0613 O   0  0  0  0  0  0  0  0  0  0  0  0
    4.5891    1.1789   -0.1491 C   0  0  3  0  0  0  0  0  0  0  0  0
    5.1497    0.3505   -1.2052 N   0  0  0  0  0  0  0  0  0  0  0  0
    5.2594   -1.0150   -1.0418 C   0  0  0  0  0  0  0  0  0  0  0  0
    4.9499   -1.5689    0.0039 O   0  0  0  0  0  0  0  0  0  0  0  0
    5.8038   -1.7612   -2.2340 C   0  0  0  0  0  0  0  0  0  0  0  0
    6.0335   -0.9601   -3.3215 N   0  0  0  0  0  0  0  0  0  0  0  0
    6.6074   -1.5412   -4.3918 C   0  0  0  0  0  0  0  0  0  0  0  0
    6.9821   -2.8735   -4.4345 C   0  0  0  0  0  0  0  0  0  0  0  0
    6.7340   -3.6889   -3.3234 C   0  0  0  0  0  0  0  0  0  0  0  0
    7.1100   -5.0380   -3.3261 C   0  0  0  0  0  0  0  0  0  0  0  0
    6.8390   -5.8161   -2.2152 C   0  0  0  0  0  0  0  0  0  0  0  0
    6.2123   -5.3515   -1.1210 N   0  0  0  0  0  0  0  0  0  0  0  0
    5.8624   -4.0402   -1.1277 C   0  0  0  0  0  0  0  0  0  0  0  0
    6.1055   -3.1432   -2.1865 C   0  0  0  0  0  0  0  0  0  0  0  0
    5.1858    2.5809   -0.1788 C   0  0  0  0  0  0  0  0  0  0  0  0
    5.9211    3.0601    0.9121 C   0  0  0  0  0  0  0  0  0  0  0  0
    6.3658    4.3798    0.9318 C   0  0  0  0  0  0  0  0  0  0  0  0
    6.0697    5.2390   -0.1307 C   0  0  0  0  0  0  0  0  0  0  0  0
    5.3617    4.7941   -1.2601 C   0  0  0  0  0  0  0  0  0  0  0  0
    4.9980    5.7086   -2.3717 C   0  0  0  0  0  0  0  0  0  0  0  0
    5.7801    6.8227   -2.7050 C   0  0  0  0  0  0  0  0  0  0  0  0
    5.3770    7.6600   -3.7370 C   0  0  0  0  0  0  0  0  0  0  0  0
    4.2652    7.4673   -4.4730 N   0  0  0  0  0  0  0  0  0  0  0  0
    3.5185    6.3935   -4.1537 C   0  0  0  0  0  0  0  0  0  0  0  0
    3.8331    5.5104   -3.1314 C   0  0  0  0  0  0  0  0  0  0  0  0
    4.9650    3.4435   -1.2697 C   0  0  0  0  0  0  0  0  0  0  0  0
    0.8259   -0.9158    0.7086 H   0  0  0  0  0  0  0  0  0  0  0  0
    0.7109    0.2982   -0.5716 H   0  0  0  0  0  0  0  0  0  0  0  0
    0.5831    0.7886    1.1512 H   0  0  0  0  0  0  0  0  0  0  0  0
    4.8353    0.7265    0.8202 H   0  0  0  0  0  0  0  0  0  0  0  0
    5.3224    0.7238   -2.1349 H   0  0  0  0  0  0  0  0  0  0  0  0
    6.7772   -0.8886   -5.2443 H   0  0  0  0  0  0  0  0  0  0  0  0
    7.4599   -3.2657   -5.3275 H   0  0  0  0  0  0  0  0  0  0  0  0
    7.6188   -5.4864   -4.1757 H   0  0  0  0  0  0  0  0  0  0  0  0
    7.1250   -6.8630   -2.1748 H   0  0  0  0  0  0  0  0  0  0  0  0
    5.3538   -3.7408   -0.2159 H   0  0  0  0  0  0  0  0  0  0  0  0
    6.1358    2.4176    1.7634 H   0  0  0  0  0  0  0  0  0  0  0  0
    6.9190    4.7531    1.7901 H   0  0  0  0  0  0  0  0  0  0  0  0
    6.3826    6.2770   -0.0445 H   0  0  0  0  0  0  0  0  0  0  0  0
    6.7013    7.0512   -2.1800 H   0  0  0  0  0  0  0  0  0  0  0  0
    5.9602    8.5370   -4.0023 H   0  0  0  0  0  0  0  0  0  0  0  0
    2.6245    6.2524   -4.7550 H   0  0  0  0  0  0  0  0  0  0  0  0
    3.1514    4.6892   -2.9312 H   0  0  0  0  0  0  0  0  0  0  0  0
    4.4284    3.0506   -2.1316 H   0  0  0  0  0  0  0  0  0  0  0  0
  1  2  1  0  0  0  0
  1 31  1  0  0  0  0
  1 32  1  0  0  0  0
  1 33  1  0  0  0  0
  2  3  1  0  0  0  0
  3  4  2  0  0  0  0
  3  5  1  0  0  0  0
  5  6  1  0  0  0  0
  5 19  1  0  0  0  0
  5 34  1  0  0  0  0
  6  7  1  0  0  0  0
  6 35  1  0  0  0  0
  7  8  2  0  0  0  0
  7  9  1  0  0  0  0
  9 10  2  0  0  0  0
  9 18  1  0  0  0  0
 10 11  1  0  0  0  0
 11 12  2  0  0  0  0
 11 36  1  0  0  0  0
 12 13  1  0  0  0  0
 12 37  1  0  0  0  0
 13 14  2  0  0  0  0
 13 18  1  0  0  0  0
 14 15  1  0  0  0  0
 14 38  1  0  0  0  0
 15 16  2  0  0  0  0
 15 39  1  0  0  0  0
 16 17  1  0  0  0  0
 17 18  2  0  0  0  0
 17 40  1  0  0  0  0
 19 20  2  0  0  0  0
 19 30  1  0  0  0  0
 20 21  1  0  0  0  0
 20 41  1  0  0  0  0
 21 22  2  0  0  0  0
 21 42  1  0  0  0  0
 22 23  1  0  0  0  0
 22 43  1  0  0  0  0
 23 24  1  0  0  0  0
 23 30  2  0  0  0  0
 24 25  2  0  0  0  0
 24 29  1  0  0  0  0
 25 26  1  0  0  0  0
 25 44  1  0  0  0  0
 26 27  2  0  0  0  0
 26 45  1  0  0  0  0
 27 28  1  0  0  0  0
 28 29  2  0  0  0  0
 28 46  1  0  0  0  0
 29 47  1  0  0  0  0
 30 48  1  0  0  0  0
M  END
$$$$
