
 OpenBabel01122422523D

 41 44  0  0  0  0  0  0  0  0999 V2000
    1.5649    0.5289    0.2088 O   0  0  0  0  0  0  0  0  0  0  0  0
    2.6347   -0.0541    0.0862 C   0  0  0  0  0  0  0  0  0  0  0  0
    2.8719   -1.1651   -0.7149 N   0  0  0  0  0  0  0  0  0  0  0  0
    2.1027   -1.6412   -1.7511 C   0  0  0  0  0  0  0  0  0  0  0  0
    1.0972   -0.9710   -2.3244 C   0  0  0  0  0  0  0  0  0  0  0  0
    0.2860   -1.5939   -3.4048 C   0  0  0  0  0  0  0  0  0  0  0  0
   -0.5948   -0.9109   -3.9212 O   0  0  0  0  0  0  0  0  0  0  0  0
    0.5630   -2.9446   -3.6733 N   0  0  0  0  0  0  0  0  0  0  0  0
   -0.3865   -3.6929   -4.4292 C   0  0  0  0  0  0  0  0  0  0  0  0
   -0.8275   -3.2684   -5.6859 C   0  0  0  0  0  0  0  0  0  0  0  0
   -1.8043   -3.9893   -6.3633 C   0  0  0  0  0  0  0  0  0  0  0  0
   -2.3765   -5.1189   -5.7780 C   0  0  0  0  0  0  0  0  0  0  0  0
   -1.9483   -5.5434   -4.5195 C   0  0  0  0  0  0  0  0  0  0  0  0
   -0.9418   -4.8489   -3.8582 C   0  0  0  0  0  0  0  0  0  0  0  0
    1.6751   -3.5690   -3.1318 C   0  0  0  0  0  0  0  0  0  0  0  0
    2.4726   -2.9446   -2.2606 C   0  0  0  0  0  0  0  0  0  0  0  0
    3.8856    0.5558    0.6555 C   0  0  0  0  0  0  0  0  0  0  0  0
    3.9938    1.9058    0.2902 C   0  0  0  0  0  0  0  0  0  0  0  0
    5.1779    2.3533   -0.2772 C   0  0  0  0  0  0  0  0  0  0  0  0
    6.2435    1.4665   -0.4068 C   0  0  0  0  0  0  0  0  0  0  0  0
    7.3105    1.8464   -1.1233 F   0  0  0  0  0  0  0  0  0  0  0  0
    6.2129    0.1954    0.1880 C   0  0  0  0  0  0  0  0  0  0  0  0
    7.2944   -0.6847    0.1581 C   0  0  0  0  0  0  0  0  0  0  0  0
    7.3202   -1.8842    0.7826 N   0  0  0  0  0  0  0  0  0  0  0  0
    6.2252   -2.2318    1.4846 C   0  0  0  0  0  0  0  0  0  0  0  0
    5.0659   -1.4750    1.5116 C   0  0  0  0  0  0  0  0  0  0  0  0
    5.0397   -0.2458    0.8185 C   0  0  0  0  0  0  0  0  0  0  0  0
    3.7442   -1.6590   -0.5824 H   0  0  0  0  0  0  0  0  0  0  0  0
    0.7912    0.0284   -2.0407 H   0  0  0  0  0  0  0  0  0  0  0  0
   -0.4017   -2.3789   -6.1451 H   0  0  0  0  0  0  0  0  0  0  0  0
   -2.1380   -3.6635   -7.3475 H   0  0  0  0  0  0  0  0  0  0  0  0
   -3.1705   -5.6571   -6.2884 H   0  0  0  0  0  0  0  0  0  0  0  0
   -2.4228   -6.3992   -4.0407 H   0  0  0  0  0  0  0  0  0  0  0  0
   -0.6489   -5.1625   -2.8595 H   0  0  0  0  0  0  0  0  0  0  0  0
    1.8985   -4.5723   -3.4862 H   0  0  0  0  0  0  0  0  0  0  0  0
    3.3739   -3.4342   -1.9057 H   0  0  0  0  0  0  0  0  0  0  0  0
    3.1090    2.5416    0.2720 H   0  0  0  0  0  0  0  0  0  0  0  0
    5.2383    3.3464   -0.7071 H   0  0  0  0  0  0  0  0  0  0  0  0
    8.1977   -0.4405   -0.3971 H   0  0  0  0  0  0  0  0  0  0  0  0
    6.3049   -3.1649    2.0357 H   0  0  0  0  0  0  0  0  0  0  0  0
    4.2113   -1.8195    2.0891 H   0  0  0  0  0  0  0  0  0  0  0  0
  1  2  2  0  0  0  0
  2  3  1  0  0  0  0
  2 17  1  0  0  0  0
  3  4  1  0  0  0  0
  3 28  1  0  0  0  0
  4  5  2  0  0  0  0
  4 16  1  0  0  0  0
  5  6  1  0  0  0  0
  5 29  1  0  0  0  0
  6  7  2  0  0  0  0
  6  8  1  0  0  0  0
  8  9  1  0  0  0  0
  8 15  1  0  0  0  0
  9 10  2  0  0  0  0
  9 14  1  0  0  0  0
 10 11  1  0  0  0  0
 10 30  1  0  0  0  0
 11 12  2  0  0  0  0
 11 31  1  0  0  0  0
 12 13  1  0  0  0  0
 12 32  1  0  0  0  0
 13 14  2  0  0  0  0
 13 33  1  0  0  0  0
 14 34  1  0  0  0  0
 15 16  2  0  0  0  0
 15 35  1  0  0  0  0
 16 36  1  0  0  0  0
 17 18  2  0  0  0  0
 17 27  1  0  0  0  0
 18 19  1  0  0  0  0
 18 37  1  0  0  0  0
 19 20  2  0  0  0  0
 19 38  1  0  0  0  0
 20 21  1  0  0  0  0
 20 22  1  0  0  0  0
 22 23  2  0  0  0  0
 22 27  1  0  0  0  0
 23 24  1  0  0  0  0
 23 39  1  0  0  0  0
 24 25  2  0  0  0  0
 25 26  1  0  0  0  0
 25 40  1  0  0  0  0
 26 27  2  0  0  0  0
 26 41  1  0  0  0  0
M  END
$$$$
