
 OpenBabel01122422523D

 43 46  0  0  0  0  0  0  0  0999 V2000
    1.0376    0.2687   -0.0817 O   0  0  0  0  0  0  0  0  0  0  0  0
    2.1734   -0.1600    0.1006 C   0  0  0  0  0  0  0  0  0  0  0  0
    2.8409   -0.1012    1.3085 N   0  0  0  0  0  0  0  0  0  0  0  0
    2.2591    0.5345    2.4144 C   0  0  0  0  0  0  0  0  0  0  0  0
    1.0145    0.1613    2.9045 C   0  0  0  0  0  0  0  0  0  0  0  0
    0.4539    0.7393    3.9932 N   0  0  0  0  0  0  0  0  0  0  0  0
    1.1181    1.7869    4.5318 C   0  0  0  0  0  0  0  0  0  0  0  0
    0.5851    2.5181    5.5954 C   0  0  0  0  0  0  0  0  0  0  0  0
   -0.5624    2.1230    6.1719 F   0  0  0  0  0  0  0  0  0  0  0  0
    1.1871    3.6763    6.0813 C   0  0  0  0  0  0  0  0  0  0  0  0
    2.3745    4.1104    5.5130 C   0  0  0  0  0  0  0  0  0  0  0  0
    2.9644    3.3514    4.4988 C   0  0  0  0  0  0  0  0  0  0  0  0
    2.3669    2.1945    4.0006 C   0  0  0  0  0  0  0  0  0  0  0  0
    2.9727    1.5180    2.9968 N   0  0  0  0  0  0  0  0  0  0  0  0
    2.9726   -0.7454   -1.0272 C   0  0  0  0  0  0  0  0  0  0  0  0
    2.4578   -0.6682   -2.2616 C   0  0  0  0  0  0  0  0  0  0  0  0
    3.1754   -1.3030   -3.3943 C   0  0  0  0  0  0  0  0  0  0  0  0
    2.7123   -1.2283   -4.5194 O   0  0  0  0  0  0  0  0  0  0  0  0
    4.4472   -2.0131   -3.0666 C   0  0  0  0  0  0  0  0  0  0  0  0
    5.2079   -2.6994   -3.9927 O   0  0  0  0  0  0  0  0  0  0  0  0
    5.1785   -2.2191   -5.3418 C   0  0  0  0  0  0  0  0  0  0  0  0
    6.5015   -2.5675   -5.9870 C   0  0  0  0  0  0  0  0  0  0  0  0
    6.9051   -3.9048   -6.1173 C   0  0  0  0  0  0  0  0  0  0  0  0
    8.1410   -4.2209   -6.6855 C   0  0  0  0  0  0  0  0  0  0  0  0
    8.9883   -3.2053   -7.1249 C   0  0  0  0  0  0  0  0  0  0  0  0
    8.5948   -1.8737   -7.0101 C   0  0  0  0  0  0  0  0  0  0  0  0
    7.3553   -1.5561   -6.4515 C   0  0  0  0  0  0  0  0  0  0  0  0
    4.8321   -1.9996   -1.7820 C   0  0  0  0  0  0  0  0  0  0  0  0
    4.1729   -1.3769   -0.7456 O   0  0  0  0  0  0  0  0  0  0  0  0
    3.8504   -0.0692    1.2752 H   0  0  0  0  0  0  0  0  0  0  0  0
    0.4391   -0.6438    2.4608 H   0  0  0  0  0  0  0  0  0  0  0  0
    0.7108    4.2324    6.8834 H   0  0  0  0  0  0  0  0  0  0  0  0
    2.8407    5.0325    5.8519 H   0  0  0  0  0  0  0  0  0  0  0  0
    3.9004    3.6902    4.0591 H   0  0  0  0  0  0  0  0  0  0  0  0
    1.5183   -0.1786   -2.4945 H   0  0  0  0  0  0  0  0  0  0  0  0
    5.0429   -1.1316   -5.3738 H   0  0  0  0  0  0  0  0  0  0  0  0
    4.3657   -2.7043   -5.8947 H   0  0  0  0  0  0  0  0  0  0  0  0
    6.2597   -4.7065   -5.7644 H   0  0  0  0  0  0  0  0  0  0  0  0
    8.4457   -5.2599   -6.7796 H   0  0  0  0  0  0  0  0  0  0  0  0
    9.9550   -3.4512   -7.5562 H   0  0  0  0  0  0  0  0  0  0  0  0
    9.2550   -1.0809   -7.3524 H   0  0  0  0  0  0  0  0  0  0  0  0
    7.0641   -0.5108   -6.3755 H   0  0  0  0  0  0  0  0  0  0  0  0
    5.7261   -2.4993   -1.4320 H   0  0  0  0  0  0  0  0  0  0  0  0
  1  2  2  0  0  0  0
  2  3  1  0  0  0  0
  2 15  1  0  0  0  0
  3  4  1  0  0  0  0
  3 30  1  0  0  0  0
  4  5  2  0  0  0  0
  4 14  1  0  0  0  0
  5  6  1  0  0  0  0
  5 31  1  0  0  0  0
  6  7  2  0  0  0  0
  7  8  1  0  0  0  0
  7 13  1  0  0  0  0
  8  9  1  0  0  0  0
  8 10  2  0  0  0  0
 10 11  1  0  0  0  0
 10 32  1  0  0  0  0
 11 12  2  0  0  0  0
 11 33  1  0  0  0  0
 12 13  1  0  0  0  0
 12 34  1  0  0  0  0
 13 14  2  0  0  0  0
 15 16  2  0  0  0  0
 15 29  1  0  0  0  0
 16 17  1  0  0  0  0
 16 35  1  0  0  0  0
 17 18  2  0  0  0  0
 17 19  1  0  0  0  0
 19 20  1  0  0  0  0
 19 28  2  0  0  0  0
 20 21  1  0  0  0  0
 21 22  1  0  0  0  0
 21 36  1  0  0  0  0
 21 37  1  0  0  0  0
 22 23  2  0  0  0  0
 22 27  1  0  0  0  0
 23 24  1  0  0  0  0
 23 38  1  0  0  0  0
 24 25  2  0  0  0  0
 24 39  1  0  0  0  0
 25 26  1  0  0  0  0
 25 40  1  0  0  0  0
 26 27  2  0  0  0  0
 26 41  1  0  0  0  0
 27 42  1  0  0  0  0
 28 29  1  0  0  0  0
 28 43  1  0  0  0  0
M  END
$$$$
