
 OpenBabel01122422523D

 50 53  0  0  0  0  0  0  0  0999 V2000
    0.0234   -4.4247   -3.1478 C   0  0  0  0  0  0  0  0  0  0  0  0
    0.4564   -3.1571   -3.2186 C   0  0  0  0  0  0  0  0  0  0  0  0
   -0.1909   -2.0296   -2.6322 C   0  0  0  0  0  0  0  0  0  0  0  0
    0.2645   -0.7166   -2.6396 C   0  0  0  0  0  0  0  0  0  0  0  0
    1.4801   -0.0959   -3.2393 C   0  0  0  0  0  0  0  0  0  0  0  0
    1.4600   -0.2705   -4.6750 N   0  0  0  0  0  0  0  0  0  0  0  0
    0.8465    0.6404   -5.5106 C   0  0  0  0  0  0  0  0  0  0  0  0
    0.3354    1.6811   -5.1157 O   0  0  0  0  0  0  0  0  0  0  0  0
    0.8806    0.3305   -6.9700 C   0  0  0  0  0  0  0  0  0  0  0  0
    0.9097   -0.9828   -7.4577 C   0  0  0  0  0  0  0  0  0  0  0  0
    0.9753   -1.2220   -8.8375 C   0  0  0  0  0  0  0  0  0  0  0  0
    1.0460   -0.1458   -9.7331 C   0  0  0  0  0  0  0  0  0  0  0  0
    1.3168   -0.4075  -11.1093 N   0  0  0  0  0  0  0  0  0  0  0  0
    0.8402   -1.5513  -11.6713 N   0  0  0  0  0  0  0  0  0  0  0  0
    1.1122   -1.4259  -12.9670 C   0  0  0  0  0  0  0  0  0  0  0  0
    1.8787   -0.2871  -13.2425 C   0  0  0  0  0  0  0  0  0  0  0  0
    2.0956    0.3285  -12.0168 C   0  0  0  0  0  0  0  0  0  0  0  0
    3.0019    1.4514  -11.7058 C   0  0  0  0  0  0  0  0  0  0  0  0
    3.2500    2.4533  -12.6581 C   0  0  0  0  0  0  0  0  0  0  0  0
    4.0606    3.5515  -12.3478 C   0  0  0  0  0  0  0  0  0  0  0  0
    4.6088    3.6663  -11.0773 C   0  0  0  0  0  0  0  0  0  0  0  0
    5.3375    4.7442  -10.7622 F   0  0  0  0  0  0  0  0  0  0  0  0
    4.4180    2.6719  -10.1328 C   0  0  0  0  0  0  0  0  0  0  0  0
    3.6626    1.5472  -10.4679 C   0  0  0  0  0  0  0  0  0  0  0  0
    0.9223    1.1630   -9.2526 C   0  0  0  0  0  0  0  0  0  0  0  0
    0.8544    1.3992   -7.8750 C   0  0  0  0  0  0  0  0  0  0  0  0
   -0.6584   -0.0206   -1.8849 N   0  0  0  0  0  0  0  0  0  0  0  0
   -0.6364    1.3494   -1.4259 C   0  0  0  0  0  0  0  0  0  0  0  0
   -1.6880   -0.7799   -1.4561 N   0  0  0  0  0  0  0  0  0  0  0  0
   -1.4044   -1.9944   -1.9182 C   0  0  0  0  0  0  0  0  0  0  0  0
    0.5906   -5.2285   -3.6057 H   0  0  0  0  0  0  0  0  0  0  0  0
   -0.8882   -4.7032   -2.6304 H   0  0  0  0  0  0  0  0  0  0  0  0
    1.3914   -2.9887   -3.7451 H   0  0  0  0  0  0  0  0  0  0  0  0
    2.3773   -0.5962   -2.8582 H   0  0  0  0  0  0  0  0  0  0  0  0
    1.5832    0.9684   -3.0204 H   0  0  0  0  0  0  0  0  0  0  0  0
    2.0203   -1.0124   -5.0656 H   0  0  0  0  0  0  0  0  0  0  0  0
    0.8743   -1.8330   -6.7825 H   0  0  0  0  0  0  0  0  0  0  0  0
    1.0288   -2.2484   -9.1975 H   0  0  0  0  0  0  0  0  0  0  0  0
    0.7711   -2.1909  -13.6544 H   0  0  0  0  0  0  0  0  0  0  0  0
    2.2894    0.0045  -14.1989 H   0  0  0  0  0  0  0  0  0  0  0  0
    2.8100    2.3992  -13.6511 H   0  0  0  0  0  0  0  0  0  0  0  0
    4.2547    4.3240  -13.0849 H   0  0  0  0  0  0  0  0  0  0  0  0
    4.8501    2.7718   -9.1424 H   0  0  0  0  0  0  0  0  0  0  0  0
    3.5749    0.7610   -9.7219 H   0  0  0  0  0  0  0  0  0  0  0  0
    0.8948    2.0158   -9.9282 H   0  0  0  0  0  0  0  0  0  0  0  0
    0.8031    2.4234   -7.5098 H   0  0  0  0  0  0  0  0  0  0  0  0
    0.2965    1.8437   -1.6882 H   0  0  0  0  0  0  0  0  0  0  0  0
   -0.7345    1.3396   -0.3350 H   0  0  0  0  0  0  0  0  0  0  0  0
   -1.4841    1.8748   -1.8713 H   0  0  0  0  0  0  0  0  0  0  0  0
   -2.0890   -2.8025   -1.6978 H   0  0  0  0  0  0  0  0  0  0  0  0
  1  2  2  0  0  0  0
  1 31  1  0  0  0  0
  1 32  1  0  0  0  0
  2  3  1  0  0  0  0
  2 33  1  0  0  0  0
  3  4  2  0  0  0  0
  3 30  1  0  0  0  0
  4  5  1  0  0  0  0
  4 27  1  0  0  0  0
  5  6  1  0  0  0  0
  5 34  1  0  0  0  0
  5 35  1  0  0  0  0
  6  7  1  0  0  0  0
  6 36  1  0  0  0  0
  7  8  2  0  0  0  0
  7  9  1  0  0  0  0
  9 10  2  0  0  0  0
  9 26  1  0  0  0  0
 10 11  1  0  0  0  0
 10 37  1  0  0  0  0
 11 12  2  0  0  0  0
 11 38  1  0  0  0  0
 12 13  1  0  0  0  0
 12 25  1  0  0  0  0
 13 14  1  0  0  0  0
 13 17  1  0  0  0  0
 14 15  2  0  0  0  0
 15 16  1  0  0  0  0
 15 39  1  0  0  0  0
 16 17  2  0  0  0  0
 16 40  1  0  0  0  0
 17 18  1  0  0  0  0
 18 19  2  0  0  0  0
 18 24  1  0  0  0  0
 19 20  1  0  0  0  0
 19 41  1  0  0  0  0
 20 21  2  0  0  0  0
 20 42  1  0  0  0  0
 21 22  1  0  0  0  0
 21 23  1  0  0  0  0
 23 24  2  0  0  0  0
 23 43  1  0  0  0  0
 24 44  1  0  0  0  0
 25 26  2  0  0  0  0
 25 45  1  0  0  0  0
 26 46  1  0  0  0  0
 27 28  1  0  0  0  0
 27 29  1  0  0  0  0
 28 47  1  0  0  0  0
 28 48  1  0  0  0  0
 28 49  1  0  0  0  0
 29 30  2  0  0  0  0
 30 50  1  0  0  0  0
M  END
$$$$
