
 OpenBabel01122422523D

 42 45  0  0  0  0  0  0  0  0999 V2000
    2.2849    0.9318    1.9241 O   0  0  0  0  0  0  0  0  0  0  0  0
    2.9698    0.4692    1.0174 C   0  0  0  0  0  0  0  0  0  0  0  0
    3.0915   -0.8785    0.7583 N   0  0  0  0  0  0  0  0  0  0  0  0
    2.3822   -1.8695    1.5250 C   0  0  0  0  0  0  0  0  0  0  0  0
    3.3150   -2.8009    2.2424 C   0  0  0  0  0  0  0  0  0  0  0  0
    3.2710   -4.1662    2.0047 C   0  0  0  0  0  0  0  0  0  0  0  0
    4.0376   -5.0676    2.6502 N   0  0  0  0  0  0  0  0  0  0  0  0
    4.8862   -4.5835    3.5905 C   0  0  0  0  0  0  0  0  0  0  0  0
    5.0414   -3.2353    3.9259 C   0  0  0  0  0  0  0  0  0  0  0  0
    5.9912   -2.7905    4.9687 C   0  0  0  0  0  0  0  0  0  0  0  0
    5.7517   -1.6674    5.7753 C   0  0  0  0  0  0  0  0  0  0  0  0
    6.6692   -1.2782    6.7536 C   0  0  0  0  0  0  0  0  0  0  0  0
    7.8161   -2.0318    6.9172 C   0  0  0  0  0  0  0  0  0  0  0  0
    8.0980   -3.1210    6.1776 N   0  0  0  0  0  0  0  0  0  0  0  0
    7.1893   -3.4654    5.2294 C   0  0  0  0  0  0  0  0  0  0  0  0
    4.2218   -2.3429    3.2129 C   0  0  0  0  0  0  0  0  0  0  0  0
    3.7289    1.3645    0.0984 C   0  0  0  0  0  0  0  0  0  0  0  0
    4.5394    0.7582   -0.8095 N   0  0  0  0  0  0  0  0  0  0  0  0
    5.2313    1.5532   -1.6518 C   0  0  0  0  0  0  0  0  0  0  0  0
    6.2069    1.0143   -2.4285 C   0  0  0  0  0  0  0  0  0  0  0  0
    6.9748    1.8262   -3.2696 C   0  0  0  0  0  0  0  0  0  0  0  0
    8.1415    1.3689   -3.7478 F   0  0  0  0  0  0  0  0  0  0  0  0
    6.6043    3.1338   -3.5226 C   0  0  0  0  0  0  0  0  0  0  0  0
    5.6608    3.7047   -2.6935 C   0  0  0  0  0  0  0  0  0  0  0  0
    5.4071    5.0187   -2.8127 F   0  0  0  0  0  0  0  0  0  0  0  0
    5.0243    2.9521   -1.6970 C   0  0  0  0  0  0  0  0  0  0  0  0
    4.2353    3.5445   -0.7040 C   0  0  0  0  0  0  0  0  0  0  0  0
    3.5890    2.7385    0.2190 C   0  0  0  0  0  0  0  0  0  0  0  0
    3.6691   -1.1492   -0.0291 H   0  0  0  0  0  0  0  0  0  0  0  0
    1.7497   -2.4170    0.8156 H   0  0  0  0  0  0  0  0  0  0  0  0
    1.7121   -1.3985    2.2526 H   0  0  0  0  0  0  0  0  0  0  0  0
    2.5917   -4.5940    1.2719 H   0  0  0  0  0  0  0  0  0  0  0  0
    5.4489   -5.3633    4.0981 H   0  0  0  0  0  0  0  0  0  0  0  0
    4.8393   -1.0862    5.6662 H   0  0  0  0  0  0  0  0  0  0  0  0
    6.4862   -0.4090    7.3755 H   0  0  0  0  0  0  0  0  0  0  0  0
    8.5575   -1.7735    7.6680 H   0  0  0  0  0  0  0  0  0  0  0  0
    7.4836   -4.3423    4.6575 H   0  0  0  0  0  0  0  0  0  0  0  0
    4.2768   -1.2720    3.4034 H   0  0  0  0  0  0  0  0  0  0  0  0
    6.4646   -0.0422   -2.3411 H   0  0  0  0  0  0  0  0  0  0  0  0
    7.1066    3.7198   -4.2853 H   0  0  0  0  0  0  0  0  0  0  0  0
    4.1598    4.6268   -0.6278 H   0  0  0  0  0  0  0  0  0  0  0  0
    2.9797    3.1687    1.0074 H   0  0  0  0  0  0  0  0  0  0  0  0
  1  2  2  0  0  0  0
  2  3  1  0  0  0  0
  2 17  1  0  0  0  0
  3  4  1  0  0  0  0
  3 29  1  0  0  0  0
  4  5  1  0  0  0  0
  4 30  1  0  0  0  0
  4 31  1  0  0  0  0
  5  6  2  0  0  0  0
  5 16  1  0  0  0  0
  6  7  1  0  0  0  0
  6 32  1  0  0  0  0
  7  8  2  0  0  0  0
  8  9  1  0  0  0  0
  8 33  1  0  0  0  0
  9 10  1  0  0  0  0
  9 16  2  0  0  0  0
 10 11  2  0  0  0  0
 10 15  1  0  0  0  0
 11 12  1  0  0  0  0
 11 34  1  0  0  0  0
 12 13  2  0  0  0  0
 12 35  1  0  0  0  0
 13 14  1  0  0  0  0
 13 36  1  0  0  0  0
 14 15  2  0  0  0  0
 15 37  1  0  0  0  0
 16 38  1  0  0  0  0
 17 18  2  0  0  0  0
 17 28  1  0  0  0  0
 18 19  1  0  0  0  0
 19 20  2  0  0  0  0
 19 26  1  0  0  0  0
 20 21  1  0  0  0  0
 20 39  1  0  0  0  0
 21 22  1  0  0  0  0
 21 23  2  0  0  0  0
 23 24  1  0  0  0  0
 23 40  1  0  0  0  0
 24 25  1  0  0  0  0
 24 26  2  0  0  0  0
 26 27  1  0  0  0  0
 27 28  2  0  0  0  0
 27 41  1  0  0  0  0
 28 42  1  0  0  0  0
M  END
$$$$
