
 OpenBabel01122422523D

 53 56  0  0  0  0  0  0  0  0999 V2000
    1.3284    0.4073    0.3228 O   0  0  0  0  0  0  0  0  0  0  0  0
    2.2819   -0.2651   -0.0426 C   0  0  0  0  0  0  0  0  0  0  0  0
    2.7853   -1.3458    0.5979 O   0  0  0  0  0  0  0  0  0  0  0  0
    2.1411   -1.7105    1.8303 C   0  0  0  0  0  0  0  0  0  0  0  0
    1.6004   -3.1140    1.7181 C   0  0  0  0  0  0  0  0  0  0  0  0
    2.3971   -4.2199    2.0484 C   0  0  0  0  0  0  0  0  0  0  0  0
    1.8945   -5.5176    1.9268 C   0  0  0  0  0  0  0  0  0  0  0  0
    0.5938   -5.7233    1.4704 C   0  0  0  0  0  0  0  0  0  0  0  0
   -0.2067   -4.6321    1.1381 C   0  0  0  0  0  0  0  0  0  0  0  0
    0.2940   -3.3339    1.2586 C   0  0  0  0  0  0  0  0  0  0  0  0
    3.0559    0.0459   -1.2841 C   0  0  0  0  0  0  0  0  0  0  0  0
    2.6818    1.1682   -2.0386 C   0  0  0  0  0  0  0  0  0  0  0  0
    3.3695    1.5077   -3.2127 C   0  0  0  0  0  0  0  0  0  0  0  0
    4.4434    0.7281   -3.6625 C   0  0  0  0  0  0  0  0  0  0  0  0
    5.1489    1.0493   -4.9598 C   0  0  0  0  0  0  0  0  0  0  0  0
    6.2572    1.9569   -4.8063 N   0  0  0  0  0  0  0  0  0  0  0  0
    7.0869    2.2550   -5.8721 C   0  0  0  0  0  0  0  0  0  0  0  0
    6.9403    1.7710   -6.9912 O   0  0  0  0  0  0  0  0  0  0  0  0
    8.1489    3.2063   -5.5625 C   0  0  0  0  0  0  0  0  0  0  0  0
    9.0912    3.7391   -6.4229 C   0  0  0  0  0  0  0  0  0  0  0  0
    9.8376    4.5654   -5.6364 N   0  0  0  0  0  0  0  0  0  0  0  0
   10.9134    5.4621   -6.0302 C   0  0  0  0  0  0  0  0  0  0  0  0
   12.2655    4.8090   -5.9638 C   0  0  0  0  0  0  0  0  0  0  0  0
   13.0936    4.7272   -7.0893 C   0  0  0  0  0  0  0  0  0  0  0  0
   14.3428    4.1191   -6.9889 C   0  0  0  0  0  0  0  0  0  0  0  0
   14.7336    3.6213   -5.7583 C   0  0  0  0  0  0  0  0  0  0  0  0
   13.9769    3.7059   -4.6450 N   0  0  0  0  0  0  0  0  0  0  0  0
   12.7667    4.2972   -4.7690 C   0  0  0  0  0  0  0  0  0  0  0  0
    9.3840    4.5686   -4.3681 N   0  0  0  0  0  0  0  0  0  0  0  0
    8.3545    3.7334   -4.3062 N   0  0  0  0  0  0  0  0  0  0  0  0
    4.8267   -0.3835   -2.8963 C   0  0  0  0  0  0  0  0  0  0  0  0
    4.1357   -0.7292   -1.7237 C   0  0  0  0  0  0  0  0  0  0  0  0
    1.3410   -1.0231    2.1304 H   0  0  0  0  0  0  0  0  0  0  0  0
    2.8949   -1.6668    2.6253 H   0  0  0  0  0  0  0  0  0  0  0  0
    3.4148   -4.0770    2.4042 H   0  0  0  0  0  0  0  0  0  0  0  0
    2.5188   -6.3689    2.1858 H   0  0  0  0  0  0  0  0  0  0  0  0
    0.2048   -6.7334    1.3719 H   0  0  0  0  0  0  0  0  0  0  0  0
   -1.2214   -4.7915    0.7823 H   0  0  0  0  0  0  0  0  0  0  0  0
   -0.3419   -2.4912    0.9935 H   0  0  0  0  0  0  0  0  0  0  0  0
    1.8409    1.7825   -1.7186 H   0  0  0  0  0  0  0  0  0  0  0  0
    3.0414    2.3751   -3.7835 H   0  0  0  0  0  0  0  0  0  0  0  0
    4.4450    1.4881   -5.6774 H   0  0  0  0  0  0  0  0  0  0  0  0
    5.5224    0.1267   -5.4215 H   0  0  0  0  0  0  0  0  0  0  0  0
    6.3854    2.4738   -3.9397 H   0  0  0  0  0  0  0  0  0  0  0  0
    9.2734    3.5943   -7.4787 H   0  0  0  0  0  0  0  0  0  0  0  0
   10.8829    6.3409   -5.3758 H   0  0  0  0  0  0  0  0  0  0  0  0
   10.6869    5.8037   -7.0472 H   0  0  0  0  0  0  0  0  0  0  0  0
   12.7789    5.1324   -8.0481 H   0  0  0  0  0  0  0  0  0  0  0  0
   14.9969    4.0336   -7.8498 H   0  0  0  0  0  0  0  0  0  0  0  0
   15.6932    3.1282   -5.6303 H   0  0  0  0  0  0  0  0  0  0  0  0
   12.1968    4.3475   -3.8431 H   0  0  0  0  0  0  0  0  0  0  0  0
    5.6576   -1.0079   -3.2214 H   0  0  0  0  0  0  0  0  0  0  0  0
    4.4467   -1.6127   -1.1712 H   0  0  0  0  0  0  0  0  0  0  0  0
  1  2  2  0  0  0  0
  2  3  1  0  0  0  0
  2 11  1  0  0  0  0
  3  4  1  0  0  0  0
  4  5  1  0  0  0  0
  4 33  1  0  0  0  0
  4 34  1  0  0  0  0
  5  6  2  0  0  0  0
  5 10  1  0  0  0  0
  6  7  1  0  0  0  0
  6 35  1  0  0  0  0
  7  8  2  0  0  0  0
  7 36  1  0  0  0  0
  8  9  1  0  0  0  0
  8 37  1  0  0  0  0
  9 10  2  0  0  0  0
  9 38  1  0  0  0  0
 10 39  1  0  0  0  0
 11 12  2  0  0  0  0
 11 32  1  0  0  0  0
 12 13  1  0  0  0  0
 12 40  1  0  0  0  0
 13 14  2  0  0  0  0
 13 41  1  0  0  0  0
 14 15  1  0  0  0  0
 14 31  1  0  0  0  0
 15 16  1  0  0  0  0
 15 42  1  0  0  0  0
 15 43  1  0  0  0  0
 16 17  1  0  0  0  0
 16 44  1  0  0  0  0
 17 18  2  0  0  0  0
 17 19  1  0  0  0  0
 19 20  2  0  0  0  0
 19 30  1  0  0  0  0
 20 21  1  0  0  0  0
 20 45  1  0  0  0  0
 21 22  1  0  0  0  0
 21 29  1  0  0  0  0
 22 23  1  0  0  0  0
 22 46  1  0  0  0  0
 22 47  1  0  0  0  0
 23 24  2  0  0  0  0
 23 28  1  0  0  0  0
 24 25  1  0  0  0  0
 24 48  1  0  0  0  0
 25 26  2  0  0  0  0
 25 49  1  0  0  0  0
 26 27  1  0  0  0  0
 26 50  1  0  0  0  0
 27 28  2  0  0  0  0
 28 51  1  0  0  0  0
 29 30  2  0  0  0  0
 31 32  2  0  0  0  0
 31 52  1  0  0  0  0
 32 53  1  0  0  0  0
M  END
$$$$
