
 OpenBabel01122422523D

 42 45  0  0  0  0  0  0  0  0999 V2000
    6.0683    4.5760    1.6032 O   0  0  0  0  0  0  0  0  0  0  0  0
    5.6744    3.6643    0.8929 C   0  0  0  0  0  0  0  0  0  0  0  0
    5.9970    3.5817   -0.4141 O   0  0  0  0  0  0  0  0  0  0  0  0
    4.7907    2.5681    1.3759 C   0  0  0  0  0  0  0  0  0  0  0  0
    4.0734    2.8181    2.4856 C   0  0  0  0  0  0  0  0  0  0  0  0
    3.2451    1.8654    3.0891 N   0  0  0  0  0  0  0  0  0  0  0  0
    2.5133    2.1790    4.2957 C   0  0  0  0  0  0  0  0  0  0  0  0
    2.1819    1.1827    5.2235 C   0  0  0  0  0  0  0  0  0  0  0  0
    1.4445    1.4702    6.3751 C   0  0  0  0  0  0  0  0  0  0  0  0
    1.0179    2.7722    6.6385 C   0  0  0  0  0  0  0  0  0  0  0  0
    0.2075    3.0340    7.8090 C   0  0  0  0  0  0  0  0  0  0  0  0
    0.1834    4.2020    8.5307 C   0  0  0  0  0  0  0  0  0  0  0  0
    0.9037    5.2624    8.2729 F   0  0  0  0  0  0  0  0  0  0  0  0
   -0.6968    4.0383    9.5790 N   0  0  0  0  0  0  0  0  0  0  0  0
   -1.0418    4.9765   10.5882 C   0  0  0  0  0  0  0  0  0  0  0  0
   -0.5432    6.2868   10.5595 C   0  0  0  0  0  0  0  0  0  0  0  0
   -0.8911    7.1872   11.5686 C   0  0  0  0  0  0  0  0  0  0  0  0
   -1.7298    6.7871   12.6066 C   0  0  0  0  0  0  0  0  0  0  0  0
   -2.2309    5.4881   12.6392 C   0  0  0  0  0  0  0  0  0  0  0  0
   -1.8931    4.5837   11.6320 C   0  0  0  0  0  0  0  0  0  0  0  0
   -1.2447    2.7892    9.5659 N   0  0  0  0  0  0  0  0  0  0  0  0
   -0.7018    2.2035    8.4976 C   0  0  0  0  0  0  0  0  0  0  0  0
    1.3741    3.7853    5.7437 C   0  0  0  0  0  0  0  0  0  0  0  0
    2.1162    3.4931    4.5908 C   0  0  0  0  0  0  0  0  0  0  0  0
    3.1113    0.5803    2.5133 C   0  0  0  0  0  0  0  0  0  0  0  0
    2.3719   -0.3305    2.8777 O   0  0  0  0  0  0  0  0  0  0  0  0
    3.9390    0.3130    1.3048 C   0  0  0  0  0  0  0  0  0  0  0  0
    4.7297    1.2548    0.7803 C   0  0  0  0  0  0  0  0  0  0  0  0
    5.5022    2.9220   -0.9300 H   0  0  0  0  0  0  0  0  0  0  0  0
    4.1593    3.7823    2.9803 H   0  0  0  0  0  0  0  0  0  0  0  0
    2.5130    0.1551    5.0950 H   0  0  0  0  0  0  0  0  0  0  0  0
    1.2220    0.6555    7.0604 H   0  0  0  0  0  0  0  0  0  0  0  0
    0.1077    6.6430    9.7684 H   0  0  0  0  0  0  0  0  0  0  0  0
   -0.5042    8.2022   11.5423 H   0  0  0  0  0  0  0  0  0  0  0  0
   -1.9932    7.4920   13.3916 H   0  0  0  0  0  0  0  0  0  0  0  0
   -2.8835    5.1754   13.4504 H   0  0  0  0  0  0  0  0  0  0  0  0
   -2.2938    3.5719   11.6793 H   0  0  0  0  0  0  0  0  0  0  0  0
   -0.9934    1.1872    8.2612 H   0  0  0  0  0  0  0  0  0  0  0  0
    1.0620    4.8142    5.9112 H   0  0  0  0  0  0  0  0  0  0  0  0
    2.3207    4.3182    3.9142 H   0  0  0  0  0  0  0  0  0  0  0  0
    3.8658   -0.6865    0.8947 H   0  0  0  0  0  0  0  0  0  0  0  0
    5.3486    1.0069   -0.0744 H   0  0  0  0  0  0  0  0  0  0  0  0
  1  2  2  0  0  0  0
  2  3  1  0  0  0  0
  2  4  1  0  0  0  0
  3 29  1  0  0  0  0
  4  5  2  0  0  0  0
  4 28  1  0  0  0  0
  5  6  1  0  0  0  0
  5 30  1  0  0  0  0
  6  7  1  0  0  0  0
  6 25  1  0  0  0  0
  7  8  2  0  0  0  0
  7 24  1  0  0  0  0
  8  9  1  0  0  0  0
  8 31  1  0  0  0  0
  9 10  2  0  0  0  0
  9 32  1  0  0  0  0
 10 11  1  0  0  0  0
 10 23  1  0  0  0  0
 11 12  2  0  0  0  0
 11 22  1  0  0  0  0
 12 13  1  0  0  0  0
 12 14  1  0  0  0  0
 14 15  1  0  0  0  0
 14 21  1  0  0  0  0
 15 16  2  0  0  0  0
 15 20  1  0  0  0  0
 16 17  1  0  0  0  0
 16 33  1  0  0  0  0
 17 18  2  0  0  0  0
 17 34  1  0  0  0  0
 18 19  1  0  0  0  0
 18 35  1  0  0  0  0
 19 20  2  0  0  0  0
 19 36  1  0  0  0  0
 20 37  1  0  0  0  0
 21 22  2  0  0  0  0
 22 38  1  0  0  0  0
 23 24  2  0  0  0  0
 23 39  1  0  0  0  0
 24 40  1  0  0  0  0
 25 26  2  0  0  0  0
 25 27  1  0  0  0  0
 27 28  2  0  0  0  0
 27 41  1  0  0  0  0
 28 42  1  0  0  0  0
M  END
$$$$
