
 OpenBabel01122422523D

 47 50  0  0  0  0  0  0  0  0999 V2000
    1.0380   -0.5714    0.3162 O   0  0  0  0  0  0  0  0  0  0  0  0
    2.1291   -0.0809    0.0622 C   0  0  0  0  0  0  0  0  0  0  0  0
    2.7233    0.9427    0.7770 N   0  0  0  0  0  0  0  0  0  0  0  0
    2.1496    1.6346    1.8689 C   0  0  0  0  0  0  0  0  0  0  0  0
    0.9674    1.2305    2.4945 C   0  0  0  0  0  0  0  0  0  0  0  0
    0.4070    1.9857    3.5258 C   0  0  0  0  0  0  0  0  0  0  0  0
    1.0635    3.1170    4.0048 C   0  0  0  0  0  0  0  0  0  0  0  0
    0.6004    3.8984    5.0401 O   0  0  0  0  0  0  0  0  0  0  0  0
   -0.1183    3.3173    6.0629 C   0  0  0  0  0  0  0  0  0  0  0  0
    0.1293    2.0368    6.5653 C   0  0  0  0  0  0  0  0  0  0  0  0
   -0.6801    1.5066    7.5728 C   0  0  0  0  0  0  0  0  0  0  0  0
   -1.7086    2.2722    8.1341 C   0  0  0  0  0  0  0  0  0  0  0  0
   -2.6040    1.6931    9.1969 C   0  0  0  0  0  0  0  0  0  0  0  0
   -2.4526    2.4011   10.4183 O   0  0  0  0  0  0  0  0  0  0  0  0
   -1.9003    3.5855    7.6801 C   0  0  0  0  0  0  0  0  0  0  0  0
   -1.1117    4.1031    6.6475 C   0  0  0  0  0  0  0  0  0  0  0  0
    2.2389    3.5374    3.3804 C   0  0  0  0  0  0  0  0  0  0  0  0
    2.7846    2.7963    2.3233 C   0  0  0  0  0  0  0  0  0  0  0  0
    2.8914   -0.5315   -1.0743 C   0  0  0  0  0  0  0  0  0  0  0  0
    4.2447   -0.7993   -1.1739 C   0  0  0  0  0  0  0  0  0  0  0  0
    4.3933   -1.4623   -2.3990 C   0  0  0  0  0  0  0  0  0  0  0  0
    3.2387   -1.5964   -3.0489 N   0  0  0  0  0  0  0  0  0  0  0  0
    2.3282   -0.9377   -2.2788 N   0  0  0  0  0  0  0  0  0  0  0  0
    1.0231   -0.7084   -2.7827 C   0  0  0  0  0  0  0  0  0  0  0  0
    0.2463    0.3845   -2.3857 C   0  0  0  0  0  0  0  0  0  0  0  0
   -1.0438    0.5270   -2.8915 C   0  0  0  0  0  0  0  0  0  0  0  0
   -1.5100   -0.4243   -3.7828 C   0  0  0  0  0  0  0  0  0  0  0  0
   -0.7736   -1.4699   -4.2170 N   0  0  0  0  0  0  0  0  0  0  0  0
    0.4831   -1.5843   -3.7163 C   0  0  0  0  0  0  0  0  0  0  0  0
    3.5985    1.3089    0.4222 H   0  0  0  0  0  0  0  0  0  0  0  0
    0.4419    0.3246    2.2135 H   0  0  0  0  0  0  0  0  0  0  0  0
   -0.5375    1.6564    3.9497 H   0  0  0  0  0  0  0  0  0  0  0  0
    0.9324    1.4255    6.1632 H   0  0  0  0  0  0  0  0  0  0  0  0
   -0.5029    0.4867    7.9073 H   0  0  0  0  0  0  0  0  0  0  0  0
   -2.3657    0.6414    9.3857 H   0  0  0  0  0  0  0  0  0  0  0  0
   -3.6507    1.7449    8.8800 H   0  0  0  0  0  0  0  0  0  0  0  0
   -1.4988    2.5398   10.5473 H   0  0  0  0  0  0  0  0  0  0  0  0
   -2.6762    4.2067    8.1244 H   0  0  0  0  0  0  0  0  0  0  0  0
   -1.2827    5.1166    6.2934 H   0  0  0  0  0  0  0  0  0  0  0  0
    2.7314    4.4466    3.7160 H   0  0  0  0  0  0  0  0  0  0  0  0
    3.6980    3.1550    1.8556 H   0  0  0  0  0  0  0  0  0  0  0  0
    5.0026   -0.6386   -0.4193 H   0  0  0  0  0  0  0  0  0  0  0  0
    5.2903   -1.8846   -2.8347 H   0  0  0  0  0  0  0  0  0  0  0  0
    0.6175    1.1456   -1.7070 H   0  0  0  0  0  0  0  0  0  0  0  0
   -1.6706    1.3600   -2.5926 H   0  0  0  0  0  0  0  0  0  0  0  0
   -2.5172   -0.3665   -4.1851 H   0  0  0  0  0  0  0  0  0  0  0  0
    1.0321   -2.4512   -4.0763 H   0  0  0  0  0  0  0  0  0  0  0  0
  1  2  2  0  0  0  0
  2  3  1  0  0  0  0
  2 19  1  0  0  0  0
  3  4  1  0  0  0  0
  3 30  1  0  0  0  0
  4  5  2  0  0  0  0
  4 18  1  0  0  0  0
  5  6  1  0  0  0  0
  5 31  1  0  0  0  0
  6  7  2  0  0  0  0
  6 32  1  0  0  0  0
  7  8  1  0  0  0  0
  7 17  1  0  0  0  0
  8  9  1  0  0  0  0
  9 10  2  0  0  0  0
  9 16  1  0  0  0  0
 10 11  1  0  0  0  0
 10 33  1  0  0  0  0
 11 12  2  0  0  0  0
 11 34  1  0  0  0  0
 12 13  1  0  0  0  0
 12 15  1  0  0  0  0
 13 14  1  0  0  0  0
 13 35  1  0  0  0  0
 13 36  1  0  0  0  0
 14 37  1  0  0  0  0
 15 16  2  0  0  0  0
 15 38  1  0  0  0  0
 16 39  1  0  0  0  0
 17 18  2  0  0  0  0
 17 40  1  0  0  0  0
 18 41  1  0  0  0  0
 19 20  2  0  0  0  0
 19 23  1  0  0  0  0
 20 21  1  0  0  0  0
 20 42  1  0  0  0  0
 21 22  2  0  0  0  0
 21 43  1  0  0  0  0
 22 23  1  0  0  0  0
 23 24  1  0  0  0  0
 24 25  2  0  0  0  0
 24 29  1  0  0  0  0
 25 26  1  0  0  0  0
 25 44  1  0  0  0  0
 26 27  2  0  0  0  0
 26 45  1  0  0  0  0
 27 28  1  0  0  0  0
 27 46  1  0  0  0  0
 28 29  2  0  0  0  0
 29 47  1  0  0  0  0
M  END
$$$$
