
 OpenBabel01122422523D

 51 54  0  0  1  0  0  0  0  0999 V2000
    1.0508    0.1034    1.0063 O   0  0  0  0  0  0  0  0  0  0  0  0
    2.1415   -0.0139    0.4628 C   0  0  0  0  0  0  0  0  0  0  0  0
    2.7094    0.8485   -0.4822 N   0  0  0  0  0  0  0  0  0  0  0  0
    2.1765    2.0762   -0.9395 C   0  0  0  0  0  0  0  0  0  0  0  0
    1.0998    2.6987   -0.3195 C   0  0  0  0  0  0  0  0  0  0  0  0
    0.5535    3.8665   -0.8493 C   0  0  0  0  0  0  0  0  0  0  0  0
    1.0855    4.4469   -2.0023 C   0  0  0  0  0  0  0  0  0  0  0  0
    0.4283    5.6617   -2.6137 C   0  0  0  0  0  0  0  0  0  0  0  0
    0.2986    6.8626   -1.6667 C   0  0  0  0  0  0  0  0  0  0  0  0
    1.6546    7.4250   -1.2210 C   0  0  3  0  0  0  0  0  0  0  0  0
    2.4202    7.7741   -2.3750 O   0  0  0  0  0  0  0  0  0  0  0  0
    1.5044    8.6272   -0.3063 C   0  0  0  0  0  0  0  0  0  0  0  0
    2.0042    8.5720    1.0048 C   0  0  0  0  0  0  0  0  0  0  0  0
    1.8972    9.6732    1.8573 C   0  0  0  0  0  0  0  0  0  0  0  0
    1.2912   10.8452    1.4113 C   0  0  0  0  0  0  0  0  0  0  0  0
    0.7793   10.9129    0.1182 C   0  0  0  0  0  0  0  0  0  0  0  0
    0.8790    9.8107   -0.7331 C   0  0  0  0  0  0  0  0  0  0  0  0
    2.2061    3.8563   -2.5976 C   0  0  0  0  0  0  0  0  0  0  0  0
    2.7538    2.6802   -2.0650 C   0  0  0  0  0  0  0  0  0  0  0  0
    2.9120   -1.2632    0.7177 C   0  0  0  0  0  0  0  0  0  0  0  0
    2.2376   -2.4945    0.7663 C   0  0  0  0  0  0  0  0  0  0  0  0
    2.9508   -3.6826    0.5622 C   0  0  0  0  0  0  0  0  0  0  0  0
    4.2909   -3.6261    0.1607 C   0  0  0  0  0  0  0  0  0  0  0  0
    4.9355   -2.3883    0.1306 C   0  0  0  0  0  0  0  0  0  0  0  0
    4.2856   -1.2680    0.5939 C   0  0  0  0  0  0  0  0  0  0  0  0
    5.0967   -0.0773    0.8139 C   0  0  0  0  0  0  0  0  0  0  0  0
    6.1213    0.1863    0.0598 N   0  0  0  0  0  0  0  0  0  0  0  0
    6.4505   -0.7814   -0.8491 N   0  0  0  0  0  0  0  0  0  0  0  0
    6.1408   -2.1251   -0.6711 C   0  0  0  0  0  0  0  0  0  0  0  0
    6.7292   -3.0287   -1.2638 O   0  0  0  0  0  0  0  0  0  0  0  0
    3.5323    0.5438   -0.9923 H   0  0  0  0  0  0  0  0  0  0  0  0
    0.6542    2.2948    0.5824 H   0  0  0  0  0  0  0  0  0  0  0  0
   -0.3070    4.3043   -0.3517 H   0  0  0  0  0  0  0  0  0  0  0  0
   -0.5765    5.3618   -2.9393 H   0  0  0  0  0  0  0  0  0  0  0  0
    0.9565    5.9655   -3.5258 H   0  0  0  0  0  0  0  0  0  0  0  0
   -0.3036    6.6016   -0.7877 H   0  0  0  0  0  0  0  0  0  0  0  0
   -0.2640    7.6330   -2.2090 H   0  0  0  0  0  0  0  0  0  0  0  0
    2.2189    6.6444   -0.6981 H   0  0  0  0  0  0  0  0  0  0  0  0
    2.1493    8.6617   -2.6569 H   0  0  0  0  0  0  0  0  0  0  0  0
    2.4856    7.6677    1.3730 H   0  0  0  0  0  0  0  0  0  0  0  0
    2.2921    9.6170    2.8686 H   0  0  0  0  0  0  0  0  0  0  0  0
    1.2182   11.7055    2.0713 H   0  0  0  0  0  0  0  0  0  0  0  0
    0.3036   11.8261   -0.2302 H   0  0  0  0  0  0  0  0  0  0  0  0
    0.4643    9.8890   -1.7348 H   0  0  0  0  0  0  0  0  0  0  0  0
    2.6536    4.2980   -3.4877 H   0  0  0  0  0  0  0  0  0  0  0  0
    3.6145    2.2424   -2.5639 H   0  0  0  0  0  0  0  0  0  0  0  0
    1.1577   -2.5235    0.8951 H   0  0  0  0  0  0  0  0  0  0  0  0
    2.4362   -4.6398    0.6097 H   0  0  0  0  0  0  0  0  0  0  0  0
    4.8065   -4.5271   -0.1670 H   0  0  0  0  0  0  0  0  0  0  0  0
    4.8416    0.5858    1.6560 H   0  0  0  0  0  0  0  0  0  0  0  0
    7.2075   -0.5501   -1.4838 H   0  0  0  0  0  0  0  0  0  0  0  0
  1  2  2  0  0  0  0
  2  3  1  0  0  0  0
  2 20  1  0  0  0  0
  3  4  1  0  0  0  0
  3 31  1  0  0  0  0
  4  5  2  0  0  0  0
  4 19  1  0  0  0  0
  5  6  1  0  0  0  0
  5 32  1  0  0  0  0
  6  7  2  0  0  0  0
  6 33  1  0  0  0  0
  7  8  1  0  0  0  0
  7 18  1  0  0  0  0
  8  9  1  0  0  0  0
  8 34  1  0  0  0  0
  8 35  1  0  0  0  0
  9 10  1  0  0  0  0
  9 36  1  0  0  0  0
  9 37  1  0  0  0  0
 10 11  1  0  0  0  0
 10 12  1  0  0  0  0
 10 38  1  0  0  0  0
 11 39  1  0  0  0  0
 12 13  2  0  0  0  0
 12 17  1  0  0  0  0
 13 14  1  0  0  0  0
 13 40  1  0  0  0  0
 14 15  2  0  0  0  0
 14 41  1  0  0  0  0
 15 16  1  0  0  0  0
 15 42  1  0  0  0  0
 16 17  2  0  0  0  0
 16 43  1  0  0  0  0
 17 44  1  0  0  0  0
 18 19  2  0  0  0  0
 18 45  1  0  0  0  0
 19 46  1  0  0  0  0
 20 21  2  0  0  0  0
 20 25  1  0  0  0  0
 21 22  1  0  0  0  0
 21 47  1  0  0  0  0
 22 23  2  0  0  0  0
 22 48  1  0  0  0  0
 23 24  1  0  0  0  0
 23 49  1  0  0  0  0
 24 25  2  0  0  0  0
 24 29  1  0  0  0  0
 25 26  1  0  0  0  0
 26 27  2  0  0  0  0
 26 50  1  0  0  0  0
 27 28  1  0  0  0  0
 28 29  1  0  0  0  0
 28 51  1  0  0  0  0
 29 30  2  0  0  0  0
M  END
$$$$
