
 OpenBabel01122422523D

 53 56  0  0  1  0  0  0  0  0999 V2000
    0.9294    0.1682    0.5176 C   0  0  0  0  0  0  0  0  0  0  0  0
    2.3994    0.1287    0.2629 C   0  0  0  0  0  0  0  0  0  0  0  0
    3.2490    1.2045    0.0005 C   0  0  0  0  0  0  0  0  0  0  0  0
    2.8068    2.5893   -0.1742 C   0  0  0  0  0  0  0  0  0  0  0  0
    1.6607    2.8867   -0.5071 O   0  0  0  0  0  0  0  0  0  0  0  0
    3.7456    3.5460    0.1158 N   0  0  0  0  0  0  0  0  0  0  0  0
    3.4124    4.9618    0.0546 C   0  0  3  0  0  0  0  0  0  0  0  0
    2.8009    5.4606    1.3923 C   0  0  0  0  0  0  0  0  0  0  0  0
    1.6886    4.7798    1.8279 N   0  0  0  0  0  0  0  0  0  0  0  0
    3.1864    6.4350    2.0353 O   0  0  0  0  0  0  0  0  0  0  0  0
    4.6091    5.7815   -0.4032 C   0  0  0  0  0  0  0  0  0  0  0  0
    5.7932    5.8381    0.3419 C   0  0  0  0  0  0  0  0  0  0  0  0
    6.8586    6.6391   -0.0794 C   0  0  0  0  0  0  0  0  0  0  0  0
    6.7628    7.4085   -1.2486 C   0  0  0  0  0  0  0  0  0  0  0  0
    7.8123    8.2454   -1.6633 C   0  0  0  0  0  0  0  0  0  0  0  0
    7.6921    9.0213   -2.8176 C   0  0  0  0  0  0  0  0  0  0  0  0
    6.5261    8.9664   -3.5747 C   0  0  0  0  0  0  0  0  0  0  0  0
    5.4780    8.1332   -3.1794 C   0  0  0  0  0  0  0  0  0  0  0  0
    5.5810    7.3511   -2.0158 C   0  0  0  0  0  0  0  0  0  0  0  0
    4.5247    6.5296   -1.5910 C   0  0  0  0  0  0  0  0  0  0  0  0
    4.5668    0.6668   -0.0755 C   0  0  0  0  0  0  0  0  0  0  0  0
    4.4758   -0.6987    0.0705 C   0  0  0  0  0  0  0  0  0  0  0  0
    3.1520   -1.0310    0.2390 N   0  0  0  0  0  0  0  0  0  0  0  0
    2.6634   -2.4131    0.2462 C   0  0  0  0  0  0  0  0  0  0  0  0
    2.6666   -3.0100    1.6327 C   0  0  0  0  0  0  0  0  0  0  0  0
    1.5075   -2.9815    2.4213 C   0  0  0  0  0  0  0  0  0  0  0  0
    1.5302   -3.4293    3.7414 C   0  0  0  0  0  0  0  0  0  0  0  0
    2.7043   -3.9459    4.2809 C   0  0  0  0  0  0  0  0  0  0  0  0
    3.8488   -4.0393    3.4915 C   0  0  0  0  0  0  0  0  0  0  0  0
    3.8320   -3.5736    2.1748 C   0  0  0  0  0  0  0  0  0  0  0  0
    0.6351    1.1342    0.9422 H   0  0  0  0  0  0  0  0  0  0  0  0
    0.6208   -0.5771    1.2488 H   0  0  0  0  0  0  0  0  0  0  0  0
    0.3712    0.0153   -0.4091 H   0  0  0  0  0  0  0  0  0  0  0  0
    4.5715    3.2672    0.6245 H   0  0  0  0  0  0  0  0  0  0  0  0
    2.6127    5.0907   -0.6884 H   0  0  0  0  0  0  0  0  0  0  0  0
    1.2147    4.1134    1.2196 H   0  0  0  0  0  0  0  0  0  0  0  0
    1.1961    5.1467    2.6244 H   0  0  0  0  0  0  0  0  0  0  0  0
    5.8867    5.2888    1.2766 H   0  0  0  0  0  0  0  0  0  0  0  0
    7.7589    6.6772    0.5311 H   0  0  0  0  0  0  0  0  0  0  0  0
    8.7290    8.3070   -1.0812 H   0  0  0  0  0  0  0  0  0  0  0  0
    8.5074    9.6725   -3.1211 H   0  0  0  0  0  0  0  0  0  0  0  0
    6.4275    9.5747   -4.4689 H   0  0  0  0  0  0  0  0  0  0  0  0
    4.5716    8.1077   -3.7809 H   0  0  0  0  0  0  0  0  0  0  0  0
    3.6109    6.4908   -2.1847 H   0  0  0  0  0  0  0  0  0  0  0  0
    5.4841    1.2094   -0.2652 H   0  0  0  0  0  0  0  0  0  0  0  0
    5.2418   -1.4623    0.0406 H   0  0  0  0  0  0  0  0  0  0  0  0
    3.3098   -2.9941   -0.4219 H   0  0  0  0  0  0  0  0  0  0  0  0
    1.6623   -2.4250   -0.1975 H   0  0  0  0  0  0  0  0  0  0  0  0
    0.5748   -2.5964    2.0185 H   0  0  0  0  0  0  0  0  0  0  0  0
    0.6325   -3.3628    4.3506 H   0  0  0  0  0  0  0  0  0  0  0  0
    2.7265   -4.2763    5.3160 H   0  0  0  0  0  0  0  0  0  0  0  0
    4.7602   -4.4603    3.9087 H   0  0  0  0  0  0  0  0  0  0  0  0
    4.7408   -3.6433    1.5810 H   0  0  0  0  0  0  0  0  0  0  0  0
  1  2  1  0  0  0  0
  1 31  1  0  0  0  0
  1 32  1  0  0  0  0
  1 33  1  0  0  0  0
  2  3  2  0  0  0  0
  2 23  1  0  0  0  0
  3  4  1  0  0  0  0
  3 21  1  0  0  0  0
  4  5  2  0  0  0  0
  4  6  1  0  0  0  0
  6  7  1  0  0  0  0
  6 34  1  0  0  0  0
  7  8  1  0  0  0  0
  7 11  1  0  0  0  0
  7 35  1  0  0  0  0
  8  9  1  0  0  0  0
  8 10  2  0  0  0  0
  9 36  1  0  0  0  0
  9 37  1  0  0  0  0
 11 12  2  0  0  0  0
 11 20  1  0  0  0  0
 12 13  1  0  0  0  0
 12 38  1  0  0  0  0
 13 14  2  0  0  0  0
 13 39  1  0  0  0  0
 14 15  1  0  0  0  0
 14 19  1  0  0  0  0
 15 16  2  0  0  0  0
 15 40  1  0  0  0  0
 16 17  1  0  0  0  0
 16 41  1  0  0  0  0
 17 18  2  0  0  0  0
 17 42  1  0  0  0  0
 18 19  1  0  0  0  0
 18 43  1  0  0  0  0
 19 20  2  0  0  0  0
 20 44  1  0  0  0  0
 21 22  2  0  0  0  0
 21 45  1  0  0  0  0
 22 23  1  0  0  0  0
 22 46  1  0  0  0  0
 23 24  1  0  0  0  0
 24 25  1  0  0  0  0
 24 47  1  0  0  0  0
 24 48  1  0  0  0  0
 25 26  2  0  0  0  0
 25 30  1  0  0  0  0
 26 27  1  0  0  0  0
 26 49  1  0  0  0  0
 27 28  2  0  0  0  0
 27 50  1  0  0  0  0
 28 29  1  0  0  0  0
 28 51  1  0  0  0  0
 29 30  2  0  0  0  0
 29 52  1  0  0  0  0
 30 53  1  0  0  0  0
M  END
$$$$
