
 OpenBabel01122422523D

 48 51  0  0  0  0  0  0  0  0999 V2000
    1.9371    1.1823   -0.6491 O   0  0  0  0  0  0  0  0  0  0  0  0
    2.1551    0.0923   -0.1355 C   0  0  0  0  0  0  0  0  0  0  0  0
    2.8966   -1.0381   -0.8179 C   0  0  0  0  0  0  0  0  0  0  0  0
    1.9767   -1.9123   -1.4579 O   0  0  0  0  0  0  0  0  0  0  0  0
    2.5306   -2.9445   -2.1709 C   0  0  0  0  0  0  0  0  0  0  0  0
    3.8993   -3.1925   -2.2994 C   0  0  0  0  0  0  0  0  0  0  0  0
    4.3522   -4.2628   -3.0717 C   0  0  0  0  0  0  0  0  0  0  0  0
    3.4385   -5.0970   -3.7083 C   0  0  0  0  0  0  0  0  0  0  0  0
    2.0678   -4.8957   -3.5395 C   0  0  0  0  0  0  0  0  0  0  0  0
    1.1133   -5.6955   -4.1307 O   0  0  0  0  0  0  0  0  0  0  0  0
    1.3352   -7.0708   -4.1459 C   0  0  0  0  0  0  0  0  0  0  0  0
    0.6867   -7.7955   -5.1341 C   0  0  0  0  0  0  0  0  0  0  0  0
    0.8990   -9.1713   -5.1929 C   0  0  0  0  0  0  0  0  0  0  0  0
    1.7429   -9.7711   -4.2639 C   0  0  0  0  0  0  0  0  0  0  0  0
    2.3298   -8.9703   -3.2993 C   0  0  0  0  0  0  0  0  0  0  0  0
    2.1347   -7.6381   -3.2119 N   0  0  0  0  0  0  0  0  0  0  0  0
    1.6154   -3.7968   -2.8020 C   0  0  0  0  0  0  0  0  0  0  0  0
    1.7873   -0.2728    1.1239 O   0  0  0  0  0  0  0  0  0  0  0  0
    1.0214    0.6914    1.8613 C   0  0  0  0  0  0  0  0  0  0  0  0
   -0.2471    0.0356    2.2530 C   0  0  0  0  0  0  0  0  0  0  0  0
   -0.7504   -1.2094    1.9310 C   0  0  0  0  0  0  0  0  0  0  0  0
   -1.8526   -1.4753    2.6777 N   0  0  0  0  0  0  0  0  0  0  0  0
   -2.0592   -0.4378    3.4732 N   0  0  0  0  0  0  0  0  0  0  0  0
   -1.1677    0.5400    3.1628 N   0  0  0  0  0  0  0  0  0  0  0  0
   -1.2789    1.8219    3.7666 C   0  0  0  0  0  0  0  0  0  0  0  0
   -1.9409    1.9386    4.9990 C   0  0  0  0  0  0  0  0  0  0  0  0
   -2.0516    3.1829    5.6235 C   0  0  0  0  0  0  0  0  0  0  0  0
   -1.5298    4.3212    5.0129 C   0  0  0  0  0  0  0  0  0  0  0  0
   -0.9057    4.2193    3.7729 C   0  0  0  0  0  0  0  0  0  0  0  0
   -0.7804    2.9753    3.1484 C   0  0  0  0  0  0  0  0  0  0  0  0
    3.4824   -1.5711   -0.0594 H   0  0  0  0  0  0  0  0  0  0  0  0
    3.5787   -0.5754   -1.5403 H   0  0  0  0  0  0  0  0  0  0  0  0
    4.6491   -2.5763   -1.8154 H   0  0  0  0  0  0  0  0  0  0  0  0
    5.4179   -4.4531   -3.1699 H   0  0  0  0  0  0  0  0  0  0  0  0
    3.8086   -5.9244   -4.3075 H   0  0  0  0  0  0  0  0  0  0  0  0
    0.0396   -7.3001   -5.8500 H   0  0  0  0  0  0  0  0  0  0  0  0
    0.4146   -9.7696   -5.9595 H   0  0  0  0  0  0  0  0  0  0  0  0
    1.9383  -10.8374   -4.2886 H   0  0  0  0  0  0  0  0  0  0  0  0
    2.9971   -9.3878   -2.5509 H   0  0  0  0  0  0  0  0  0  0  0  0
    0.5483   -3.6136   -2.7085 H   0  0  0  0  0  0  0  0  0  0  0  0
    0.8441    1.5959    1.2802 H   0  0  0  0  0  0  0  0  0  0  0  0
    1.6030    0.9543    2.7516 H   0  0  0  0  0  0  0  0  0  0  0  0
   -0.3452   -1.9377    1.2425 H   0  0  0  0  0  0  0  0  0  0  0  0
   -2.3571    1.0650    5.4983 H   0  0  0  0  0  0  0  0  0  0  0  0
   -2.5500    3.2625    6.5867 H   0  0  0  0  0  0  0  0  0  0  0  0
   -1.6254    5.2904    5.4960 H   0  0  0  0  0  0  0  0  0  0  0  0
   -0.5332    5.1136    3.2789 H   0  0  0  0  0  0  0  0  0  0  0  0
   -0.3579    2.9666    2.1509 H   0  0  0  0  0  0  0  0  0  0  0  0
  1  2  2  0  0  0  0
  2  3  1  0  0  0  0
  2 18  1  0  0  0  0
  3  4  1  0  0  0  0
  3 31  1  0  0  0  0
  3 32  1  0  0  0  0
  4  5  1  0  0  0  0
  5  6  2  0  0  0  0
  5 17  1  0  0  0  0
  6  7  1  0  0  0  0
  6 33  1  0  0  0  0
  7  8  2  0  0  0  0
  7 34  1  0  0  0  0
  8  9  1  0  0  0  0
  8 35  1  0  0  0  0
  9 10  1  0  0  0  0
  9 17  2  0  0  0  0
 10 11  1  0  0  0  0
 11 12  2  0  0  0  0
 11 16  1  0  0  0  0
 12 13  1  0  0  0  0
 12 36  1  0  0  0  0
 13 14  2  0  0  0  0
 13 37  1  0  0  0  0
 14 15  1  0  0  0  0
 14 38  1  0  0  0  0
 15 16  2  0  0  0  0
 15 39  1  0  0  0  0
 17 40  1  0  0  0  0
 18 19  1  0  0  0  0
 19 20  1  0  0  0  0
 19 41  1  0  0  0  0
 19 42  1  0  0  0  0
 20 21  2  0  0  0  0
 20 24  1  0  0  0  0
 21 22  1  0  0  0  0
 21 43  1  0  0  0  0
 22 23  2  0  0  0  0
 23 24  1  0  0  0  0
 24 25  1  0  0  0  0
 25 26  2  0  0  0  0
 25 30  1  0  0  0  0
 26 27  1  0  0  0  0
 26 44  1  0  0  0  0
 27 28  2  0  0  0  0
 27 45  1  0  0  0  0
 28 29  1  0  0  0  0
 28 46  1  0  0  0  0
 29 30  2  0  0  0  0
 29 47  1  0  0  0  0
 30 48  1  0  0  0  0
M  END
$$$$
