
 OpenBabel01122422523D

 46 49  0  0  0  0  0  0  0  0999 V2000
    4.8863    1.1034   -4.4200 C   0  0  0  0  0  0  0  0  0  0  0  0
    4.3529    0.7314   -3.1509 O   0  0  0  0  0  0  0  0  0  0  0  0
    5.0208   -0.2875   -2.5451 C   0  0  0  0  0  0  0  0  0  0  0  0
    6.0004   -0.8549   -3.0039 O   0  0  0  0  0  0  0  0  0  0  0  0
    4.3933   -0.5807   -1.2131 C   0  0  0  0  0  0  0  0  0  0  0  0
    3.0502   -0.3341   -1.1443 N   0  0  0  0  0  0  0  0  0  0  0  0
    2.4315   -0.6190    0.0131 C   0  0  0  0  0  0  0  0  0  0  0  0
    3.0778   -1.1435    1.1147 C   0  0  0  0  0  0  0  0  0  0  0  0
    4.4527   -1.3913    1.0456 C   0  0  0  0  0  0  0  0  0  0  0  0
    5.1199   -1.9422    2.1549 C   0  0  0  0  0  0  0  0  0  0  0  0
    6.4877   -2.2134    2.1227 C   0  0  0  0  0  0  0  0  0  0  0  0
    7.1922   -2.8372    3.1786 N   0  0  0  0  0  0  0  0  0  0  0  0
    6.6384   -3.5273    4.2493 C   0  0  0  0  0  0  0  0  0  0  0  0
    5.4364   -3.6478    4.4560 O   0  0  0  0  0  0  0  0  0  0  0  0
    7.6256   -4.0925    5.1403 C   0  0  0  0  0  0  0  0  0  0  0  0
    7.5501   -5.2085    5.9678 C   0  0  0  0  0  0  0  0  0  0  0  0
    6.4629   -6.1912    6.0655 C   0  0  0  0  0  0  0  0  0  0  0  0
    5.7611   -6.4958    5.1001 O   0  0  0  0  0  0  0  0  0  0  0  0
    6.2667   -6.9061    7.3647 C   0  0  0  0  0  0  0  0  0  0  0  0
    5.6961   -8.1855    7.3556 C   0  0  0  0  0  0  0  0  0  0  0  0
    5.5486   -8.9025    8.5465 C   0  0  0  0  0  0  0  0  0  0  0  0
    5.9561   -8.3394    9.7557 C   0  0  0  0  0  0  0  0  0  0  0  0
    6.4883   -7.0516    9.7802 C   0  0  0  0  0  0  0  0  0  0  0  0
    6.6346   -6.3326    8.5913 C   0  0  0  0  0  0  0  0  0  0  0  0
    8.7243   -5.3353    6.6968 N   0  0  0  0  0  0  0  0  0  0  0  0
    9.4848   -4.3309    6.3396 C   0  0  0  0  0  0  0  0  0  0  0  0
    8.8628   -3.5495    5.4149 N   0  0  0  0  0  0  0  0  0  0  0  0
    7.2105   -1.8700    0.9816 C   0  0  0  0  0  0  0  0  0  0  0  0
    6.5598   -1.3308   -0.1332 C   0  0  0  0  0  0  0  0  0  0  0  0
    5.1613   -1.0970   -0.1391 C   0  0  0  0  0  0  0  0  0  0  0  0
    4.2459    1.8821   -4.8425 H   0  0  0  0  0  0  0  0  0  0  0  0
    4.8914    0.2495   -5.1050 H   0  0  0  0  0  0  0  0  0  0  0  0
    5.8956    1.5104   -4.3014 H   0  0  0  0  0  0  0  0  0  0  0  0
    1.3639   -0.4149    0.0362 H   0  0  0  0  0  0  0  0  0  0  0  0
    2.5101   -1.3599    2.0160 H   0  0  0  0  0  0  0  0  0  0  0  0
    4.5382   -2.1588    3.0472 H   0  0  0  0  0  0  0  0  0  0  0  0
    8.1837   -2.9481    3.0245 H   0  0  0  0  0  0  0  0  0  0  0  0
    5.3786   -8.6373    6.4173 H   0  0  0  0  0  0  0  0  0  0  0  0
    5.1243   -9.9030    8.5303 H   0  0  0  0  0  0  0  0  0  0  0  0
    5.8577   -8.9030   10.6805 H   0  0  0  0  0  0  0  0  0  0  0  0
    6.7992   -6.6077   10.7224 H   0  0  0  0  0  0  0  0  0  0  0  0
    7.0492   -5.3292    8.6387 H   0  0  0  0  0  0  0  0  0  0  0  0
   10.4753   -4.1190    6.7178 H   0  0  0  0  0  0  0  0  0  0  0  0
    9.2314   -2.6877    5.0373 H   0  0  0  0  0  0  0  0  0  0  0  0
    8.2814   -2.0477    0.9164 H   0  0  0  0  0  0  0  0  0  0  0  0
    7.1679   -1.1073   -1.0085 H   0  0  0  0  0  0  0  0  0  0  0  0
  1  2  1  0  0  0  0
  1 31  1  0  0  0  0
  1 32  1  0  0  0  0
  1 33  1  0  0  0  0
  2  3  1  0  0  0  0
  3  4  2  0  0  0  0
  3  5  1  0  0  0  0
  5  6  2  0  0  0  0
  5 30  1  0  0  0  0
  6  7  1  0  0  0  0
  7  8  2  0  0  0  0
  7 34  1  0  0  0  0
  8  9  1  0  0  0  0
  8 35  1  0  0  0  0
  9 10  2  0  0  0  0
  9 30  1  0  0  0  0
 10 11  1  0  0  0  0
 10 36  1  0  0  0  0
 11 12  1  0  0  0  0
 11 28  2  0  0  0  0
 12 13  1  0  0  0  0
 12 37  1  0  0  0  0
 13 14  2  0  0  0  0
 13 15  1  0  0  0  0
 15 16  2  0  0  0  0
 15 27  1  0  0  0  0
 16 17  1  0  0  0  0
 16 25  1  0  0  0  0
 17 18  2  0  0  0  0
 17 19  1  0  0  0  0
 19 20  2  0  0  0  0
 19 24  1  0  0  0  0
 20 21  1  0  0  0  0
 20 38  1  0  0  0  0
 21 22  2  0  0  0  0
 21 39  1  0  0  0  0
 22 23  1  0  0  0  0
 22 40  1  0  0  0  0
 23 24  2  0  0  0  0
 23 41  1  0  0  0  0
 24 42  1  0  0  0  0
 25 26  2  0  0  0  0
 26 27  1  0  0  0  0
 26 43  1  0  0  0  0
 27 44  1  0  0  0  0
 28 29  1  0  0  0  0
 28 45  1  0  0  0  0
 29 30  2  0  0  0  0
 29 46  1  0  0  0  0
M  END
$$$$
