
 OpenBabel01122422523D

 42 45  0  0  0  0  0  0  0  0999 V2000
    1.2061    1.7833    6.3103 N   0  0  0  0  0  0  0  0  0  0  0  0
    1.6548    1.4778    5.2804 C   0  0  0  0  0  0  0  0  0  0  0  0
    2.1913    1.0833    4.0141 C   0  0  0  0  0  0  0  0  0  0  0  0
    2.5746    2.0436    3.0704 C   0  0  0  0  0  0  0  0  0  0  0  0
    3.0954    1.6459    1.8331 C   0  0  0  0  0  0  0  0  0  0  0  0
    3.2468    0.2875    1.5438 C   0  0  0  0  0  0  0  0  0  0  0  0
    3.7793   -0.0501    0.3134 O   0  0  0  0  0  0  0  0  0  0  0  0
    4.5129   -1.2304    0.2516 C   0  0  0  0  0  0  0  0  0  0  0  0
    4.3643   -2.0255   -0.8699 C   0  0  0  0  0  0  0  0  0  0  0  0
    5.0052   -3.2692   -0.8903 C   0  0  0  0  0  0  0  0  0  0  0  0
    5.7849   -3.6817    0.1913 C   0  0  0  0  0  0  0  0  0  0  0  0
    6.4501   -4.9339    0.2791 N   0  0  0  0  0  0  0  0  0  0  0  0
    6.3756   -5.9588   -0.6506 C   0  0  0  0  0  0  0  0  0  0  0  0
    5.7641   -5.9090   -1.7128 O   0  0  0  0  0  0  0  0  0  0  0  0
    7.1273   -7.2131   -0.3796 C   0  0  0  0  0  0  0  0  0  0  0  0
    7.6549   -7.8423   -1.5110 C   0  0  0  0  0  0  0  0  0  0  0  0
    8.3380   -9.0096   -1.4984 N   0  0  0  0  0  0  0  0  0  0  0  0
    8.5093   -9.5661   -0.2926 C   0  0  0  0  0  0  0  0  0  0  0  0
    9.1655  -10.7540   -0.3555 O   0  0  0  0  0  0  0  0  0  0  0  0
    8.0525   -9.0462    0.9207 C   0  0  0  0  0  0  0  0  0  0  0  0
    8.2956   -9.6831    2.1492 C   0  0  0  0  0  0  0  0  0  0  0  0
    7.7908   -9.1195    3.3027 C   0  0  0  0  0  0  0  0  0  0  0  0
    7.0285   -8.0106    3.3096 N   0  0  0  0  0  0  0  0  0  0  0  0
    6.7815   -7.4270    2.1128 C   0  0  0  0  0  0  0  0  0  0  0  0
    7.3063   -7.8457    0.8779 C   0  0  0  0  0  0  0  0  0  0  0  0
    5.8987   -2.7822    1.2493 C   0  0  0  0  0  0  0  0  0  0  0  0
    5.3005   -1.5691    1.2984 N   0  0  0  0  0  0  0  0  0  0  0  0
    2.8162   -0.6666    2.4735 C   0  0  0  0  0  0  0  0  0  0  0  0
    2.3176   -0.2743    3.7132 C   0  0  0  0  0  0  0  0  0  0  0  0
    2.4720    3.1037    3.2959 H   0  0  0  0  0  0  0  0  0  0  0  0
    3.3906    2.3982    1.1070 H   0  0  0  0  0  0  0  0  0  0  0  0
    3.7427   -1.7131   -1.7024 H   0  0  0  0  0  0  0  0  0  0  0  0
    4.8646   -3.8890   -1.7693 H   0  0  0  0  0  0  0  0  0  0  0  0
    7.0542   -5.0512    1.0841 H   0  0  0  0  0  0  0  0  0  0  0  0
    7.5335   -7.4088   -2.5031 H   0  0  0  0  0  0  0  0  0  0  0  0
    9.2662  -10.8425   -1.3215 H   0  0  0  0  0  0  0  0  0  0  0  0
    8.8730  -10.6020    2.2007 H   0  0  0  0  0  0  0  0  0  0  0  0
    7.9807   -9.5648    4.2753 H   0  0  0  0  0  0  0  0  0  0  0  0
    6.0986   -6.5874    2.1966 H   0  0  0  0  0  0  0  0  0  0  0  0
    6.4710   -3.0179    2.1419 H   0  0  0  0  0  0  0  0  0  0  0  0
    2.8913   -1.7292    2.2564 H   0  0  0  0  0  0  0  0  0  0  0  0
    2.0368   -1.0373    4.4361 H   0  0  0  0  0  0  0  0  0  0  0  0
  1  2  3  0  0  0  0
  2  3  1  0  0  0  0
  3  4  2  0  0  0  0
  3 29  1  0  0  0  0
  4  5  1  0  0  0  0
  4 30  1  0  0  0  0
  5  6  2  0  0  0  0
  5 31  1  0  0  0  0
  6  7  1  0  0  0  0
  6 28  1  0  0  0  0
  7  8  1  0  0  0  0
  8  9  2  0  0  0  0
  8 27  1  0  0  0  0
  9 10  1  0  0  0  0
  9 32  1  0  0  0  0
 10 11  2  0  0  0  0
 10 33  1  0  0  0  0
 11 12  1  0  0  0  0
 11 26  1  0  0  0  0
 12 13  1  0  0  0  0
 12 34  1  0  0  0  0
 13 14  2  0  0  0  0
 13 15  1  0  0  0  0
 15 16  2  0  0  0  0
 15 25  1  0  0  0  0
 16 17  1  0  0  0  0
 16 35  1  0  0  0  0
 17 18  2  0  0  0  0
 18 19  1  0  0  0  0
 18 20  1  0  0  0  0
 19 36  1  0  0  0  0
 20 21  2  0  0  0  0
 20 25  1  0  0  0  0
 21 22  1  0  0  0  0
 21 37  1  0  0  0  0
 22 23  2  0  0  0  0
 22 38  1  0  0  0  0
 23 24  1  0  0  0  0
 24 25  2  0  0  0  0
 24 39  1  0  0  0  0
 26 27  2  0  0  0  0
 26 40  1  0  0  0  0
 28 29  2  0  0  0  0
 28 41  1  0  0  0  0
 29 42  1  0  0  0  0
M  END
$$$$
