
 OpenBabel01122422523D

 44 47  0  0  0  0  0  0  0  0999 V2000
    2.3429   -2.1385   -0.2680 O   0  0  0  0  0  0  0  0  0  0  0  0
    2.9211   -1.0633   -0.1254 C   0  0  0  0  0  0  0  0  0  0  0  0
    2.9332   -0.3651    1.0720 N   0  0  0  0  0  0  0  0  0  0  0  0
    2.3268   -0.8659    2.2866 C   0  0  0  0  0  0  0  0  0  0  0  0
    3.2674   -1.7442    3.0737 C   0  0  0  0  0  0  0  0  0  0  0  0
    3.3788   -3.0972    2.6936 C   0  0  0  0  0  0  0  0  0  0  0  0
    4.2729   -3.9592    3.3262 C   0  0  0  0  0  0  0  0  0  0  0  0
    5.0534   -3.4938    4.3749 C   0  0  0  0  0  0  0  0  0  0  0  0
    4.9285   -2.1712    4.7958 C   0  0  0  0  0  0  0  0  0  0  0  0
    4.0690   -1.2780    4.1314 C   0  0  0  0  0  0  0  0  0  0  0  0
    3.9488    0.0384    4.5465 O   0  0  0  0  0  0  0  0  0  0  0  0
    5.1153    0.6701    4.9701 C   0  0  0  0  0  0  0  0  0  0  0  0
    5.0344    1.5323    6.0552 C   0  0  0  0  0  0  0  0  0  0  0  0
    6.2077    2.1430    6.4989 C   0  0  0  0  0  0  0  0  0  0  0  0
    7.4089    1.8682    5.8515 C   0  0  0  0  0  0  0  0  0  0  0  0
    7.3880    1.0013    4.7727 C   0  0  0  0  0  0  0  0  0  0  0  0
    6.2668    0.4168    4.3048 N   0  0  0  0  0  0  0  0  0  0  0  0
    3.6554   -0.3861   -1.2095 C   0  0  0  0  0  0  0  0  0  0  0  0
    3.8136   -0.9067   -2.4397 N   0  0  0  0  0  0  0  0  0  0  0  0
    4.5402    0.0746   -3.1232 O   0  0  0  0  0  0  0  0  0  0  0  0
    4.7503    1.0971   -2.2381 C   0  0  0  0  0  0  0  0  0  0  0  0
    5.4834    2.2611   -2.7155 C   0  0  0  0  0  0  0  0  0  0  0  0
    5.6919    3.3346   -1.8381 C   0  0  0  0  0  0  0  0  0  0  0  0
    6.3967    4.4575   -2.2559 C   0  0  0  0  0  0  0  0  0  0  0  0
    6.5852    5.4705   -1.4009 F   0  0  0  0  0  0  0  0  0  0  0  0
    6.9072    4.5439   -3.5444 C   0  0  0  0  0  0  0  0  0  0  0  0
    6.7045    3.4903   -4.4327 C   0  0  0  0  0  0  0  0  0  0  0  0
    5.9950    2.3540   -4.0221 C   0  0  0  0  0  0  0  0  0  0  0  0
    4.2335    0.8655   -1.0521 N   0  0  0  0  0  0  0  0  0  0  0  0
    3.5144    0.4647    1.1207 H   0  0  0  0  0  0  0  0  0  0  0  0
    1.4243   -1.4343    2.0269 H   0  0  0  0  0  0  0  0  0  0  0  0
    1.9941   -0.0051    2.8753 H   0  0  0  0  0  0  0  0  0  0  0  0
    2.7711   -3.4853    1.8767 H   0  0  0  0  0  0  0  0  0  0  0  0
    4.3614   -4.9892    2.9920 H   0  0  0  0  0  0  0  0  0  0  0  0
    5.7659   -4.1528    4.8623 H   0  0  0  0  0  0  0  0  0  0  0  0
    5.5387   -1.8374    5.6307 H   0  0  0  0  0  0  0  0  0  0  0  0
    4.0916    1.7092    6.5610 H   0  0  0  0  0  0  0  0  0  0  0  0
    6.1914    2.8195    7.3494 H   0  0  0  0  0  0  0  0  0  0  0  0
    8.3411    2.3165    6.1782 H   0  0  0  0  0  0  0  0  0  0  0  0
    8.2987    0.7369    4.2433 H   0  0  0  0  0  0  0  0  0  0  0  0
    5.3073    3.3052   -0.8212 H   0  0  0  0  0  0  0  0  0  0  0  0
    7.4575    5.4303   -3.8436 H   0  0  0  0  0  0  0  0  0  0  0  0
    7.1003    3.5510   -5.4448 H   0  0  0  0  0  0  0  0  0  0  0  0
    5.8524    1.5451   -4.7376 H   0  0  0  0  0  0  0  0  0  0  0  0
  1  2  2  0  0  0  0
  2  3  1  0  0  0  0
  2 18  1  0  0  0  0
  3  4  1  0  0  0  0
  3 30  1  0  0  0  0
  4  5  1  0  0  0  0
  4 31  1  0  0  0  0
  4 32  1  0  0  0  0
  5  6  2  0  0  0  0
  5 10  1  0  0  0  0
  6  7  1  0  0  0  0
  6 33  1  0  0  0  0
  7  8  2  0  0  0  0
  7 34  1  0  0  0  0
  8  9  1  0  0  0  0
  8 35  1  0  0  0  0
  9 10  2  0  0  0  0
  9 36  1  0  0  0  0
 10 11  1  0  0  0  0
 11 12  1  0  0  0  0
 12 13  2  0  0  0  0
 12 17  1  0  0  0  0
 13 14  1  0  0  0  0
 13 37  1  0  0  0  0
 14 15  2  0  0  0  0
 14 38  1  0  0  0  0
 15 16  1  0  0  0  0
 15 39  1  0  0  0  0
 16 17  2  0  0  0  0
 16 40  1  0  0  0  0
 18 19  2  0  0  0  0
 18 29  1  0  0  0  0
 19 20  1  0  0  0  0
 20 21  1  0  0  0  0
 21 22  1  0  0  0  0
 21 29  2  0  0  0  0
 22 23  2  0  0  0  0
 22 28  1  0  0  0  0
 23 24  1  0  0  0  0
 23 41  1  0  0  0  0
 24 25  1  0  0  0  0
 24 26  2  0  0  0  0
 26 27  1  0  0  0  0
 26 42  1  0  0  0  0
 27 28  2  0  0  0  0
 27 43  1  0  0  0  0
 28 44  1  0  0  0  0
M  END
$$$$
