
 OpenBabel01122422523D

 56 59  0  0  0  0  0  0  0  0999 V2000
    7.5690    3.6397   -2.1246 C   0  0  0  0  0  0  0  0  0  0  0  0
    7.9661    2.2755   -2.2915 N   0  0  0  0  0  0  0  0  0  0  0  0
    7.7656    1.3534   -1.2852 C   0  0  0  0  0  0  0  0  0  0  0  0
    7.2259    1.6287   -0.2217 O   0  0  0  0  0  0  0  0  0  0  0  0
    8.2653   -0.0557   -1.6103 C   0  0  0  0  0  0  0  0  0  0  0  0
    8.8406   -0.0845   -2.9419 O   0  0  0  0  0  0  0  0  0  0  0  0
    8.8106   -1.3202   -3.5542 C   0  0  0  0  0  0  0  0  0  0  0  0
    8.7748   -1.4054   -4.9521 C   0  0  0  0  0  0  0  0  0  0  0  0
    8.7209   -2.6695   -5.5486 C   0  0  0  0  0  0  0  0  0  0  0  0
    8.7586   -3.8316   -4.7721 C   0  0  0  0  0  0  0  0  0  0  0  0
    8.8827   -3.7533   -3.3731 C   0  0  0  0  0  0  0  0  0  0  0  0
    9.0410   -4.9678   -2.4911 C   0  0  0  0  0  0  0  0  0  0  0  0
   10.4121   -5.3546   -2.2735 N   0  0  0  0  0  0  0  0  0  0  0  0
   11.0741   -6.2612   -3.0534 C   0  0  0  0  0  0  0  0  0  0  0  0
   10.5556   -6.8078   -4.0389 O   0  0  0  0  0  0  0  0  0  0  0  0
   12.4473   -6.5403   -2.6521 C   0  0  0  0  0  0  0  0  0  0  0  0
   13.3426   -7.3921   -3.2846 C   0  0  0  0  0  0  0  0  0  0  0  0
   14.5405   -7.3480   -2.6173 N   0  0  0  0  0  0  0  0  0  0  0  0
   15.7359   -8.0718   -2.9908 C   0  0  0  0  0  0  0  0  0  0  0  0
   14.4501   -6.4944   -1.5460 C   0  0  0  0  0  0  0  0  0  0  0  0
   15.3823   -6.1109   -0.5780 C   0  0  0  0  0  0  0  0  0  0  0  0
   14.9307   -5.2028    0.3712 C   0  0  0  0  0  0  0  0  0  0  0  0
   13.6170   -4.7307    0.3261 C   0  0  0  0  0  0  0  0  0  0  0  0
   13.1327   -3.7386    1.3036 C   0  0  0  0  0  0  0  0  0  0  0  0
   14.0046   -2.7869    1.8654 C   0  0  0  0  0  0  0  0  0  0  0  0
   13.5495   -1.8399    2.7804 C   0  0  0  0  0  0  0  0  0  0  0  0
   12.2090   -1.8234    3.1503 C   0  0  0  0  0  0  0  0  0  0  0  0
   11.3244   -2.7524    2.6080 C   0  0  0  0  0  0  0  0  0  0  0  0
   11.7824   -3.6989    1.6904 C   0  0  0  0  0  0  0  0  0  0  0  0
   12.7105   -5.1134   -0.6039 N   0  0  0  0  0  0  0  0  0  0  0  0
   13.1575   -5.9940   -1.5366 C   0  0  0  0  0  0  0  0  0  0  0  0
    8.8746   -2.4862   -2.7964 C   0  0  0  0  0  0  0  0  0  0  0  0
    7.8013    4.1899   -3.0364 H   0  0  0  0  0  0  0  0  0  0  0  0
    8.1110    4.0694   -1.2771 H   0  0  0  0  0  0  0  0  0  0  0  0
    6.4951    3.6787   -1.9231 H   0  0  0  0  0  0  0  0  0  0  0  0
    8.4085    1.9641   -3.1523 H   0  0  0  0  0  0  0  0  0  0  0  0
    7.3891   -0.7239   -1.5260 H   0  0  0  0  0  0  0  0  0  0  0  0
    9.0149   -0.3286   -0.8505 H   0  0  0  0  0  0  0  0  0  0  0  0
    8.7946   -0.5327   -5.5937 H   0  0  0  0  0  0  0  0  0  0  0  0
    8.6779   -2.7597   -6.6385 H   0  0  0  0  0  0  0  0  0  0  0  0
    8.7091   -4.7957   -5.2774 H   0  0  0  0  0  0  0  0  0  0  0  0
    8.4899   -5.8183   -2.9089 H   0  0  0  0  0  0  0  0  0  0  0  0
    8.6086   -4.7545   -1.5067 H   0  0  0  0  0  0  0  0  0  0  0  0
   10.9726   -4.8815   -1.5529 H   0  0  0  0  0  0  0  0  0  0  0  0
   13.2172   -8.0118   -4.1662 H   0  0  0  0  0  0  0  0  0  0  0  0
   15.5444   -8.6684   -3.8848 H   0  0  0  0  0  0  0  0  0  0  0  0
   16.0186   -8.7250   -2.1602 H   0  0  0  0  0  0  0  0  0  0  0  0
   16.5295   -7.3460   -3.1918 H   0  0  0  0  0  0  0  0  0  0  0  0
   16.3937   -6.4889   -0.5609 H   0  0  0  0  0  0  0  0  0  0  0  0
   15.6120   -4.8689    1.1460 H   0  0  0  0  0  0  0  0  0  0  0  0
   15.0520   -2.7631    1.5738 H   0  0  0  0  0  0  0  0  0  0  0  0
   14.2418   -1.1096    3.1904 H   0  0  0  0  0  0  0  0  0  0  0  0
   11.8511   -1.0781    3.8545 H   0  0  0  0  0  0  0  0  0  0  0  0
   10.2761   -2.7379    2.8935 H   0  0  0  0  0  0  0  0  0  0  0  0
   11.0795   -4.4166    1.2714 H   0  0  0  0  0  0  0  0  0  0  0  0
    8.9464   -2.4031   -1.7140 H   0  0  0  0  0  0  0  0  0  0  0  0
  1  2  1  0  0  0  0
  1 33  1  0  0  0  0
  1 34  1  0  0  0  0
  1 35  1  0  0  0  0
  2  3  1  0  0  0  0
  2 36  1  0  0  0  0
  3  4  2  0  0  0  0
  3  5  1  0  0  0  0
  5  6  1  0  0  0  0
  5 37  1  0  0  0  0
  5 38  1  0  0  0  0
  6  7  1  0  0  0  0
  7  8  2  0  0  0  0
  7 32  1  0  0  0  0
  8  9  1  0  0  0  0
  8 39  1  0  0  0  0
  9 10  2  0  0  0  0
  9 40  1  0  0  0  0
 10 11  1  0  0  0  0
 10 41  1  0  0  0  0
 11 12  1  0  0  0  0
 11 32  2  0  0  0  0
 12 13  1  0  0  0  0
 12 42  1  0  0  0  0
 12 43  1  0  0  0  0
 13 14  1  0  0  0  0
 13 44  1  0  0  0  0
 14 15  2  0  0  0  0
 14 16  1  0  0  0  0
 16 17  2  0  0  0  0
 16 31  1  0  0  0  0
 17 18  1  0  0  0  0
 17 45  1  0  0  0  0
 18 19  1  0  0  0  0
 18 20  1  0  0  0  0
 19 46  1  0  0  0  0
 19 47  1  0  0  0  0
 19 48  1  0  0  0  0
 20 21  2  0  0  0  0
 20 31  1  0  0  0  0
 21 22  1  0  0  0  0
 21 49  1  0  0  0  0
 22 23  2  0  0  0  0
 22 50  1  0  0  0  0
 23 24  1  0  0  0  0
 23 30  1  0  0  0  0
 24 25  2  0  0  0  0
 24 29  1  0  0  0  0
 25 26  1  0  0  0  0
 25 51  1  0  0  0  0
 26 27  2  0  0  0  0
 26 52  1  0  0  0  0
 27 28  1  0  0  0  0
 27 53  1  0  0  0  0
 28 29  2  0  0  0  0
 28 54  1  0  0  0  0
 29 55  1  0  0  0  0
 30 31  2  0  0  0  0
 32 56  1  0  0  0  0
M  END
$$$$
