
 OpenBabel01122422523D

 42 45  0  0  0  0  0  0  0  0999 V2000
    1.1275    0.0411   -0.0804 C   0  0  0  0  0  0  0  0  0  0  0  0
    2.6118    0.0302    0.1419 C   0  0  0  0  0  0  0  0  0  0  0  0
    3.1956   -1.1742   -0.0074 N   0  0  0  0  0  0  0  0  0  0  0  0
    4.5170   -1.2626    0.1334 C   0  0  0  0  0  0  0  0  0  0  0  0
    5.1326   -2.5000   -0.0259 N   0  0  0  0  0  0  0  0  0  0  0  0
    4.4439   -3.6932   -0.0093 C   0  0  0  0  0  0  0  0  0  0  0  0
    3.2733   -3.8822    0.2808 O   0  0  0  0  0  0  0  0  0  0  0  0
    5.2933   -4.9142   -0.2977 C   0  0  0  0  0  0  0  0  0  0  0  0
    6.5295   -4.8950    0.1325 N   0  0  0  0  0  0  0  0  0  0  0  0
    7.3015   -6.0195   -0.0738 N   0  0  0  0  0  0  0  0  0  0  0  0
    8.5961   -5.9893    0.5359 C   0  0  0  0  0  0  0  0  0  0  0  0
    8.8053   -5.2575    1.7199 C   0  0  0  0  0  0  0  0  0  0  0  0
   10.0421   -5.2674    2.3730 C   0  0  0  0  0  0  0  0  0  0  0  0
   11.1078   -5.9907    1.8423 C   0  0  0  0  0  0  0  0  0  0  0  0
   10.9370   -6.6997    0.6568 C   0  0  0  0  0  0  0  0  0  0  0  0
    9.6963   -6.6964    0.0179 C   0  0  0  0  0  0  0  0  0  0  0  0
    9.5919   -7.3796   -1.1336 F   0  0  0  0  0  0  0  0  0  0  0  0
    6.7863   -7.1779   -0.6267 C   0  0  0  0  0  0  0  0  0  0  0  0
    5.5472   -7.3194   -1.0933 C   0  0  0  0  0  0  0  0  0  0  0  0
    4.7103   -6.1194   -1.0154 C   0  0  0  0  0  0  0  0  0  0  0  0
    3.6055   -6.0979   -1.5323 O   0  0  0  0  0  0  0  0  0  0  0  0
    5.3137   -0.2173    0.3831 N   0  0  0  0  0  0  0  0  0  0  0  0
    4.7265    0.9835    0.5646 C   0  0  0  0  0  0  0  0  0  0  0  0
    5.5154    2.0909    0.8653 C   0  0  0  0  0  0  0  0  0  0  0  0
    4.9714    3.3699    1.0593 C   0  0  0  0  0  0  0  0  0  0  0  0
    3.6007    3.5545    0.9591 C   0  0  0  0  0  0  0  0  0  0  0  0
    2.7989    2.4624    0.6652 C   0  0  0  0  0  0  0  0  0  0  0  0
    1.4739    2.6655    0.5865 F   0  0  0  0  0  0  0  0  0  0  0  0
    3.3428    1.1731    0.4589 C   0  0  0  0  0  0  0  0  0  0  0  0
    0.7776   -0.9475   -0.3949 H   0  0  0  0  0  0  0  0  0  0  0  0
    0.8674    0.7469   -0.8751 H   0  0  0  0  0  0  0  0  0  0  0  0
    0.6019    0.3058    0.8415 H   0  0  0  0  0  0  0  0  0  0  0  0
    6.1442   -2.4954   -0.0411 H   0  0  0  0  0  0  0  0  0  0  0  0
    7.9834   -4.7028    2.1683 H   0  0  0  0  0  0  0  0  0  0  0  0
   10.1665   -4.7155    3.3014 H   0  0  0  0  0  0  0  0  0  0  0  0
   12.0684   -5.9999    2.3511 H   0  0  0  0  0  0  0  0  0  0  0  0
   11.7603   -7.2583    0.2223 H   0  0  0  0  0  0  0  0  0  0  0  0
    7.4567   -8.0321   -0.6396 H   0  0  0  0  0  0  0  0  0  0  0  0
    5.1444   -8.2285   -1.5126 H   0  0  0  0  0  0  0  0  0  0  0  0
    6.5925    1.9619    0.9563 H   0  0  0  0  0  0  0  0  0  0  0  0
    5.6212    4.2132    1.2874 H   0  0  0  0  0  0  0  0  0  0  0  0
    3.1516    4.5321    1.1052 H   0  0  0  0  0  0  0  0  0  0  0  0
  1  2  1  0  0  0  0
  1 30  1  0  0  0  0
  1 31  1  0  0  0  0
  1 32  1  0  0  0  0
  2  3  2  0  0  0  0
  2 29  1  0  0  0  0
  3  4  1  0  0  0  0
  4  5  1  0  0  0  0
  4 22  2  0  0  0  0
  5  6  1  0  0  0  0
  5 33  1  0  0  0  0
  6  7  2  0  0  0  0
  6  8  1  0  0  0  0
  8  9  2  0  0  0  0
  8 20  1  0  0  0  0
  9 10  1  0  0  0  0
 10 11  1  0  0  0  0
 10 18  1  0  0  0  0
 11 12  2  0  0  0  0
 11 16  1  0  0  0  0
 12 13  1  0  0  0  0
 12 34  1  0  0  0  0
 13 14  2  0  0  0  0
 13 35  1  0  0  0  0
 14 15  1  0  0  0  0
 14 36  1  0  0  0  0
 15 16  2  0  0  0  0
 15 37  1  0  0  0  0
 16 17  1  0  0  0  0
 18 19  2  0  0  0  0
 18 38  1  0  0  0  0
 19 20  1  0  0  0  0
 19 39  1  0  0  0  0
 20 21  2  0  0  0  0
 22 23  1  0  0  0  0
 23 24  2  0  0  0  0
 23 29  1  0  0  0  0
 24 25  1  0  0  0  0
 24 40  1  0  0  0  0
 25 26  2  0  0  0  0
 25 41  1  0  0  0  0
 26 27  1  0  0  0  0
 26 42  1  0  0  0  0
 27 28  1  0  0  0  0
 27 29  2  0  0  0  0
M  END
$$$$
