
 OpenBabel01122422523D

 46 49  0  0  0  0  0  0  0  0999 V2000
   -1.1593    2.8001    5.1160 F   0  0  0  0  0  0  0  0  0  0  0  0
   -2.2168    2.5832    4.3214 C   0  0  0  0  0  0  0  0  0  0  0  0
   -2.0119    2.2760    2.9798 C   0  0  0  0  0  0  0  0  0  0  0  0
   -3.1126    2.0493    2.1533 C   0  0  0  0  0  0  0  0  0  0  0  0
   -4.4092    2.0688    2.6828 C   0  0  0  0  0  0  0  0  0  0  0  0
   -5.5455    1.8205    1.9447 O   0  0  0  0  0  0  0  0  0  0  0  0
   -5.5235    0.8691    0.9476 C   0  0  0  0  0  0  0  0  0  0  0  0
   -4.7315   -0.2725    0.9612 C   0  0  0  0  0  0  0  0  0  0  0  0
   -4.7843   -1.1156   -0.1306 C   0  0  0  0  0  0  0  0  0  0  0  0
   -5.6116   -0.9323   -1.1833 N   0  0  0  0  0  0  0  0  0  0  0  0
   -6.4411    0.1389   -1.1431 C   0  0  0  0  0  0  0  0  0  0  0  0
   -7.4027    0.3061   -2.3051 C   0  0  0  0  0  0  0  0  0  0  0  0
   -6.8599    1.2001   -3.3312 N   0  0  0  0  0  0  0  0  0  0  0  0
   -7.7618    1.2724   -4.4847 C   0  0  0  0  0  0  0  0  0  0  0  0
   -7.1233    2.1420   -5.5112 C   0  0  0  0  0  0  0  0  0  0  0  0
   -6.2844    1.6473   -6.4314 N   0  0  0  0  0  0  0  0  0  0  0  0
   -5.8743    2.7690   -7.0881 N   0  0  0  0  0  0  0  0  0  0  0  0
   -4.8930    2.7218   -8.1111 C   0  0  0  0  0  0  0  0  0  0  0  0
   -4.3543    1.4887   -8.5088 C   0  0  0  0  0  0  0  0  0  0  0  0
   -3.3778    1.4445   -9.5053 C   0  0  0  0  0  0  0  0  0  0  0  0
   -2.9304    2.6250  -10.1008 C   0  0  0  0  0  0  0  0  0  0  0  0
   -3.4631    3.8528   -9.7057 C   0  0  0  0  0  0  0  0  0  0  0  0
   -4.4453    3.9067   -8.7146 C   0  0  0  0  0  0  0  0  0  0  0  0
   -6.4511    3.9354   -6.6840 N   0  0  0  0  0  0  0  0  0  0  0  0
   -7.2237    3.5308   -5.6748 C   0  0  0  0  0  0  0  0  0  0  0  0
   -6.4118    1.0687   -0.1070 C   0  0  0  0  0  0  0  0  0  0  0  0
   -4.6091    2.4194    4.0214 C   0  0  0  0  0  0  0  0  0  0  0  0
   -3.5070    2.6722    4.8339 C   0  0  0  0  0  0  0  0  0  0  0  0
   -3.7011    2.9982    6.1186 F   0  0  0  0  0  0  0  0  0  0  0  0
   -1.0017    2.2206    2.5911 H   0  0  0  0  0  0  0  0  0  0  0  0
   -2.9417    1.8440    1.0968 H   0  0  0  0  0  0  0  0  0  0  0  0
   -4.0704   -0.5089    1.7873 H   0  0  0  0  0  0  0  0  0  0  0  0
   -4.1427   -1.9902   -0.1941 H   0  0  0  0  0  0  0  0  0  0  0  0
   -8.3564    0.6896   -1.9271 H   0  0  0  0  0  0  0  0  0  0  0  0
   -7.5979   -0.6872   -2.7308 H   0  0  0  0  0  0  0  0  0  0  0  0
   -5.9748    0.7976   -3.6544 H   0  0  0  0  0  0  0  0  0  0  0  0
   -8.7267    1.6985   -4.1885 H   0  0  0  0  0  0  0  0  0  0  0  0
   -7.9455    0.2760   -4.9044 H   0  0  0  0  0  0  0  0  0  0  0  0
   -4.6871    0.5571   -8.0532 H   0  0  0  0  0  0  0  0  0  0  0  0
   -2.9624    0.4887   -9.8136 H   0  0  0  0  0  0  0  0  0  0  0  0
   -2.1671    2.5870  -10.8719 H   0  0  0  0  0  0  0  0  0  0  0  0
   -3.1094    4.7711  -10.1679 H   0  0  0  0  0  0  0  0  0  0  0  0
   -4.8450    4.8736   -8.4171 H   0  0  0  0  0  0  0  0  0  0  0  0
   -7.7992    4.2510   -5.1091 H   0  0  0  0  0  0  0  0  0  0  0  0
   -7.0688    1.9315   -0.1208 H   0  0  0  0  0  0  0  0  0  0  0  0
   -5.6088    2.4886    4.4357 H   0  0  0  0  0  0  0  0  0  0  0  0
  1  2  1  0  0  0  0
  2  3  2  0  0  0  0
  2 28  1  0  0  0  0
  3  4  1  0  0  0  0
  3 30  1  0  0  0  0
  4  5  2  0  0  0  0
  4 31  1  0  0  0  0
  5  6  1  0  0  0  0
  5 27  1  0  0  0  0
  6  7  1  0  0  0  0
  7  8  2  0  0  0  0
  7 26  1  0  0  0  0
  8  9  1  0  0  0  0
  8 32  1  0  0  0  0
  9 10  2  0  0  0  0
  9 33  1  0  0  0  0
 10 11  1  0  0  0  0
 11 12  1  0  0  0  0
 11 26  2  0  0  0  0
 12 13  1  0  0  0  0
 12 34  1  0  0  0  0
 12 35  1  0  0  0  0
 13 14  1  0  0  0  0
 13 36  1  0  0  0  0
 14 15  1  0  0  0  0
 14 37  1  0  0  0  0
 14 38  1  0  0  0  0
 15 16  2  0  0  0  0
 15 25  1  0  0  0  0
 16 17  1  0  0  0  0
 17 18  1  0  0  0  0
 17 24  1  0  0  0  0
 18 19  2  0  0  0  0
 18 23  1  0  0  0  0
 19 20  1  0  0  0  0
 19 39  1  0  0  0  0
 20 21  2  0  0  0  0
 20 40  1  0  0  0  0
 21 22  1  0  0  0  0
 21 41  1  0  0  0  0
 22 23  2  0  0  0  0
 22 42  1  0  0  0  0
 23 43  1  0  0  0  0
 24 25  2  0  0  0  0
 25 44  1  0  0  0  0
 26 45  1  0  0  0  0
 27 28  2  0  0  0  0
 27 46  1  0  0  0  0
 28 29  1  0  0  0  0
M  END
$$$$
