
 OpenBabel01122422523D

 45 48  0  0  0  0  0  0  0  0999 V2000
    1.2110   -1.2809   -0.3549 O   0  0  0  0  0  0  0  0  0  0  0  0
    2.3030   -0.7489   -0.1799 C   0  0  0  0  0  0  0  0  0  0  0  0
    2.9463   -0.8220    1.0340 N   0  0  0  0  0  0  0  0  0  0  0  0
    2.2821   -1.3995    2.1753 C   0  0  0  0  0  0  0  0  0  0  0  0
    3.2648   -1.9718    3.1448 C   0  0  0  0  0  0  0  0  0  0  0  0
    3.7639   -1.2454    4.2295 C   0  0  0  0  0  0  0  0  0  0  0  0
    4.6260   -1.8629    5.1337 C   0  0  0  0  0  0  0  0  0  0  0  0
    4.9605   -3.1896    4.9134 C   0  0  0  0  0  0  0  0  0  0  0  0
    5.7126   -3.8300    5.8903 O   0  0  0  0  0  0  0  0  0  0  0  0
    5.4575   -5.1751    6.0786 C   0  0  0  0  0  0  0  0  0  0  0  0
    6.5528   -6.0011    6.3394 C   0  0  0  0  0  0  0  0  0  0  0  0
    6.3600   -7.3748    6.5031 C   0  0  0  0  0  0  0  0  0  0  0  0
    5.0770   -7.9069    6.4152 C   0  0  0  0  0  0  0  0  0  0  0  0
    4.8982   -9.2278    6.5395 F   0  0  0  0  0  0  0  0  0  0  0  0
    3.9760   -7.0878    6.1992 C   0  0  0  0  0  0  0  0  0  0  0  0
    4.1640   -5.7146    6.0552 C   0  0  0  0  0  0  0  0  0  0  0  0
    4.5622   -3.8901    3.8260 N   0  0  0  0  0  0  0  0  0  0  0  0
    3.7166   -3.2756    2.9784 C   0  0  0  0  0  0  0  0  0  0  0  0
    3.0064   -0.0120   -1.1966 C   0  0  0  0  0  0  0  0  0  0  0  0
    4.3735    0.1136   -1.3924 C   0  0  0  0  0  0  0  0  0  0  0  0
    4.5130    0.7417   -2.6351 C   0  0  0  0  0  0  0  0  0  0  0  0
    3.3389    1.0094   -3.1999 N   0  0  0  0  0  0  0  0  0  0  0  0
    2.4111    0.6393   -2.2726 N   0  0  0  0  0  0  0  0  0  0  0  0
    1.0554    0.9985   -2.4764 C   0  0  0  0  0  0  0  0  0  0  0  0
    0.1671    1.2136   -1.4204 C   0  0  0  0  0  0  0  0  0  0  0  0
   -1.1599    1.5328   -1.6965 C   0  0  0  0  0  0  0  0  0  0  0  0
   -1.5501    1.6366   -3.0207 C   0  0  0  0  0  0  0  0  0  0  0  0
   -0.7091    1.4761   -4.0648 N   0  0  0  0  0  0  0  0  0  0  0  0
    0.5800    1.1717   -3.7713 C   0  0  0  0  0  0  0  0  0  0  0  0
    3.7772   -0.2679    1.1901 H   0  0  0  0  0  0  0  0  0  0  0  0
    1.5750   -2.1758    1.8580 H   0  0  0  0  0  0  0  0  0  0  0  0
    1.6847   -0.6098    2.6471 H   0  0  0  0  0  0  0  0  0  0  0  0
    3.4584   -0.2144    4.3956 H   0  0  0  0  0  0  0  0  0  0  0  0
    4.9928   -1.3375    6.0079 H   0  0  0  0  0  0  0  0  0  0  0  0
    7.5545   -5.5832    6.3931 H   0  0  0  0  0  0  0  0  0  0  0  0
    7.2009   -8.0363    6.6855 H   0  0  0  0  0  0  0  0  0  0  0  0
    2.9830   -7.5190    6.1303 H   0  0  0  0  0  0  0  0  0  0  0  0
    3.2998   -5.0788    5.8847 H   0  0  0  0  0  0  0  0  0  0  0  0
    3.3834   -3.8905    2.1456 H   0  0  0  0  0  0  0  0  0  0  0  0
    5.1636   -0.2781   -0.7675 H   0  0  0  0  0  0  0  0  0  0  0  0
    5.4218    0.9888   -3.1703 H   0  0  0  0  0  0  0  0  0  0  0  0
    0.4783    1.1623   -0.3821 H   0  0  0  0  0  0  0  0  0  0  0  0
   -1.8727    1.6938   -0.8953 H   0  0  0  0  0  0  0  0  0  0  0  0
   -2.5787    1.8634   -3.2842 H   0  0  0  0  0  0  0  0  0  0  0  0
    1.2180    1.0349   -4.6415 H   0  0  0  0  0  0  0  0  0  0  0  0
  1  2  2  0  0  0  0
  2  3  1  0  0  0  0
  2 19  1  0  0  0  0
  3  4  1  0  0  0  0
  3 30  1  0  0  0  0
  4  5  1  0  0  0  0
  4 31  1  0  0  0  0
  4 32  1  0  0  0  0
  5  6  2  0  0  0  0
  5 18  1  0  0  0  0
  6  7  1  0  0  0  0
  6 33  1  0  0  0  0
  7  8  2  0  0  0  0
  7 34  1  0  0  0  0
  8  9  1  0  0  0  0
  8 17  1  0  0  0  0
  9 10  1  0  0  0  0
 10 11  2  0  0  0  0
 10 16  1  0  0  0  0
 11 12  1  0  0  0  0
 11 35  1  0  0  0  0
 12 13  2  0  0  0  0
 12 36  1  0  0  0  0
 13 14  1  0  0  0  0
 13 15  1  0  0  0  0
 15 16  2  0  0  0  0
 15 37  1  0  0  0  0
 16 38  1  0  0  0  0
 17 18  2  0  0  0  0
 18 39  1  0  0  0  0
 19 20  2  0  0  0  0
 19 23  1  0  0  0  0
 20 21  1  0  0  0  0
 20 40  1  0  0  0  0
 21 22  2  0  0  0  0
 21 41  1  0  0  0  0
 22 23  1  0  0  0  0
 23 24  1  0  0  0  0
 24 25  2  0  0  0  0
 24 29  1  0  0  0  0
 25 26  1  0  0  0  0
 25 42  1  0  0  0  0
 26 27  2  0  0  0  0
 26 43  1  0  0  0  0
 27 28  1  0  0  0  0
 27 44  1  0  0  0  0
 28 29  2  0  0  0  0
 29 45  1  0  0  0  0
M  END
$$$$
