
 OpenBabel01122422523D

 42 45  0  0  0  0  0  0  0  0999 V2000
   -6.9505    2.2471   -8.0098 O   0  0  0  0  0  0  0  0  0  0  0  0
   -6.6390    1.7553   -6.9367 C   0  0  0  0  0  0  0  0  0  0  0  0
   -5.6540    2.4728   -6.0411 C   0  0  0  0  0  0  0  0  0  0  0  0
   -5.2555    2.0243   -4.8897 N   0  0  0  0  0  0  0  0  0  0  0  0
   -5.7772    0.7902   -4.4608 C   0  0  0  0  0  0  0  0  0  0  0  0
   -5.3482    0.2793   -3.2385 C   0  0  0  0  0  0  0  0  0  0  0  0
   -5.8818   -0.9219   -2.7579 C   0  0  0  0  0  0  0  0  0  0  0  0
   -5.3170   -1.5311   -1.1839 S   0  0  0  0  0  0  0  0  0  0  0  0
   -6.0557   -2.7368   -0.8770 O   0  0  0  0  0  0  0  0  0  0  0  0
   -3.8699   -1.5190   -1.2316 O   0  0  0  0  0  0  0  0  0  0  0  0
   -5.7766   -0.3130   -0.0991 N   0  0  0  0  0  0  0  0  0  0  0  0
   -7.1610   -0.0321    0.0483 C   0  0  0  0  0  0  0  0  0  0  0  0
   -7.7503    0.9891   -0.6874 C   0  0  0  0  0  0  0  0  0  0  0  0
   -9.1260    1.1748   -0.6064 C   0  0  0  0  0  0  0  0  0  0  0  0
   -9.8995    0.3449    0.2096 C   0  0  0  0  0  0  0  0  0  0  0  0
  -11.2242    0.5584    0.2062 F   0  0  0  0  0  0  0  0  0  0  0  0
   -9.3347   -0.6850    0.9846 C   0  0  0  0  0  0  0  0  0  0  0  0
  -10.1448   -1.5757    1.8581 C   0  0  0  0  0  0  0  0  0  0  0  0
   -9.7497   -2.9040    2.1167 C   0  0  0  0  0  0  0  0  0  0  0  0
  -10.4918   -3.7461    2.9522 C   0  0  0  0  0  0  0  0  0  0  0  0
  -11.6648   -3.2876    3.5392 C   0  0  0  0  0  0  0  0  0  0  0  0
  -12.0907   -1.9874    3.2940 C   0  0  0  0  0  0  0  0  0  0  0  0
  -11.3348   -1.1421    2.4724 C   0  0  0  0  0  0  0  0  0  0  0  0
   -7.9375   -0.8463    0.8800 C   0  0  0  0  0  0  0  0  0  0  0  0
   -6.8208   -1.6395   -3.5048 C   0  0  0  0  0  0  0  0  0  0  0  0
   -7.2362   -1.1453   -4.7457 C   0  0  0  0  0  0  0  0  0  0  0  0
   -6.7175    0.0635   -5.2136 C   0  0  0  0  0  0  0  0  0  0  0  0
   -7.1293    0.5689   -6.4525 N   0  0  0  0  0  0  0  0  0  0  0  0
   -5.2838    3.4325   -6.4343 H   0  0  0  0  0  0  0  0  0  0  0  0
   -4.6030    0.8270   -2.6674 H   0  0  0  0  0  0  0  0  0  0  0  0
   -5.1252    0.4703   -0.0970 H   0  0  0  0  0  0  0  0  0  0  0  0
   -7.1631    1.6310   -1.3367 H   0  0  0  0  0  0  0  0  0  0  0  0
   -9.6133    1.9527   -1.1863 H   0  0  0  0  0  0  0  0  0  0  0  0
   -8.8525   -3.3171    1.6593 H   0  0  0  0  0  0  0  0  0  0  0  0
  -10.1506   -4.7616    3.1361 H   0  0  0  0  0  0  0  0  0  0  0  0
  -12.2458   -3.9419    4.1831 H   0  0  0  0  0  0  0  0  0  0  0  0
  -13.0117   -1.6233    3.7422 H   0  0  0  0  0  0  0  0  0  0  0  0
  -11.6991   -0.1275    2.3257 H   0  0  0  0  0  0  0  0  0  0  0  0
   -7.4269   -1.6129    1.4604 H   0  0  0  0  0  0  0  0  0  0  0  0
   -7.2251   -2.5813   -3.1379 H   0  0  0  0  0  0  0  0  0  0  0  0
   -7.9581   -1.7090   -5.3307 H   0  0  0  0  0  0  0  0  0  0  0  0
   -7.7889    0.0694   -7.0329 H   0  0  0  0  0  0  0  0  0  0  0  0
  1  2  2  0  0  0  0
  2  3  1  0  0  0  0
  2 28  1  0  0  0  0
  3  4  2  0  0  0  0
  3 29  1  0  0  0  0
  4  5  1  0  0  0  0
  5  6  2  0  0  0  0
  5 27  1  0  0  0  0
  6  7  1  0  0  0  0
  6 30  1  0  0  0  0
  7  8  1  0  0  0  0
  7 25  2  0  0  0  0
  8  9  2  0  0  0  0
  8 10  2  0  0  0  0
  8 11  1  0  0  0  0
 11 12  1  0  0  0  0
 11 31  1  0  0  0  0
 12 13  2  0  0  0  0
 12 24  1  0  0  0  0
 13 14  1  0  0  0  0
 13 32  1  0  0  0  0
 14 15  2  0  0  0  0
 14 33  1  0  0  0  0
 15 16  1  0  0  0  0
 15 17  1  0  0  0  0
 17 18  1  0  0  0  0
 17 24  2  0  0  0  0
 18 19  2  0  0  0  0
 18 23  1  0  0  0  0
 19 20  1  0  0  0  0
 19 34  1  0  0  0  0
 20 21  2  0  0  0  0
 20 35  1  0  0  0  0
 21 22  1  0  0  0  0
 21 36  1  0  0  0  0
 22 23  2  0  0  0  0
 22 37  1  0  0  0  0
 23 38  1  0  0  0  0
 24 39  1  0  0  0  0
 25 26  1  0  0  0  0
 25 40  1  0  0  0  0
 26 27  2  0  0  0  0
 26 41  1  0  0  0  0
 27 28  1  0  0  0  0
 28 42  1  0  0  0  0
M  END
$$$$
