
 OpenBabel01122422523D

 40 43  0  0  0  0  0  0  0  0999 V2000
    1.1828    0.6756   -0.0326 O   0  0  0  0  0  0  0  0  0  0  0  0
    2.3972    0.5233    0.0301 C   0  0  0  0  0  0  0  0  0  0  0  0
    3.0752    0.3861    1.2125 N   0  0  0  0  0  0  0  0  0  0  0  0
    2.3578    0.4590    2.4702 C   0  0  0  0  0  0  0  0  0  0  0  0
    3.2946    0.2794    3.6114 C   0  0  0  0  0  0  0  0  0  0  0  0
    2.8758    0.2881    4.8829 N   0  0  0  0  0  0  0  0  0  0  0  0
    4.0530    0.1070    5.6069 O   0  0  0  0  0  0  0  0  0  0  0  0
    5.0687    0.0078    4.6959 C   0  0  0  0  0  0  0  0  0  0  0  0
    6.4142   -0.1819    5.2266 C   0  0  0  0  0  0  0  0  0  0  0  0
    6.6617   -0.2425    6.6097 C   0  0  0  0  0  0  0  0  0  0  0  0
    7.9608   -0.4131    7.0947 C   0  0  0  0  0  0  0  0  0  0  0  0
    9.0178   -0.5266    6.2010 C   0  0  0  0  0  0  0  0  0  0  0  0
   10.2621   -0.6863    6.6665 F   0  0  0  0  0  0  0  0  0  0  0  0
    8.8001   -0.4746    4.8292 C   0  0  0  0  0  0  0  0  0  0  0  0
    7.5011   -0.3031    4.3434 C   0  0  0  0  0  0  0  0  0  0  0  0
    4.6549    0.1100    3.4496 N   0  0  0  0  0  0  0  0  0  0  0  0
    3.2705    0.4605   -1.1927 C   0  0  0  0  0  0  0  0  0  0  0  0
    2.7450    0.9656   -2.3185 C   0  0  0  0  0  0  0  0  0  0  0  0
    3.5196    0.8528   -3.5734 C   0  0  0  0  0  0  0  0  0  0  0  0
    3.1204    1.3759   -4.6059 O   0  0  0  0  0  0  0  0  0  0  0  0
    4.7673    0.0553   -3.5437 C   0  0  0  0  0  0  0  0  0  0  0  0
    5.4603   -0.2145   -4.7272 C   0  0  0  0  0  0  0  0  0  0  0  0
    6.6118   -0.9897   -4.6701 C   0  0  0  0  0  0  0  0  0  0  0  0
    7.2742   -1.2674   -5.7999 F   0  0  0  0  0  0  0  0  0  0  0  0
    7.0884   -1.4848   -3.4620 C   0  0  0  0  0  0  0  0  0  0  0  0
    6.3896   -1.2020   -2.2929 C   0  0  0  0  0  0  0  0  0  0  0  0
    6.8508   -1.6766   -1.1257 F   0  0  0  0  0  0  0  0  0  0  0  0
    5.2084   -0.4538   -2.3119 C   0  0  0  0  0  0  0  0  0  0  0  0
    4.5180   -0.1375   -1.1256 N   0  0  0  0  0  0  0  0  0  0  0  0
    4.0838    0.4795    1.2432 H   0  0  0  0  0  0  0  0  0  0  0  0
    1.5897   -0.3223    2.4740 H   0  0  0  0  0  0  0  0  0  0  0  0
    1.8614    1.4336    2.5298 H   0  0  0  0  0  0  0  0  0  0  0  0
    5.8477   -0.1543    7.3266 H   0  0  0  0  0  0  0  0  0  0  0  0
    8.1530   -0.4562    8.1627 H   0  0  0  0  0  0  0  0  0  0  0  0
    9.6407   -0.5659    4.1489 H   0  0  0  0  0  0  0  0  0  0  0  0
    7.3408   -0.2623    3.2669 H   0  0  0  0  0  0  0  0  0  0  0  0
    1.7709    1.4350   -2.3780 H   0  0  0  0  0  0  0  0  0  0  0  0
    5.1066    0.1626   -5.6830 H   0  0  0  0  0  0  0  0  0  0  0  0
    7.9914   -2.0841   -3.4340 H   0  0  0  0  0  0  0  0  0  0  0  0
    4.6814   -0.7646   -0.3410 H   0  0  0  0  0  0  0  0  0  0  0  0
  1  2  2  0  0  0  0
  2  3  1  0  0  0  0
  2 17  1  0  0  0  0
  3  4  1  0  0  0  0
  3 30  1  0  0  0  0
  4  5  1  0  0  0  0
  4 31  1  0  0  0  0
  4 32  1  0  0  0  0
  5  6  2  0  0  0  0
  5 16  1  0  0  0  0
  6  7  1  0  0  0  0
  7  8  1  0  0  0  0
  8  9  1  0  0  0  0
  8 16  2  0  0  0  0
  9 10  2  0  0  0  0
  9 15  1  0  0  0  0
 10 11  1  0  0  0  0
 10 33  1  0  0  0  0
 11 12  2  0  0  0  0
 11 34  1  0  0  0  0
 12 13  1  0  0  0  0
 12 14  1  0  0  0  0
 14 15  2  0  0  0  0
 14 35  1  0  0  0  0
 15 36  1  0  0  0  0
 17 18  2  0  0  0  0
 17 29  1  0  0  0  0
 18 19  1  0  0  0  0
 18 37  1  0  0  0  0
 19 20  2  0  0  0  0
 19 21  1  0  0  0  0
 21 22  2  0  0  0  0
 21 28  1  0  0  0  0
 22 23  1  0  0  0  0
 22 38  1  0  0  0  0
 23 24  1  0  0  0  0
 23 25  2  0  0  0  0
 25 26  1  0  0  0  0
 25 39  1  0  0  0  0
 26 27  1  0  0  0  0
 26 28  2  0  0  0  0
 28 29  1  0  0  0  0
 29 40  1  0  0  0  0
M  END
$$$$
