
 OpenBabel01122422463D

 52 55  0  0  1  0  0  0  0  0999 V2000
    5.5625   -0.6211   -2.2505 C   0  0  0  0  0  0  0  0  0  0  0  0
    5.4300   -0.5813   -0.8327 O   0  0  0  0  0  0  0  0  0  0  0  0
    4.5399   -1.4604   -0.2674 C   0  0  0  0  0  0  0  0  0  0  0  0
    4.0096   -2.5664   -0.9513 C   0  0  0  0  0  0  0  0  0  0  0  0
    3.0965   -3.4264   -0.3366 C   0  0  0  0  0  0  0  0  0  0  0  0
    2.7080   -3.2026    0.9755 C   0  0  0  0  0  0  0  0  0  0  0  0
    3.2362   -2.1186    1.6707 C   0  0  0  0  0  0  0  0  0  0  0  0
    4.1617   -1.2324    1.0713 C   0  0  0  0  0  0  0  0  0  0  0  0
    4.6269   -0.0574    1.9329 C   0  0  3  0  0  0  0  0  0  0  0  0
    5.9437    0.4520    1.6176 N   0  0  0  0  0  0  0  0  0  0  0  0
    7.0751   -0.1044    2.1764 C   0  0  0  0  0  0  0  0  0  0  0  0
    7.0210   -0.9788    3.0347 O   0  0  0  0  0  0  0  0  0  0  0  0
    8.3306    0.4676    1.7130 C   0  0  0  0  0  0  0  0  0  0  0  0
    9.5118    0.6293    2.4465 C   0  0  0  0  0  0  0  0  0  0  0  0
    9.8037    0.3131    3.8504 C   0  0  0  0  0  0  0  0  0  0  0  0
    8.8518    0.4287    4.8606 C   0  0  0  0  0  0  0  0  0  0  0  0
    9.1667   -0.0106    6.1448 C   0  0  0  0  0  0  0  0  0  0  0  0
   10.4367   -0.5065    6.3990 C   0  0  0  0  0  0  0  0  0  0  0  0
   11.3405   -0.5394    5.3524 C   0  0  0  0  0  0  0  0  0  0  0  0
   11.0508   -0.1510    4.0897 N   0  0  0  0  0  0  0  0  0  0  0  0
   10.4179    1.1509    1.5412 N   0  0  0  0  0  0  0  0  0  0  0  0
   11.8080    1.5106    1.7095 C   0  0  0  0  0  0  0  0  0  0  0  0
    9.8861    1.3854    0.3180 N   0  0  0  0  0  0  0  0  0  0  0  0
    8.6378    0.9420    0.4229 C   0  0  0  0  0  0  0  0  0  0  0  0
    3.6014    1.0727    1.9994 C   0  0  0  0  0  0  0  0  0  0  0  0
    3.0693    1.4488    3.2468 C   0  0  0  0  0  0  0  0  0  0  0  0
    2.0738    2.4230    3.3395 C   0  0  0  0  0  0  0  0  0  0  0  0
    1.6031    3.0482    2.1885 C   0  0  0  0  0  0  0  0  0  0  0  0
    2.1426    2.7133    0.9477 C   0  0  0  0  0  0  0  0  0  0  0  0
    3.1385    1.7355    0.8515 C   0  0  0  0  0  0  0  0  0  0  0  0
    6.2789    0.1528   -2.5413 H   0  0  0  0  0  0  0  0  0  0  0  0
    4.6056   -0.3921   -2.7310 H   0  0  0  0  0  0  0  0  0  0  0  0
    5.9637   -1.5789   -2.5977 H   0  0  0  0  0  0  0  0  0  0  0  0
    4.2916   -2.7989   -1.9727 H   0  0  0  0  0  0  0  0  0  0  0  0
    2.6922   -4.2728   -0.8857 H   0  0  0  0  0  0  0  0  0  0  0  0
    1.9979   -3.8670    1.4599 H   0  0  0  0  0  0  0  0  0  0  0  0
    2.9175   -1.9569    2.6997 H   0  0  0  0  0  0  0  0  0  0  0  0
    4.7105   -0.4627    2.9509 H   0  0  0  0  0  0  0  0  0  0  0  0
    6.0186    1.0688    0.8245 H   0  0  0  0  0  0  0  0  0  0  0  0
    7.8573    0.8126    4.6617 H   0  0  0  0  0  0  0  0  0  0  0  0
    8.4164    0.0164    6.9295 H   0  0  0  0  0  0  0  0  0  0  0  0
   10.7123   -0.8652    7.3839 H   0  0  0  0  0  0  0  0  0  0  0  0
   12.3537   -0.9004    5.5020 H   0  0  0  0  0  0  0  0  0  0  0  0
   12.1666    1.3340    2.7191 H   0  0  0  0  0  0  0  0  0  0  0  0
   11.9127    2.5756    1.4834 H   0  0  0  0  0  0  0  0  0  0  0  0
   12.3960    0.9200    1.0006 H   0  0  0  0  0  0  0  0  0  0  0  0
    8.0068    0.9640   -0.4555 H   0  0  0  0  0  0  0  0  0  0  0  0
    3.4173    0.9686    4.1592 H   0  0  0  0  0  0  0  0  0  0  0  0
    1.6597    2.6852    4.3096 H   0  0  0  0  0  0  0  0  0  0  0  0
    0.8150    3.7939    2.2589 H   0  0  0  0  0  0  0  0  0  0  0  0
    1.7760    3.2057    0.0504 H   0  0  0  0  0  0  0  0  0  0  0  0
    3.5309    1.4795   -0.1297 H   0  0  0  0  0  0  0  0  0  0  0  0
  1  2  1  0  0  0  0
  1 31  1  0  0  0  0
  1 32  1  0  0  0  0
  1 33  1  0  0  0  0
  2  3  1  0  0  0  0
  3  4  2  0  0  0  0
  3  8  1  0  0  0  0
  4  5  1  0  0  0  0
  4 34  1  0  0  0  0
  5  6  2  0  0  0  0
  5 35  1  0  0  0  0
  6  7  1  0  0  0  0
  6 36  1  0  0  0  0
  7  8  2  0  0  0  0
  7 37  1  0  0  0  0
  8  9  1  0  0  0  0
  9 10  1  0  0  0  0
  9 25  1  0  0  0  0
  9 38  1  0  0  0  0
 10 11  1  0  0  0  0
 10 39  1  0  0  0  0
 11 12  2  0  0  0  0
 11 13  1  0  0  0  0
 13 14  2  0  0  0  0
 13 24  1  0  0  0  0
 14 15  1  0  0  0  0
 14 21  1  0  0  0  0
 15 16  2  0  0  0  0
 15 20  1  0  0  0  0
 16 17  1  0  0  0  0
 16 40  1  0  0  0  0
 17 18  2  0  0  0  0
 17 41  1  0  0  0  0
 18 19  1  0  0  0  0
 18 42  1  0  0  0  0
 19 20  2  0  0  0  0
 19 43  1  0  0  0  0
 21 22  1  0  0  0  0
 21 23  1  0  0  0  0
 22 44  1  0  0  0  0
 22 45  1  0  0  0  0
 22 46  1  0  0  0  0
 23 24  2  0  0  0  0
 24 47  1  0  0  0  0
 25 26  2  0  0  0  0
 25 30  1  0  0  0  0
 26 27  1  0  0  0  0
 26 48  1  0  0  0  0
 27 28  2  0  0  0  0
 27 49  1  0  0  0  0
 28 29  1  0  0  0  0
 28 50  1  0  0  0  0
 29 30  2  0  0  0  0
 29 51  1  0  0  0  0
 30 52  1  0  0  0  0
M  END
$$$$
