
 OpenBabel01122422523D

 48 51  0  0  1  0  0  0  0  0999 V2000
    2.0635   -0.8158   -2.0278 O   0  0  0  0  0  0  0  0  0  0  0  0
    2.8557   -0.5137   -1.1420 C   0  0  0  0  0  0  0  0  0  0  0  0
    3.2186    0.7906   -0.8856 N   0  0  0  0  0  0  0  0  0  0  0  0
    2.5023    1.9113   -1.4961 C   0  0  3  0  0  0  0  0  0  0  0  0
    1.7493    2.6822   -0.3961 C   0  0  0  0  0  0  0  0  0  0  0  0
    1.9668    2.4945    0.8067 O   0  0  0  0  0  0  0  0  0  0  0  0
    0.7318    3.7178   -0.8473 C   0  0  0  0  0  0  0  0  0  0  0  0
   -0.7060    3.2764   -0.8675 C   0  0  0  0  0  0  0  0  0  0  0  0
   -1.3262    2.7791    0.2815 C   0  0  0  0  0  0  0  0  0  0  0  0
   -2.6958    2.5057    0.2794 C   0  0  0  0  0  0  0  0  0  0  0  0
   -3.4525    2.7319   -0.8703 C   0  0  0  0  0  0  0  0  0  0  0  0
   -2.8413    3.2117   -2.0240 C   0  0  0  0  0  0  0  0  0  0  0  0
   -1.4739    3.4831   -2.0251 C   0  0  0  0  0  0  0  0  0  0  0  0
    3.4238    2.7524   -2.3770 C   0  0  0  0  0  0  0  0  0  0  0  0
    4.0514    2.1388   -3.4769 C   0  0  0  0  0  0  0  0  0  0  0  0
    4.7725    2.8894   -4.4093 C   0  0  0  0  0  0  0  0  0  0  0  0
    4.8620    4.2721   -4.2738 C   0  0  0  0  0  0  0  0  0  0  0  0
    4.2788    4.8954   -3.1768 C   0  0  0  0  0  0  0  0  0  0  0  0
    3.5976    4.1387   -2.2197 C   0  0  0  0  0  0  0  0  0  0  0  0
    3.4677   -1.5756   -0.2806 C   0  0  0  0  0  0  0  0  0  0  0  0
    3.0907   -2.8927   -0.4895 C   0  0  0  0  0  0  0  0  0  0  0  0
    3.6369   -3.8643    0.3465 C   0  0  0  0  0  0  0  0  0  0  0  0
    4.5360   -3.5300    1.3570 C   0  0  0  0  0  0  0  0  0  0  0  0
    4.8607   -2.1819    1.4678 C   0  0  0  0  0  0  0  0  0  0  0  0
    4.3515   -1.1891    0.6819 N   0  0  0  0  0  0  0  0  0  0  0  0
    5.0795   -4.4898    2.2331 N   0  0  0  0  0  0  0  0  0  0  0  0
    4.7020   -5.7156    2.0808 C   0  0  0  0  0  0  0  0  0  0  0  0
    3.8260   -6.1319    1.1202 N   0  0  0  0  0  0  0  0  0  0  0  0
    3.2674   -5.2789    0.2033 C   0  0  0  0  0  0  0  0  0  0  0  0
    2.5130   -5.6692   -0.6792 O   0  0  0  0  0  0  0  0  0  0  0  0
    3.7592    0.9624   -0.0406 H   0  0  0  0  0  0  0  0  0  0  0  0
    1.7146    1.5124   -2.1497 H   0  0  0  0  0  0  0  0  0  0  0  0
    1.0024    4.0787   -1.8437 H   0  0  0  0  0  0  0  0  0  0  0  0
    0.8273    4.5872   -0.1847 H   0  0  0  0  0  0  0  0  0  0  0  0
   -0.7566    2.6250    1.1972 H   0  0  0  0  0  0  0  0  0  0  0  0
   -3.1742    2.1338    1.1806 H   0  0  0  0  0  0  0  0  0  0  0  0
   -4.5223    2.5380   -0.8621 H   0  0  0  0  0  0  0  0  0  0  0  0
   -3.4313    3.3946   -2.9189 H   0  0  0  0  0  0  0  0  0  0  0  0
   -1.0208    3.8827   -2.9299 H   0  0  0  0  0  0  0  0  0  0  0  0
    3.9618    1.0632   -3.6257 H   0  0  0  0  0  0  0  0  0  0  0  0
    5.2465    2.3961   -5.2538 H   0  0  0  0  0  0  0  0  0  0  0  0
    5.3883    4.8623   -5.0192 H   0  0  0  0  0  0  0  0  0  0  0  0
    4.3421    5.9757   -3.0680 H   0  0  0  0  0  0  0  0  0  0  0  0
    3.1792    4.6769   -1.3735 H   0  0  0  0  0  0  0  0  0  0  0  0
    2.3821   -3.1603   -1.2670 H   0  0  0  0  0  0  0  0  0  0  0  0
    5.5619   -1.8536    2.2290 H   0  0  0  0  0  0  0  0  0  0  0  0
    5.0706   -6.5247    2.7299 H   0  0  0  0  0  0  0  0  0  0  0  0
    3.5697   -7.1065    1.0343 H   0  0  0  0  0  0  0  0  0  0  0  0
  1  2  2  0  0  0  0
  2  3  1  0  0  0  0
  2 20  1  0  0  0  0
  3  4  1  0  0  0  0
  3 31  1  0  0  0  0
  4  5  1  0  0  0  0
  4 14  1  0  0  0  0
  4 32  1  0  0  0  0
  5  6  2  0  0  0  0
  5  7  1  0  0  0  0
  7  8  1  0  0  0  0
  7 33  1  0  0  0  0
  7 34  1  0  0  0  0
  8  9  2  0  0  0  0
  8 13  1  0  0  0  0
  9 10  1  0  0  0  0
  9 35  1  0  0  0  0
 10 11  2  0  0  0  0
 10 36  1  0  0  0  0
 11 12  1  0  0  0  0
 11 37  1  0  0  0  0
 12 13  2  0  0  0  0
 12 38  1  0  0  0  0
 13 39  1  0  0  0  0
 14 15  2  0  0  0  0
 14 19  1  0  0  0  0
 15 16  1  0  0  0  0
 15 40  1  0  0  0  0
 16 17  2  0  0  0  0
 16 41  1  0  0  0  0
 17 18  1  0  0  0  0
 17 42  1  0  0  0  0
 18 19  2  0  0  0  0
 18 43  1  0  0  0  0
 19 44  1  0  0  0  0
 20 21  2  0  0  0  0
 20 25  1  0  0  0  0
 21 22  1  0  0  0  0
 21 45  1  0  0  0  0
 22 23  2  0  0  0  0
 22 29  1  0  0  0  0
 23 24  1  0  0  0  0
 23 26  1  0  0  0  0
 24 25  2  0  0  0  0
 24 46  1  0  0  0  0
 26 27  2  0  0  0  0
 27 28  1  0  0  0  0
 27 47  1  0  0  0  0
 28 29  1  0  0  0  0
 28 48  1  0  0  0  0
 29 30  2  0  0  0  0
M  END
$$$$
