
 OpenBabel01122422523D

 44 47  0  0  0  0  0  0  0  0999 V2000
    2.6982   -2.2912    1.0967 O   0  0  0  0  0  0  0  0  0  0  0  0
    2.2616   -1.5684    0.2062 C   0  0  0  0  0  0  0  0  0  0  0  0
    0.7760   -1.3078    0.0171 C   0  0  0  0  0  0  0  0  0  0  0  0
    0.0875   -2.3028   -0.8882 C   0  0  0  0  0  0  0  0  0  0  0  0
    0.0754   -3.6741   -0.5635 C   0  0  0  0  0  0  0  0  0  0  0  0
   -0.5835   -4.6213   -1.3613 C   0  0  0  0  0  0  0  0  0  0  0  0
   -1.2291   -4.1194   -2.4830 C   0  0  0  0  0  0  0  0  0  0  0  0
   -1.9417   -4.8172   -3.4148 O   0  0  0  0  0  0  0  0  0  0  0  0
   -2.3600   -3.8533   -4.2843 C   0  0  0  0  0  0  0  0  0  0  0  0
   -1.9852   -2.6248   -3.9967 N   0  0  0  0  0  0  0  0  0  0  0  0
   -1.2574   -2.7819   -2.8437 C   0  0  0  0  0  0  0  0  0  0  0  0
   -0.5922   -1.8475   -2.0378 C   0  0  0  0  0  0  0  0  0  0  0  0
    3.0704   -0.9089   -0.6930 N   0  0  0  0  0  0  0  0  0  0  0  0
    4.5098   -1.0507   -0.6706 C   0  0  0  0  0  0  0  0  0  0  0  0
    4.9949   -2.2133   -1.5053 C   0  0  0  0  0  0  0  0  0  0  0  0
    5.1125   -3.4737   -0.9284 C   0  0  0  0  0  0  0  0  0  0  0  0
    5.6713   -4.5048   -1.6792 C   0  0  0  0  0  0  0  0  0  0  0  0
    5.8971   -5.7751   -1.1952 O   0  0  0  0  0  0  0  0  0  0  0  0
    6.2491   -5.9422    0.1269 C   0  0  0  0  0  0  0  0  0  0  0  0
    7.0522   -5.0406    0.8430 C   0  0  0  0  0  0  0  0  0  0  0  0
    7.3304   -5.2674    2.1921 C   0  0  0  0  0  0  0  0  0  0  0  0
    6.8534   -6.4192    2.8033 C   0  0  0  0  0  0  0  0  0  0  0  0
    7.1276   -6.6365    4.0972 F   0  0  0  0  0  0  0  0  0  0  0  0
    6.1084   -7.3443    2.0803 C   0  0  0  0  0  0  0  0  0  0  0  0
    5.6721   -8.4651    2.6707 F   0  0  0  0  0  0  0  0  0  0  0  0
    5.8048   -7.1145    0.7411 C   0  0  0  0  0  0  0  0  0  0  0  0
    5.9920   -4.2825   -3.0121 C   0  0  0  0  0  0  0  0  0  0  0  0
    5.7914   -3.0129   -3.5251 C   0  0  0  0  0  0  0  0  0  0  0  0
    5.3131   -1.9733   -2.8027 N   0  0  0  0  0  0  0  0  0  0  0  0
    0.6508   -0.2875   -0.3699 H   0  0  0  0  0  0  0  0  0  0  0  0
    0.2949   -1.3147    1.0017 H   0  0  0  0  0  0  0  0  0  0  0  0
    0.5867   -4.0219    0.3358 H   0  0  0  0  0  0  0  0  0  0  0  0
   -0.5960   -5.6762   -1.1180 H   0  0  0  0  0  0  0  0  0  0  0  0
   -2.9557   -4.1873   -5.1219 H   0  0  0  0  0  0  0  0  0  0  0  0
   -0.6233   -0.7974   -2.3085 H   0  0  0  0  0  0  0  0  0  0  0  0
    2.6619   -0.5392   -1.5407 H   0  0  0  0  0  0  0  0  0  0  0  0
    4.8630   -1.1507    0.3624 H   0  0  0  0  0  0  0  0  0  0  0  0
    4.9297   -0.1196   -1.0686 H   0  0  0  0  0  0  0  0  0  0  0  0
    4.7989   -3.6249    0.0997 H   0  0  0  0  0  0  0  0  0  0  0  0
    7.4508   -4.1487    0.3685 H   0  0  0  0  0  0  0  0  0  0  0  0
    7.9136   -4.5527    2.7642 H   0  0  0  0  0  0  0  0  0  0  0  0
    5.2188   -7.8441    0.1923 H   0  0  0  0  0  0  0  0  0  0  0  0
    6.3929   -5.0742   -3.6329 H   0  0  0  0  0  0  0  0  0  0  0  0
    6.0255   -2.7870   -4.5619 H   0  0  0  0  0  0  0  0  0  0  0  0
  1  2  2  0  0  0  0
  2  3  1  0  0  0  0
  2 13  1  0  0  0  0
  3  4  1  0  0  0  0
  3 30  1  0  0  0  0
  3 31  1  0  0  0  0
  4  5  2  0  0  0  0
  4 12  1  0  0  0  0
  5  6  1  0  0  0  0
  5 32  1  0  0  0  0
  6  7  2  0  0  0  0
  6 33  1  0  0  0  0
  7  8  1  0  0  0  0
  7 11  1  0  0  0  0
  8  9  1  0  0  0  0
  9 10  2  0  0  0  0
  9 34  1  0  0  0  0
 10 11  1  0  0  0  0
 11 12  2  0  0  0  0
 12 35  1  0  0  0  0
 13 14  1  0  0  0  0
 13 36  1  0  0  0  0
 14 15  1  0  0  0  0
 14 37  1  0  0  0  0
 14 38  1  0  0  0  0
 15 16  2  0  0  0  0
 15 29  1  0  0  0  0
 16 17  1  0  0  0  0
 16 39  1  0  0  0  0
 17 18  1  0  0  0  0
 17 27  2  0  0  0  0
 18 19  1  0  0  0  0
 19 20  2  0  0  0  0
 19 26  1  0  0  0  0
 20 21  1  0  0  0  0
 20 40  1  0  0  0  0
 21 22  2  0  0  0  0
 21 41  1  0  0  0  0
 22 23  1  0  0  0  0
 22 24  1  0  0  0  0
 24 25  1  0  0  0  0
 24 26  2  0  0  0  0
 26 42  1  0  0  0  0
 27 28  1  0  0  0  0
 27 43  1  0  0  0  0
 28 29  2  0  0  0  0
 28 44  1  0  0  0  0
M  END
$$$$
