
 OpenBabel01122422523D

 46 49  0  0  0  0  0  0  0  0999 V2000
    4.4369   -0.4442   -3.9203 C   0  0  0  0  0  0  0  0  0  0  0  0
    3.9844    0.1769   -2.7218 O   0  0  0  0  0  0  0  0  0  0  0  0
    4.6401    1.3097   -2.3242 C   0  0  0  0  0  0  0  0  0  0  0  0
    4.2036    1.8359   -1.1068 C   0  0  0  0  0  0  0  0  0  0  0  0
    4.7969    2.9929   -0.5657 C   0  0  0  0  0  0  0  0  0  0  0  0
    4.3820    3.5287    0.6612 C   0  0  0  0  0  0  0  0  0  0  0  0
    5.0025    4.6664    1.1656 C   0  0  0  0  0  0  0  0  0  0  0  0
    6.0229    5.2386    0.4204 C   0  0  0  0  0  0  0  0  0  0  0  0
    6.7199    6.4632    0.9422 C   0  0  0  0  0  0  0  0  0  0  0  0
    6.3932    6.9830    2.0039 O   0  0  0  0  0  0  0  0  0  0  0  0
    7.7332    6.9512    0.1465 N   0  0  0  0  0  0  0  0  0  0  0  0
    8.4568    8.1659    0.4676 C   0  0  0  0  0  0  0  0  0  0  0  0
    7.7851    9.4021   -0.0739 C   0  0  0  0  0  0  0  0  0  0  0  0
    6.8177   10.0727    0.6667 C   0  0  0  0  0  0  0  0  0  0  0  0
    6.1234   11.1386    0.1904 N   0  0  0  0  0  0  0  0  0  0  0  0
    6.4006   11.5224   -1.0831 C   0  0  0  0  0  0  0  0  0  0  0  0
    5.5305   12.5672   -1.6626 C   0  0  0  0  0  0  0  0  0  0  0  0
    4.9245   13.5461   -0.8531 C   0  0  0  0  0  0  0  0  0  0  0  0
    4.0386   14.4898   -1.3865 C   0  0  0  0  0  0  0  0  0  0  0  0
    3.7376   14.4755   -2.7453 C   0  0  0  0  0  0  0  0  0  0  0  0
    4.3298   13.5270   -3.5717 C   0  0  0  0  0  0  0  0  0  0  0  0
    5.2155   12.5864   -3.0360 C   0  0  0  0  0  0  0  0  0  0  0  0
    7.4078   10.8742   -1.7986 C   0  0  0  0  0  0  0  0  0  0  0  0
    8.1113    9.8115   -1.3264 N   0  0  0  0  0  0  0  0  0  0  0  0
    6.4528    4.7510   -0.7762 N   0  0  0  0  0  0  0  0  0  0  0  0
    5.8470    3.6465   -1.2512 C   0  0  0  0  0  0  0  0  0  0  0  0
    6.2592    3.1161   -2.4606 C   0  0  0  0  0  0  0  0  0  0  0  0
    5.6711    1.9675   -2.9921 C   0  0  0  0  0  0  0  0  0  0  0  0
    6.1387    1.5247   -4.1681 F   0  0  0  0  0  0  0  0  0  0  0  0
    3.8561   -1.3602   -4.0646 H   0  0  0  0  0  0  0  0  0  0  0  0
    5.4905   -0.7327   -3.8450 H   0  0  0  0  0  0  0  0  0  0  0  0
    4.2576    0.2010   -4.7868 H   0  0  0  0  0  0  0  0  0  0  0  0
    3.3923    1.3366   -0.5786 H   0  0  0  0  0  0  0  0  0  0  0  0
    3.5794    3.0635    1.2292 H   0  0  0  0  0  0  0  0  0  0  0  0
    4.7002    5.0917    2.1169 H   0  0  0  0  0  0  0  0  0  0  0  0
    7.8647    6.5136   -0.7610 H   0  0  0  0  0  0  0  0  0  0  0  0
    9.4548    8.0712    0.0256 H   0  0  0  0  0  0  0  0  0  0  0  0
    8.5836    8.2459    1.5530 H   0  0  0  0  0  0  0  0  0  0  0  0
    6.5514    9.7556    1.6708 H   0  0  0  0  0  0  0  0  0  0  0  0
    5.1292   13.5668    0.2168 H   0  0  0  0  0  0  0  0  0  0  0  0
    3.5729   15.2247   -0.7348 H   0  0  0  0  0  0  0  0  0  0  0  0
    3.0343   15.1944   -3.1573 H   0  0  0  0  0  0  0  0  0  0  0  0
    4.0900   13.5027   -4.6317 H   0  0  0  0  0  0  0  0  0  0  0  0
    5.6258   11.8390   -3.7114 H   0  0  0  0  0  0  0  0  0  0  0  0
    7.6807   11.1817   -2.8022 H   0  0  0  0  0  0  0  0  0  0  0  0
    7.0610    3.5963   -3.0143 H   0  0  0  0  0  0  0  0  0  0  0  0
  1  2  1  0  0  0  0
  1 30  1  0  0  0  0
  1 31  1  0  0  0  0
  1 32  1  0  0  0  0
  2  3  1  0  0  0  0
  3  4  2  0  0  0  0
  3 28  1  0  0  0  0
  4  5  1  0  0  0  0
  4 33  1  0  0  0  0
  5  6  2  0  0  0  0
  5 26  1  0  0  0  0
  6  7  1  0  0  0  0
  6 34  1  0  0  0  0
  7  8  2  0  0  0  0
  7 35  1  0  0  0  0
  8  9  1  0  0  0  0
  8 25  1  0  0  0  0
  9 10  2  0  0  0  0
  9 11  1  0  0  0  0
 11 12  1  0  0  0  0
 11 36  1  0  0  0  0
 12 13  1  0  0  0  0
 12 37  1  0  0  0  0
 12 38  1  0  0  0  0
 13 14  2  0  0  0  0
 13 24  1  0  0  0  0
 14 15  1  0  0  0  0
 14 39  1  0  0  0  0
 15 16  2  0  0  0  0
 16 17  1  0  0  0  0
 16 23  1  0  0  0  0
 17 18  2  0  0  0  0
 17 22  1  0  0  0  0
 18 19  1  0  0  0  0
 18 40  1  0  0  0  0
 19 20  2  0  0  0  0
 19 41  1  0  0  0  0
 20 21  1  0  0  0  0
 20 42  1  0  0  0  0
 21 22  2  0  0  0  0
 21 43  1  0  0  0  0
 22 44  1  0  0  0  0
 23 24  2  0  0  0  0
 23 45  1  0  0  0  0
 25 26  2  0  0  0  0
 26 27  1  0  0  0  0
 27 28  2  0  0  0  0
 27 46  1  0  0  0  0
 28 29  1  0  0  0  0
M  END
$$$$
