
 OpenBabel01122422523D

 47 50  0  0  0  0  0  0  0  0999 V2000
   -1.3889   -1.8690    0.5477 C   0  0  0  0  0  0  0  0  0  0  0  0
   -0.3364   -0.8032    0.5971 C   0  0  0  0  0  0  0  0  0  0  0  0
    0.9186   -1.2228    0.9092 N   0  0  0  0  0  0  0  0  0  0  0  0
    1.9052   -0.3070    0.9163 C   0  0  0  0  0  0  0  0  0  0  0  0
    1.6964    1.0270    0.6509 C   0  0  0  0  0  0  0  0  0  0  0  0
    0.3981    1.4570    0.3450 C   0  0  0  0  0  0  0  0  0  0  0  0
    0.2584    2.8960    0.0318 C   0  0  0  0  0  0  0  0  0  0  0  0
    1.2562    3.4376   -0.4364 O   0  0  0  0  0  0  0  0  0  0  0  0
   -0.9413    3.5227    0.3518 N   0  0  0  0  0  0  0  0  0  0  0  0
   -1.2072    4.8904    0.0868 C   0  0  0  0  0  0  0  0  0  0  0  0
   -0.4730    5.6018   -0.8622 C   0  0  0  0  0  0  0  0  0  0  0  0
   -0.6705    6.9606   -1.1004 C   0  0  0  0  0  0  0  0  0  0  0  0
    0.0746    7.6616   -2.0682 N   0  0  0  0  0  0  0  0  0  0  0  0
    0.8145    7.0991   -3.0982 C   0  0  0  0  0  0  0  0  0  0  0  0
    0.8951    5.9004   -3.3540 O   0  0  0  0  0  0  0  0  0  0  0  0
    1.5025    8.0237   -4.0308 C   0  0  0  0  0  0  0  0  0  0  0  0
    2.2619    7.4460   -5.0465 C   0  0  0  0  0  0  0  0  0  0  0  0
    2.8752    8.1452   -6.0296 N   0  0  0  0  0  0  0  0  0  0  0  0
    2.6999    9.4778   -5.9991 C   0  0  0  0  0  0  0  0  0  0  0  0
    1.9683   10.1521   -5.0230 C   0  0  0  0  0  0  0  0  0  0  0  0
    1.7919   11.5430   -5.0509 C   0  0  0  0  0  0  0  0  0  0  0  0
    1.0624   12.1695   -4.0507 C   0  0  0  0  0  0  0  0  0  0  0  0
    0.5406   11.3853   -3.0452 C   0  0  0  0  0  0  0  0  0  0  0  0
    0.6706   10.0415   -3.0021 N   0  0  0  0  0  0  0  0  0  0  0  0
    1.3700    9.4103   -3.9852 C   0  0  0  0  0  0  0  0  0  0  0  0
   -1.6260    7.6371   -0.3439 C   0  0  0  0  0  0  0  0  0  0  0  0
   -2.4161    6.9329    0.5742 C   0  0  0  0  0  0  0  0  0  0  0  0
   -2.2194    5.5586    0.7787 C   0  0  0  0  0  0  0  0  0  0  0  0
   -0.6370    0.5270    0.2904 C   0  0  0  0  0  0  0  0  0  0  0  0
   -1.9036    0.8553   -0.0938 O   0  0  0  0  0  0  0  0  0  0  0  0
   -0.9682   -2.8378    0.8388 H   0  0  0  0  0  0  0  0  0  0  0  0
   -1.7838   -1.9660   -0.4684 H   0  0  0  0  0  0  0  0  0  0  0  0
   -2.2037   -1.6339    1.2380 H   0  0  0  0  0  0  0  0  0  0  0  0
    2.8991   -0.6833    1.1409 H   0  0  0  0  0  0  0  0  0  0  0  0
    2.5312    1.7220    0.6635 H   0  0  0  0  0  0  0  0  0  0  0  0
   -1.5908    3.0264    0.9521 H   0  0  0  0  0  0  0  0  0  0  0  0
    0.2835    5.0855   -1.4358 H   0  0  0  0  0  0  0  0  0  0  0  0
    0.0010    8.6790   -2.0691 H   0  0  0  0  0  0  0  0  0  0  0  0
    2.3947    6.3661   -5.1180 H   0  0  0  0  0  0  0  0  0  0  0  0
    3.1824   10.0134   -6.8138 H   0  0  0  0  0  0  0  0  0  0  0  0
    2.2134   12.1379   -5.8576 H   0  0  0  0  0  0  0  0  0  0  0  0
    0.9042   13.2416   -4.0564 H   0  0  0  0  0  0  0  0  0  0  0  0
   -0.0211   11.8231   -2.2239 H   0  0  0  0  0  0  0  0  0  0  0  0
   -1.7931    8.7018   -0.4845 H   0  0  0  0  0  0  0  0  0  0  0  0
   -3.1831    7.4588    1.1358 H   0  0  0  0  0  0  0  0  0  0  0  0
   -2.8381    5.0401    1.5043 H   0  0  0  0  0  0  0  0  0  0  0  0
   -1.8357    1.4422   -0.8716 H   0  0  0  0  0  0  0  0  0  0  0  0
  1  2  1  0  0  0  0
  1 31  1  0  0  0  0
  1 32  1  0  0  0  0
  1 33  1  0  0  0  0
  2  3  2  0  0  0  0
  2 29  1  0  0  0  0
  3  4  1  0  0  0  0
  4  5  2  0  0  0  0
  4 34  1  0  0  0  0
  5  6  1  0  0  0  0
  5 35  1  0  0  0  0
  6  7  1  0  0  0  0
  6 29  2  0  0  0  0
  7  8  2  0  0  0  0
  7  9  1  0  0  0  0
  9 10  1  0  0  0  0
  9 36  1  0  0  0  0
 10 11  2  0  0  0  0
 10 28  1  0  0  0  0
 11 12  1  0  0  0  0
 11 37  1  0  0  0  0
 12 13  1  0  0  0  0
 12 26  2  0  0  0  0
 13 14  1  0  0  0  0
 13 38  1  0  0  0  0
 14 15  2  0  0  0  0
 14 16  1  0  0  0  0
 16 17  2  0  0  0  0
 16 25  1  0  0  0  0
 17 18  1  0  0  0  0
 17 39  1  0  0  0  0
 18 19  2  0  0  0  0
 19 20  1  0  0  0  0
 19 40  1  0  0  0  0
 20 21  2  0  0  0  0
 20 25  1  0  0  0  0
 21 22  1  0  0  0  0
 21 41  1  0  0  0  0
 22 23  2  0  0  0  0
 22 42  1  0  0  0  0
 23 24  1  0  0  0  0
 23 43  1  0  0  0  0
 24 25  2  0  0  0  0
 26 27  1  0  0  0  0
 26 44  1  0  0  0  0
 27 28  2  0  0  0  0
 27 45  1  0  0  0  0
 28 46  1  0  0  0  0
 29 30  1  0  0  0  0
 30 47  1  0  0  0  0
M  END
$$$$
