
 OpenBabel01122422523D

 42 45  0  0  0  0  0  0  0  0999 V2000
    1.0018   -0.4178    0.2456 O   0  0  0  0  0  0  0  0  0  0  0  0
    2.2029   -0.2079    0.0989 C   0  0  0  0  0  0  0  0  0  0  0  0
    2.8674    0.8763    0.6656 N   0  0  0  0  0  0  0  0  0  0  0  0
    2.2618    1.8281    1.4662 C   0  0  0  0  0  0  0  0  0  0  0  0
    1.1561    1.5867    2.1798 C   0  0  0  0  0  0  0  0  0  0  0  0
    0.4328    2.6543    2.9096 C   0  0  0  0  0  0  0  0  0  0  0  0
   -0.6067    2.3065    3.4692 O   0  0  0  0  0  0  0  0  0  0  0  0
    0.9776    3.9546    2.8291 N   0  0  0  0  0  0  0  0  0  0  0  0
    0.2645    5.0669    3.4364 C   0  0  0  0  0  0  0  0  0  0  0  0
   -0.6546    4.8814    4.4835 C   0  0  0  0  0  0  0  0  0  0  0  0
   -1.3715    5.9470    5.0382 C   0  0  0  0  0  0  0  0  0  0  0  0
   -1.1737    7.2380    4.5686 C   0  0  0  0  0  0  0  0  0  0  0  0
   -0.2595    7.4574    3.5445 C   0  0  0  0  0  0  0  0  0  0  0  0
    0.4497    6.3862    2.9845 C   0  0  0  0  0  0  0  0  0  0  0  0
    2.1816    4.1460    2.1416 C   0  0  0  0  0  0  0  0  0  0  0  0
    2.8285    3.1534    1.5113 C   0  0  0  0  0  0  0  0  0  0  0  0
    2.9961   -1.0275   -0.7783 C   0  0  0  0  0  0  0  0  0  0  0  0
    2.7002   -1.6339   -1.9845 C   0  0  0  0  0  0  0  0  0  0  0  0
    1.4999   -1.4279   -2.7784 C   0  0  0  0  0  0  0  0  0  0  0  0
    0.9099   -0.1579   -2.8891 C   0  0  0  0  0  0  0  0  0  0  0  0
   -0.2706    0.0230   -3.6117 C   0  0  0  0  0  0  0  0  0  0  0  0
   -0.8642   -1.0613   -4.2523 C   0  0  0  0  0  0  0  0  0  0  0  0
   -0.2720   -2.3205   -4.1780 C   0  0  0  0  0  0  0  0  0  0  0  0
    0.9077   -2.5040   -3.4490 C   0  0  0  0  0  0  0  0  0  0  0  0
    3.7220   -2.4888   -2.3336 N   0  0  0  0  0  0  0  0  0  0  0  0
    4.5932   -2.3411   -1.3615 C   0  0  0  0  0  0  0  0  0  0  0  0
    4.2500   -1.4374   -0.3999 O   0  0  0  0  0  0  0  0  0  0  0  0
    3.7935    1.0757    0.2989 H   0  0  0  0  0  0  0  0  0  0  0  0
    0.6777    0.6169    2.2444 H   0  0  0  0  0  0  0  0  0  0  0  0
   -0.8336    3.9042    4.9220 H   0  0  0  0  0  0  0  0  0  0  0  0
   -2.0835    5.7549    5.8371 H   0  0  0  0  0  0  0  0  0  0  0  0
   -1.7336    8.0642    4.9968 H   0  0  0  0  0  0  0  0  0  0  0  0
   -0.1095    8.4656    3.1648 H   0  0  0  0  0  0  0  0  0  0  0  0
    1.1068    6.6156    2.1518 H   0  0  0  0  0  0  0  0  0  0  0  0
    2.6190    5.1382    2.1539 H   0  0  0  0  0  0  0  0  0  0  0  0
    3.7667    3.3549    1.0058 H   0  0  0  0  0  0  0  0  0  0  0  0
    1.3484    0.7103   -2.4045 H   0  0  0  0  0  0  0  0  0  0  0  0
   -0.7292    1.0071   -3.6632 H   0  0  0  0  0  0  0  0  0  0  0  0
   -1.7897   -0.9226   -4.8048 H   0  0  0  0  0  0  0  0  0  0  0  0
   -0.7353   -3.1663   -4.6806 H   0  0  0  0  0  0  0  0  0  0  0  0
    1.3516   -3.4957   -3.3917 H   0  0  0  0  0  0  0  0  0  0  0  0
    5.5383   -2.8502   -1.2317 H   0  0  0  0  0  0  0  0  0  0  0  0
  1  2  2  0  0  0  0
  2  3  1  0  0  0  0
  2 17  1  0  0  0  0
  3  4  1  0  0  0  0
  3 28  1  0  0  0  0
  4  5  2  0  0  0  0
  4 16  1  0  0  0  0
  5  6  1  0  0  0  0
  5 29  1  0  0  0  0
  6  7  2  0  0  0  0
  6  8  1  0  0  0  0
  8  9  1  0  0  0  0
  8 15  1  0  0  0  0
  9 10  2  0  0  0  0
  9 14  1  0  0  0  0
 10 11  1  0  0  0  0
 10 30  1  0  0  0  0
 11 12  2  0  0  0  0
 11 31  1  0  0  0  0
 12 13  1  0  0  0  0
 12 32  1  0  0  0  0
 13 14  2  0  0  0  0
 13 33  1  0  0  0  0
 14 34  1  0  0  0  0
 15 16  2  0  0  0  0
 15 35  1  0  0  0  0
 16 36  1  0  0  0  0
 17 18  2  0  0  0  0
 17 27  1  0  0  0  0
 18 19  1  0  0  0  0
 18 25  1  0  0  0  0
 19 20  2  0  0  0  0
 19 24  1  0  0  0  0
 20 21  1  0  0  0  0
 20 37  1  0  0  0  0
 21 22  2  0  0  0  0
 21 38  1  0  0  0  0
 22 23  1  0  0  0  0
 22 39  1  0  0  0  0
 23 24  2  0  0  0  0
 23 40  1  0  0  0  0
 24 41  1  0  0  0  0
 25 26  2  0  0  0  0
 26 27  1  0  0  0  0
 26 42  1  0  0  0  0
M  END
$$$$
