
 OpenBabel01122422523D

 45 48  0  0  0  0  0  0  0  0999 V2000
    1.2636    0.6183   -0.5673 O   0  0  0  0  0  0  0  0  0  0  0  0
    2.4557    0.4446   -0.3332 C   0  0  0  0  0  0  0  0  0  0  0  0
    3.2283   -0.2917   -1.2021 N   0  0  0  0  0  0  0  0  0  0  0  0
    4.6477   -0.5687   -1.0913 C   0  0  0  0  0  0  0  0  0  0  0  0
    5.1655   -1.8246   -1.7233 C   0  0  0  0  0  0  0  0  0  0  0  0
    4.2959   -2.7569   -2.3108 C   0  0  0  0  0  0  0  0  0  0  0  0
    4.7804   -3.9651   -2.7911 C   0  0  0  0  0  0  0  0  0  0  0  0
    6.1323   -4.2053   -2.6882 C   0  0  0  0  0  0  0  0  0  0  0  0
    7.0064   -3.3403   -2.1338 N   0  0  0  0  0  0  0  0  0  0  0  0
    6.5268   -2.1702   -1.6525 C   0  0  0  0  0  0  0  0  0  0  0  0
    7.4648   -1.5470   -0.8888 O   0  0  0  0  0  0  0  0  0  0  0  0
    7.7084   -0.1690   -1.0720 C   0  0  0  0  0  0  0  0  0  0  0  0
    7.1941    0.2970   -2.2334 F   0  0  0  0  0  0  0  0  0  0  0  0
    7.0940    0.4956   -0.0587 F   0  0  0  0  0  0  0  0  0  0  0  0
    3.0422    0.9256    0.9433 C   0  0  0  0  0  0  0  0  0  0  0  0
    2.3157    0.6563    2.0995 C   0  0  0  0  0  0  0  0  0  0  0  0
    2.9306    0.8105    3.3320 C   0  0  0  0  0  0  0  0  0  0  0  0
    4.2672    1.2362    3.4087 C   0  0  0  0  0  0  0  0  0  0  0  0
    4.8553    1.2320    4.6867 N   0  0  0  0  0  0  0  0  0  0  0  0
    4.6416    0.2289    5.6141 C   0  0  0  0  0  0  0  0  0  0  0  0
    4.6891    0.6765    6.8446 N   0  0  0  0  0  0  0  0  0  0  0  0
    5.0205    1.9999    6.7075 C   0  0  0  0  0  0  0  0  0  0  0  0
    5.0452    2.9964    7.6901 C   0  0  0  0  0  0  0  0  0  0  0  0
    5.4359    4.2891    7.3252 C   0  0  0  0  0  0  0  0  0  0  0  0
    5.8294    4.5737    6.0170 C   0  0  0  0  0  0  0  0  0  0  0  0
    5.7757    3.6036    5.0069 C   0  0  0  0  0  0  0  0  0  0  0  0
    5.3111    2.3270    5.3868 C   0  0  0  0  0  0  0  0  0  0  0  0
    4.9540    1.6480    2.2716 C   0  0  0  0  0  0  0  0  0  0  0  0
    4.3167    1.5156    1.0333 C   0  0  0  0  0  0  0  0  0  0  0  0
    2.7580   -0.4786   -2.0788 H   0  0  0  0  0  0  0  0  0  0  0  0
    4.9152   -0.6321   -0.0358 H   0  0  0  0  0  0  0  0  0  0  0  0
    5.1155    0.2971   -1.5628 H   0  0  0  0  0  0  0  0  0  0  0  0
    3.2218   -2.5817   -2.3496 H   0  0  0  0  0  0  0  0  0  0  0  0
    4.1096   -4.7110   -3.2056 H   0  0  0  0  0  0  0  0  0  0  0  0
    6.5618   -5.1445   -3.0252 H   0  0  0  0  0  0  0  0  0  0  0  0
    8.7784    0.0506   -1.0322 H   0  0  0  0  0  0  0  0  0  0  0  0
    1.2959    0.2835    2.0461 H   0  0  0  0  0  0  0  0  0  0  0  0
    2.3559    0.6051    4.2336 H   0  0  0  0  0  0  0  0  0  0  0  0
    4.3795   -0.7794    5.3137 H   0  0  0  0  0  0  0  0  0  0  0  0
    4.7289    2.7617    8.7013 H   0  0  0  0  0  0  0  0  0  0  0  0
    5.4106    5.0796    8.0690 H   0  0  0  0  0  0  0  0  0  0  0  0
    6.1529    5.5800    5.7646 H   0  0  0  0  0  0  0  0  0  0  0  0
    6.0377    3.8434    3.9877 H   0  0  0  0  0  0  0  0  0  0  0  0
    5.9891    1.9801    2.3063 H   0  0  0  0  0  0  0  0  0  0  0  0
    4.8553    1.7978    0.1332 H   0  0  0  0  0  0  0  0  0  0  0  0
  1  2  2  0  0  0  0
  2  3  1  0  0  0  0
  2 15  1  0  0  0  0
  3  4  1  0  0  0  0
  3 30  1  0  0  0  0
  4  5  1  0  0  0  0
  4 31  1  0  0  0  0
  4 32  1  0  0  0  0
  5  6  2  0  0  0  0
  5 10  1  0  0  0  0
  6  7  1  0  0  0  0
  6 33  1  0  0  0  0
  7  8  2  0  0  0  0
  7 34  1  0  0  0  0
  8  9  1  0  0  0  0
  8 35  1  0  0  0  0
  9 10  2  0  0  0  0
 10 11  1  0  0  0  0
 11 12  1  0  0  0  0
 12 13  1  0  0  0  0
 12 14  1  0  0  0  0
 12 36  1  0  0  0  0
 15 16  2  0  0  0  0
 15 29  1  0  0  0  0
 16 17  1  0  0  0  0
 16 37  1  0  0  0  0
 17 18  2  0  0  0  0
 17 38  1  0  0  0  0
 18 19  1  0  0  0  0
 18 28  1  0  0  0  0
 19 20  1  0  0  0  0
 19 27  1  0  0  0  0
 20 21  2  0  0  0  0
 20 39  1  0  0  0  0
 21 22  1  0  0  0  0
 22 23  2  0  0  0  0
 22 27  1  0  0  0  0
 23 24  1  0  0  0  0
 23 40  1  0  0  0  0
 24 25  2  0  0  0  0
 24 41  1  0  0  0  0
 25 26  1  0  0  0  0
 25 42  1  0  0  0  0
 26 27  2  0  0  0  0
 26 43  1  0  0  0  0
 28 29  2  0  0  0  0
 28 44  1  0  0  0  0
 29 45  1  0  0  0  0
M  END
$$$$
