
 OpenBabel01122422463D

 42 45  0  0  0  0  0  0  0  0999 V2000
    1.0533   -0.1194    0.3154 O   0  0  0  0  0  0  0  0  0  0  0  0
    2.2537   -0.1182    0.0609 C   0  0  0  0  0  0  0  0  0  0  0  0
    2.8630    0.5330   -0.9916 N   0  0  0  0  0  0  0  0  0  0  0  0
    2.2291    1.3482   -1.9086 C   0  0  0  0  0  0  0  0  0  0  0  0
    1.0329    1.9348   -1.7350 C   0  0  0  0  0  0  0  0  0  0  0  0
    0.4137    2.7561   -2.7587 C   0  0  0  0  0  0  0  0  0  0  0  0
   -0.8854    3.4114   -2.5470 C   0  0  0  0  0  0  0  0  0  0  0  0
   -2.0723    2.7717   -2.9018 C   0  0  0  0  0  0  0  0  0  0  0  0
   -3.2668    3.4221   -2.6415 C   0  0  0  0  0  0  0  0  0  0  0  0
   -3.3490    4.6389   -2.0614 N   0  0  0  0  0  0  0  0  0  0  0  0
   -2.1852    5.2283   -1.7135 C   0  0  0  0  0  0  0  0  0  0  0  0
   -0.9416    4.6618   -1.9305 C   0  0  0  0  0  0  0  0  0  0  0  0
    1.0528    2.9223   -3.9304 C   0  0  0  0  0  0  0  0  0  0  0  0
    2.2816    2.3466   -4.1461 N   0  0  0  0  0  0  0  0  0  0  0  0
    2.9473    1.5855   -3.2114 C   0  0  0  0  0  0  0  0  0  0  0  0
    4.0569    1.0990   -3.4174 O   0  0  0  0  0  0  0  0  0  0  0  0
    3.1342   -0.9508    0.9044 C   0  0  0  0  0  0  0  0  0  0  0  0
    2.6888   -2.2290    1.2609 C   0  0  0  0  0  0  0  0  0  0  0  0
    3.4659   -3.0414    2.0856 C   0  0  0  0  0  0  0  0  0  0  0  0
    4.6814   -2.5597    2.5903 C   0  0  0  0  0  0  0  0  0  0  0  0
    5.4720   -3.3851    3.4252 N   0  0  0  0  0  0  0  0  0  0  0  0
    5.4682   -4.7625    3.4574 C   0  0  0  0  0  0  0  0  0  0  0  0
    6.4224   -5.1217    4.3797 C   0  0  0  0  0  0  0  0  0  0  0  0
    6.9821   -4.0159    4.9524 N   0  0  0  0  0  0  0  0  0  0  0  0
    6.3983   -2.9936    4.3658 C   0  0  0  0  0  0  0  0  0  0  0  0
    5.0999   -1.2656    2.2505 C   0  0  0  0  0  0  0  0  0  0  0  0
    6.2646   -0.7722    2.6917 F   0  0  0  0  0  0  0  0  0  0  0  0
    4.3449   -0.4646    1.3970 C   0  0  0  0  0  0  0  0  0  0  0  0
    3.8105    0.2640   -1.2546 H   0  0  0  0  0  0  0  0  0  0  0  0
    0.4756    1.8247   -0.8097 H   0  0  0  0  0  0  0  0  0  0  0  0
   -2.0737    1.7868   -3.3559 H   0  0  0  0  0  0  0  0  0  0  0  0
   -4.2194    2.9656   -2.8949 H   0  0  0  0  0  0  0  0  0  0  0  0
   -2.2823    6.1983   -1.2341 H   0  0  0  0  0  0  0  0  0  0  0  0
   -0.0427    5.1800   -1.6151 H   0  0  0  0  0  0  0  0  0  0  0  0
    0.6473    3.5117   -4.7477 H   0  0  0  0  0  0  0  0  0  0  0  0
    2.7555    2.4798   -5.0308 H   0  0  0  0  0  0  0  0  0  0  0  0
    1.7198   -2.5837    0.9086 H   0  0  0  0  0  0  0  0  0  0  0  0
    3.0758   -4.0191    2.3575 H   0  0  0  0  0  0  0  0  0  0  0  0
    4.8591   -5.3645    2.8001 H   0  0  0  0  0  0  0  0  0  0  0  0
    6.7399   -6.1201    4.6520 H   0  0  0  0  0  0  0  0  0  0  0  0
    6.5826   -1.9566    4.6147 H   0  0  0  0  0  0  0  0  0  0  0  0
    4.6979    0.5329    1.1551 H   0  0  0  0  0  0  0  0  0  0  0  0
  1  2  2  0  0  0  0
  2  3  1  0  0  0  0
  2 17  1  0  0  0  0
  3  4  1  0  0  0  0
  3 29  1  0  0  0  0
  4  5  2  0  0  0  0
  4 15  1  0  0  0  0
  5  6  1  0  0  0  0
  5 30  1  0  0  0  0
  6  7  1  0  0  0  0
  6 13  2  0  0  0  0
  7  8  2  0  0  0  0
  7 12  1  0  0  0  0
  8  9  1  0  0  0  0
  8 31  1  0  0  0  0
  9 10  2  0  0  0  0
  9 32  1  0  0  0  0
 10 11  1  0  0  0  0
 11 12  2  0  0  0  0
 11 33  1  0  0  0  0
 12 34  1  0  0  0  0
 13 14  1  0  0  0  0
 13 35  1  0  0  0  0
 14 15  1  0  0  0  0
 14 36  1  0  0  0  0
 15 16  2  0  0  0  0
 17 18  2  0  0  0  0
 17 28  1  0  0  0  0
 18 19  1  0  0  0  0
 18 37  1  0  0  0  0
 19 20  2  0  0  0  0
 19 38  1  0  0  0  0
 20 21  1  0  0  0  0
 20 26  1  0  0  0  0
 21 22  1  0  0  0  0
 21 25  1  0  0  0  0
 22 23  2  0  0  0  0
 22 39  1  0  0  0  0
 23 24  1  0  0  0  0
 23 40  1  0  0  0  0
 24 25  2  0  0  0  0
 25 41  1  0  0  0  0
 26 27  1  0  0  0  0
 26 28  2  0  0  0  0
 28 42  1  0  0  0  0
M  END
$$$$
