
 OpenBabel01122422523D

 55 58  0  0  0  0  0  0  0  0999 V2000
    1.2329    0.3099   -0.6465 C   0  0  0  0  0  0  0  0  0  0  0  0
    2.4977    0.0350   -0.0614 O   0  0  0  0  0  0  0  0  0  0  0  0
    3.0492   -1.1973   -0.3174 C   0  0  0  0  0  0  0  0  0  0  0  0
    2.7062   -1.9859   -1.4190 C   0  0  0  0  0  0  0  0  0  0  0  0
    3.3426   -3.2110   -1.6396 C   0  0  0  0  0  0  0  0  0  0  0  0
    4.3505   -3.6542   -0.7802 C   0  0  0  0  0  0  0  0  0  0  0  0
    4.9984   -4.9922   -0.9805 C   0  0  0  0  0  0  0  0  0  0  0  0
    4.7324   -2.8446    0.2962 C   0  0  0  0  0  0  0  0  0  0  0  0
    4.0805   -1.6251    0.5460 C   0  0  0  0  0  0  0  0  0  0  0  0
    4.4319   -0.8670    1.7128 N   0  0  0  0  0  0  0  0  0  0  0  0
    3.4469   -0.5158    2.6379 C   0  0  0  0  0  0  0  0  0  0  0  0
    3.7106    0.2210    3.7303 C   0  0  0  0  0  0  0  0  0  0  0  0
    2.6672    0.5069    4.7728 C   0  0  0  0  0  0  0  0  0  0  0  0
    2.9943    0.7143    5.9384 O   0  0  0  0  0  0  0  0  0  0  0  0
    1.3654    0.5436    4.3368 N   0  0  0  0  0  0  0  0  0  0  0  0
    0.2723    0.8348    5.2371 C   0  0  0  0  0  0  0  0  0  0  0  0
   -0.1060    2.2926    5.2075 C   0  0  0  0  0  0  0  0  0  0  0  0
    0.5194    3.1926    6.0779 C   0  0  0  0  0  0  0  0  0  0  0  0
    0.1402    4.5304    6.0962 C   0  0  0  0  0  0  0  0  0  0  0  0
   -0.8512    4.9867    5.2256 C   0  0  0  0  0  0  0  0  0  0  0  0
   -1.4716    4.1283    4.2988 C   0  0  0  0  0  0  0  0  0  0  0  0
   -2.5048    4.6253    3.3623 C   0  0  0  0  0  0  0  0  0  0  0  0
   -2.5049    5.9338    2.8734 C   0  0  0  0  0  0  0  0  0  0  0  0
   -3.5383    6.3603    2.0423 C   0  0  0  0  0  0  0  0  0  0  0  0
   -4.5468    5.4680    1.7058 C   0  0  0  0  0  0  0  0  0  0  0  0
   -4.4672    4.1808    2.2057 C   0  0  0  0  0  0  0  0  0  0  0  0
   -3.4751    3.7395    3.0125 N   0  0  0  0  0  0  0  0  0  0  0  0
   -1.0838    2.7731    4.3157 C   0  0  0  0  0  0  0  0  0  0  0  0
    5.0716    0.6666    3.9493 C   0  0  0  0  0  0  0  0  0  0  0  0
    6.0527    0.3361    3.1013 C   0  0  0  0  0  0  0  0  0  0  0  0
    5.7753   -0.5060    1.9031 C   0  0  0  0  0  0  0  0  0  0  0  0
    6.7198   -0.7915    1.1697 O   0  0  0  0  0  0  0  0  0  0  0  0
    0.8972    1.2808   -0.2690 H   0  0  0  0  0  0  0  0  0  0  0  0
    0.4956   -0.4408   -0.3447 H   0  0  0  0  0  0  0  0  0  0  0  0
    1.3000    0.3884   -1.7356 H   0  0  0  0  0  0  0  0  0  0  0  0
    1.9605   -1.6679   -2.1395 H   0  0  0  0  0  0  0  0  0  0  0  0
    3.0478   -3.8115   -2.4972 H   0  0  0  0  0  0  0  0  0  0  0  0
    4.6356   -5.4821   -1.8898 H   0  0  0  0  0  0  0  0  0  0  0  0
    4.7696   -5.6479   -0.1342 H   0  0  0  0  0  0  0  0  0  0  0  0
    6.0842   -4.8822   -1.0658 H   0  0  0  0  0  0  0  0  0  0  0  0
    5.5155   -3.1866    0.9706 H   0  0  0  0  0  0  0  0  0  0  0  0
    2.4614   -0.9237    2.4409 H   0  0  0  0  0  0  0  0  0  0  0  0
    1.1609    0.5439    3.3489 H   0  0  0  0  0  0  0  0  0  0  0  0
    0.5302    0.5325    6.2594 H   0  0  0  0  0  0  0  0  0  0  0  0
   -0.5795    0.2173    4.9313 H   0  0  0  0  0  0  0  0  0  0  0  0
    1.2963    2.8468    6.7584 H   0  0  0  0  0  0  0  0  0  0  0  0
    0.6073    5.2185    6.7959 H   0  0  0  0  0  0  0  0  0  0  0  0
   -1.1481    6.0305    5.2964 H   0  0  0  0  0  0  0  0  0  0  0  0
   -1.7090    6.6271    3.1270 H   0  0  0  0  0  0  0  0  0  0  0  0
   -3.5547    7.3801    1.6699 H   0  0  0  0  0  0  0  0  0  0  0  0
   -5.3724    5.7716    1.0731 H   0  0  0  0  0  0  0  0  0  0  0  0
   -5.2296    3.4444    1.9667 H   0  0  0  0  0  0  0  0  0  0  0  0
   -1.5643    2.0792    3.6265 H   0  0  0  0  0  0  0  0  0  0  0  0
    5.2768    1.2765    4.8247 H   0  0  0  0  0  0  0  0  0  0  0  0
    7.0761    0.6610    3.2373 H   0  0  0  0  0  0  0  0  0  0  0  0
  1  2  1  0  0  0  0
  1 33  1  0  0  0  0
  1 34  1  0  0  0  0
  1 35  1  0  0  0  0
  2  3  1  0  0  0  0
  3  4  2  0  0  0  0
  3  9  1  0  0  0  0
  4  5  1  0  0  0  0
  4 36  1  0  0  0  0
  5  6  2  0  0  0  0
  5 37  1  0  0  0  0
  6  7  1  0  0  0  0
  6  8  1  0  0  0  0
  7 38  1  0  0  0  0
  7 39  1  0  0  0  0
  7 40  1  0  0  0  0
  8  9  2  0  0  0  0
  8 41  1  0  0  0  0
  9 10  1  0  0  0  0
 10 11  1  0  0  0  0
 10 31  1  0  0  0  0
 11 12  2  0  0  0  0
 11 42  1  0  0  0  0
 12 13  1  0  0  0  0
 12 29  1  0  0  0  0
 13 14  2  0  0  0  0
 13 15  1  0  0  0  0
 15 16  1  0  0  0  0
 15 43  1  0  0  0  0
 16 17  1  0  0  0  0
 16 44  1  0  0  0  0
 16 45  1  0  0  0  0
 17 18  2  0  0  0  0
 17 28  1  0  0  0  0
 18 19  1  0  0  0  0
 18 46  1  0  0  0  0
 19 20  2  0  0  0  0
 19 47  1  0  0  0  0
 20 21  1  0  0  0  0
 20 48  1  0  0  0  0
 21 22  1  0  0  0  0
 21 28  2  0  0  0  0
 22 23  2  0  0  0  0
 22 27  1  0  0  0  0
 23 24  1  0  0  0  0
 23 49  1  0  0  0  0
 24 25  2  0  0  0  0
 24 50  1  0  0  0  0
 25 26  1  0  0  0  0
 25 51  1  0  0  0  0
 26 27  2  0  0  0  0
 26 52  1  0  0  0  0
 28 53  1  0  0  0  0
 29 30  2  0  0  0  0
 29 54  1  0  0  0  0
 30 31  1  0  0  0  0
 30 55  1  0  0  0  0
 31 32  2  0  0  0  0
M  END
$$$$
