
 OpenBabel01122422523D

 51 54  0  0  0  0  0  0  0  0999 V2000
    4.6475    6.9061    2.5087 C   0  0  0  0  0  0  0  0  0  0  0  0
    4.7754    5.6093    1.9461 O   0  0  0  0  0  0  0  0  0  0  0  0
    5.2126    5.5004    0.6477 C   0  0  0  0  0  0  0  0  0  0  0  0
    5.4184    6.6186   -0.1782 C   0  0  0  0  0  0  0  0  0  0  0  0
    5.9251    6.4712   -1.4687 C   0  0  0  0  0  0  0  0  0  0  0  0
    6.2250    5.2043   -1.9504 C   0  0  0  0  0  0  0  0  0  0  0  0
    5.9830    4.0791   -1.1559 C   0  0  0  0  0  0  0  0  0  0  0  0
    5.4671    4.1965    0.1486 C   0  0  0  0  0  0  0  0  0  0  0  0
    5.1775    2.9703    0.9230 C   0  0  0  0  0  0  0  0  0  0  0  0
    4.0953    2.8738    1.7820 C   0  0  0  0  0  0  0  0  0  0  0  0
    4.0787    1.6343    2.3534 N   0  0  0  0  0  0  0  0  0  0  0  0
    5.0861    0.8806    1.8251 C   0  0  0  0  0  0  0  0  0  0  0  0
    5.7983    1.6651    0.9252 C   0  0  0  0  0  0  0  0  0  0  0  0
    6.9811    1.2090    0.1997 C   0  0  0  0  0  0  0  0  0  0  0  0
    7.9546    1.9333    0.0436 O   0  0  0  0  0  0  0  0  0  0  0  0
    6.8730   -0.0829   -0.2799 N   0  0  0  0  0  0  0  0  0  0  0  0
    7.9499   -0.8280   -0.8991 C   0  0  0  0  0  0  0  0  0  0  0  0
    8.7007   -0.0790   -1.9667 C   0  0  0  0  0  0  0  0  0  0  0  0
    9.8856    0.5947   -1.6318 C   0  0  0  0  0  0  0  0  0  0  0  0
   10.5504    1.3806   -2.5703 C   0  0  0  0  0  0  0  0  0  0  0  0
   10.0563    1.4775   -3.8728 C   0  0  0  0  0  0  0  0  0  0  0  0
   10.7536    2.3063   -4.8634 C   0  0  0  0  0  0  0  0  0  0  0  0
   11.7507    1.7444   -5.5685 C   0  0  0  0  0  0  0  0  0  0  0  0
   12.4289    2.4625   -6.5144 N   0  0  0  0  0  0  0  0  0  0  0  0
   12.1670    3.7819   -6.8210 C   0  0  0  0  0  0  0  0  0  0  0  0
   12.7808    4.4083   -7.6756 O   0  0  0  0  0  0  0  0  0  0  0  0
   11.0738    4.4161   -6.0366 C   0  0  0  0  0  0  0  0  0  0  0  0
   10.4184    3.6983   -5.1125 C   0  0  0  0  0  0  0  0  0  0  0  0
    8.8832    0.7958   -4.2207 C   0  0  0  0  0  0  0  0  0  0  0  0
    8.2041    0.0280   -3.2711 C   0  0  0  0  0  0  0  0  0  0  0  0
    4.3847    6.7850    3.5640 H   0  0  0  0  0  0  0  0  0  0  0  0
    3.8368    7.4621    2.0271 H   0  0  0  0  0  0  0  0  0  0  0  0
    5.5921    7.4576    2.4639 H   0  0  0  0  0  0  0  0  0  0  0  0
    5.1944    7.6255    0.1577 H   0  0  0  0  0  0  0  0  0  0  0  0
    6.0913    7.3466   -2.0912 H   0  0  0  0  0  0  0  0  0  0  0  0
    6.6423    5.0842   -2.9467 H   0  0  0  0  0  0  0  0  0  0  0  0
    6.2089    3.1052   -1.5819 H   0  0  0  0  0  0  0  0  0  0  0  0
    3.3453    3.6018    2.0607 H   0  0  0  0  0  0  0  0  0  0  0  0
    3.4202    1.3288    3.0584 H   0  0  0  0  0  0  0  0  0  0  0  0
    5.2411   -0.1351    2.1616 H   0  0  0  0  0  0  0  0  0  0  0  0
    6.0684   -0.6122    0.0211 H   0  0  0  0  0  0  0  0  0  0  0  0
    7.4988   -1.7252   -1.3420 H   0  0  0  0  0  0  0  0  0  0  0  0
    8.6265   -1.1773   -0.1113 H   0  0  0  0  0  0  0  0  0  0  0  0
   10.2559    0.5674   -0.6083 H   0  0  0  0  0  0  0  0  0  0  0  0
   11.4342    1.9359   -2.2664 H   0  0  0  0  0  0  0  0  0  0  0  0
   12.0660    0.7152   -5.4355 H   0  0  0  0  0  0  0  0  0  0  0  0
   13.1812    2.0379   -7.0463 H   0  0  0  0  0  0  0  0  0  0  0  0
   10.8544    5.4537   -6.2477 H   0  0  0  0  0  0  0  0  0  0  0  0
    9.6230    4.1455   -4.5236 H   0  0  0  0  0  0  0  0  0  0  0  0
    8.4844    0.8750   -5.2292 H   0  0  0  0  0  0  0  0  0  0  0  0
    7.2770   -0.4667   -3.5502 H   0  0  0  0  0  0  0  0  0  0  0  0
  1  2  1  0  0  0  0
  1 31  1  0  0  0  0
  1 32  1  0  0  0  0
  1 33  1  0  0  0  0
  2  3  1  0  0  0  0
  3  4  2  0  0  0  0
  3  8  1  0  0  0  0
  4  5  1  0  0  0  0
  4 34  1  0  0  0  0
  5  6  2  0  0  0  0
  5 35  1  0  0  0  0
  6  7  1  0  0  0  0
  6 36  1  0  0  0  0
  7  8  2  0  0  0  0
  7 37  1  0  0  0  0
  8  9  1  0  0  0  0
  9 10  2  0  0  0  0
  9 13  1  0  0  0  0
 10 11  1  0  0  0  0
 10 38  1  0  0  0  0
 11 12  1  0  0  0  0
 11 39  1  0  0  0  0
 12 13  2  0  0  0  0
 12 40  1  0  0  0  0
 13 14  1  0  0  0  0
 14 15  2  0  0  0  0
 14 16  1  0  0  0  0
 16 17  1  0  0  0  0
 16 41  1  0  0  0  0
 17 18  1  0  0  0  0
 17 42  1  0  0  0  0
 17 43  1  0  0  0  0
 18 19  2  0  0  0  0
 18 30  1  0  0  0  0
 19 20  1  0  0  0  0
 19 44  1  0  0  0  0
 20 21  2  0  0  0  0
 20 45  1  0  0  0  0
 21 22  1  0  0  0  0
 21 29  1  0  0  0  0
 22 23  2  0  0  0  0
 22 28  1  0  0  0  0
 23 24  1  0  0  0  0
 23 46  1  0  0  0  0
 24 25  1  0  0  0  0
 24 47  1  0  0  0  0
 25 26  2  0  0  0  0
 25 27  1  0  0  0  0
 27 28  2  0  0  0  0
 27 48  1  0  0  0  0
 28 49  1  0  0  0  0
 29 30  2  0  0  0  0
 29 50  1  0  0  0  0
 30 51  1  0  0  0  0
M  END
$$$$
