
 OpenBabel01122422523D

 45 47  0  0  0  0  0  0  0  0999 V2000
    2.9246    2.0806    1.5259 O   0  0  0  0  0  0  0  0  0  0  0  0
    2.3871    0.9980    1.2984 C   0  0  0  0  0  0  0  0  0  0  0  0
    0.8682    0.8583    1.1734 C   0  0  0  0  0  0  0  0  0  0  0  0
    0.2366    0.6786    2.4788 N   0  0  0  0  0  0  0  0  0  0  0  0
   -0.1470    1.7931    3.2034 C   0  0  0  0  0  0  0  0  0  0  0  0
   -0.7535    1.6686    4.3850 C   0  0  0  0  0  0  0  0  0  0  0  0
   -0.9947    0.3570    4.9266 C   0  0  0  0  0  0  0  0  0  0  0  0
   -0.6149   -0.7571    4.2712 C   0  0  0  0  0  0  0  0  0  0  0  0
   -0.8163   -2.1172    4.8309 C   0  0  0  0  0  0  0  0  0  0  0  0
   -0.3955   -3.1553    4.0721 F   0  0  0  0  0  0  0  0  0  0  0  0
   -0.1807   -2.2403    6.0305 F   0  0  0  0  0  0  0  0  0  0  0  0
   -2.1348   -2.3453    5.0907 F   0  0  0  0  0  0  0  0  0  0  0  0
    0.0477   -0.6251    2.9459 C   0  0  0  0  0  0  0  0  0  0  0  0
    0.4074   -1.6023    2.2963 O   0  0  0  0  0  0  0  0  0  0  0  0
    3.0882   -0.1798    1.1737 N   0  0  0  0  0  0  0  0  0  0  0  0
    4.5397   -0.2297    1.2006 C   0  0  0  0  0  0  0  0  0  0  0  0
    5.1218   -0.3588    2.5910 C   0  0  0  0  0  0  0  0  0  0  0  0
    5.4637    0.7818    3.3093 C   0  0  0  0  0  0  0  0  0  0  0  0
    5.9322    0.6446    4.6165 C   0  0  0  0  0  0  0  0  0  0  0  0
    6.2355    1.7042    5.4462 O   0  0  0  0  0  0  0  0  0  0  0  0
    5.5206    2.8752    5.3128 C   0  0  0  0  0  0  0  0  0  0  0  0
    4.1512    2.9158    5.0204 C   0  0  0  0  0  0  0  0  0  0  0  0
    3.5175    4.1356    4.7927 C   0  0  0  0  0  0  0  0  0  0  0  0
    4.2381    5.3140    4.9360 C   0  0  0  0  0  0  0  0  0  0  0  0
    3.6313    6.4849    4.7004 F   0  0  0  0  0  0  0  0  0  0  0  0
    5.5747    5.2798    5.3197 C   0  0  0  0  0  0  0  0  0  0  0  0
    6.2542    6.4227    5.4892 F   0  0  0  0  0  0  0  0  0  0  0  0
    6.2246    4.0640    5.5125 C   0  0  0  0  0  0  0  0  0  0  0  0
    6.1491   -0.6257    5.1319 C   0  0  0  0  0  0  0  0  0  0  0  0
    5.8120   -1.7099    4.3416 C   0  0  0  0  0  0  0  0  0  0  0  0
    5.2849   -1.6061    3.0995 N   0  0  0  0  0  0  0  0  0  0  0  0
    0.6298    0.0138    0.5174 H   0  0  0  0  0  0  0  0  0  0  0  0
    0.4693    1.7554    0.6846 H   0  0  0  0  0  0  0  0  0  0  0  0
    0.0589    2.7693    2.7703 H   0  0  0  0  0  0  0  0  0  0  0  0
   -1.0665    2.5374    4.9552 H   0  0  0  0  0  0  0  0  0  0  0  0
   -1.4822    0.2961    5.8976 H   0  0  0  0  0  0  0  0  0  0  0  0
    2.5843   -1.0600    1.2490 H   0  0  0  0  0  0  0  0  0  0  0  0
    4.9421    0.6624    0.7062 H   0  0  0  0  0  0  0  0  0  0  0  0
    4.8407   -1.0967    0.6030 H   0  0  0  0  0  0  0  0  0  0  0  0
    5.3338    1.7583    2.8530 H   0  0  0  0  0  0  0  0  0  0  0  0
    3.5757    1.9969    4.9154 H   0  0  0  0  0  0  0  0  0  0  0  0
    2.4777    4.1665    4.4842 H   0  0  0  0  0  0  0  0  0  0  0  0
    7.2734    4.0547    5.7936 H   0  0  0  0  0  0  0  0  0  0  0  0
    6.5605   -0.7680    6.1250 H   0  0  0  0  0  0  0  0  0  0  0  0
    5.9578   -2.7258    4.6983 H   0  0  0  0  0  0  0  0  0  0  0  0
  1  2  2  0  0  0  0
  2  3  1  0  0  0  0
  2 15  1  0  0  0  0
  3  4  1  0  0  0  0
  3 32  1  0  0  0  0
  3 33  1  0  0  0  0
  4  5  1  0  0  0  0
  4 13  1  0  0  0  0
  5  6  2  0  0  0  0
  5 34  1  0  0  0  0
  6  7  1  0  0  0  0
  6 35  1  0  0  0  0
  7  8  2  0  0  0  0
  7 36  1  0  0  0  0
  8  9  1  0  0  0  0
  8 13  1  0  0  0  0
  9 10  1  0  0  0  0
  9 11  1  0  0  0  0
  9 12  1  0  0  0  0
 13 14  2  0  0  0  0
 15 16  1  0  0  0  0
 15 37  1  0  0  0  0
 16 17  1  0  0  0  0
 16 38  1  0  0  0  0
 16 39  1  0  0  0  0
 17 18  2  0  0  0  0
 17 31  1  0  0  0  0
 18 19  1  0  0  0  0
 18 40  1  0  0  0  0
 19 20  1  0  0  0  0
 19 29  2  0  0  0  0
 20 21  1  0  0  0  0
 21 22  2  0  0  0  0
 21 28  1  0  0  0  0
 22 23  1  0  0  0  0
 22 41  1  0  0  0  0
 23 24  2  0  0  0  0
 23 42  1  0  0  0  0
 24 25  1  0  0  0  0
 24 26  1  0  0  0  0
 26 27  1  0  0  0  0
 26 28  2  0  0  0  0
 28 43  1  0  0  0  0
 29 30  1  0  0  0  0
 29 44  1  0  0  0  0
 30 31  2  0  0  0  0
 30 45  1  0  0  0  0
M  END
$$$$
