
 OpenBabel01122422523D

 46 48  0  0  1  0  0  0  0  0999 V2000
    2.5794    3.8238    2.0202 N   0  0  0  0  0  0  0  0  0  0  0  0
    2.6166    2.8474    0.9173 C   0  0  0  0  0  0  0  0  0  0  0  0
    3.0959    1.4222    1.3435 C   0  0  3  0  0  0  0  0  0  0  0  0
    2.4334    0.8282    2.5150 N   0  0  0  0  0  0  0  0  0  0  0  0
    1.0884    0.9819    2.7994 C   0  0  0  0  0  0  0  0  0  0  0  0
    0.3746    1.6876    2.1094 O   0  0  0  0  0  0  0  0  0  0  0  0
    0.5743    0.3275    4.0475 C   0  0  0  0  0  0  0  0  0  0  0  0
    1.5044    0.2078    5.1071 C   0  0  0  0  0  0  0  0  0  0  0  0
    1.1222   -0.3108    6.3376 C   0  0  0  0  0  0  0  0  0  0  0  0
    2.0290   -0.4126    7.3175 F   0  0  0  0  0  0  0  0  0  0  0  0
   -0.1883   -0.6907    6.5537 C   0  0  0  0  0  0  0  0  0  0  0  0
   -0.5642   -1.1676    7.7464 F   0  0  0  0  0  0  0  0  0  0  0  0
   -1.1323   -0.5593    5.5423 C   0  0  0  0  0  0  0  0  0  0  0  0
   -0.7727   -0.0690    4.2675 C   0  0  0  0  0  0  0  0  0  0  0  0
   -1.8932    0.0804    3.2798 C   0  0  0  0  0  0  0  0  0  0  0  0
   -1.9583    1.0522    2.5387 O   0  0  0  0  0  0  0  0  0  0  0  0
   -3.0711   -0.8351    3.2474 C   0  0  0  0  0  0  0  0  0  0  0  0
   -2.9987   -2.1985    3.5521 C   0  0  0  0  0  0  0  0  0  0  0  0
   -4.1631   -2.9746    3.5445 C   0  0  0  0  0  0  0  0  0  0  0  0
   -5.3921   -2.4025    3.2094 C   0  0  0  0  0  0  0  0  0  0  0  0
   -5.4644   -1.0534    2.8719 C   0  0  0  0  0  0  0  0  0  0  0  0
   -4.3089   -0.2747    2.8898 C   0  0  0  0  0  0  0  0  0  0  0  0
    3.1071    0.4478    0.1873 C   0  0  0  0  0  0  0  0  0  0  0  0
    1.9293    0.0896   -0.4836 C   0  0  0  0  0  0  0  0  0  0  0  0
    1.9680   -0.8086   -1.5547 C   0  0  0  0  0  0  0  0  0  0  0  0
    3.1817   -1.3608   -1.9622 C   0  0  0  0  0  0  0  0  0  0  0  0
    4.3573   -1.0187   -1.3006 C   0  0  0  0  0  0  0  0  0  0  0  0
    4.3118   -0.1241   -0.2395 C   0  0  0  0  0  0  0  0  0  0  0  0
    5.4575    0.1833    0.3860 F   0  0  0  0  0  0  0  0  0  0  0  0
    1.7752    3.5676    2.6021 H   0  0  0  0  0  0  0  0  0  0  0  0
    3.4002    3.7081    2.6080 H   0  0  0  0  0  0  0  0  0  0  0  0
    3.2872    3.2342    0.1420 H   0  0  0  0  0  0  0  0  0  0  0  0
    1.6245    2.8169    0.4516 H   0  0  0  0  0  0  0  0  0  0  0  0
    4.1308    1.5568    1.6873 H   0  0  0  0  0  0  0  0  0  0  0  0
    2.9572    0.0962    2.9720 H   0  0  0  0  0  0  0  0  0  0  0  0
    2.5307    0.5559    5.0182 H   0  0  0  0  0  0  0  0  0  0  0  0
   -2.1593   -0.8165    5.7891 H   0  0  0  0  0  0  0  0  0  0  0  0
   -2.0537   -2.6748    3.7951 H   0  0  0  0  0  0  0  0  0  0  0  0
   -4.1161   -4.0315    3.7963 H   0  0  0  0  0  0  0  0  0  0  0  0
   -6.2946   -3.0093    3.2014 H   0  0  0  0  0  0  0  0  0  0  0  0
   -6.4155   -0.6053    2.5959 H   0  0  0  0  0  0  0  0  0  0  0  0
   -4.3760    0.7803    2.6248 H   0  0  0  0  0  0  0  0  0  0  0  0
    0.9712    0.5111   -0.1810 H   0  0  0  0  0  0  0  0  0  0  0  0
    1.0475   -1.0718   -2.0701 H   0  0  0  0  0  0  0  0  0  0  0  0
    3.2061   -2.0519   -2.8013 H   0  0  0  0  0  0  0  0  0  0  0  0
    5.3078   -1.4388   -1.6131 H   0  0  0  0  0  0  0  0  0  0  0  0
  1  2  1  0  0  0  0
  1 30  1  0  0  0  0
  1 31  1  0  0  0  0
  2  3  1  0  0  0  0
  2 32  1  0  0  0  0
  2 33  1  0  0  0  0
  3  4  1  0  0  0  0
  3 23  1  0  0  0  0
  3 34  1  0  0  0  0
  4  5  1  0  0  0  0
  4 35  1  0  0  0  0
  5  6  2  0  0  0  0
  5  7  1  0  0  0  0
  7  8  2  0  0  0  0
  7 14  1  0  0  0  0
  8  9  1  0  0  0  0
  8 36  1  0  0  0  0
  9 10  1  0  0  0  0
  9 11  2  0  0  0  0
 11 12  1  0  0  0  0
 11 13  1  0  0  0  0
 13 14  2  0  0  0  0
 13 37  1  0  0  0  0
 14 15  1  0  0  0  0
 15 16  2  0  0  0  0
 15 17  1  0  0  0  0
 17 18  2  0  0  0  0
 17 22  1  0  0  0  0
 18 19  1  0  0  0  0
 18 38  1  0  0  0  0
 19 20  2  0  0  0  0
 19 39  1  0  0  0  0
 20 21  1  0  0  0  0
 20 40  1  0  0  0  0
 21 22  2  0  0  0  0
 21 41  1  0  0  0  0
 22 42  1  0  0  0  0
 23 24  2  0  0  0  0
 23 28  1  0  0  0  0
 24 25  1  0  0  0  0
 24 43  1  0  0  0  0
 25 26  2  0  0  0  0
 25 44  1  0  0  0  0
 26 27  1  0  0  0  0
 26 45  1  0  0  0  0
 27 28  2  0  0  0  0
 27 46  1  0  0  0  0
 28 29  1  0  0  0  0
M  END
$$$$
