
 OpenBabel01122422523D

 46 49  0  0  0  0  0  0  0  0999 V2000
    1.0275   -0.1999    0.1507 O   0  0  0  0  0  0  0  0  0  0  0  0
    2.2531   -0.1699    0.0748 C   0  0  0  0  0  0  0  0  0  0  0  0
    2.9570   -0.8671   -0.8820 N   0  0  0  0  0  0  0  0  0  0  0  0
    2.3113   -1.7134   -1.8500 C   0  0  0  0  0  0  0  0  0  0  0  0
    2.5519   -1.2169   -3.2500 C   0  0  0  0  0  0  0  0  0  0  0  0
    1.6772   -0.2968   -3.8358 C   0  0  0  0  0  0  0  0  0  0  0  0
    1.9133    0.1671   -5.1261 C   0  0  0  0  0  0  0  0  0  0  0  0
    3.0369   -0.2694   -5.8335 C   0  0  0  0  0  0  0  0  0  0  0  0
    3.9583   -1.1687   -5.2666 C   0  0  0  0  0  0  0  0  0  0  0  0
    5.1802   -1.5836   -5.9879 C   0  0  0  0  0  0  0  0  0  0  0  0
    5.7436   -2.8605   -5.8441 C   0  0  0  0  0  0  0  0  0  0  0  0
    6.9151   -3.2042   -6.5185 C   0  0  0  0  0  0  0  0  0  0  0  0
    7.4998   -2.2601   -7.3416 C   0  0  0  0  0  0  0  0  0  0  0  0
    7.0035   -1.0211   -7.5221 N   0  0  0  0  0  0  0  0  0  0  0  0
    5.8698   -0.7166   -6.8409 C   0  0  0  0  0  0  0  0  0  0  0  0
    3.6838   -1.6375   -3.9683 C   0  0  0  0  0  0  0  0  0  0  0  0
    3.1063    0.5860    1.0053 C   0  0  0  0  0  0  0  0  0  0  0  0
    4.4544    0.5760    0.9073 N   0  0  0  0  0  0  0  0  0  0  0  0
    4.8927    1.3177    1.9627 N   0  0  0  0  0  0  0  0  0  0  0  0
    6.2858    1.4684    2.2143 C   0  0  0  0  0  0  0  0  0  0  0  0
    6.7527    2.1483    3.3515 C   0  0  0  0  0  0  0  0  0  0  0  0
    8.1267    2.2520    3.5942 C   0  0  0  0  0  0  0  0  0  0  0  0
    9.0372    1.6898    2.7024 C   0  0  0  0  0  0  0  0  0  0  0  0
    8.5710    1.0289    1.5724 C   0  0  0  0  0  0  0  0  0  0  0  0
    9.4492    0.4929    0.7153 F   0  0  0  0  0  0  0  0  0  0  0  0
    7.2091    0.9099    1.3192 C   0  0  0  0  0  0  0  0  0  0  0  0
    3.8471    1.8288    2.6989 C   0  0  0  0  0  0  0  0  0  0  0  0
    2.7048    1.3777    2.1004 C   0  0  0  0  0  0  0  0  0  0  0  0
    1.4649    1.6543    2.5327 O   0  0  0  0  0  0  0  0  0  0  0  0
    3.9652   -0.7523   -0.8771 H   0  0  0  0  0  0  0  0  0  0  0  0
    1.2359   -1.7887   -1.6568 H   0  0  0  0  0  0  0  0  0  0  0  0
    2.7219   -2.7222   -1.7302 H   0  0  0  0  0  0  0  0  0  0  0  0
    0.8093    0.0624   -3.2853 H   0  0  0  0  0  0  0  0  0  0  0  0
    1.2269    0.8762   -5.5823 H   0  0  0  0  0  0  0  0  0  0  0  0
    3.1804    0.1091   -6.8435 H   0  0  0  0  0  0  0  0  0  0  0  0
    5.2751   -3.6072   -5.2082 H   0  0  0  0  0  0  0  0  0  0  0  0
    7.3576   -4.1871   -6.4020 H   0  0  0  0  0  0  0  0  0  0  0  0
    8.4099   -2.4805   -7.8913 H   0  0  0  0  0  0  0  0  0  0  0  0
    5.5309    0.3042   -7.0011 H   0  0  0  0  0  0  0  0  0  0  0  0
    4.3708   -2.3299   -3.4850 H   0  0  0  0  0  0  0  0  0  0  0  0
    6.0804    2.5969    4.0768 H   0  0  0  0  0  0  0  0  0  0  0  0
    8.4855    2.7672    4.4825 H   0  0  0  0  0  0  0  0  0  0  0  0
   10.1056    1.7603    2.8800 H   0  0  0  0  0  0  0  0  0  0  0  0
    6.8934    0.3815    0.4240 H   0  0  0  0  0  0  0  0  0  0  0  0
    3.9978    2.4465    3.5691 H   0  0  0  0  0  0  0  0  0  0  0  0
    1.4831    2.2415    3.3051 H   0  0  0  0  0  0  0  0  0  0  0  0
  1  2  2  0  0  0  0
  2  3  1  0  0  0  0
  2 17  1  0  0  0  0
  3  4  1  0  0  0  0
  3 30  1  0  0  0  0
  4  5  1  0  0  0  0
  4 31  1  0  0  0  0
  4 32  1  0  0  0  0
  5  6  2  0  0  0  0
  5 16  1  0  0  0  0
  6  7  1  0  0  0  0
  6 33  1  0  0  0  0
  7  8  2  0  0  0  0
  7 34  1  0  0  0  0
  8  9  1  0  0  0  0
  8 35  1  0  0  0  0
  9 10  1  0  0  0  0
  9 16  2  0  0  0  0
 10 11  2  0  0  0  0
 10 15  1  0  0  0  0
 11 12  1  0  0  0  0
 11 36  1  0  0  0  0
 12 13  2  0  0  0  0
 12 37  1  0  0  0  0
 13 14  1  0  0  0  0
 13 38  1  0  0  0  0
 14 15  2  0  0  0  0
 15 39  1  0  0  0  0
 16 40  1  0  0  0  0
 17 18  2  0  0  0  0
 17 28  1  0  0  0  0
 18 19  1  0  0  0  0
 19 20  1  0  0  0  0
 19 27  1  0  0  0  0
 20 21  2  0  0  0  0
 20 26  1  0  0  0  0
 21 22  1  0  0  0  0
 21 41  1  0  0  0  0
 22 23  2  0  0  0  0
 22 42  1  0  0  0  0
 23 24  1  0  0  0  0
 23 43  1  0  0  0  0
 24 25  1  0  0  0  0
 24 26  2  0  0  0  0
 26 44  1  0  0  0  0
 27 28  2  0  0  0  0
 27 45  1  0  0  0  0
 28 29  1  0  0  0  0
 29 46  1  0  0  0  0
M  END
$$$$
