
 OpenBabel01122422523D

 41 44  0  0  0  0  0  0  0  0999 V2000
    1.1742   -0.5862    0.3171 O   0  0  0  0  0  0  0  0  0  0  0  0
    2.3280   -0.2153    0.1120 C   0  0  0  0  0  0  0  0  0  0  0  0
    2.9533    0.8538    0.7464 N   0  0  0  0  0  0  0  0  0  0  0  0
    2.3531    1.6574    1.7440 C   0  0  0  0  0  0  0  0  0  0  0  0
    1.2227    1.2328    2.4530 C   0  0  0  0  0  0  0  0  0  0  0  0
    0.5722    2.0798    3.3447 C   0  0  0  0  0  0  0  0  0  0  0  0
    1.0518    3.3633    3.5446 C   0  0  0  0  0  0  0  0  0  0  0  0
    0.3244    4.1721    4.3254 F   0  0  0  0  0  0  0  0  0  0  0  0
    2.2254    3.7915    2.9217 C   0  0  0  0  0  0  0  0  0  0  0  0
    2.7410    5.1735    3.1097 C   0  0  0  0  0  0  0  0  0  0  0  0
    3.3543    5.6845    2.1733 O   0  0  0  0  0  0  0  0  0  0  0  0
    2.5351    5.8828    4.3742 C   0  0  0  0  0  0  0  0  0  0  0  0
    2.4542    5.3157    5.6365 C   0  0  0  0  0  0  0  0  0  0  0  0
    2.2765    6.3136    6.5551 N   0  0  0  0  0  0  0  0  0  0  0  0
    2.2795    7.5377    5.9331 C   0  0  0  0  0  0  0  0  0  0  0  0
    2.1736    8.8219    6.4804 C   0  0  0  0  0  0  0  0  0  0  0  0
    2.1906    9.9053    5.5990 C   0  0  0  0  0  0  0  0  0  0  0  0
    2.2911    9.7075    4.2244 C   0  0  0  0  0  0  0  0  0  0  0  0
    2.4021    8.4155    3.6949 C   0  0  0  0  0  0  0  0  0  0  0  0
    2.4149    7.3027    4.5634 C   0  0  0  0  0  0  0  0  0  0  0  0
    2.8810    2.9266    2.0176 C   0  0  0  0  0  0  0  0  0  0  0  0
    3.1279   -0.9280   -0.9181 C   0  0  0  0  0  0  0  0  0  0  0  0
    2.5281   -1.9137   -1.6724 C   0  0  0  0  0  0  0  0  0  0  0  0
    1.2386   -2.2649   -1.5853 F   0  0  0  0  0  0  0  0  0  0  0  0
    3.3504   -2.5496   -2.5633 C   0  0  0  0  0  0  0  0  0  0  0  0
    2.8596   -3.5499   -3.3603 O   0  0  0  0  0  0  0  0  0  0  0  0
    4.6514   -2.2632   -2.7210 N   0  0  0  0  0  0  0  0  0  0  0  0
    5.1325   -1.2811   -1.9423 C   0  0  0  0  0  0  0  0  0  0  0  0
    4.4370   -0.5728   -1.0355 N   0  0  0  0  0  0  0  0  0  0  0  0
    3.8501    1.1399    0.3603 H   0  0  0  0  0  0  0  0  0  0  0  0
    0.8080    0.2386    2.3263 H   0  0  0  0  0  0  0  0  0  0  0  0
   -0.3257    1.7507    3.8574 H   0  0  0  0  0  0  0  0  0  0  0  0
    2.4889    4.2846    5.9615 H   0  0  0  0  0  0  0  0  0  0  0  0
    2.1688    6.1785    7.5508 H   0  0  0  0  0  0  0  0  0  0  0  0
    2.0886    8.9776    7.5509 H   0  0  0  0  0  0  0  0  0  0  0  0
    2.1229   10.9165    5.9935 H   0  0  0  0  0  0  0  0  0  0  0  0
    2.2906   10.5632    3.5538 H   0  0  0  0  0  0  0  0  0  0  0  0
    2.4837    8.2731    2.6203 H   0  0  0  0  0  0  0  0  0  0  0  0
    3.7692    3.2793    1.4952 H   0  0  0  0  0  0  0  0  0  0  0  0
    1.9176   -3.6530   -3.1455 H   0  0  0  0  0  0  0  0  0  0  0  0
    6.1858   -1.0444   -2.0571 H   0  0  0  0  0  0  0  0  0  0  0  0
  1  2  2  0  0  0  0
  2  3  1  0  0  0  0
  2 22  1  0  0  0  0
  3  4  1  0  0  0  0
  3 30  1  0  0  0  0
  4  5  2  0  0  0  0
  4 21  1  0  0  0  0
  5  6  1  0  0  0  0
  5 31  1  0  0  0  0
  6  7  2  0  0  0  0
  6 32  1  0  0  0  0
  7  8  1  0  0  0  0
  7  9  1  0  0  0  0
  9 10  1  0  0  0  0
  9 21  2  0  0  0  0
 10 11  2  0  0  0  0
 10 12  1  0  0  0  0
 12 13  2  0  0  0  0
 12 20  1  0  0  0  0
 13 14  1  0  0  0  0
 13 33  1  0  0  0  0
 14 15  1  0  0  0  0
 14 34  1  0  0  0  0
 15 16  2  0  0  0  0
 15 20  1  0  0  0  0
 16 17  1  0  0  0  0
 16 35  1  0  0  0  0
 17 18  2  0  0  0  0
 17 36  1  0  0  0  0
 18 19  1  0  0  0  0
 18 37  1  0  0  0  0
 19 20  2  0  0  0  0
 19 38  1  0  0  0  0
 21 39  1  0  0  0  0
 22 23  2  0  0  0  0
 22 29  1  0  0  0  0
 23 24  1  0  0  0  0
 23 25  1  0  0  0  0
 25 26  1  0  0  0  0
 25 27  2  0  0  0  0
 26 40  1  0  0  0  0
 27 28  1  0  0  0  0
 28 29  2  0  0  0  0
 28 41  1  0  0  0  0
M  END
$$$$
