
 OpenBabel01122422523D

 54 56  0  0  0  0  0  0  0  0999 V2000
    1.9363   -1.3374   -0.6025 C   0  0  0  0  0  0  0  0  0  0  0  0
    2.4375   -0.1174   -0.0496 O   0  0  0  0  0  0  0  0  0  0  0  0
    3.1473   -0.2536    1.1186 C   0  0  0  0  0  0  0  0  0  0  0  0
    2.7610   -1.1897    2.0882 C   0  0  0  0  0  0  0  0  0  0  0  0
    3.5220   -1.3824    3.2374 C   0  0  0  0  0  0  0  0  0  0  0  0
    3.1744   -2.4170    4.2339 C   0  0  0  0  0  0  0  0  0  0  0  0
    4.0165   -2.9291    4.9607 O   0  0  0  0  0  0  0  0  0  0  0  0
    1.8494   -2.6860    4.2326 O   0  0  0  0  0  0  0  0  0  0  0  0
    1.4260   -3.7026    5.1526 C   0  0  0  0  0  0  0  0  0  0  0  0
    0.4765   -3.1117    6.1558 C   0  0  0  0  0  0  0  0  0  0  0  0
    0.9508   -2.5718    7.3572 C   0  0  0  0  0  0  0  0  0  0  0  0
    0.0574   -2.0306    8.2875 C   0  0  0  0  0  0  0  0  0  0  0  0
   -1.3217   -2.0086    8.0283 C   0  0  0  0  0  0  0  0  0  0  0  0
   -2.2136   -1.4275    9.0754 C   0  0  0  0  0  0  0  0  0  0  0  0
   -3.5612   -1.4055    8.8520 N   0  0  0  0  0  0  0  0  0  0  0  0
   -1.7613   -0.9768   10.1216 O   0  0  0  0  0  0  0  0  0  0  0  0
   -1.7957   -2.5320    6.8245 C   0  0  0  0  0  0  0  0  0  0  0  0
   -0.8969   -3.0750    5.9063 C   0  0  0  0  0  0  0  0  0  0  0  0
   -1.3803   -3.5886    4.7667 F   0  0  0  0  0  0  0  0  0  0  0  0
    4.6906   -0.6443    3.4263 C   0  0  0  0  0  0  0  0  0  0  0  0
    5.0801    0.3134    2.4849 C   0  0  0  0  0  0  0  0  0  0  0  0
    6.2261    1.0613    2.6319 O   0  0  0  0  0  0  0  0  0  0  0  0
    7.3030    0.4050    3.3019 C   0  0  0  0  0  0  0  0  0  0  0  0
    4.2723    0.5648    1.3513 C   0  0  0  0  0  0  0  0  0  0  0  0
    4.7229    1.5634    0.5171 O   0  0  0  0  0  0  0  0  0  0  0  0
    3.7357    2.3189   -0.1946 C   0  0  0  0  0  0  0  0  0  0  0  0
    4.2147    3.7378   -0.4584 C   0  0  0  0  0  0  0  0  0  0  0  0
    3.7571    4.4354   -1.5895 C   0  0  0  0  0  0  0  0  0  0  0  0
    4.1678    5.7499   -1.8358 C   0  0  0  0  0  0  0  0  0  0  0  0
    5.0272    6.3904   -0.9463 C   0  0  0  0  0  0  0  0  0  0  0  0
    5.4689    5.7199    0.1928 C   0  0  0  0  0  0  0  0  0  0  0  0
    5.0598    4.4061    0.4393 C   0  0  0  0  0  0  0  0  0  0  0  0
    1.3760   -1.0934   -1.5092 H   0  0  0  0  0  0  0  0  0  0  0  0
    1.2312   -1.8442    0.0624 H   0  0  0  0  0  0  0  0  0  0  0  0
    2.7588   -2.0086   -0.8731 H   0  0  0  0  0  0  0  0  0  0  0  0
    1.8649   -1.7890    1.9630 H   0  0  0  0  0  0  0  0  0  0  0  0
    2.2565   -4.1897    5.6767 H   0  0  0  0  0  0  0  0  0  0  0  0
    0.9314   -4.4897    4.5735 H   0  0  0  0  0  0  0  0  0  0  0  0
    2.0163   -2.5748    7.5808 H   0  0  0  0  0  0  0  0  0  0  0  0
    0.4448   -1.6237    9.2210 H   0  0  0  0  0  0  0  0  0  0  0  0
   -4.0279   -1.7474    8.0297 H   0  0  0  0  0  0  0  0  0  0  0  0
   -4.1321   -1.0004    9.5844 H   0  0  0  0  0  0  0  0  0  0  0  0
   -2.8471   -2.5449    6.5637 H   0  0  0  0  0  0  0  0  0  0  0  0
    5.2741   -0.8192    4.3266 H   0  0  0  0  0  0  0  0  0  0  0  0
    8.2136    0.9873    3.1319 H   0  0  0  0  0  0  0  0  0  0  0  0
    7.4735   -0.6033    2.9060 H   0  0  0  0  0  0  0  0  0  0  0  0
    7.1310    0.3740    4.3828 H   0  0  0  0  0  0  0  0  0  0  0  0
    2.7915    2.3902    0.3591 H   0  0  0  0  0  0  0  0  0  0  0  0
    3.5754    1.8264   -1.1605 H   0  0  0  0  0  0  0  0  0  0  0  0
    3.0788    3.9579   -2.2929 H   0  0  0  0  0  0  0  0  0  0  0  0
    3.8192    6.2731   -2.7226 H   0  0  0  0  0  0  0  0  0  0  0  0
    5.3517    7.4093   -1.1386 H   0  0  0  0  0  0  0  0  0  0  0  0
    6.1368    6.2181    0.8910 H   0  0  0  0  0  0  0  0  0  0  0  0
    5.4138    3.8999    1.3356 H   0  0  0  0  0  0  0  0  0  0  0  0
  1  2  1  0  0  0  0
  1 33  1  0  0  0  0
  1 34  1  0  0  0  0
  1 35  1  0  0  0  0
  2  3  1  0  0  0  0
  3  4  2  0  0  0  0
  3 24  1  0  0  0  0
  4  5  1  0  0  0  0
  4 36  1  0  0  0  0
  5  6  1  0  0  0  0
  5 20  2  0  0  0  0
  6  7  2  0  0  0  0
  6  8  1  0  0  0  0
  8  9  1  0  0  0  0
  9 10  1  0  0  0  0
  9 37  1  0  0  0  0
  9 38  1  0  0  0  0
 10 11  2  0  0  0  0
 10 18  1  0  0  0  0
 11 12  1  0  0  0  0
 11 39  1  0  0  0  0
 12 13  2  0  0  0  0
 12 40  1  0  0  0  0
 13 14  1  0  0  0  0
 13 17  1  0  0  0  0
 14 15  1  0  0  0  0
 14 16  2  0  0  0  0
 15 41  1  0  0  0  0
 15 42  1  0  0  0  0
 17 18  2  0  0  0  0
 17 43  1  0  0  0  0
 18 19  1  0  0  0  0
 20 21  1  0  0  0  0
 20 44  1  0  0  0  0
 21 22  1  0  0  0  0
 21 24  2  0  0  0  0
 22 23  1  0  0  0  0
 23 45  1  0  0  0  0
 23 46  1  0  0  0  0
 23 47  1  0  0  0  0
 24 25  1  0  0  0  0
 25 26  1  0  0  0  0
 26 27  1  0  0  0  0
 26 48  1  0  0  0  0
 26 49  1  0  0  0  0
 27 28  2  0  0  0  0
 27 32  1  0  0  0  0
 28 29  1  0  0  0  0
 28 50  1  0  0  0  0
 29 30  2  0  0  0  0
 29 51  1  0  0  0  0
 30 31  1  0  0  0  0
 30 52  1  0  0  0  0
 31 32  2  0  0  0  0
 31 53  1  0  0  0  0
 32 54  1  0  0  0  0
M  END
$$$$
