
 OpenBabel01122422523D

 42 45  0  0  0  0  0  0  0  0999 V2000
    1.1992   -0.1269   -0.8065 O   0  0  0  0  0  0  0  0  0  0  0  0
    2.2467   -0.1120   -0.1726 C   0  0  0  0  0  0  0  0  0  0  0  0
    2.6733   -1.0755    0.7227 N   0  0  0  0  0  0  0  0  0  0  0  0
    1.9911   -2.2538    1.0862 C   0  0  0  0  0  0  0  0  0  0  0  0
    0.8356   -2.7272    0.4687 C   0  0  0  0  0  0  0  0  0  0  0  0
    0.2279   -3.8947    0.9352 C   0  0  0  0  0  0  0  0  0  0  0  0
    0.8126   -4.5602    1.9987 C   0  0  0  0  0  0  0  0  0  0  0  0
    0.2186   -5.7467    2.4073 O   0  0  0  0  0  0  0  0  0  0  0  0
    1.0554   -6.7118    2.9261 C   0  0  0  0  0  0  0  0  0  0  0  0
    0.5758   -7.4577    4.0012 C   0  0  0  0  0  0  0  0  0  0  0  0
    1.3876   -8.4388    4.5829 C   0  0  0  0  0  0  0  0  0  0  0  0
    2.6688   -8.6711    4.0822 C   0  0  0  0  0  0  0  0  0  0  0  0
    3.1329   -7.9501    2.9838 C   0  0  0  0  0  0  0  0  0  0  0  0
    2.3182   -6.9883    2.3902 C   0  0  0  0  0  0  0  0  0  0  0  0
    1.9225   -4.1207    2.6338 N   0  0  0  0  0  0  0  0  0  0  0  0
    2.4924   -2.9982    2.1515 C   0  0  0  0  0  0  0  0  0  0  0  0
    3.1697    1.0652   -0.2580 C   0  0  0  0  0  0  0  0  0  0  0  0
    4.4829    0.8049   -0.3791 C   0  0  0  0  0  0  0  0  0  0  0  0
    5.4890    1.8846   -0.4142 C   0  0  0  0  0  0  0  0  0  0  0  0
    6.6814    1.6161   -0.4773 O   0  0  0  0  0  0  0  0  0  0  0  0
    5.0258    3.1600   -0.3361 N   0  0  0  0  0  0  0  0  0  0  0  0
    3.6689    3.4932   -0.2508 C   0  0  0  0  0  0  0  0  0  0  0  0
    3.3094    4.8405   -0.1724 C   0  0  0  0  0  0  0  0  0  0  0  0
    1.9636    5.1871   -0.0858 C   0  0  0  0  0  0  0  0  0  0  0  0
    0.9994    4.1871   -0.1000 C   0  0  0  0  0  0  0  0  0  0  0  0
   -0.2943    4.5252   -0.0255 F   0  0  0  0  0  0  0  0  0  0  0  0
    1.3522    2.8406   -0.1774 C   0  0  0  0  0  0  0  0  0  0  0  0
    2.7016    2.4696   -0.2388 C   0  0  0  0  0  0  0  0  0  0  0  0
    3.5133   -0.8790    1.2531 H   0  0  0  0  0  0  0  0  0  0  0  0
    0.3899   -2.2233   -0.3827 H   0  0  0  0  0  0  0  0  0  0  0  0
   -0.6678   -4.2823    0.4636 H   0  0  0  0  0  0  0  0  0  0  0  0
   -0.4138   -7.2652    4.4002 H   0  0  0  0  0  0  0  0  0  0  0  0
    1.0231   -9.0087    5.4308 H   0  0  0  0  0  0  0  0  0  0  0  0
    3.3083   -9.4151    4.5481 H   0  0  0  0  0  0  0  0  0  0  0  0
    4.1320   -8.1239    2.5933 H   0  0  0  0  0  0  0  0  0  0  0  0
    2.6910   -6.4353    1.5346 H   0  0  0  0  0  0  0  0  0  0  0  0
    3.3974   -2.7067    2.6769 H   0  0  0  0  0  0  0  0  0  0  0  0
    4.8948   -0.1966   -0.4418 H   0  0  0  0  0  0  0  0  0  0  0  0
    5.7293    3.8876   -0.3540 H   0  0  0  0  0  0  0  0  0  0  0  0
    4.0628    5.6230   -0.1710 H   0  0  0  0  0  0  0  0  0  0  0  0
    1.6595    6.2264   -0.0075 H   0  0  0  0  0  0  0  0  0  0  0  0
    0.5491    2.1090   -0.1876 H   0  0  0  0  0  0  0  0  0  0  0  0
  1  2  2  0  0  0  0
  2  3  1  0  0  0  0
  2 17  1  0  0  0  0
  3  4  1  0  0  0  0
  3 29  1  0  0  0  0
  4  5  2  0  0  0  0
  4 16  1  0  0  0  0
  5  6  1  0  0  0  0
  5 30  1  0  0  0  0
  6  7  2  0  0  0  0
  6 31  1  0  0  0  0
  7  8  1  0  0  0  0
  7 15  1  0  0  0  0
  8  9  1  0  0  0  0
  9 10  2  0  0  0  0
  9 14  1  0  0  0  0
 10 11  1  0  0  0  0
 10 32  1  0  0  0  0
 11 12  2  0  0  0  0
 11 33  1  0  0  0  0
 12 13  1  0  0  0  0
 12 34  1  0  0  0  0
 13 14  2  0  0  0  0
 13 35  1  0  0  0  0
 14 36  1  0  0  0  0
 15 16  2  0  0  0  0
 16 37  1  0  0  0  0
 17 18  2  0  0  0  0
 17 28  1  0  0  0  0
 18 19  1  0  0  0  0
 18 38  1  0  0  0  0
 19 20  2  0  0  0  0
 19 21  1  0  0  0  0
 21 22  1  0  0  0  0
 21 39  1  0  0  0  0
 22 23  2  0  0  0  0
 22 28  1  0  0  0  0
 23 24  1  0  0  0  0
 23 40  1  0  0  0  0
 24 25  2  0  0  0  0
 24 41  1  0  0  0  0
 25 26  1  0  0  0  0
 25 27  1  0  0  0  0
 27 28  2  0  0  0  0
 27 42  1  0  0  0  0
M  END
$$$$
