
 OpenBabel01122422523D

 53 56  0  0  0  0  0  0  0  0999 V2000
    3.9209    0.9525   -5.6689 C   0  0  0  0  0  0  0  0  0  0  0  0
    4.8851    0.7971   -4.6185 N   0  0  0  0  0  0  0  0  0  0  0  0
    5.0857    1.6358   -3.5441 C   0  0  0  0  0  0  0  0  0  0  0  0
    6.0595    1.1235   -2.7641 C   0  0  0  0  0  0  0  0  0  0  0  0
    6.5488    1.6776   -1.4706 C   0  0  0  0  0  0  0  0  0  0  0  0
    7.1325    0.9837   -0.6447 O   0  0  0  0  0  0  0  0  0  0  0  0
    6.3248    3.0180   -1.2587 N   0  0  0  0  0  0  0  0  0  0  0  0
    6.8119    3.6234   -0.0425 C   0  0  0  0  0  0  0  0  0  0  0  0
    6.4693    5.0814    0.0316 C   0  0  0  0  0  0  0  0  0  0  0  0
    5.2437    5.5020    0.5556 C   0  0  0  0  0  0  0  0  0  0  0  0
    4.9279    6.8602    0.6123 C   0  0  0  0  0  0  0  0  0  0  0  0
    5.8287    7.8400    0.1602 C   0  0  0  0  0  0  0  0  0  0  0  0
    5.4913    9.2768    0.2125 C   0  0  0  0  0  0  0  0  0  0  0  0
    4.6657    9.8070    1.2142 C   0  0  0  0  0  0  0  0  0  0  0  0
    4.3268   11.1652    1.2400 C   0  0  0  0  0  0  0  0  0  0  0  0
    4.8304   12.0612    0.2842 C   0  0  0  0  0  0  0  0  0  0  0  0
    4.4962   13.5013    0.3120 C   0  0  0  0  0  0  0  0  0  0  0  0
    4.2446   14.1772    1.5193 C   0  0  0  0  0  0  0  0  0  0  0  0
    3.9555   15.5430    1.5405 C   0  0  0  0  0  0  0  0  0  0  0  0
    3.9239   16.2682    0.3530 C   0  0  0  0  0  0  0  0  0  0  0  0
    4.1634   15.6255   -0.8560 C   0  0  0  0  0  0  0  0  0  0  0  0
    4.4350   14.2557   -0.8747 C   0  0  0  0  0  0  0  0  0  0  0  0
    5.6747   11.5335   -0.7010 C   0  0  0  0  0  0  0  0  0  0  0  0
    5.9820   10.1707   -0.7495 C   0  0  0  0  0  0  0  0  0  0  0  0
    7.0594    7.3982   -0.3549 C   0  0  0  0  0  0  0  0  0  0  0  0
    7.3706    6.0408   -0.4350 C   0  0  0  0  0  0  0  0  0  0  0  0
    6.4892   -0.0671   -3.3366 N   0  0  0  0  0  0  0  0  0  0  0  0
    7.4932   -0.9835   -2.8757 C   0  0  0  0  0  0  0  0  0  0  0  0
    5.7553   -0.3065   -4.5189 C   0  0  0  0  0  0  0  0  0  0  0  0
    5.8458   -1.2534   -5.2803 O   0  0  0  0  0  0  0  0  0  0  0  0
    3.3432    1.8705   -5.5382 H   0  0  0  0  0  0  0  0  0  0  0  0
    3.2517    0.0862   -5.6664 H   0  0  0  0  0  0  0  0  0  0  0  0
    4.4467    0.9751   -6.6284 H   0  0  0  0  0  0  0  0  0  0  0  0
    4.4970    2.5275   -3.4082 H   0  0  0  0  0  0  0  0  0  0  0  0
    5.9555    3.6166   -1.9849 H   0  0  0  0  0  0  0  0  0  0  0  0
    7.8989    3.4845    0.0057 H   0  0  0  0  0  0  0  0  0  0  0  0
    6.3871    3.0878    0.8151 H   0  0  0  0  0  0  0  0  0  0  0  0
    4.5258    4.7751    0.9326 H   0  0  0  0  0  0  0  0  0  0  0  0
    3.9560    7.1428    1.0110 H   0  0  0  0  0  0  0  0  0  0  0  0
    4.2706    9.1721    2.0033 H   0  0  0  0  0  0  0  0  0  0  0  0
    3.6539   11.5058    2.0224 H   0  0  0  0  0  0  0  0  0  0  0  0
    4.2862   13.6492    2.4703 H   0  0  0  0  0  0  0  0  0  0  0  0
    3.7653   16.0408    2.4879 H   0  0  0  0  0  0  0  0  0  0  0  0
    3.7104   17.3321    0.3702 H   0  0  0  0  0  0  0  0  0  0  0  0
    4.1428   16.1833   -1.7877 H   0  0  0  0  0  0  0  0  0  0  0  0
    4.5951   13.7835   -1.8408 H   0  0  0  0  0  0  0  0  0  0  0  0
    6.1213   12.1755   -1.4564 H   0  0  0  0  0  0  0  0  0  0  0  0
    6.6109    9.8246   -1.5644 H   0  0  0  0  0  0  0  0  0  0  0  0
    7.8073    8.1123   -0.6936 H   0  0  0  0  0  0  0  0  0  0  0  0
    8.3314    5.7421   -0.8500 H   0  0  0  0  0  0  0  0  0  0  0  0
    7.9940   -0.6578   -1.9663 H   0  0  0  0  0  0  0  0  0  0  0  0
    8.2424   -1.1006   -3.6649 H   0  0  0  0  0  0  0  0  0  0  0  0
    7.0261   -1.9589   -2.7077 H   0  0  0  0  0  0  0  0  0  0  0  0
  1  2  1  0  0  0  0
  1 31  1  0  0  0  0
  1 32  1  0  0  0  0
  1 33  1  0  0  0  0
  2  3  1  0  0  0  0
  2 29  1  0  0  0  0
  3  4  2  0  0  0  0
  3 34  1  0  0  0  0
  4  5  1  0  0  0  0
  4 27  1  0  0  0  0
  5  6  2  0  0  0  0
  5  7  1  0  0  0  0
  7  8  1  0  0  0  0
  7 35  1  0  0  0  0
  8  9  1  0  0  0  0
  8 36  1  0  0  0  0
  8 37  1  0  0  0  0
  9 10  2  0  0  0  0
  9 26  1  0  0  0  0
 10 11  1  0  0  0  0
 10 38  1  0  0  0  0
 11 12  2  0  0  0  0
 11 39  1  0  0  0  0
 12 13  1  0  0  0  0
 12 25  1  0  0  0  0
 13 14  2  0  0  0  0
 13 24  1  0  0  0  0
 14 15  1  0  0  0  0
 14 40  1  0  0  0  0
 15 16  2  0  0  0  0
 15 41  1  0  0  0  0
 16 17  1  0  0  0  0
 16 23  1  0  0  0  0
 17 18  2  0  0  0  0
 17 22  1  0  0  0  0
 18 19  1  0  0  0  0
 18 42  1  0  0  0  0
 19 20  2  0  0  0  0
 19 43  1  0  0  0  0
 20 21  1  0  0  0  0
 20 44  1  0  0  0  0
 21 22  2  0  0  0  0
 21 45  1  0  0  0  0
 22 46  1  0  0  0  0
 23 24  2  0  0  0  0
 23 47  1  0  0  0  0
 24 48  1  0  0  0  0
 25 26  2  0  0  0  0
 25 49  1  0  0  0  0
 26 50  1  0  0  0  0
 27 28  1  0  0  0  0
 27 29  1  0  0  0  0
 28 51  1  0  0  0  0
 28 52  1  0  0  0  0
 28 53  1  0  0  0  0
 29 30  2  0  0  0  0
M  END
$$$$
