
 OpenBabel01122422523D

 48 51  0  0  0  0  0  0  0  0999 V2000
    0.8900   -0.2738    0.2005 C   0  0  0  0  0  0  0  0  0  0  0  0
    2.3360   -0.2679    0.0805 N   0  0  0  0  0  0  0  0  0  0  0  0
    2.9470    0.7738   -0.6002 C   0  0  0  0  0  0  0  0  0  0  0  0
    2.3425    1.7043   -1.1320 O   0  0  0  0  0  0  0  0  0  0  0  0
    4.3128    0.7436   -0.6677 N   0  0  0  0  0  0  0  0  0  0  0  0
    5.0991   -0.2609   -0.1115 C   0  0  0  0  0  0  0  0  0  0  0  0
    6.4907   -0.1993   -0.2170 C   0  0  0  0  0  0  0  0  0  0  0  0
    7.2772   -1.2191    0.3421 C   0  0  0  0  0  0  0  0  0  0  0  0
    8.7600   -1.0854    0.2944 C   0  0  0  0  0  0  0  0  0  0  0  0
    9.2502    0.0341    0.3740 O   0  0  0  0  0  0  0  0  0  0  0  0
    9.4547   -2.2645    0.0897 N   0  0  0  0  0  0  0  0  0  0  0  0
   10.8597   -2.3111   -0.1202 C   0  0  0  0  0  0  0  0  0  0  0  0
   11.2765   -3.0353   -1.2512 C   0  0  0  0  0  0  0  0  0  0  0  0
   12.6241   -3.1184   -1.5736 C   0  0  0  0  0  0  0  0  0  0  0  0
   12.9965   -3.7649   -2.6850 F   0  0  0  0  0  0  0  0  0  0  0  0
   13.5838   -2.5391   -0.7667 C   0  0  0  0  0  0  0  0  0  0  0  0
   13.1854   -1.8531    0.3807 C   0  0  0  0  0  0  0  0  0  0  0  0
   11.8282   -1.7099    0.7221 C   0  0  0  0  0  0  0  0  0  0  0  0
   11.4518   -1.0590    1.9257 N   0  0  0  0  0  0  0  0  0  0  0  0
   12.2712   -0.2976    2.7479 C   0  0  0  0  0  0  0  0  0  0  0  0
   13.4529   -0.0197    2.5454 O   0  0  0  0  0  0  0  0  0  0  0  0
   11.6277    0.2343    3.9903 C   0  0  0  0  0  0  0  0  0  0  0  0
   12.3840    1.0375    4.8437 C   0  0  0  0  0  0  0  0  0  0  0  0
   11.7920    1.5238    6.0029 C   0  0  0  0  0  0  0  0  0  0  0  0
   10.4693    1.1913    6.2724 C   0  0  0  0  0  0  0  0  0  0  0  0
    9.7924    0.3781    5.3700 C   0  0  0  0  0  0  0  0  0  0  0  0
   10.3344   -0.1155    4.2327 N   0  0  0  0  0  0  0  0  0  0  0  0
    6.6643   -2.3022    0.9875 C   0  0  0  0  0  0  0  0  0  0  0  0
    5.2704   -2.3492    1.0965 C   0  0  0  0  0  0  0  0  0  0  0  0
    4.4931   -1.3204    0.5509 C   0  0  0  0  0  0  0  0  0  0  0  0
    3.0223   -1.3205    0.6801 C   0  0  0  0  0  0  0  0  0  0  0  0
    2.4767   -2.2297    1.3073 O   0  0  0  0  0  0  0  0  0  0  0  0
    0.4221    0.5702   -0.3127 H   0  0  0  0  0  0  0  0  0  0  0  0
    0.6211   -0.2392    1.2615 H   0  0  0  0  0  0  0  0  0  0  0  0
    0.5022   -1.2068   -0.2213 H   0  0  0  0  0  0  0  0  0  0  0  0
    4.7334    1.5216   -1.1600 H   0  0  0  0  0  0  0  0  0  0  0  0
    6.9744    0.6375   -0.7163 H   0  0  0  0  0  0  0  0  0  0  0  0
    8.9210   -2.9870   -0.3813 H   0  0  0  0  0  0  0  0  0  0  0  0
   10.5612   -3.4925   -1.9276 H   0  0  0  0  0  0  0  0  0  0  0  0
   14.6360   -2.6240   -1.0191 H   0  0  0  0  0  0  0  0  0  0  0  0
   13.9795   -1.4579    1.0060 H   0  0  0  0  0  0  0  0  0  0  0  0
   10.4664   -1.0511    2.1711 H   0  0  0  0  0  0  0  0  0  0  0  0
   13.4170    1.2810    4.6100 H   0  0  0  0  0  0  0  0  0  0  0  0
   12.3564    2.1548    6.6833 H   0  0  0  0  0  0  0  0  0  0  0  0
    9.9776    1.5594    7.1671 H   0  0  0  0  0  0  0  0  0  0  0  0
    8.7596    0.0986    5.5543 H   0  0  0  0  0  0  0  0  0  0  0  0
    7.2570   -3.0887    1.4495 H   0  0  0  0  0  0  0  0  0  0  0  0
    4.7927   -3.1751    1.6222 H   0  0  0  0  0  0  0  0  0  0  0  0
  1  2  1  0  0  0  0
  1 33  1  0  0  0  0
  1 34  1  0  0  0  0
  1 35  1  0  0  0  0
  2  3  1  0  0  0  0
  2 31  1  0  0  0  0
  3  4  2  0  0  0  0
  3  5  1  0  0  0  0
  5  6  1  0  0  0  0
  5 36  1  0  0  0  0
  6  7  2  0  0  0  0
  6 30  1  0  0  0  0
  7  8  1  0  0  0  0
  7 37  1  0  0  0  0
  8  9  1  0  0  0  0
  8 28  2  0  0  0  0
  9 10  2  0  0  0  0
  9 11  1  0  0  0  0
 11 12  1  0  0  0  0
 11 38  1  0  0  0  0
 12 13  2  0  0  0  0
 12 18  1  0  0  0  0
 13 14  1  0  0  0  0
 13 39  1  0  0  0  0
 14 15  1  0  0  0  0
 14 16  2  0  0  0  0
 16 17  1  0  0  0  0
 16 40  1  0  0  0  0
 17 18  2  0  0  0  0
 17 41  1  0  0  0  0
 18 19  1  0  0  0  0
 19 20  1  0  0  0  0
 19 42  1  0  0  0  0
 20 21  2  0  0  0  0
 20 22  1  0  0  0  0
 22 23  2  0  0  0  0
 22 27  1  0  0  0  0
 23 24  1  0  0  0  0
 23 43  1  0  0  0  0
 24 25  2  0  0  0  0
 24 44  1  0  0  0  0
 25 26  1  0  0  0  0
 25 45  1  0  0  0  0
 26 27  2  0  0  0  0
 26 46  1  0  0  0  0
 28 29  1  0  0  0  0
 28 47  1  0  0  0  0
 29 30  2  0  0  0  0
 29 48  1  0  0  0  0
 30 31  1  0  0  0  0
 31 32  2  0  0  0  0
M  END
$$$$
