
 OpenBabel01122422523D

 42 45  0  0  0  0  0  0  0  0999 V2000
    0.9246    0.0358   -0.0461 O   0  0  0  0  0  0  0  0  0  0  0  0
    2.1493    0.0354   -0.1017 C   0  0  0  0  0  0  0  0  0  0  0  0
    2.8452    0.8534   -0.9570 N   0  0  0  0  0  0  0  0  0  0  0  0
    2.1661    1.6606   -1.9424 C   0  0  0  0  0  0  0  0  0  0  0  0
    1.9956    0.9155   -3.2249 C   0  0  0  0  0  0  0  0  0  0  0  0
    1.3891    1.3415   -4.3981 C   0  0  0  0  0  0  0  0  0  0  0  0
    0.7768    2.5667   -4.8945 C   0  0  0  0  0  0  0  0  0  0  0  0
   -0.2890    2.5146   -5.8094 C   0  0  0  0  0  0  0  0  0  0  0  0
   -0.8610    3.6941   -6.3038 C   0  0  0  0  0  0  0  0  0  0  0  0
   -0.3713    4.9266   -5.8868 C   0  0  0  0  0  0  0  0  0  0  0  0
   -0.9144    6.0513   -6.3688 F   0  0  0  0  0  0  0  0  0  0  0  0
    0.6747    5.0067   -4.9845 C   0  0  0  0  0  0  0  0  0  0  0  0
    1.2413    3.8308   -4.5023 C   0  0  0  0  0  0  0  0  0  0  0  0
    2.2822    3.9486   -3.6676 F   0  0  0  0  0  0  0  0  0  0  0  0
    1.4244    0.2899   -5.2801 O   0  0  0  0  0  0  0  0  0  0  0  0
    2.0703   -0.6965   -4.6070 C   0  0  0  0  0  0  0  0  0  0  0  0
    2.4422   -0.3892   -3.3868 N   0  0  0  0  0  0  0  0  0  0  0  0
    2.9882   -0.7942    0.7250 C   0  0  0  0  0  0  0  0  0  0  0  0
    4.2112   -0.4734    1.2896 C   0  0  0  0  0  0  0  0  0  0  0  0
    4.6278   -1.4240    2.1736 N   0  0  0  0  0  0  0  0  0  0  0  0
    3.6785   -2.3304    2.1558 C   0  0  0  0  0  0  0  0  0  0  0  0
    2.6797   -2.0440    1.2458 N   0  0  0  0  0  0  0  0  0  0  0  0
    1.6227   -2.9290    0.8975 C   0  0  0  0  0  0  0  0  0  0  0  0
    1.1333   -3.8374    1.8448 C   0  0  0  0  0  0  0  0  0  0  0  0
    0.1188   -4.7201    1.4862 C   0  0  0  0  0  0  0  0  0  0  0  0
   -0.3625   -5.5714    2.4016 F   0  0  0  0  0  0  0  0  0  0  0  0
   -0.4047   -4.7343    0.1994 C   0  0  0  0  0  0  0  0  0  0  0  0
    0.0884   -3.8429   -0.7499 C   0  0  0  0  0  0  0  0  0  0  0  0
    1.0978   -2.9393   -0.4037 C   0  0  0  0  0  0  0  0  0  0  0  0
    3.8175    0.6470   -1.1330 H   0  0  0  0  0  0  0  0  0  0  0  0
    2.8040    2.5333   -2.0882 H   0  0  0  0  0  0  0  0  0  0  0  0
    1.1932    1.9875   -1.5608 H   0  0  0  0  0  0  0  0  0  0  0  0
   -0.6828    1.5571   -6.1439 H   0  0  0  0  0  0  0  0  0  0  0  0
   -1.6822    3.6554   -7.0143 H   0  0  0  0  0  0  0  0  0  0  0  0
    1.0580    5.9696   -4.6667 H   0  0  0  0  0  0  0  0  0  0  0  0
    2.2163   -1.6289   -5.1356 H   0  0  0  0  0  0  0  0  0  0  0  0
    4.7856    0.4336    1.1450 H   0  0  0  0  0  0  0  0  0  0  0  0
    3.6988   -3.2457    2.7324 H   0  0  0  0  0  0  0  0  0  0  0  0
    1.4821   -3.8561    2.8723 H   0  0  0  0  0  0  0  0  0  0  0  0
   -1.1917   -5.4368   -0.0542 H   0  0  0  0  0  0  0  0  0  0  0  0
   -0.3074   -3.8484   -1.7624 H   0  0  0  0  0  0  0  0  0  0  0  0
    1.4768   -2.2805   -1.1823 H   0  0  0  0  0  0  0  0  0  0  0  0
  1  2  2  0  0  0  0
  2  3  1  0  0  0  0
  2 18  1  0  0  0  0
  3  4  1  0  0  0  0
  3 30  1  0  0  0  0
  4  5  1  0  0  0  0
  4 31  1  0  0  0  0
  4 32  1  0  0  0  0
  5  6  2  0  0  0  0
  5 17  1  0  0  0  0
  6  7  1  0  0  0  0
  6 15  1  0  0  0  0
  7  8  2  0  0  0  0
  7 13  1  0  0  0  0
  8  9  1  0  0  0  0
  8 33  1  0  0  0  0
  9 10  2  0  0  0  0
  9 34  1  0  0  0  0
 10 11  1  0  0  0  0
 10 12  1  0  0  0  0
 12 13  2  0  0  0  0
 12 35  1  0  0  0  0
 13 14  1  0  0  0  0
 15 16  1  0  0  0  0
 16 17  2  0  0  0  0
 16 36  1  0  0  0  0
 18 19  2  0  0  0  0
 18 22  1  0  0  0  0
 19 20  1  0  0  0  0
 19 37  1  0  0  0  0
 20 21  2  0  0  0  0
 21 22  1  0  0  0  0
 21 38  1  0  0  0  0
 22 23  1  0  0  0  0
 23 24  2  0  0  0  0
 23 29  1  0  0  0  0
 24 25  1  0  0  0  0
 24 39  1  0  0  0  0
 25 26  1  0  0  0  0
 25 27  2  0  0  0  0
 27 28  1  0  0  0  0
 27 40  1  0  0  0  0
 28 29  2  0  0  0  0
 28 41  1  0  0  0  0
 29 42  1  0  0  0  0
M  END
$$$$
