
 OpenBabel01122422523D

 50 53  0  0  0  0  0  0  0  0999 V2000
   10.0526    4.7953    3.2148 C   0  0  0  0  0  0  0  0  0  0  0  0
   10.1887    4.5480    1.8212 O   0  0  0  0  0  0  0  0  0  0  0  0
    9.5455    3.4483    1.3234 C   0  0  0  0  0  0  0  0  0  0  0  0
    8.8300    2.5091    2.0674 C   0  0  0  0  0  0  0  0  0  0  0  0
    8.2027    1.4310    1.4298 C   0  0  0  0  0  0  0  0  0  0  0  0
    8.2942    1.3013    0.0451 C   0  0  0  0  0  0  0  0  0  0  0  0
    7.6533    0.2432   -0.6086 N   0  0  0  0  0  0  0  0  0  0  0  0
    7.6824    0.0600   -1.9677 C   0  0  0  0  0  0  0  0  0  0  0  0
    7.0769   -0.8677   -2.4957 O   0  0  0  0  0  0  0  0  0  0  0  0
    8.4760    1.0369   -2.7742 C   0  0  0  0  0  0  0  0  0  0  0  0
    8.4932    0.7708   -4.2568 C   0  0  0  0  0  0  0  0  0  0  0  0
    9.2253    1.8020   -4.9487 O   0  0  0  0  0  0  0  0  0  0  0  0
   10.3250    1.4259   -5.6431 C   0  0  0  0  0  0  0  0  0  0  0  0
   10.7464    0.2905   -5.7742 O   0  0  0  0  0  0  0  0  0  0  0  0
   10.9909    2.6241   -6.2342 C   0  0  0  0  0  0  0  0  0  0  0  0
   10.4981    3.9211   -6.0391 C   0  0  0  0  0  0  0  0  0  0  0  0
   11.1471    5.0122   -6.6181 C   0  0  0  0  0  0  0  0  0  0  0  0
   12.3038    4.8188   -7.3741 C   0  0  0  0  0  0  0  0  0  0  0  0
   12.8435    3.5355   -7.5406 C   0  0  0  0  0  0  0  0  0  0  0  0
   14.1736    3.3595   -8.2379 C   0  0  0  0  0  0  0  0  0  0  0  0
   14.1320    3.1285   -9.7299 C   0  0  0  0  0  0  0  0  0  0  0  0
   14.0428    1.8339  -10.2400 C   0  0  0  0  0  0  0  0  0  0  0  0
   14.1640    1.6394  -11.6139 C   0  0  0  0  0  0  0  0  0  0  0  0
   14.3531    2.7370  -12.4437 C   0  0  0  0  0  0  0  0  0  0  0  0
   14.3982    3.9924  -11.8628 C   0  0  0  0  0  0  0  0  0  0  0  0
   14.2953    4.2121  -10.5324 N   0  0  0  0  0  0  0  0  0  0  0  0
   12.1645    2.4380   -6.9840 C   0  0  0  0  0  0  0  0  0  0  0  0
    9.0997    2.0561   -2.1572 C   0  0  0  0  0  0  0  0  0  0  0  0
    9.0186    2.2275   -0.7079 C   0  0  0  0  0  0  0  0  0  0  0  0
    9.6435    3.2988   -0.0656 C   0  0  0  0  0  0  0  0  0  0  0  0
   10.5742    5.7303    3.4420 H   0  0  0  0  0  0  0  0  0  0  0  0
   10.5232    3.9989    3.8009 H   0  0  0  0  0  0  0  0  0  0  0  0
    9.0017    4.9249    3.4942 H   0  0  0  0  0  0  0  0  0  0  0  0
    8.7390    2.5846    3.1458 H   0  0  0  0  0  0  0  0  0  0  0  0
    7.6477    0.7114    2.0228 H   0  0  0  0  0  0  0  0  0  0  0  0
    7.1148   -0.4324   -0.0840 H   0  0  0  0  0  0  0  0  0  0  0  0
    7.4687    0.8118   -4.6432 H   0  0  0  0  0  0  0  0  0  0  0  0
    8.8897   -0.2287   -4.4597 H   0  0  0  0  0  0  0  0  0  0  0  0
    9.6091    4.1011   -5.4398 H   0  0  0  0  0  0  0  0  0  0  0  0
   10.7575    6.0168   -6.4708 H   0  0  0  0  0  0  0  0  0  0  0  0
   12.8018    5.6815   -7.8152 H   0  0  0  0  0  0  0  0  0  0  0  0
   14.7260    2.5392   -7.7610 H   0  0  0  0  0  0  0  0  0  0  0  0
   14.7897    4.2488   -8.0453 H   0  0  0  0  0  0  0  0  0  0  0  0
   13.9189    0.9817   -9.5794 H   0  0  0  0  0  0  0  0  0  0  0  0
   14.1287    0.6368  -12.0305 H   0  0  0  0  0  0  0  0  0  0  0  0
   14.4671    2.6171  -13.5152 H   0  0  0  0  0  0  0  0  0  0  0  0
   14.5371    4.8827  -12.4697 H   0  0  0  0  0  0  0  0  0  0  0  0
   12.5636    1.4328   -7.1111 H   0  0  0  0  0  0  0  0  0  0  0  0
    9.6827    2.7824   -2.7133 H   0  0  0  0  0  0  0  0  0  0  0  0
   10.2078    4.0309   -0.6349 H   0  0  0  0  0  0  0  0  0  0  0  0
  1  2  1  0  0  0  0
  1 31  1  0  0  0  0
  1 32  1  0  0  0  0
  1 33  1  0  0  0  0
  2  3  1  0  0  0  0
  3  4  2  0  0  0  0
  3 30  1  0  0  0  0
  4  5  1  0  0  0  0
  4 34  1  0  0  0  0
  5  6  2  0  0  0  0
  5 35  1  0  0  0  0
  6  7  1  0  0  0  0
  6 29  1  0  0  0  0
  7  8  1  0  0  0  0
  7 36  1  0  0  0  0
  8  9  2  0  0  0  0
  8 10  1  0  0  0  0
 10 11  1  0  0  0  0
 10 28  2  0  0  0  0
 11 12  1  0  0  0  0
 11 37  1  0  0  0  0
 11 38  1  0  0  0  0
 12 13  1  0  0  0  0
 13 14  2  0  0  0  0
 13 15  1  0  0  0  0
 15 16  2  0  0  0  0
 15 27  1  0  0  0  0
 16 17  1  0  0  0  0
 16 39  1  0  0  0  0
 17 18  2  0  0  0  0
 17 40  1  0  0  0  0
 18 19  1  0  0  0  0
 18 41  1  0  0  0  0
 19 20  1  0  0  0  0
 19 27  2  0  0  0  0
 20 21  1  0  0  0  0
 20 42  1  0  0  0  0
 20 43  1  0  0  0  0
 21 22  2  0  0  0  0
 21 26  1  0  0  0  0
 22 23  1  0  0  0  0
 22 44  1  0  0  0  0
 23 24  2  0  0  0  0
 23 45  1  0  0  0  0
 24 25  1  0  0  0  0
 24 46  1  0  0  0  0
 25 26  2  0  0  0  0
 25 47  1  0  0  0  0
 27 48  1  0  0  0  0
 28 29  1  0  0  0  0
 28 49  1  0  0  0  0
 29 30  2  0  0  0  0
 30 50  1  0  0  0  0
M  END
$$$$
