
 OpenBabel01122422463D

 42 45  0  0  0  0  0  0  0  0999 V2000
    0.0903    5.5423   -5.2981 C   0  0  0  0  0  0  0  0  0  0  0  0
   -0.8825    6.0149   -4.2630 C   0  0  0  0  0  0  0  0  0  0  0  0
   -1.5156    7.2465   -4.3784 C   0  0  0  0  0  0  0  0  0  0  0  0
   -2.4056    7.6342   -3.3836 C   0  0  0  0  0  0  0  0  0  0  0  0
   -2.6298    6.7866   -2.3009 C   0  0  0  0  0  0  0  0  0  0  0  0
   -1.9593    5.5621   -2.2319 C   0  0  0  0  0  0  0  0  0  0  0  0
   -2.1386    4.6294   -1.0888 C   0  0  0  0  0  0  0  0  0  0  0  0
   -1.4866    3.4496   -1.0960 N   0  0  0  0  0  0  0  0  0  0  0  0
   -1.6640    2.6549   -0.0302 C   0  0  0  0  0  0  0  0  0  0  0  0
   -2.4648    2.9840    1.0380 C   0  0  0  0  0  0  0  0  0  0  0  0
   -3.1015    4.2030    0.9617 C   0  0  0  0  0  0  0  0  0  0  0  0
   -3.9381    4.5822    2.0199 N   0  0  0  0  0  0  0  0  0  0  0  0
   -4.6016    5.7948    2.0933 C   0  0  0  0  0  0  0  0  0  0  0  0
   -4.5459    6.6975    1.2657 O   0  0  0  0  0  0  0  0  0  0  0  0
   -5.4030    5.9473    3.3154 C   0  0  0  0  0  0  0  0  0  0  0  0
   -5.8020    4.8678    4.0157 N   0  0  0  0  0  0  0  0  0  0  0  0
   -6.6154    5.3523    5.0224 O   0  0  0  0  0  0  0  0  0  0  0  0
   -6.6594    6.7038    4.9608 C   0  0  0  0  0  0  0  0  0  0  0  0
   -5.8810    7.1545    3.9204 C   0  0  0  0  0  0  0  0  0  0  0  0
   -5.6571    8.5603    3.6085 C   0  0  0  0  0  0  0  0  0  0  0  0
   -4.4060    8.9904    3.1347 C   0  0  0  0  0  0  0  0  0  0  0  0
   -4.1944   10.3262    2.7811 C   0  0  0  0  0  0  0  0  0  0  0  0
   -5.2235   11.2463    2.9275 C   0  0  0  0  0  0  0  0  0  0  0  0
   -5.0207   12.5232    2.5797 F   0  0  0  0  0  0  0  0  0  0  0  0
   -6.4569   10.8601    3.4295 C   0  0  0  0  0  0  0  0  0  0  0  0
   -6.6654    9.5242    3.7657 C   0  0  0  0  0  0  0  0  0  0  0  0
   -7.8723    9.1797    4.2412 F   0  0  0  0  0  0  0  0  0  0  0  0
   -2.9419    5.0243   -0.0825 N   0  0  0  0  0  0  0  0  0  0  0  0
   -1.0934    5.1844   -3.2165 N   0  0  0  0  0  0  0  0  0  0  0  0
    0.1906    6.2566   -6.1208 H   0  0  0  0  0  0  0  0  0  0  0  0
   -0.2453    4.5868   -5.7138 H   0  0  0  0  0  0  0  0  0  0  0  0
    1.0753    5.4029   -4.8414 H   0  0  0  0  0  0  0  0  0  0  0  0
   -1.3251    7.8976   -5.2253 H   0  0  0  0  0  0  0  0  0  0  0  0
   -2.9166    8.5901   -3.4452 H   0  0  0  0  0  0  0  0  0  0  0  0
   -3.3221    7.0848   -1.5163 H   0  0  0  0  0  0  0  0  0  0  0  0
   -1.1209    1.7153   -0.0653 H   0  0  0  0  0  0  0  0  0  0  0  0
   -2.5680    2.3130    1.8783 H   0  0  0  0  0  0  0  0  0  0  0  0
   -4.0819    3.9382    2.7883 H   0  0  0  0  0  0  0  0  0  0  0  0
   -7.2674    7.1826    5.7157 H   0  0  0  0  0  0  0  0  0  0  0  0
   -3.5791    8.2942    3.0113 H   0  0  0  0  0  0  0  0  0  0  0  0
   -3.2360   10.6458    2.3822 H   0  0  0  0  0  0  0  0  0  0  0  0
   -7.2512   11.5873    3.5492 H   0  0  0  0  0  0  0  0  0  0  0  0
  1  2  1  0  0  0  0
  1 30  1  0  0  0  0
  1 31  1  0  0  0  0
  1 32  1  0  0  0  0
  2  3  2  0  0  0  0
  2 29  1  0  0  0  0
  3  4  1  0  0  0  0
  3 33  1  0  0  0  0
  4  5  2  0  0  0  0
  4 34  1  0  0  0  0
  5  6  1  0  0  0  0
  5 35  1  0  0  0  0
  6  7  1  0  0  0  0
  6 29  2  0  0  0  0
  7  8  2  0  0  0  0
  7 28  1  0  0  0  0
  8  9  1  0  0  0  0
  9 10  2  0  0  0  0
  9 36  1  0  0  0  0
 10 11  1  0  0  0  0
 10 37  1  0  0  0  0
 11 12  1  0  0  0  0
 11 28  2  0  0  0  0
 12 13  1  0  0  0  0
 12 38  1  0  0  0  0
 13 14  2  0  0  0  0
 13 15  1  0  0  0  0
 15 16  2  0  0  0  0
 15 19  1  0  0  0  0
 16 17  1  0  0  0  0
 17 18  1  0  0  0  0
 18 19  2  0  0  0  0
 18 39  1  0  0  0  0
 19 20  1  0  0  0  0
 20 21  2  0  0  0  0
 20 26  1  0  0  0  0
 21 22  1  0  0  0  0
 21 40  1  0  0  0  0
 22 23  2  0  0  0  0
 22 41  1  0  0  0  0
 23 24  1  0  0  0  0
 23 25  1  0  0  0  0
 25 26  2  0  0  0  0
 25 42  1  0  0  0  0
 26 27  1  0  0  0  0
M  END
$$$$
