
 OpenBabel01122422523D

 44 47  0  0  0  0  0  0  0  0999 V2000
    3.5538    5.7680    6.3852 C   0  0  0  0  0  0  0  0  0  0  0  0
    3.0988    4.4427    6.1060 O   0  0  0  0  0  0  0  0  0  0  0  0
    3.6502    3.9444    4.9467 C   0  0  0  0  0  0  0  0  0  0  0  0
    3.3256    2.6607    4.5468 C   0  0  0  0  0  0  0  0  0  0  0  0
    3.8282    2.1052    3.4145 N   0  0  0  0  0  0  0  0  0  0  0  0
    4.6609    2.8807    2.6870 C   0  0  0  0  0  0  0  0  0  0  0  0
    5.2263    2.4165    1.5063 C   0  0  0  0  0  0  0  0  0  0  0  0
    6.0952    3.2178    0.7533 C   0  0  0  0  0  0  0  0  0  0  0  0
    6.4158    4.5089    1.1890 C   0  0  0  0  0  0  0  0  0  0  0  0
    7.3253    5.3651    0.3782 C   0  0  0  0  0  0  0  0  0  0  0  0
    7.3352    5.1847   -0.8327 O   0  0  0  0  0  0  0  0  0  0  0  0
    8.1210    6.2420    1.1012 N   0  0  0  0  0  0  0  0  0  0  0  0
    9.0057    7.1675    0.5218 C   0  0  0  0  0  0  0  0  0  0  0  0
    8.8974    7.4766   -0.7807 N   0  0  0  0  0  0  0  0  0  0  0  0
    9.7614    8.3611   -1.3337 C   0  0  0  0  0  0  0  0  0  0  0  0
    9.5774    8.6013   -2.7777 C   0  0  0  0  0  0  0  0  0  0  0  0
   10.6479    8.9671   -3.6093 C   0  0  0  0  0  0  0  0  0  0  0  0
   10.4695    9.1078   -4.9816 C   0  0  0  0  0  0  0  0  0  0  0  0
   11.5198    9.4328   -5.7453 F   0  0  0  0  0  0  0  0  0  0  0  0
    9.2346    8.8926   -5.5722 C   0  0  0  0  0  0  0  0  0  0  0  0
    8.1500    8.5412   -4.7683 C   0  0  0  0  0  0  0  0  0  0  0  0
    6.8742    8.2831   -5.3645 C   0  0  0  0  0  0  0  0  0  0  0  0
    5.8454    8.0764   -5.8680 N   0  0  0  0  0  0  0  0  0  0  0  0
    8.3186    8.4146   -3.3844 C   0  0  0  0  0  0  0  0  0  0  0  0
   10.7623    8.9654   -0.5812 C   0  0  0  0  0  0  0  0  0  0  0  0
   10.8678    8.6559    0.7691 C   0  0  0  0  0  0  0  0  0  0  0  0
    9.9682    7.7562    1.3349 C   0  0  0  0  0  0  0  0  0  0  0  0
    5.8330    4.9910    2.3558 C   0  0  0  0  0  0  0  0  0  0  0  0
    4.9808    4.1954    3.1072 C   0  0  0  0  0  0  0  0  0  0  0  0
    4.4853    4.7214    4.2307 N   0  0  0  0  0  0  0  0  0  0  0  0
    2.9974    6.1480    7.2458 H   0  0  0  0  0  0  0  0  0  0  0  0
    3.3621    6.4487    5.5465 H   0  0  0  0  0  0  0  0  0  0  0  0
    4.6193    5.7635    6.6442 H   0  0  0  0  0  0  0  0  0  0  0  0
    2.6505    2.0386    5.1265 H   0  0  0  0  0  0  0  0  0  0  0  0
    4.9841    1.4126    1.1625 H   0  0  0  0  0  0  0  0  0  0  0  0
    6.5175    2.8322   -0.1731 H   0  0  0  0  0  0  0  0  0  0  0  0
    8.1569    6.1536    2.1052 H   0  0  0  0  0  0  0  0  0  0  0  0
   11.6497    9.1099   -3.2158 H   0  0  0  0  0  0  0  0  0  0  0  0
    9.1377    8.9815   -6.6502 H   0  0  0  0  0  0  0  0  0  0  0  0
    7.4633    8.1344   -2.7652 H   0  0  0  0  0  0  0  0  0  0  0  0
   11.4526    9.6750   -1.0234 H   0  0  0  0  0  0  0  0  0  0  0  0
   11.6517    9.1114    1.3677 H   0  0  0  0  0  0  0  0  0  0  0  0
   10.0536    7.5121    2.3874 H   0  0  0  0  0  0  0  0  0  0  0  0
    6.0033    6.0074    2.6932 H   0  0  0  0  0  0  0  0  0  0  0  0
  1  2  1  0  0  0  0
  1 31  1  0  0  0  0
  1 32  1  0  0  0  0
  1 33  1  0  0  0  0
  2  3  1  0  0  0  0
  3  4  2  0  0  0  0
  3 30  1  0  0  0  0
  4  5  1  0  0  0  0
  4 34  1  0  0  0  0
  5  6  2  0  0  0  0
  6  7  1  0  0  0  0
  6 29  1  0  0  0  0
  7  8  2  0  0  0  0
  7 35  1  0  0  0  0
  8  9  1  0  0  0  0
  8 36  1  0  0  0  0
  9 10  1  0  0  0  0
  9 28  2  0  0  0  0
 10 11  2  0  0  0  0
 10 12  1  0  0  0  0
 12 13  1  0  0  0  0
 12 37  1  0  0  0  0
 13 14  2  0  0  0  0
 13 27  1  0  0  0  0
 14 15  1  0  0  0  0
 15 16  1  0  0  0  0
 15 25  2  0  0  0  0
 16 17  2  0  0  0  0
 16 24  1  0  0  0  0
 17 18  1  0  0  0  0
 17 38  1  0  0  0  0
 18 19  1  0  0  0  0
 18 20  2  0  0  0  0
 20 21  1  0  0  0  0
 20 39  1  0  0  0  0
 21 22  1  0  0  0  0
 21 24  2  0  0  0  0
 22 23  3  0  0  0  0
 24 40  1  0  0  0  0
 25 26  1  0  0  0  0
 25 41  1  0  0  0  0
 26 27  2  0  0  0  0
 26 42  1  0  0  0  0
 27 43  1  0  0  0  0
 28 29  1  0  0  0  0
 28 44  1  0  0  0  0
 29 30  2  0  0  0  0
M  END
$$$$
