
 OpenBabel01122422523D

 42 45  0  0  0  0  0  0  0  0999 V2000
    0.9776   -0.0573   -0.4537 O   0  0  0  0  0  0  0  0  0  0  0  0
    2.1802   -0.0676   -0.2069 C   0  0  0  0  0  0  0  0  0  0  0  0
    2.9406    1.0755   -0.1366 N   0  0  0  0  0  0  0  0  0  0  0  0
    2.3795    2.3882   -0.3427 C   0  0  0  0  0  0  0  0  0  0  0  0
    3.0436    3.0822   -1.5044 C   0  0  0  0  0  0  0  0  0  0  0  0
    4.1110    3.9593   -1.2826 C   0  0  0  0  0  0  0  0  0  0  0  0
    4.7519    4.5710   -2.3569 C   0  0  0  0  0  0  0  0  0  0  0  0
    4.3562    4.2898   -3.6664 C   0  0  0  0  0  0  0  0  0  0  0  0
    3.3090    3.3907   -3.9150 C   0  0  0  0  0  0  0  0  0  0  0  0
    2.9800    3.0238   -5.2537 N   0  0  0  0  0  0  0  0  0  0  0  0
    3.6415    3.3931   -6.4079 C   0  0  0  0  0  0  0  0  0  0  0  0
    3.0444    2.6998   -7.4335 C   0  0  0  0  0  0  0  0  0  0  0  0
    1.9997    1.9568   -6.9700 N   0  0  0  0  0  0  0  0  0  0  0  0
    1.9740    2.1774   -5.6729 C   0  0  0  0  0  0  0  0  0  0  0  0
    2.6380    2.8113   -2.8249 C   0  0  0  0  0  0  0  0  0  0  0  0
    2.9086   -1.3197    0.0218 C   0  0  0  0  0  0  0  0  0  0  0  0
    4.2094   -1.3611    0.3517 N   0  0  0  0  0  0  0  0  0  0  0  0
    4.5289   -2.7096    0.4564 O   0  0  0  0  0  0  0  0  0  0  0  0
    3.4282   -3.4683    0.1841 C   0  0  0  0  0  0  0  0  0  0  0  0
    3.6030   -4.9129    0.1733 C   0  0  0  0  0  0  0  0  0  0  0  0
    4.5552   -5.5598    0.9709 C   0  0  0  0  0  0  0  0  0  0  0  0
    5.3297   -4.8594    1.8127 F   0  0  0  0  0  0  0  0  0  0  0  0
    4.7188   -6.9440    0.9381 C   0  0  0  0  0  0  0  0  0  0  0  0
    3.9199   -7.7021    0.0936 C   0  0  0  0  0  0  0  0  0  0  0  0
    4.0758   -9.0308    0.0516 F   0  0  0  0  0  0  0  0  0  0  0  0
    2.9606   -7.1015   -0.7057 C   0  0  0  0  0  0  0  0  0  0  0  0
    2.8081   -5.7179   -0.6560 C   0  0  0  0  0  0  0  0  0  0  0  0
    1.8752   -5.1647   -1.4464 F   0  0  0  0  0  0  0  0  0  0  0  0
    2.3745   -2.6269   -0.0762 C   0  0  0  0  0  0  0  0  0  0  0  0
    3.9346    0.9703    0.0454 H   0  0  0  0  0  0  0  0  0  0  0  0
    2.5336    2.9560    0.5817 H   0  0  0  0  0  0  0  0  0  0  0  0
    1.2973    2.3378   -0.5069 H   0  0  0  0  0  0  0  0  0  0  0  0
    4.4533    4.1685   -0.2718 H   0  0  0  0  0  0  0  0  0  0  0  0
    5.5765    5.2569   -2.1768 H   0  0  0  0  0  0  0  0  0  0  0  0
    4.8984    4.7836   -4.4667 H   0  0  0  0  0  0  0  0  0  0  0  0
    4.4847    4.0652   -6.4203 H   0  0  0  0  0  0  0  0  0  0  0  0
    3.3183    2.6997   -8.4808 H   0  0  0  0  0  0  0  0  0  0  0  0
    1.2497    1.7385   -5.0019 H   0  0  0  0  0  0  0  0  0  0  0  0
    1.8131    2.1163   -2.9640 H   0  0  0  0  0  0  0  0  0  0  0  0
    5.4609   -7.4240    1.5667 H   0  0  0  0  0  0  0  0  0  0  0  0
    2.3393   -7.6986   -1.3648 H   0  0  0  0  0  0  0  0  0  0  0  0
    1.3595   -2.9004   -0.3291 H   0  0  0  0  0  0  0  0  0  0  0  0
  1  2  2  0  0  0  0
  2  3  1  0  0  0  0
  2 16  1  0  0  0  0
  3  4  1  0  0  0  0
  3 30  1  0  0  0  0
  4  5  1  0  0  0  0
  4 31  1  0  0  0  0
  4 32  1  0  0  0  0
  5  6  2  0  0  0  0
  5 15  1  0  0  0  0
  6  7  1  0  0  0  0
  6 33  1  0  0  0  0
  7  8  2  0  0  0  0
  7 34  1  0  0  0  0
  8  9  1  0  0  0  0
  8 35  1  0  0  0  0
  9 10  1  0  0  0  0
  9 15  2  0  0  0  0
 10 11  1  0  0  0  0
 10 14  1  0  0  0  0
 11 12  2  0  0  0  0
 11 36  1  0  0  0  0
 12 13  1  0  0  0  0
 12 37  1  0  0  0  0
 13 14  2  0  0  0  0
 14 38  1  0  0  0  0
 15 39  1  0  0  0  0
 16 17  2  0  0  0  0
 16 29  1  0  0  0  0
 17 18  1  0  0  0  0
 18 19  1  0  0  0  0
 19 20  1  0  0  0  0
 19 29  2  0  0  0  0
 20 21  2  0  0  0  0
 20 27  1  0  0  0  0
 21 22  1  0  0  0  0
 21 23  1  0  0  0  0
 23 24  2  0  0  0  0
 23 40  1  0  0  0  0
 24 25  1  0  0  0  0
 24 26  1  0  0  0  0
 26 27  2  0  0  0  0
 26 41  1  0  0  0  0
 27 28  1  0  0  0  0
 29 42  1  0  0  0  0
M  END
$$$$
