
 OpenBabel01122422523D

 48 51  0  0  1  0  0  0  0  0999 V2000
    2.8352    0.2347   -1.0032 O   0  0  0  0  0  0  0  0  0  0  0  0
    2.2106    0.1666    0.0585 C   0  0  0  0  0  0  0  0  0  0  0  0
    2.9180   -0.0859    1.2152 N   0  0  0  0  0  0  0  0  0  0  0  0
    2.3929   -0.3208    2.5527 C   0  0  3  0  0  0  0  0  0  0  0  0
    1.8936   -1.7544    2.7218 C   0  0  0  0  0  0  0  0  0  0  0  0
    0.7047   -1.9872    3.4391 C   0  0  0  0  0  0  0  0  0  0  0  0
    0.1460   -3.2718    3.5390 C   0  0  0  0  0  0  0  0  0  0  0  0
   -1.1752   -3.4938    4.2360 C   0  0  0  0  0  0  0  0  0  0  0  0
   -1.7411   -2.3456    4.7032 F   0  0  0  0  0  0  0  0  0  0  0  0
   -2.1069   -4.0598    3.4196 F   0  0  0  0  0  0  0  0  0  0  0  0
   -1.0643   -4.3214    5.3107 F   0  0  0  0  0  0  0  0  0  0  0  0
    0.8206   -4.3490    2.9493 C   0  0  0  0  0  0  0  0  0  0  0  0
    2.0127   -4.1410    2.2554 C   0  0  0  0  0  0  0  0  0  0  0  0
    2.5422   -2.8538    2.1353 C   0  0  0  0  0  0  0  0  0  0  0  0
    3.3838    0.1329    3.5763 C   0  0  0  0  0  0  0  0  0  0  0  0
    3.5048    1.3661    4.0311 N   0  0  0  0  0  0  0  0  0  0  0  0
    4.4462    1.3622    5.0262 N   0  0  0  0  0  0  0  0  0  0  0  0
    4.8806    0.1339    5.1543 C   0  0  0  0  0  0  0  0  0  0  0  0
    4.2522   -0.6736    4.2568 N   0  0  0  0  0  0  0  0  0  0  0  0
    0.7189    0.3335    0.0586 C   0  0  0  0  0  0  0  0  0  0  0  0
    0.0685    0.5435   -1.1343 C   0  0  0  0  0  0  0  0  0  0  0  0
   -1.3051    0.5768   -1.0685 C   0  0  0  0  0  0  0  0  0  0  0  0
   -2.0324    0.6405   -2.2725 N   0  0  0  0  0  0  0  0  0  0  0  0
   -3.3735    0.2441   -2.4252 C   0  0  0  0  0  0  0  0  0  0  0  0
   -4.2205    0.9467   -3.2878 C   0  0  0  0  0  0  0  0  0  0  0  0
   -5.5520    0.5583   -3.4443 C   0  0  0  0  0  0  0  0  0  0  0  0
   -6.0490   -0.5443   -2.7513 C   0  0  0  0  0  0  0  0  0  0  0  0
   -5.2163   -1.2646   -1.9017 C   0  0  0  0  0  0  0  0  0  0  0  0
   -3.8864   -0.8726   -1.7458 C   0  0  0  0  0  0  0  0  0  0  0  0
   -1.9725    0.4779    0.0957 N   0  0  0  0  0  0  0  0  0  0  0  0
   -1.2550    0.3144    1.1994 C   0  0  0  0  0  0  0  0  0  0  0  0
    0.0684    0.2248    1.2322 N   0  0  0  0  0  0  0  0  0  0  0  0
    3.9105   -0.1974    1.0644 H   0  0  0  0  0  0  0  0  0  0  0  0
    1.5643    0.3678    2.7190 H   0  0  0  0  0  0  0  0  0  0  0  0
    0.1770   -1.1416    3.8834 H   0  0  0  0  0  0  0  0  0  0  0  0
    0.4053   -5.3543    3.0117 H   0  0  0  0  0  0  0  0  0  0  0  0
    2.5144   -4.9821    1.7806 H   0  0  0  0  0  0  0  0  0  0  0  0
    3.4447   -2.7166    1.5425 H   0  0  0  0  0  0  0  0  0  0  0  0
    5.6191   -0.2144    5.8620 H   0  0  0  0  0  0  0  0  0  0  0  0
    4.3633   -1.6695    4.1499 H   0  0  0  0  0  0  0  0  0  0  0  0
    0.6019    0.6088   -2.0719 H   0  0  0  0  0  0  0  0  0  0  0  0
   -1.7663    1.4440   -2.8285 H   0  0  0  0  0  0  0  0  0  0  0  0
   -3.8558    1.8162   -3.8277 H   0  0  0  0  0  0  0  0  0  0  0  0
   -6.2038    1.1207   -4.1051 H   0  0  0  0  0  0  0  0  0  0  0  0
   -7.0854   -0.8425   -2.8708 H   0  0  0  0  0  0  0  0  0  0  0  0
   -5.5903   -2.1229   -1.3541 H   0  0  0  0  0  0  0  0  0  0  0  0
   -3.2483   -1.4497   -1.0806 H   0  0  0  0  0  0  0  0  0  0  0  0
   -1.7887    0.2300    2.1384 H   0  0  0  0  0  0  0  0  0  0  0  0
  1  2  2  0  0  0  0
  2  3  1  0  0  0  0
  2 20  1  0  0  0  0
  3  4  1  0  0  0  0
  3 33  1  0  0  0  0
  4  5  1  0  0  0  0
  4 15  1  0  0  0  0
  4 34  1  0  0  0  0
  5  6  2  0  0  0  0
  5 14  1  0  0  0  0
  6  7  1  0  0  0  0
  6 35  1  0  0  0  0
  7  8  1  0  0  0  0
  7 12  2  0  0  0  0
  8  9  1  0  0  0  0
  8 10  1  0  0  0  0
  8 11  1  0  0  0  0
 12 13  1  0  0  0  0
 12 36  1  0  0  0  0
 13 14  2  0  0  0  0
 13 37  1  0  0  0  0
 14 38  1  0  0  0  0
 15 16  2  0  0  0  0
 15 19  1  0  0  0  0
 16 17  1  0  0  0  0
 17 18  2  0  0  0  0
 18 19  1  0  0  0  0
 18 39  1  0  0  0  0
 19 40  1  0  0  0  0
 20 21  2  0  0  0  0
 20 32  1  0  0  0  0
 21 22  1  0  0  0  0
 21 41  1  0  0  0  0
 22 23  1  0  0  0  0
 22 30  2  0  0  0  0
 23 24  1  0  0  0  0
 23 42  1  0  0  0  0
 24 25  2  0  0  0  0
 24 29  1  0  0  0  0
 25 26  1  0  0  0  0
 25 43  1  0  0  0  0
 26 27  2  0  0  0  0
 26 44  1  0  0  0  0
 27 28  1  0  0  0  0
 27 45  1  0  0  0  0
 28 29  2  0  0  0  0
 28 46  1  0  0  0  0
 29 47  1  0  0  0  0
 30 31  1  0  0  0  0
 31 32  2  0  0  0  0
 31 48  1  0  0  0  0
M  END
$$$$
