
 OpenBabel01122422523D

 50 53  0  0  0  0  0  0  0  0999 V2000
    1.0733    0.0847    0.5652 C   0  0  0  0  0  0  0  0  0  0  0  0
    2.4964    0.0619    0.5191 O   0  0  0  0  0  0  0  0  0  0  0  0
    3.0537   -1.0359    1.0899 C   0  0  0  0  0  0  0  0  0  0  0  0
    2.4445   -1.9703    1.5870 O   0  0  0  0  0  0  0  0  0  0  0  0
    4.5239   -0.9436    0.9981 C   0  0  0  0  0  0  0  0  0  0  0  0
    5.1566    0.3110    0.9939 C   0  0  0  0  0  0  0  0  0  0  0  0
    6.5403    0.4411    0.9422 C   0  0  0  0  0  0  0  0  0  0  0  0
    7.1727    1.7066    0.9853 N   0  0  0  0  0  0  0  0  0  0  0  0
    6.5535    2.9479    1.0916 C   0  0  0  0  0  0  0  0  0  0  0  0
    5.3441    3.1686    1.0909 O   0  0  0  0  0  0  0  0  0  0  0  0
    7.5242    4.1218    1.1550 C   0  0  0  0  0  0  0  0  0  0  0  0
    8.7326    3.7032    1.7734 O   0  0  0  0  0  0  0  0  0  0  0  0
    9.7044    4.6492    1.9378 C   0  0  0  0  0  0  0  0  0  0  0  0
    9.6356    5.9811    1.5230 C   0  0  0  0  0  0  0  0  0  0  0  0
   10.7394    6.8194    1.6944 C   0  0  0  0  0  0  0  0  0  0  0  0
   11.8992    6.3350    2.2922 C   0  0  0  0  0  0  0  0  0  0  0  0
   11.9425    5.0290    2.7868 C   0  0  0  0  0  0  0  0  0  0  0  0
   13.0438    4.5001    3.4232 O   0  0  0  0  0  0  0  0  0  0  0  0
   13.7331    5.3201    4.3132 C   0  0  0  0  0  0  0  0  0  0  0  0
   15.0577    4.9962    4.5657 C   0  0  0  0  0  0  0  0  0  0  0  0
   15.7765    5.8040    5.4444 C   0  0  0  0  0  0  0  0  0  0  0  0
   15.1526    6.9005    6.0316 C   0  0  0  0  0  0  0  0  0  0  0  0
   13.8246    7.1397    5.7255 C   0  0  0  0  0  0  0  0  0  0  0  0
   13.0985    6.3631    4.8976 N   0  0  0  0  0  0  0  0  0  0  0  0
   10.8551    4.1806    2.5794 C   0  0  0  0  0  0  0  0  0  0  0  0
    7.3384   -0.7141    0.8683 C   0  0  0  0  0  0  0  0  0  0  0  0
    6.7005   -1.9728    0.8784 C   0  0  0  0  0  0  0  0  0  0  0  0
    5.3115   -2.1118    0.9568 C   0  0  0  0  0  0  0  0  0  0  0  0
    5.0294   -3.5081    0.9697 C   0  0  0  0  0  0  0  0  0  0  0  0
    6.2265   -4.1810    0.8899 C   0  0  0  0  0  0  0  0  0  0  0  0
    7.2266   -3.2469    0.8255 N   0  0  0  0  0  0  0  0  0  0  0  0
    0.7309    0.9629    0.0111 H   0  0  0  0  0  0  0  0  0  0  0  0
    0.7309    0.1712    1.6009 H   0  0  0  0  0  0  0  0  0  0  0  0
    0.6556   -0.8088    0.0904 H   0  0  0  0  0  0  0  0  0  0  0  0
    4.5166    1.1826    1.0558 H   0  0  0  0  0  0  0  0  0  0  0  0
    8.1890    1.7209    1.0174 H   0  0  0  0  0  0  0  0  0  0  0  0
    7.0429    4.9083    1.7499 H   0  0  0  0  0  0  0  0  0  0  0  0
    7.6962    4.4625    0.1274 H   0  0  0  0  0  0  0  0  0  0  0  0
    8.7481    6.4021    1.0629 H   0  0  0  0  0  0  0  0  0  0  0  0
   10.6979    7.8562    1.3707 H   0  0  0  0  0  0  0  0  0  0  0  0
   12.7542    6.9951    2.4039 H   0  0  0  0  0  0  0  0  0  0  0  0
   15.5229    4.1440    4.0841 H   0  0  0  0  0  0  0  0  0  0  0  0
   16.8167    5.5842    5.6671 H   0  0  0  0  0  0  0  0  0  0  0  0
   15.6857    7.5535    6.7134 H   0  0  0  0  0  0  0  0  0  0  0  0
   13.2924    7.9889    6.1440 H   0  0  0  0  0  0  0  0  0  0  0  0
   10.8942    3.1544    2.9305 H   0  0  0  0  0  0  0  0  0  0  0  0
    8.4211   -0.6535    0.8144 H   0  0  0  0  0  0  0  0  0  0  0  0
    4.0495   -3.9654    1.0353 H   0  0  0  0  0  0  0  0  0  0  0  0
    6.4418   -5.2396    0.8762 H   0  0  0  0  0  0  0  0  0  0  0  0
    8.2112   -3.4647    0.7566 H   0  0  0  0  0  0  0  0  0  0  0  0
  1  2  1  0  0  0  0
  1 32  1  0  0  0  0
  1 33  1  0  0  0  0
  1 34  1  0  0  0  0
  2  3  1  0  0  0  0
  3  4  2  0  0  0  0
  3  5  1  0  0  0  0
  5  6  2  0  0  0  0
  5 28  1  0  0  0  0
  6  7  1  0  0  0  0
  6 35  1  0  0  0  0
  7  8  1  0  0  0  0
  7 26  2  0  0  0  0
  8  9  1  0  0  0  0
  8 36  1  0  0  0  0
  9 10  2  0  0  0  0
  9 11  1  0  0  0  0
 11 12  1  0  0  0  0
 11 37  1  0  0  0  0
 11 38  1  0  0  0  0
 12 13  1  0  0  0  0
 13 14  2  0  0  0  0
 13 25  1  0  0  0  0
 14 15  1  0  0  0  0
 14 39  1  0  0  0  0
 15 16  2  0  0  0  0
 15 40  1  0  0  0  0
 16 17  1  0  0  0  0
 16 41  1  0  0  0  0
 17 18  1  0  0  0  0
 17 25  2  0  0  0  0
 18 19  1  0  0  0  0
 19 20  2  0  0  0  0
 19 24  1  0  0  0  0
 20 21  1  0  0  0  0
 20 42  1  0  0  0  0
 21 22  2  0  0  0  0
 21 43  1  0  0  0  0
 22 23  1  0  0  0  0
 22 44  1  0  0  0  0
 23 24  2  0  0  0  0
 23 45  1  0  0  0  0
 25 46  1  0  0  0  0
 26 27  1  0  0  0  0
 26 47  1  0  0  0  0
 27 28  2  0  0  0  0
 27 31  1  0  0  0  0
 28 29  1  0  0  0  0
 29 30  2  0  0  0  0
 29 48  1  0  0  0  0
 30 31  1  0  0  0  0
 30 49  1  0  0  0  0
 31 50  1  0  0  0  0
M  END
$$$$
