
 OpenBabel01122422523D

 53 56  0  0  0  0  0  0  0  0999 V2000
    2.6061    1.1434   -0.0412 C   0  0  0  0  0  0  0  0  0  0  0  0
    2.1801   -0.1389   -0.4928 O   0  0  0  0  0  0  0  0  0  0  0  0
    2.9290   -1.2081   -0.0891 C   0  0  0  0  0  0  0  0  0  0  0  0
    4.0786   -1.1477    0.7020 C   0  0  0  0  0  0  0  0  0  0  0  0
    4.7552   -2.3215    1.0385 C   0  0  0  0  0  0  0  0  0  0  0  0
    4.2981   -3.5620    0.5770 C   0  0  0  0  0  0  0  0  0  0  0  0
    5.0620   -4.7782    0.9567 C   0  0  0  0  0  0  0  0  0  0  0  0
    5.6692   -4.7621    2.0215 O   0  0  0  0  0  0  0  0  0  0  0  0
    5.0723   -5.7994    0.0230 N   0  0  0  0  0  0  0  0  0  0  0  0
    5.6843   -7.0704    0.1740 C   0  0  0  0  0  0  0  0  0  0  0  0
    6.0683   -7.5385    1.4396 C   0  0  0  0  0  0  0  0  0  0  0  0
    6.6057   -8.8099    1.5943 C   0  0  0  0  0  0  0  0  0  0  0  0
    6.9574   -9.2328    2.8162 F   0  0  0  0  0  0  0  0  0  0  0  0
    6.7641   -9.6595    0.5103 C   0  0  0  0  0  0  0  0  0  0  0  0
    6.3882   -9.2178   -0.7562 C   0  0  0  0  0  0  0  0  0  0  0  0
    5.8625   -7.9235   -0.9406 C   0  0  0  0  0  0  0  0  0  0  0  0
    5.5012   -7.5561   -2.3439 C   0  0  0  0  0  0  0  0  0  0  0  0
    5.0934   -8.4177   -3.1141 O   0  0  0  0  0  0  0  0  0  0  0  0
    5.6702   -6.2352   -2.7009 N   0  0  0  0  0  0  0  0  0  0  0  0
    5.4687   -5.8146   -4.0765 C   0  0  0  0  0  0  0  0  0  0  0  0
    6.7686   -5.8781   -4.8029 C   0  0  0  0  0  0  0  0  0  0  0  0
    7.1089   -6.6053   -5.9249 C   0  0  0  0  0  0  0  0  0  0  0  0
    6.4442   -7.5205   -6.7889 C   0  0  0  0  0  0  0  0  0  0  0  0
    7.1208   -8.0712   -7.8158 C   0  0  0  0  0  0  0  0  0  0  0  0
    8.5174   -7.7529   -8.0608 C   0  0  0  0  0  0  0  0  0  0  0  0
    9.1434   -6.8897   -7.2458 C   0  0  0  0  0  0  0  0  0  0  0  0
    8.4440   -6.3152   -6.1785 N   0  0  0  0  0  0  0  0  0  0  0  0
    8.8433   -5.4181   -5.2015 C   0  0  0  0  0  0  0  0  0  0  0  0
   10.2122   -4.8491   -5.0927 C   0  0  0  0  0  0  0  0  0  0  0  0
    7.8534   -5.1421   -4.3679 N   0  0  0  0  0  0  0  0  0  0  0  0
    3.1331   -3.6276   -0.1935 C   0  0  0  0  0  0  0  0  0  0  0  0
    2.4605   -2.4498   -0.5265 C   0  0  0  0  0  0  0  0  0  0  0  0
    1.9047    1.8859   -0.4337 H   0  0  0  0  0  0  0  0  0  0  0  0
    3.6004    1.3851   -0.4287 H   0  0  0  0  0  0  0  0  0  0  0  0
    2.5798    1.2036    1.0508 H   0  0  0  0  0  0  0  0  0  0  0  0
    4.4745   -0.2090    1.0762 H   0  0  0  0  0  0  0  0  0  0  0  0
    5.6454   -2.2661    1.6640 H   0  0  0  0  0  0  0  0  0  0  0  0
    4.6882   -5.5995   -0.8976 H   0  0  0  0  0  0  0  0  0  0  0  0
    5.9343   -6.9524    2.3418 H   0  0  0  0  0  0  0  0  0  0  0  0
    7.1716  -10.6533    0.6596 H   0  0  0  0  0  0  0  0  0  0  0  0
    6.5081   -9.8859   -1.6089 H   0  0  0  0  0  0  0  0  0  0  0  0
    6.3762   -5.7065   -2.1995 H   0  0  0  0  0  0  0  0  0  0  0  0
    5.1084   -4.7841   -4.0546 H   0  0  0  0  0  0  0  0  0  0  0  0
    4.7058   -6.4370   -4.5555 H   0  0  0  0  0  0  0  0  0  0  0  0
    5.4049   -7.7766   -6.6076 H   0  0  0  0  0  0  0  0  0  0  0  0
    6.6360   -8.7770   -8.4812 H   0  0  0  0  0  0  0  0  0  0  0  0
    9.0234   -8.2280   -8.8952 H   0  0  0  0  0  0  0  0  0  0  0  0
   10.1833   -6.6219   -7.3799 H   0  0  0  0  0  0  0  0  0  0  0  0
   10.8904   -5.1941   -5.8756 H   0  0  0  0  0  0  0  0  0  0  0  0
   10.6493   -5.1224   -4.1277 H   0  0  0  0  0  0  0  0  0  0  0  0
   10.1664   -3.7573   -5.1483 H   0  0  0  0  0  0  0  0  0  0  0  0
    2.7197   -4.5802   -0.5161 H   0  0  0  0  0  0  0  0  0  0  0  0
    1.5508   -2.4990   -1.1253 H   0  0  0  0  0  0  0  0  0  0  0  0
  1  2  1  0  0  0  0
  1 33  1  0  0  0  0
  1 34  1  0  0  0  0
  1 35  1  0  0  0  0
  2  3  1  0  0  0  0
  3  4  2  0  0  0  0
  3 32  1  0  0  0  0
  4  5  1  0  0  0  0
  4 36  1  0  0  0  0
  5  6  2  0  0  0  0
  5 37  1  0  0  0  0
  6  7  1  0  0  0  0
  6 31  1  0  0  0  0
  7  8  2  0  0  0  0
  7  9  1  0  0  0  0
  9 10  1  0  0  0  0
  9 38  1  0  0  0  0
 10 11  2  0  0  0  0
 10 16  1  0  0  0  0
 11 12  1  0  0  0  0
 11 39  1  0  0  0  0
 12 13  1  0  0  0  0
 12 14  2  0  0  0  0
 14 15  1  0  0  0  0
 14 40  1  0  0  0  0
 15 16  2  0  0  0  0
 15 41  1  0  0  0  0
 16 17  1  0  0  0  0
 17 18  2  0  0  0  0
 17 19  1  0  0  0  0
 19 20  1  0  0  0  0
 19 42  1  0  0  0  0
 20 21  1  0  0  0  0
 20 43  1  0  0  0  0
 20 44  1  0  0  0  0
 21 22  2  0  0  0  0
 21 30  1  0  0  0  0
 22 23  1  0  0  0  0
 22 27  1  0  0  0  0
 23 24  2  0  0  0  0
 23 45  1  0  0  0  0
 24 25  1  0  0  0  0
 24 46  1  0  0  0  0
 25 26  2  0  0  0  0
 25 47  1  0  0  0  0
 26 27  1  0  0  0  0
 26 48  1  0  0  0  0
 27 28  1  0  0  0  0
 28 29  1  0  0  0  0
 28 30  2  0  0  0  0
 29 49  1  0  0  0  0
 29 50  1  0  0  0  0
 29 51  1  0  0  0  0
 31 32  2  0  0  0  0
 31 52  1  0  0  0  0
 32 53  1  0  0  0  0
M  END
$$$$
