
 OpenBabel01122422523D

 45 48  0  0  0  0  0  0  0  0999 V2000
    0.6891    3.1198   -6.7451 N   0  0  0  0  0  0  0  0  0  0  0  0
    1.6091    2.9119   -6.0692 C   0  0  0  0  0  0  0  0  0  0  0  0
    2.7262    2.6723   -5.1990 C   0  0  0  0  0  0  0  0  0  0  0  0
    2.7078    3.1526   -3.8825 C   0  0  0  0  0  0  0  0  0  0  0  0
    3.7905    2.8918   -3.0295 C   0  0  0  0  0  0  0  0  0  0  0  0
    3.7885    3.3249   -1.6049 C   0  0  0  0  0  0  0  0  0  0  0  0
    4.4059    2.6698   -0.7722 O   0  0  0  0  0  0  0  0  0  0  0  0
    3.0933    4.4732   -1.3017 N   0  0  0  0  0  0  0  0  0  0  0  0
    3.0917    4.9722    0.0559 C   0  0  0  0  0  0  0  0  0  0  0  0
    2.2935    6.2404    0.1746 C   0  0  0  0  0  0  0  0  0  0  0  0
    0.9059    6.2133    0.3420 C   0  0  0  0  0  0  0  0  0  0  0  0
    0.1659    7.4061    0.3693 C   0  0  0  0  0  0  0  0  0  0  0  0
    0.7848    8.6658    0.2539 C   0  0  0  0  0  0  0  0  0  0  0  0
   -0.0054    9.9363    0.2425 C   0  0  0  0  0  0  0  0  0  0  0  0
   -1.1251   10.0487    1.1021 C   0  0  0  0  0  0  0  0  0  0  0  0
   -1.8794   11.2213    1.1991 C   0  0  0  0  0  0  0  0  0  0  0  0
   -1.5178   12.3375    0.4625 C   0  0  0  0  0  0  0  0  0  0  0  0
   -0.4365   12.2622   -0.4127 C   0  0  0  0  0  0  0  0  0  0  0  0
    0.3066   11.0688   -0.5665 C   0  0  0  0  0  0  0  0  0  0  0  0
    1.3390   11.0410   -1.6091 C   0  0  0  0  0  0  0  0  0  0  0  0
    1.6658   10.0445   -2.4122 N   0  0  0  0  0  0  0  0  0  0  0  0
    2.7326   10.4716   -3.1623 N   0  0  0  0  0  0  0  0  0  0  0  0
    3.0494   11.7214   -2.8637 N   0  0  0  0  0  0  0  0  0  0  0  0
    2.1733   12.0831   -1.9184 N   0  0  0  0  0  0  0  0  0  0  0  0
    2.1881    8.6646    0.1640 C   0  0  0  0  0  0  0  0  0  0  0  0
    2.9267    7.4798    0.0796 C   0  0  0  0  0  0  0  0  0  0  0  0
    4.8805    2.1442   -3.4976 C   0  0  0  0  0  0  0  0  0  0  0  0
    4.9001    1.6755   -4.8124 C   0  0  0  0  0  0  0  0  0  0  0  0
    3.8199    1.9412   -5.6534 C   0  0  0  0  0  0  0  0  0  0  0  0
    3.8549    1.4695   -6.9076 F   0  0  0  0  0  0  0  0  0  0  0  0
    1.8361    3.6921   -3.5184 H   0  0  0  0  0  0  0  0  0  0  0  0
    2.8153    5.1135   -2.0369 H   0  0  0  0  0  0  0  0  0  0  0  0
    4.1327    5.1419    0.3631 H   0  0  0  0  0  0  0  0  0  0  0  0
    2.6902    4.1969    0.7157 H   0  0  0  0  0  0  0  0  0  0  0  0
    0.3847    5.2629    0.4364 H   0  0  0  0  0  0  0  0  0  0  0  0
   -0.9150    7.3284    0.4663 H   0  0  0  0  0  0  0  0  0  0  0  0
   -1.4251    9.2090    1.7273 H   0  0  0  0  0  0  0  0  0  0  0  0
   -2.7444   11.2585    1.8572 H   0  0  0  0  0  0  0  0  0  0  0  0
   -2.0900   13.2581    0.5495 H   0  0  0  0  0  0  0  0  0  0  0  0
   -0.2095   13.1455   -1.0058 H   0  0  0  0  0  0  0  0  0  0  0  0
    2.2174   13.0154   -1.5300 H   0  0  0  0  0  0  0  0  0  0  0  0
    2.7424    9.5983    0.1147 H   0  0  0  0  0  0  0  0  0  0  0  0
    4.0025    7.5411   -0.0720 H   0  0  0  0  0  0  0  0  0  0  0  0
    5.7160    1.9202   -2.8339 H   0  0  0  0  0  0  0  0  0  0  0  0
    5.7414    1.0954   -5.1810 H   0  0  0  0  0  0  0  0  0  0  0  0
  1  2  3  0  0  0  0
  2  3  1  0  0  0  0
  3  4  2  0  0  0  0
  3 29  1  0  0  0  0
  4  5  1  0  0  0  0
  4 31  1  0  0  0  0
  5  6  1  0  0  0  0
  5 27  2  0  0  0  0
  6  7  2  0  0  0  0
  6  8  1  0  0  0  0
  8  9  1  0  0  0  0
  8 32  1  0  0  0  0
  9 10  1  0  0  0  0
  9 33  1  0  0  0  0
  9 34  1  0  0  0  0
 10 11  2  0  0  0  0
 10 26  1  0  0  0  0
 11 12  1  0  0  0  0
 11 35  1  0  0  0  0
 12 13  2  0  0  0  0
 12 36  1  0  0  0  0
 13 14  1  0  0  0  0
 13 25  1  0  0  0  0
 14 15  2  0  0  0  0
 14 19  1  0  0  0  0
 15 16  1  0  0  0  0
 15 37  1  0  0  0  0
 16 17  2  0  0  0  0
 16 38  1  0  0  0  0
 17 18  1  0  0  0  0
 17 39  1  0  0  0  0
 18 19  2  0  0  0  0
 18 40  1  0  0  0  0
 19 20  1  0  0  0  0
 20 21  2  0  0  0  0
 20 24  1  0  0  0  0
 21 22  1  0  0  0  0
 22 23  2  0  0  0  0
 23 24  1  0  0  0  0
 24 41  1  0  0  0  0
 25 26  2  0  0  0  0
 25 42  1  0  0  0  0
 26 43  1  0  0  0  0
 27 28  1  0  0  0  0
 27 44  1  0  0  0  0
 28 29  2  0  0  0  0
 28 45  1  0  0  0  0
 29 30  1  0  0  0  0
M  END
$$$$
