
 OpenBabel01122422523D

 42 45  0  0  0  0  0  0  0  0999 V2000
    1.0907   -0.4965    0.4977 O   0  0  0  0  0  0  0  0  0  0  0  0
    2.2387   -0.1728    0.1937 C   0  0  0  0  0  0  0  0  0  0  0  0
    2.8599    1.0042    0.5610 N   0  0  0  0  0  0  0  0  0  0  0  0
    2.3089    2.0170    1.3806 C   0  0  0  0  0  0  0  0  0  0  0  0
    1.1722    1.8173    2.1722 C   0  0  0  0  0  0  0  0  0  0  0  0
    0.6635    2.8094    3.0290 C   0  0  0  0  0  0  0  0  0  0  0  0
   -0.4298    2.5149    3.9856 C   0  0  0  0  0  0  0  0  0  0  0  0
   -0.5416    1.2435    4.5820 C   0  0  0  0  0  0  0  0  0  0  0  0
   -1.5013    0.9733    5.5592 C   0  0  0  0  0  0  0  0  0  0  0  0
   -2.3715    1.9747    5.9696 C   0  0  0  0  0  0  0  0  0  0  0  0
   -2.2987    3.2364    5.3856 C   0  0  0  0  0  0  0  0  0  0  0  0
   -1.3458    3.4981    4.3962 C   0  0  0  0  0  0  0  0  0  0  0  0
    1.2987    4.0588    3.0104 C   0  0  0  0  0  0  0  0  0  0  0  0
    2.4407    4.2949    2.2277 C   0  0  0  0  0  0  0  0  0  0  0  0
    3.1314    5.6340    2.2856 C   0  0  0  0  0  0  0  0  0  0  0  0
    2.5335    6.5193    3.1328 F   0  0  0  0  0  0  0  0  0  0  0  0
    4.4219    5.5329    2.7074 F   0  0  0  0  0  0  0  0  0  0  0  0
    3.1786    6.2544    1.0750 F   0  0  0  0  0  0  0  0  0  0  0  0
    2.9507    3.2571    1.4284 C   0  0  0  0  0  0  0  0  0  0  0  0
    3.0332   -1.0865   -0.6813 C   0  0  0  0  0  0  0  0  0  0  0  0
    2.3785   -2.1575   -1.1787 C   0  0  0  0  0  0  0  0  0  0  0  0
    3.0203   -3.0542   -2.0001 N   0  0  0  0  0  0  0  0  0  0  0  0
    4.3496   -2.9657   -2.3695 C   0  0  0  0  0  0  0  0  0  0  0  0
    4.8640   -3.8052   -3.1004 O   0  0  0  0  0  0  0  0  0  0  0  0
    5.0387   -1.8273   -1.8214 C   0  0  0  0  0  0  0  0  0  0  0  0
    6.3454   -1.4151   -1.9286 C   0  0  0  0  0  0  0  0  0  0  0  0
    6.4020   -0.2374   -1.1722 C   0  0  0  0  0  0  0  0  0  0  0  0
    5.2239    0.0917   -0.6344 N   0  0  0  0  0  0  0  0  0  0  0  0
    4.3777   -0.9162   -1.0121 N   0  0  0  0  0  0  0  0  0  0  0  0
    3.7959    1.1738    0.1872 H   0  0  0  0  0  0  0  0  0  0  0  0
    0.6780    0.8515    2.1724 H   0  0  0  0  0  0  0  0  0  0  0  0
    0.1442    0.4423    4.3125 H   0  0  0  0  0  0  0  0  0  0  0  0
   -1.5518   -0.0152    6.0076 H   0  0  0  0  0  0  0  0  0  0  0  0
   -3.1028    1.7753    6.7484 H   0  0  0  0  0  0  0  0  0  0  0  0
   -2.9763    4.0237    5.7058 H   0  0  0  0  0  0  0  0  0  0  0  0
   -1.3260    4.4933    3.9561 H   0  0  0  0  0  0  0  0  0  0  0  0
    0.9341    4.8579    3.6553 H   0  0  0  0  0  0  0  0  0  0  0  0
    3.8455    3.4361    0.8342 H   0  0  0  0  0  0  0  0  0  0  0  0
    1.3315   -2.3619   -0.9783 H   0  0  0  0  0  0  0  0  0  0  0  0
    2.5132   -3.8519   -2.3754 H   0  0  0  0  0  0  0  0  0  0  0  0
    7.1369   -1.9095   -2.4759 H   0  0  0  0  0  0  0  0  0  0  0  0
    7.2602    0.3992   -0.9926 H   0  0  0  0  0  0  0  0  0  0  0  0
  1  2  2  0  0  0  0
  2  3  1  0  0  0  0
  2 20  1  0  0  0  0
  3  4  1  0  0  0  0
  3 30  1  0  0  0  0
  4  5  2  0  0  0  0
  4 19  1  0  0  0  0
  5  6  1  0  0  0  0
  5 31  1  0  0  0  0
  6  7  1  0  0  0  0
  6 13  2  0  0  0  0
  7  8  2  0  0  0  0
  7 12  1  0  0  0  0
  8  9  1  0  0  0  0
  8 32  1  0  0  0  0
  9 10  2  0  0  0  0
  9 33  1  0  0  0  0
 10 11  1  0  0  0  0
 10 34  1  0  0  0  0
 11 12  2  0  0  0  0
 11 35  1  0  0  0  0
 12 36  1  0  0  0  0
 13 14  1  0  0  0  0
 13 37  1  0  0  0  0
 14 15  1  0  0  0  0
 14 19  2  0  0  0  0
 15 16  1  0  0  0  0
 15 17  1  0  0  0  0
 15 18  1  0  0  0  0
 19 38  1  0  0  0  0
 20 21  2  0  0  0  0
 20 29  1  0  0  0  0
 21 22  1  0  0  0  0
 21 39  1  0  0  0  0
 22 23  1  0  0  0  0
 22 40  1  0  0  0  0
 23 24  2  0  0  0  0
 23 25  1  0  0  0  0
 25 26  2  0  0  0  0
 25 29  1  0  0  0  0
 26 27  1  0  0  0  0
 26 41  1  0  0  0  0
 27 28  2  0  0  0  0
 27 42  1  0  0  0  0
 28 29  1  0  0  0  0
M  END
$$$$
