
 OpenBabel01122422523D

 56 58  0  0  0  0  0  0  0  0999 V2000
    1.1174    0.1286   -0.0746 C   0  0  0  0  0  0  0  0  0  0  0  0
    2.5792    0.1118   -0.1583 N   0  0  0  0  0  0  0  0  0  0  0  0
    3.2708   -0.8090   -1.0915 C   0  0  0  0  0  0  0  0  0  0  0  0
    2.3440   -1.6423   -1.9909 C   0  0  0  0  0  0  0  0  0  0  0  0
    3.0487   -2.4999   -2.8932 O   0  0  0  0  0  0  0  0  0  0  0  0
    2.2147   -3.2689   -3.6773 C   0  0  0  0  0  0  0  0  0  0  0  0
    0.9196   -2.9048   -4.0679 C   0  0  0  0  0  0  0  0  0  0  0  0
    0.1432   -3.7591   -4.8516 C   0  0  0  0  0  0  0  0  0  0  0  0
    0.6576   -4.9837   -5.2656 C   0  0  0  0  0  0  0  0  0  0  0  0
    1.9604   -5.3468   -4.9061 C   0  0  0  0  0  0  0  0  0  0  0  0
    2.4933   -6.6011   -5.3464 C   0  0  0  0  0  0  0  0  0  0  0  0
    2.9114   -7.6219   -5.7106 N   0  0  0  0  0  0  0  0  0  0  0  0
    2.7382   -4.4869   -4.1175 C   0  0  0  0  0  0  0  0  0  0  0  0
    3.1886    0.9427    0.7826 C   0  0  0  0  0  0  0  0  0  0  0  0
    2.4869    1.6060    1.5459 O   0  0  0  0  0  0  0  0  0  0  0  0
    4.5651    0.9712    0.7929 N   0  0  0  0  0  0  0  0  0  0  0  0
    5.3436    1.6868    1.7451 C   0  0  0  0  0  0  0  0  0  0  0  0
    4.8269    2.1204    2.9740 C   0  0  0  0  0  0  0  0  0  0  0  0
    5.5988    2.8604    3.8765 C   0  0  0  0  0  0  0  0  0  0  0  0
    6.9213    3.1730    3.5690 C   0  0  0  0  0  0  0  0  0  0  0  0
    7.7766    3.9477    4.5147 C   0  0  0  0  0  0  0  0  0  0  0  0
    8.9893    3.7729    4.5175 O   0  0  0  0  0  0  0  0  0  0  0  0
    7.1308    4.8465    5.3387 N   0  0  0  0  0  0  0  0  0  0  0  0
    7.8468    5.6912    6.2762 C   0  0  0  0  0  0  0  0  0  0  0  0
    7.3677    5.4981    7.6910 C   0  0  0  0  0  0  0  0  0  0  0  0
    7.4288    4.2374    8.3039 C   0  0  0  0  0  0  0  0  0  0  0  0
    7.0436    4.0738    9.6384 C   0  0  0  0  0  0  0  0  0  0  0  0
    6.5986    5.1687   10.3786 C   0  0  0  0  0  0  0  0  0  0  0  0
    6.5329    6.4260    9.7822 C   0  0  0  0  0  0  0  0  0  0  0  0
    6.9172    6.5813    8.4504 C   0  0  0  0  0  0  0  0  0  0  0  0
    6.8519    7.8032    7.9042 F   0  0  0  0  0  0  0  0  0  0  0  0
    7.4681    2.7027    2.3664 C   0  0  0  0  0  0  0  0  0  0  0  0
    6.6848    1.9639    1.4605 C   0  0  0  0  0  0  0  0  0  0  0  0
    0.6142   -0.4751   -0.8264 H   0  0  0  0  0  0  0  0  0  0  0  0
    0.7710    1.1607   -0.1979 H   0  0  0  0  0  0  0  0  0  0  0  0
    0.8145   -0.2292    0.9154 H   0  0  0  0  0  0  0  0  0  0  0  0
    3.9325   -1.4625   -0.5114 H   0  0  0  0  0  0  0  0  0  0  0  0
    3.9261   -0.1995   -1.7260 H   0  0  0  0  0  0  0  0  0  0  0  0
    1.7489   -0.9277   -2.5683 H   0  0  0  0  0  0  0  0  0  0  0  0
    1.6968   -2.2647   -1.3591 H   0  0  0  0  0  0  0  0  0  0  0  0
    0.4787   -1.9528   -3.7927 H   0  0  0  0  0  0  0  0  0  0  0  0
   -0.8653   -3.4646   -5.1399 H   0  0  0  0  0  0  0  0  0  0  0  0
    0.0421   -5.6452   -5.8730 H   0  0  0  0  0  0  0  0  0  0  0  0
    3.7489   -4.7705   -3.8321 H   0  0  0  0  0  0  0  0  0  0  0  0
    5.0402    0.6572   -0.0386 H   0  0  0  0  0  0  0  0  0  0  0  0
    3.8122    1.8823    3.2782 H   0  0  0  0  0  0  0  0  0  0  0  0
    5.1494    3.1520    4.8211 H   0  0  0  0  0  0  0  0  0  0  0  0
    6.1546    5.0597    5.1866 H   0  0  0  0  0  0  0  0  0  0  0  0
    7.6875    6.7229    5.9438 H   0  0  0  0  0  0  0  0  0  0  0  0
    8.9245    5.4978    6.2346 H   0  0  0  0  0  0  0  0  0  0  0  0
    7.7934    3.3777    7.7439 H   0  0  0  0  0  0  0  0  0  0  0  0
    7.1027    3.0921   10.1020 H   0  0  0  0  0  0  0  0  0  0  0  0
    6.3119    5.0429   11.4193 H   0  0  0  0  0  0  0  0  0  0  0  0
    6.1951    7.2890   10.3470 H   0  0  0  0  0  0  0  0  0  0  0  0
    8.5084    2.9180    2.1275 H   0  0  0  0  0  0  0  0  0  0  0  0
    7.1405    1.6336    0.5304 H   0  0  0  0  0  0  0  0  0  0  0  0
  1  2  1  0  0  0  0
  1 34  1  0  0  0  0
  1 35  1  0  0  0  0
  1 36  1  0  0  0  0
  2  3  1  0  0  0  0
  2 14  1  0  0  0  0
  3  4  1  0  0  0  0
  3 37  1  0  0  0  0
  3 38  1  0  0  0  0
  4  5  1  0  0  0  0
  4 39  1  0  0  0  0
  4 40  1  0  0  0  0
  5  6  1  0  0  0  0
  6  7  2  0  0  0  0
  6 13  1  0  0  0  0
  7  8  1  0  0  0  0
  7 41  1  0  0  0  0
  8  9  2  0  0  0  0
  8 42  1  0  0  0  0
  9 10  1  0  0  0  0
  9 43  1  0  0  0  0
 10 11  1  0  0  0  0
 10 13  2  0  0  0  0
 11 12  3  0  0  0  0
 13 44  1  0  0  0  0
 14 15  2  0  0  0  0
 14 16  1  0  0  0  0
 16 17  1  0  0  0  0
 16 45  1  0  0  0  0
 17 18  2  0  0  0  0
 17 33  1  0  0  0  0
 18 19  1  0  0  0  0
 18 46  1  0  0  0  0
 19 20  2  0  0  0  0
 19 47  1  0  0  0  0
 20 21  1  0  0  0  0
 20 32  1  0  0  0  0
 21 22  2  0  0  0  0
 21 23  1  0  0  0  0
 23 24  1  0  0  0  0
 23 48  1  0  0  0  0
 24 25  1  0  0  0  0
 24 49  1  0  0  0  0
 24 50  1  0  0  0  0
 25 26  2  0  0  0  0
 25 30  1  0  0  0  0
 26 27  1  0  0  0  0
 26 51  1  0  0  0  0
 27 28  2  0  0  0  0
 27 52  1  0  0  0  0
 28 29  1  0  0  0  0
 28 53  1  0  0  0  0
 29 30  2  0  0  0  0
 29 54  1  0  0  0  0
 30 31  1  0  0  0  0
 32 33  2  0  0  0  0
 32 55  1  0  0  0  0
 33 56  1  0  0  0  0
M  END
$$$$
