
 OpenBabel01122422523D

 46 49  0  0  0  0  0  0  0  0999 V2000
    6.6414    3.0211    2.2904 N   0  0  0  0  0  0  0  0  0  0  0  0
    6.1224    2.0779    1.6338 C   0  0  0  0  0  0  0  0  0  0  0  0
    5.4967    0.9410    0.8424 C   0  0  0  0  0  0  0  0  0  0  0  0
    4.3162    1.1562    0.2012 C   0  0  0  0  0  0  0  0  0  0  0  0
    3.6138    2.3774    0.2606 N   0  0  0  0  0  0  0  0  0  0  0  0
    2.3234    2.6420   -0.2039 C   0  0  0  0  0  0  0  0  0  0  0  0
    1.5507    1.7780   -0.6043 O   0  0  0  0  0  0  0  0  0  0  0  0
    2.0118    4.0041   -0.1930 N   0  0  0  0  0  0  0  0  0  0  0  0
    0.7458    4.4746   -0.6522 C   0  0  0  0  0  0  0  0  0  0  0  0
   -0.4425    3.7939   -0.3667 C   0  0  0  0  0  0  0  0  0  0  0  0
   -1.6608    4.1854   -0.9489 C   0  0  0  0  0  0  0  0  0  0  0  0
   -1.7174    5.2651   -1.8387 C   0  0  0  0  0  0  0  0  0  0  0  0
   -2.9409    5.6021   -2.5662 C   0  0  0  0  0  0  0  0  0  0  0  0
   -4.1636    4.9698   -2.4690 C   0  0  0  0  0  0  0  0  0  0  0  0
   -4.9707    5.5877   -3.3874 N   0  0  0  0  0  0  0  0  0  0  0  0
   -4.2229    6.5513   -4.0014 C   0  0  0  0  0  0  0  0  0  0  0  0
   -3.0030    6.5936   -3.5250 N   0  0  0  0  0  0  0  0  0  0  0  0
   -0.5428    5.9971   -2.0509 C   0  0  0  0  0  0  0  0  0  0  0  0
    0.6773    5.6225   -1.4449 C   0  0  0  0  0  0  0  0  0  0  0  0
    3.8182    0.0780   -0.6336 C   0  0  0  0  0  0  0  0  0  0  0  0
    4.4950   -1.0660   -0.7699 C   0  0  0  0  0  0  0  0  0  0  0  0
    5.7134   -1.2787   -0.1482 N   0  0  0  0  0  0  0  0  0  0  0  0
    6.4104   -2.5102   -0.3141 C   0  0  0  0  0  0  0  0  0  0  0  0
    5.7368   -3.7235   -0.1466 C   0  0  0  0  0  0  0  0  0  0  0  0
    6.4430   -4.9247   -0.1905 C   0  0  0  0  0  0  0  0  0  0  0  0
    7.8139   -4.9215   -0.4499 C   0  0  0  0  0  0  0  0  0  0  0  0
    8.4818   -3.7189   -0.6715 C   0  0  0  0  0  0  0  0  0  0  0  0
    7.7833   -2.5163   -0.5946 C   0  0  0  0  0  0  0  0  0  0  0  0
    6.2788   -0.3070    0.6912 C   0  0  0  0  0  0  0  0  0  0  0  0
    7.3349   -0.4211    1.3131 O   0  0  0  0  0  0  0  0  0  0  0  0
    4.0009    3.1212    0.8306 H   0  0  0  0  0  0  0  0  0  0  0  0
    2.7888    4.6352   -0.3347 H   0  0  0  0  0  0  0  0  0  0  0  0
   -0.4406    2.9322    0.2957 H   0  0  0  0  0  0  0  0  0  0  0  0
   -2.5438    3.5988   -0.7205 H   0  0  0  0  0  0  0  0  0  0  0  0
   -4.5267    4.1518   -1.8658 H   0  0  0  0  0  0  0  0  0  0  0  0
   -5.9360    5.3666   -3.5912 H   0  0  0  0  0  0  0  0  0  0  0  0
   -4.6258    7.1803   -4.7878 H   0  0  0  0  0  0  0  0  0  0  0  0
   -0.5541    6.8470   -2.7333 H   0  0  0  0  0  0  0  0  0  0  0  0
    1.5664    6.1996   -1.6785 H   0  0  0  0  0  0  0  0  0  0  0  0
    2.9045    0.1885   -1.2062 H   0  0  0  0  0  0  0  0  0  0  0  0
    4.1228   -1.8469   -1.4303 H   0  0  0  0  0  0  0  0  0  0  0  0
    4.6763   -3.7434    0.0990 H   0  0  0  0  0  0  0  0  0  0  0  0
    5.9297   -5.8616    0.0061 H   0  0  0  0  0  0  0  0  0  0  0  0
    8.3649   -5.8566   -0.4665 H   0  0  0  0  0  0  0  0  0  0  0  0
    9.5472   -3.7120   -0.8831 H   0  0  0  0  0  0  0  0  0  0  0  0
    8.3193   -1.5839   -0.7597 H   0  0  0  0  0  0  0  0  0  0  0  0
  1  2  3  0  0  0  0
  2  3  1  0  0  0  0
  3  4  2  0  0  0  0
  3 29  1  0  0  0  0
  4  5  1  0  0  0  0
  4 20  1  0  0  0  0
  5  6  1  0  0  0  0
  5 31  1  0  0  0  0
  6  7  2  0  0  0  0
  6  8  1  0  0  0  0
  8  9  1  0  0  0  0
  8 32  1  0  0  0  0
  9 10  2  0  0  0  0
  9 19  1  0  0  0  0
 10 11  1  0  0  0  0
 10 33  1  0  0  0  0
 11 12  2  0  0  0  0
 11 34  1  0  0  0  0
 12 13  1  0  0  0  0
 12 18  1  0  0  0  0
 13 14  2  0  0  0  0
 13 17  1  0  0  0  0
 14 15  1  0  0  0  0
 14 35  1  0  0  0  0
 15 16  1  0  0  0  0
 15 36  1  0  0  0  0
 16 17  2  0  0  0  0
 16 37  1  0  0  0  0
 18 19  2  0  0  0  0
 18 38  1  0  0  0  0
 19 39  1  0  0  0  0
 20 21  2  0  0  0  0
 20 40  1  0  0  0  0
 21 22  1  0  0  0  0
 21 41  1  0  0  0  0
 22 23  1  0  0  0  0
 22 29  1  0  0  0  0
 23 24  2  0  0  0  0
 23 28  1  0  0  0  0
 24 25  1  0  0  0  0
 24 42  1  0  0  0  0
 25 26  2  0  0  0  0
 25 43  1  0  0  0  0
 26 27  1  0  0  0  0
 26 44  1  0  0  0  0
 27 28  2  0  0  0  0
 27 45  1  0  0  0  0
 28 46  1  0  0  0  0
 29 30  2  0  0  0  0
M  END
$$$$
