
 OpenBabel01122422523D

 48 51  0  0  0  0  0  0  0  0999 V2000
    2.4933   -0.0965   -1.0593 O   0  0  0  0  0  0  0  0  0  0  0  0
    2.1179    0.1835    0.0773 C   0  0  0  0  0  0  0  0  0  0  0  0
    0.6393    0.1374    0.4096 C   0  0  0  0  0  0  0  0  0  0  0  0
   -0.0815    1.4596    0.2800 C   0  0  0  0  0  0  0  0  0  0  0  0
   -1.2279    1.6872    1.0532 C   0  0  0  0  0  0  0  0  0  0  0  0
   -1.9565    2.8724    0.9225 C   0  0  0  0  0  0  0  0  0  0  0  0
   -1.5638    3.8566    0.0030 C   0  0  0  0  0  0  0  0  0  0  0  0
   -2.2764    5.0511   -0.1506 C   0  0  0  0  0  0  0  0  0  0  0  0
   -1.8357    5.9750   -1.0852 C   0  0  0  0  0  0  0  0  0  0  0  0
   -0.7518    5.7967   -1.8664 N   0  0  0  0  0  0  0  0  0  0  0  0
   -0.0764    4.6334   -1.7058 C   0  0  0  0  0  0  0  0  0  0  0  0
   -0.4269    3.6321   -0.7956 C   0  0  0  0  0  0  0  0  0  0  0  0
    0.2988    2.4323   -0.6585 C   0  0  0  0  0  0  0  0  0  0  0  0
    2.9345    0.5314    1.1471 N   0  0  0  0  0  0  0  0  0  0  0  0
    4.3321    0.7367    1.0670 C   0  0  0  0  0  0  0  0  0  0  0  0
    4.9748    1.0020   -0.1429 C   0  0  0  0  0  0  0  0  0  0  0  0
    6.3616    1.1515   -0.2287 C   0  0  0  0  0  0  0  0  0  0  0  0
    7.0212    1.4120   -1.4515 N   0  0  0  0  0  0  0  0  0  0  0  0
    6.4060    1.8861   -2.5938 C   0  0  0  0  0  0  0  0  0  0  0  0
    5.2514    2.3040   -2.6774 O   0  0  0  0  0  0  0  0  0  0  0  0
    7.2634    2.0114   -3.8249 C   0  0  0  0  0  0  0  0  0  0  0  0
    8.4165    1.3612   -4.0548 C   0  0  0  0  0  0  0  0  0  0  0  0
    9.1086    1.5562   -5.3140 C   0  0  0  0  0  0  0  0  0  0  0  0
    8.6026    2.3563   -6.2650 C   0  0  0  0  0  0  0  0  0  0  0  0
    7.3162    3.0555   -6.0267 C   0  0  0  0  0  0  0  0  0  0  0  0
    6.8228    3.7809   -6.8807 O   0  0  0  0  0  0  0  0  0  0  0  0
    6.7424    2.8301   -4.8073 N   0  0  0  0  0  0  0  0  0  0  0  0
    7.1215    1.0122    0.9357 C   0  0  0  0  0  0  0  0  0  0  0  0
    6.4874    0.8017    2.1658 C   0  0  0  0  0  0  0  0  0  0  0  0
    5.0943    0.6824    2.2353 C   0  0  0  0  0  0  0  0  0  0  0  0
    0.5225   -0.2676    1.4217 H   0  0  0  0  0  0  0  0  0  0  0  0
    0.1698   -0.5814   -0.2742 H   0  0  0  0  0  0  0  0  0  0  0  0
   -1.5732    0.9343    1.7591 H   0  0  0  0  0  0  0  0  0  0  0  0
   -2.8442    3.0145    1.5352 H   0  0  0  0  0  0  0  0  0  0  0  0
   -3.1610    5.2638    0.4396 H   0  0  0  0  0  0  0  0  0  0  0  0
   -2.3630    6.9129   -1.2338 H   0  0  0  0  0  0  0  0  0  0  0  0
    0.7889    4.5234   -2.3556 H   0  0  0  0  0  0  0  0  0  0  0  0
    1.1608    2.2643   -1.3048 H   0  0  0  0  0  0  0  0  0  0  0  0
    2.5246    0.5238    2.0716 H   0  0  0  0  0  0  0  0  0  0  0  0
    4.3784    1.0903   -1.0419 H   0  0  0  0  0  0  0  0  0  0  0  0
    8.0287    1.3502   -1.4423 H   0  0  0  0  0  0  0  0  0  0  0  0
    8.8512    0.6593   -3.3531 H   0  0  0  0  0  0  0  0  0  0  0  0
   10.0434    1.0294   -5.4761 H   0  0  0  0  0  0  0  0  0  0  0  0
    9.0779    2.5224   -7.2216 H   0  0  0  0  0  0  0  0  0  0  0  0
    5.8399    3.2619   -4.6228 H   0  0  0  0  0  0  0  0  0  0  0  0
    8.2039    1.0994    0.9112 H   0  0  0  0  0  0  0  0  0  0  0  0
    7.0812    0.7267    3.0737 H   0  0  0  0  0  0  0  0  0  0  0  0
    4.6290    0.5074    3.2016 H   0  0  0  0  0  0  0  0  0  0  0  0
  1  2  2  0  0  0  0
  2  3  1  0  0  0  0
  2 14  1  0  0  0  0
  3  4  1  0  0  0  0
  3 31  1  0  0  0  0
  3 32  1  0  0  0  0
  4  5  2  0  0  0  0
  4 13  1  0  0  0  0
  5  6  1  0  0  0  0
  5 33  1  0  0  0  0
  6  7  2  0  0  0  0
  6 34  1  0  0  0  0
  7  8  1  0  0  0  0
  7 12  1  0  0  0  0
  8  9  2  0  0  0  0
  8 35  1  0  0  0  0
  9 10  1  0  0  0  0
  9 36  1  0  0  0  0
 10 11  2  0  0  0  0
 11 12  1  0  0  0  0
 11 37  1  0  0  0  0
 12 13  2  0  0  0  0
 13 38  1  0  0  0  0
 14 15  1  0  0  0  0
 14 39  1  0  0  0  0
 15 16  2  0  0  0  0
 15 30  1  0  0  0  0
 16 17  1  0  0  0  0
 16 40  1  0  0  0  0
 17 18  1  0  0  0  0
 17 28  2  0  0  0  0
 18 19  1  0  0  0  0
 18 41  1  0  0  0  0
 19 20  2  0  0  0  0
 19 21  1  0  0  0  0
 21 22  2  0  0  0  0
 21 27  1  0  0  0  0
 22 23  1  0  0  0  0
 22 42  1  0  0  0  0
 23 24  2  0  0  0  0
 23 43  1  0  0  0  0
 24 25  1  0  0  0  0
 24 44  1  0  0  0  0
 25 26  2  0  0  0  0
 25 27  1  0  0  0  0
 27 45  1  0  0  0  0
 28 29  1  0  0  0  0
 28 46  1  0  0  0  0
 29 30  2  0  0  0  0
 29 47  1  0  0  0  0
 30 48  1  0  0  0  0
M  END
$$$$
