
 OpenBabel01122422523D

 45 48  0  0  0  0  0  0  0  0999 V2000
    2.7770    0.1415    1.1295 O   0  0  0  0  0  0  0  0  0  0  0  0
    2.3253   -0.1640    0.0318 C   0  0  0  0  0  0  0  0  0  0  0  0
    0.9849   -0.3973   -0.2210 N   0  0  0  0  0  0  0  0  0  0  0  0
   -0.0357   -0.4052    0.7546 C   0  0  0  0  0  0  0  0  0  0  0  0
    0.1138    0.1294    2.0372 C   0  0  0  0  0  0  0  0  0  0  0  0
   -0.8997    0.0072    2.9952 C   0  0  0  0  0  0  0  0  0  0  0  0
   -2.0985   -0.6459    2.6828 C   0  0  0  0  0  0  0  0  0  0  0  0
   -3.0863   -0.7904    3.6932 N   0  0  0  0  0  0  0  0  0  0  0  0
   -4.3109   -1.4217    3.6301 C   0  0  0  0  0  0  0  0  0  0  0  0
   -4.8953   -1.3141    4.8704 C   0  0  0  0  0  0  0  0  0  0  0  0
   -3.9637   -0.6037    5.6351 C   0  0  0  0  0  0  0  0  0  0  0  0
   -2.8731   -0.2822    4.9408 N   0  0  0  0  0  0  0  0  0  0  0  0
   -2.2648   -1.1393    1.3891 C   0  0  0  0  0  0  0  0  0  0  0  0
   -3.3841   -1.7673    1.0056 F   0  0  0  0  0  0  0  0  0  0  0  0
   -1.2502   -1.0136    0.4303 C   0  0  0  0  0  0  0  0  0  0  0  0
    3.1169   -0.3886   -1.0781 N   0  0  0  0  0  0  0  0  0  0  0  0
    4.5010   -0.4712   -1.1060 C   0  0  0  0  0  0  0  0  0  0  0  0
    5.3087   -0.3975   -0.0386 C   0  0  0  0  0  0  0  0  0  0  0  0
    6.7328   -0.5265   -0.1530 C   0  0  0  0  0  0  0  0  0  0  0  0
    7.2942   -0.6776   -1.3536 C   0  0  0  0  0  0  0  0  0  0  0  0
    6.5361   -0.7483   -2.5156 N   0  0  0  0  0  0  0  0  0  0  0  0
    7.1922   -0.8465   -3.7806 C   0  0  0  0  0  0  0  0  0  0  0  0
    8.2528    0.0214   -4.0834 C   0  0  0  0  0  0  0  0  0  0  0  0
    8.8837   -0.0377   -5.3265 C   0  0  0  0  0  0  0  0  0  0  0  0
    8.4898   -0.9932   -6.2601 C   0  0  0  0  0  0  0  0  0  0  0  0
    7.4613   -1.8841   -5.9550 C   0  0  0  0  0  0  0  0  0  0  0  0
    6.8028   -1.8013   -4.7258 C   0  0  0  0  0  0  0  0  0  0  0  0
    5.1269   -0.6859   -2.4736 C   0  0  0  0  0  0  0  0  0  0  0  0
    4.3651   -0.7452   -3.4433 O   0  0  0  0  0  0  0  0  0  0  0  0
    0.7598   -0.7945   -1.1231 H   0  0  0  0  0  0  0  0  0  0  0  0
    1.0164    0.6518    2.3421 H   0  0  0  0  0  0  0  0  0  0  0  0
   -0.7240    0.4238    3.9858 H   0  0  0  0  0  0  0  0  0  0  0  0
   -4.6687   -1.8969    2.7311 H   0  0  0  0  0  0  0  0  0  0  0  0
   -5.8565   -1.7010    5.1726 H   0  0  0  0  0  0  0  0  0  0  0  0
   -4.0311   -0.3046    6.6734 H   0  0  0  0  0  0  0  0  0  0  0  0
   -1.4266   -1.4342   -0.5544 H   0  0  0  0  0  0  0  0  0  0  0  0
    2.6807   -0.4404   -1.9939 H   0  0  0  0  0  0  0  0  0  0  0  0
    4.9413   -0.2435    0.9693 H   0  0  0  0  0  0  0  0  0  0  0  0
    7.3267   -0.5070    0.7549 H   0  0  0  0  0  0  0  0  0  0  0  0
    8.3695   -0.7989   -1.4484 H   0  0  0  0  0  0  0  0  0  0  0  0
    8.5557    0.7907   -3.3774 H   0  0  0  0  0  0  0  0  0  0  0  0
    9.6709    0.6712   -5.5693 H   0  0  0  0  0  0  0  0  0  0  0  0
    8.9799   -1.0397   -7.2291 H   0  0  0  0  0  0  0  0  0  0  0  0
    7.1656   -2.6409   -6.6769 H   0  0  0  0  0  0  0  0  0  0  0  0
    6.0077   -2.5081   -4.5021 H   0  0  0  0  0  0  0  0  0  0  0  0
  1  2  2  0  0  0  0
  2  3  1  0  0  0  0
  2 16  1  0  0  0  0
  3  4  1  0  0  0  0
  3 30  1  0  0  0  0
  4  5  2  0  0  0  0
  4 15  1  0  0  0  0
  5  6  1  0  0  0  0
  5 31  1  0  0  0  0
  6  7  2  0  0  0  0
  6 32  1  0  0  0  0
  7  8  1  0  0  0  0
  7 13  1  0  0  0  0
  8  9  1  0  0  0  0
  8 12  1  0  0  0  0
  9 10  2  0  0  0  0
  9 33  1  0  0  0  0
 10 11  1  0  0  0  0
 10 34  1  0  0  0  0
 11 12  2  0  0  0  0
 11 35  1  0  0  0  0
 13 14  1  0  0  0  0
 13 15  2  0  0  0  0
 15 36  1  0  0  0  0
 16 17  1  0  0  0  0
 16 37  1  0  0  0  0
 17 18  2  0  0  0  0
 17 28  1  0  0  0  0
 18 19  1  0  0  0  0
 18 38  1  0  0  0  0
 19 20  2  0  0  0  0
 19 39  1  0  0  0  0
 20 21  1  0  0  0  0
 20 40  1  0  0  0  0
 21 22  1  0  0  0  0
 21 28  1  0  0  0  0
 22 23  2  0  0  0  0
 22 27  1  0  0  0  0
 23 24  1  0  0  0  0
 23 41  1  0  0  0  0
 24 25  2  0  0  0  0
 24 42  1  0  0  0  0
 25 26  1  0  0  0  0
 25 43  1  0  0  0  0
 26 27  2  0  0  0  0
 26 44  1  0  0  0  0
 27 45  1  0  0  0  0
 28 29  2  0  0  0  0
M  END
$$$$
