
 OpenBabel01122422523D

 41 44  0  0  0  0  0  0  0  0999 V2000
    2.6374    0.6971   -1.4754 O   0  0  0  0  0  0  0  0  0  0  0  0
    3.4797   -0.0402   -0.9826 C   0  0  0  0  0  0  0  0  0  0  0  0
    3.3991   -1.4225   -0.8212 N   0  0  0  0  0  0  0  0  0  0  0  0
    2.4071   -2.3089   -1.1852 C   0  0  0  0  0  0  0  0  0  0  0  0
    1.2518   -2.0012   -1.7863 C   0  0  0  0  0  0  0  0  0  0  0  0
    0.2614   -2.9530   -2.0969 N   0  0  0  0  0  0  0  0  0  0  0  0
   -0.9928   -2.5600   -2.7216 C   0  0  0  0  0  0  0  0  0  0  0  0
   -2.1460   -3.3603   -2.6314 C   0  0  0  0  0  0  0  0  0  0  0  0
   -3.3463   -3.0042   -3.2590 C   0  0  0  0  0  0  0  0  0  0  0  0
   -3.4301   -1.8223   -3.9798 C   0  0  0  0  0  0  0  0  0  0  0  0
   -2.3170   -0.9937   -4.0623 C   0  0  0  0  0  0  0  0  0  0  0  0
   -1.1147   -1.3564   -3.4380 C   0  0  0  0  0  0  0  0  0  0  0  0
    0.5019   -4.3181   -1.8177 C   0  0  0  0  0  0  0  0  0  0  0  0
   -0.2079   -5.2864   -2.0986 O   0  0  0  0  0  0  0  0  0  0  0  0
    1.7720   -4.6442   -1.1239 C   0  0  0  0  0  0  0  0  0  0  0  0
    2.6628   -3.6922   -0.8472 C   0  0  0  0  0  0  0  0  0  0  0  0
    4.7341    0.5363   -0.4137 C   0  0  0  0  0  0  0  0  0  0  0  0
    4.7729    1.7368    0.2759 C   0  0  0  0  0  0  0  0  0  0  0  0
    5.8496    2.1340    1.0082 N   0  0  0  0  0  0  0  0  0  0  0  0
    6.8863    1.2676    1.1805 C   0  0  0  0  0  0  0  0  0  0  0  0
    7.9845    1.4915    2.0187 C   0  0  0  0  0  0  0  0  0  0  0  0
    8.1443    2.6815    2.6140 F   0  0  0  0  0  0  0  0  0  0  0  0
    8.9362    0.4937    2.3019 C   0  0  0  0  0  0  0  0  0  0  0  0
    8.8117   -0.7643    1.7381 C   0  0  0  0  0  0  0  0  0  0  0  0
    7.8012   -0.9888    0.8142 C   0  0  0  0  0  0  0  0  0  0  0  0
    6.8827    0.0238    0.5150 C   0  0  0  0  0  0  0  0  0  0  0  0
    5.8783   -0.2523   -0.3968 C   0  0  0  0  0  0  0  0  0  0  0  0
    4.1484   -1.8507   -0.2954 H   0  0  0  0  0  0  0  0  0  0  0  0
    1.0247   -0.9663   -2.0118 H   0  0  0  0  0  0  0  0  0  0  0  0
   -2.1625   -4.2773   -2.0502 H   0  0  0  0  0  0  0  0  0  0  0  0
   -4.2093   -3.6602   -3.1765 H   0  0  0  0  0  0  0  0  0  0  0  0
   -4.3585   -1.5479   -4.4725 H   0  0  0  0  0  0  0  0  0  0  0  0
   -2.3750   -0.0649   -4.6240 H   0  0  0  0  0  0  0  0  0  0  0  0
   -0.2745   -0.6822   -3.5734 H   0  0  0  0  0  0  0  0  0  0  0  0
    1.9297   -5.6876   -0.8834 H   0  0  0  0  0  0  0  0  0  0  0  0
    3.5911   -3.9750   -0.3505 H   0  0  0  0  0  0  0  0  0  0  0  0
    3.9151    2.4058    0.2986 H   0  0  0  0  0  0  0  0  0  0  0  0
    9.7555    0.7139    2.9817 H   0  0  0  0  0  0  0  0  0  0  0  0
    9.4897   -1.5699    2.0065 H   0  0  0  0  0  0  0  0  0  0  0  0
    7.6942   -1.9771    0.3764 H   0  0  0  0  0  0  0  0  0  0  0  0
    5.9547   -1.1213   -1.0419 H   0  0  0  0  0  0  0  0  0  0  0  0
  1  2  2  0  0  0  0
  2  3  1  0  0  0  0
  2 17  1  0  0  0  0
  3  4  1  0  0  0  0
  3 28  1  0  0  0  0
  4  5  2  0  0  0  0
  4 16  1  0  0  0  0
  5  6  1  0  0  0  0
  5 29  1  0  0  0  0
  6  7  1  0  0  0  0
  6 13  1  0  0  0  0
  7  8  2  0  0  0  0
  7 12  1  0  0  0  0
  8  9  1  0  0  0  0
  8 30  1  0  0  0  0
  9 10  2  0  0  0  0
  9 31  1  0  0  0  0
 10 11  1  0  0  0  0
 10 32  1  0  0  0  0
 11 12  2  0  0  0  0
 11 33  1  0  0  0  0
 12 34  1  0  0  0  0
 13 14  2  0  0  0  0
 13 15  1  0  0  0  0
 15 16  2  0  0  0  0
 15 35  1  0  0  0  0
 16 36  1  0  0  0  0
 17 18  2  0  0  0  0
 17 27  1  0  0  0  0
 18 19  1  0  0  0  0
 18 37  1  0  0  0  0
 19 20  2  0  0  0  0
 20 21  1  0  0  0  0
 20 26  1  0  0  0  0
 21 22  1  0  0  0  0
 21 23  2  0  0  0  0
 23 24  1  0  0  0  0
 23 38  1  0  0  0  0
 24 25  2  0  0  0  0
 24 39  1  0  0  0  0
 25 26  1  0  0  0  0
 25 40  1  0  0  0  0
 26 27  2  0  0  0  0
 27 41  1  0  0  0  0
M  END
$$$$
