
 OpenBabel01122422523D

 52 55  0  0  0  0  0  0  0  0999 V2000
    3.5553    2.8822    1.4269 N   0  0  0  0  0  0  0  0  0  0  0  0
    2.7698    1.8066    1.1139 C   0  0  0  0  0  0  0  0  0  0  0  0
    1.6151    1.9836    0.7370 O   0  0  0  0  0  0  0  0  0  0  0  0
    3.3443    0.4081    1.4181 C   0  0  0  0  0  0  0  0  0  0  0  0
    4.7955    0.2629    1.2141 N   0  0  0  0  0  0  0  0  0  0  0  0
    5.2304   -0.1171   -0.1352 C   0  0  0  0  0  0  0  0  0  0  0  0
    5.3309   -1.6069   -0.4139 C   0  0  0  0  0  0  0  0  0  0  0  0
    5.1930   -2.0646   -1.7335 C   0  0  0  0  0  0  0  0  0  0  0  0
    5.4638   -3.4004   -2.0784 C   0  0  0  0  0  0  0  0  0  0  0  0
    5.9083   -4.3349   -1.1288 C   0  0  0  0  0  0  0  0  0  0  0  0
    6.3164   -5.7178   -1.5069 C   0  0  0  0  0  0  0  0  0  0  0  0
    6.9083   -5.9980   -2.7553 C   0  0  0  0  0  0  0  0  0  0  0  0
    7.3386   -7.2872   -3.0981 C   0  0  0  0  0  0  0  0  0  0  0  0
    7.1968   -8.3339   -2.1943 C   0  0  0  0  0  0  0  0  0  0  0  0
    6.6135   -8.0932   -0.9554 C   0  0  0  0  0  0  0  0  0  0  0  0
    6.1733   -6.8044   -0.6223 C   0  0  0  0  0  0  0  0  0  0  0  0
    5.9931   -3.8757    0.1986 C   0  0  0  0  0  0  0  0  0  0  0  0
    5.7032   -2.5448    0.5532 C   0  0  0  0  0  0  0  0  0  0  0  0
    5.6497    0.6961    2.2315 C   0  0  0  0  0  0  0  0  0  0  0  0
    5.1858    1.2770    3.2177 O   0  0  0  0  0  0  0  0  0  0  0  0
    7.1491    0.5212    2.0240 C   0  0  0  0  0  0  0  0  0  0  0  0
    7.9572    0.4255    3.2732 C   0  0  0  0  0  0  0  0  0  0  0  0
    7.7415    0.5522    4.6341 C   0  0  0  0  0  0  0  0  0  0  0  0
    8.9971    0.3455    5.2761 C   0  0  0  0  0  0  0  0  0  0  0  0
    9.4718    0.3480    6.6015 C   0  0  0  0  0  0  0  0  0  0  0  0
   10.8340    0.0959    6.8317 C   0  0  0  0  0  0  0  0  0  0  0  0
   11.7098   -0.1584    5.7728 C   0  0  0  0  0  0  0  0  0  0  0  0
   11.2568   -0.1652    4.4503 C   0  0  0  0  0  0  0  0  0  0  0  0
    9.9024    0.0935    4.2546 C   0  0  0  0  0  0  0  0  0  0  0  0
    9.2780    0.1409    3.0493 O   0  0  0  0  0  0  0  0  0  0  0  0
    3.0856    3.7769    1.4005 H   0  0  0  0  0  0  0  0  0  0  0  0
    4.2343    2.7609    2.1764 H   0  0  0  0  0  0  0  0  0  0  0  0
    2.8305   -0.3152    0.7770 H   0  0  0  0  0  0  0  0  0  0  0  0
    3.1006    0.1774    2.4600 H   0  0  0  0  0  0  0  0  0  0  0  0
    6.2112    0.3246   -0.3404 H   0  0  0  0  0  0  0  0  0  0  0  0
    4.5333    0.3461   -0.8450 H   0  0  0  0  0  0  0  0  0  0  0  0
    4.8992   -1.3770   -2.5255 H   0  0  0  0  0  0  0  0  0  0  0  0
    5.3399   -3.6933   -3.1200 H   0  0  0  0  0  0  0  0  0  0  0  0
    7.0685   -5.2043   -3.4823 H   0  0  0  0  0  0  0  0  0  0  0  0
    7.7957   -7.4673   -4.0680 H   0  0  0  0  0  0  0  0  0  0  0  0
    7.5418   -9.3317   -2.4530 H   0  0  0  0  0  0  0  0  0  0  0  0
    6.5025   -8.9054   -0.2417 H   0  0  0  0  0  0  0  0  0  0  0  0
    5.7115   -6.6652    0.3523 H   0  0  0  0  0  0  0  0  0  0  0  0
    6.3355   -4.5427    0.9873 H   0  0  0  0  0  0  0  0  0  0  0  0
    5.8178   -2.2580    1.5955 H   0  0  0  0  0  0  0  0  0  0  0  0
    7.4999    1.3788    1.4386 H   0  0  0  0  0  0  0  0  0  0  0  0
    7.3434   -0.3869    1.4487 H   0  0  0  0  0  0  0  0  0  0  0  0
    6.8004    0.7746    5.1162 H   0  0  0  0  0  0  0  0  0  0  0  0
    8.8035    0.5449    7.4339 H   0  0  0  0  0  0  0  0  0  0  0  0
   11.2154    0.1001    7.8516 H   0  0  0  0  0  0  0  0  0  0  0  0
   12.7606   -0.3517    5.9774 H   0  0  0  0  0  0  0  0  0  0  0  0
   11.9189   -0.3583    3.6154 H   0  0  0  0  0  0  0  0  0  0  0  0
  1  2  1  0  0  0  0
  1 31  1  0  0  0  0
  1 32  1  0  0  0  0
  2  3  2  0  0  0  0
  2  4  1  0  0  0  0
  4  5  1  0  0  0  0
  4 33  1  0  0  0  0
  4 34  1  0  0  0  0
  5  6  1  0  0  0  0
  5 19  1  0  0  0  0
  6  7  1  0  0  0  0
  6 35  1  0  0  0  0
  6 36  1  0  0  0  0
  7  8  2  0  0  0  0
  7 18  1  0  0  0  0
  8  9  1  0  0  0  0
  8 37  1  0  0  0  0
  9 10  2  0  0  0  0
  9 38  1  0  0  0  0
 10 11  1  0  0  0  0
 10 17  1  0  0  0  0
 11 12  2  0  0  0  0
 11 16  1  0  0  0  0
 12 13  1  0  0  0  0
 12 39  1  0  0  0  0
 13 14  2  0  0  0  0
 13 40  1  0  0  0  0
 14 15  1  0  0  0  0
 14 41  1  0  0  0  0
 15 16  2  0  0  0  0
 15 42  1  0  0  0  0
 16 43  1  0  0  0  0
 17 18  2  0  0  0  0
 17 44  1  0  0  0  0
 18 45  1  0  0  0  0
 19 20  2  0  0  0  0
 19 21  1  0  0  0  0
 21 22  1  0  0  0  0
 21 46  1  0  0  0  0
 21 47  1  0  0  0  0
 22 23  2  0  0  0  0
 22 30  1  0  0  0  0
 23 24  1  0  0  0  0
 23 48  1  0  0  0  0
 24 25  2  0  0  0  0
 24 29  1  0  0  0  0
 25 26  1  0  0  0  0
 25 49  1  0  0  0  0
 26 27  2  0  0  0  0
 26 50  1  0  0  0  0
 27 28  1  0  0  0  0
 27 51  1  0  0  0  0
 28 29  2  0  0  0  0
 28 52  1  0  0  0  0
 29 30  1  0  0  0  0
M  END
$$$$
