
 OpenBabel01122422523D

 47 50  0  0  0  0  0  0  0  0999 V2000
    1.8354    0.7055    1.1925 O   0  0  0  0  0  0  0  0  0  0  0  0
    2.0678    0.0807    0.1667 C   0  0  0  0  0  0  0  0  0  0  0  0
    2.8991    0.5949   -0.9987 C   0  0  0  0  0  0  0  0  0  0  0  0
    2.0713    1.2488   -1.9497 O   0  0  0  0  0  0  0  0  0  0  0  0
    2.5814    1.4422   -3.2068 C   0  0  0  0  0  0  0  0  0  0  0  0
    3.8167    0.9813   -3.6679 C   0  0  0  0  0  0  0  0  0  0  0  0
    4.2075    1.2095   -4.9891 C   0  0  0  0  0  0  0  0  0  0  0  0
    3.3703    1.9047   -5.8572 C   0  0  0  0  0  0  0  0  0  0  0  0
    2.1186    2.3440   -5.4173 C   0  0  0  0  0  0  0  0  0  0  0  0
    1.2423    3.0383   -6.2244 O   0  0  0  0  0  0  0  0  0  0  0  0
    1.1012    2.6241   -7.5459 C   0  0  0  0  0  0  0  0  0  0  0  0
    0.6744    3.5817   -8.4575 C   0  0  0  0  0  0  0  0  0  0  0  0
    0.5338    3.2076   -9.7903 C   0  0  0  0  0  0  0  0  0  0  0  0
    0.8142    1.8974  -10.1653 C   0  0  0  0  0  0  0  0  0  0  0  0
    1.2115    1.0063   -9.1828 C   0  0  0  0  0  0  0  0  0  0  0  0
    1.3487    1.3370   -7.8824 N   0  0  0  0  0  0  0  0  0  0  0  0
    1.7438    2.1415   -4.0862 C   0  0  0  0  0  0  0  0  0  0  0  0
    1.6686   -1.2008   -0.0792 O   0  0  0  0  0  0  0  0  0  0  0  0
    0.8608   -1.8323    0.9304 C   0  0  0  0  0  0  0  0  0  0  0  0
    1.6753   -2.6723    1.9071 C   0  0  0  0  0  0  0  0  0  0  0  0
    3.0132   -2.6309    1.9414 C   0  0  0  0  0  0  0  0  0  0  0  0
    3.7384   -3.5409    2.8334 C   0  0  0  0  0  0  0  0  0  0  0  0
    4.9537   -3.6623    2.6974 O   0  0  0  0  0  0  0  0  0  0  0  0
    2.9591   -4.2160    3.7522 N   0  0  0  0  0  0  0  0  0  0  0  0
    3.5802   -4.9342    4.7692 C   0  0  0  0  0  0  0  0  0  0  0  0
    2.8742   -5.6130    5.6854 C   0  0  0  0  0  0  0  0  0  0  0  0
    3.6513   -6.4345    6.9796 Cl  0  0  0  0  0  0  0  0  0  0  0  0
    1.4347   -5.6420    5.5976 C   0  0  0  0  0  0  0  0  0  0  0  0
    0.7933   -4.9904    4.6221 C   0  0  0  0  0  0  0  0  0  0  0  0
    1.5736   -4.1759    3.6378 C   0  0  0  0  0  0  0  0  0  0  0  0
    0.9376   -3.4851    2.7442 N   0  0  0  0  0  0  0  0  0  0  0  0
    3.4198   -0.2755   -1.4136 H   0  0  0  0  0  0  0  0  0  0  0  0
    3.6490    1.2923   -0.6060 H   0  0  0  0  0  0  0  0  0  0  0  0
    4.5060    0.4307   -3.0388 H   0  0  0  0  0  0  0  0  0  0  0  0
    5.1609    0.8326   -5.3489 H   0  0  0  0  0  0  0  0  0  0  0  0
    3.6907    2.0747   -6.8805 H   0  0  0  0  0  0  0  0  0  0  0  0
    0.4677    4.5963   -8.1369 H   0  0  0  0  0  0  0  0  0  0  0  0
    0.2116    3.9320  -10.5338 H   0  0  0  0  0  0  0  0  0  0  0  0
    0.7239    1.5761  -11.1973 H   0  0  0  0  0  0  0  0  0  0  0  0
    1.4419   -0.0279   -9.4218 H   0  0  0  0  0  0  0  0  0  0  0  0
    0.7854    2.5158   -3.7349 H   0  0  0  0  0  0  0  0  0  0  0  0
    0.1842   -2.5028    0.3860 H   0  0  0  0  0  0  0  0  0  0  0  0
    0.2329   -1.1066    1.4589 H   0  0  0  0  0  0  0  0  0  0  0  0
    3.6193   -1.9791    1.3328 H   0  0  0  0  0  0  0  0  0  0  0  0
    4.6660   -4.9019    4.7957 H   0  0  0  0  0  0  0  0  0  0  0  0
    0.8839   -6.2241    6.3325 H   0  0  0  0  0  0  0  0  0  0  0  0
   -0.2799   -4.9986    4.5183 H   0  0  0  0  0  0  0  0  0  0  0  0
  1  2  2  0  0  0  0
  2  3  1  0  0  0  0
  2 18  1  0  0  0  0
  3  4  1  0  0  0  0
  3 32  1  0  0  0  0
  3 33  1  0  0  0  0
  4  5  1  0  0  0  0
  5  6  2  0  0  0  0
  5 17  1  0  0  0  0
  6  7  1  0  0  0  0
  6 34  1  0  0  0  0
  7  8  2  0  0  0  0
  7 35  1  0  0  0  0
  8  9  1  0  0  0  0
  8 36  1  0  0  0  0
  9 10  1  0  0  0  0
  9 17  2  0  0  0  0
 10 11  1  0  0  0  0
 11 12  2  0  0  0  0
 11 16  1  0  0  0  0
 12 13  1  0  0  0  0
 12 37  1  0  0  0  0
 13 14  2  0  0  0  0
 13 38  1  0  0  0  0
 14 15  1  0  0  0  0
 14 39  1  0  0  0  0
 15 16  2  0  0  0  0
 15 40  1  0  0  0  0
 17 41  1  0  0  0  0
 18 19  1  0  0  0  0
 19 20  1  0  0  0  0
 19 42  1  0  0  0  0
 19 43  1  0  0  0  0
 20 21  2  0  0  0  0
 20 31  1  0  0  0  0
 21 22  1  0  0  0  0
 21 44  1  0  0  0  0
 22 23  2  0  0  0  0
 22 24  1  0  0  0  0
 24 25  1  0  0  0  0
 24 30  1  0  0  0  0
 25 26  2  0  0  0  0
 25 45  1  0  0  0  0
 26 27  1  0  0  0  0
 26 28  1  0  0  0  0
 28 29  2  0  0  0  0
 28 46  1  0  0  0  0
 29 30  1  0  0  0  0
 29 47  1  0  0  0  0
 30 31  2  0  0  0  0
M  END
$$$$
