
 OpenBabel01122422523D

 43 46  0  0  0  0  0  0  0  0999 V2000
    0.3987   -1.5769   -3.5869 N   0  0  0  0  0  0  0  0  0  0  0  0
    0.1368   -1.1266   -2.5450 C   0  0  0  0  0  0  0  0  0  0  0  0
   -0.1686   -0.5754   -1.2584 C   0  0  0  0  0  0  0  0  0  0  0  0
    0.2479   -1.2311   -0.0957 C   0  0  0  0  0  0  0  0  0  0  0  0
   -0.0431   -0.6935    1.1582 C   0  0  0  0  0  0  0  0  0  0  0  0
   -0.7380    0.5098    1.2503 C   0  0  0  0  0  0  0  0  0  0  0  0
   -0.9648    1.0362    2.4924 O   0  0  0  0  0  0  0  0  0  0  0  0
   -1.1834    1.1879    0.1021 C   0  0  0  0  0  0  0  0  0  0  0  0
   -1.9150    2.4813    0.1476 C   0  0  0  0  0  0  0  0  0  0  0  0
   -2.7300    2.7600    1.1694 C   0  0  0  0  0  0  0  0  0  0  0  0
   -3.4386    4.0376    1.1936 C   0  0  0  0  0  0  0  0  0  0  0  0
   -4.1464    4.2979    2.1666 O   0  0  0  0  0  0  0  0  0  0  0  0
   -3.2536    4.8474    0.0859 N   0  0  0  0  0  0  0  0  0  0  0  0
   -3.9198    6.0625    0.0367 C   0  0  0  0  0  0  0  0  0  0  0  0
   -3.7992    6.8880   -1.0048 C   0  0  0  0  0  0  0  0  0  0  0  0
   -2.9765    6.5157   -2.1212 C   0  0  0  0  0  0  0  0  0  0  0  0
   -2.2886    5.3664   -2.1468 C   0  0  0  0  0  0  0  0  0  0  0  0
   -1.5568    5.0721   -3.2926 O   0  0  0  0  0  0  0  0  0  0  0  0
   -0.3899    4.2683   -3.1202 C   0  0  0  0  0  0  0  0  0  0  0  0
    0.6338    4.6059   -4.1774 C   0  0  0  0  0  0  0  0  0  0  0  0
    1.1417    5.9092   -4.2738 C   0  0  0  0  0  0  0  0  0  0  0  0
    2.1594    6.2050   -5.1794 C   0  0  0  0  0  0  0  0  0  0  0  0
    2.6859    5.1997   -5.9889 C   0  0  0  0  0  0  0  0  0  0  0  0
    2.1889    3.9002   -5.9014 C   0  0  0  0  0  0  0  0  0  0  0  0
    1.1621    3.6046   -5.0046 C   0  0  0  0  0  0  0  0  0  0  0  0
   -2.4089    4.4378   -0.9499 C   0  0  0  0  0  0  0  0  0  0  0  0
   -1.7573    3.3163   -0.9253 N   0  0  0  0  0  0  0  0  0  0  0  0
   -0.8864    0.6200   -1.1550 C   0  0  0  0  0  0  0  0  0  0  0  0
    0.8058   -2.1618   -0.1580 H   0  0  0  0  0  0  0  0  0  0  0  0
    0.2895   -1.2132    2.0517 H   0  0  0  0  0  0  0  0  0  0  0  0
   -0.6974    0.4093    3.1792 H   0  0  0  0  0  0  0  0  0  0  0  0
   -2.9131    2.1071    2.0091 H   0  0  0  0  0  0  0  0  0  0  0  0
   -4.5520    6.3129    0.8862 H   0  0  0  0  0  0  0  0  0  0  0  0
   -4.3232    7.8381   -1.0323 H   0  0  0  0  0  0  0  0  0  0  0  0
   -2.9335    7.1930   -2.9691 H   0  0  0  0  0  0  0  0  0  0  0  0
   -0.6701    3.2136   -3.2120 H   0  0  0  0  0  0  0  0  0  0  0  0
    0.0927    4.4513   -2.1536 H   0  0  0  0  0  0  0  0  0  0  0  0
    0.7564    6.6930   -3.6252 H   0  0  0  0  0  0  0  0  0  0  0  0
    2.5509    7.2166   -5.2420 H   0  0  0  0  0  0  0  0  0  0  0  0
    3.4890    5.4275   -6.6841 H   0  0  0  0  0  0  0  0  0  0  0  0
    2.6092    3.1128   -6.5219 H   0  0  0  0  0  0  0  0  0  0  0  0
    0.7916    2.5833   -4.9422 H   0  0  0  0  0  0  0  0  0  0  0  0
   -1.2256    1.1188   -2.0637 H   0  0  0  0  0  0  0  0  0  0  0  0
  1  2  3  0  0  0  0
  2  3  1  0  0  0  0
  3  4  2  0  0  0  0
  3 28  1  0  0  0  0
  4  5  1  0  0  0  0
  4 29  1  0  0  0  0
  5  6  2  0  0  0  0
  5 30  1  0  0  0  0
  6  7  1  0  0  0  0
  6  8  1  0  0  0  0
  7 31  1  0  0  0  0
  8  9  1  0  0  0  0
  8 28  2  0  0  0  0
  9 10  2  0  0  0  0
  9 27  1  0  0  0  0
 10 11  1  0  0  0  0
 10 32  1  0  0  0  0
 11 12  2  0  0  0  0
 11 13  1  0  0  0  0
 13 14  1  0  0  0  0
 13 26  1  0  0  0  0
 14 15  2  0  0  0  0
 14 33  1  0  0  0  0
 15 16  1  0  0  0  0
 15 34  1  0  0  0  0
 16 17  2  0  0  0  0
 16 35  1  0  0  0  0
 17 18  1  0  0  0  0
 17 26  1  0  0  0  0
 18 19  1  0  0  0  0
 19 20  1  0  0  0  0
 19 36  1  0  0  0  0
 19 37  1  0  0  0  0
 20 21  2  0  0  0  0
 20 25  1  0  0  0  0
 21 22  1  0  0  0  0
 21 38  1  0  0  0  0
 22 23  2  0  0  0  0
 22 39  1  0  0  0  0
 23 24  1  0  0  0  0
 23 40  1  0  0  0  0
 24 25  2  0  0  0  0
 24 41  1  0  0  0  0
 25 42  1  0  0  0  0
 26 27  2  0  0  0  0
 28 43  1  0  0  0  0
M  END
$$$$
