
 OpenBabel01122422523D

 47 50  0  0  0  0  0  0  0  0999 V2000
    3.8347    1.5107   -0.9231 N   0  0  0  0  0  0  0  0  0  0  0  0
    3.2210    0.5357   -0.0253 C   0  0  0  0  0  0  0  0  0  0  0  0
    3.4499   -0.8696   -0.5139 C   0  0  0  0  0  0  0  0  0  0  0  0
    4.7416   -1.3351   -0.7734 C   0  0  0  0  0  0  0  0  0  0  0  0
    4.9397   -2.5730   -1.3912 C   0  0  0  0  0  0  0  0  0  0  0  0
    3.8594   -3.4096   -1.7210 C   0  0  0  0  0  0  0  0  0  0  0  0
    4.0491   -4.6193   -2.5645 C   0  0  0  0  0  0  0  0  0  0  0  0
    5.2369   -5.3854   -2.4159 C   0  0  0  0  0  0  0  0  0  0  0  0
    5.4791   -6.5650   -3.1337 C   0  0  0  0  0  0  0  0  0  0  0  0
    4.5335   -7.0391   -4.0220 C   0  0  0  0  0  0  0  0  0  0  0  0
    3.3713   -6.3063   -4.2137 C   0  0  0  0  0  0  0  0  0  0  0  0
    3.1254   -5.0897   -3.5261 C   0  0  0  0  0  0  0  0  0  0  0  0
    1.7875   -4.5202   -3.8461 C   0  0  0  0  0  0  0  0  0  0  0  0
    0.9209   -5.3713   -4.0688 O   0  0  0  0  0  0  0  0  0  0  0  0
    1.5786   -3.1425   -3.9228 N   0  0  0  0  0  0  0  0  0  0  0  0
    0.2948   -2.5779   -4.1486 C   0  0  0  0  0  0  0  0  0  0  0  0
   -0.8480   -3.3822   -4.0442 C   0  0  0  0  0  0  0  0  0  0  0  0
   -2.0445   -3.0081   -4.6145 C   0  0  0  0  0  0  0  0  0  0  0  0
   -2.1435   -1.7400   -5.1311 C   0  0  0  0  0  0  0  0  0  0  0  0
   -3.3969   -1.3600   -5.7631 C   0  0  0  0  0  0  0  0  0  0  0  0
   -3.8374   -0.1590   -5.3439 C   0  0  0  0  0  0  0  0  0  0  0  0
   -2.9415    0.8196   -5.0158 N   0  0  0  0  0  0  0  0  0  0  0  0
   -1.5680    0.6117   -4.9609 C   0  0  0  0  0  0  0  0  0  0  0  0
   -0.7623    1.5269   -4.8390 O   0  0  0  0  0  0  0  0  0  0  0  0
   -1.1308   -0.8028   -4.9167 C   0  0  0  0  0  0  0  0  0  0  0  0
    0.1341   -1.2292   -4.4925 C   0  0  0  0  0  0  0  0  0  0  0  0
    2.5965   -3.0131   -1.2539 C   0  0  0  0  0  0  0  0  0  0  0  0
    2.3792   -1.7382   -0.7227 C   0  0  0  0  0  0  0  0  0  0  0  0
    3.5999    2.4491   -0.6066 H   0  0  0  0  0  0  0  0  0  0  0  0
    3.4168    1.4118   -1.8478 H   0  0  0  0  0  0  0  0  0  0  0  0
    2.1474    0.7470    0.0360 H   0  0  0  0  0  0  0  0  0  0  0  0
    3.6364    0.6398    0.9821 H   0  0  0  0  0  0  0  0  0  0  0  0
    5.6004   -0.7041   -0.5514 H   0  0  0  0  0  0  0  0  0  0  0  0
    5.9614   -2.8458   -1.6451 H   0  0  0  0  0  0  0  0  0  0  0  0
    6.0027   -5.0837   -1.7035 H   0  0  0  0  0  0  0  0  0  0  0  0
    6.4004   -7.1205   -2.9784 H   0  0  0  0  0  0  0  0  0  0  0  0
    4.6840   -7.9726   -4.5576 H   0  0  0  0  0  0  0  0  0  0  0  0
    2.6225   -6.7063   -4.8997 H   0  0  0  0  0  0  0  0  0  0  0  0
    2.3826   -2.5230   -3.9026 H   0  0  0  0  0  0  0  0  0  0  0  0
   -0.8332   -4.3457   -3.5476 H   0  0  0  0  0  0  0  0  0  0  0  0
   -2.8837   -3.6994   -4.6125 H   0  0  0  0  0  0  0  0  0  0  0  0
   -3.3272   -1.5059   -6.8499 H   0  0  0  0  0  0  0  0  0  0  0  0
   -4.8964    0.0808   -5.3769 H   0  0  0  0  0  0  0  0  0  0  0  0
   -3.2696    1.7533   -4.8899 H   0  0  0  0  0  0  0  0  0  0  0  0
    0.9412   -0.5109   -4.4256 H   0  0  0  0  0  0  0  0  0  0  0  0
    1.7297   -3.6618   -1.3700 H   0  0  0  0  0  0  0  0  0  0  0  0
    1.3588   -1.4259   -0.5107 H   0  0  0  0  0  0  0  0  0  0  0  0
  1  2  1  0  0  0  0
  1 29  1  0  0  0  0
  1 30  1  0  0  0  0
  2  3  1  0  0  0  0
  2 31  1  0  0  0  0
  2 32  1  0  0  0  0
  3  4  2  0  0  0  0
  3 28  1  0  0  0  0
  4  5  1  0  0  0  0
  4 33  1  0  0  0  0
  5  6  2  0  0  0  0
  5 34  1  0  0  0  0
  6  7  1  0  0  0  0
  6 27  1  0  0  0  0
  7  8  2  0  0  0  0
  7 12  1  0  0  0  0
  8  9  1  0  0  0  0
  8 35  1  0  0  0  0
  9 10  2  0  0  0  0
  9 36  1  0  0  0  0
 10 11  1  0  0  0  0
 10 37  1  0  0  0  0
 11 12  2  0  0  0  0
 11 38  1  0  0  0  0
 12 13  1  0  0  0  0
 13 14  2  0  0  0  0
 13 15  1  0  0  0  0
 15 16  1  0  0  0  0
 15 39  1  0  0  0  0
 16 17  2  0  0  0  0
 16 26  1  0  0  0  0
 17 18  1  0  0  0  0
 17 40  1  0  0  0  0
 18 19  2  0  0  0  0
 18 41  1  0  0  0  0
 19 20  1  0  0  0  0
 19 25  1  0  0  0  0
 20 21  2  0  0  0  0
 20 42  1  0  0  0  0
 21 22  1  0  0  0  0
 21 43  1  0  0  0  0
 22 23  1  0  0  0  0
 22 44  1  0  0  0  0
 23 24  2  0  0  0  0
 23 25  1  0  0  0  0
 25 26  2  0  0  0  0
 26 45  1  0  0  0  0
 27 28  2  0  0  0  0
 27 46  1  0  0  0  0
 28 47  1  0  0  0  0
M  END
$$$$
