
 OpenBabel01122422453D

 45 48  0  0  0  0  0  0  0  0999 V2000
    1.0537   -0.0549    0.0757 O   0  0  0  0  0  0  0  0  0  0  0  0
    2.2795   -0.0467   -0.0019 C   0  0  0  0  0  0  0  0  0  0  0  0
    3.0293   -1.1957   -0.1388 N   0  0  0  0  0  0  0  0  0  0  0  0
    2.4160   -2.5063   -0.2206 C   0  0  0  0  0  0  0  0  0  0  0  0
    2.2233   -3.1075    1.1435 C   0  0  0  0  0  0  0  0  0  0  0  0
    1.0975   -2.9453    1.8652 C   0  0  0  0  0  0  0  0  0  0  0  0
    0.9017   -3.6338    3.1415 C   0  0  0  0  0  0  0  0  0  0  0  0
   -0.2650   -3.4668    3.8939 C   0  0  0  0  0  0  0  0  0  0  0  0
   -0.4274   -4.1577    5.0979 C   0  0  0  0  0  0  0  0  0  0  0  0
    0.5734   -5.0169    5.5534 C   0  0  0  0  0  0  0  0  0  0  0  0
    1.7420   -5.1894    4.8067 C   0  0  0  0  0  0  0  0  0  0  0  0
    1.8985   -4.4976    3.6043 C   0  0  0  0  0  0  0  0  0  0  0  0
    3.0602   -4.6653    2.8397 N   0  0  0  0  0  0  0  0  0  0  0  0
    3.2888   -4.0267    1.6463 C   0  0  0  0  0  0  0  0  0  0  0  0
    4.3246   -4.2204    1.0154 O   0  0  0  0  0  0  0  0  0  0  0  0
    3.0348    1.2506    0.0526 C   0  0  0  0  0  0  0  0  0  0  0  0
    2.3147    2.4205    0.2764 C   0  0  0  0  0  0  0  0  0  0  0  0
    3.0015    3.6298    0.3564 C   0  0  0  0  0  0  0  0  0  0  0  0
    4.3812    3.6528    0.1569 C   0  0  0  0  0  0  0  0  0  0  0  0
    5.1439    4.8005    0.1930 O   0  0  0  0  0  0  0  0  0  0  0  0
    4.6375    5.9597   -0.3686 C   0  0  0  0  0  0  0  0  0  0  0  0
    5.0627    7.1795    0.1724 C   0  0  0  0  0  0  0  0  0  0  0  0
    4.5731    8.3860   -0.3516 C   0  0  0  0  0  0  0  0  0  0  0  0
    3.6618    8.3552   -1.4023 C   0  0  0  0  0  0  0  0  0  0  0  0
    3.1697    9.5077   -1.8836 F   0  0  0  0  0  0  0  0  0  0  0  0
    3.2566    7.1556   -1.9645 C   0  0  0  0  0  0  0  0  0  0  0  0
    3.7652    5.9578   -1.4652 C   0  0  0  0  0  0  0  0  0  0  0  0
    5.0203    2.4314   -0.0462 C   0  0  0  0  0  0  0  0  0  0  0  0
    4.3875    1.2236   -0.1067 N   0  0  0  0  0  0  0  0  0  0  0  0
    4.0361   -1.0994   -0.2356 H   0  0  0  0  0  0  0  0  0  0  0  0
    3.0374   -3.1357   -0.8652 H   0  0  0  0  0  0  0  0  0  0  0  0
    1.4461   -2.4101   -0.7252 H   0  0  0  0  0  0  0  0  0  0  0  0
    0.2974   -2.3049    1.5045 H   0  0  0  0  0  0  0  0  0  0  0  0
   -1.0548   -2.8028    3.5504 H   0  0  0  0  0  0  0  0  0  0  0  0
   -1.3364   -4.0260    5.6798 H   0  0  0  0  0  0  0  0  0  0  0  0
    0.4429   -5.5526    6.4908 H   0  0  0  0  0  0  0  0  0  0  0  0
    2.5117   -5.8621    5.1691 H   0  0  0  0  0  0  0  0  0  0  0  0
    3.7904   -5.2888    3.1555 H   0  0  0  0  0  0  0  0  0  0  0  0
    1.2354    2.3926    0.3907 H   0  0  0  0  0  0  0  0  0  0  0  0
    2.4423    4.5416    0.5475 H   0  0  0  0  0  0  0  0  0  0  0  0
    5.7825    7.2032    0.9877 H   0  0  0  0  0  0  0  0  0  0  0  0
    4.8865    9.3384    0.0573 H   0  0  0  0  0  0  0  0  0  0  0  0
    2.5465    7.1502   -2.7833 H   0  0  0  0  0  0  0  0  0  0  0  0
    3.4564    5.0270   -1.9348 H   0  0  0  0  0  0  0  0  0  0  0  0
    6.0994    2.3914   -0.1822 H   0  0  0  0  0  0  0  0  0  0  0  0
  1  2  2  0  0  0  0
  2  3  1  0  0  0  0
  2 16  1  0  0  0  0
  3  4  1  0  0  0  0
  3 30  1  0  0  0  0
  4  5  1  0  0  0  0
  4 31  1  0  0  0  0
  4 32  1  0  0  0  0
  5  6  2  0  0  0  0
  5 14  1  0  0  0  0
  6  7  1  0  0  0  0
  6 33  1  0  0  0  0
  7  8  2  0  0  0  0
  7 12  1  0  0  0  0
  8  9  1  0  0  0  0
  8 34  1  0  0  0  0
  9 10  2  0  0  0  0
  9 35  1  0  0  0  0
 10 11  1  0  0  0  0
 10 36  1  0  0  0  0
 11 12  2  0  0  0  0
 11 37  1  0  0  0  0
 12 13  1  0  0  0  0
 13 14  1  0  0  0  0
 13 38  1  0  0  0  0
 14 15  2  0  0  0  0
 16 17  2  0  0  0  0
 16 29  1  0  0  0  0
 17 18  1  0  0  0  0
 17 39  1  0  0  0  0
 18 19  2  0  0  0  0
 18 40  1  0  0  0  0
 19 20  1  0  0  0  0
 19 28  1  0  0  0  0
 20 21  1  0  0  0  0
 21 22  2  0  0  0  0
 21 27  1  0  0  0  0
 22 23  1  0  0  0  0
 22 41  1  0  0  0  0
 23 24  2  0  0  0  0
 23 42  1  0  0  0  0
 24 25  1  0  0  0  0
 24 26  1  0  0  0  0
 26 27  2  0  0  0  0
 26 43  1  0  0  0  0
 27 44  1  0  0  0  0
 28 29  2  0  0  0  0
 28 45  1  0  0  0  0
M  END
$$$$
