
 OpenBabel01122422523D

 47 50  0  0  1  0  0  0  0  0999 V2000
    5.5401    2.5698   -0.6360 N   0  0  0  0  0  0  0  0  0  0  0  0
    4.5879    1.9113   -0.6527 C   0  0  0  0  0  0  0  0  0  0  0  0
    3.4049    1.0997   -0.6913 C   0  0  0  0  0  0  0  0  0  0  0  0
    3.4326   -0.2121   -0.1933 C   0  0  0  0  0  0  0  0  0  0  0  0
    2.2804   -1.0100   -0.2586 C   0  0  0  0  0  0  0  0  0  0  0  0
    2.2922   -2.3333    0.2723 N   0  0  0  0  0  0  0  0  0  0  0  0
    1.2742   -3.2566    0.2027 C   0  0  0  0  0  0  0  0  0  0  0  0
    1.6722   -4.3529    0.9195 C   0  0  0  0  0  0  0  0  0  0  0  0
    2.9604   -4.0353    1.4064 C   0  0  0  0  0  0  0  0  0  0  0  0
    3.7677   -4.9052    2.2784 C   0  0  0  0  0  0  0  0  0  0  0  0
    3.3828   -6.0209    2.6148 O   0  0  0  0  0  0  0  0  0  0  0  0
    4.9651   -4.3691    2.6853 N   0  0  0  0  0  0  0  0  0  0  0  0
    5.8681   -5.0871    3.5815 C   0  0  3  0  0  0  0  0  0  0  0  0
    7.2168   -5.4349    2.8932 C   0  0  0  0  0  0  0  0  0  0  0  0
    7.3922   -4.9819    1.6126 N   0  0  0  0  0  0  0  0  0  0  0  0
    8.1281   -6.0504    3.4419 O   0  0  0  0  0  0  0  0  0  0  0  0
    6.0344   -4.3138    4.8804 C   0  0  0  0  0  0  0  0  0  0  0  0
    7.0532   -3.3688    5.0521 C   0  0  0  0  0  0  0  0  0  0  0  0
    7.1788   -2.6647    6.2526 C   0  0  0  0  0  0  0  0  0  0  0  0
    6.2867   -2.8800    7.3121 C   0  0  0  0  0  0  0  0  0  0  0  0
    6.4080   -2.1771    8.5227 C   0  0  0  0  0  0  0  0  0  0  0  0
    5.5203   -2.4080    9.5744 C   0  0  0  0  0  0  0  0  0  0  0  0
    4.5032   -3.3460    9.4291 C   0  0  0  0  0  0  0  0  0  0  0  0
    4.3670   -4.0489    8.2295 C   0  0  0  0  0  0  0  0  0  0  0  0
    5.2492   -3.8254    7.1578 C   0  0  0  0  0  0  0  0  0  0  0  0
    5.1299   -4.5219    5.9390 C   0  0  0  0  0  0  0  0  0  0  0  0
    3.3645   -2.8237    0.9666 N   0  0  0  0  0  0  0  0  0  0  0  0
    1.1100   -0.4809   -0.8292 C   0  0  0  0  0  0  0  0  0  0  0  0
    1.0816    0.8316   -1.3037 C   0  0  0  0  0  0  0  0  0  0  0  0
    2.2266    1.6211   -1.2343 C   0  0  0  0  0  0  0  0  0  0  0  0
    4.3540   -0.6014    0.2359 H   0  0  0  0  0  0  0  0  0  0  0  0
    0.3535   -3.0713   -0.3270 H   0  0  0  0  0  0  0  0  0  0  0  0
    1.1095   -5.2603    1.0954 H   0  0  0  0  0  0  0  0  0  0  0  0
    5.1544   -3.4040    2.4376 H   0  0  0  0  0  0  0  0  0  0  0  0
    5.4327   -6.0672    3.8174 H   0  0  0  0  0  0  0  0  0  0  0  0
    6.6065   -4.6666    1.0597 H   0  0  0  0  0  0  0  0  0  0  0  0
    8.2390   -5.2696    1.1386 H   0  0  0  0  0  0  0  0  0  0  0  0
    7.7797   -3.1816    4.2643 H   0  0  0  0  0  0  0  0  0  0  0  0
    7.9923   -1.9496    6.3562 H   0  0  0  0  0  0  0  0  0  0  0  0
    7.2002   -1.4437    8.6552 H   0  0  0  0  0  0  0  0  0  0  0  0
    5.6273   -1.8581   10.5058 H   0  0  0  0  0  0  0  0  0  0  0  0
    3.8157   -3.5334   10.2500 H   0  0  0  0  0  0  0  0  0  0  0  0
    3.5677   -4.7809    8.1391 H   0  0  0  0  0  0  0  0  0  0  0  0
    4.3245   -5.2461    5.8166 H   0  0  0  0  0  0  0  0  0  0  0  0
    0.1895   -1.0529   -0.9014 H   0  0  0  0  0  0  0  0  0  0  0  0
    0.1627    1.2371   -1.7230 H   0  0  0  0  0  0  0  0  0  0  0  0
    2.1912    2.6442   -1.6077 H   0  0  0  0  0  0  0  0  0  0  0  0
  1  2  3  0  0  0  0
  2  3  1  0  0  0  0
  3  4  2  0  0  0  0
  3 30  1  0  0  0  0
  4  5  1  0  0  0  0
  4 31  1  0  0  0  0
  5  6  1  0  0  0  0
  5 28  2  0  0  0  0
  6  7  1  0  0  0  0
  6 27  1  0  0  0  0
  7  8  2  0  0  0  0
  7 32  1  0  0  0  0
  8  9  1  0  0  0  0
  8 33  1  0  0  0  0
  9 10  1  0  0  0  0
  9 27  2  0  0  0  0
 10 11  2  0  0  0  0
 10 12  1  0  0  0  0
 12 13  1  0  0  0  0
 12 34  1  0  0  0  0
 13 14  1  0  0  0  0
 13 17  1  0  0  0  0
 13 35  1  0  0  0  0
 14 15  1  0  0  0  0
 14 16  2  0  0  0  0
 15 36  1  0  0  0  0
 15 37  1  0  0  0  0
 17 18  2  0  0  0  0
 17 26  1  0  0  0  0
 18 19  1  0  0  0  0
 18 38  1  0  0  0  0
 19 20  2  0  0  0  0
 19 39  1  0  0  0  0
 20 21  1  0  0  0  0
 20 25  1  0  0  0  0
 21 22  2  0  0  0  0
 21 40  1  0  0  0  0
 22 23  1  0  0  0  0
 22 41  1  0  0  0  0
 23 24  2  0  0  0  0
 23 42  1  0  0  0  0
 24 25  1  0  0  0  0
 24 43  1  0  0  0  0
 25 26  2  0  0  0  0
 26 44  1  0  0  0  0
 28 29  1  0  0  0  0
 28 45  1  0  0  0  0
 29 30  2  0  0  0  0
 29 46  1  0  0  0  0
 30 47  1  0  0  0  0
M  END
$$$$
