
 OpenBabel01122422533D

 44 47  0  0  0  0  0  0  0  0999 V2000
    1.9399   -2.1676   -0.7569 O   0  0  0  0  0  0  0  0  0  0  0  0
    2.9370   -2.4430   -1.4155 C   0  0  0  0  0  0  0  0  0  0  0  0
    2.8812   -3.0406   -2.8089 C   0  0  0  0  0  0  0  0  0  0  0  0
    2.2866   -4.3711   -2.7780 N   0  0  0  0  0  0  0  0  0  0  0  0
    0.9181   -4.5390   -2.9388 C   0  0  0  0  0  0  0  0  0  0  0  0
    0.3723   -5.7606   -2.9168 C   0  0  0  0  0  0  0  0  0  0  0  0
   -0.9531   -5.9296   -3.0760 F   0  0  0  0  0  0  0  0  0  0  0  0
    1.1940   -6.9224   -2.7238 C   0  0  0  0  0  0  0  0  0  0  0  0
    2.5156   -6.7927   -2.5324 C   0  0  0  0  0  0  0  0  0  0  0  0
    3.1449   -5.4429   -2.5365 C   0  0  0  0  0  0  0  0  0  0  0  0
    4.3504   -5.3320   -2.3369 O   0  0  0  0  0  0  0  0  0  0  0  0
    4.2203   -2.2453   -1.0094 O   0  0  0  0  0  0  0  0  0  0  0  0
    4.3349   -1.4402    0.1613 C   0  0  0  0  0  0  0  0  0  0  0  0
    5.5520   -1.8100    0.9651 C   0  0  0  0  0  0  0  0  0  0  0  0
    6.1930   -0.8534    1.6300 N   0  0  0  0  0  0  0  0  0  0  0  0
    7.3402   -0.7360    0.8933 C   0  0  0  0  0  0  0  0  0  0  0  0
    8.2053    0.3449    0.7804 C   0  0  0  0  0  0  0  0  0  0  0  0
    9.1849    0.2647   -0.2023 C   0  0  0  0  0  0  0  0  0  0  0  0
    9.9719    1.3348   -0.4120 F   0  0  0  0  0  0  0  0  0  0  0  0
    9.3648   -0.8628   -1.0023 C   0  0  0  0  0  0  0  0  0  0  0  0
    8.5510   -1.9851   -0.8458 C   0  0  0  0  0  0  0  0  0  0  0  0
    7.5306   -1.8713    0.1063 C   0  0  0  0  0  0  0  0  0  0  0  0
    6.5342   -2.7221    0.5706 N   0  0  0  0  0  0  0  0  0  0  0  0
    6.6807   -4.0884    0.9708 C   0  0  0  0  0  0  0  0  0  0  0  0
    7.9595   -4.6692    1.0087 C   0  0  0  0  0  0  0  0  0  0  0  0
    8.1550   -5.9359    1.5671 C   0  0  0  0  0  0  0  0  0  0  0  0
    7.0721   -6.6441    2.0736 C   0  0  0  0  0  0  0  0  0  0  0  0
    5.7926   -6.0883    2.0170 C   0  0  0  0  0  0  0  0  0  0  0  0
    5.5930   -4.8100    1.4742 C   0  0  0  0  0  0  0  0  0  0  0  0
    3.8852   -3.0830   -3.2429 H   0  0  0  0  0  0  0  0  0  0  0  0
    2.2863   -2.3735   -3.4461 H   0  0  0  0  0  0  0  0  0  0  0  0
    0.3077   -3.6552   -3.0786 H   0  0  0  0  0  0  0  0  0  0  0  0
    0.7136   -7.8949   -2.7312 H   0  0  0  0  0  0  0  0  0  0  0  0
    3.1741   -7.6347   -2.3838 H   0  0  0  0  0  0  0  0  0  0  0  0
    3.4479   -1.4328    0.8057 H   0  0  0  0  0  0  0  0  0  0  0  0
    4.4904   -0.4112   -0.1967 H   0  0  0  0  0  0  0  0  0  0  0  0
    8.0605    1.2458    1.3651 H   0  0  0  0  0  0  0  0  0  0  0  0
   10.1408   -0.8538   -1.7609 H   0  0  0  0  0  0  0  0  0  0  0  0
    8.6695   -2.8694   -1.4638 H   0  0  0  0  0  0  0  0  0  0  0  0
    8.8459   -4.1339    0.6831 H   0  0  0  0  0  0  0  0  0  0  0  0
    9.1587   -6.3499    1.6315 H   0  0  0  0  0  0  0  0  0  0  0  0
    7.2275   -7.6209    2.5246 H   0  0  0  0  0  0  0  0  0  0  0  0
    4.9515   -6.6476    2.4183 H   0  0  0  0  0  0  0  0  0  0  0  0
    4.5863   -4.3993    1.4731 H   0  0  0  0  0  0  0  0  0  0  0  0
  1  2  2  0  0  0  0
  2  3  1  0  0  0  0
  2 12  1  0  0  0  0
  3  4  1  0  0  0  0
  3 30  1  0  0  0  0
  3 31  1  0  0  0  0
  4  5  1  0  0  0  0
  4 10  1  0  0  0  0
  5  6  2  0  0  0  0
  5 32  1  0  0  0  0
  6  7  1  0  0  0  0
  6  8  1  0  0  0  0
  8  9  2  0  0  0  0
  8 33  1  0  0  0  0
  9 10  1  0  0  0  0
  9 34  1  0  0  0  0
 10 11  2  0  0  0  0
 12 13  1  0  0  0  0
 13 14  1  0  0  0  0
 13 35  1  0  0  0  0
 13 36  1  0  0  0  0
 14 15  2  0  0  0  0
 14 23  1  0  0  0  0
 15 16  1  0  0  0  0
 16 17  2  0  0  0  0
 16 22  1  0  0  0  0
 17 18  1  0  0  0  0
 17 37  1  0  0  0  0
 18 19  1  0  0  0  0
 18 20  2  0  0  0  0
 20 21  1  0  0  0  0
 20 38  1  0  0  0  0
 21 22  2  0  0  0  0
 21 39  1  0  0  0  0
 22 23  1  0  0  0  0
 23 24  1  0  0  0  0
 24 25  2  0  0  0  0
 24 29  1  0  0  0  0
 25 26  1  0  0  0  0
 25 40  1  0  0  0  0
 26 27  2  0  0  0  0
 26 41  1  0  0  0  0
 27 28  1  0  0  0  0
 27 42  1  0  0  0  0
 28 29  2  0  0  0  0
 28 43  1  0  0  0  0
 29 44  1  0  0  0  0
M  END
$$$$
