
 OpenBabel01122422463D

 45 48  0  0  0  0  0  0  0  0999 V2000
    3.1268   -2.4025    0.9656 O   0  0  0  0  0  0  0  0  0  0  0  0
    3.3040   -1.2991    0.4475 C   0  0  0  0  0  0  0  0  0  0  0  0
    2.9739   -0.1225    1.0699 N   0  0  0  0  0  0  0  0  0  0  0  0
    2.2939   -0.0953    2.3490 C   0  0  0  0  0  0  0  0  0  0  0  0
    3.2483   -0.0430    3.5186 C   0  0  0  0  0  0  0  0  0  0  0  0
    3.7258   -1.2238    4.0805 C   0  0  0  0  0  0  0  0  0  0  0  0
    4.6895   -1.1496    5.0837 C   0  0  0  0  0  0  0  0  0  0  0  0
    5.2758   -2.2408    5.6866 O   0  0  0  0  0  0  0  0  0  0  0  0
    5.4942   -3.3960    4.9682 C   0  0  0  0  0  0  0  0  0  0  0  0
    5.7512   -3.4352    3.5906 C   0  0  0  0  0  0  0  0  0  0  0  0
    5.9044   -4.6591    2.9372 C   0  0  0  0  0  0  0  0  0  0  0  0
    5.8706   -5.8357    3.6743 C   0  0  0  0  0  0  0  0  0  0  0  0
    6.0222   -7.0087    3.0454 F   0  0  0  0  0  0  0  0  0  0  0  0
    5.6930   -5.7965    5.0526 C   0  0  0  0  0  0  0  0  0  0  0  0
    5.6958   -6.9319    5.7638 F   0  0  0  0  0  0  0  0  0  0  0  0
    5.5023   -4.5825    5.7069 C   0  0  0  0  0  0  0  0  0  0  0  0
    5.0690    0.0948    5.5701 C   0  0  0  0  0  0  0  0  0  0  0  0
    4.5192    1.2193    4.9814 C   0  0  0  0  0  0  0  0  0  0  0  0
    3.6409    1.1797    3.9551 N   0  0  0  0  0  0  0  0  0  0  0  0
    3.8529   -1.1645   -0.8973 C   0  0  0  0  0  0  0  0  0  0  0  0
    4.1136    0.0083   -1.5101 N   0  0  0  0  0  0  0  0  0  0  0  0
    4.5425   -0.3991   -2.7425 N   0  0  0  0  0  0  0  0  0  0  0  0
    4.9411    0.5141   -3.7548 C   0  0  0  0  0  0  0  0  0  0  0  0
    4.9966    1.8897   -3.4844 C   0  0  0  0  0  0  0  0  0  0  0  0
    5.4121    2.7754   -4.4820 C   0  0  0  0  0  0  0  0  0  0  0  0
    5.7523    2.2887   -5.7406 C   0  0  0  0  0  0  0  0  0  0  0  0
    6.1458    3.1439   -6.6934 F   0  0  0  0  0  0  0  0  0  0  0  0
    5.6910    0.9298   -6.0250 C   0  0  0  0  0  0  0  0  0  0  0  0
    5.2906    0.0357   -5.0302 C   0  0  0  0  0  0  0  0  0  0  0  0
    4.5760   -1.7420   -2.9478 N   0  0  0  0  0  0  0  0  0  0  0  0
    4.1572   -2.2178   -1.7766 C   0  0  0  0  0  0  0  0  0  0  0  0
    3.2505    0.7471    0.6263 H   0  0  0  0  0  0  0  0  0  0  0  0
    1.6419   -0.9722    2.4374 H   0  0  0  0  0  0  0  0  0  0  0  0
    1.6497    0.7906    2.3582 H   0  0  0  0  0  0  0  0  0  0  0  0
    3.3646   -2.1775    3.7094 H   0  0  0  0  0  0  0  0  0  0  0  0
    5.8113   -2.5229    3.0029 H   0  0  0  0  0  0  0  0  0  0  0  0
    6.0434   -4.6969    1.8617 H   0  0  0  0  0  0  0  0  0  0  0  0
    5.3572   -4.5713    6.7818 H   0  0  0  0  0  0  0  0  0  0  0  0
    5.7816    0.1870    6.3817 H   0  0  0  0  0  0  0  0  0  0  0  0
    4.7827    2.2153    5.3263 H   0  0  0  0  0  0  0  0  0  0  0  0
    4.7341    2.2828   -2.5044 H   0  0  0  0  0  0  0  0  0  0  0  0
    5.4754    3.8413   -4.2856 H   0  0  0  0  0  0  0  0  0  0  0  0
    5.9570    0.5741   -7.0157 H   0  0  0  0  0  0  0  0  0  0  0  0
    5.2507   -1.0269   -5.2638 H   0  0  0  0  0  0  0  0  0  0  0  0
    4.0733   -3.2840   -1.6166 H   0  0  0  0  0  0  0  0  0  0  0  0
  1  2  2  0  0  0  0
  2  3  1  0  0  0  0
  2 20  1  0  0  0  0
  3  4  1  0  0  0  0
  3 32  1  0  0  0  0
  4  5  1  0  0  0  0
  4 33  1  0  0  0  0
  4 34  1  0  0  0  0
  5  6  2  0  0  0  0
  5 19  1  0  0  0  0
  6  7  1  0  0  0  0
  6 35  1  0  0  0  0
  7  8  1  0  0  0  0
  7 17  2  0  0  0  0
  8  9  1  0  0  0  0
  9 10  2  0  0  0  0
  9 16  1  0  0  0  0
 10 11  1  0  0  0  0
 10 36  1  0  0  0  0
 11 12  2  0  0  0  0
 11 37  1  0  0  0  0
 12 13  1  0  0  0  0
 12 14  1  0  0  0  0
 14 15  1  0  0  0  0
 14 16  2  0  0  0  0
 16 38  1  0  0  0  0
 17 18  1  0  0  0  0
 17 39  1  0  0  0  0
 18 19  2  0  0  0  0
 18 40  1  0  0  0  0
 20 21  2  0  0  0  0
 20 31  1  0  0  0  0
 21 22  1  0  0  0  0
 22 23  1  0  0  0  0
 22 30  1  0  0  0  0
 23 24  2  0  0  0  0
 23 29  1  0  0  0  0
 24 25  1  0  0  0  0
 24 41  1  0  0  0  0
 25 26  2  0  0  0  0
 25 42  1  0  0  0  0
 26 27  1  0  0  0  0
 26 28  1  0  0  0  0
 28 29  2  0  0  0  0
 28 43  1  0  0  0  0
 29 44  1  0  0  0  0
 30 31  2  0  0  0  0
 31 45  1  0  0  0  0
M  END
$$$$
