
 OpenBabel01122422533D

 44 47  0  0  0  0  0  0  0  0999 V2000
    1.1000    0.0383    0.0183 O   0  0  0  0  0  0  0  0  0  0  0  0
    2.3232    0.0640    0.1125 C   0  0  0  0  0  0  0  0  0  0  0  0
    2.9787    0.7063    1.1362 N   0  0  0  0  0  0  0  0  0  0  0  0
    2.2655    1.4427    2.1506 C   0  0  0  0  0  0  0  0  0  0  0  0
    3.0442    1.3887    3.4121 C   0  0  0  0  0  0  0  0  0  0  0  0
    3.4001    0.2765    4.1500 C   0  0  0  0  0  0  0  0  0  0  0  0
    4.0484    0.7153    5.2842 N   0  0  0  0  0  0  0  0  0  0  0  0
    4.5252   -0.0646    6.3763 C   0  0  0  0  0  0  0  0  0  0  0  0
    4.4414   -1.4647    6.3585 C   0  0  0  0  0  0  0  0  0  0  0  0
    4.8789   -2.2079    7.4602 C   0  0  0  0  0  0  0  0  0  0  0  0
    5.3969   -1.5584    8.5788 C   0  0  0  0  0  0  0  0  0  0  0  0
    5.9102   -2.4790    9.9381 Cl  0  0  0  0  0  0  0  0  0  0  0  0
    5.4958   -0.1698    8.6032 C   0  0  0  0  0  0  0  0  0  0  0  0
    5.0653    0.5781    7.5026 C   0  0  0  0  0  0  0  0  0  0  0  0
    4.1721    2.0679    5.2793 N   0  0  0  0  0  0  0  0  0  0  0  0
    3.5625    2.4618    4.1609 C   0  0  0  0  0  0  0  0  0  0  0  0
    3.1572   -0.6252   -0.9109 C   0  0  0  0  0  0  0  0  0  0  0  0
    2.5206   -1.2783   -1.9730 C   0  0  0  0  0  0  0  0  0  0  0  0
    3.2722   -1.9441   -2.9546 C   0  0  0  0  0  0  0  0  0  0  0  0
    4.6771   -1.9882   -2.9031 C   0  0  0  0  0  0  0  0  0  0  0  0
    5.4747   -2.6965   -3.9214 C   0  0  0  0  0  0  0  0  0  0  0  0
    6.7411   -2.2882   -4.3204 C   0  0  0  0  0  0  0  0  0  0  0  0
    7.5154   -2.9260   -5.2262 N   0  0  0  0  0  0  0  0  0  0  0  0
    6.9840   -4.0294   -5.7665 C   0  0  0  0  0  0  0  0  0  0  0  0
    5.7745   -4.5315   -5.4865 N   0  0  0  0  0  0  0  0  0  0  0  0
    5.0538   -3.8497   -4.5667 C   0  0  0  0  0  0  0  0  0  0  0  0
    5.2956   -1.3292   -1.8268 C   0  0  0  0  0  0  0  0  0  0  0  0
    4.5482   -0.6585   -0.8565 C   0  0  0  0  0  0  0  0  0  0  0  0
    5.2204   -0.0489    0.1321 F   0  0  0  0  0  0  0  0  0  0  0  0
    3.9898    0.7799    1.1201 H   0  0  0  0  0  0  0  0  0  0  0  0
    1.2674    1.0180    2.3002 H   0  0  0  0  0  0  0  0  0  0  0  0
    2.1517    2.4715    1.7940 H   0  0  0  0  0  0  0  0  0  0  0  0
    3.2045   -0.7683    3.9651 H   0  0  0  0  0  0  0  0  0  0  0  0
    4.0439   -2.0102    5.5080 H   0  0  0  0  0  0  0  0  0  0  0  0
    4.8073   -3.2927    7.4402 H   0  0  0  0  0  0  0  0  0  0  0  0
    5.8974    0.3396    9.4753 H   0  0  0  0  0  0  0  0  0  0  0  0
    5.1419    1.6637    7.5443 H   0  0  0  0  0  0  0  0  0  0  0  0
    3.5125    3.5215    3.9423 H   0  0  0  0  0  0  0  0  0  0  0  0
    1.4333   -1.2738   -2.0457 H   0  0  0  0  0  0  0  0  0  0  0  0
    2.7271   -2.4202   -3.7707 H   0  0  0  0  0  0  0  0  0  0  0  0
    7.2010   -1.3895   -3.9161 H   0  0  0  0  0  0  0  0  0  0  0  0
    7.5865   -4.5631   -6.4929 H   0  0  0  0  0  0  0  0  0  0  0  0
    4.0878   -4.2997   -4.3530 H   0  0  0  0  0  0  0  0  0  0  0  0
    6.3760   -1.3344   -1.7066 H   0  0  0  0  0  0  0  0  0  0  0  0
  1  2  2  0  0  0  0
  2  3  1  0  0  0  0
  2 17  1  0  0  0  0
  3  4  1  0  0  0  0
  3 30  1  0  0  0  0
  4  5  1  0  0  0  0
  4 31  1  0  0  0  0
  4 32  1  0  0  0  0
  5  6  2  0  0  0  0
  5 16  1  0  0  0  0
  6  7  1  0  0  0  0
  6 33  1  0  0  0  0
  7  8  1  0  0  0  0
  7 15  1  0  0  0  0
  8  9  2  0  0  0  0
  8 14  1  0  0  0  0
  9 10  1  0  0  0  0
  9 34  1  0  0  0  0
 10 11  2  0  0  0  0
 10 35  1  0  0  0  0
 11 12  1  0  0  0  0
 11 13  1  0  0  0  0
 13 14  2  0  0  0  0
 13 36  1  0  0  0  0
 14 37  1  0  0  0  0
 15 16  2  0  0  0  0
 16 38  1  0  0  0  0
 17 18  2  0  0  0  0
 17 28  1  0  0  0  0
 18 19  1  0  0  0  0
 18 39  1  0  0  0  0
 19 20  2  0  0  0  0
 19 40  1  0  0  0  0
 20 21  1  0  0  0  0
 20 27  1  0  0  0  0
 21 22  2  0  0  0  0
 21 26  1  0  0  0  0
 22 23  1  0  0  0  0
 22 41  1  0  0  0  0
 23 24  2  0  0  0  0
 24 25  1  0  0  0  0
 24 42  1  0  0  0  0
 25 26  2  0  0  0  0
 26 43  1  0  0  0  0
 27 28  2  0  0  0  0
 27 44  1  0  0  0  0
 28 29  1  0  0  0  0
M  END
$$$$
