
 OpenBabel01122422533D

 48 51  0  0  0  0  0  0  0  0999 V2000
    1.7239    4.9377    0.1054 O   0  0  0  0  0  0  0  0  0  0  0  0
    2.6265    4.8056   -0.7001 C   0  0  0  0  0  0  0  0  0  0  0  0
    3.2755    5.8403   -1.2613 O   0  0  0  0  0  0  0  0  0  0  0  0
    3.0731    3.4744   -1.1864 C   0  0  0  0  0  0  0  0  0  0  0  0
    2.1431    2.4386   -1.2477 C   0  0  0  0  0  0  0  0  0  0  0  0
    2.5376    1.1832   -1.6916 C   0  0  0  0  0  0  0  0  0  0  0  0
    3.8606    0.9663   -2.0817 C   0  0  0  0  0  0  0  0  0  0  0  0
    4.8223    1.9964   -2.0459 C   0  0  0  0  0  0  0  0  0  0  0  0
    6.2007    1.7782   -2.5387 C   0  0  0  0  0  0  0  0  0  0  0  0
    7.3063    2.4460   -1.9885 C   0  0  0  0  0  0  0  0  0  0  0  0
    8.5934    2.2500   -2.4952 C   0  0  0  0  0  0  0  0  0  0  0  0
    8.8087    1.3441   -3.5337 C   0  0  0  0  0  0  0  0  0  0  0  0
    7.7413    0.6227   -4.0834 C   0  0  0  0  0  0  0  0  0  0  0  0
    7.9917   -0.3729   -5.1962 C   0  0  0  0  0  0  0  0  0  0  0  0
    7.0316   -1.4576   -5.2255 N   0  0  0  0  0  0  0  0  0  0  0  0
    7.3632   -2.7634   -4.9430 C   0  0  0  0  0  0  0  0  0  0  0  0
    8.5064   -3.1252   -4.6865 O   0  0  0  0  0  0  0  0  0  0  0  0
    6.2174   -3.6708   -4.9653 C   0  0  0  0  0  0  0  0  0  0  0  0
    6.0391   -4.8671   -4.2772 C   0  0  0  0  0  0  0  0  0  0  0  0
    6.8107   -5.5748   -3.2587 C   0  0  0  0  0  0  0  0  0  0  0  0
    7.5638   -4.8584   -2.3191 C   0  0  0  0  0  0  0  0  0  0  0  0
    8.2953   -5.5142   -1.3279 C   0  0  0  0  0  0  0  0  0  0  0  0
    8.2704   -6.9028   -1.2508 C   0  0  0  0  0  0  0  0  0  0  0  0
    7.5189   -7.6332   -2.1684 C   0  0  0  0  0  0  0  0  0  0  0  0
    6.7946   -6.9749   -3.1682 C   0  0  0  0  0  0  0  0  0  0  0  0
    4.8011   -5.2788   -4.7050 N   0  0  0  0  0  0  0  0  0  0  0  0
    4.2323   -4.4014   -5.5465 N   0  0  0  0  0  0  0  0  0  0  0  0
    5.0855   -3.4022   -5.7069 N   0  0  0  0  0  0  0  0  0  0  0  0
    6.4475    0.8943   -3.6082 C   0  0  0  0  0  0  0  0  0  0  0  0
    4.4083    3.2461   -1.5549 C   0  0  0  0  0  0  0  0  0  0  0  0
    3.8376    5.6157   -2.0248 H   0  0  0  0  0  0  0  0  0  0  0  0
    1.1088    2.6098   -0.9503 H   0  0  0  0  0  0  0  0  0  0  0  0
    1.8184    0.3685   -1.7405 H   0  0  0  0  0  0  0  0  0  0  0  0
    4.1341   -0.0338   -2.4116 H   0  0  0  0  0  0  0  0  0  0  0  0
    7.1873    3.1265   -1.1492 H   0  0  0  0  0  0  0  0  0  0  0  0
    9.4295    2.7974   -2.0659 H   0  0  0  0  0  0  0  0  0  0  0  0
    9.8224    1.1992   -3.9022 H   0  0  0  0  0  0  0  0  0  0  0  0
    9.0010   -0.7862   -5.0943 H   0  0  0  0  0  0  0  0  0  0  0  0
    7.9251    0.1410   -6.1596 H   0  0  0  0  0  0  0  0  0  0  0  0
    6.0662   -1.2672   -5.4636 H   0  0  0  0  0  0  0  0  0  0  0  0
    7.5999   -3.7711   -2.3424 H   0  0  0  0  0  0  0  0  0  0  0  0
    8.8858   -4.9351   -0.6225 H   0  0  0  0  0  0  0  0  0  0  0  0
    8.8423   -7.4127   -0.4802 H   0  0  0  0  0  0  0  0  0  0  0  0
    7.5054   -8.7188   -2.1109 H   0  0  0  0  0  0  0  0  0  0  0  0
    6.2377   -7.5790   -3.8802 H   0  0  0  0  0  0  0  0  0  0  0  0
    4.2758   -6.1016   -4.4350 H   0  0  0  0  0  0  0  0  0  0  0  0
    5.6043    0.4027   -4.0874 H   0  0  0  0  0  0  0  0  0  0  0  0
    5.1360    4.0497   -1.4593 H   0  0  0  0  0  0  0  0  0  0  0  0
  1  2  2  0  0  0  0
  2  3  1  0  0  0  0
  2  4  1  0  0  0  0
  3 31  1  0  0  0  0
  4  5  2  0  0  0  0
  4 30  1  0  0  0  0
  5  6  1  0  0  0  0
  5 32  1  0  0  0  0
  6  7  2  0  0  0  0
  6 33  1  0  0  0  0
  7  8  1  0  0  0  0
  7 34  1  0  0  0  0
  8  9  1  0  0  0  0
  8 30  2  0  0  0  0
  9 10  2  0  0  0  0
  9 29  1  0  0  0  0
 10 11  1  0  0  0  0
 10 35  1  0  0  0  0
 11 12  2  0  0  0  0
 11 36  1  0  0  0  0
 12 13  1  0  0  0  0
 12 37  1  0  0  0  0
 13 14  1  0  0  0  0
 13 29  2  0  0  0  0
 14 15  1  0  0  0  0
 14 38  1  0  0  0  0
 14 39  1  0  0  0  0
 15 16  1  0  0  0  0
 15 40  1  0  0  0  0
 16 17  2  0  0  0  0
 16 18  1  0  0  0  0
 18 19  2  0  0  0  0
 18 28  1  0  0  0  0
 19 20  1  0  0  0  0
 19 26  1  0  0  0  0
 20 21  2  0  0  0  0
 20 25  1  0  0  0  0
 21 22  1  0  0  0  0
 21 41  1  0  0  0  0
 22 23  2  0  0  0  0
 22 42  1  0  0  0  0
 23 24  1  0  0  0  0
 23 43  1  0  0  0  0
 24 25  2  0  0  0  0
 24 44  1  0  0  0  0
 25 45  1  0  0  0  0
 26 27  1  0  0  0  0
 26 46  1  0  0  0  0
 27 28  2  0  0  0  0
 29 47  1  0  0  0  0
 30 48  1  0  0  0  0
M  END
$$$$
