
 OpenBabel01122422533D

 50 53  0  0  0  0  0  0  0  0999 V2000
   11.7566   -3.2866  -11.0357 C   0  0  0  0  0  0  0  0  0  0  0  0
   10.4399   -3.5260  -11.0702 C   0  0  0  0  0  0  0  0  0  0  0  0
    9.4174   -2.6775  -10.4430 C   0  0  0  0  0  0  0  0  0  0  0  0
    9.5667   -1.2897  -10.2972 C   0  0  0  0  0  0  0  0  0  0  0  0
    8.5610   -0.5150   -9.7048 C   0  0  0  0  0  0  0  0  0  0  0  0
    7.3854   -1.1259   -9.2619 C   0  0  0  0  0  0  0  0  0  0  0  0
    6.2723   -0.3743   -8.6304 C   0  0  0  0  0  0  0  0  0  0  0  0
    5.1241   -0.8025   -8.7260 O   0  0  0  0  0  0  0  0  0  0  0  0
    6.5983    0.7572   -7.9208 N   0  0  0  0  0  0  0  0  0  0  0  0
    5.5880    1.5133   -7.2256 C   0  0  0  0  0  0  0  0  0  0  0  0
    5.0562    2.6536   -8.0636 C   0  0  0  0  0  0  0  0  0  0  0  0
    3.9545    2.3823   -8.8998 C   0  0  0  0  0  0  0  0  0  0  0  0
    3.3188    3.3949   -9.6174 C   0  0  0  0  0  0  0  0  0  0  0  0
    3.7596    4.7066   -9.5020 C   0  0  0  0  0  0  0  0  0  0  0  0
    4.8627    5.0002   -8.7010 C   0  0  0  0  0  0  0  0  0  0  0  0
    5.5413    3.9761   -8.0104 C   0  0  0  0  0  0  0  0  0  0  0  0
    6.7195    4.3161   -7.2991 N   0  0  0  0  0  0  0  0  0  0  0  0
    7.0651    5.5452   -6.7910 C   0  0  0  0  0  0  0  0  0  0  0  0
    8.3095    5.3601   -6.2394 C   0  0  0  0  0  0  0  0  0  0  0  0
    9.0776    6.3580   -5.5339 C   0  0  0  0  0  0  0  0  0  0  0  0
   10.4677    6.3306   -5.5690 C   0  0  0  0  0  0  0  0  0  0  0  0
   11.1507    7.3205   -4.8857 C   0  0  0  0  0  0  0  0  0  0  0  0
   10.5490    8.3032   -4.1760 N   0  0  0  0  0  0  0  0  0  0  0  0
    9.2085    8.3001   -4.1371 C   0  0  0  0  0  0  0  0  0  0  0  0
    8.5948    9.3264   -3.4238 N   0  0  0  0  0  0  0  0  0  0  0  0
    8.4395    7.3630   -4.8043 C   0  0  0  0  0  0  0  0  0  0  0  0
    8.7122    4.0741   -6.4513 N   0  0  0  0  0  0  0  0  0  0  0  0
    7.7305    3.4385   -7.0770 N   0  0  0  0  0  0  0  0  0  0  0  0
    7.2144   -2.5037   -9.4387 C   0  0  0  0  0  0  0  0  0  0  0  0
    8.2218   -3.2725  -10.0235 C   0  0  0  0  0  0  0  0  0  0  0  0
   12.4507   -3.9719  -11.5125 H   0  0  0  0  0  0  0  0  0  0  0  0
   12.1832   -2.4287  -10.5268 H   0  0  0  0  0  0  0  0  0  0  0  0
   10.0802   -4.4226  -11.5714 H   0  0  0  0  0  0  0  0  0  0  0  0
   10.4629   -0.7915  -10.6596 H   0  0  0  0  0  0  0  0  0  0  0  0
    8.7016    0.5601   -9.6289 H   0  0  0  0  0  0  0  0  0  0  0  0
    7.5578    1.0578   -7.8022 H   0  0  0  0  0  0  0  0  0  0  0  0
    6.0026    1.8654   -6.2753 H   0  0  0  0  0  0  0  0  0  0  0  0
    4.7610    0.8521   -6.9379 H   0  0  0  0  0  0  0  0  0  0  0  0
    3.5792    1.3620   -8.9868 H   0  0  0  0  0  0  0  0  0  0  0  0
    2.4750    3.1549  -10.2592 H   0  0  0  0  0  0  0  0  0  0  0  0
    3.2599    5.4986  -10.0543 H   0  0  0  0  0  0  0  0  0  0  0  0
    5.2034    6.0325   -8.6790 H   0  0  0  0  0  0  0  0  0  0  0  0
    6.4060    6.3983   -6.8273 H   0  0  0  0  0  0  0  0  0  0  0  0
   11.0097    5.5723   -6.1252 H   0  0  0  0  0  0  0  0  0  0  0  0
   12.2360    7.3575   -4.8958 H   0  0  0  0  0  0  0  0  0  0  0  0
    9.3359    9.8586   -2.9739 H   0  0  0  0  0  0  0  0  0  0  0  0
    7.9246    8.9708   -2.7532 H   0  0  0  0  0  0  0  0  0  0  0  0
    7.3587    7.4216   -4.7437 H   0  0  0  0  0  0  0  0  0  0  0  0
    6.2916   -2.9836   -9.1160 H   0  0  0  0  0  0  0  0  0  0  0  0
    8.0612   -4.3421  -10.1400 H   0  0  0  0  0  0  0  0  0  0  0  0
  1  2  2  0  0  0  0
  1 31  1  0  0  0  0
  1 32  1  0  0  0  0
  2  3  1  0  0  0  0
  2 33  1  0  0  0  0
  3  4  2  0  0  0  0
  3 30  1  0  0  0  0
  4  5  1  0  0  0  0
  4 34  1  0  0  0  0
  5  6  2  0  0  0  0
  5 35  1  0  0  0  0
  6  7  1  0  0  0  0
  6 29  1  0  0  0  0
  7  8  2  0  0  0  0
  7  9  1  0  0  0  0
  9 10  1  0  0  0  0
  9 36  1  0  0  0  0
 10 11  1  0  0  0  0
 10 37  1  0  0  0  0
 10 38  1  0  0  0  0
 11 12  2  0  0  0  0
 11 16  1  0  0  0  0
 12 13  1  0  0  0  0
 12 39  1  0  0  0  0
 13 14  2  0  0  0  0
 13 40  1  0  0  0  0
 14 15  1  0  0  0  0
 14 41  1  0  0  0  0
 15 16  2  0  0  0  0
 15 42  1  0  0  0  0
 16 17  1  0  0  0  0
 17 18  1  0  0  0  0
 17 28  1  0  0  0  0
 18 19  2  0  0  0  0
 18 43  1  0  0  0  0
 19 20  1  0  0  0  0
 19 27  1  0  0  0  0
 20 21  2  0  0  0  0
 20 26  1  0  0  0  0
 21 22  1  0  0  0  0
 21 44  1  0  0  0  0
 22 23  2  0  0  0  0
 22 45  1  0  0  0  0
 23 24  1  0  0  0  0
 24 25  1  0  0  0  0
 24 26  2  0  0  0  0
 25 46  1  0  0  0  0
 25 47  1  0  0  0  0
 26 48  1  0  0  0  0
 27 28  2  0  0  0  0
 29 30  2  0  0  0  0
 29 49  1  0  0  0  0
 30 50  1  0  0  0  0
M  END
$$$$
