
 OpenBabel01122422533D

 46 49  0  0  0  0  0  0  0  0999 V2000
   -1.9133    6.1243   -0.2142 N   0  0  0  0  0  0  0  0  0  0  0  0
   -1.0687    5.4689   -0.6736 C   0  0  0  0  0  0  0  0  0  0  0  0
   -0.0071    4.7258   -1.2860 C   0  0  0  0  0  0  0  0  0  0  0  0
    0.8813    5.4463   -2.1027 C   0  0  0  0  0  0  0  0  0  0  0  0
    1.9892    4.8259   -2.6770 C   0  0  0  0  0  0  0  0  0  0  0  0
    2.2177    3.4726   -2.4547 C   0  0  0  0  0  0  0  0  0  0  0  0
    1.3345    2.7406   -1.6597 C   0  0  0  0  0  0  0  0  0  0  0  0
    0.2155    3.3582   -1.0760 C   0  0  0  0  0  0  0  0  0  0  0  0
   -0.4846    2.5469   -0.2116 O   0  0  0  0  0  0  0  0  0  0  0  0
   -1.8704    2.5715   -0.2139 C   0  0  0  0  0  0  0  0  0  0  0  0
   -2.4776    2.0699    0.9227 C   0  0  0  0  0  0  0  0  0  0  0  0
   -3.8670    2.0478    0.9766 C   0  0  0  0  0  0  0  0  0  0  0  0
   -4.6166    2.5281   -0.0940 C   0  0  0  0  0  0  0  0  0  0  0  0
   -6.0313    2.4961   -0.1369 N   0  0  0  0  0  0  0  0  0  0  0  0
   -6.8550    1.9459    0.8282 C   0  0  0  0  0  0  0  0  0  0  0  0
   -6.5011    1.4304    1.8825 O   0  0  0  0  0  0  0  0  0  0  0  0
   -8.3326    2.0124    0.4908 C   0  0  0  0  0  0  0  0  0  0  0  0
   -9.0158    3.2293    1.0590 C   0  0  0  0  0  0  0  0  0  0  0  0
   -9.6433    4.1483    0.2112 C   0  0  0  0  0  0  0  0  0  0  0  0
  -10.4044    5.1903    0.7443 C   0  0  0  0  0  0  0  0  0  0  0  0
  -10.5324    5.3479    2.1302 C   0  0  0  0  0  0  0  0  0  0  0  0
  -11.3932    6.3955    2.6639 C   0  0  0  0  0  0  0  0  0  0  0  0
  -12.4850    6.8945    2.1148 N   0  0  0  0  0  0  0  0  0  0  0  0
  -13.0024    7.8481    2.9628 N   0  0  0  0  0  0  0  0  0  0  0  0
  -12.2036    7.9296    3.9986 C   0  0  0  0  0  0  0  0  0  0  0  0
  -11.1838    7.0431    3.8550 N   0  0  0  0  0  0  0  0  0  0  0  0
   -9.8560    4.4608    2.9768 C   0  0  0  0  0  0  0  0  0  0  0  0
   -9.1028    3.4125    2.4465 C   0  0  0  0  0  0  0  0  0  0  0  0
   -3.9025    3.0407   -1.1792 C   0  0  0  0  0  0  0  0  0  0  0  0
   -2.5495    3.0404   -1.2827 N   0  0  0  0  0  0  0  0  0  0  0  0
    0.7198    6.5102   -2.2748 H   0  0  0  0  0  0  0  0  0  0  0  0
    2.6786    5.4058   -3.2856 H   0  0  0  0  0  0  0  0  0  0  0  0
    3.0905    2.9894   -2.8876 H   0  0  0  0  0  0  0  0  0  0  0  0
    1.5289    1.6852   -1.4793 H   0  0  0  0  0  0  0  0  0  0  0  0
   -1.8920    1.7014    1.7571 H   0  0  0  0  0  0  0  0  0  0  0  0
   -4.3248    1.6495    1.8738 H   0  0  0  0  0  0  0  0  0  0  0  0
   -6.4667    2.8703   -0.9707 H   0  0  0  0  0  0  0  0  0  0  0  0
   -8.8138    1.1172    0.9103 H   0  0  0  0  0  0  0  0  0  0  0  0
   -8.4777    1.9433   -0.5927 H   0  0  0  0  0  0  0  0  0  0  0  0
   -9.5803    4.0403   -0.8690 H   0  0  0  0  0  0  0  0  0  0  0  0
  -10.9222    5.8695    0.0685 H   0  0  0  0  0  0  0  0  0  0  0  0
  -12.3104    8.5917    4.8451 H   0  0  0  0  0  0  0  0  0  0  0  0
  -10.4082    6.9000    4.4827 H   0  0  0  0  0  0  0  0  0  0  0  0
   -9.9462    4.5347    4.0570 H   0  0  0  0  0  0  0  0  0  0  0  0
   -8.6133    2.7152    3.1262 H   0  0  0  0  0  0  0  0  0  0  0  0
   -4.4064    3.4846   -2.0336 H   0  0  0  0  0  0  0  0  0  0  0  0
  1  2  3  0  0  0  0
  2  3  1  0  0  0  0
  3  4  2  0  0  0  0
  3  8  1  0  0  0  0
  4  5  1  0  0  0  0
  4 31  1  0  0  0  0
  5  6  2  0  0  0  0
  5 32  1  0  0  0  0
  6  7  1  0  0  0  0
  6 33  1  0  0  0  0
  7  8  2  0  0  0  0
  7 34  1  0  0  0  0
  8  9  1  0  0  0  0
  9 10  1  0  0  0  0
 10 11  2  0  0  0  0
 10 30  1  0  0  0  0
 11 12  1  0  0  0  0
 11 35  1  0  0  0  0
 12 13  2  0  0  0  0
 12 36  1  0  0  0  0
 13 14  1  0  0  0  0
 13 29  1  0  0  0  0
 14 15  1  0  0  0  0
 14 37  1  0  0  0  0
 15 16  2  0  0  0  0
 15 17  1  0  0  0  0
 17 18  1  0  0  0  0
 17 38  1  0  0  0  0
 17 39  1  0  0  0  0
 18 19  2  0  0  0  0
 18 28  1  0  0  0  0
 19 20  1  0  0  0  0
 19 40  1  0  0  0  0
 20 21  2  0  0  0  0
 20 41  1  0  0  0  0
 21 22  1  0  0  0  0
 21 27  1  0  0  0  0
 22 23  2  0  0  0  0
 22 26  1  0  0  0  0
 23 24  1  0  0  0  0
 24 25  2  0  0  0  0
 25 26  1  0  0  0  0
 25 42  1  0  0  0  0
 26 43  1  0  0  0  0
 27 28  2  0  0  0  0
 27 44  1  0  0  0  0
 28 45  1  0  0  0  0
 29 30  2  0  0  0  0
 29 46  1  0  0  0  0
M  END
$$$$
