
 OpenBabel01122422463D

 60 63  0  0  0  0  0  0  0  0999 V2000
    9.0602    3.9896    1.1770 C   0  0  0  0  0  0  0  0  0  0  0  0
    7.5993    3.5767    1.2755 C   0  0  0  0  0  0  0  0  0  0  0  0
    7.5754    2.1640    1.4556 O   0  0  0  0  0  0  0  0  0  0  0  0
    6.4533    1.5478    1.0264 C   0  0  0  0  0  0  0  0  0  0  0  0
    6.5575    0.3747    0.3325 C   0  0  0  0  0  0  0  0  0  0  0  0
    5.2851   -0.0998    0.1523 N   0  0  0  0  0  0  0  0  0  0  0  0
    4.9201   -1.3505   -0.4306 C   0  0  0  0  0  0  0  0  0  0  0  0
    5.9012   -2.2781   -0.8251 C   0  0  0  0  0  0  0  0  0  0  0  0
    5.5346   -3.5079   -1.3808 C   0  0  0  0  0  0  0  0  0  0  0  0
    4.1893   -3.8207   -1.5511 C   0  0  0  0  0  0  0  0  0  0  0  0
    3.2085   -2.9088   -1.1587 C   0  0  0  0  0  0  0  0  0  0  0  0
    3.5678   -1.6775   -0.5988 C   0  0  0  0  0  0  0  0  0  0  0  0
    4.3526    0.7711    0.6426 N   0  0  0  0  0  0  0  0  0  0  0  0
    5.0588    1.7634    1.2321 C   0  0  0  0  0  0  0  0  0  0  0  0
    4.4360    2.8040    2.0824 C   0  0  0  0  0  0  0  0  0  0  0  0
    5.0712    3.2671    3.0307 O   0  0  0  0  0  0  0  0  0  0  0  0
    3.1320    3.2684    1.8368 N   0  0  0  0  0  0  0  0  0  0  0  0
    2.2837    2.8824    0.6962 C   0  0  0  0  0  0  0  0  0  0  0  0
    1.2415    1.7929    1.0032 C   0  0  0  0  0  0  0  0  0  0  0  0
    1.1549    1.3628    2.2975 N   0  0  0  0  0  0  0  0  0  0  0  0
    0.4629    1.3589    0.1568 O   0  0  0  0  0  0  0  0  0  0  0  0
    2.5658    4.2505    2.7723 C   0  0  0  0  0  0  0  0  0  0  0  0
    2.7177    5.7039    2.3668 C   0  0  0  0  0  0  0  0  0  0  0  0
    1.7409    6.6321    2.7540 C   0  0  0  0  0  0  0  0  0  0  0  0
    1.8575    7.9920    2.4236 C   0  0  0  0  0  0  0  0  0  0  0  0
    2.9639    8.4871    1.7140 C   0  0  0  0  0  0  0  0  0  0  0  0
    3.0787    9.9204    1.3310 C   0  0  0  0  0  0  0  0  0  0  0  0
    2.5454   10.9514    2.1286 C   0  0  0  0  0  0  0  0  0  0  0  0
    2.6474   12.2987    1.7573 C   0  0  0  0  0  0  0  0  0  0  0  0
    3.2989   12.6491    0.5795 C   0  0  0  0  0  0  0  0  0  0  0  0
    3.8401   11.6552   -0.2290 C   0  0  0  0  0  0  0  0  0  0  0  0
    3.7241   10.3094    0.1407 C   0  0  0  0  0  0  0  0  0  0  0  0
    3.9603    7.5522    1.3786 C   0  0  0  0  0  0  0  0  0  0  0  0
    3.8433    6.1909    1.6981 C   0  0  0  0  0  0  0  0  0  0  0  0
    9.1587    5.0726    1.0632 H   0  0  0  0  0  0  0  0  0  0  0  0
    9.5443    3.4984    0.3259 H   0  0  0  0  0  0  0  0  0  0  0  0
    9.6083    3.6792    2.0732 H   0  0  0  0  0  0  0  0  0  0  0  0
    7.0697    3.8845    0.3659 H   0  0  0  0  0  0  0  0  0  0  0  0
    7.1583    4.0698    2.1447 H   0  0  0  0  0  0  0  0  0  0  0  0
    7.4366   -0.1542    0.0008 H   0  0  0  0  0  0  0  0  0  0  0  0
    6.9634   -2.0891   -0.7022 H   0  0  0  0  0  0  0  0  0  0  0  0
    6.2999   -4.2211   -1.6765 H   0  0  0  0  0  0  0  0  0  0  0  0
    3.9040   -4.7776   -1.9823 H   0  0  0  0  0  0  0  0  0  0  0  0
    2.1570   -3.1563   -1.2912 H   0  0  0  0  0  0  0  0  0  0  0  0
    2.7800   -0.9869   -0.3052 H   0  0  0  0  0  0  0  0  0  0  0  0
    2.8925    2.5536   -0.1481 H   0  0  0  0  0  0  0  0  0  0  0  0
    1.7349    3.7729    0.3672 H   0  0  0  0  0  0  0  0  0  0  0  0
    1.9440    1.4812    2.9170 H   0  0  0  0  0  0  0  0  0  0  0  0
    0.5205    0.5943    2.4777 H   0  0  0  0  0  0  0  0  0  0  0  0
    3.0162    4.1251    3.7640 H   0  0  0  0  0  0  0  0  0  0  0  0
    1.4995    4.0188    2.8852 H   0  0  0  0  0  0  0  0  0  0  0  0
    0.8703    6.3094    3.3225 H   0  0  0  0  0  0  0  0  0  0  0  0
    1.0526    8.6588    2.7255 H   0  0  0  0  0  0  0  0  0  0  0  0
    2.0424   10.7209    3.0649 H   0  0  0  0  0  0  0  0  0  0  0  0
    2.2189   13.0711    2.3917 H   0  0  0  0  0  0  0  0  0  0  0  0
    3.3837   13.6932    0.2899 H   0  0  0  0  0  0  0  0  0  0  0  0
    4.3509   11.9210   -1.1509 H   0  0  0  0  0  0  0  0  0  0  0  0
    4.1382    9.5619   -0.5327 H   0  0  0  0  0  0  0  0  0  0  0  0
    4.8667    7.8766    0.8709 H   0  0  0  0  0  0  0  0  0  0  0  0
    4.6575    5.5257    1.4244 H   0  0  0  0  0  0  0  0  0  0  0  0
  1  2  1  0  0  0  0
  1 35  1  0  0  0  0
  1 36  1  0  0  0  0
  1 37  1  0  0  0  0
  2  3  1  0  0  0  0
  2 38  1  0  0  0  0
  2 39  1  0  0  0  0
  3  4  1  0  0  0  0
  4  5  2  0  0  0  0
  4 14  1  0  0  0  0
  5  6  1  0  0  0  0
  5 40  1  0  0  0  0
  6  7  1  0  0  0  0
  6 13  1  0  0  0  0
  7  8  2  0  0  0  0
  7 12  1  0  0  0  0
  8  9  1  0  0  0  0
  8 41  1  0  0  0  0
  9 10  2  0  0  0  0
  9 42  1  0  0  0  0
 10 11  1  0  0  0  0
 10 43  1  0  0  0  0
 11 12  2  0  0  0  0
 11 44  1  0  0  0  0
 12 45  1  0  0  0  0
 13 14  2  0  0  0  0
 14 15  1  0  0  0  0
 15 16  2  0  0  0  0
 15 17  1  0  0  0  0
 17 18  1  0  0  0  0
 17 22  1  0  0  0  0
 18 19  1  0  0  0  0
 18 46  1  0  0  0  0
 18 47  1  0  0  0  0
 19 20  1  0  0  0  0
 19 21  2  0  0  0  0
 20 48  1  0  0  0  0
 20 49  1  0  0  0  0
 22 23  1  0  0  0  0
 22 50  1  0  0  0  0
 22 51  1  0  0  0  0
 23 24  2  0  0  0  0
 23 34  1  0  0  0  0
 24 25  1  0  0  0  0
 24 52  1  0  0  0  0
 25 26  2  0  0  0  0
 25 53  1  0  0  0  0
 26 27  1  0  0  0  0
 26 33  1  0  0  0  0
 27 28  2  0  0  0  0
 27 32  1  0  0  0  0
 28 29  1  0  0  0  0
 28 54  1  0  0  0  0
 29 30  2  0  0  0  0
 29 55  1  0  0  0  0
 30 31  1  0  0  0  0
 30 56  1  0  0  0  0
 31 32  2  0  0  0  0
 31 57  1  0  0  0  0
 32 58  1  0  0  0  0
 33 34  2  0  0  0  0
 33 59  1  0  0  0  0
 34 60  1  0  0  0  0
M  END
$$$$
