
 OpenBabel01122422533D

 52 55  0  0  1  0  0  0  0  0999 V2000
    1.4945   -1.6979   -0.1053 C   0  0  0  0  0  0  0  0  0  0  0  0
    2.8927   -1.5357    0.1193 O   0  0  0  0  0  0  0  0  0  0  0  0
    3.2246   -0.9801    1.3264 C   0  0  0  0  0  0  0  0  0  0  0  0
    2.4369   -1.0492    2.4754 C   0  0  0  0  0  0  0  0  0  0  0  0
    2.8406   -0.3989    3.6401 C   0  0  0  0  0  0  0  0  0  0  0  0
    4.0612    0.2702    3.6795 C   0  0  0  0  0  0  0  0  0  0  0  0
    4.9200    0.2436    2.5722 C   0  0  0  0  0  0  0  0  0  0  0  0
    6.3380    0.7683    2.6896 C   0  0  0  0  0  0  0  0  0  0  0  0
    7.1491    0.0102    3.7726 C   0  0  3  0  0  0  0  0  0  0  0  0
    7.2446   -1.4194    3.5049 N   0  0  0  0  0  0  0  0  0  0  0  0
    7.3671   -2.3308    4.5283 C   0  0  0  0  0  0  0  0  0  0  0  0
    7.3687   -2.0179    5.7145 O   0  0  0  0  0  0  0  0  0  0  0  0
    7.4737   -3.7704    4.1282 C   0  0  0  0  0  0  0  0  0  0  0  0
    7.6021   -4.7190    5.1358 C   0  0  0  0  0  0  0  0  0  0  0  0
    7.6560   -6.0642    4.7867 C   0  0  0  0  0  0  0  0  0  0  0  0
    7.5875   -6.4339    3.4407 C   0  0  0  0  0  0  0  0  0  0  0  0
    7.6277   -7.8047    3.0680 N   0  0  0  0  0  0  0  0  0  0  0  0
    7.6693   -8.8923    3.9182 C   0  0  0  0  0  0  0  0  0  0  0  0
    7.7176  -10.0081    3.1178 C   0  0  0  0  0  0  0  0  0  0  0  0
    7.6941   -9.6544    1.8011 N   0  0  0  0  0  0  0  0  0  0  0  0
    7.6379   -8.3398    1.7985 C   0  0  0  0  0  0  0  0  0  0  0  0
    7.4785   -5.4107    2.4957 C   0  0  0  0  0  0  0  0  0  0  0  0
    7.4176   -4.0849    2.8052 N   0  0  0  0  0  0  0  0  0  0  0  0
    8.5374    0.5965    3.9814 C   0  0  0  0  0  0  0  0  0  0  0  0
    8.8923    1.1232    5.2352 C   0  0  0  0  0  0  0  0  0  0  0  0
   10.1708    1.6336    5.4606 C   0  0  0  0  0  0  0  0  0  0  0  0
   11.1174    1.6183    4.4392 C   0  0  0  0  0  0  0  0  0  0  0  0
   10.7833    1.0911    3.1937 C   0  0  0  0  0  0  0  0  0  0  0  0
    9.5022    0.5823    2.9646 C   0  0  0  0  0  0  0  0  0  0  0  0
    4.4714   -0.3499    1.3828 C   0  0  0  0  0  0  0  0  0  0  0  0
    1.3518   -2.0005   -1.1467 H   0  0  0  0  0  0  0  0  0  0  0  0
    0.9570   -0.7547    0.0468 H   0  0  0  0  0  0  0  0  0  0  0  0
    1.0812   -2.4909    0.5260 H   0  0  0  0  0  0  0  0  0  0  0  0
    1.5109   -1.6126    2.4986 H   0  0  0  0  0  0  0  0  0  0  0  0
    2.2144   -0.4370    4.5274 H   0  0  0  0  0  0  0  0  0  0  0  0
    4.3578    0.7674    4.6005 H   0  0  0  0  0  0  0  0  0  0  0  0
    6.2959    1.8398    2.9269 H   0  0  0  0  0  0  0  0  0  0  0  0
    6.8402    0.6880    1.7171 H   0  0  0  0  0  0  0  0  0  0  0  0
    6.6083    0.1133    4.7228 H   0  0  0  0  0  0  0  0  0  0  0  0
    7.2529   -1.7758    2.5531 H   0  0  0  0  0  0  0  0  0  0  0  0
    7.6526   -4.4165    6.1770 H   0  0  0  0  0  0  0  0  0  0  0  0
    7.7514   -6.7849    5.5916 H   0  0  0  0  0  0  0  0  0  0  0  0
    7.6562   -8.8091    4.9936 H   0  0  0  0  0  0  0  0  0  0  0  0
    7.7631  -11.0444    3.4292 H   0  0  0  0  0  0  0  0  0  0  0  0
    7.6046   -7.7413    0.8977 H   0  0  0  0  0  0  0  0  0  0  0  0
    7.4200   -5.6015    1.4289 H   0  0  0  0  0  0  0  0  0  0  0  0
    8.1767    1.1147    6.0571 H   0  0  0  0  0  0  0  0  0  0  0  0
   10.4319    2.0290    6.4396 H   0  0  0  0  0  0  0  0  0  0  0  0
   12.1163    2.0055    4.6182 H   0  0  0  0  0  0  0  0  0  0  0  0
   11.5259    1.0640    2.4014 H   0  0  0  0  0  0  0  0  0  0  0  0
    9.2698    0.1542    1.9931 H   0  0  0  0  0  0  0  0  0  0  0  0
    5.0975   -0.3418    0.4935 H   0  0  0  0  0  0  0  0  0  0  0  0
  1  2  1  0  0  0  0
  1 31  1  0  0  0  0
  1 32  1  0  0  0  0
  1 33  1  0  0  0  0
  2  3  1  0  0  0  0
  3  4  2  0  0  0  0
  3 30  1  0  0  0  0
  4  5  1  0  0  0  0
  4 34  1  0  0  0  0
  5  6  2  0  0  0  0
  5 35  1  0  0  0  0
  6  7  1  0  0  0  0
  6 36  1  0  0  0  0
  7  8  1  0  0  0  0
  7 30  2  0  0  0  0
  8  9  1  0  0  0  0
  8 37  1  0  0  0  0
  8 38  1  0  0  0  0
  9 10  1  0  0  0  0
  9 24  1  0  0  0  0
  9 39  1  0  0  0  0
 10 11  1  0  0  0  0
 10 40  1  0  0  0  0
 11 12  2  0  0  0  0
 11 13  1  0  0  0  0
 13 14  2  0  0  0  0
 13 23  1  0  0  0  0
 14 15  1  0  0  0  0
 14 41  1  0  0  0  0
 15 16  2  0  0  0  0
 15 42  1  0  0  0  0
 16 17  1  0  0  0  0
 16 22  1  0  0  0  0
 17 18  1  0  0  0  0
 17 21  1  0  0  0  0
 18 19  2  0  0  0  0
 18 43  1  0  0  0  0
 19 20  1  0  0  0  0
 19 44  1  0  0  0  0
 20 21  2  0  0  0  0
 21 45  1  0  0  0  0
 22 23  2  0  0  0  0
 22 46  1  0  0  0  0
 24 25  2  0  0  0  0
 24 29  1  0  0  0  0
 25 26  1  0  0  0  0
 25 47  1  0  0  0  0
 26 27  2  0  0  0  0
 26 48  1  0  0  0  0
 27 28  1  0  0  0  0
 27 49  1  0  0  0  0
 28 29  2  0  0  0  0
 28 50  1  0  0  0  0
 29 51  1  0  0  0  0
 30 52  1  0  0  0  0
M  END
$$$$
