
 OpenBabel01122422533D

 46 49  0  0  0  0  0  0  0  0999 V2000
    9.0451   -3.9784   -1.9694 C   0  0  0  0  0  0  0  0  0  0  0  0
    8.8246   -3.2422   -0.7684 O   0  0  0  0  0  0  0  0  0  0  0  0
    7.7106   -3.5786   -0.0491 C   0  0  0  0  0  0  0  0  0  0  0  0
    7.0004   -4.7632   -0.1813 C   0  0  0  0  0  0  0  0  0  0  0  0
    5.8690   -4.9793    0.6067 C   0  0  0  0  0  0  0  0  0  0  0  0
    5.4331   -4.0557    1.5434 C   0  0  0  0  0  0  0  0  0  0  0  0
    4.3289   -4.3657    2.2356 N   0  0  0  0  0  0  0  0  0  0  0  0
    3.8928   -3.4906    3.1598 C   0  0  0  0  0  0  0  0  0  0  0  0
    4.5332   -2.3042    3.4508 C   0  0  0  0  0  0  0  0  0  0  0  0
    5.7067   -1.9793    2.7577 C   0  0  0  0  0  0  0  0  0  0  0  0
    6.4291   -0.7219    3.1824 C   0  0  0  0  0  0  0  0  0  0  0  0
    5.9682    0.4436    2.4668 N   0  0  0  0  0  0  0  0  0  0  0  0
    5.3022    1.4948    3.0612 C   0  0  0  0  0  0  0  0  0  0  0  0
    4.9467    1.5041    4.2332 O   0  0  0  0  0  0  0  0  0  0  0  0
    4.9866    2.6510    2.1752 C   0  0  0  0  0  0  0  0  0  0  0  0
    3.9281    3.5095    2.4900 C   0  0  0  0  0  0  0  0  0  0  0  0
    3.5721    4.5498    1.6127 C   0  0  0  0  0  0  0  0  0  0  0  0
    4.2663    4.7680    0.4054 C   0  0  0  0  0  0  0  0  0  0  0  0
    3.8657    5.8065   -0.5626 C   0  0  0  0  0  0  0  0  0  0  0  0
    4.7651    6.4817   -1.3778 C   0  0  0  0  0  0  0  0  0  0  0  0
    4.4323    7.3971   -2.3154 N   0  0  0  0  0  0  0  0  0  0  0  0
    3.1226    7.6545   -2.4320 C   0  0  0  0  0  0  0  0  0  0  0  0
    2.1486    7.0904   -1.7083 N   0  0  0  0  0  0  0  0  0  0  0  0
    2.5490    6.1775   -0.7924 C   0  0  0  0  0  0  0  0  0  0  0  0
    5.3559    3.9231    0.1388 C   0  0  0  0  0  0  0  0  0  0  0  0
    5.7075    2.8928    1.0096 C   0  0  0  0  0  0  0  0  0  0  0  0
    6.7563    2.1260    0.6731 F   0  0  0  0  0  0  0  0  0  0  0  0
    6.1672   -2.8591    1.7348 C   0  0  0  0  0  0  0  0  0  0  0  0
    7.3008   -2.6408    0.9088 C   0  0  0  0  0  0  0  0  0  0  0  0
    9.9203   -3.5524   -2.4694 H   0  0  0  0  0  0  0  0  0  0  0  0
    8.1911   -3.8828   -2.6491 H   0  0  0  0  0  0  0  0  0  0  0  0
    9.2672   -5.0307   -1.7628 H   0  0  0  0  0  0  0  0  0  0  0  0
    7.2954   -5.5443   -0.8731 H   0  0  0  0  0  0  0  0  0  0  0  0
    5.3144   -5.9088    0.4932 H   0  0  0  0  0  0  0  0  0  0  0  0
    2.9943   -3.7890    3.6913 H   0  0  0  0  0  0  0  0  0  0  0  0
    4.1378   -1.6494    4.2227 H   0  0  0  0  0  0  0  0  0  0  0  0
    7.5057   -0.8095    3.0075 H   0  0  0  0  0  0  0  0  0  0  0  0
    6.3137   -0.5737    4.2630 H   0  0  0  0  0  0  0  0  0  0  0  0
    6.2398    0.5163    1.4932 H   0  0  0  0  0  0  0  0  0  0  0  0
    3.3592    3.3615    3.4084 H   0  0  0  0  0  0  0  0  0  0  0  0
    2.7331    5.1864    1.8930 H   0  0  0  0  0  0  0  0  0  0  0  0
    5.8360    6.3054   -1.3092 H   0  0  0  0  0  0  0  0  0  0  0  0
    2.8279    8.3807   -3.1817 H   0  0  0  0  0  0  0  0  0  0  0  0
    1.7271    5.7224   -0.2460 H   0  0  0  0  0  0  0  0  0  0  0  0
    5.9415    4.0233   -0.7715 H   0  0  0  0  0  0  0  0  0  0  0  0
    7.8779   -1.7238    0.9933 H   0  0  0  0  0  0  0  0  0  0  0  0
  1  2  1  0  0  0  0
  1 30  1  0  0  0  0
  1 31  1  0  0  0  0
  1 32  1  0  0  0  0
  2  3  1  0  0  0  0
  3  4  2  0  0  0  0
  3 29  1  0  0  0  0
  4  5  1  0  0  0  0
  4 33  1  0  0  0  0
  5  6  2  0  0  0  0
  5 34  1  0  0  0  0
  6  7  1  0  0  0  0
  6 28  1  0  0  0  0
  7  8  2  0  0  0  0
  8  9  1  0  0  0  0
  8 35  1  0  0  0  0
  9 10  2  0  0  0  0
  9 36  1  0  0  0  0
 10 11  1  0  0  0  0
 10 28  1  0  0  0  0
 11 12  1  0  0  0  0
 11 37  1  0  0  0  0
 11 38  1  0  0  0  0
 12 13  1  0  0  0  0
 12 39  1  0  0  0  0
 13 14  2  0  0  0  0
 13 15  1  0  0  0  0
 15 16  2  0  0  0  0
 15 26  1  0  0  0  0
 16 17  1  0  0  0  0
 16 40  1  0  0  0  0
 17 18  2  0  0  0  0
 17 41  1  0  0  0  0
 18 19  1  0  0  0  0
 18 25  1  0  0  0  0
 19 20  2  0  0  0  0
 19 24  1  0  0  0  0
 20 21  1  0  0  0  0
 20 42  1  0  0  0  0
 21 22  2  0  0  0  0
 22 23  1  0  0  0  0
 22 43  1  0  0  0  0
 23 24  2  0  0  0  0
 24 44  1  0  0  0  0
 25 26  2  0  0  0  0
 25 45  1  0  0  0  0
 26 27  1  0  0  0  0
 28 29  2  0  0  0  0
 29 46  1  0  0  0  0
M  END
$$$$
