
 OpenBabel01122422533D

 45 48  0  0  0  0  0  0  0  0999 V2000
    9.1489    2.4261    1.5305 C   0  0  0  0  0  0  0  0  0  0  0  0
    7.8078    1.9608    1.5902 O   0  0  0  0  0  0  0  0  0  0  0  0
    7.1197    1.7889    0.4198 C   0  0  0  0  0  0  0  0  0  0  0  0
    7.6316    2.1420   -0.8342 C   0  0  0  0  0  0  0  0  0  0  0  0
    6.9188    1.8573   -2.0018 C   0  0  0  0  0  0  0  0  0  0  0  0
    5.7037    1.1830   -1.9347 C   0  0  0  0  0  0  0  0  0  0  0  0
    5.1740    0.8292   -0.6949 C   0  0  0  0  0  0  0  0  0  0  0  0
    5.8523    1.1757    0.4872 C   0  0  0  0  0  0  0  0  0  0  0  0
    5.1835    0.9697    1.7223 N   0  0  0  0  0  0  0  0  0  0  0  0
    5.3359    1.6659    2.8972 C   0  0  0  0  0  0  0  0  0  0  0  0
    4.3239    1.2257    3.7115 C   0  0  0  0  0  0  0  0  0  0  0  0
    4.0181    1.7387    5.0280 C   0  0  0  0  0  0  0  0  0  0  0  0
    3.5623    0.8685    6.0245 C   0  0  0  0  0  0  0  0  0  0  0  0
    3.2912    1.3284    7.3209 C   0  0  0  0  0  0  0  0  0  0  0  0
    2.8948    0.4703    8.3740 N   0  0  0  0  0  0  0  0  0  0  0  0
    3.0494   -0.9078    8.3730 C   0  0  0  0  0  0  0  0  0  0  0  0
    3.6255   -1.5611    7.5097 O   0  0  0  0  0  0  0  0  0  0  0  0
    2.5293   -1.6494    9.5442 C   0  0  0  0  0  0  0  0  0  0  0  0
    1.4569   -1.2302   10.3326 C   0  0  0  0  0  0  0  0  0  0  0  0
    1.0065   -2.0630   11.3595 C   0  0  0  0  0  0  0  0  0  0  0  0
    1.6464   -3.2773   11.5639 C   0  0  0  0  0  0  0  0  0  0  0  0
    2.6920   -3.7040   10.8276 N   0  0  0  0  0  0  0  0  0  0  0  0
    3.1020   -2.8861    9.8280 C   0  0  0  0  0  0  0  0  0  0  0  0
    3.4206    2.6956    7.6024 C   0  0  0  0  0  0  0  0  0  0  0  0
    3.8656    3.5752    6.6100 C   0  0  0  0  0  0  0  0  0  0  0  0
    4.1678    3.0935    5.3401 C   0  0  0  0  0  0  0  0  0  0  0  0
    4.5920    3.9731    4.4192 F   0  0  0  0  0  0  0  0  0  0  0  0
    3.6346    0.2348    3.0732 N   0  0  0  0  0  0  0  0  0  0  0  0
    4.1363    0.1099    1.8486 N   0  0  0  0  0  0  0  0  0  0  0  0
    9.5543    2.3977    2.5469 H   0  0  0  0  0  0  0  0  0  0  0  0
    9.1823    3.4641    1.1865 H   0  0  0  0  0  0  0  0  0  0  0  0
    9.7726    1.7770    0.9076 H   0  0  0  0  0  0  0  0  0  0  0  0
    8.5861    2.6477   -0.9385 H   0  0  0  0  0  0  0  0  0  0  0  0
    7.3203    2.1562   -2.9670 H   0  0  0  0  0  0  0  0  0  0  0  0
    5.1547    0.9547   -2.8449 H   0  0  0  0  0  0  0  0  0  0  0  0
    4.2026    0.3375   -0.6640 H   0  0  0  0  0  0  0  0  0  0  0  0
    6.0643    2.4501    3.0253 H   0  0  0  0  0  0  0  0  0  0  0  0
    3.4249   -0.1778    5.7613 H   0  0  0  0  0  0  0  0  0  0  0  0
    2.6228    0.9141    9.2402 H   0  0  0  0  0  0  0  0  0  0  0  0
    0.9353   -0.2984   10.1400 H   0  0  0  0  0  0  0  0  0  0  0  0
    0.1597   -1.7843   11.9778 H   0  0  0  0  0  0  0  0  0  0  0  0
    1.3183   -3.9658   12.3376 H   0  0  0  0  0  0  0  0  0  0  0  0
    3.9307   -3.2718    9.2370 H   0  0  0  0  0  0  0  0  0  0  0  0
    3.2105    3.0899    8.5895 H   0  0  0  0  0  0  0  0  0  0  0  0
    3.9915    4.6335    6.8185 H   0  0  0  0  0  0  0  0  0  0  0  0
  1  2  1  0  0  0  0
  1 30  1  0  0  0  0
  1 31  1  0  0  0  0
  1 32  1  0  0  0  0
  2  3  1  0  0  0  0
  3  4  2  0  0  0  0
  3  8  1  0  0  0  0
  4  5  1  0  0  0  0
  4 33  1  0  0  0  0
  5  6  2  0  0  0  0
  5 34  1  0  0  0  0
  6  7  1  0  0  0  0
  6 35  1  0  0  0  0
  7  8  2  0  0  0  0
  7 36  1  0  0  0  0
  8  9  1  0  0  0  0
  9 10  1  0  0  0  0
  9 29  1  0  0  0  0
 10 11  2  0  0  0  0
 10 37  1  0  0  0  0
 11 12  1  0  0  0  0
 11 28  1  0  0  0  0
 12 13  2  0  0  0  0
 12 26  1  0  0  0  0
 13 14  1  0  0  0  0
 13 38  1  0  0  0  0
 14 15  1  0  0  0  0
 14 24  2  0  0  0  0
 15 16  1  0  0  0  0
 15 39  1  0  0  0  0
 16 17  2  0  0  0  0
 16 18  1  0  0  0  0
 18 19  2  0  0  0  0
 18 23  1  0  0  0  0
 19 20  1  0  0  0  0
 19 40  1  0  0  0  0
 20 21  2  0  0  0  0
 20 41  1  0  0  0  0
 21 22  1  0  0  0  0
 21 42  1  0  0  0  0
 22 23  2  0  0  0  0
 23 43  1  0  0  0  0
 24 25  1  0  0  0  0
 24 44  1  0  0  0  0
 25 26  2  0  0  0  0
 25 45  1  0  0  0  0
 26 27  1  0  0  0  0
 28 29  2  0  0  0  0
M  END
$$$$
