
 OpenBabel01122422533D

 39 42  0  0  0  0  0  0  0  0999 V2000
    5.4594   -1.5130    2.1043 O   0  0  0  0  0  0  0  0  0  0  0  0
    5.0267   -1.3245    0.9698 C   0  0  0  0  0  0  0  0  0  0  0  0
    3.6989   -1.5639    0.6386 N   0  0  0  0  0  0  0  0  0  0  0  0
    2.7201   -2.0122    1.6012 C   0  0  0  0  0  0  0  0  0  0  0  0
    2.8754   -1.8826    2.9827 C   0  0  0  0  0  0  0  0  0  0  0  0
    1.9782   -2.4780    3.8918 C   0  0  0  0  0  0  0  0  0  0  0  0
    0.8651   -3.2120    3.4581 C   0  0  0  0  0  0  0  0  0  0  0  0
    0.0183   -3.9515    4.3878 N   0  0  0  0  0  0  0  0  0  0  0  0
   -0.6739   -5.0904    3.9686 C   0  0  0  0  0  0  0  0  0  0  0  0
   -1.4161   -5.8427    4.7971 C   0  0  0  0  0  0  0  0  0  0  0  0
   -1.5295   -5.4963    6.1835 C   0  0  0  0  0  0  0  0  0  0  0  0
   -0.8959   -4.4193    6.6521 C   0  0  0  0  0  0  0  0  0  0  0  0
   -0.0722   -3.5511    5.7455 C   0  0  0  0  0  0  0  0  0  0  0  0
    0.4218   -2.5475    6.2612 O   0  0  0  0  0  0  0  0  0  0  0  0
    0.6551   -3.2460    2.0677 C   0  0  0  0  0  0  0  0  0  0  0  0
    1.5560   -2.6407    1.1668 C   0  0  0  0  0  0  0  0  0  0  0  0
    1.2995   -2.7256   -0.1476 F   0  0  0  0  0  0  0  0  0  0  0  0
    5.9832   -0.8041   -0.0066 C   0  0  0  0  0  0  0  0  0  0  0  0
    6.1787   -0.8642   -1.3860 C   0  0  0  0  0  0  0  0  0  0  0  0
    5.5883   -1.5131   -2.5116 C   0  0  0  0  0  0  0  0  0  0  0  0
    4.4226   -2.1627   -2.3216 F   0  0  0  0  0  0  0  0  0  0  0  0
    6.2171   -1.5370   -3.7107 C   0  0  0  0  0  0  0  0  0  0  0  0
    5.6083   -2.4517   -5.0400 Cl  0  0  0  0  0  0  0  0  0  0  0  0
    7.4639   -0.8210   -3.9304 C   0  0  0  0  0  0  0  0  0  0  0  0
    7.9962   -0.1486   -2.9017 C   0  0  0  0  0  0  0  0  0  0  0  0
    7.3941   -0.1930   -1.6463 N   0  0  0  0  0  0  0  0  0  0  0  0
    7.9462    0.2929   -0.5209 N   0  0  0  0  0  0  0  0  0  0  0  0
    7.1730   -0.1757    0.4460 C   0  0  0  0  0  0  0  0  0  0  0  0
    3.4323   -1.5876   -0.3427 H   0  0  0  0  0  0  0  0  0  0  0  0
    3.7034   -1.3305    3.4233 H   0  0  0  0  0  0  0  0  0  0  0  0
    2.2267   -2.3898    4.9477 H   0  0  0  0  0  0  0  0  0  0  0  0
   -0.5685   -5.4056    2.9384 H   0  0  0  0  0  0  0  0  0  0  0  0
   -1.9197   -6.7391    4.4478 H   0  0  0  0  0  0  0  0  0  0  0  0
   -2.1258   -6.1277    6.8358 H   0  0  0  0  0  0  0  0  0  0  0  0
   -0.9431   -4.1173    7.6843 H   0  0  0  0  0  0  0  0  0  0  0  0
   -0.2165   -3.7304    1.6402 H   0  0  0  0  0  0  0  0  0  0  0  0
    7.9630   -0.8542   -4.8947 H   0  0  0  0  0  0  0  0  0  0  0  0
    8.9267    0.4073   -2.9611 H   0  0  0  0  0  0  0  0  0  0  0  0
    7.4964   -0.0610    1.4736 H   0  0  0  0  0  0  0  0  0  0  0  0
  1  2  2  0  0  0  0
  2  3  1  0  0  0  0
  2 18  1  0  0  0  0
  3  4  1  0  0  0  0
  3 29  1  0  0  0  0
  4  5  2  0  0  0  0
  4 16  1  0  0  0  0
  5  6  1  0  0  0  0
  5 30  1  0  0  0  0
  6  7  2  0  0  0  0
  6 31  1  0  0  0  0
  7  8  1  0  0  0  0
  7 15  1  0  0  0  0
  8  9  1  0  0  0  0
  8 13  1  0  0  0  0
  9 10  2  0  0  0  0
  9 32  1  0  0  0  0
 10 11  1  0  0  0  0
 10 33  1  0  0  0  0
 11 12  2  0  0  0  0
 11 34  1  0  0  0  0
 12 13  1  0  0  0  0
 12 35  1  0  0  0  0
 13 14  2  0  0  0  0
 15 16  2  0  0  0  0
 15 36  1  0  0  0  0
 16 17  1  0  0  0  0
 18 19  2  0  0  0  0
 18 28  1  0  0  0  0
 19 20  1  0  0  0  0
 19 26  1  0  0  0  0
 20 21  1  0  0  0  0
 20 22  2  0  0  0  0
 22 23  1  0  0  0  0
 22 24  1  0  0  0  0
 24 25  2  0  0  0  0
 24 37  1  0  0  0  0
 25 26  1  0  0  0  0
 25 38  1  0  0  0  0
 26 27  1  0  0  0  0
 27 28  2  0  0  0  0
 28 39  1  0  0  0  0
M  END
$$$$
