
 OpenBabel01122422533D

 49 52  0  0  0  0  0  0  0  0999 V2000
    0.3544    0.1109   -0.8501 O   0  0  0  0  0  0  0  0  0  0  0  0
    0.4056    0.4934   -2.0149 C   0  0  0  0  0  0  0  0  0  0  0  0
    1.3545    1.3736   -2.4755 N   0  0  0  0  0  0  0  0  0  0  0  0
    2.3493    1.9014   -1.5805 C   0  0  0  0  0  0  0  0  0  0  0  0
    3.2288    2.9145   -2.2539 C   0  0  0  0  0  0  0  0  0  0  0  0
    2.8634    4.2625   -2.2402 C   0  0  0  0  0  0  0  0  0  0  0  0
    3.6655    5.2241   -2.8567 C   0  0  0  0  0  0  0  0  0  0  0  0
    4.8452    4.8644   -3.5083 C   0  0  0  0  0  0  0  0  0  0  0  0
    5.6911    5.7997   -4.1450 N   0  0  0  0  0  0  0  0  0  0  0  0
    5.4675    7.1574   -4.2815 C   0  0  0  0  0  0  0  0  0  0  0  0
    4.4807    7.7742   -3.8817 O   0  0  0  0  0  0  0  0  0  0  0  0
    6.5098    7.9461   -4.9948 C   0  0  0  0  0  0  0  0  0  0  0  0
    6.0870    9.1262   -5.6314 C   0  0  0  0  0  0  0  0  0  0  0  0
    7.0079    9.9823   -6.2338 C   0  0  0  0  0  0  0  0  0  0  0  0
    8.3651    9.6751   -6.1906 C   0  0  0  0  0  0  0  0  0  0  0  0
    8.7992    8.4963   -5.5799 C   0  0  0  0  0  0  0  0  0  0  0  0
    7.8717    7.6245   -4.9989 C   0  0  0  0  0  0  0  0  0  0  0  0
    8.3155    6.4606   -4.4309 O   0  0  0  0  0  0  0  0  0  0  0  0
    5.2121    3.5139   -3.5294 C   0  0  0  0  0  0  0  0  0  0  0  0
    4.4063    2.5437   -2.9151 C   0  0  0  0  0  0  0  0  0  0  0  0
   -0.5484    0.0526   -3.0180 C   0  0  0  0  0  0  0  0  0  0  0  0
   -1.6156   -0.7946   -2.8142 C   0  0  0  0  0  0  0  0  0  0  0  0
   -2.2364   -0.8883   -4.0333 N   0  0  0  0  0  0  0  0  0  0  0  0
   -3.4211   -1.5803   -4.3593 C   0  0  0  0  0  0  0  0  0  0  0  0
   -4.1772   -2.2444   -3.3884 C   0  0  0  0  0  0  0  0  0  0  0  0
   -5.3560   -2.8847   -3.7638 C   0  0  0  0  0  0  0  0  0  0  0  0
   -5.7313   -2.8472   -5.0964 C   0  0  0  0  0  0  0  0  0  0  0  0
   -5.0183   -2.2230   -6.0579 N   0  0  0  0  0  0  0  0  0  0  0  0
   -3.8788   -1.5988   -5.6716 C   0  0  0  0  0  0  0  0  0  0  0  0
   -1.5414   -0.1682   -4.9493 N   0  0  0  0  0  0  0  0  0  0  0  0
   -0.5229    0.4233   -4.3361 N   0  0  0  0  0  0  0  0  0  0  0  0
    1.3325    1.6607   -3.4485 H   0  0  0  0  0  0  0  0  0  0  0  0
    2.9429    1.0690   -1.1859 H   0  0  0  0  0  0  0  0  0  0  0  0
    1.8376    2.3543   -0.7216 H   0  0  0  0  0  0  0  0  0  0  0  0
    1.9529    4.5858   -1.7402 H   0  0  0  0  0  0  0  0  0  0  0  0
    3.3361    6.2553   -2.7945 H   0  0  0  0  0  0  0  0  0  0  0  0
    6.5698    5.4561   -4.5197 H   0  0  0  0  0  0  0  0  0  0  0  0
    5.0290    9.3869   -5.6469 H   0  0  0  0  0  0  0  0  0  0  0  0
    6.6641   10.8938   -6.7173 H   0  0  0  0  0  0  0  0  0  0  0  0
    9.0861   10.3587   -6.6323 H   0  0  0  0  0  0  0  0  0  0  0  0
    9.8638    8.2811   -5.5604 H   0  0  0  0  0  0  0  0  0  0  0  0
    9.2892    6.4713   -4.4152 H   0  0  0  0  0  0  0  0  0  0  0  0
    6.1241    3.1947   -4.0275 H   0  0  0  0  0  0  0  0  0  0  0  0
    4.7081    1.4990   -2.9501 H   0  0  0  0  0  0  0  0  0  0  0  0
   -1.9561   -1.2983   -1.9234 H   0  0  0  0  0  0  0  0  0  0  0  0
   -3.8914   -2.2684   -2.3417 H   0  0  0  0  0  0  0  0  0  0  0  0
   -5.9724   -3.3957   -3.0317 H   0  0  0  0  0  0  0  0  0  0  0  0
   -6.6441   -3.3293   -5.4358 H   0  0  0  0  0  0  0  0  0  0  0  0
   -3.3461   -1.1063   -6.4821 H   0  0  0  0  0  0  0  0  0  0  0  0
  1  2  2  0  0  0  0
  2  3  1  0  0  0  0
  2 21  1  0  0  0  0
  3  4  1  0  0  0  0
  3 32  1  0  0  0  0
  4  5  1  0  0  0  0
  4 33  1  0  0  0  0
  4 34  1  0  0  0  0
  5  6  2  0  0  0  0
  5 20  1  0  0  0  0
  6  7  1  0  0  0  0
  6 35  1  0  0  0  0
  7  8  2  0  0  0  0
  7 36  1  0  0  0  0
  8  9  1  0  0  0  0
  8 19  1  0  0  0  0
  9 10  1  0  0  0  0
  9 37  1  0  0  0  0
 10 11  2  0  0  0  0
 10 12  1  0  0  0  0
 12 13  2  0  0  0  0
 12 17  1  0  0  0  0
 13 14  1  0  0  0  0
 13 38  1  0  0  0  0
 14 15  2  0  0  0  0
 14 39  1  0  0  0  0
 15 16  1  0  0  0  0
 15 40  1  0  0  0  0
 16 17  2  0  0  0  0
 16 41  1  0  0  0  0
 17 18  1  0  0  0  0
 18 42  1  0  0  0  0
 19 20  2  0  0  0  0
 19 43  1  0  0  0  0
 20 44  1  0  0  0  0
 21 22  2  0  0  0  0
 21 31  1  0  0  0  0
 22 23  1  0  0  0  0
 22 45  1  0  0  0  0
 23 24  1  0  0  0  0
 23 30  1  0  0  0  0
 24 25  2  0  0  0  0
 24 29  1  0  0  0  0
 25 26  1  0  0  0  0
 25 46  1  0  0  0  0
 26 27  2  0  0  0  0
 26 47  1  0  0  0  0
 27 28  1  0  0  0  0
 27 48  1  0  0  0  0
 28 29  2  0  0  0  0
 29 49  1  0  0  0  0
 30 31  2  0  0  0  0
M  END
$$$$
