
 OpenBabel01122422533D

 40 43  0  0  0  0  0  0  0  0999 V2000
    0.9175   -0.1447   -0.0477 O   0  0  0  0  0  0  0  0  0  0  0  0
    2.1410   -0.1560   -0.0411 C   0  0  0  0  0  0  0  0  0  0  0  0
    2.9642    0.9948   -0.0297 N   0  0  0  0  0  0  0  0  0  0  0  0
    2.4816    2.3531   -0.0726 C   0  0  0  0  0  0  0  0  0  0  0  0
    2.5594    2.9376   -1.4590 C   0  0  0  0  0  0  0  0  0  0  0  0
    1.8426    2.3700   -2.5252 C   0  0  0  0  0  0  0  0  0  0  0  0
    2.0080    2.8685   -3.8220 C   0  0  0  0  0  0  0  0  0  0  0  0
    1.3315    2.1629   -4.9941 C   0  0  0  0  0  0  0  0  0  0  0  0
    0.5345    1.1208   -4.6106 F   0  0  0  0  0  0  0  0  0  0  0  0
    0.5250    2.9844   -5.7272 F   0  0  0  0  0  0  0  0  0  0  0  0
    2.2259    1.6274   -5.8732 F   0  0  0  0  0  0  0  0  0  0  0  0
    2.8166    3.9419   -4.0757 N   0  0  0  0  0  0  0  0  0  0  0  0
    3.4743    4.4938   -3.0284 C   0  0  0  0  0  0  0  0  0  0  0  0
    3.3811    4.0260   -1.7303 C   0  0  0  0  0  0  0  0  0  0  0  0
    4.0952    4.6060   -0.7567 F   0  0  0  0  0  0  0  0  0  0  0  0
    4.3064    0.5912   -0.0758 C   0  0  0  0  0  0  0  0  0  0  0  0
    5.4622    1.3534   -0.0378 C   0  0  0  0  0  0  0  0  0  0  0  0
    6.6802    0.6680   -0.0308 C   0  0  0  0  0  0  0  0  0  0  0  0
    6.7194   -0.7395   -0.0616 C   0  0  0  0  0  0  0  0  0  0  0  0
    5.5433   -1.4906   -0.1147 C   0  0  0  0  0  0  0  0  0  0  0  0
    4.3412   -0.8066   -0.1309 C   0  0  0  0  0  0  0  0  0  0  0  0
    3.0130   -1.2649   -0.1040 N   0  0  0  0  0  0  0  0  0  0  0  0
    2.6380   -2.6122   -0.1519 C   0  0  0  0  0  0  0  0  0  0  0  0
    1.5520   -3.0416    0.6085 C   0  0  0  0  0  0  0  0  0  0  0  0
    1.1806   -4.3839    0.5772 C   0  0  0  0  0  0  0  0  0  0  0  0
    1.8591   -5.2557   -0.2610 C   0  0  0  0  0  0  0  0  0  0  0  0
    2.9141   -4.7520   -1.0011 C   0  0  0  0  0  0  0  0  0  0  0  0
    3.3402   -3.4708   -0.9326 N   0  0  0  0  0  0  0  0  0  0  0  0
    3.0489    2.9472    0.6523 H   0  0  0  0  0  0  0  0  0  0  0  0
    1.4352    2.3746    0.2551 H   0  0  0  0  0  0  0  0  0  0  0  0
    1.1844    1.5201   -2.3472 H   0  0  0  0  0  0  0  0  0  0  0  0
    4.1143    5.3374   -3.2671 H   0  0  0  0  0  0  0  0  0  0  0  0
    5.4392    2.4332    0.0044 H   0  0  0  0  0  0  0  0  0  0  0  0
    7.6122    1.2287    0.0123 H   0  0  0  0  0  0  0  0  0  0  0  0
    7.6815   -1.2498   -0.0349 H   0  0  0  0  0  0  0  0  0  0  0  0
    5.5829   -2.5749   -0.1241 H   0  0  0  0  0  0  0  0  0  0  0  0
    1.0223   -2.3562    1.2628 H   0  0  0  0  0  0  0  0  0  0  0  0
    0.3644   -4.7386    1.1998 H   0  0  0  0  0  0  0  0  0  0  0  0
    1.5737   -6.2984   -0.3367 H   0  0  0  0  0  0  0  0  0  0  0  0
    3.4611   -5.3856   -1.6944 H   0  0  0  0  0  0  0  0  0  0  0  0
  1  2  2  0  0  0  0
  2  3  1  0  0  0  0
  2 22  1  0  0  0  0
  3  4  1  0  0  0  0
  3 16  1  0  0  0  0
  4  5  1  0  0  0  0
  4 29  1  0  0  0  0
  4 30  1  0  0  0  0
  5  6  2  0  0  0  0
  5 14  1  0  0  0  0
  6  7  1  0  0  0  0
  6 31  1  0  0  0  0
  7  8  1  0  0  0  0
  7 12  2  0  0  0  0
  8  9  1  0  0  0  0
  8 10  1  0  0  0  0
  8 11  1  0  0  0  0
 12 13  1  0  0  0  0
 13 14  2  0  0  0  0
 13 32  1  0  0  0  0
 14 15  1  0  0  0  0
 16 17  2  0  0  0  0
 16 21  1  0  0  0  0
 17 18  1  0  0  0  0
 17 33  1  0  0  0  0
 18 19  2  0  0  0  0
 18 34  1  0  0  0  0
 19 20  1  0  0  0  0
 19 35  1  0  0  0  0
 20 21  2  0  0  0  0
 20 36  1  0  0  0  0
 21 22  1  0  0  0  0
 22 23  1  0  0  0  0
 23 24  2  0  0  0  0
 23 28  1  0  0  0  0
 24 25  1  0  0  0  0
 24 37  1  0  0  0  0
 25 26  2  0  0  0  0
 25 38  1  0  0  0  0
 26 27  1  0  0  0  0
 26 39  1  0  0  0  0
 27 28  2  0  0  0  0
 27 40  1  0  0  0  0
M  END
$$$$
