
 OpenBabel01122422463D

 56 58  0  0  1  0  0  0  0  0999 V2000
    3.4220   -0.1468   -3.2746 N   0  0  0  0  0  0  0  0  0  0  0  0
    2.6098   -0.7236   -2.3393 C   0  0  0  0  0  0  0  0  0  0  0  0
    1.4429   -0.9873   -2.6191 O   0  0  0  0  0  0  0  0  0  0  0  0
    3.1808   -0.8963   -0.9251 C   0  0  0  0  0  0  0  0  0  0  0  0
    4.6367   -0.7126   -0.7551 N   0  0  0  0  0  0  0  0  0  0  0  0
    5.0790    0.3749    0.1218 C   0  0  0  0  0  0  0  0  0  0  0  0
    4.6208    0.2651    1.5607 C   0  0  0  0  0  0  0  0  0  0  0  0
    4.3097   -0.9480    2.1859 C   0  0  0  0  0  0  0  0  0  0  0  0
    3.7658   -0.9676    3.4809 C   0  0  0  0  0  0  0  0  0  0  0  0
    3.5535    0.2130    4.2111 C   0  0  0  0  0  0  0  0  0  0  0  0
    2.8785    0.2211    5.5366 C   0  0  0  0  0  0  0  0  0  0  0  0
    2.9803   -0.8529    6.4384 C   0  0  0  0  0  0  0  0  0  0  0  0
    2.3271   -0.8275    7.6782 C   0  0  0  0  0  0  0  0  0  0  0  0
    1.5674    0.2726    8.0531 C   0  0  0  0  0  0  0  0  0  0  0  0
    1.4421    1.3493    7.1797 C   0  0  0  0  0  0  0  0  0  0  0  0
    2.0808    1.3125    5.9369 C   0  0  0  0  0  0  0  0  0  0  0  0
    3.9830    1.4105    3.6118 C   0  0  0  0  0  0  0  0  0  0  0  0
    4.4998    1.4388    2.3121 C   0  0  0  0  0  0  0  0  0  0  0  0
    5.4618   -1.7213   -1.2387 C   0  0  0  0  0  0  0  0  0  0  0  0
    5.0036   -2.6348   -1.9203 O   0  0  0  0  0  0  0  0  0  0  0  0
    6.9472   -1.6195   -0.9255 C   0  0  0  0  0  0  0  0  0  0  0  0
    7.7923   -2.7886   -1.4860 C   0  0  3  0  0  0  0  0  0  0  0  0
    7.6893   -2.6881   -2.9335 O   0  0  0  0  0  0  0  0  0  0  0  0
    9.2946   -2.6273   -1.1672 C   0  0  0  0  0  0  0  0  0  0  0  0
    9.7635   -2.0018    0.0007 C   0  0  0  0  0  0  0  0  0  0  0  0
   11.1310   -1.9518    0.2898 C   0  0  0  0  0  0  0  0  0  0  0  0
   12.0556   -2.5259   -0.5777 C   0  0  0  0  0  0  0  0  0  0  0  0
   11.6167   -3.1485   -1.7406 C   0  0  0  0  0  0  0  0  0  0  0  0
   10.2521   -3.2028   -2.0300 C   0  0  0  0  0  0  0  0  0  0  0  0
    7.2683   -4.1625   -0.9220 C   0  0  0  0  0  0  0  0  0  0  0  0
    6.3599   -3.9867    0.0727 F   0  0  0  0  0  0  0  0  0  0  0  0
    6.6991   -4.9391   -1.8708 F   0  0  0  0  0  0  0  0  0  0  0  0
    8.2648   -4.9062   -0.3731 F   0  0  0  0  0  0  0  0  0  0  0  0
    3.0644   -0.2000   -4.2204 H   0  0  0  0  0  0  0  0  0  0  0  0
    4.4191   -0.2532   -3.1634 H   0  0  0  0  0  0  0  0  0  0  0  0
    2.9287   -1.9092   -0.5888 H   0  0  0  0  0  0  0  0  0  0  0  0
    2.6500   -0.1776   -0.2915 H   0  0  0  0  0  0  0  0  0  0  0  0
    4.6749    1.2961   -0.3189 H   0  0  0  0  0  0  0  0  0  0  0  0
    6.1656    0.4763    0.1193 H   0  0  0  0  0  0  0  0  0  0  0  0
    4.4355   -1.8954    1.6641 H   0  0  0  0  0  0  0  0  0  0  0  0
    3.4709   -1.9320    3.8908 H   0  0  0  0  0  0  0  0  0  0  0  0
    3.5733   -1.7306    6.1940 H   0  0  0  0  0  0  0  0  0  0  0  0
    2.4150   -1.6761    8.3545 H   0  0  0  0  0  0  0  0  0  0  0  0
    1.0663    0.2970    9.0171 H   0  0  0  0  0  0  0  0  0  0  0  0
    0.8441    2.2131    7.4566 H   0  0  0  0  0  0  0  0  0  0  0  0
    1.9288    2.1620    5.2732 H   0  0  0  0  0  0  0  0  0  0  0  0
    3.9018    2.3544    4.1459 H   0  0  0  0  0  0  0  0  0  0  0  0
    4.7788    2.4000    1.8843 H   0  0  0  0  0  0  0  0  0  0  0  0
    7.0372   -1.5784    0.1642 H   0  0  0  0  0  0  0  0  0  0  0  0
    7.3087   -0.6766   -1.3567 H   0  0  0  0  0  0  0  0  0  0  0  0
    8.1958   -1.9088   -3.2193 H   0  0  0  0  0  0  0  0  0  0  0  0
    9.0879   -1.5665    0.7314 H   0  0  0  0  0  0  0  0  0  0  0  0
   11.4741   -1.4802    1.2078 H   0  0  0  0  0  0  0  0  0  0  0  0
   13.1157   -2.5030   -0.3388 H   0  0  0  0  0  0  0  0  0  0  0  0
   12.3335   -3.6118   -2.4144 H   0  0  0  0  0  0  0  0  0  0  0  0
    9.9384   -3.7280   -2.9327 H   0  0  0  0  0  0  0  0  0  0  0  0
  1  2  1  0  0  0  0
  1 34  1  0  0  0  0
  1 35  1  0  0  0  0
  2  3  2  0  0  0  0
  2  4  1  0  0  0  0
  4  5  1  0  0  0  0
  4 36  1  0  0  0  0
  4 37  1  0  0  0  0
  5  6  1  0  0  0  0
  5 19  1  0  0  0  0
  6  7  1  0  0  0  0
  6 38  1  0  0  0  0
  6 39  1  0  0  0  0
  7  8  2  0  0  0  0
  7 18  1  0  0  0  0
  8  9  1  0  0  0  0
  8 40  1  0  0  0  0
  9 10  2  0  0  0  0
  9 41  1  0  0  0  0
 10 11  1  0  0  0  0
 10 17  1  0  0  0  0
 11 12  2  0  0  0  0
 11 16  1  0  0  0  0
 12 13  1  0  0  0  0
 12 42  1  0  0  0  0
 13 14  2  0  0  0  0
 13 43  1  0  0  0  0
 14 15  1  0  0  0  0
 14 44  1  0  0  0  0
 15 16  2  0  0  0  0
 15 45  1  0  0  0  0
 16 46  1  0  0  0  0
 17 18  2  0  0  0  0
 17 47  1  0  0  0  0
 18 48  1  0  0  0  0
 19 20  2  0  0  0  0
 19 21  1  0  0  0  0
 21 22  1  0  0  0  0
 21 49  1  0  0  0  0
 21 50  1  0  0  0  0
 22 23  1  0  0  0  0
 22 24  1  0  0  0  0
 22 30  1  0  0  0  0
 23 51  1  0  0  0  0
 24 25  2  0  0  0  0
 24 29  1  0  0  0  0
 25 26  1  0  0  0  0
 25 52  1  0  0  0  0
 26 27  2  0  0  0  0
 26 53  1  0  0  0  0
 27 28  1  0  0  0  0
 27 54  1  0  0  0  0
 28 29  2  0  0  0  0
 28 55  1  0  0  0  0
 29 56  1  0  0  0  0
 30 31  1  0  0  0  0
 30 32  1  0  0  0  0
 30 33  1  0  0  0  0
M  END
$$$$
