
 OpenBabel01122422533D

 36 38  0  0  0  0  0  0  0  0999 V2000
    1.2200   -1.1383    2.2550 C   0  0  0  0  0  0  0  0  0  0  0  0
    2.6479   -1.0964    2.1937 O   0  0  0  0  0  0  0  0  0  0  0  0
    3.1439   -0.6256    1.0215 C   0  0  0  0  0  0  0  0  0  0  0  0
    2.4769   -0.2829    0.0561 O   0  0  0  0  0  0  0  0  0  0  0  0
    4.6191   -0.6131    1.0484 C   0  0  0  0  0  0  0  0  0  0  0  0
    5.3300   -0.3959    2.2275 C   0  0  0  0  0  0  0  0  0  0  0  0
    4.7043   -0.1640    3.3883 F   0  0  0  0  0  0  0  0  0  0  0  0
    6.7277   -0.3983    2.2367 C   0  0  0  0  0  0  0  0  0  0  0  0
    7.4345   -0.6238    1.0532 C   0  0  0  0  0  0  0  0  0  0  0  0
    8.9212   -0.6494    1.0426 C   0  0  0  0  0  0  0  0  0  0  0  0
    9.5763   -1.3550    0.1798 N   0  0  0  0  0  0  0  0  0  0  0  0
   10.9833   -1.3607    0.2498 C   0  0  0  0  0  0  0  0  0  0  0  0
   11.6927   -0.6108    1.1914 C   0  0  0  0  0  0  0  0  0  0  0  0
   13.0872   -0.6933    1.2974 C   0  0  0  0  0  0  0  0  0  0  0  0
   13.7951   -1.5822    0.4768 C   0  0  0  0  0  0  0  0  0  0  0  0
   15.2671   -1.8232    0.6472 C   0  0  0  0  0  0  0  0  0  0  0  0
   15.8008   -1.1114    1.6810 F   0  0  0  0  0  0  0  0  0  0  0  0
   15.5610   -3.1245    0.9159 F   0  0  0  0  0  0  0  0  0  0  0  0
   15.9971   -1.4818   -0.4490 F   0  0  0  0  0  0  0  0  0  0  0  0
   13.0884   -2.3005   -0.4875 C   0  0  0  0  0  0  0  0  0  0  0  0
   13.7399   -3.1519   -1.2903 F   0  0  0  0  0  0  0  0  0  0  0  0
   11.7031   -2.1838   -0.6163 C   0  0  0  0  0  0  0  0  0  0  0  0
   10.9081    0.2172    2.1197 C   0  0  0  0  0  0  0  0  0  0  0  0
   11.4382    0.9118    2.9813 O   0  0  0  0  0  0  0  0  0  0  0  0
    9.5503    0.1310    1.9887 N   0  0  0  0  0  0  0  0  0  0  0  0
    6.7315   -0.8418   -0.1341 C   0  0  0  0  0  0  0  0  0  0  0  0
    5.3355   -0.8243   -0.1309 C   0  0  0  0  0  0  0  0  0  0  0  0
    4.7018   -1.0395   -1.2913 F   0  0  0  0  0  0  0  0  0  0  0  0
    0.9298   -1.4963    3.2467 H   0  0  0  0  0  0  0  0  0  0  0  0
    0.8285   -1.8352    1.5072 H   0  0  0  0  0  0  0  0  0  0  0  0
    0.7965   -0.1388    2.1123 H   0  0  0  0  0  0  0  0  0  0  0  0
    7.2302   -0.2494    3.1874 H   0  0  0  0  0  0  0  0  0  0  0  0
   13.6086   -0.0976    2.0465 H   0  0  0  0  0  0  0  0  0  0  0  0
   11.1865   -2.7676   -1.3737 H   0  0  0  0  0  0  0  0  0  0  0  0
    9.0332    0.6904    2.6520 H   0  0  0  0  0  0  0  0  0  0  0  0
    7.2550   -1.0203   -1.0714 H   0  0  0  0  0  0  0  0  0  0  0  0
  1  2  1  0  0  0  0
  1 29  1  0  0  0  0
  1 30  1  0  0  0  0
  1 31  1  0  0  0  0
  2  3  1  0  0  0  0
  3  4  2  0  0  0  0
  3  5  1  0  0  0  0
  5  6  2  0  0  0  0
  5 27  1  0  0  0  0
  6  7  1  0  0  0  0
  6  8  1  0  0  0  0
  8  9  2  0  0  0  0
  8 32  1  0  0  0  0
  9 10  1  0  0  0  0
  9 26  1  0  0  0  0
 10 11  2  0  0  0  0
 10 25  1  0  0  0  0
 11 12  1  0  0  0  0
 12 13  2  0  0  0  0
 12 22  1  0  0  0  0
 13 14  1  0  0  0  0
 13 23  1  0  0  0  0
 14 15  2  0  0  0  0
 14 33  1  0  0  0  0
 15 16  1  0  0  0  0
 15 20  1  0  0  0  0
 16 17  1  0  0  0  0
 16 18  1  0  0  0  0
 16 19  1  0  0  0  0
 20 21  1  0  0  0  0
 20 22  2  0  0  0  0
 22 34  1  0  0  0  0
 23 24  2  0  0  0  0
 23 25  1  0  0  0  0
 25 35  1  0  0  0  0
 26 27  2  0  0  0  0
 26 36  1  0  0  0  0
 27 28  1  0  0  0  0
M  END
$$$$
