
 OpenBabel01122422533D

 45 48  0  0  0  0  0  0  0  0999 V2000
    1.1094    0.1932    0.1237 O   0  0  0  0  0  0  0  0  0  0  0  0
    2.3353    0.1652    0.0503 C   0  0  0  0  0  0  0  0  0  0  0  0
    3.0194    0.4240   -1.1105 N   0  0  0  0  0  0  0  0  0  0  0  0
    2.3324    0.7956   -2.3324 C   0  0  0  0  0  0  0  0  0  0  0  0
    2.0351    2.2763   -2.4043 C   0  0  0  0  0  0  0  0  0  0  0  0
    0.8416    2.7771   -1.8945 C   0  0  0  0  0  0  0  0  0  0  0  0
    0.5789    4.1438   -1.9886 C   0  0  0  0  0  0  0  0  0  0  0  0
    1.5150    4.9867   -2.5900 C   0  0  0  0  0  0  0  0  0  0  0  0
    1.2754    6.3798   -2.7237 N   0  0  0  0  0  0  0  0  0  0  0  0
    0.1779    7.0857   -2.2749 C   0  0  0  0  0  0  0  0  0  0  0  0
    0.3904    8.3961   -2.6318 C   0  0  0  0  0  0  0  0  0  0  0  0
    1.5766    8.5304   -3.2906 N   0  0  0  0  0  0  0  0  0  0  0  0
    2.0822    7.3171   -3.3350 C   0  0  0  0  0  0  0  0  0  0  0  0
    2.6906    4.4046   -3.0555 C   0  0  0  0  0  0  0  0  0  0  0  0
    2.9716    3.0788   -2.9719 N   0  0  0  0  0  0  0  0  0  0  0  0
    3.1625   -0.2400    1.2353 C   0  0  0  0  0  0  0  0  0  0  0  0
    4.4258    0.1853    1.4063 C   0  0  0  0  0  0  0  0  0  0  0  0
    5.2237   -0.2616    2.4595 N   0  0  0  0  0  0  0  0  0  0  0  0
    6.5814    0.1673    2.5507 C   0  0  0  0  0  0  0  0  0  0  0  0
    6.8835    1.5328    2.5575 C   0  0  0  0  0  0  0  0  0  0  0  0
    8.2105    1.9409    2.6233 C   0  0  0  0  0  0  0  0  0  0  0  0
    8.4925    3.2493    2.6744 F   0  0  0  0  0  0  0  0  0  0  0  0
    9.2487    1.0165    2.6383 C   0  0  0  0  0  0  0  0  0  0  0  0
    8.9555   -0.3456    2.6140 C   0  0  0  0  0  0  0  0  0  0  0  0
    7.6240   -0.7701    2.5906 C   0  0  0  0  0  0  0  0  0  0  0  0
    4.7369   -1.1668    3.4199 C   0  0  0  0  0  0  0  0  0  0  0  0
    5.3704   -1.6375    4.3624 O   0  0  0  0  0  0  0  0  0  0  0  0
    3.2985   -1.5295    3.2893 C   0  0  0  0  0  0  0  0  0  0  0  0
    2.5739   -1.0893    2.2526 C   0  0  0  0  0  0  0  0  0  0  0  0
    4.0234    0.3514   -1.1630 H   0  0  0  0  0  0  0  0  0  0  0  0
    1.4086    0.2146   -2.4320 H   0  0  0  0  0  0  0  0  0  0  0  0
    2.9855    0.5152   -3.1668 H   0  0  0  0  0  0  0  0  0  0  0  0
    0.1177    2.1144   -1.4268 H   0  0  0  0  0  0  0  0  0  0  0  0
   -0.3635    4.5047   -1.5887 H   0  0  0  0  0  0  0  0  0  0  0  0
   -0.6464    6.6310   -1.7476 H   0  0  0  0  0  0  0  0  0  0  0  0
   -0.2524    9.2474   -2.4460 H   0  0  0  0  0  0  0  0  0  0  0  0
    3.0250    7.0770   -3.8056 H   0  0  0  0  0  0  0  0  0  0  0  0
    3.4857    4.9735   -3.5262 H   0  0  0  0  0  0  0  0  0  0  0  0
    4.9095    0.8540    0.7017 H   0  0  0  0  0  0  0  0  0  0  0  0
    6.1005    2.2838    2.5655 H   0  0  0  0  0  0  0  0  0  0  0  0
   10.2765    1.3631    2.6743 H   0  0  0  0  0  0  0  0  0  0  0  0
    9.7594   -1.0776    2.6157 H   0  0  0  0  0  0  0  0  0  0  0  0
    7.4080   -1.8364    2.5693 H   0  0  0  0  0  0  0  0  0  0  0  0
    2.8808   -2.1464    4.0747 H   0  0  0  0  0  0  0  0  0  0  0  0
    1.5216   -1.3408    2.1672 H   0  0  0  0  0  0  0  0  0  0  0  0
  1  2  2  0  0  0  0
  2  3  1  0  0  0  0
  2 16  1  0  0  0  0
  3  4  1  0  0  0  0
  3 30  1  0  0  0  0
  4  5  1  0  0  0  0
  4 31  1  0  0  0  0
  4 32  1  0  0  0  0
  5  6  2  0  0  0  0
  5 15  1  0  0  0  0
  6  7  1  0  0  0  0
  6 33  1  0  0  0  0
  7  8  2  0  0  0  0
  7 34  1  0  0  0  0
  8  9  1  0  0  0  0
  8 14  1  0  0  0  0
  9 10  1  0  0  0  0
  9 13  1  0  0  0  0
 10 11  2  0  0  0  0
 10 35  1  0  0  0  0
 11 12  1  0  0  0  0
 11 36  1  0  0  0  0
 12 13  2  0  0  0  0
 13 37  1  0  0  0  0
 14 15  2  0  0  0  0
 14 38  1  0  0  0  0
 16 17  2  0  0  0  0
 16 29  1  0  0  0  0
 17 18  1  0  0  0  0
 17 39  1  0  0  0  0
 18 19  1  0  0  0  0
 18 26  1  0  0  0  0
 19 20  2  0  0  0  0
 19 25  1  0  0  0  0
 20 21  1  0  0  0  0
 20 40  1  0  0  0  0
 21 22  1  0  0  0  0
 21 23  2  0  0  0  0
 23 24  1  0  0  0  0
 23 41  1  0  0  0  0
 24 25  2  0  0  0  0
 24 42  1  0  0  0  0
 25 43  1  0  0  0  0
 26 27  2  0  0  0  0
 26 28  1  0  0  0  0
 28 29  2  0  0  0  0
 28 44  1  0  0  0  0
 29 45  1  0  0  0  0
M  END
$$$$
