
 OpenBabel01122422533D

 44 47  0  0  0  0  0  0  0  0999 V2000
    1.1084   -0.0444   -2.1706 C   0  0  0  0  0  0  0  0  0  0  0  0
    2.5334    0.0537   -2.1340 O   0  0  0  0  0  0  0  0  0  0  0  0
    2.9815    1.3218   -1.9305 C   0  0  0  0  0  0  0  0  0  0  0  0
    2.2649    2.2977   -1.7745 O   0  0  0  0  0  0  0  0  0  0  0  0
    4.4889    1.3639   -1.9283 C   0  0  0  0  0  0  0  0  0  0  0  0
    5.0787    0.4796   -2.7822 N   0  0  0  0  0  0  0  0  0  0  0  0
    6.4117    0.5895   -2.9309 C   0  0  0  0  0  0  0  0  0  0  0  0
    7.1914    1.5191   -2.2631 C   0  0  0  0  0  0  0  0  0  0  0  0
    8.4872    1.6066   -2.6019 F   0  0  0  0  0  0  0  0  0  0  0  0
    6.6150    2.3927   -1.3158 C   0  0  0  0  0  0  0  0  0  0  0  0
    7.3513    3.3569   -0.5558 C   0  0  0  0  0  0  0  0  0  0  0  0
    8.7693    3.4409   -0.5470 N   0  0  0  0  0  0  0  0  0  0  0  0
    9.5397    2.3572   -0.1462 C   0  0  0  0  0  0  0  0  0  0  0  0
    9.0925    1.2661    0.1973 O   0  0  0  0  0  0  0  0  0  0  0  0
   11.0092    2.5898   -0.0544 C   0  0  0  0  0  0  0  0  0  0  0  0
   11.7378    1.9115    0.9295 C   0  0  0  0  0  0  0  0  0  0  0  0
   13.1359    1.9951    0.9695 C   0  0  0  0  0  0  0  0  0  0  0  0
   13.8282    2.7572    0.0174 C   0  0  0  0  0  0  0  0  0  0  0  0
   15.2562    2.7883    0.0135 N   0  0  0  0  0  0  0  0  0  0  0  0
   16.1159    2.0849    0.8336 C   0  0  0  0  0  0  0  0  0  0  0  0
   17.3894    2.4426    0.4577 C   0  0  0  0  0  0  0  0  0  0  0  0
   17.3557    3.3356   -0.5723 N   0  0  0  0  0  0  0  0  0  0  0  0
   16.0776    3.5175   -0.8222 C   0  0  0  0  0  0  0  0  0  0  0  0
   13.0901    3.4670   -0.9459 C   0  0  0  0  0  0  0  0  0  0  0  0
   11.6884    3.3862   -0.9798 C   0  0  0  0  0  0  0  0  0  0  0  0
    6.6897    4.2800    0.2620 C   0  0  0  0  0  0  0  0  0  0  0  0
    5.3143    4.2139    0.4179 C   0  0  0  0  0  0  0  0  0  0  0  0
    4.5863    3.2469   -0.2690 C   0  0  0  0  0  0  0  0  0  0  0  0
    5.1993    2.3334   -1.1638 C   0  0  0  0  0  0  0  0  0  0  0  0
    0.8371   -1.0809   -2.3873 H   0  0  0  0  0  0  0  0  0  0  0  0
    0.6960    0.5919   -2.9617 H   0  0  0  0  0  0  0  0  0  0  0  0
    0.6831    0.2292   -1.1989 H   0  0  0  0  0  0  0  0  0  0  0  0
    6.8637   -0.0901   -3.6470 H   0  0  0  0  0  0  0  0  0  0  0  0
    9.1661    4.3401   -0.2998 H   0  0  0  0  0  0  0  0  0  0  0  0
   11.2180    1.2921    1.6595 H   0  0  0  0  0  0  0  0  0  0  0  0
   13.6467    1.4335    1.7466 H   0  0  0  0  0  0  0  0  0  0  0  0
   15.7828    1.3955    1.5932 H   0  0  0  0  0  0  0  0  0  0  0  0
   18.3274    2.0975    0.8743 H   0  0  0  0  0  0  0  0  0  0  0  0
   15.7056    4.1739   -1.5953 H   0  0  0  0  0  0  0  0  0  0  0  0
   13.5706    4.0634   -1.7164 H   0  0  0  0  0  0  0  0  0  0  0  0
   11.1490    3.9023   -1.7707 H   0  0  0  0  0  0  0  0  0  0  0  0
    7.2451    5.0122    0.8424 H   0  0  0  0  0  0  0  0  0  0  0  0
    4.8029    4.8990    1.0900 H   0  0  0  0  0  0  0  0  0  0  0  0
    3.5116    3.2274   -0.0930 H   0  0  0  0  0  0  0  0  0  0  0  0
  1  2  1  0  0  0  0
  1 30  1  0  0  0  0
  1 31  1  0  0  0  0
  1 32  1  0  0  0  0
  2  3  1  0  0  0  0
  3  4  2  0  0  0  0
  3  5  1  0  0  0  0
  5  6  2  0  0  0  0
  5 29  1  0  0  0  0
  6  7  1  0  0  0  0
  7  8  2  0  0  0  0
  7 33  1  0  0  0  0
  8  9  1  0  0  0  0
  8 10  1  0  0  0  0
 10 11  2  0  0  0  0
 10 29  1  0  0  0  0
 11 12  1  0  0  0  0
 11 26  1  0  0  0  0
 12 13  1  0  0  0  0
 12 34  1  0  0  0  0
 13 14  2  0  0  0  0
 13 15  1  0  0  0  0
 15 16  2  0  0  0  0
 15 25  1  0  0  0  0
 16 17  1  0  0  0  0
 16 35  1  0  0  0  0
 17 18  2  0  0  0  0
 17 36  1  0  0  0  0
 18 19  1  0  0  0  0
 18 24  1  0  0  0  0
 19 20  1  0  0  0  0
 19 23  1  0  0  0  0
 20 21  2  0  0  0  0
 20 37  1  0  0  0  0
 21 22  1  0  0  0  0
 21 38  1  0  0  0  0
 22 23  2  0  0  0  0
 23 39  1  0  0  0  0
 24 25  2  0  0  0  0
 24 40  1  0  0  0  0
 25 41  1  0  0  0  0
 26 27  2  0  0  0  0
 26 42  1  0  0  0  0
 27 28  1  0  0  0  0
 27 43  1  0  0  0  0
 28 29  2  0  0  0  0
 28 44  1  0  0  0  0
M  END
$$$$
