
 OpenBabel01122422533D

 54 57  0  0  1  0  0  0  0  0999 V2000
    0.9541   -0.0325   -0.1296 C   0  0  0  0  0  0  0  0  0  0  0  0
    2.4810   -0.0736   -0.0347 C   0  0  3  0  0  0  0  0  0  0  0  0
    2.9285    0.3621    1.2803 N   0  0  0  0  0  0  0  0  0  0  0  0
    3.1663    1.6859    1.5754 C   0  0  0  0  0  0  0  0  0  0  0  0
    3.0241    2.6075    0.7803 O   0  0  0  0  0  0  0  0  0  0  0  0
    3.6702    1.9576    2.9474 C   0  0  0  0  0  0  0  0  0  0  0  0
    3.2513    1.1878    4.0423 C   0  0  0  0  0  0  0  0  0  0  0  0
    3.7682    1.4464    5.3127 C   0  0  0  0  0  0  0  0  0  0  0  0
    4.6840    2.4886    5.4897 C   0  0  0  0  0  0  0  0  0  0  0  0
    5.2531    2.7773    6.8198 C   0  0  0  0  0  0  0  0  0  0  0  0
    4.9752    2.0326    7.7567 O   0  0  0  0  0  0  0  0  0  0  0  0
    6.0811    3.8905    6.9150 N   0  0  0  0  0  0  0  0  0  0  0  0
    6.6183    4.2469    8.2135 C   0  0  0  0  0  0  0  0  0  0  0  0
    6.4426    4.6914    5.8426 C   0  0  0  0  0  0  0  0  0  0  0  0
    7.1773    5.6735    5.9368 O   0  0  0  0  0  0  0  0  0  0  0  0
    5.9391    4.3455    4.6195 N   0  0  0  0  0  0  0  0  0  0  0  0
    5.0657    3.2808    4.4123 C   0  0  0  0  0  0  0  0  0  0  0  0
    4.5679    3.0185    3.1353 C   0  0  0  0  0  0  0  0  0  0  0  0
    3.0403   -1.4592   -0.3044 C   0  0  0  0  0  0  0  0  0  0  0  0
    2.6221   -2.5708    0.4449 C   0  0  0  0  0  0  0  0  0  0  0  0
    3.2143   -3.8178    0.2571 C   0  0  0  0  0  0  0  0  0  0  0  0
    4.2256   -3.9743   -0.6861 C   0  0  0  0  0  0  0  0  0  0  0  0
    4.6225   -2.8942   -1.4758 C   0  0  0  0  0  0  0  0  0  0  0  0
    5.5692   -2.9559   -2.4608 O   0  0  0  0  0  0  0  0  0  0  0  0
    5.8609   -4.2723   -2.9428 C   0  0  0  0  0  0  0  0  0  0  0  0
    6.5066   -4.1932   -4.3033 C   0  0  0  0  0  0  0  0  0  0  0  0
    5.8528   -3.5301   -5.3400 C   0  0  0  0  0  0  0  0  0  0  0  0
    6.4283   -3.5301   -6.6054 C   0  0  0  0  0  0  0  0  0  0  0  0
    7.6382   -4.1866   -6.8005 C   0  0  0  0  0  0  0  0  0  0  0  0
    8.2214   -4.8209   -5.7177 C   0  0  0  0  0  0  0  0  0  0  0  0
    7.6821   -4.8481   -4.4802 N   0  0  0  0  0  0  0  0  0  0  0  0
    4.0440   -1.6387   -1.2707 C   0  0  0  0  0  0  0  0  0  0  0  0
    0.5821    0.9866    0.0215 H   0  0  0  0  0  0  0  0  0  0  0  0
    0.4773   -0.6614    0.6308 H   0  0  0  0  0  0  0  0  0  0  0  0
    0.6132   -0.3773   -1.1120 H   0  0  0  0  0  0  0  0  0  0  0  0
    2.8756    0.6287   -0.7799 H   0  0  0  0  0  0  0  0  0  0  0  0
    3.2093   -0.3516    1.9342 H   0  0  0  0  0  0  0  0  0  0  0  0
    2.5091    0.4027    3.9259 H   0  0  0  0  0  0  0  0  0  0  0  0
    3.4496    0.8458    6.1627 H   0  0  0  0  0  0  0  0  0  0  0  0
    6.3137    3.5486    8.9972 H   0  0  0  0  0  0  0  0  0  0  0  0
    6.2668    5.2501    8.4759 H   0  0  0  0  0  0  0  0  0  0  0  0
    7.7112    4.2670    8.1572 H   0  0  0  0  0  0  0  0  0  0  0  0
    6.2144    4.9460    3.8519 H   0  0  0  0  0  0  0  0  0  0  0  0
    4.8697    3.6229    2.2827 H   0  0  0  0  0  0  0  0  0  0  0  0
    1.8444   -2.4718    1.1977 H   0  0  0  0  0  0  0  0  0  0  0  0
    2.8943   -4.6690    0.8521 H   0  0  0  0  0  0  0  0  0  0  0  0
    4.6883   -4.9515   -0.7773 H   0  0  0  0  0  0  0  0  0  0  0  0
    4.9442   -4.8640   -3.0645 H   0  0  0  0  0  0  0  0  0  0  0  0
    6.5338   -4.7773   -2.2393 H   0  0  0  0  0  0  0  0  0  0  0  0
    4.9066   -3.0282   -5.1631 H   0  0  0  0  0  0  0  0  0  0  0  0
    5.9340   -3.0251   -7.4299 H   0  0  0  0  0  0  0  0  0  0  0  0
    8.1115   -4.2052   -7.7742 H   0  0  0  0  0  0  0  0  0  0  0  0
    9.1667   -5.3453   -5.8198 H   0  0  0  0  0  0  0  0  0  0  0  0
    4.3830   -0.7973   -1.8722 H   0  0  0  0  0  0  0  0  0  0  0  0
  1  2  1  0  0  0  0
  1 33  1  0  0  0  0
  1 34  1  0  0  0  0
  1 35  1  0  0  0  0
  2  3  1  0  0  0  0
  2 19  1  0  0  0  0
  2 36  1  0  0  0  0
  3  4  1  0  0  0  0
  3 37  1  0  0  0  0
  4  5  2  0  0  0  0
  4  6  1  0  0  0  0
  6  7  2  0  0  0  0
  6 18  1  0  0  0  0
  7  8  1  0  0  0  0
  7 38  1  0  0  0  0
  8  9  2  0  0  0  0
  8 39  1  0  0  0  0
  9 10  1  0  0  0  0
  9 17  1  0  0  0  0
 10 11  2  0  0  0  0
 10 12  1  0  0  0  0
 12 13  1  0  0  0  0
 12 14  1  0  0  0  0
 13 40  1  0  0  0  0
 13 41  1  0  0  0  0
 13 42  1  0  0  0  0
 14 15  2  0  0  0  0
 14 16  1  0  0  0  0
 16 17  1  0  0  0  0
 16 43  1  0  0  0  0
 17 18  2  0  0  0  0
 18 44  1  0  0  0  0
 19 20  2  0  0  0  0
 19 32  1  0  0  0  0
 20 21  1  0  0  0  0
 20 45  1  0  0  0  0
 21 22  2  0  0  0  0
 21 46  1  0  0  0  0
 22 23  1  0  0  0  0
 22 47  1  0  0  0  0
 23 24  1  0  0  0  0
 23 32  2  0  0  0  0
 24 25  1  0  0  0  0
 25 26  1  0  0  0  0
 25 48  1  0  0  0  0
 25 49  1  0  0  0  0
 26 27  2  0  0  0  0
 26 31  1  0  0  0  0
 27 28  1  0  0  0  0
 27 50  1  0  0  0  0
 28 29  2  0  0  0  0
 28 51  1  0  0  0  0
 29 30  1  0  0  0  0
 29 52  1  0  0  0  0
 30 31  2  0  0  0  0
 30 53  1  0  0  0  0
 32 54  1  0  0  0  0
M  END
$$$$
