
 OpenBabel01122422533D

 49 52  0  0  0  0  0  0  0  0999 V2000
    1.0886    0.0111    0.2961 C   0  0  0  0  0  0  0  0  0  0  0  0
    2.5190    0.0445    0.0858 N   0  0  0  0  0  0  0  0  0  0  0  0
    3.2028   -1.0008   -0.5268 C   0  0  0  0  0  0  0  0  0  0  0  0
    2.6195   -1.9984   -0.9628 O   0  0  0  0  0  0  0  0  0  0  0  0
    4.7026   -0.9458   -0.6801 C   0  0  0  0  0  0  0  0  0  0  0  0
    5.3144   -1.7092   -1.6624 C   0  0  0  0  0  0  0  0  0  0  0  0
    6.7031   -1.6232   -1.8103 C   0  0  0  0  0  0  0  0  0  0  0  0
    7.4683   -0.7826   -0.9866 C   0  0  0  0  0  0  0  0  0  0  0  0
    8.9320   -0.6496   -1.1172 C   0  0  0  0  0  0  0  0  0  0  0  0
    9.5834   -0.7631   -2.3535 C   0  0  0  0  0  0  0  0  0  0  0  0
   10.9723   -0.6404   -2.4429 C   0  0  0  0  0  0  0  0  0  0  0  0
   11.6820   -0.3948   -1.2839 C   0  0  0  0  0  0  0  0  0  0  0  0
   11.1094   -0.2636   -0.0716 N   0  0  0  0  0  0  0  0  0  0  0  0
    9.7610   -0.3976   -0.0209 C   0  0  0  0  0  0  0  0  0  0  0  0
    6.7486   -0.0784   -0.0246 C   0  0  0  0  0  0  0  0  0  0  0  0
    5.4148   -0.1590    0.1581 N   0  0  0  0  0  0  0  0  0  0  0  0
    3.1550    1.2057    0.5149 C   0  0  0  0  0  0  0  0  0  0  0  0
    3.4412    2.1560   -0.3952 N   0  0  0  0  0  0  0  0  0  0  0  0
    4.1157    3.2262    0.0704 C   0  0  0  0  0  0  0  0  0  0  0  0
    4.5152    3.3792    1.3792 C   0  0  0  0  0  0  0  0  0  0  0  0
    5.1620    4.5195    1.7390 O   0  0  0  0  0  0  0  0  0  0  0  0
    5.1043    4.8021    3.1391 C   0  0  0  0  0  0  0  0  0  0  0  0
    5.2950    6.2756    3.3682 C   0  0  0  0  0  0  0  0  0  0  0  0
    4.2452    7.0449    3.8913 C   0  0  0  0  0  0  0  0  0  0  0  0
    4.4227    8.4035    4.1387 C   0  0  0  0  0  0  0  0  0  0  0  0
    5.6541    9.0045    3.8691 C   0  0  0  0  0  0  0  0  0  0  0  0
    6.6967    8.2488    3.3360 C   0  0  0  0  0  0  0  0  0  0  0  0
    6.5240    6.8916    3.0878 C   0  0  0  0  0  0  0  0  0  0  0  0
    4.1848    2.3281    2.2079 C   0  0  0  0  0  0  0  0  0  0  0  0
    3.4565    1.2686    1.8231 N   0  0  0  0  0  0  0  0  0  0  0  0
    0.6674   -0.9666    0.0532 H   0  0  0  0  0  0  0  0  0  0  0  0
    0.6199    0.7646   -0.3470 H   0  0  0  0  0  0  0  0  0  0  0  0
    0.8613    0.2408    1.3430 H   0  0  0  0  0  0  0  0  0  0  0  0
    4.7286   -2.3553   -2.3085 H   0  0  0  0  0  0  0  0  0  0  0  0
    7.1763   -2.2334   -2.5776 H   0  0  0  0  0  0  0  0  0  0  0  0
    9.0217   -0.9353   -3.2696 H   0  0  0  0  0  0  0  0  0  0  0  0
   11.4793   -0.7382   -3.3931 H   0  0  0  0  0  0  0  0  0  0  0  0
   12.7642   -0.2943   -1.2985 H   0  0  0  0  0  0  0  0  0  0  0  0
    9.3605   -0.3010    0.9858 H   0  0  0  0  0  0  0  0  0  0  0  0
    7.2329    0.6218    0.6534 H   0  0  0  0  0  0  0  0  0  0  0  0
    4.3291    3.9937   -0.6711 H   0  0  0  0  0  0  0  0  0  0  0  0
    5.8907    4.2445    3.6629 H   0  0  0  0  0  0  0  0  0  0  0  0
    4.1315    4.5137    3.5622 H   0  0  0  0  0  0  0  0  0  0  0  0
    3.2795    6.5923    4.1076 H   0  0  0  0  0  0  0  0  0  0  0  0
    3.6098    8.9953    4.5501 H   0  0  0  0  0  0  0  0  0  0  0  0
    5.7933   10.0621    4.0639 H   0  0  0  0  0  0  0  0  0  0  0  0
    7.6514    8.7187    3.1229 H   0  0  0  0  0  0  0  0  0  0  0  0
    7.3416    6.3074    2.6710 H   0  0  0  0  0  0  0  0  0  0  0  0
    4.5039    2.2789    3.2426 H   0  0  0  0  0  0  0  0  0  0  0  0
  1  2  1  0  0  0  0
  1 31  1  0  0  0  0
  1 32  1  0  0  0  0
  1 33  1  0  0  0  0
  2  3  1  0  0  0  0
  2 17  1  0  0  0  0
  3  4  2  0  0  0  0
  3  5  1  0  0  0  0
  5  6  2  0  0  0  0
  5 16  1  0  0  0  0
  6  7  1  0  0  0  0
  6 34  1  0  0  0  0
  7  8  2  0  0  0  0
  7 35  1  0  0  0  0
  8  9  1  0  0  0  0
  8 15  1  0  0  0  0
  9 10  2  0  0  0  0
  9 14  1  0  0  0  0
 10 11  1  0  0  0  0
 10 36  1  0  0  0  0
 11 12  2  0  0  0  0
 11 37  1  0  0  0  0
 12 13  1  0  0  0  0
 12 38  1  0  0  0  0
 13 14  2  0  0  0  0
 14 39  1  0  0  0  0
 15 16  2  0  0  0  0
 15 40  1  0  0  0  0
 17 18  2  0  0  0  0
 17 30  1  0  0  0  0
 18 19  1  0  0  0  0
 19 20  2  0  0  0  0
 19 41  1  0  0  0  0
 20 21  1  0  0  0  0
 20 29  1  0  0  0  0
 21 22  1  0  0  0  0
 22 23  1  0  0  0  0
 22 42  1  0  0  0  0
 22 43  1  0  0  0  0
 23 24  2  0  0  0  0
 23 28  1  0  0  0  0
 24 25  1  0  0  0  0
 24 44  1  0  0  0  0
 25 26  2  0  0  0  0
 25 45  1  0  0  0  0
 26 27  1  0  0  0  0
 26 46  1  0  0  0  0
 27 28  2  0  0  0  0
 27 47  1  0  0  0  0
 28 48  1  0  0  0  0
 29 30  2  0  0  0  0
 29 49  1  0  0  0  0
M  END
$$$$
