
 OpenBabel01122422533D

 51 54  0  0  0  0  0  0  0  0999 V2000
    0.9688   -0.4354    0.5029 O   0  0  0  0  0  0  0  0  0  0  0  0
    2.1660   -0.2938    0.3663 C   0  0  0  0  0  0  0  0  0  0  0  0
    2.9406    0.5872    1.0914 N   0  0  0  0  0  0  0  0  0  0  0  0
    2.2458    1.5451    1.9852 C   0  0  0  0  0  0  0  0  0  0  0  0
    3.2226    2.3946    2.7682 C   0  0  0  0  0  0  0  0  0  0  0  0
    2.5041    3.3089    3.7227 C   0  0  0  0  0  0  0  0  0  0  0  0
    2.2401    2.8979    5.0327 C   0  0  0  0  0  0  0  0  0  0  0  0
    1.5546    3.7352    5.9139 C   0  0  0  0  0  0  0  0  0  0  0  0
    1.1258    4.9933    5.4886 C   0  0  0  0  0  0  0  0  0  0  0  0
    0.4509    5.8028    6.3621 O   0  0  0  0  0  0  0  0  0  0  0  0
    1.3638    5.4399    4.1850 C   0  0  0  0  0  0  0  0  0  0  0  0
    0.9224    6.7812    3.6350 C   0  0  0  0  0  0  0  0  0  0  0  0
    0.2079    7.6325    4.5202 O   0  0  0  0  0  0  0  0  0  0  0  0
    2.0614    4.5774    3.3112 C   0  0  0  0  0  0  0  0  0  0  0  0
    2.8770   -1.0295   -0.7089 C   0  0  0  0  0  0  0  0  0  0  0  0
    2.1863   -1.1971   -1.9144 C   0  0  0  0  0  0  0  0  0  0  0  0
    2.8249   -1.7861   -2.9955 C   0  0  0  0  0  0  0  0  0  0  0  0
    4.1489   -2.2496   -2.8920 C   0  0  0  0  0  0  0  0  0  0  0  0
    4.7591   -2.7749   -4.0696 N   0  0  0  0  0  0  0  0  0  0  0  0
    4.3415   -2.4481   -5.3508 C   0  0  0  0  0  0  0  0  0  0  0  0
    5.2867   -2.9308   -6.2145 C   0  0  0  0  0  0  0  0  0  0  0  0
    5.6379   -4.1313   -5.5826 C   0  0  0  0  0  0  0  0  0  0  0  0
    5.8479   -5.4414   -6.0296 C   0  0  0  0  0  0  0  0  0  0  0  0
    6.2275   -6.3995   -5.0981 C   0  0  0  0  0  0  0  0  0  0  0  0
    6.5191   -6.0271   -3.7864 C   0  0  0  0  0  0  0  0  0  0  0  0
    6.2485   -4.7369   -3.3088 C   0  0  0  0  0  0  0  0  0  0  0  0
    5.6465   -3.8484   -4.2082 C   0  0  0  0  0  0  0  0  0  0  0  0
    4.8224   -2.1376   -1.6748 C   0  0  0  0  0  0  0  0  0  0  0  0
    4.1847   -1.5201   -0.5849 C   0  0  0  0  0  0  0  0  0  0  0  0
    3.8353    0.9019    0.7102 H   0  0  0  0  0  0  0  0  0  0  0  0
    1.6114    0.9423    2.6409 H   0  0  0  0  0  0  0  0  0  0  0  0
    1.5935    2.1507    1.3540 H   0  0  0  0  0  0  0  0  0  0  0  0
    3.8441    2.9640    2.0883 H   0  0  0  0  0  0  0  0  0  0  0  0
    3.9268    1.7604    3.3200 H   0  0  0  0  0  0  0  0  0  0  0  0
    2.5585    1.9149    5.3743 H   0  0  0  0  0  0  0  0  0  0  0  0
    1.3574    3.3854    6.9234 H   0  0  0  0  0  0  0  0  0  0  0  0
    0.3967    5.3541    7.2241 H   0  0  0  0  0  0  0  0  0  0  0  0
    0.2754    6.6115    2.7679 H   0  0  0  0  0  0  0  0  0  0  0  0
    1.8054    7.3365    3.3005 H   0  0  0  0  0  0  0  0  0  0  0  0
    0.0999    7.1406    5.3576 H   0  0  0  0  0  0  0  0  0  0  0  0
    2.2519    4.9043    2.2888 H   0  0  0  0  0  0  0  0  0  0  0  0
    1.1639   -0.8407   -2.0218 H   0  0  0  0  0  0  0  0  0  0  0  0
    2.2365   -1.9108   -3.8987 H   0  0  0  0  0  0  0  0  0  0  0  0
    3.4183   -1.9327   -5.5651 H   0  0  0  0  0  0  0  0  0  0  0  0
    5.9729   -2.2909   -6.7620 H   0  0  0  0  0  0  0  0  0  0  0  0
    5.6070   -5.7110   -7.0547 H   0  0  0  0  0  0  0  0  0  0  0  0
    6.2928   -7.4415   -5.4018 H   0  0  0  0  0  0  0  0  0  0  0  0
    6.8911   -6.7813   -3.0964 H   0  0  0  0  0  0  0  0  0  0  0  0
    6.3834   -4.5104   -2.2585 H   0  0  0  0  0  0  0  0  0  0  0  0
    5.8514   -2.4692   -1.5510 H   0  0  0  0  0  0  0  0  0  0  0  0
    4.7137   -1.4096    0.3569 H   0  0  0  0  0  0  0  0  0  0  0  0
  1  2  2  0  0  0  0
  2  3  1  0  0  0  0
  2 15  1  0  0  0  0
  3  4  1  0  0  0  0
  3 30  1  0  0  0  0
  4  5  1  0  0  0  0
  4 31  1  0  0  0  0
  4 32  1  0  0  0  0
  5  6  1  0  0  0  0
  5 33  1  0  0  0  0
  5 34  1  0  0  0  0
  6  7  2  0  0  0  0
  6 14  1  0  0  0  0
  7  8  1  0  0  0  0
  7 35  1  0  0  0  0
  8  9  2  0  0  0  0
  8 36  1  0  0  0  0
  9 10  1  0  0  0  0
  9 11  1  0  0  0  0
 10 37  1  0  0  0  0
 11 12  1  0  0  0  0
 11 14  2  0  0  0  0
 12 13  1  0  0  0  0
 12 38  1  0  0  0  0
 12 39  1  0  0  0  0
 13 40  1  0  0  0  0
 14 41  1  0  0  0  0
 15 16  2  0  0  0  0
 15 29  1  0  0  0  0
 16 17  1  0  0  0  0
 16 42  1  0  0  0  0
 17 18  2  0  0  0  0
 17 43  1  0  0  0  0
 18 19  1  0  0  0  0
 18 28  1  0  0  0  0
 19 20  1  0  0  0  0
 19 27  1  0  0  0  0
 20 21  2  0  0  0  0
 20 44  1  0  0  0  0
 21 22  1  0  0  0  0
 21 45  1  0  0  0  0
 22 23  2  0  0  0  0
 22 27  1  0  0  0  0
 23 24  1  0  0  0  0
 23 46  1  0  0  0  0
 24 25  2  0  0  0  0
 24 47  1  0  0  0  0
 25 26  1  0  0  0  0
 25 48  1  0  0  0  0
 26 27  2  0  0  0  0
 26 49  1  0  0  0  0
 28 29  2  0  0  0  0
 28 50  1  0  0  0  0
 29 51  1  0  0  0  0
M  END
$$$$
