
 OpenBabel01122422463D

 45 48  0  0  0  0  0  0  0  0999 V2000
    1.1090    0.4767    0.5088 O   0  0  0  0  0  0  0  0  0  0  0  0
    2.2205    0.1556    0.1033 C   0  0  0  0  0  0  0  0  0  0  0  0
    2.7591    0.4261   -1.1501 N   0  0  0  0  0  0  0  0  0  0  0  0
    2.1103    1.1728   -2.1639 C   0  0  0  0  0  0  0  0  0  0  0  0
    1.0015    1.9753   -1.8888 C   0  0  0  0  0  0  0  0  0  0  0  0
    0.3329    2.6372   -2.9086 C   0  0  0  0  0  0  0  0  0  0  0  0
    0.7831    2.5299   -4.2186 C   0  0  0  0  0  0  0  0  0  0  0  0
    1.9209    1.7825   -4.5294 C   0  0  0  0  0  0  0  0  0  0  0  0
    2.4153    1.6631   -5.8547 N   0  0  0  0  0  0  0  0  0  0  0  0
    1.9133    2.3252   -6.9750 C   0  0  0  0  0  0  0  0  0  0  0  0
    1.0155    3.1619   -6.9755 O   0  0  0  0  0  0  0  0  0  0  0  0
    2.5279    1.9937   -8.2836 C   0  0  0  0  0  0  0  0  0  0  0  0
    3.9116    1.8507   -8.3604 C   0  0  0  0  0  0  0  0  0  0  0  0
    4.5853    1.5393   -9.4906 N   0  0  0  0  0  0  0  0  0  0  0  0
    3.8320    1.3978  -10.5947 C   0  0  0  0  0  0  0  0  0  0  0  0
    4.5661    1.0794  -11.6922 O   0  0  0  0  0  0  0  0  0  0  0  0
    2.4477    1.5559  -10.6650 C   0  0  0  0  0  0  0  0  0  0  0  0
    1.7150    1.4139  -11.8501 C   0  0  0  0  0  0  0  0  0  0  0  0
    0.3775    1.5843  -11.9507 N   0  0  0  0  0  0  0  0  0  0  0  0
   -0.2700    1.9112  -10.8175 C   0  0  0  0  0  0  0  0  0  0  0  0
    0.3575    2.0540   -9.5883 C   0  0  0  0  0  0  0  0  0  0  0  0
    1.7591    1.8774   -9.4790 C   0  0  0  0  0  0  0  0  0  0  0  0
    2.5839    1.1015   -3.4886 C   0  0  0  0  0  0  0  0  0  0  0  0
    3.0489   -0.6726    1.0126 C   0  0  0  0  0  0  0  0  0  0  0  0
    2.3830   -1.5772    1.8566 C   0  0  0  0  0  0  0  0  0  0  0  0
    3.1055   -2.3681    2.7475 C   0  0  0  0  0  0  0  0  0  0  0  0
    4.4876   -2.2403    2.8003 C   0  0  0  0  0  0  0  0  0  0  0  0
    5.1860   -2.9976    3.6552 F   0  0  0  0  0  0  0  0  0  0  0  0
    5.1584   -1.3290    1.9869 C   0  0  0  0  0  0  0  0  0  0  0  0
    4.4396   -0.5357    1.0885 C   0  0  0  0  0  0  0  0  0  0  0  0
    3.6002   -0.0700   -1.4146 H   0  0  0  0  0  0  0  0  0  0  0  0
    0.6232    2.1122   -0.8805 H   0  0  0  0  0  0  0  0  0  0  0  0
   -0.5477    3.2320   -2.6828 H   0  0  0  0  0  0  0  0  0  0  0  0
    0.1983    3.0435   -4.9728 H   0  0  0  0  0  0  0  0  0  0  0  0
    3.1824    1.0142   -5.9795 H   0  0  0  0  0  0  0  0  0  0  0  0
    4.5498    2.0099   -7.4957 H   0  0  0  0  0  0  0  0  0  0  0  0
    5.4607    1.0641  -11.3069 H   0  0  0  0  0  0  0  0  0  0  0  0
    2.2060    1.1520  -12.7845 H   0  0  0  0  0  0  0  0  0  0  0  0
   -1.3405    2.0643  -10.9193 H   0  0  0  0  0  0  0  0  0  0  0  0
   -0.2573    2.3209   -8.7331 H   0  0  0  0  0  0  0  0  0  0  0  0
    3.4589    0.4942   -3.7113 H   0  0  0  0  0  0  0  0  0  0  0  0
    1.2971   -1.6593    1.8220 H   0  0  0  0  0  0  0  0  0  0  0  0
    2.5987   -3.0710    3.4006 H   0  0  0  0  0  0  0  0  0  0  0  0
    6.2372   -1.2348    2.0719 H   0  0  0  0  0  0  0  0  0  0  0  0
    4.9654    0.2034    0.4911 H   0  0  0  0  0  0  0  0  0  0  0  0
  1  2  2  0  0  0  0
  2  3  1  0  0  0  0
  2 24  1  0  0  0  0
  3  4  1  0  0  0  0
  3 31  1  0  0  0  0
  4  5  2  0  0  0  0
  4 23  1  0  0  0  0
  5  6  1  0  0  0  0
  5 32  1  0  0  0  0
  6  7  2  0  0  0  0
  6 33  1  0  0  0  0
  7  8  1  0  0  0  0
  7 34  1  0  0  0  0
  8  9  1  0  0  0  0
  8 23  2  0  0  0  0
  9 10  1  0  0  0  0
  9 35  1  0  0  0  0
 10 11  2  0  0  0  0
 10 12  1  0  0  0  0
 12 13  2  0  0  0  0
 12 22  1  0  0  0  0
 13 14  1  0  0  0  0
 13 36  1  0  0  0  0
 14 15  2  0  0  0  0
 15 16  1  0  0  0  0
 15 17  1  0  0  0  0
 16 37  1  0  0  0  0
 17 18  2  0  0  0  0
 17 22  1  0  0  0  0
 18 19  1  0  0  0  0
 18 38  1  0  0  0  0
 19 20  2  0  0  0  0
 20 21  1  0  0  0  0
 20 39  1  0  0  0  0
 21 22  2  0  0  0  0
 21 40  1  0  0  0  0
 23 41  1  0  0  0  0
 24 25  2  0  0  0  0
 24 30  1  0  0  0  0
 25 26  1  0  0  0  0
 25 42  1  0  0  0  0
 26 27  2  0  0  0  0
 26 43  1  0  0  0  0
 27 28  1  0  0  0  0
 27 29  1  0  0  0  0
 29 30  2  0  0  0  0
 29 44  1  0  0  0  0
 30 45  1  0  0  0  0
M  END
$$$$
