
 OpenBabel01122422533D

 40 43  0  0  0  0  0  0  0  0999 V2000
    0.9764   -0.1033   -0.2408 O   0  0  0  0  0  0  0  0  0  0  0  0
    2.1879   -0.1195   -0.0451 C   0  0  0  0  0  0  0  0  0  0  0  0
    2.8665   -1.0563    0.7200 N   0  0  0  0  0  0  0  0  0  0  0  0
    2.2349   -2.0992    1.3723 C   0  0  0  0  0  0  0  0  0  0  0  0
    0.9585   -2.5531    1.1633 C   0  0  0  0  0  0  0  0  0  0  0  0
    0.7102   -3.5510    2.0742 N   0  0  0  0  0  0  0  0  0  0  0  0
   -0.4867   -4.2814    2.2020 C   0  0  0  0  0  0  0  0  0  0  0  0
   -1.2862   -4.5232    1.0815 C   0  0  0  0  0  0  0  0  0  0  0  0
   -0.9031   -4.1467   -0.1471 F   0  0  0  0  0  0  0  0  0  0  0  0
   -2.4828   -5.2289    1.1910 C   0  0  0  0  0  0  0  0  0  0  0  0
   -2.9087   -5.6824    2.4365 C   0  0  0  0  0  0  0  0  0  0  0  0
   -2.1234   -5.4364    3.5634 C   0  0  0  0  0  0  0  0  0  0  0  0
   -0.9112   -4.7523    3.4424 C   0  0  0  0  0  0  0  0  0  0  0  0
   -0.2321   -4.4893    4.5677 F   0  0  0  0  0  0  0  0  0  0  0  0
    1.7906   -3.7686    2.8673 N   0  0  0  0  0  0  0  0  0  0  0  0
    2.7219   -2.9309    2.3977 C   0  0  0  0  0  0  0  0  0  0  0  0
    3.0276    0.9417   -0.5924 C   0  0  0  0  0  0  0  0  0  0  0  0
    4.3690    0.9511   -0.5101 N   0  0  0  0  0  0  0  0  0  0  0  0
    4.7685    2.1145   -1.1622 O   0  0  0  0  0  0  0  0  0  0  0  0
    3.6720    2.7936   -1.6135 C   0  0  0  0  0  0  0  0  0  0  0  0
    3.9005    4.0404   -2.3317 C   0  0  0  0  0  0  0  0  0  0  0  0
    5.0225    4.8306   -2.0387 C   0  0  0  0  0  0  0  0  0  0  0  0
    5.2370    6.0426   -2.6993 C   0  0  0  0  0  0  0  0  0  0  0  0
    4.3357    6.4809   -3.6681 C   0  0  0  0  0  0  0  0  0  0  0  0
    3.2144    5.7127   -3.9744 C   0  0  0  0  0  0  0  0  0  0  0  0
    2.9986    4.5058   -3.3066 C   0  0  0  0  0  0  0  0  0  0  0  0
    1.8884    3.7655   -3.6219 O   0  0  0  0  0  0  0  0  0  0  0  0
    2.5506    2.0893   -1.2627 C   0  0  0  0  0  0  0  0  0  0  0  0
    3.8512   -0.8871    0.8965 H   0  0  0  0  0  0  0  0  0  0  0  0
    0.1891   -2.2250    0.4798 H   0  0  0  0  0  0  0  0  0  0  0  0
   -3.0701   -5.4230    0.2976 H   0  0  0  0  0  0  0  0  0  0  0  0
   -3.8475   -6.2223    2.5291 H   0  0  0  0  0  0  0  0  0  0  0  0
   -2.4533   -5.7622    4.5458 H   0  0  0  0  0  0  0  0  0  0  0  0
    3.7007   -2.9358    2.8590 H   0  0  0  0  0  0  0  0  0  0  0  0
    5.7323    4.5155   -1.2763 H   0  0  0  0  0  0  0  0  0  0  0  0
    6.1062    6.6475   -2.4528 H   0  0  0  0  0  0  0  0  0  0  0  0
    4.5075    7.4230   -4.1818 H   0  0  0  0  0  0  0  0  0  0  0  0
    2.5217    6.0684   -4.7312 H   0  0  0  0  0  0  0  0  0  0  0  0
    1.3787    4.2255   -4.3089 H   0  0  0  0  0  0  0  0  0  0  0  0
    1.5217    2.3535   -1.4585 H   0  0  0  0  0  0  0  0  0  0  0  0
  1  2  2  0  0  0  0
  2  3  1  0  0  0  0
  2 17  1  0  0  0  0
  3  4  1  0  0  0  0
  3 29  1  0  0  0  0
  4  5  2  0  0  0  0
  4 16  1  0  0  0  0
  5  6  1  0  0  0  0
  5 30  1  0  0  0  0
  6  7  1  0  0  0  0
  6 15  1  0  0  0  0
  7  8  2  0  0  0  0
  7 13  1  0  0  0  0
  8  9  1  0  0  0  0
  8 10  1  0  0  0  0
 10 11  2  0  0  0  0
 10 31  1  0  0  0  0
 11 12  1  0  0  0  0
 11 32  1  0  0  0  0
 12 13  2  0  0  0  0
 12 33  1  0  0  0  0
 13 14  1  0  0  0  0
 15 16  2  0  0  0  0
 16 34  1  0  0  0  0
 17 18  2  0  0  0  0
 17 28  1  0  0  0  0
 18 19  1  0  0  0  0
 19 20  1  0  0  0  0
 20 21  1  0  0  0  0
 20 28  2  0  0  0  0
 21 22  2  0  0  0  0
 21 26  1  0  0  0  0
 22 23  1  0  0  0  0
 22 35  1  0  0  0  0
 23 24  2  0  0  0  0
 23 36  1  0  0  0  0
 24 25  1  0  0  0  0
 24 37  1  0  0  0  0
 25 26  2  0  0  0  0
 25 38  1  0  0  0  0
 26 27  1  0  0  0  0
 27 39  1  0  0  0  0
 28 40  1  0  0  0  0
M  END
$$$$
