
 OpenBabel01122422533D

 49 52  0  0  1  0  0  0  0  0999 V2000
    6.9517    1.9603    2.3502 C   0  0  0  0  0  0  0  0  0  0  0  0
    5.9718    1.8390    1.3328 O   0  0  0  0  0  0  0  0  0  0  0  0
    4.6325    1.8940    1.6442 C   0  0  0  0  0  0  0  0  0  0  0  0
    4.1649    2.0151    2.9565 C   0  0  0  0  0  0  0  0  0  0  0  0
    2.8097    2.2251    3.1857 C   0  0  0  0  0  0  0  0  0  0  0  0
    1.9199    2.3149    2.1153 C   0  0  0  0  0  0  0  0  0  0  0  0
    2.3729    2.1243    0.8039 C   0  0  0  0  0  0  0  0  0  0  0  0
    3.7259    1.8724    0.5405 C   0  0  0  0  0  0  0  0  0  0  0  0
    4.2245    1.6611   -0.8363 C   0  0  0  0  0  0  0  0  0  0  0  0
    3.9076    2.4751   -1.9342 C   0  0  0  0  0  0  0  0  0  0  0  0
    4.6982    2.4731   -3.0918 C   0  0  0  0  0  0  0  0  0  0  0  0
    5.8660    1.6971   -3.1713 C   0  0  0  0  0  0  0  0  0  0  0  0
    6.1507    0.7997   -2.1254 C   0  0  0  0  0  0  0  0  0  0  0  0
    5.2557    0.7321   -1.0686 C   0  0  0  0  0  0  0  0  0  0  0  0
    5.6082   -0.2825   -0.2246 O   0  0  0  0  0  0  0  0  0  0  0  0
    6.8683   -0.6821   -0.5665 C   0  0  0  0  0  0  0  0  0  0  0  0
    7.5638   -1.5265    0.3845 C   0  0  0  0  0  0  0  0  0  0  0  0
    8.7716   -1.4616    0.5978 O   0  0  0  0  0  0  0  0  0  0  0  0
    6.7357   -2.3771    1.0948 N   0  0  0  0  0  0  0  0  0  0  0  0
    7.2197   -3.2277    2.1836 C   0  0  3  0  0  0  0  0  0  0  0  0
    6.1032   -3.5528    3.2331 C   0  0  0  0  0  0  0  0  0  0  0  0
    4.8893   -2.9192    3.0717 N   0  0  0  0  0  0  0  0  0  0  0  0
    6.2619   -4.2941    4.1996 O   0  0  0  0  0  0  0  0  0  0  0  0
    7.8371   -4.5445    1.7397 C   0  0  0  0  0  0  0  0  0  0  0  0
    8.8770   -5.0844    2.5077 C   0  0  0  0  0  0  0  0  0  0  0  0
    9.3259   -6.3755    2.2424 C   0  0  0  0  0  0  0  0  0  0  0  0
    8.7416   -7.0941    1.2055 C   0  0  0  0  0  0  0  0  0  0  0  0
    7.7394   -6.4787    0.4734 C   0  0  0  0  0  0  0  0  0  0  0  0
    7.2764   -5.2243    0.7103 N   0  0  0  0  0  0  0  0  0  0  0  0
    7.2436   -0.0363   -1.7337 C   0  0  0  0  0  0  0  0  0  0  0  0
    7.9265    1.8921    1.8704 H   0  0  0  0  0  0  0  0  0  0  0  0
    6.8742    1.1469    3.0745 H   0  0  0  0  0  0  0  0  0  0  0  0
    6.8801    2.9423    2.8353 H   0  0  0  0  0  0  0  0  0  0  0  0
    4.8344    1.9673    3.8063 H   0  0  0  0  0  0  0  0  0  0  0  0
    2.4482    2.3448    4.2034 H   0  0  0  0  0  0  0  0  0  0  0  0
    0.8716    2.5313    2.3011 H   0  0  0  0  0  0  0  0  0  0  0  0
    1.6537    2.1804   -0.0095 H   0  0  0  0  0  0  0  0  0  0  0  0
    3.0879    3.1869   -1.8644 H   0  0  0  0  0  0  0  0  0  0  0  0
    4.4446    3.1472   -3.9093 H   0  0  0  0  0  0  0  0  0  0  0  0
    6.5375    1.8055   -4.0178 H   0  0  0  0  0  0  0  0  0  0  0  0
    5.8163   -2.5594    0.7123 H   0  0  0  0  0  0  0  0  0  0  0  0
    7.9708   -2.6348    2.7251 H   0  0  0  0  0  0  0  0  0  0  0  0
    4.8164   -2.0659    2.5441 H   0  0  0  0  0  0  0  0  0  0  0  0
    4.2048   -3.0962    3.7969 H   0  0  0  0  0  0  0  0  0  0  0  0
    9.2909   -4.5349    3.3467 H   0  0  0  0  0  0  0  0  0  0  0  0
   10.1032   -6.8234    2.8564 H   0  0  0  0  0  0  0  0  0  0  0  0
    9.0516   -8.1073    0.9887 H   0  0  0  0  0  0  0  0  0  0  0  0
    7.2530   -7.0085   -0.3454 H   0  0  0  0  0  0  0  0  0  0  0  0
    8.2106   -0.1124   -2.2117 H   0  0  0  0  0  0  0  0  0  0  0  0
  1  2  1  0  0  0  0
  1 31  1  0  0  0  0
  1 32  1  0  0  0  0
  1 33  1  0  0  0  0
  2  3  1  0  0  0  0
  3  4  2  0  0  0  0
  3  8  1  0  0  0  0
  4  5  1  0  0  0  0
  4 34  1  0  0  0  0
  5  6  2  0  0  0  0
  5 35  1  0  0  0  0
  6  7  1  0  0  0  0
  6 36  1  0  0  0  0
  7  8  2  0  0  0  0
  7 37  1  0  0  0  0
  8  9  1  0  0  0  0
  9 10  2  0  0  0  0
  9 14  1  0  0  0  0
 10 11  1  0  0  0  0
 10 38  1  0  0  0  0
 11 12  2  0  0  0  0
 11 39  1  0  0  0  0
 12 13  1  0  0  0  0
 12 40  1  0  0  0  0
 13 14  2  0  0  0  0
 13 30  1  0  0  0  0
 14 15  1  0  0  0  0
 15 16  1  0  0  0  0
 16 17  1  0  0  0  0
 16 30  2  0  0  0  0
 17 18  2  0  0  0  0
 17 19  1  0  0  0  0
 19 20  1  0  0  0  0
 19 41  1  0  0  0  0
 20 21  1  0  0  0  0
 20 24  1  0  0  0  0
 20 42  1  0  0  0  0
 21 22  1  0  0  0  0
 21 23  2  0  0  0  0
 22 43  1  0  0  0  0
 22 44  1  0  0  0  0
 24 25  2  0  0  0  0
 24 29  1  0  0  0  0
 25 26  1  0  0  0  0
 25 45  1  0  0  0  0
 26 27  2  0  0  0  0
 26 46  1  0  0  0  0
 27 28  1  0  0  0  0
 27 47  1  0  0  0  0
 28 29  2  0  0  0  0
 28 48  1  0  0  0  0
 30 49  1  0  0  0  0
M  END
$$$$
