
 OpenBabel01122422533D

 56 59  0  0  1  0  0  0  0  0999 V2000
    3.4920    1.2522   -1.8455 C   0  0  0  0  0  0  0  0  0  0  0  0
    2.6883    1.4340   -0.6890 O   0  0  0  0  0  0  0  0  0  0  0  0
    3.3092    1.4746    0.5339 C   0  0  0  0  0  0  0  0  0  0  0  0
    4.4294    0.6961    0.8146 C   0  0  0  0  0  0  0  0  0  0  0  0
    5.0566    0.7445    2.0706 C   0  0  0  0  0  0  0  0  0  0  0  0
    4.5509    1.5491    3.0991 C   0  0  0  0  0  0  0  0  0  0  0  0
    5.3165    1.6646    4.4140 C   0  0  0  0  0  0  0  0  0  0  0  0
    4.5740    1.3860    5.7689 C   0  0  3  0  0  0  0  0  0  0  0  0
    4.1665   -0.0078    6.1023 N   0  0  0  0  0  0  0  0  0  0  0  0
    4.9369   -1.1394    6.0171 C   0  0  0  0  0  0  0  0  0  0  0  0
    6.1317   -1.0840    5.6790 O   0  0  0  0  0  0  0  0  0  0  0  0
    4.3318   -2.5269    6.1855 C   0  0  0  0  0  0  0  0  0  0  0  0
    3.1018   -2.8126    6.6566 N   0  0  0  0  0  0  0  0  0  0  0  0
    2.3276   -3.8480    6.0047 N   0  0  0  0  0  0  0  0  0  0  0  0
    2.5937   -4.1363    4.6977 C   0  0  0  0  0  0  0  0  0  0  0  0
    1.6934   -4.5894    3.7093 C   0  0  0  0  0  0  0  0  0  0  0  0
    1.5452   -3.8149    2.5614 C   0  0  0  0  0  0  0  0  0  0  0  0
    2.2343   -2.6060    2.5131 C   0  0  0  0  0  0  0  0  0  0  0  0
    3.3208   -2.4373    3.3689 C   0  0  0  0  0  0  0  0  0  0  0  0
    3.6715   -3.4506    4.2586 C   0  0  0  0  0  0  0  0  0  0  0  0
    4.7267   -3.3841    5.1907 C   0  0  0  0  0  0  0  0  0  0  0  0
    5.2709   -4.6947    5.5950 N   0  0  0  0  0  0  0  0  0  0  0  0
    5.3129    2.0823    6.9161 C   0  0  0  0  0  0  0  0  0  0  0  0
    4.9255    3.3849    7.2864 C   0  0  0  0  0  0  0  0  0  0  0  0
    5.5634    4.0543    8.3406 C   0  0  0  0  0  0  0  0  0  0  0  0
    6.6006    3.4459    9.0259 C   0  0  0  0  0  0  0  0  0  0  0  0
    7.0292    2.1801    8.6331 C   0  0  0  0  0  0  0  0  0  0  0  0
    6.3958    1.4988    7.5838 C   0  0  0  0  0  0  0  0  0  0  0  0
    3.4108    2.3118    2.8217 C   0  0  0  0  0  0  0  0  0  0  0  0
    2.7725    2.2825    1.5551 C   0  0  0  0  0  0  0  0  0  0  0  0
    1.6690    3.0963    1.5012 O   0  0  0  0  0  0  0  0  0  0  0  0
    0.9103    3.1469    0.2944 C   0  0  0  0  0  0  0  0  0  0  0  0
    3.1983    2.0115   -2.5803 H   0  0  0  0  0  0  0  0  0  0  0  0
    3.2782    0.2688   -2.2756 H   0  0  0  0  0  0  0  0  0  0  0  0
    4.5673    1.3638   -1.6786 H   0  0  0  0  0  0  0  0  0  0  0  0
    4.8459    0.0215    0.0656 H   0  0  0  0  0  0  0  0  0  0  0  0
    5.9603    0.1555    2.2275 H   0  0  0  0  0  0  0  0  0  0  0  0
    5.6622    2.7166    4.4282 H   0  0  0  0  0  0  0  0  0  0  0  0
    6.2449    1.0865    4.3588 H   0  0  0  0  0  0  0  0  0  0  0  0
    3.6050    1.8877    5.6857 H   0  0  0  0  0  0  0  0  0  0  0  0
    3.2465   -0.1179    6.5330 H   0  0  0  0  0  0  0  0  0  0  0  0
    0.9833   -5.3938    3.9032 H   0  0  0  0  0  0  0  0  0  0  0  0
    0.7947   -4.0408    1.8164 H   0  0  0  0  0  0  0  0  0  0  0  0
    1.9108   -1.7939    1.8719 H   0  0  0  0  0  0  0  0  0  0  0  0
    3.8145   -1.4672    3.4178 H   0  0  0  0  0  0  0  0  0  0  0  0
    4.5325   -5.2388    6.0644 H   0  0  0  0  0  0  0  0  0  0  0  0
    6.0309   -4.5545    6.2724 H   0  0  0  0  0  0  0  0  0  0  0  0
    4.1330    3.8996    6.7503 H   0  0  0  0  0  0  0  0  0  0  0  0
    5.2419    5.0472    8.6178 H   0  0  0  0  0  0  0  0  0  0  0  0
    7.0846    3.9489    9.8528 H   0  0  0  0  0  0  0  0  0  0  0  0
    7.8596    1.6975    9.1537 H   0  0  0  0  0  0  0  0  0  0  0  0
    6.7959    0.5399    7.2809 H   0  0  0  0  0  0  0  0  0  0  0  0
    3.0128    2.9981    3.5708 H   0  0  0  0  0  0  0  0  0  0  0  0
    0.0391    3.7870    0.4714 H   0  0  0  0  0  0  0  0  0  0  0  0
    0.5226    2.1610    0.0164 H   0  0  0  0  0  0  0  0  0  0  0  0
    1.4876    3.6058   -0.5154 H   0  0  0  0  0  0  0  0  0  0  0  0
  1  2  1  0  0  0  0
  1 33  1  0  0  0  0
  1 34  1  0  0  0  0
  1 35  1  0  0  0  0
  2  3  1  0  0  0  0
  3  4  2  0  0  0  0
  3 30  1  0  0  0  0
  4  5  1  0  0  0  0
  4 36  1  0  0  0  0
  5  6  2  0  0  0  0
  5 37  1  0  0  0  0
  6  7  1  0  0  0  0
  6 29  1  0  0  0  0
  7  8  1  0  0  0  0
  7 38  1  0  0  0  0
  7 39  1  0  0  0  0
  8  9  1  0  0  0  0
  8 23  1  0  0  0  0
  8 40  1  0  0  0  0
  9 10  1  0  0  0  0
  9 41  1  0  0  0  0
 10 11  2  0  0  0  0
 10 12  1  0  0  0  0
 12 13  2  0  0  0  0
 12 21  1  0  0  0  0
 13 14  1  0  0  0  0
 14 15  2  0  0  0  0
 15 16  1  0  0  0  0
 15 20  1  0  0  0  0
 16 17  2  0  0  0  0
 16 42  1  0  0  0  0
 17 18  1  0  0  0  0
 17 43  1  0  0  0  0
 18 19  2  0  0  0  0
 18 44  1  0  0  0  0
 19 20  1  0  0  0  0
 19 45  1  0  0  0  0
 20 21  2  0  0  0  0
 21 22  1  0  0  0  0
 22 46  1  0  0  0  0
 22 47  1  0  0  0  0
 23 24  2  0  0  0  0
 23 28  1  0  0  0  0
 24 25  1  0  0  0  0
 24 48  1  0  0  0  0
 25 26  2  0  0  0  0
 25 49  1  0  0  0  0
 26 27  1  0  0  0  0
 26 50  1  0  0  0  0
 27 28  2  0  0  0  0
 27 51  1  0  0  0  0
 28 52  1  0  0  0  0
 29 30  2  0  0  0  0
 29 53  1  0  0  0  0
 30 31  1  0  0  0  0
 31 32  1  0  0  0  0
 32 54  1  0  0  0  0
 32 55  1  0  0  0  0
 32 56  1  0  0  0  0
M  END
$$$$
