
 OpenBabel01122422533D

 42 45  0  0  0  0  0  0  0  0999 V2000
    0.9562   -0.4894   -0.0770 O   0  0  0  0  0  0  0  0  0  0  0  0
    2.1328   -0.1504   -0.0434 C   0  0  0  0  0  0  0  0  0  0  0  0
    2.7636    0.3894    1.0616 N   0  0  0  0  0  0  0  0  0  0  0  0
    2.1403    0.6848    2.2949 C   0  0  0  0  0  0  0  0  0  0  0  0
    0.8971    0.1895    2.6891 C   0  0  0  0  0  0  0  0  0  0  0  0
    0.3435    0.5768    3.9068 C   0  0  0  0  0  0  0  0  0  0  0  0
    1.0679    1.4402    4.7086 C   0  0  0  0  0  0  0  0  0  0  0  0
    0.5056    1.7808    5.9314 O   0  0  0  0  0  0  0  0  0  0  0  0
    1.3761    2.0163    6.9704 C   0  0  0  0  0  0  0  0  0  0  0  0
    1.0419    3.0361    7.8607 C   0  0  0  0  0  0  0  0  0  0  0  0
    1.8950    3.3331    8.9239 C   0  0  0  0  0  0  0  0  0  0  0  0
    3.0740    2.6071    9.1015 C   0  0  0  0  0  0  0  0  0  0  0  0
    3.3890    1.5632    8.2328 C   0  0  0  0  0  0  0  0  0  0  0  0
    2.5300    1.2532    7.1853 C   0  0  0  0  0  0  0  0  0  0  0  0
    2.2745    1.9479    4.3609 N   0  0  0  0  0  0  0  0  0  0  0  0
    2.7863    1.5434    3.1799 C   0  0  0  0  0  0  0  0  0  0  0  0
    2.9609   -0.2388   -1.2097 C   0  0  0  0  0  0  0  0  0  0  0  0
    4.2653   -0.6610   -1.3426 C   0  0  0  0  0  0  0  0  0  0  0  0
    4.5738   -0.8050   -2.6581 N   0  0  0  0  0  0  0  0  0  0  0  0
    3.4958   -0.4970   -3.3635 N   0  0  0  0  0  0  0  0  0  0  0  0
    2.5344   -0.0509   -2.5131 N   0  0  0  0  0  0  0  0  0  0  0  0
    1.3657    0.5782   -3.0204 C   0  0  0  0  0  0  0  0  0  0  0  0
    0.6743    1.5419   -2.2746 C   0  0  0  0  0  0  0  0  0  0  0  0
   -0.4566    2.1462   -2.8153 C   0  0  0  0  0  0  0  0  0  0  0  0
   -1.1018    3.0823   -2.1065 F   0  0  0  0  0  0  0  0  0  0  0  0
   -0.9200    1.8081   -4.0804 C   0  0  0  0  0  0  0  0  0  0  0  0
   -0.2300    0.8593   -4.8322 C   0  0  0  0  0  0  0  0  0  0  0  0
    0.9206    0.2576   -4.3131 C   0  0  0  0  0  0  0  0  0  0  0  0
    3.6992    0.7560    0.9307 H   0  0  0  0  0  0  0  0  0  0  0  0
    0.3377   -0.5160    2.0815 H   0  0  0  0  0  0  0  0  0  0  0  0
   -0.6209    0.1977    4.2278 H   0  0  0  0  0  0  0  0  0  0  0  0
    0.1305    3.6099    7.7166 H   0  0  0  0  0  0  0  0  0  0  0  0
    1.6467    4.1392    9.6094 H   0  0  0  0  0  0  0  0  0  0  0  0
    3.7492    2.8532    9.9152 H   0  0  0  0  0  0  0  0  0  0  0  0
    4.3064    0.9963    8.3626 H   0  0  0  0  0  0  0  0  0  0  0  0
    2.7834    0.4357    6.5145 H   0  0  0  0  0  0  0  0  0  0  0  0
    3.7618    1.9666    2.9587 H   0  0  0  0  0  0  0  0  0  0  0  0
    4.9723   -0.9357   -0.5715 H   0  0  0  0  0  0  0  0  0  0  0  0
    0.9945    1.8751   -1.2935 H   0  0  0  0  0  0  0  0  0  0  0  0
   -1.8107    2.2887   -4.4722 H   0  0  0  0  0  0  0  0  0  0  0  0
   -0.5878    0.5843   -5.8214 H   0  0  0  0  0  0  0  0  0  0  0  0
    1.4392   -0.4869   -4.9162 H   0  0  0  0  0  0  0  0  0  0  0  0
  1  2  2  0  0  0  0
  2  3  1  0  0  0  0
  2 17  1  0  0  0  0
  3  4  1  0  0  0  0
  3 29  1  0  0  0  0
  4  5  2  0  0  0  0
  4 16  1  0  0  0  0
  5  6  1  0  0  0  0
  5 30  1  0  0  0  0
  6  7  2  0  0  0  0
  6 31  1  0  0  0  0
  7  8  1  0  0  0  0
  7 15  1  0  0  0  0
  8  9  1  0  0  0  0
  9 10  2  0  0  0  0
  9 14  1  0  0  0  0
 10 11  1  0  0  0  0
 10 32  1  0  0  0  0
 11 12  2  0  0  0  0
 11 33  1  0  0  0  0
 12 13  1  0  0  0  0
 12 34  1  0  0  0  0
 13 14  2  0  0  0  0
 13 35  1  0  0  0  0
 14 36  1  0  0  0  0
 15 16  2  0  0  0  0
 16 37  1  0  0  0  0
 17 18  2  0  0  0  0
 17 21  1  0  0  0  0
 18 19  1  0  0  0  0
 18 38  1  0  0  0  0
 19 20  2  0  0  0  0
 20 21  1  0  0  0  0
 21 22  1  0  0  0  0
 22 23  2  0  0  0  0
 22 28  1  0  0  0  0
 23 24  1  0  0  0  0
 23 39  1  0  0  0  0
 24 25  1  0  0  0  0
 24 26  2  0  0  0  0
 26 27  1  0  0  0  0
 26 40  1  0  0  0  0
 27 28  2  0  0  0  0
 27 41  1  0  0  0  0
 28 42  1  0  0  0  0
M  END
$$$$
