
 OpenBabel01122422533D

 50 53  0  0  1  0  0  0  0  0999 V2000
    3.3548    1.5289   -0.5596 N   0  0  0  0  0  0  0  0  0  0  0  0
    3.1730    0.3482    0.1045 C   0  0  0  0  0  0  0  0  0  0  0  0
    3.0305    0.3345    1.3279 O   0  0  0  0  0  0  0  0  0  0  0  0
    3.2245   -0.9385   -0.7507 C   0  0  3  0  0  0  0  0  0  0  0  0
    2.8677   -0.7078   -2.1857 N   0  0  0  0  0  0  0  0  0  0  0  0
    1.5666   -0.9248   -2.6322 C   0  0  0  0  0  0  0  0  0  0  0  0
    1.2259   -2.0342   -3.3121 C   0  0  0  0  0  0  0  0  0  0  0  0
   -0.1343   -2.1969   -3.8500 C   0  0  0  0  0  0  0  0  0  0  0  0
   -0.3696   -3.1853   -4.5439 O   0  0  0  0  0  0  0  0  0  0  0  0
   -1.0331   -1.1846   -3.5851 N   0  0  0  0  0  0  0  0  0  0  0  0
   -2.3814   -1.2974   -4.1299 C   0  0  0  0  0  0  0  0  0  0  0  0
   -3.4205   -1.6858   -3.0965 C   0  0  0  0  0  0  0  0  0  0  0  0
   -4.1368   -0.6942   -2.4076 C   0  0  0  0  0  0  0  0  0  0  0  0
   -5.0734   -1.0366   -1.4323 C   0  0  0  0  0  0  0  0  0  0  0  0
   -5.3111   -2.3775   -1.1387 C   0  0  0  0  0  0  0  0  0  0  0  0
   -4.6229   -3.3752   -1.8277 C   0  0  0  0  0  0  0  0  0  0  0  0
   -3.6803   -3.0330   -2.8008 C   0  0  0  0  0  0  0  0  0  0  0  0
   -0.6822   -0.0114   -2.9227 C   0  0  0  0  0  0  0  0  0  0  0  0
   -1.4136    0.9599   -2.7873 O   0  0  0  0  0  0  0  0  0  0  0  0
    0.6124    0.0271   -2.4464 N   0  0  0  0  0  0  0  0  0  0  0  0
    4.5945   -1.6130   -0.6630 C   0  0  0  0  0  0  0  0  0  0  0  0
    4.7336   -2.7307    0.1718 C   0  0  0  0  0  0  0  0  0  0  0  0
    5.9232   -3.4541    0.1946 C   0  0  0  0  0  0  0  0  0  0  0  0
    7.0489   -2.9834   -0.4901 C   0  0  0  0  0  0  0  0  0  0  0  0
    8.2598   -3.6728   -0.4359 C   0  0  0  0  0  0  0  0  0  0  0  0
    9.4471   -2.9637   -0.5118 C   0  0  0  0  0  0  0  0  0  0  0  0
    9.4262   -1.6968   -1.0758 C   0  0  0  0  0  0  0  0  0  0  0  0
    8.2171   -1.1610   -1.5375 C   0  0  0  0  0  0  0  0  0  0  0  0
    6.9963   -1.7495   -1.1568 C   0  0  0  0  0  0  0  0  0  0  0  0
    5.7370   -1.1382   -1.3443 C   0  0  0  0  0  0  0  0  0  0  0  0
    3.4243    2.3730   -0.0030 H   0  0  0  0  0  0  0  0  0  0  0  0
    3.6350    1.5239   -1.5361 H   0  0  0  0  0  0  0  0  0  0  0  0
    2.4753   -1.6193   -0.3266 H   0  0  0  0  0  0  0  0  0  0  0  0
    3.4905   -1.3075   -2.7302 H   0  0  0  0  0  0  0  0  0  0  0  0
    1.9192   -2.8379   -3.5024 H   0  0  0  0  0  0  0  0  0  0  0  0
   -2.4108   -2.0279   -4.9482 H   0  0  0  0  0  0  0  0  0  0  0  0
   -2.6569   -0.3375   -4.5813 H   0  0  0  0  0  0  0  0  0  0  0  0
   -3.9641    0.3589   -2.6245 H   0  0  0  0  0  0  0  0  0  0  0  0
   -5.6154   -0.2582   -0.9014 H   0  0  0  0  0  0  0  0  0  0  0  0
   -6.0364   -2.6441   -0.3752 H   0  0  0  0  0  0  0  0  0  0  0  0
   -4.8208   -4.4213   -1.6040 H   0  0  0  0  0  0  0  0  0  0  0  0
   -3.1544   -3.8247   -3.3315 H   0  0  0  0  0  0  0  0  0  0  0  0
    0.8730    0.8825   -1.9719 H   0  0  0  0  0  0  0  0  0  0  0  0
    3.9181   -3.0377    0.8245 H   0  0  0  0  0  0  0  0  0  0  0  0
    6.0067   -4.3140    0.8570 H   0  0  0  0  0  0  0  0  0  0  0  0
    8.2778   -4.7558   -0.3602 H   0  0  0  0  0  0  0  0  0  0  0  0
   10.3728   -3.4125   -0.1619 H   0  0  0  0  0  0  0  0  0  0  0  0
   10.3562   -1.1479   -1.1926 H   0  0  0  0  0  0  0  0  0  0  0  0
    8.2368   -0.2299   -2.0948 H   0  0  0  0  0  0  0  0  0  0  0  0
    5.6688   -0.2517   -1.9717 H   0  0  0  0  0  0  0  0  0  0  0  0
  1  2  1  0  0  0  0
  1 31  1  0  0  0  0
  1 32  1  0  0  0  0
  2  3  2  0  0  0  0
  2  4  1  0  0  0  0
  4  5  1  0  0  0  0
  4 21  1  0  0  0  0
  4 33  1  0  0  0  0
  5  6  1  0  0  0  0
  5 34  1  0  0  0  0
  6  7  2  0  0  0  0
  6 20  1  0  0  0  0
  7  8  1  0  0  0  0
  7 35  1  0  0  0  0
  8  9  2  0  0  0  0
  8 10  1  0  0  0  0
 10 11  1  0  0  0  0
 10 18  1  0  0  0  0
 11 12  1  0  0  0  0
 11 36  1  0  0  0  0
 11 37  1  0  0  0  0
 12 13  2  0  0  0  0
 12 17  1  0  0  0  0
 13 14  1  0  0  0  0
 13 38  1  0  0  0  0
 14 15  2  0  0  0  0
 14 39  1  0  0  0  0
 15 16  1  0  0  0  0
 15 40  1  0  0  0  0
 16 17  2  0  0  0  0
 16 41  1  0  0  0  0
 17 42  1  0  0  0  0
 18 19  2  0  0  0  0
 18 20  1  0  0  0  0
 20 43  1  0  0  0  0
 21 22  2  0  0  0  0
 21 30  1  0  0  0  0
 22 23  1  0  0  0  0
 22 44  1  0  0  0  0
 23 24  2  0  0  0  0
 23 45  1  0  0  0  0
 24 25  1  0  0  0  0
 24 29  1  0  0  0  0
 25 26  2  0  0  0  0
 25 46  1  0  0  0  0
 26 27  1  0  0  0  0
 26 47  1  0  0  0  0
 27 28  2  0  0  0  0
 27 48  1  0  0  0  0
 28 29  1  0  0  0  0
 28 49  1  0  0  0  0
 29 30  2  0  0  0  0
 30 50  1  0  0  0  0
M  END
$$$$
