
 OpenBabel01122422533D

 48 51  0  0  0  0  0  0  0  0999 V2000
    1.2048    0.7592   -0.7223 O   0  0  0  0  0  0  0  0  0  0  0  0
    2.3418    0.3827   -0.4495 C   0  0  0  0  0  0  0  0  0  0  0  0
    3.0036   -0.7147   -0.9801 N   0  0  0  0  0  0  0  0  0  0  0  0
    2.4362   -1.6823   -1.8490 C   0  0  0  0  0  0  0  0  0  0  0  0
    1.1858   -1.4828   -2.4370 C   0  0  0  0  0  0  0  0  0  0  0  0
    0.5818   -2.4734   -3.2195 C   0  0  0  0  0  0  0  0  0  0  0  0
    1.2278   -3.6849   -3.4267 C   0  0  0  0  0  0  0  0  0  0  0  0
    0.5594   -4.7735   -4.2149 C   0  0  0  0  0  0  0  0  0  0  0  0
    1.3070   -5.0693   -5.3835 O   0  0  0  0  0  0  0  0  0  0  0  0
    2.5071   -3.8858   -2.8718 C   0  0  0  0  0  0  0  0  0  0  0  0
    3.1285   -2.8859   -2.0819 C   0  0  0  0  0  0  0  0  0  0  0  0
    4.4554   -3.2376   -1.4527 C   0  0  0  0  0  0  0  0  0  0  0  0
    5.2890   -2.0920   -1.2868 O   0  0  0  0  0  0  0  0  0  0  0  0
    3.0305    1.1049    0.6191 C   0  0  0  0  0  0  0  0  0  0  0  0
    2.2438    1.4447    1.7470 C   0  0  0  0  0  0  0  0  0  0  0  0
    2.8156    2.1082    2.8145 C   0  0  0  0  0  0  0  0  0  0  0  0
    4.1689    2.4699    2.7792 C   0  0  0  0  0  0  0  0  0  0  0  0
    4.7352    3.0216    3.9685 N   0  0  0  0  0  0  0  0  0  0  0  0
    4.3073    2.6534    5.2331 C   0  0  0  0  0  0  0  0  0  0  0  0
    5.2149    3.1362    6.1375 C   0  0  0  0  0  0  0  0  0  0  0  0
    5.7373    4.2776    5.5034 C   0  0  0  0  0  0  0  0  0  0  0  0
    6.2351    5.5022    5.9781 C   0  0  0  0  0  0  0  0  0  0  0  0
    6.7728    6.4050    5.0661 C   0  0  0  0  0  0  0  0  0  0  0  0
    6.9459    6.0337    3.7343 C   0  0  0  0  0  0  0  0  0  0  0  0
    6.4173    4.8336    3.2328 C   0  0  0  0  0  0  0  0  0  0  0  0
    5.6918    4.0256    4.1271 C   0  0  0  0  0  0  0  0  0  0  0  0
    4.9428    2.1939    1.6529 C   0  0  0  0  0  0  0  0  0  0  0  0
    4.3700    1.4950    0.5735 C   0  0  0  0  0  0  0  0  0  0  0  0
    3.9374   -0.9390   -0.6450 H   0  0  0  0  0  0  0  0  0  0  0  0
    0.6246   -0.5658   -2.3150 H   0  0  0  0  0  0  0  0  0  0  0  0
   -0.4028   -2.2822   -3.6309 H   0  0  0  0  0  0  0  0  0  0  0  0
   -0.4495   -4.4737   -4.5217 H   0  0  0  0  0  0  0  0  0  0  0  0
    0.4648   -5.6772   -3.6035 H   0  0  0  0  0  0  0  0  0  0  0  0
    1.5482   -4.2151   -5.7808 H   0  0  0  0  0  0  0  0  0  0  0  0
    3.0074   -4.8270   -3.0449 H   0  0  0  0  0  0  0  0  0  0  0  0
    4.9961   -3.9710   -2.0616 H   0  0  0  0  0  0  0  0  0  0  0  0
    4.2806   -3.6773   -0.4643 H   0  0  0  0  0  0  0  0  0  0  0  0
    6.0886   -2.2601   -1.8181 H   0  0  0  0  0  0  0  0  0  0  0  0
    1.1966    1.1627    1.7700 H   0  0  0  0  0  0  0  0  0  0  0  0
    2.1670    2.3554    3.6486 H   0  0  0  0  0  0  0  0  0  0  0  0
    3.4666    1.9923    5.3854 H   0  0  0  0  0  0  0  0  0  0  0  0
    5.2851    2.8525    7.1771 H   0  0  0  0  0  0  0  0  0  0  0  0
    6.1101    5.7718    7.0236 H   0  0  0  0  0  0  0  0  0  0  0  0
    7.0653    7.3960    5.4029 H   0  0  0  0  0  0  0  0  0  0  0  0
    7.4523    6.7180    3.0581 H   0  0  0  0  0  0  0  0  0  0  0  0
    6.5102    4.6018    2.1780 H   0  0  0  0  0  0  0  0  0  0  0  0
    5.9989    2.4334    1.6121 H   0  0  0  0  0  0  0  0  0  0  0  0
    4.9738    1.2575   -0.3027 H   0  0  0  0  0  0  0  0  0  0  0  0
  1  2  2  0  0  0  0
  2  3  1  0  0  0  0
  2 14  1  0  0  0  0
  3  4  1  0  0  0  0
  3 29  1  0  0  0  0
  4  5  2  0  0  0  0
  4 11  1  0  0  0  0
  5  6  1  0  0  0  0
  5 30  1  0  0  0  0
  6  7  2  0  0  0  0
  6 31  1  0  0  0  0
  7  8  1  0  0  0  0
  7 10  1  0  0  0  0
  8  9  1  0  0  0  0
  8 32  1  0  0  0  0
  8 33  1  0  0  0  0
  9 34  1  0  0  0  0
 10 11  2  0  0  0  0
 10 35  1  0  0  0  0
 11 12  1  0  0  0  0
 12 13  1  0  0  0  0
 12 36  1  0  0  0  0
 12 37  1  0  0  0  0
 13 38  1  0  0  0  0
 14 15  2  0  0  0  0
 14 28  1  0  0  0  0
 15 16  1  0  0  0  0
 15 39  1  0  0  0  0
 16 17  2  0  0  0  0
 16 40  1  0  0  0  0
 17 18  1  0  0  0  0
 17 27  1  0  0  0  0
 18 19  1  0  0  0  0
 18 26  1  0  0  0  0
 19 20  2  0  0  0  0
 19 41  1  0  0  0  0
 20 21  1  0  0  0  0
 20 42  1  0  0  0  0
 21 22  2  0  0  0  0
 21 26  1  0  0  0  0
 22 23  1  0  0  0  0
 22 43  1  0  0  0  0
 23 24  2  0  0  0  0
 23 44  1  0  0  0  0
 24 25  1  0  0  0  0
 24 45  1  0  0  0  0
 25 26  2  0  0  0  0
 25 46  1  0  0  0  0
 27 28  2  0  0  0  0
 27 47  1  0  0  0  0
 28 48  1  0  0  0  0
M  END
$$$$
