
 OpenBabel01122422463D

 49 52  0  0  1  0  0  0  0  0999 V2000
    2.3697    1.3667   -0.5710 C   0  0  0  0  0  0  0  0  0  0  0  0
    2.4329    0.0683    0.0917 N   0  0  0  0  0  0  0  0  0  0  0  0
    1.8901   -0.0900    1.3751 C   0  0  0  0  0  0  0  0  0  0  0  0
    1.4353    0.8492    2.0251 O   0  0  0  0  0  0  0  0  0  0  0  0
    1.7959   -1.4980    1.9288 C   0  0  0  0  0  0  0  0  0  0  0  0
    1.6671   -1.6663    3.2488 C   0  0  0  0  0  0  0  0  0  0  0  0
    1.6377   -3.0372    3.8059 C   0  0  0  0  0  0  0  0  0  0  0  0
    1.5884   -3.1784    5.0212 O   0  0  0  0  0  0  0  0  0  0  0  0
    1.7010   -4.1580    2.8375 C   0  0  0  0  0  0  0  0  0  0  0  0
    1.8093   -3.8278    1.4885 C   0  0  0  0  0  0  0  0  0  0  0  0
    1.8894   -4.8147    0.5027 C   0  0  0  0  0  0  0  0  0  0  0  0
    1.8295   -6.1557    0.8589 C   0  0  0  0  0  0  0  0  0  0  0  0
    1.7026   -6.5052    2.2026 C   0  0  0  0  0  0  0  0  0  0  0  0
    1.6470   -5.5110    3.1895 C   0  0  0  0  0  0  0  0  0  0  0  0
    1.5230   -5.8924    4.4951 O   0  0  0  0  0  0  0  0  0  0  0  0
    1.8148   -2.5425    1.0279 O   0  0  0  0  0  0  0  0  0  0  0  0
    3.2001   -0.9175   -0.5819 C   0  0  0  0  0  0  0  0  0  0  0  0
    2.7758   -1.3884   -1.8268 C   0  0  0  0  0  0  0  0  0  0  0  0
    3.4597   -2.4334   -2.4454 C   0  0  0  0  0  0  0  0  0  0  0  0
    4.6045   -2.9708   -1.8526 C   0  0  0  0  0  0  0  0  0  0  0  0
    5.0771   -2.4748   -0.6245 C   0  0  0  0  0  0  0  0  0  0  0  0
    6.3944   -2.9404   -0.0166 C   0  0  3  0  0  0  0  0  0  0  0  0
    6.3700   -4.3471    0.2256 O   0  0  0  0  0  0  0  0  0  0  0  0
    7.5930   -2.5444   -0.8683 C   0  0  0  0  0  0  0  0  0  0  0  0
    7.8307   -1.1858   -1.1493 C   0  0  0  0  0  0  0  0  0  0  0  0
    8.8736   -0.7996   -1.9925 C   0  0  0  0  0  0  0  0  0  0  0  0
    9.7082   -1.7630   -2.5521 C   0  0  0  0  0  0  0  0  0  0  0  0
    9.5141   -3.1090   -2.2513 C   0  0  0  0  0  0  0  0  0  0  0  0
    8.4668   -3.4973   -1.4127 C   0  0  0  0  0  0  0  0  0  0  0  0
    4.3466   -1.4587    0.0146 C   0  0  0  0  0  0  0  0  0  0  0  0
    1.8894    2.1246    0.0574 H   0  0  0  0  0  0  0  0  0  0  0  0
    1.7987    1.2780   -1.5008 H   0  0  0  0  0  0  0  0  0  0  0  0
    3.3822    1.7037   -0.7990 H   0  0  0  0  0  0  0  0  0  0  0  0
    1.6057   -0.8483    3.9554 H   0  0  0  0  0  0  0  0  0  0  0  0
    1.9868   -4.5290   -0.5415 H   0  0  0  0  0  0  0  0  0  0  0  0
    1.8691   -6.9237    0.0908 H   0  0  0  0  0  0  0  0  0  0  0  0
    1.6442   -7.5585    2.4647 H   0  0  0  0  0  0  0  0  0  0  0  0
    1.5105   -6.8599    4.5648 H   0  0  0  0  0  0  0  0  0  0  0  0
    1.8743   -0.9944   -2.2886 H   0  0  0  0  0  0  0  0  0  0  0  0
    3.0999   -2.8279   -3.3927 H   0  0  0  0  0  0  0  0  0  0  0  0
    5.1400   -3.7612   -2.3747 H   0  0  0  0  0  0  0  0  0  0  0  0
    6.5316   -2.4786    0.9692 H   0  0  0  0  0  0  0  0  0  0  0  0
    5.8652   -4.7589   -0.4911 H   0  0  0  0  0  0  0  0  0  0  0  0
    7.1898   -0.4155   -0.7246 H   0  0  0  0  0  0  0  0  0  0  0  0
    9.0291    0.2523   -2.2175 H   0  0  0  0  0  0  0  0  0  0  0  0
   10.5128   -1.4649   -3.2188 H   0  0  0  0  0  0  0  0  0  0  0  0
   10.1767   -3.8606   -2.6728 H   0  0  0  0  0  0  0  0  0  0  0  0
    8.3412   -4.5544   -1.1902 H   0  0  0  0  0  0  0  0  0  0  0  0
    4.6858   -1.0727    0.9738 H   0  0  0  0  0  0  0  0  0  0  0  0
  1  2  1  0  0  0  0
  1 31  1  0  0  0  0
  1 32  1  0  0  0  0
  1 33  1  0  0  0  0
  2  3  1  0  0  0  0
  2 17  1  0  0  0  0
  3  4  2  0  0  0  0
  3  5  1  0  0  0  0
  5  6  2  0  0  0  0
  5 16  1  0  0  0  0
  6  7  1  0  0  0  0
  6 34  1  0  0  0  0
  7  8  2  0  0  0  0
  7  9  1  0  0  0  0
  9 10  2  0  0  0  0
  9 14  1  0  0  0  0
 10 11  1  0  0  0  0
 10 16  1  0  0  0  0
 11 12  2  0  0  0  0
 11 35  1  0  0  0  0
 12 13  1  0  0  0  0
 12 36  1  0  0  0  0
 13 14  2  0  0  0  0
 13 37  1  0  0  0  0
 14 15  1  0  0  0  0
 15 38  1  0  0  0  0
 17 18  2  0  0  0  0
 17 30  1  0  0  0  0
 18 19  1  0  0  0  0
 18 39  1  0  0  0  0
 19 20  2  0  0  0  0
 19 40  1  0  0  0  0
 20 21  1  0  0  0  0
 20 41  1  0  0  0  0
 21 22  1  0  0  0  0
 21 30  2  0  0  0  0
 22 23  1  0  0  0  0
 22 24  1  0  0  0  0
 22 42  1  0  0  0  0
 23 43  1  0  0  0  0
 24 25  2  0  0  0  0
 24 29  1  0  0  0  0
 25 26  1  0  0  0  0
 25 44  1  0  0  0  0
 26 27  2  0  0  0  0
 26 45  1  0  0  0  0
 27 28  1  0  0  0  0
 27 46  1  0  0  0  0
 28 29  2  0  0  0  0
 28 47  1  0  0  0  0
 29 48  1  0  0  0  0
 30 49  1  0  0  0  0
M  END
$$$$
