
 OpenBabel01122422533D

 49 52  0  0  0  0  0  0  0  0999 V2000
   -1.9072   -1.3669    2.6017 C   0  0  0  0  0  0  0  0  0  0  0  0
   -0.9259   -0.9960    1.5349 C   0  0  0  0  0  0  0  0  0  0  0  0
   -1.0509    0.2290    1.0184 N   0  0  0  0  0  0  0  0  0  0  0  0
   -0.1101    0.5824    0.1217 C   0  0  0  0  0  0  0  0  0  0  0  0
    0.9884   -0.1798   -0.2647 C   0  0  0  0  0  0  0  0  0  0  0  0
    1.9202    0.3695   -1.2753 C   0  0  0  0  0  0  0  0  0  0  0  0
    2.1961    1.7560   -1.3127 C   0  0  0  0  0  0  0  0  0  0  0  0
    2.9943    2.3307   -2.3043 C   0  0  0  0  0  0  0  0  0  0  0  0
    3.5690    1.5130   -3.2628 C   0  0  0  0  0  0  0  0  0  0  0  0
    4.3433    2.0502   -4.2120 F   0  0  0  0  0  0  0  0  0  0  0  0
    3.3422    0.1438   -3.2550 C   0  0  0  0  0  0  0  0  0  0  0  0
    2.5091   -0.4198   -2.2787 C   0  0  0  0  0  0  0  0  0  0  0  0
    0.9848   -1.4487    0.3208 C   0  0  0  0  0  0  0  0  0  0  0  0
    1.9119   -2.4602   -0.0422 N   0  0  0  0  0  0  0  0  0  0  0  0
    3.1977   -2.4798    0.4983 C   0  0  0  0  0  0  0  0  0  0  0  0
    3.6326   -1.6270    1.2642 O   0  0  0  0  0  0  0  0  0  0  0  0
    4.0299   -3.7292    0.0754 C   0  0  0  0  0  0  0  0  0  0  0  0
    5.4376   -3.5030   -0.4590 C   0  0  0  0  0  0  0  0  0  0  0  0
    5.9698   -2.2825   -0.6294 C   0  0  0  0  0  0  0  0  0  0  0  0
    7.2447   -2.0478   -1.1138 N   0  0  0  0  0  0  0  0  0  0  0  0
    7.6864   -0.6887   -1.3652 C   0  0  0  0  0  0  0  0  0  0  0  0
    8.1570   -3.0737   -1.3332 C   0  0  0  0  0  0  0  0  0  0  0  0
    9.3319   -2.8803   -1.6522 O   0  0  0  0  0  0  0  0  0  0  0  0
    7.6453   -4.4515   -1.2044 C   0  0  0  0  0  0  0  0  0  0  0  0
    8.5057   -5.5126   -1.5317 C   0  0  0  0  0  0  0  0  0  0  0  0
    8.0328   -6.8135   -1.5364 C   0  0  0  0  0  0  0  0  0  0  0  0
    6.7008   -7.0564   -1.2129 C   0  0  0  0  0  0  0  0  0  0  0  0
    5.8506   -5.9926   -0.8453 C   0  0  0  0  0  0  0  0  0  0  0  0
    6.3018   -4.6676   -0.8283 C   0  0  0  0  0  0  0  0  0  0  0  0
    0.0230   -1.8849    1.1745 N   0  0  0  0  0  0  0  0  0  0  0  0
   -2.6085   -0.5416    2.7814 H   0  0  0  0  0  0  0  0  0  0  0  0
   -1.3833   -1.5669    3.5406 H   0  0  0  0  0  0  0  0  0  0  0  0
   -2.4842   -2.2456    2.3070 H   0  0  0  0  0  0  0  0  0  0  0  0
   -0.3044    1.5675   -0.3130 H   0  0  0  0  0  0  0  0  0  0  0  0
    1.7698    2.4325   -0.5689 H   0  0  0  0  0  0  0  0  0  0  0  0
    3.1658    3.3961   -2.3321 H   0  0  0  0  0  0  0  0  0  0  0  0
    3.7980   -0.4816   -4.0220 H   0  0  0  0  0  0  0  0  0  0  0  0
    2.3126   -1.4857   -2.3415 H   0  0  0  0  0  0  0  0  0  0  0  0
    1.4724   -3.3745    0.0030 H   0  0  0  0  0  0  0  0  0  0  0  0
    3.4583   -4.2737   -0.6879 H   0  0  0  0  0  0  0  0  0  0  0  0
    4.0788   -4.3735    0.9634 H   0  0  0  0  0  0  0  0  0  0  0  0
    5.4088   -1.3759   -0.4032 H   0  0  0  0  0  0  0  0  0  0  0  0
    6.8335   -0.0383   -1.5846 H   0  0  0  0  0  0  0  0  0  0  0  0
    8.3582   -0.6714   -2.2305 H   0  0  0  0  0  0  0  0  0  0  0  0
    8.2307   -0.3193   -0.4900 H   0  0  0  0  0  0  0  0  0  0  0  0
    9.5412   -5.3153   -1.8097 H   0  0  0  0  0  0  0  0  0  0  0  0
    8.6877   -7.6345   -1.8118 H   0  0  0  0  0  0  0  0  0  0  0  0
    6.3161   -8.0726   -1.2358 H   0  0  0  0  0  0  0  0  0  0  0  0
    4.8147   -6.2411   -0.6033 H   0  0  0  0  0  0  0  0  0  0  0  0
  1  2  1  0  0  0  0
  1 31  1  0  0  0  0
  1 32  1  0  0  0  0
  1 33  1  0  0  0  0
  2  3  2  0  0  0  0
  2 30  1  0  0  0  0
  3  4  1  0  0  0  0
  4  5  2  0  0  0  0
  4 34  1  0  0  0  0
  5  6  1  0  0  0  0
  5 13  1  0  0  0  0
  6  7  2  0  0  0  0
  6 12  1  0  0  0  0
  7  8  1  0  0  0  0
  7 35  1  0  0  0  0
  8  9  2  0  0  0  0
  8 36  1  0  0  0  0
  9 10  1  0  0  0  0
  9 11  1  0  0  0  0
 11 12  2  0  0  0  0
 11 37  1  0  0  0  0
 12 38  1  0  0  0  0
 13 14  1  0  0  0  0
 13 30  2  0  0  0  0
 14 15  1  0  0  0  0
 14 39  1  0  0  0  0
 15 16  2  0  0  0  0
 15 17  1  0  0  0  0
 17 18  1  0  0  0  0
 17 40  1  0  0  0  0
 17 41  1  0  0  0  0
 18 19  2  0  0  0  0
 18 29  1  0  0  0  0
 19 20  1  0  0  0  0
 19 42  1  0  0  0  0
 20 21  1  0  0  0  0
 20 22  1  0  0  0  0
 21 43  1  0  0  0  0
 21 44  1  0  0  0  0
 21 45  1  0  0  0  0
 22 23  2  0  0  0  0
 22 24  1  0  0  0  0
 24 25  2  0  0  0  0
 24 29  1  0  0  0  0
 25 26  1  0  0  0  0
 25 46  1  0  0  0  0
 26 27  2  0  0  0  0
 26 47  1  0  0  0  0
 27 28  1  0  0  0  0
 27 48  1  0  0  0  0
 28 29  2  0  0  0  0
 28 49  1  0  0  0  0
M  END
$$$$
