
 OpenBabel01122422533D

 49 52  0  0  1  0  0  0  0  0999 V2000
    1.0362   -0.2037    0.0073 C   0  0  0  0  0  0  0  0  0  0  0  0
    2.5477    0.0339   -0.0052 C   0  0  3  0  0  0  0  0  0  0  0  0
    3.1850   -0.4001   -1.3297 C   0  0  0  0  0  0  0  0  0  0  0  0
    3.9774   -1.3408   -1.3263 O   0  0  0  0  0  0  0  0  0  0  0  0
    2.7837    0.3266   -2.4407 N   0  0  0  0  0  0  0  0  0  0  0  0
    3.2379    0.0709   -3.7223 C   0  0  0  0  0  0  0  0  0  0  0  0
    4.0711   -0.9115   -4.0530 N   0  0  0  0  0  0  0  0  0  0  0  0
    4.2476   -0.7521   -5.3814 N   0  0  0  0  0  0  0  0  0  0  0  0
    5.0986   -1.6062   -6.1115 C   0  0  0  0  0  0  0  0  0  0  0  0
    5.7390   -2.6844   -5.4890 C   0  0  0  0  0  0  0  0  0  0  0  0
    6.5738   -3.5042   -6.2422 C   0  0  0  0  0  0  0  0  0  0  0  0
    6.7433   -3.2105   -7.5876 C   0  0  0  0  0  0  0  0  0  0  0  0
    6.1393   -2.1745   -8.2131 N   0  0  0  0  0  0  0  0  0  0  0  0
    5.3244   -1.3931   -7.4616 C   0  0  0  0  0  0  0  0  0  0  0  0
    3.5552    0.2701   -5.9516 N   0  0  0  0  0  0  0  0  0  0  0  0
    2.9078    0.7788   -4.8973 C   0  0  0  0  0  0  0  0  0  0  0  0
    2.9545    1.4403    0.4015 C   0  0  0  0  0  0  0  0  0  0  0  0
    4.1857    1.6443    1.0446 C   0  0  0  0  0  0  0  0  0  0  0  0
    4.5806    2.9229    1.4422 C   0  0  0  0  0  0  0  0  0  0  0  0
    3.7590    4.0207    1.1862 C   0  0  0  0  0  0  0  0  0  0  0  0
    2.5285    3.8348    0.5508 C   0  0  0  0  0  0  0  0  0  0  0  0
    1.6138    4.9599    0.2301 C   0  0  0  0  0  0  0  0  0  0  0  0
    0.9096    4.8771   -0.7786 O   0  0  0  0  0  0  0  0  0  0  0  0
    1.5323    6.1691    1.0833 C   0  0  0  0  0  0  0  0  0  0  0  0
    1.7293    6.1144    2.4688 C   0  0  0  0  0  0  0  0  0  0  0  0
    1.6609    7.2829    3.2305 C   0  0  0  0  0  0  0  0  0  0  0  0
    1.3711    8.4993    2.6147 C   0  0  0  0  0  0  0  0  0  0  0  0
    1.1432    8.5550    1.2404 C   0  0  0  0  0  0  0  0  0  0  0  0
    1.2182    7.3900    0.4737 C   0  0  0  0  0  0  0  0  0  0  0  0
    2.1376    2.5517    0.1540 C   0  0  0  0  0  0  0  0  0  0  0  0
    0.8077   -1.2600   -0.1673 H   0  0  0  0  0  0  0  0  0  0  0  0
    0.5129    0.3691   -0.7650 H   0  0  0  0  0  0  0  0  0  0  0  0
    0.6137    0.0767    0.9796 H   0  0  0  0  0  0  0  0  0  0  0  0
    2.9558   -0.6447    0.7588 H   0  0  0  0  0  0  0  0  0  0  0  0
    2.1819    1.1287   -2.3213 H   0  0  0  0  0  0  0  0  0  0  0  0
    5.5930   -2.8938   -4.4311 H   0  0  0  0  0  0  0  0  0  0  0  0
    7.0790   -4.3505   -5.7908 H   0  0  0  0  0  0  0  0  0  0  0  0
    7.3885   -3.8175   -8.2135 H   0  0  0  0  0  0  0  0  0  0  0  0
    4.8633   -0.5705   -8.0034 H   0  0  0  0  0  0  0  0  0  0  0  0
    2.2443    1.6212   -5.0373 H   0  0  0  0  0  0  0  0  0  0  0  0
    4.8497    0.8027    1.2437 H   0  0  0  0  0  0  0  0  0  0  0  0
    5.5346    3.0635    1.9457 H   0  0  0  0  0  0  0  0  0  0  0  0
    4.1010    5.0093    1.4790 H   0  0  0  0  0  0  0  0  0  0  0  0
    1.9293    5.1736    2.9743 H   0  0  0  0  0  0  0  0  0  0  0  0
    1.8293    7.2424    4.3035 H   0  0  0  0  0  0  0  0  0  0  0  0
    1.3127    9.4080    3.2098 H   0  0  0  0  0  0  0  0  0  0  0  0
    0.9040    9.5007    0.7633 H   0  0  0  0  0  0  0  0  0  0  0  0
    1.0361    7.4361   -0.5976 H   0  0  0  0  0  0  0  0  0  0  0  0
    1.1751    2.4403   -0.3402 H   0  0  0  0  0  0  0  0  0  0  0  0
  1  2  1  0  0  0  0
  1 31  1  0  0  0  0
  1 32  1  0  0  0  0
  1 33  1  0  0  0  0
  2  3  1  0  0  0  0
  2 17  1  0  0  0  0
  2 34  1  0  0  0  0
  3  4  2  0  0  0  0
  3  5  1  0  0  0  0
  5  6  1  0  0  0  0
  5 35  1  0  0  0  0
  6  7  2  0  0  0  0
  6 16  1  0  0  0  0
  7  8  1  0  0  0  0
  8  9  1  0  0  0  0
  8 15  1  0  0  0  0
  9 10  2  0  0  0  0
  9 14  1  0  0  0  0
 10 11  1  0  0  0  0
 10 36  1  0  0  0  0
 11 12  2  0  0  0  0
 11 37  1  0  0  0  0
 12 13  1  0  0  0  0
 12 38  1  0  0  0  0
 13 14  2  0  0  0  0
 14 39  1  0  0  0  0
 15 16  2  0  0  0  0
 16 40  1  0  0  0  0
 17 18  2  0  0  0  0
 17 30  1  0  0  0  0
 18 19  1  0  0  0  0
 18 41  1  0  0  0  0
 19 20  2  0  0  0  0
 19 42  1  0  0  0  0
 20 21  1  0  0  0  0
 20 43  1  0  0  0  0
 21 22  1  0  0  0  0
 21 30  2  0  0  0  0
 22 23  2  0  0  0  0
 22 24  1  0  0  0  0
 24 25  2  0  0  0  0
 24 29  1  0  0  0  0
 25 26  1  0  0  0  0
 25 44  1  0  0  0  0
 26 27  2  0  0  0  0
 26 45  1  0  0  0  0
 27 28  1  0  0  0  0
 27 46  1  0  0  0  0
 28 29  2  0  0  0  0
 28 47  1  0  0  0  0
 29 48  1  0  0  0  0
 30 49  1  0  0  0  0
M  END
$$$$
