
 OpenBabel01122422533D

 49 52  0  0  0  0  0  0  0  0999 V2000
    6.9472   -3.3488    3.1919 N   0  0  0  0  0  0  0  0  0  0  0  0
    6.2760   -3.0924    2.2804 C   0  0  0  0  0  0  0  0  0  0  0  0
    5.4432   -2.7706    1.1588 C   0  0  0  0  0  0  0  0  0  0  0  0
    4.0504   -2.7445    1.3050 C   0  0  0  0  0  0  0  0  0  0  0  0
    3.2242   -2.4107    0.2206 C   0  0  0  0  0  0  0  0  0  0  0  0
    1.7239   -2.3416    0.3971 C   0  0  0  0  0  0  0  0  0  0  0  0
    1.0031   -3.6024    0.0384 C   0  0  0  0  0  0  0  0  0  0  0  0
    0.5082   -3.9887   -1.1919 C   0  0  0  0  0  0  0  0  0  0  0  0
   -0.2323   -5.1491   -1.2016 N   0  0  0  0  0  0  0  0  0  0  0  0
   -0.3031   -5.6371    0.0092 C   0  0  0  0  0  0  0  0  0  0  0  0
   -1.0025   -6.7327    0.4416 N   0  0  0  0  0  0  0  0  0  0  0  0
   -1.9857   -7.2969   -0.3432 C   0  0  0  0  0  0  0  0  0  0  0  0
   -2.4334   -6.8554   -1.3994 O   0  0  0  0  0  0  0  0  0  0  0  0
   -2.6479   -8.5191    0.2885 C   0  0  0  0  0  0  0  0  0  0  0  0
   -3.8033   -8.1142    1.0759 N   0  0  0  0  0  0  0  0  0  0  0  0
   -3.6414   -7.7558    2.3930 C   0  0  0  0  0  0  0  0  0  0  0  0
   -2.5348   -7.7501    2.9360 O   0  0  0  0  0  0  0  0  0  0  0  0
   -4.8258   -7.3076    3.1569 C   0  0  0  0  0  0  0  0  0  0  0  0
   -4.6798   -6.5029    4.2883 C   0  0  0  0  0  0  0  0  0  0  0  0
   -3.4347   -6.0792    4.7098 O   0  0  0  0  0  0  0  0  0  0  0  0
   -5.7952   -6.1110    5.0489 C   0  0  0  0  0  0  0  0  0  0  0  0
   -5.6943   -5.2969    6.1985 C   0  0  0  0  0  0  0  0  0  0  0  0
   -6.8208   -4.9817    6.9505 C   0  0  0  0  0  0  0  0  0  0  0  0
   -8.0618   -5.4643    6.5581 C   0  0  0  0  0  0  0  0  0  0  0  0
   -8.1669   -6.2526    5.4025 C   0  0  0  0  0  0  0  0  0  0  0  0
   -7.0567   -6.5847    4.6369 C   0  0  0  0  0  0  0  0  0  0  0  0
   -7.2137   -7.3604    3.5454 N   0  0  0  0  0  0  0  0  0  0  0  0
   -6.1109   -7.7082    2.8373 C   0  0  0  0  0  0  0  0  0  0  0  0
    0.5846   -4.7989    1.2072 S   0  0  0  0  0  0  0  0  0  0  0  0
    3.8173   -2.1219   -1.0181 C   0  0  0  0  0  0  0  0  0  0  0  0
    5.2062   -2.1495   -1.1660 C   0  0  0  0  0  0  0  0  0  0  0  0
    6.0191   -2.4699   -0.0787 C   0  0  0  0  0  0  0  0  0  0  0  0
    3.6058   -2.9729    2.2729 H   0  0  0  0  0  0  0  0  0  0  0  0
    1.3388   -1.5221   -0.2257 H   0  0  0  0  0  0  0  0  0  0  0  0
    1.4898   -2.0416    1.4267 H   0  0  0  0  0  0  0  0  0  0  0  0
    0.6283   -3.4380   -2.1168 H   0  0  0  0  0  0  0  0  0  0  0  0
   -0.9137   -7.0028    1.4143 H   0  0  0  0  0  0  0  0  0  0  0  0
   -1.9339   -9.0747    0.9042 H   0  0  0  0  0  0  0  0  0  0  0  0
   -3.0005   -9.1789   -0.5107 H   0  0  0  0  0  0  0  0  0  0  0  0
   -4.6090   -7.7796    0.5565 H   0  0  0  0  0  0  0  0  0  0  0  0
   -2.7546   -6.6217    4.2536 H   0  0  0  0  0  0  0  0  0  0  0  0
   -4.7236   -4.9179    6.5123 H   0  0  0  0  0  0  0  0  0  0  0  0
   -6.7267   -4.3681    7.8426 H   0  0  0  0  0  0  0  0  0  0  0  0
   -8.9473   -5.2386    7.1447 H   0  0  0  0  0  0  0  0  0  0  0  0
   -9.1450   -6.6227    5.1047 H   0  0  0  0  0  0  0  0  0  0  0  0
   -6.3203   -8.3666    1.9976 H   0  0  0  0  0  0  0  0  0  0  0  0
    3.2023   -1.8602   -1.8773 H   0  0  0  0  0  0  0  0  0  0  0  0
    5.6555   -1.9154   -2.1289 H   0  0  0  0  0  0  0  0  0  0  0  0
    7.1004   -2.4816   -0.2035 H   0  0  0  0  0  0  0  0  0  0  0  0
  1  2  3  0  0  0  0
  2  3  1  0  0  0  0
  3  4  2  0  0  0  0
  3 32  1  0  0  0  0
  4  5  1  0  0  0  0
  4 33  1  0  0  0  0
  5  6  1  0  0  0  0
  5 30  2  0  0  0  0
  6  7  1  0  0  0  0
  6 34  1  0  0  0  0
  6 35  1  0  0  0  0
  7  8  2  0  0  0  0
  7 29  1  0  0  0  0
  8  9  1  0  0  0  0
  8 36  1  0  0  0  0
  9 10  2  0  0  0  0
 10 11  1  0  0  0  0
 10 29  1  0  0  0  0
 11 12  1  0  0  0  0
 11 37  1  0  0  0  0
 12 13  2  0  0  0  0
 12 14  1  0  0  0  0
 14 15  1  0  0  0  0
 14 38  1  0  0  0  0
 14 39  1  0  0  0  0
 15 16  1  0  0  0  0
 15 40  1  0  0  0  0
 16 17  2  0  0  0  0
 16 18  1  0  0  0  0
 18 19  2  0  0  0  0
 18 28  1  0  0  0  0
 19 20  1  0  0  0  0
 19 21  1  0  0  0  0
 20 41  1  0  0  0  0
 21 22  2  0  0  0  0
 21 26  1  0  0  0  0
 22 23  1  0  0  0  0
 22 42  1  0  0  0  0
 23 24  2  0  0  0  0
 23 43  1  0  0  0  0
 24 25  1  0  0  0  0
 24 44  1  0  0  0  0
 25 26  2  0  0  0  0
 25 45  1  0  0  0  0
 26 27  1  0  0  0  0
 27 28  2  0  0  0  0
 28 46  1  0  0  0  0
 30 31  1  0  0  0  0
 30 47  1  0  0  0  0
 31 32  2  0  0  0  0
 31 48  1  0  0  0  0
 32 49  1  0  0  0  0
M  END
$$$$
