
 OpenBabel01122422533D

 45 48  0  0  0  0  0  0  0  0999 V2000
    3.1340   -0.2388    2.1415 O   0  0  0  0  0  0  0  0  0  0  0  0
    3.3524   -0.2020    0.9320 C   0  0  0  0  0  0  0  0  0  0  0  0
    2.9819   -1.2099    0.0702 N   0  0  0  0  0  0  0  0  0  0  0  0
    2.2759   -2.4067    0.4877 C   0  0  0  0  0  0  0  0  0  0  0  0
    3.2342   -3.5533    0.7196 C   0  0  0  0  0  0  0  0  0  0  0  0
    3.7535   -3.7569    1.9897 C   0  0  0  0  0  0  0  0  0  0  0  0
    4.7313   -4.7325    2.1644 C   0  0  0  0  0  0  0  0  0  0  0  0
    5.3536   -4.9774    3.3672 O   0  0  0  0  0  0  0  0  0  0  0  0
    5.6250   -3.9192    4.2092 C   0  0  0  0  0  0  0  0  0  0  0  0
    5.9815   -2.6366    3.7670 C   0  0  0  0  0  0  0  0  0  0  0  0
    6.2198   -1.6173    4.6912 C   0  0  0  0  0  0  0  0  0  0  0  0
    6.1441   -1.8941    6.0498 C   0  0  0  0  0  0  0  0  0  0  0  0
    6.3786   -0.9141    6.9335 F   0  0  0  0  0  0  0  0  0  0  0  0
    5.8404   -3.1766    6.4897 C   0  0  0  0  0  0  0  0  0  0  0  0
    5.7934   -3.4443    7.8021 F   0  0  0  0  0  0  0  0  0  0  0  0
    5.5811   -4.1952    5.5771 C   0  0  0  0  0  0  0  0  0  0  0  0
    5.0894   -5.5423    1.0952 C   0  0  0  0  0  0  0  0  0  0  0  0
    4.5076   -5.2887   -0.1337 C   0  0  0  0  0  0  0  0  0  0  0  0
    3.6100   -4.2986   -0.3511 N   0  0  0  0  0  0  0  0  0  0  0  0
    4.0969    0.9326    0.2774 C   0  0  0  0  0  0  0  0  0  0  0  0
    3.7107    1.2577   -0.9706 C   0  0  0  0  0  0  0  0  0  0  0  0
    4.4239    2.2628   -1.7785 C   0  0  0  0  0  0  0  0  0  0  0  0
    4.0708    2.4997   -2.9297 O   0  0  0  0  0  0  0  0  0  0  0  0
    5.4948    2.8680   -1.2017 N   0  0  0  0  0  0  0  0  0  0  0  0
    5.9161    2.6117    0.1054 C   0  0  0  0  0  0  0  0  0  0  0  0
    7.0473    3.2848    0.5799 C   0  0  0  0  0  0  0  0  0  0  0  0
    7.4802    3.0583    1.8815 C   0  0  0  0  0  0  0  0  0  0  0  0
    6.7523    2.2041    2.6991 C   0  0  0  0  0  0  0  0  0  0  0  0
    7.1589    2.0045    3.9594 F   0  0  0  0  0  0  0  0  0  0  0  0
    5.6204    1.5311    2.2301 C   0  0  0  0  0  0  0  0  0  0  0  0
    5.2044    1.6928    0.9040 C   0  0  0  0  0  0  0  0  0  0  0  0
    3.3765   -1.2499   -0.8604 H   0  0  0  0  0  0  0  0  0  0  0  0
    1.5910   -2.6721   -0.3227 H   0  0  0  0  0  0  0  0  0  0  0  0
    1.6797   -2.2077    1.3814 H   0  0  0  0  0  0  0  0  0  0  0  0
    3.4213   -3.1307    2.8125 H   0  0  0  0  0  0  0  0  0  0  0  0
    6.0606   -2.4095    2.7069 H   0  0  0  0  0  0  0  0  0  0  0  0
    6.4631   -0.6135    4.3613 H   0  0  0  0  0  0  0  0  0  0  0  0
    5.3415   -5.1900    5.9382 H   0  0  0  0  0  0  0  0  0  0  0  0
    5.8126   -6.3419    1.2123 H   0  0  0  0  0  0  0  0  0  0  0  0
    4.7588   -5.8874   -1.0047 H   0  0  0  0  0  0  0  0  0  0  0  0
    2.8849    0.7873   -1.4874 H   0  0  0  0  0  0  0  0  0  0  0  0
    5.9815    3.5432   -1.7778 H   0  0  0  0  0  0  0  0  0  0  0  0
    7.6005    3.9695   -0.0571 H   0  0  0  0  0  0  0  0  0  0  0  0
    8.3743    3.5429    2.2625 H   0  0  0  0  0  0  0  0  0  0  0  0
    5.0868    0.8917    2.9256 H   0  0  0  0  0  0  0  0  0  0  0  0
  1  2  2  0  0  0  0
  2  3  1  0  0  0  0
  2 20  1  0  0  0  0
  3  4  1  0  0  0  0
  3 32  1  0  0  0  0
  4  5  1  0  0  0  0
  4 33  1  0  0  0  0
  4 34  1  0  0  0  0
  5  6  2  0  0  0  0
  5 19  1  0  0  0  0
  6  7  1  0  0  0  0
  6 35  1  0  0  0  0
  7  8  1  0  0  0  0
  7 17  2  0  0  0  0
  8  9  1  0  0  0  0
  9 10  2  0  0  0  0
  9 16  1  0  0  0  0
 10 11  1  0  0  0  0
 10 36  1  0  0  0  0
 11 12  2  0  0  0  0
 11 37  1  0  0  0  0
 12 13  1  0  0  0  0
 12 14  1  0  0  0  0
 14 15  1  0  0  0  0
 14 16  2  0  0  0  0
 16 38  1  0  0  0  0
 17 18  1  0  0  0  0
 17 39  1  0  0  0  0
 18 19  2  0  0  0  0
 18 40  1  0  0  0  0
 20 21  2  0  0  0  0
 20 31  1  0  0  0  0
 21 22  1  0  0  0  0
 21 41  1  0  0  0  0
 22 23  2  0  0  0  0
 22 24  1  0  0  0  0
 24 25  1  0  0  0  0
 24 42  1  0  0  0  0
 25 26  2  0  0  0  0
 25 31  1  0  0  0  0
 26 27  1  0  0  0  0
 26 43  1  0  0  0  0
 27 28  2  0  0  0  0
 27 44  1  0  0  0  0
 28 29  1  0  0  0  0
 28 30  1  0  0  0  0
 30 31  2  0  0  0  0
 30 45  1  0  0  0  0
M  END
$$$$
