
 OpenBabel01122422533D

 54 57  0  0  0  0  0  0  0  0999 V2000
    3.1567   -3.2269   -0.9279 N   0  0  0  0  0  0  0  0  0  0  0  0
    2.5124   -2.0388   -1.0985 C   0  0  0  0  0  0  0  0  0  0  0  0
    1.2892   -2.0278   -1.2324 O   0  0  0  0  0  0  0  0  0  0  0  0
    3.3492   -0.7485   -1.1655 C   0  0  0  0  0  0  0  0  0  0  0  0
    4.7778   -0.7734   -0.8114 N   0  0  0  0  0  0  0  0  0  0  0  0
    5.2038    0.1226    0.2691 C   0  0  0  0  0  0  0  0  0  0  0  0
    5.2589   -0.5218    1.6358 C   0  0  0  0  0  0  0  0  0  0  0  0
    4.8804   -1.8461    1.8640 C   0  0  0  0  0  0  0  0  0  0  0  0
    4.8419   -2.3773    3.1552 C   0  0  0  0  0  0  0  0  0  0  0  0
    5.2199   -1.6203    4.2731 C   0  0  0  0  0  0  0  0  0  0  0  0
    5.1333   -2.1750    5.6464 C   0  0  0  0  0  0  0  0  0  0  0  0
    5.2655   -3.5540    5.8989 C   0  0  0  0  0  0  0  0  0  0  0  0
    5.1792   -4.0747    7.1940 C   0  0  0  0  0  0  0  0  0  0  0  0
    4.9701   -3.2246    8.2740 C   0  0  0  0  0  0  0  0  0  0  0  0
    4.8264   -1.8594    8.0568 C   0  0  0  0  0  0  0  0  0  0  0  0
    4.8963   -1.3451    6.7582 C   0  0  0  0  0  0  0  0  0  0  0  0
    5.6716   -0.3112    4.0252 C   0  0  0  0  0  0  0  0  0  0  0  0
    5.6784    0.2352    2.7346 C   0  0  0  0  0  0  0  0  0  0  0  0
    5.6574   -1.4237   -1.6928 C   0  0  0  0  0  0  0  0  0  0  0  0
    5.1887   -2.0876   -2.6227 O   0  0  0  0  0  0  0  0  0  0  0  0
    7.1233   -1.3455   -1.4943 C   0  0  0  0  0  0  0  0  0  0  0  0
    7.7162   -1.1250   -0.3033 N   0  0  0  0  0  0  0  0  0  0  0  0
    9.0490   -1.0914   -0.5455 N   0  0  0  0  0  0  0  0  0  0  0  0
    9.9711   -0.7890    0.4963 C   0  0  0  0  0  0  0  0  0  0  0  0
    9.4977   -0.5581    1.8000 C   0  0  0  0  0  0  0  0  0  0  0  0
   10.3873   -0.2575    2.8369 C   0  0  0  0  0  0  0  0  0  0  0  0
   11.7539   -0.1855    2.5803 C   0  0  0  0  0  0  0  0  0  0  0  0
   12.2179   -0.4110    1.2901 C   0  0  0  0  0  0  0  0  0  0  0  0
   13.5326   -0.3416    1.0423 F   0  0  0  0  0  0  0  0  0  0  0  0
   11.3459   -0.7096    0.2456 C   0  0  0  0  0  0  0  0  0  0  0  0
    9.3279   -1.3595   -1.8683 C   0  0  0  0  0  0  0  0  0  0  0  0
    8.1175   -1.5279   -2.4811 C   0  0  0  0  0  0  0  0  0  0  0  0
    7.9663   -1.7841   -3.7910 O   0  0  0  0  0  0  0  0  0  0  0  0
    2.5601   -4.0399   -1.0144 H   0  0  0  0  0  0  0  0  0  0  0  0
    4.0735   -3.3143   -1.3549 H   0  0  0  0  0  0  0  0  0  0  0  0
    2.8393   -0.0531   -0.4878 H   0  0  0  0  0  0  0  0  0  0  0  0
    3.2636   -0.3484   -2.1819 H   0  0  0  0  0  0  0  0  0  0  0  0
    4.4942    0.9586    0.3160 H   0  0  0  0  0  0  0  0  0  0  0  0
    6.1603    0.5918    0.0243 H   0  0  0  0  0  0  0  0  0  0  0  0
    4.5951   -2.4956    1.0450 H   0  0  0  0  0  0  0  0  0  0  0  0
    4.4826   -3.3979    3.2628 H   0  0  0  0  0  0  0  0  0  0  0  0
    5.4470   -4.2528    5.0855 H   0  0  0  0  0  0  0  0  0  0  0  0
    5.2795   -5.1451    7.3535 H   0  0  0  0  0  0  0  0  0  0  0  0
    4.9164   -3.6261    9.2820 H   0  0  0  0  0  0  0  0  0  0  0  0
    4.6535   -1.1893    8.8945 H   0  0  0  0  0  0  0  0  0  0  0  0
    4.7452   -0.2761    6.6278 H   0  0  0  0  0  0  0  0  0  0  0  0
    6.0250    0.3136    4.8420 H   0  0  0  0  0  0  0  0  0  0  0  0
    6.0171    1.2601    2.5980 H   0  0  0  0  0  0  0  0  0  0  0  0
    8.4352   -0.6173    2.0297 H   0  0  0  0  0  0  0  0  0  0  0  0
   10.0106   -0.0866    3.8427 H   0  0  0  0  0  0  0  0  0  0  0  0
   12.4581    0.0409    3.3748 H   0  0  0  0  0  0  0  0  0  0  0  0
   11.7798   -0.8684   -0.7343 H   0  0  0  0  0  0  0  0  0  0  0  0
   10.3336   -1.3909   -2.2534 H   0  0  0  0  0  0  0  0  0  0  0  0
    8.8253   -1.9002   -4.2295 H   0  0  0  0  0  0  0  0  0  0  0  0
  1  2  1  0  0  0  0
  1 34  1  0  0  0  0
  1 35  1  0  0  0  0
  2  3  2  0  0  0  0
  2  4  1  0  0  0  0
  4  5  1  0  0  0  0
  4 36  1  0  0  0  0
  4 37  1  0  0  0  0
  5  6  1  0  0  0  0
  5 19  1  0  0  0  0
  6  7  1  0  0  0  0
  6 38  1  0  0  0  0
  6 39  1  0  0  0  0
  7  8  2  0  0  0  0
  7 18  1  0  0  0  0
  8  9  1  0  0  0  0
  8 40  1  0  0  0  0
  9 10  2  0  0  0  0
  9 41  1  0  0  0  0
 10 11  1  0  0  0  0
 10 17  1  0  0  0  0
 11 12  2  0  0  0  0
 11 16  1  0  0  0  0
 12 13  1  0  0  0  0
 12 42  1  0  0  0  0
 13 14  2  0  0  0  0
 13 43  1  0  0  0  0
 14 15  1  0  0  0  0
 14 44  1  0  0  0  0
 15 16  2  0  0  0  0
 15 45  1  0  0  0  0
 16 46  1  0  0  0  0
 17 18  2  0  0  0  0
 17 47  1  0  0  0  0
 18 48  1  0  0  0  0
 19 20  2  0  0  0  0
 19 21  1  0  0  0  0
 21 22  2  0  0  0  0
 21 32  1  0  0  0  0
 22 23  1  0  0  0  0
 23 24  1  0  0  0  0
 23 31  1  0  0  0  0
 24 25  2  0  0  0  0
 24 30  1  0  0  0  0
 25 26  1  0  0  0  0
 25 49  1  0  0  0  0
 26 27  2  0  0  0  0
 26 50  1  0  0  0  0
 27 28  1  0  0  0  0
 27 51  1  0  0  0  0
 28 29  1  0  0  0  0
 28 30  2  0  0  0  0
 30 52  1  0  0  0  0
 31 32  2  0  0  0  0
 31 53  1  0  0  0  0
 32 33  1  0  0  0  0
 33 54  1  0  0  0  0
M  END
$$$$
