
 OpenBabel01122422533D

 45 48  0  0  0  0  0  0  0  0999 V2000
    1.3035    0.5540   -1.2673 O   0  0  0  0  0  0  0  0  0  0  0  0
    2.4292    0.4584   -0.8012 C   0  0  0  0  0  0  0  0  0  0  0  0
    3.0028    1.3053    0.1468 N   0  0  0  0  0  0  0  0  0  0  0  0
    2.2600    2.2658    0.8952 C   0  0  0  0  0  0  0  0  0  0  0  0
    0.8636    2.2026    0.9797 C   0  0  0  0  0  0  0  0  0  0  0  0
    0.0737    3.0614    1.6724 N   0  0  0  0  0  0  0  0  0  0  0  0
    0.6947    4.0149    2.3776 C   0  0  0  0  0  0  0  0  0  0  0  0
    2.0676    4.1433    2.4250 C   0  0  0  0  0  0  0  0  0  0  0  0
    2.8655    3.3075    1.6195 C   0  0  0  0  0  0  0  0  0  0  0  0
    4.2332    3.5429    1.5117 O   0  0  0  0  0  0  0  0  0  0  0  0
    4.6396    4.8734    1.5493 C   0  0  0  0  0  0  0  0  0  0  0  0
    5.7461    5.2143    2.3324 C   0  0  0  0  0  0  0  0  0  0  0  0
    6.1197    6.5587    2.4673 C   0  0  0  0  0  0  0  0  0  0  0  0
    5.3888    7.5621    1.8279 C   0  0  0  0  0  0  0  0  0  0  0  0
    4.3076    7.2218    1.0189 C   0  0  0  0  0  0  0  0  0  0  0  0
    3.9570    5.8812    0.8515 C   0  0  0  0  0  0  0  0  0  0  0  0
    3.2968   -0.6415   -1.3621 C   0  0  0  0  0  0  0  0  0  0  0  0
    4.5768   -0.4124   -1.4523 N   0  0  0  0  0  0  0  0  0  0  0  0
    5.3492   -1.3759   -2.0731 N   0  0  0  0  0  0  0  0  0  0  0  0
    6.7578   -1.2287   -1.8855 C   0  0  0  0  0  0  0  0  0  0  0  0
    7.2968    0.0166   -1.4993 C   0  0  0  0  0  0  0  0  0  0  0  0
    8.6583    0.1821   -1.2398 C   0  0  0  0  0  0  0  0  0  0  0  0
    9.5281   -0.8954   -1.3653 C   0  0  0  0  0  0  0  0  0  0  0  0
    9.0308   -2.1357   -1.7577 C   0  0  0  0  0  0  0  0  0  0  0  0
    7.6676   -2.2947   -2.0121 C   0  0  0  0  0  0  0  0  0  0  0  0
    7.2503   -3.5291   -2.3356 F   0  0  0  0  0  0  0  0  0  0  0  0
    4.7778   -2.3905   -2.8275 C   0  0  0  0  0  0  0  0  0  0  0  0
    3.4871   -2.7251   -2.8035 C   0  0  0  0  0  0  0  0  0  0  0  0
    2.6860   -1.9440   -1.8555 C   0  0  0  0  0  0  0  0  0  0  0  0
    1.6034   -2.3454   -1.4570 O   0  0  0  0  0  0  0  0  0  0  0  0
    4.0114    1.2811    0.2612 H   0  0  0  0  0  0  0  0  0  0  0  0
    0.2870    1.4177    0.5016 H   0  0  0  0  0  0  0  0  0  0  0  0
    0.0442    4.7042    2.9066 H   0  0  0  0  0  0  0  0  0  0  0  0
    2.4958    4.9330    3.0336 H   0  0  0  0  0  0  0  0  0  0  0  0
    6.3061    4.4497    2.8634 H   0  0  0  0  0  0  0  0  0  0  0  0
    6.9726    6.8324    3.0853 H   0  0  0  0  0  0  0  0  0  0  0  0
    5.6600    8.6074    1.9577 H   0  0  0  0  0  0  0  0  0  0  0  0
    3.7273    7.9988    0.5270 H   0  0  0  0  0  0  0  0  0  0  0  0
    3.1104    5.6366    0.2149 H   0  0  0  0  0  0  0  0  0  0  0  0
    6.6439    0.8833   -1.3972 H   0  0  0  0  0  0  0  0  0  0  0  0
    9.0343    1.1552   -0.9357 H   0  0  0  0  0  0  0  0  0  0  0  0
   10.5844   -0.7746   -1.1508 H   0  0  0  0  0  0  0  0  0  0  0  0
    9.6914   -2.9922   -1.8522 H   0  0  0  0  0  0  0  0  0  0  0  0
    5.4592   -2.9362   -3.4725 H   0  0  0  0  0  0  0  0  0  0  0  0
    3.0434   -3.5395   -3.3551 H   0  0  0  0  0  0  0  0  0  0  0  0
  1  2  2  0  0  0  0
  2  3  1  0  0  0  0
  2 17  1  0  0  0  0
  3  4  1  0  0  0  0
  3 31  1  0  0  0  0
  4  5  2  0  0  0  0
  4  9  1  0  0  0  0
  5  6  1  0  0  0  0
  5 32  1  0  0  0  0
  6  7  2  0  0  0  0
  7  8  1  0  0  0  0
  7 33  1  0  0  0  0
  8  9  2  0  0  0  0
  8 34  1  0  0  0  0
  9 10  1  0  0  0  0
 10 11  1  0  0  0  0
 11 12  2  0  0  0  0
 11 16  1  0  0  0  0
 12 13  1  0  0  0  0
 12 35  1  0  0  0  0
 13 14  2  0  0  0  0
 13 36  1  0  0  0  0
 14 15  1  0  0  0  0
 14 37  1  0  0  0  0
 15 16  2  0  0  0  0
 15 38  1  0  0  0  0
 16 39  1  0  0  0  0
 17 18  2  0  0  0  0
 17 29  1  0  0  0  0
 18 19  1  0  0  0  0
 19 20  1  0  0  0  0
 19 27  1  0  0  0  0
 20 21  2  0  0  0  0
 20 25  1  0  0  0  0
 21 22  1  0  0  0  0
 21 40  1  0  0  0  0
 22 23  2  0  0  0  0
 22 41  1  0  0  0  0
 23 24  1  0  0  0  0
 23 42  1  0  0  0  0
 24 25  2  0  0  0  0
 24 43  1  0  0  0  0
 25 26  1  0  0  0  0
 27 28  2  0  0  0  0
 27 44  1  0  0  0  0
 28 29  1  0  0  0  0
 28 45  1  0  0  0  0
 29 30  2  0  0  0  0
M  END
$$$$
