
 OpenBabel01122422533D

 47 50  0  0  0  0  0  0  0  0999 V2000
    0.9232   -0.2297    0.1644 O   0  0  0  0  0  0  0  0  0  0  0  0
    2.1463   -0.1337    0.1007 C   0  0  0  0  0  0  0  0  0  0  0  0
    2.8484   -0.3107   -1.0641 N   0  0  0  0  0  0  0  0  0  0  0  0
    2.1829   -0.5735   -2.3233 C   0  0  0  0  0  0  0  0  0  0  0  0
    2.4989    0.4902   -3.3451 C   0  0  0  0  0  0  0  0  0  0  0  0
    3.1436    0.1704   -4.5434 C   0  0  0  0  0  0  0  0  0  0  0  0
    3.4061    1.1598   -5.5013 C   0  0  0  0  0  0  0  0  0  0  0  0
    3.0299    2.5006   -5.3010 C   0  0  0  0  0  0  0  0  0  0  0  0
    3.3186    3.5451   -6.3046 C   0  0  0  0  0  0  0  0  0  0  0  0
    3.3641    3.3140   -7.6723 C   0  0  0  0  0  0  0  0  0  0  0  0
    3.6433    4.2479   -8.6118 N   0  0  0  0  0  0  0  0  0  0  0  0
    3.8786    5.4822   -8.1506 C   0  0  0  0  0  0  0  0  0  0  0  0
    3.8608    5.8513   -6.8635 N   0  0  0  0  0  0  0  0  0  0  0  0
    3.5826    4.8677   -5.9768 C   0  0  0  0  0  0  0  0  0  0  0  0
    2.3710    2.8017   -4.0953 C   0  0  0  0  0  0  0  0  0  0  0  0
    2.1128    1.8178   -3.1325 C   0  0  0  0  0  0  0  0  0  0  0  0
    2.9621    0.1863    1.3182 C   0  0  0  0  0  0  0  0  0  0  0  0
    2.3831   -0.0371    2.5114 C   0  0  0  0  0  0  0  0  0  0  0  0
    2.9668    0.3665    3.7117 N   0  0  0  0  0  0  0  0  0  0  0  0
    2.2509    0.2059    4.9366 C   0  0  0  0  0  0  0  0  0  0  0  0
    1.9748    1.3156    5.7425 C   0  0  0  0  0  0  0  0  0  0  0  0
    1.2002    1.1587    6.8860 C   0  0  0  0  0  0  0  0  0  0  0  0
    0.8843    2.2338    7.6207 F   0  0  0  0  0  0  0  0  0  0  0  0
    0.7279   -0.0913    7.2700 C   0  0  0  0  0  0  0  0  0  0  0  0
    1.0233   -1.2068    6.4888 C   0  0  0  0  0  0  0  0  0  0  0  0
    1.7643   -1.0556    5.3129 C   0  0  0  0  0  0  0  0  0  0  0  0
    4.2018    1.0342    3.7339 C   0  0  0  0  0  0  0  0  0  0  0  0
    4.7909    1.4423    4.7331 O   0  0  0  0  0  0  0  0  0  0  0  0
    4.8607    1.2198    2.4102 C   0  0  0  0  0  0  0  0  0  0  0  0
    4.2600    0.8272    1.2795 C   0  0  0  0  0  0  0  0  0  0  0  0
    3.8566   -0.3017   -1.0703 H   0  0  0  0  0  0  0  0  0  0  0  0
    1.0970   -0.6431   -2.1981 H   0  0  0  0  0  0  0  0  0  0  0  0
    2.5369   -1.5527   -2.6636 H   0  0  0  0  0  0  0  0  0  0  0  0
    3.4446   -0.8545   -4.7514 H   0  0  0  0  0  0  0  0  0  0  0  0
    3.9246    0.8579   -6.4097 H   0  0  0  0  0  0  0  0  0  0  0  0
    3.1622    2.3299   -8.0878 H   0  0  0  0  0  0  0  0  0  0  0  0
    4.1052    6.2504   -8.8812 H   0  0  0  0  0  0  0  0  0  0  0  0
    3.5940    5.2029   -4.9431 H   0  0  0  0  0  0  0  0  0  0  0  0
    2.0257    3.8133   -3.8870 H   0  0  0  0  0  0  0  0  0  0  0  0
    1.5919    2.0949   -2.2168 H   0  0  0  0  0  0  0  0  0  0  0  0
    1.3902   -0.4770    2.5836 H   0  0  0  0  0  0  0  0  0  0  0  0
    2.3129    2.3098    5.4688 H   0  0  0  0  0  0  0  0  0  0  0  0
    0.1324   -0.1854    8.1726 H   0  0  0  0  0  0  0  0  0  0  0  0
    0.6764   -2.1912    6.7927 H   0  0  0  0  0  0  0  0  0  0  0  0
    1.9958   -1.9350    4.7163 H   0  0  0  0  0  0  0  0  0  0  0  0
    5.8305    1.7016    2.4234 H   0  0  0  0  0  0  0  0  0  0  0  0
    4.7464    1.0133    0.3297 H   0  0  0  0  0  0  0  0  0  0  0  0
  1  2  2  0  0  0  0
  2  3  1  0  0  0  0
  2 17  1  0  0  0  0
  3  4  1  0  0  0  0
  3 31  1  0  0  0  0
  4  5  1  0  0  0  0
  4 32  1  0  0  0  0
  4 33  1  0  0  0  0
  5  6  2  0  0  0  0
  5 16  1  0  0  0  0
  6  7  1  0  0  0  0
  6 34  1  0  0  0  0
  7  8  2  0  0  0  0
  7 35  1  0  0  0  0
  8  9  1  0  0  0  0
  8 15  1  0  0  0  0
  9 10  2  0  0  0  0
  9 14  1  0  0  0  0
 10 11  1  0  0  0  0
 10 36  1  0  0  0  0
 11 12  2  0  0  0  0
 12 13  1  0  0  0  0
 12 37  1  0  0  0  0
 13 14  2  0  0  0  0
 14 38  1  0  0  0  0
 15 16  2  0  0  0  0
 15 39  1  0  0  0  0
 16 40  1  0  0  0  0
 17 18  2  0  0  0  0
 17 30  1  0  0  0  0
 18 19  1  0  0  0  0
 18 41  1  0  0  0  0
 19 20  1  0  0  0  0
 19 27  1  0  0  0  0
 20 21  2  0  0  0  0
 20 26  1  0  0  0  0
 21 22  1  0  0  0  0
 21 42  1  0  0  0  0
 22 23  1  0  0  0  0
 22 24  2  0  0  0  0
 24 25  1  0  0  0  0
 24 43  1  0  0  0  0
 25 26  2  0  0  0  0
 25 44  1  0  0  0  0
 26 45  1  0  0  0  0
 27 28  2  0  0  0  0
 27 29  1  0  0  0  0
 29 30  2  0  0  0  0
 29 46  1  0  0  0  0
 30 47  1  0  0  0  0
M  END
$$$$
