
 OpenBabel01122422533D

 52 55  0  0  0  0  0  0  0  0999 V2000
    2.0388    5.8876   -2.7211 N   0  0  0  0  0  0  0  0  0  0  0  0
    1.4309    4.7425   -3.1553 C   0  0  0  0  0  0  0  0  0  0  0  0
    0.2984    4.4581   -2.7901 O   0  0  0  0  0  0  0  0  0  0  0  0
    2.1826    3.8956   -4.1173 C   0  0  0  0  0  0  0  0  0  0  0  0
    3.5831    3.8950   -4.1741 C   0  0  0  0  0  0  0  0  0  0  0  0
    4.2442    3.0886   -5.1040 C   0  0  0  0  0  0  0  0  0  0  0  0
    3.5200    2.2757   -5.9902 C   0  0  0  0  0  0  0  0  0  0  0  0
    4.2394    1.4245   -7.0104 C   0  0  0  0  0  0  0  0  0  0  0  0
    4.5561   -0.2598   -6.4032 S   0  0  0  0  0  0  0  0  0  0  0  0
    5.3586   -0.9583   -7.8415 C   0  0  0  0  0  0  0  0  0  0  0  0
    6.0355   -0.0522   -8.6041 N   0  0  0  0  0  0  0  0  0  0  0  0
    6.6624   -0.4846   -9.7184 C   0  0  0  0  0  0  0  0  0  0  0  0
    6.6488   -1.7977  -10.1423 C   0  0  0  0  0  0  0  0  0  0  0  0
    5.9629   -2.7215   -9.3661 C   0  0  0  0  0  0  0  0  0  0  0  0
    5.3038   -2.3101   -8.1943 C   0  0  0  0  0  0  0  0  0  0  0  0
    4.6419   -3.3510   -7.3720 C   0  0  0  0  0  0  0  0  0  0  0  0
    4.7542   -3.3667   -6.1513 O   0  0  0  0  0  0  0  0  0  0  0  0
    3.9728   -4.3301   -8.0809 N   0  0  0  0  0  0  0  0  0  0  0  0
    3.2425   -5.3653   -7.3888 C   0  0  0  0  0  0  0  0  0  0  0  0
    1.8189   -4.9767   -7.1857 C   0  0  0  0  0  0  0  0  0  0  0  0
    0.8394   -5.6730   -6.4966 C   0  0  0  0  0  0  0  0  0  0  0  0
    0.7867   -6.9250   -5.7565 C   0  0  0  0  0  0  0  0  0  0  0  0
    1.8944   -7.3667   -5.0189 C   0  0  0  0  0  0  0  0  0  0  0  0
    1.8872   -8.6085   -4.3807 C   0  0  0  0  0  0  0  0  0  0  0  0
    0.7585   -9.4190   -4.4536 C   0  0  0  0  0  0  0  0  0  0  0  0
   -0.3634   -8.9830   -5.1549 C   0  0  0  0  0  0  0  0  0  0  0  0
   -0.3505   -7.7434   -5.8029 C   0  0  0  0  0  0  0  0  0  0  0  0
   -0.3243   -4.9582   -6.5989 O   0  0  0  0  0  0  0  0  0  0  0  0
    0.0201   -3.8657   -7.3333 C   0  0  0  0  0  0  0  0  0  0  0  0
    1.2657   -3.8374   -7.7482 N   0  0  0  0  0  0  0  0  0  0  0  0
    2.1207    2.2608   -5.9082 C   0  0  0  0  0  0  0  0  0  0  0  0
    1.4572    3.0618   -4.9779 C   0  0  0  0  0  0  0  0  0  0  0  0
    1.4756    6.5059   -2.1548 H   0  0  0  0  0  0  0  0  0  0  0  0
    2.8490    6.2794   -3.1809 H   0  0  0  0  0  0  0  0  0  0  0  0
    4.1712    4.4932   -3.4846 H   0  0  0  0  0  0  0  0  0  0  0  0
    5.3322    3.0909   -5.1313 H   0  0  0  0  0  0  0  0  0  0  0  0
    5.1811    1.9177   -7.2769 H   0  0  0  0  0  0  0  0  0  0  0  0
    3.6353    1.3693   -7.9237 H   0  0  0  0  0  0  0  0  0  0  0  0
    7.1963    0.2810  -10.2759 H   0  0  0  0  0  0  0  0  0  0  0  0
    7.1709   -2.0964  -11.0442 H   0  0  0  0  0  0  0  0  0  0  0  0
    5.9730   -3.7681   -9.6606 H   0  0  0  0  0  0  0  0  0  0  0  0
    3.7020   -4.1497   -9.0380 H   0  0  0  0  0  0  0  0  0  0  0  0
    3.7330   -5.5644   -6.4330 H   0  0  0  0  0  0  0  0  0  0  0  0
    3.2968   -6.2706   -8.0020 H   0  0  0  0  0  0  0  0  0  0  0  0
    2.7790   -6.7453   -4.9114 H   0  0  0  0  0  0  0  0  0  0  0  0
    2.7627   -8.9357   -3.8260 H   0  0  0  0  0  0  0  0  0  0  0  0
    0.7532  -10.3862   -3.9582 H   0  0  0  0  0  0  0  0  0  0  0  0
   -1.2493   -9.6113   -5.2044 H   0  0  0  0  0  0  0  0  0  0  0  0
   -1.2318   -7.4292   -6.3582 H   0  0  0  0  0  0  0  0  0  0  0  0
   -0.7587   -3.1374   -7.5102 H   0  0  0  0  0  0  0  0  0  0  0  0
    1.5381    1.6211   -6.5677 H   0  0  0  0  0  0  0  0  0  0  0  0
    0.3703    3.0409   -4.9238 H   0  0  0  0  0  0  0  0  0  0  0  0
  1  2  1  0  0  0  0
  1 33  1  0  0  0  0
  1 34  1  0  0  0  0
  2  3  2  0  0  0  0
  2  4  1  0  0  0  0
  4  5  2  0  0  0  0
  4 32  1  0  0  0  0
  5  6  1  0  0  0  0
  5 35  1  0  0  0  0
  6  7  2  0  0  0  0
  6 36  1  0  0  0  0
  7  8  1  0  0  0  0
  7 31  1  0  0  0  0
  8  9  1  0  0  0  0
  8 37  1  0  0  0  0
  8 38  1  0  0  0  0
  9 10  1  0  0  0  0
 10 11  2  0  0  0  0
 10 15  1  0  0  0  0
 11 12  1  0  0  0  0
 12 13  2  0  0  0  0
 12 39  1  0  0  0  0
 13 14  1  0  0  0  0
 13 40  1  0  0  0  0
 14 15  2  0  0  0  0
 14 41  1  0  0  0  0
 15 16  1  0  0  0  0
 16 17  2  0  0  0  0
 16 18  1  0  0  0  0
 18 19  1  0  0  0  0
 18 42  1  0  0  0  0
 19 20  1  0  0  0  0
 19 43  1  0  0  0  0
 19 44  1  0  0  0  0
 20 21  2  0  0  0  0
 20 30  1  0  0  0  0
 21 22  1  0  0  0  0
 21 28  1  0  0  0  0
 22 23  2  0  0  0  0
 22 27  1  0  0  0  0
 23 24  1  0  0  0  0
 23 45  1  0  0  0  0
 24 25  2  0  0  0  0
 24 46  1  0  0  0  0
 25 26  1  0  0  0  0
 25 47  1  0  0  0  0
 26 27  2  0  0  0  0
 26 48  1  0  0  0  0
 27 49  1  0  0  0  0
 28 29  1  0  0  0  0
 29 30  2  0  0  0  0
 29 50  1  0  0  0  0
 31 32  2  0  0  0  0
 31 51  1  0  0  0  0
 32 52  1  0  0  0  0
M  END
$$$$
