
 OpenBabel01122422533D

 45 48  0  0  0  0  0  0  0  0999 V2000
    1.1027    0.1471   -0.6135 O   0  0  0  0  0  0  0  0  0  0  0  0
    2.2007    0.0130   -0.0828 C   0  0  0  0  0  0  0  0  0  0  0  0
    2.7352   -1.1743    0.3792 N   0  0  0  0  0  0  0  0  0  0  0  0
    2.0982   -2.4358    0.3140 C   0  0  0  0  0  0  0  0  0  0  0  0
    0.9879   -2.7254   -0.4744 C   0  0  0  0  0  0  0  0  0  0  0  0
    0.3892   -3.9896   -0.4054 C   0  0  0  0  0  0  0  0  0  0  0  0
    0.9218   -4.9453    0.4509 C   0  0  0  0  0  0  0  0  0  0  0  0
    0.2564   -6.1764    0.5684 N   0  0  0  0  0  0  0  0  0  0  0  0
    0.6843   -7.2098    1.3804 C   0  0  0  0  0  0  0  0  0  0  0  0
    1.7401   -7.2721    2.0010 O   0  0  0  0  0  0  0  0  0  0  0  0
   -0.2285   -8.3829    1.4908 C   0  0  0  0  0  0  0  0  0  0  0  0
    0.3512   -9.6313    1.7668 C   0  0  0  0  0  0  0  0  0  0  0  0
   -0.4611  -10.7430    1.9558 C   0  0  0  0  0  0  0  0  0  0  0  0
    0.0670  -11.9661    2.2454 O   0  0  0  0  0  0  0  0  0  0  0  0
   -1.8435  -10.6350    1.8716 C   0  0  0  0  0  0  0  0  0  0  0  0
   -2.4267   -9.3960    1.6029 C   0  0  0  0  0  0  0  0  0  0  0  0
   -1.6232   -8.2663    1.4164 C   0  0  0  0  0  0  0  0  0  0  0  0
    2.0202   -4.6964    1.1823 N   0  0  0  0  0  0  0  0  0  0  0  0
    2.5833   -3.4716    1.0997 C   0  0  0  0  0  0  0  0  0  0  0  0
    3.0091    1.2346    0.1335 C   0  0  0  0  0  0  0  0  0  0  0  0
    2.3362    2.4405    0.2490 C   0  0  0  0  0  0  0  0  0  0  0  0
    2.9481    3.6437    0.3400 N   0  0  0  0  0  0  0  0  0  0  0  0
    4.2956    3.6835    0.2978 C   0  0  0  0  0  0  0  0  0  0  0  0
    4.9738    4.9016    0.2867 C   0  0  0  0  0  0  0  0  0  0  0  0
    4.2810    6.0526    0.3088 F   0  0  0  0  0  0  0  0  0  0  0  0
    6.3640    4.9829    0.2266 C   0  0  0  0  0  0  0  0  0  0  0  0
    7.1205    3.8184    0.2098 C   0  0  0  0  0  0  0  0  0  0  0  0
    6.4772    2.5807    0.2163 C   0  0  0  0  0  0  0  0  0  0  0  0
    5.0708    2.5017    0.2317 C   0  0  0  0  0  0  0  0  0  0  0  0
    4.4033    1.2652    0.1464 C   0  0  0  0  0  0  0  0  0  0  0  0
    3.5654   -1.1269    0.9571 H   0  0  0  0  0  0  0  0  0  0  0  0
    0.5598   -1.9923   -1.1513 H   0  0  0  0  0  0  0  0  0  0  0  0
   -0.4885   -4.1915   -1.0101 H   0  0  0  0  0  0  0  0  0  0  0  0
   -0.5729   -6.3040    0.0117 H   0  0  0  0  0  0  0  0  0  0  0  0
    1.4326   -9.7129    1.8457 H   0  0  0  0  0  0  0  0  0  0  0  0
    1.0273  -11.8693    2.3651 H   0  0  0  0  0  0  0  0  0  0  0  0
   -2.4651  -11.5113    2.0358 H   0  0  0  0  0  0  0  0  0  0  0  0
   -3.5100   -9.3098    1.5646 H   0  0  0  0  0  0  0  0  0  0  0  0
   -2.1044   -7.3052    1.2633 H   0  0  0  0  0  0  0  0  0  0  0  0
    3.4512   -3.3484    1.7399 H   0  0  0  0  0  0  0  0  0  0  0  0
    1.2490    2.4837    0.2595 H   0  0  0  0  0  0  0  0  0  0  0  0
    6.8373    5.9594    0.1906 H   0  0  0  0  0  0  0  0  0  0  0  0
    8.2059    3.8741    0.1784 H   0  0  0  0  0  0  0  0  0  0  0  0
    7.0832    1.6767    0.1945 H   0  0  0  0  0  0  0  0  0  0  0  0
    4.9794    0.3527    0.0228 H   0  0  0  0  0  0  0  0  0  0  0  0
  1  2  2  0  0  0  0
  2  3  1  0  0  0  0
  2 20  1  0  0  0  0
  3  4  1  0  0  0  0
  3 31  1  0  0  0  0
  4  5  2  0  0  0  0
  4 19  1  0  0  0  0
  5  6  1  0  0  0  0
  5 32  1  0  0  0  0
  6  7  2  0  0  0  0
  6 33  1  0  0  0  0
  7  8  1  0  0  0  0
  7 18  1  0  0  0  0
  8  9  1  0  0  0  0
  8 34  1  0  0  0  0
  9 10  2  0  0  0  0
  9 11  1  0  0  0  0
 11 12  2  0  0  0  0
 11 17  1  0  0  0  0
 12 13  1  0  0  0  0
 12 35  1  0  0  0  0
 13 14  1  0  0  0  0
 13 15  2  0  0  0  0
 14 36  1  0  0  0  0
 15 16  1  0  0  0  0
 15 37  1  0  0  0  0
 16 17  2  0  0  0  0
 16 38  1  0  0  0  0
 17 39  1  0  0  0  0
 18 19  2  0  0  0  0
 19 40  1  0  0  0  0
 20 21  2  0  0  0  0
 20 30  1  0  0  0  0
 21 22  1  0  0  0  0
 21 41  1  0  0  0  0
 22 23  2  0  0  0  0
 23 24  1  0  0  0  0
 23 29  1  0  0  0  0
 24 25  1  0  0  0  0
 24 26  2  0  0  0  0
 26 27  1  0  0  0  0
 26 42  1  0  0  0  0
 27 28  2  0  0  0  0
 27 43  1  0  0  0  0
 28 29  1  0  0  0  0
 28 44  1  0  0  0  0
 29 30  2  0  0  0  0
 30 45  1  0  0  0  0
M  END
$$$$
