
 OpenBabel01122422533D

 45 48  0  0  0  0  0  0  0  0999 V2000
    1.1081    0.0524   -0.1492 O   0  0  0  0  0  0  0  0  0  0  0  0
    2.3308   -0.0604   -0.1130 C   0  0  0  0  0  0  0  0  0  0  0  0
    3.0327   -1.0456    0.5560 N   0  0  0  0  0  0  0  0  0  0  0  0
    2.4205   -2.0979    1.2991 C   0  0  0  0  0  0  0  0  0  0  0  0
    1.0705   -2.4332    1.2065 C   0  0  0  0  0  0  0  0  0  0  0  0
    0.5344   -3.4460    2.0063 C   0  0  0  0  0  0  0  0  0  0  0  0
    1.3760   -4.1104    2.8754 C   0  0  0  0  0  0  0  0  0  0  0  0
    2.6963   -3.8421    2.9813 N   0  0  0  0  0  0  0  0  0  0  0  0
    3.1820   -2.8499    2.1911 C   0  0  0  0  0  0  0  0  0  0  0  0
    3.1042    1.0034   -0.8049 C   0  0  0  0  0  0  0  0  0  0  0  0
    2.5764    2.2943   -0.7315 C   0  0  0  0  0  0  0  0  0  0  0  0
    3.0849    3.3213   -1.5258 C   0  0  0  0  0  0  0  0  0  0  0  0
    4.1228    3.0852   -2.4273 C   0  0  0  0  0  0  0  0  0  0  0  0
    4.5952    4.0791   -3.3282 N   0  0  0  0  0  0  0  0  0  0  0  0
    4.0233    5.3337   -3.5152 C   0  0  0  0  0  0  0  0  0  0  0  0
    2.9898    5.7493   -2.9995 O   0  0  0  0  0  0  0  0  0  0  0  0
    4.7614    6.3029   -4.3679 C   0  0  0  0  0  0  0  0  0  0  0  0
    5.4842    5.9386   -5.5133 C   0  0  0  0  0  0  0  0  0  0  0  0
    6.2632    6.9022   -6.1726 C   0  0  0  0  0  0  0  0  0  0  0  0
    6.2982    8.2180   -5.6862 C   0  0  0  0  0  0  0  0  0  0  0  0
    7.2151    9.1339   -6.2226 N   0  0  0  0  0  0  0  0  0  0  0  0
    8.1430    8.7952   -7.1676 C   0  0  0  0  0  0  0  0  0  0  0  0
    9.0517    9.5447   -7.5033 O   0  0  0  0  0  0  0  0  0  0  0  0
    7.9871    7.4568   -7.7915 C   0  0  0  0  0  0  0  0  0  0  0  0
    7.0882    6.5713   -7.3369 C   0  0  0  0  0  0  0  0  0  0  0  0
    5.4902    8.5930   -4.6198 C   0  0  0  0  0  0  0  0  0  0  0  0
    5.4941    9.8609   -4.1842 F   0  0  0  0  0  0  0  0  0  0  0  0
    4.7238    7.6468   -3.9595 C   0  0  0  0  0  0  0  0  0  0  0  0
    4.7065    1.8056   -2.4416 C   0  0  0  0  0  0  0  0  0  0  0  0
    4.1996    0.7613   -1.6379 C   0  0  0  0  0  0  0  0  0  0  0  0
    4.0305   -0.9311    0.6580 H   0  0  0  0  0  0  0  0  0  0  0  0
    0.3966   -1.9344    0.5163 H   0  0  0  0  0  0  0  0  0  0  0  0
   -0.5200   -3.6964    1.9456 H   0  0  0  0  0  0  0  0  0  0  0  0
    0.9997   -4.8913    3.5277 H   0  0  0  0  0  0  0  0  0  0  0  0
    4.2462   -2.6607    2.3283 H   0  0  0  0  0  0  0  0  0  0  0  0
    1.7228    2.5031   -0.0864 H   0  0  0  0  0  0  0  0  0  0  0  0
    2.6122    4.2920   -1.4241 H   0  0  0  0  0  0  0  0  0  0  0  0
    5.4164    3.8395   -3.8669 H   0  0  0  0  0  0  0  0  0  0  0  0
    5.4524    4.9187   -5.8857 H   0  0  0  0  0  0  0  0  0  0  0  0
    7.2996   10.0538   -5.8053 H   0  0  0  0  0  0  0  0  0  0  0  0
    8.6389    7.2489   -8.6310 H   0  0  0  0  0  0  0  0  0  0  0  0
    6.9652    5.6080   -7.8187 H   0  0  0  0  0  0  0  0  0  0  0  0
    4.1309    7.9541   -3.1010 H   0  0  0  0  0  0  0  0  0  0  0  0
    5.5299    1.5831   -3.1181 H   0  0  0  0  0  0  0  0  0  0  0  0
    4.6167   -0.2370   -1.7306 H   0  0  0  0  0  0  0  0  0  0  0  0
  1  2  2  0  0  0  0
  2  3  1  0  0  0  0
  2 10  1  0  0  0  0
  3  4  1  0  0  0  0
  3 31  1  0  0  0  0
  4  5  2  0  0  0  0
  4  9  1  0  0  0  0
  5  6  1  0  0  0  0
  5 32  1  0  0  0  0
  6  7  2  0  0  0  0
  6 33  1  0  0  0  0
  7  8  1  0  0  0  0
  7 34  1  0  0  0  0
  8  9  2  0  0  0  0
  9 35  1  0  0  0  0
 10 11  2  0  0  0  0
 10 30  1  0  0  0  0
 11 12  1  0  0  0  0
 11 36  1  0  0  0  0
 12 13  2  0  0  0  0
 12 37  1  0  0  0  0
 13 14  1  0  0  0  0
 13 29  1  0  0  0  0
 14 15  1  0  0  0  0
 14 38  1  0  0  0  0
 15 16  2  0  0  0  0
 15 17  1  0  0  0  0
 17 18  2  0  0  0  0
 17 28  1  0  0  0  0
 18 19  1  0  0  0  0
 18 39  1  0  0  0  0
 19 20  2  0  0  0  0
 19 25  1  0  0  0  0
 20 21  1  0  0  0  0
 20 26  1  0  0  0  0
 21 22  1  0  0  0  0
 21 40  1  0  0  0  0
 22 23  2  0  0  0  0
 22 24  1  0  0  0  0
 24 25  2  0  0  0  0
 24 41  1  0  0  0  0
 25 42  1  0  0  0  0
 26 27  1  0  0  0  0
 26 28  2  0  0  0  0
 28 43  1  0  0  0  0
 29 30  2  0  0  0  0
 29 44  1  0  0  0  0
 30 45  1  0  0  0  0
M  END
$$$$
