
 OpenBabel01122422533D

 44 47  0  0  0  0  0  0  0  0999 V2000
    0.8530    0.2450   -0.0879 O   0  0  0  0  0  0  0  0  0  0  0  0
    2.0770    0.1489   -0.0180 C   0  0  0  0  0  0  0  0  0  0  0  0
    2.7697   -0.4365    1.0240 N   0  0  0  0  0  0  0  0  0  0  0  0
    2.1557   -1.1450    2.0874 C   0  0  0  0  0  0  0  0  0  0  0  0
    0.8410   -1.6104    2.0203 C   0  0  0  0  0  0  0  0  0  0  0  0
    0.2415   -2.2516    3.1064 C   0  0  0  0  0  0  0  0  0  0  0  0
    0.9487   -2.4632    4.2924 C   0  0  0  0  0  0  0  0  0  0  0  0
    0.2616   -3.0656    5.4371 C   0  0  0  0  0  0  0  0  0  0  0  0
   -0.7419   -3.9594    5.4368 C   0  0  0  0  0  0  0  0  0  0  0  0
   -1.1317   -4.1901    6.7325 N   0  0  0  0  0  0  0  0  0  0  0  0
   -0.3498   -3.4101    7.5919 C   0  0  0  0  0  0  0  0  0  0  0  0
   -0.4283   -3.3317    8.8022 O   0  0  0  0  0  0  0  0  0  0  0  0
    0.5316   -2.7299    6.7439 N   0  0  0  0  0  0  0  0  0  0  0  0
    2.2834   -2.0416    4.3488 C   0  0  0  0  0  0  0  0  0  0  0  0
    2.8885   -1.3995    3.2527 C   0  0  0  0  0  0  0  0  0  0  0  0
    2.9079    0.7496   -1.1135 C   0  0  0  0  0  0  0  0  0  0  0  0
    2.2881    1.6870   -1.8534 C   0  0  0  0  0  0  0  0  0  0  0  0
    2.8630    2.2539   -2.9863 N   0  0  0  0  0  0  0  0  0  0  0  0
    2.0994    3.1383   -3.8194 C   0  0  0  0  0  0  0  0  0  0  0  0
    2.6657    4.3125   -4.3316 C   0  0  0  0  0  0  0  0  0  0  0  0
    1.9241    5.1526   -5.1700 C   0  0  0  0  0  0  0  0  0  0  0  0
    0.6184    4.8166   -5.5277 C   0  0  0  0  0  0  0  0  0  0  0  0
    0.0412    3.6542   -5.0247 C   0  0  0  0  0  0  0  0  0  0  0  0
    0.7722    2.8362   -4.1659 C   0  0  0  0  0  0  0  0  0  0  0  0
    0.1928    1.7040   -3.7372 F   0  0  0  0  0  0  0  0  0  0  0  0
    4.1396    1.8570   -3.4189 C   0  0  0  0  0  0  0  0  0  0  0  0
    4.7274    2.2516   -4.4236 O   0  0  0  0  0  0  0  0  0  0  0  0
    4.8030    0.7987   -2.5979 C   0  0  0  0  0  0  0  0  0  0  0  0
    4.2105    0.2839   -1.5133 C   0  0  0  0  0  0  0  0  0  0  0  0
    3.7580   -0.2451    1.1121 H   0  0  0  0  0  0  0  0  0  0  0  0
    0.2351   -1.4907    1.1268 H   0  0  0  0  0  0  0  0  0  0  0  0
   -0.7971   -2.5538    3.0061 H   0  0  0  0  0  0  0  0  0  0  0  0
   -1.2383   -4.4397    4.6065 H   0  0  0  0  0  0  0  0  0  0  0  0
   -1.8824   -4.7850    7.0480 H   0  0  0  0  0  0  0  0  0  0  0  0
    1.1897   -2.0420    7.0678 H   0  0  0  0  0  0  0  0  0  0  0  0
    2.8722   -2.2051    5.2484 H   0  0  0  0  0  0  0  0  0  0  0  0
    3.9220   -1.0761    3.3431 H   0  0  0  0  0  0  0  0  0  0  0  0
    1.2910    2.0416   -1.5954 H   0  0  0  0  0  0  0  0  0  0  0  0
    3.6826    4.5953   -4.0692 H   0  0  0  0  0  0  0  0  0  0  0  0
    2.3739    6.0655   -5.5535 H   0  0  0  0  0  0  0  0  0  0  0  0
    0.0559    5.4548   -6.2044 H   0  0  0  0  0  0  0  0  0  0  0  0
   -0.9661    3.3649   -5.3080 H   0  0  0  0  0  0  0  0  0  0  0  0
    5.7601    0.4488   -2.9656 H   0  0  0  0  0  0  0  0  0  0  0  0
    4.6874   -0.5226   -0.9672 H   0  0  0  0  0  0  0  0  0  0  0  0
  1  2  2  0  0  0  0
  2  3  1  0  0  0  0
  2 16  1  0  0  0  0
  3  4  1  0  0  0  0
  3 30  1  0  0  0  0
  4  5  2  0  0  0  0
  4 15  1  0  0  0  0
  5  6  1  0  0  0  0
  5 31  1  0  0  0  0
  6  7  2  0  0  0  0
  6 32  1  0  0  0  0
  7  8  1  0  0  0  0
  7 14  1  0  0  0  0
  8  9  2  0  0  0  0
  8 13  1  0  0  0  0
  9 10  1  0  0  0  0
  9 33  1  0  0  0  0
 10 11  1  0  0  0  0
 10 34  1  0  0  0  0
 11 12  2  0  0  0  0
 11 13  1  0  0  0  0
 13 35  1  0  0  0  0
 14 15  2  0  0  0  0
 14 36  1  0  0  0  0
 15 37  1  0  0  0  0
 16 17  2  0  0  0  0
 16 29  1  0  0  0  0
 17 18  1  0  0  0  0
 17 38  1  0  0  0  0
 18 19  1  0  0  0  0
 18 26  1  0  0  0  0
 19 20  2  0  0  0  0
 19 24  1  0  0  0  0
 20 21  1  0  0  0  0
 20 39  1  0  0  0  0
 21 22  2  0  0  0  0
 21 40  1  0  0  0  0
 22 23  1  0  0  0  0
 22 41  1  0  0  0  0
 23 24  2  0  0  0  0
 23 42  1  0  0  0  0
 24 25  1  0  0  0  0
 26 27  2  0  0  0  0
 26 28  1  0  0  0  0
 28 29  2  0  0  0  0
 28 43  1  0  0  0  0
 29 44  1  0  0  0  0
M  END
$$$$
