
 OpenBabel01122422533D

 46 49  0  0  0  0  0  0  0  0999 V2000
    7.2571   -3.7478    0.0119 C   0  0  0  0  0  0  0  0  0  0  0  0
    6.6304   -2.4653   -0.2284 N   0  0  0  0  0  0  0  0  0  0  0  0
    5.3017   -2.3876   -0.5663 C   0  0  0  0  0  0  0  0  0  0  0  0
    4.6515   -1.2892   -0.7546 N   0  0  0  0  0  0  0  0  0  0  0  0
    5.3491   -0.0854   -0.5950 C   0  0  0  0  0  0  0  0  0  0  0  0
    4.6582    1.1178   -0.7351 C   0  0  0  0  0  0  0  0  0  0  0  0
    5.3239    2.3368   -0.5789 C   0  0  0  0  0  0  0  0  0  0  0  0
    6.6978    2.3639   -0.2972 C   0  0  0  0  0  0  0  0  0  0  0  0
    7.3581    3.6807   -0.1140 C   0  0  0  0  0  0  0  0  0  0  0  0
    6.6777    4.6007    0.3264 O   0  0  0  0  0  0  0  0  0  0  0  0
    8.6801    3.7602   -0.5305 N   0  0  0  0  0  0  0  0  0  0  0  0
    9.4792    4.9205   -0.4434 C   0  0  0  0  0  0  0  0  0  0  0  0
    9.1828    5.9659    0.4302 C   0  0  0  0  0  0  0  0  0  0  0  0
    9.9326    7.1396    0.4148 C   0  0  0  0  0  0  0  0  0  0  0  0
   10.9531    7.3117   -0.5241 C   0  0  0  0  0  0  0  0  0  0  0  0
   11.6159    8.5142   -0.6702 O   0  0  0  0  0  0  0  0  0  0  0  0
   10.8901    9.6834   -0.5459 C   0  0  0  0  0  0  0  0  0  0  0  0
   11.5618   10.7777    0.0002 C   0  0  0  0  0  0  0  0  0  0  0  0
   10.8794   11.9763    0.2218 C   0  0  0  0  0  0  0  0  0  0  0  0
    9.5269   12.0827   -0.1038 C   0  0  0  0  0  0  0  0  0  0  0  0
    8.8665   11.0078   -0.6948 C   0  0  0  0  0  0  0  0  0  0  0  0
    9.5550    9.8209   -0.9459 C   0  0  0  0  0  0  0  0  0  0  0  0
   11.3292    6.2315   -1.3306 C   0  0  0  0  0  0  0  0  0  0  0  0
   12.4286    6.3385   -2.2484 C   0  0  0  0  0  0  0  0  0  0  0  0
   13.3115    6.3829   -3.0001 N   0  0  0  0  0  0  0  0  0  0  0  0
   10.6007    5.0287   -1.2736 C   0  0  0  0  0  0  0  0  0  0  0  0
    7.3971    1.1676   -0.1388 C   0  0  0  0  0  0  0  0  0  0  0  0
    6.7114   -0.0439   -0.2869 C   0  0  0  0  0  0  0  0  0  0  0  0
    7.4083   -1.3266   -0.0923 C   0  0  0  0  0  0  0  0  0  0  0  0
    8.6076   -1.3354    0.1726 O   0  0  0  0  0  0  0  0  0  0  0  0
    6.5541   -4.5716   -0.1349 H   0  0  0  0  0  0  0  0  0  0  0  0
    7.6302   -3.7675    1.0412 H   0  0  0  0  0  0  0  0  0  0  0  0
    8.1077   -3.8642   -0.6667 H   0  0  0  0  0  0  0  0  0  0  0  0
    4.7917   -3.3573   -0.6783 H   0  0  0  0  0  0  0  0  0  0  0  0
    3.5928    1.1065   -0.9543 H   0  0  0  0  0  0  0  0  0  0  0  0
    4.7662    3.2677   -0.6724 H   0  0  0  0  0  0  0  0  0  0  0  0
    9.0365    3.0031   -1.1011 H   0  0  0  0  0  0  0  0  0  0  0  0
    8.3600    5.9018    1.1371 H   0  0  0  0  0  0  0  0  0  0  0  0
    9.6650    7.9345    1.1072 H   0  0  0  0  0  0  0  0  0  0  0  0
   12.6116   10.6955    0.2684 H   0  0  0  0  0  0  0  0  0  0  0  0
   11.3994   12.8248    0.6588 H   0  0  0  0  0  0  0  0  0  0  0  0
    8.9885   13.0057    0.0958 H   0  0  0  0  0  0  0  0  0  0  0  0
    7.8140   11.0880   -0.9545 H   0  0  0  0  0  0  0  0  0  0  0  0
    9.0239    9.0017   -1.4229 H   0  0  0  0  0  0  0  0  0  0  0  0
   10.8848    4.2040   -1.9247 H   0  0  0  0  0  0  0  0  0  0  0  0
    8.4484    1.1583    0.1372 H   0  0  0  0  0  0  0  0  0  0  0  0
  1  2  1  0  0  0  0
  1 31  1  0  0  0  0
  1 32  1  0  0  0  0
  1 33  1  0  0  0  0
  2  3  1  0  0  0  0
  2 29  1  0  0  0  0
  3  4  2  0  0  0  0
  3 34  1  0  0  0  0
  4  5  1  0  0  0  0
  5  6  2  0  0  0  0
  5 28  1  0  0  0  0
  6  7  1  0  0  0  0
  6 35  1  0  0  0  0
  7  8  2  0  0  0  0
  7 36  1  0  0  0  0
  8  9  1  0  0  0  0
  8 27  1  0  0  0  0
  9 10  2  0  0  0  0
  9 11  1  0  0  0  0
 11 12  1  0  0  0  0
 11 37  1  0  0  0  0
 12 13  2  0  0  0  0
 12 26  1  0  0  0  0
 13 14  1  0  0  0  0
 13 38  1  0  0  0  0
 14 15  2  0  0  0  0
 14 39  1  0  0  0  0
 15 16  1  0  0  0  0
 15 23  1  0  0  0  0
 16 17  1  0  0  0  0
 17 18  2  0  0  0  0
 17 22  1  0  0  0  0
 18 19  1  0  0  0  0
 18 40  1  0  0  0  0
 19 20  2  0  0  0  0
 19 41  1  0  0  0  0
 20 21  1  0  0  0  0
 20 42  1  0  0  0  0
 21 22  2  0  0  0  0
 21 43  1  0  0  0  0
 22 44  1  0  0  0  0
 23 24  1  0  0  0  0
 23 26  2  0  0  0  0
 24 25  3  0  0  0  0
 26 45  1  0  0  0  0
 27 28  2  0  0  0  0
 27 46  1  0  0  0  0
 28 29  1  0  0  0  0
 29 30  2  0  0  0  0
M  END
$$$$
