
 OpenBabel01122422463D

 59 62  0  0  1  0  0  0  0  0999 V2000
    0.9904    0.0231   -0.0715 C   0  0  0  0  0  0  0  0  0  0  0  0
    2.3523   -0.2521    0.2078 O   0  0  0  0  0  0  0  0  0  0  0  0
    3.0613    0.6798    0.9226 C   0  0  0  0  0  0  0  0  0  0  0  0
    2.4670    1.6624    1.7145 C   0  0  0  0  0  0  0  0  0  0  0  0
    3.2375    2.4447    2.5785 C   0  0  0  0  0  0  0  0  0  0  0  0
    4.6056    2.2083    2.7176 C   0  0  0  0  0  0  0  0  0  0  0  0
    5.3897    2.8801    3.8200 C   0  0  0  0  0  0  0  0  0  0  0  0
    4.8091    2.5790    5.2465 C   0  0  3  0  0  0  0  0  0  0  0  0
    4.8785    1.1460    5.5275 N   0  0  0  0  0  0  0  0  0  0  0  0
    4.0169    0.4856    6.3846 C   0  0  0  0  0  0  0  0  0  0  0  0
    3.0486    0.9947    6.9318 O   0  0  0  0  0  0  0  0  0  0  0  0
    4.3187   -0.9584    6.5897 C   0  0  0  0  0  0  0  0  0  0  0  0
    5.5993   -1.4346    6.2542 C   0  0  0  0  0  0  0  0  0  0  0  0
    5.8192   -2.7957    6.1349 C   0  0  0  0  0  0  0  0  0  0  0  0
    4.7921   -3.6416    6.4910 C   0  0  0  0  0  0  0  0  0  0  0  0
    4.9934   -5.0818    6.4848 C   0  0  0  0  0  0  0  0  0  0  0  0
    5.2399   -5.6951    5.4681 O   0  0  0  0  0  0  0  0  0  0  0  0
    4.9334   -5.5525    7.7670 N   0  0  0  0  0  0  0  0  0  0  0  0
    6.1837   -6.0949    8.2477 C   0  0  0  0  0  0  0  0  0  0  0  0
    3.9182   -5.1350    8.6218 C   0  0  0  0  0  0  0  0  0  0  0  0
    3.7457   -5.5756    9.7526 O   0  0  0  0  0  0  0  0  0  0  0  0
    3.1269   -4.0861    8.1363 N   0  0  0  0  0  0  0  0  0  0  0  0
    3.6898   -3.1856    7.1958 C   0  0  0  0  0  0  0  0  0  0  0  0
    3.3635   -1.8354    7.1288 C   0  0  0  0  0  0  0  0  0  0  0  0
    5.5173    3.3352    6.3631 C   0  0  0  0  0  0  0  0  0  0  0  0
    4.7787    3.6367    7.5253 C   0  0  0  0  0  0  0  0  0  0  0  0
    5.3646    4.3079    8.5994 C   0  0  0  0  0  0  0  0  0  0  0  0
    6.6940    4.6939    8.5305 C   0  0  0  0  0  0  0  0  0  0  0  0
    7.4483    4.3967    7.3956 C   0  0  0  0  0  0  0  0  0  0  0  0
    6.8657    3.7135    6.3204 C   0  0  0  0  0  0  0  0  0  0  0  0
    5.2211    1.3022    1.8364 C   0  0  0  0  0  0  0  0  0  0  0  0
    4.4629    0.5574    0.9183 C   0  0  0  0  0  0  0  0  0  0  0  0
    5.1982   -0.2657    0.1024 O   0  0  0  0  0  0  0  0  0  0  0  0
    4.6395   -0.5180   -1.1805 C   0  0  0  0  0  0  0  0  0  0  0  0
    0.6010   -0.8187   -0.6517 H   0  0  0  0  0  0  0  0  0  0  0  0
    0.9032    0.9261   -0.6839 H   0  0  0  0  0  0  0  0  0  0  0  0
    0.3888    0.0961    0.8397 H   0  0  0  0  0  0  0  0  0  0  0  0
    1.3944    1.8282    1.7180 H   0  0  0  0  0  0  0  0  0  0  0  0
    2.7408    3.1898    3.1934 H   0  0  0  0  0  0  0  0  0  0  0  0
    5.3914    3.9643    3.6398 H   0  0  0  0  0  0  0  0  0  0  0  0
    6.4306    2.5461    3.7604 H   0  0  0  0  0  0  0  0  0  0  0  0
    3.7643    2.8650    5.2641 H   0  0  0  0  0  0  0  0  0  0  0  0
    5.5467    0.6239    4.9895 H   0  0  0  0  0  0  0  0  0  0  0  0
    6.4351   -0.7631    6.0870 H   0  0  0  0  0  0  0  0  0  0  0  0
    6.7944   -3.1854    5.8529 H   0  0  0  0  0  0  0  0  0  0  0  0
    6.9674   -5.3638    8.0087 H   0  0  0  0  0  0  0  0  0  0  0  0
    6.4311   -7.0127    7.7091 H   0  0  0  0  0  0  0  0  0  0  0  0
    6.1866   -6.2427    9.3321 H   0  0  0  0  0  0  0  0  0  0  0  0
    2.4307   -3.7457    8.7919 H   0  0  0  0  0  0  0  0  0  0  0  0
    2.4288   -1.4545    7.5380 H   0  0  0  0  0  0  0  0  0  0  0  0
    3.7362    3.3351    7.6017 H   0  0  0  0  0  0  0  0  0  0  0  0
    4.7736    4.5178    9.4875 H   0  0  0  0  0  0  0  0  0  0  0  0
    7.1539    5.2146    9.3654 H   0  0  0  0  0  0  0  0  0  0  0  0
    8.4906    4.6949    7.3442 H   0  0  0  0  0  0  0  0  0  0  0  0
    7.4902    3.4883    5.4626 H   0  0  0  0  0  0  0  0  0  0  0  0
    6.2967    1.1461    1.8651 H   0  0  0  0  0  0  0  0  0  0  0  0
    5.4692   -0.7014   -1.8840 H   0  0  0  0  0  0  0  0  0  0  0  0
    4.0718    0.3296   -1.5811 H   0  0  0  0  0  0  0  0  0  0  0  0
    4.0305   -1.4256   -1.1572 H   0  0  0  0  0  0  0  0  0  0  0  0
  1  2  1  0  0  0  0
  1 35  1  0  0  0  0
  1 36  1  0  0  0  0
  1 37  1  0  0  0  0
  2  3  1  0  0  0  0
  3  4  2  0  0  0  0
  3 32  1  0  0  0  0
  4  5  1  0  0  0  0
  4 38  1  0  0  0  0
  5  6  2  0  0  0  0
  5 39  1  0  0  0  0
  6  7  1  0  0  0  0
  6 31  1  0  0  0  0
  7  8  1  0  0  0  0
  7 40  1  0  0  0  0
  7 41  1  0  0  0  0
  8  9  1  0  0  0  0
  8 25  1  0  0  0  0
  8 42  1  0  0  0  0
  9 10  1  0  0  0  0
  9 43  1  0  0  0  0
 10 11  2  0  0  0  0
 10 12  1  0  0  0  0
 12 13  2  0  0  0  0
 12 24  1  0  0  0  0
 13 14  1  0  0  0  0
 13 44  1  0  0  0  0
 14 15  2  0  0  0  0
 14 45  1  0  0  0  0
 15 16  1  0  0  0  0
 15 23  1  0  0  0  0
 16 17  2  0  0  0  0
 16 18  1  0  0  0  0
 18 19  1  0  0  0  0
 18 20  1  0  0  0  0
 19 46  1  0  0  0  0
 19 47  1  0  0  0  0
 19 48  1  0  0  0  0
 20 21  2  0  0  0  0
 20 22  1  0  0  0  0
 22 23  1  0  0  0  0
 22 49  1  0  0  0  0
 23 24  2  0  0  0  0
 24 50  1  0  0  0  0
 25 26  2  0  0  0  0
 25 30  1  0  0  0  0
 26 27  1  0  0  0  0
 26 51  1  0  0  0  0
 27 28  2  0  0  0  0
 27 52  1  0  0  0  0
 28 29  1  0  0  0  0
 28 53  1  0  0  0  0
 29 30  2  0  0  0  0
 29 54  1  0  0  0  0
 30 55  1  0  0  0  0
 31 32  2  0  0  0  0
 31 56  1  0  0  0  0
 32 33  1  0  0  0  0
 33 34  1  0  0  0  0
 34 57  1  0  0  0  0
 34 58  1  0  0  0  0
 34 59  1  0  0  0  0
M  END
$$$$
