
 OpenBabel01122422533D

 50 53  0  0  0  0  0  0  0  0999 V2000
    1.8463    1.5705   -0.0489 C   0  0  0  0  0  0  0  0  0  0  0  0
    0.5823    0.7555   -0.0550 C   0  0  0  0  0  0  0  0  0  0  0  0
   -0.6054    1.3210   -0.5441 C   0  0  0  0  0  0  0  0  0  0  0  0
   -1.8037    0.6003   -0.5270 C   0  0  0  0  0  0  0  0  0  0  0  0
   -1.8307   -0.7128   -0.0484 C   0  0  0  0  0  0  0  0  0  0  0  0
   -3.1397   -1.4515   -0.0147 C   0  0  0  0  0  0  0  0  0  0  0  0
   -3.9683   -1.1971   -0.9857 N   0  0  0  0  0  0  0  0  0  0  0  0
   -5.1594   -1.8754   -1.0808 N   0  0  0  0  0  0  0  0  0  0  0  0
   -5.9197   -1.6607   -2.3071 C   0  0  0  0  0  0  0  0  0  0  0  0
   -6.9924   -0.6037   -2.2289 C   0  0  0  0  0  0  0  0  0  0  0  0
   -8.2822   -0.9132   -1.7716 C   0  0  0  0  0  0  0  0  0  0  0  0
   -9.3194    0.0185   -1.8934 C   0  0  0  0  0  0  0  0  0  0  0  0
   -9.0702    1.2731   -2.4626 C   0  0  0  0  0  0  0  0  0  0  0  0
  -10.1598    2.2430   -2.7378 C   0  0  0  0  0  0  0  0  0  0  0  0
  -11.3926    1.7213   -3.0231 N   0  0  0  0  0  0  0  0  0  0  0  0
   -9.9574    3.4481   -2.7830 O   0  0  0  0  0  0  0  0  0  0  0  0
   -7.7673    1.6236   -2.8283 C   0  0  0  0  0  0  0  0  0  0  0  0
   -6.7471    0.6844   -2.7122 C   0  0  0  0  0  0  0  0  0  0  0  0
   -5.5222    1.0180   -3.1432 F   0  0  0  0  0  0  0  0  0  0  0  0
   -5.5350   -2.9027   -0.2251 C   0  0  0  0  0  0  0  0  0  0  0  0
   -6.5661   -3.5618   -0.3484 O   0  0  0  0  0  0  0  0  0  0  0  0
   -4.6137   -3.2034    0.8845 C   0  0  0  0  0  0  0  0  0  0  0  0
   -4.9167   -4.2491    1.7721 C   0  0  0  0  0  0  0  0  0  0  0  0
   -4.0635   -4.5361    2.8353 C   0  0  0  0  0  0  0  0  0  0  0  0
   -2.9455   -3.7390    3.0505 C   0  0  0  0  0  0  0  0  0  0  0  0
   -2.6666   -2.6765    2.1864 C   0  0  0  0  0  0  0  0  0  0  0  0
   -3.4576   -2.4467    1.0491 C   0  0  0  0  0  0  0  0  0  0  0  0
   -0.6259   -1.3094    0.3408 C   0  0  0  0  0  0  0  0  0  0  0  0
    0.5662   -0.5705    0.4144 C   0  0  0  0  0  0  0  0  0  0  0  0
    1.7874   -1.2111    1.0152 C   0  0  0  0  0  0  0  0  0  0  0  0
    1.6940    2.5554   -0.5024 H   0  0  0  0  0  0  0  0  0  0  0  0
    2.6283    1.0631   -0.6236 H   0  0  0  0  0  0  0  0  0  0  0  0
    2.1924    1.7261    0.9776 H   0  0  0  0  0  0  0  0  0  0  0  0
   -0.6107    2.3359   -0.9373 H   0  0  0  0  0  0  0  0  0  0  0  0
   -2.7127    1.0698   -0.8990 H   0  0  0  0  0  0  0  0  0  0  0  0
   -6.3878   -2.6063   -2.6109 H   0  0  0  0  0  0  0  0  0  0  0  0
   -5.2133   -1.4218   -3.1123 H   0  0  0  0  0  0  0  0  0  0  0  0
   -8.4939   -1.8975   -1.3548 H   0  0  0  0  0  0  0  0  0  0  0  0
  -10.3147   -0.2500   -1.5501 H   0  0  0  0  0  0  0  0  0  0  0  0
  -11.5243    0.7463   -3.2522 H   0  0  0  0  0  0  0  0  0  0  0  0
  -12.0850    2.3767   -3.3644 H   0  0  0  0  0  0  0  0  0  0  0  0
   -7.5503    2.6006   -3.2473 H   0  0  0  0  0  0  0  0  0  0  0  0
   -5.8144   -4.8474    1.6287 H   0  0  0  0  0  0  0  0  0  0  0  0
   -4.2815   -5.3657    3.5034 H   0  0  0  0  0  0  0  0  0  0  0  0
   -2.2848   -3.9421    3.8910 H   0  0  0  0  0  0  0  0  0  0  0  0
   -1.8144   -2.0510    2.4299 H   0  0  0  0  0  0  0  0  0  0  0  0
   -0.5975   -2.3631    0.6049 H   0  0  0  0  0  0  0  0  0  0  0  0
    1.5639   -2.2101    1.4061 H   0  0  0  0  0  0  0  0  0  0  0  0
    2.1458   -0.6135    1.8613 H   0  0  0  0  0  0  0  0  0  0  0  0
    2.5800   -1.3077    0.2693 H   0  0  0  0  0  0  0  0  0  0  0  0
  1  2  1  0  0  0  0
  1 31  1  0  0  0  0
  1 32  1  0  0  0  0
  1 33  1  0  0  0  0
  2  3  2  0  0  0  0
  2 29  1  0  0  0  0
  3  4  1  0  0  0  0
  3 34  1  0  0  0  0
  4  5  2  0  0  0  0
  4 35  1  0  0  0  0
  5  6  1  0  0  0  0
  5 28  1  0  0  0  0
  6  7  2  0  0  0  0
  6 27  1  0  0  0  0
  7  8  1  0  0  0  0
  8  9  1  0  0  0  0
  8 20  1  0  0  0  0
  9 10  1  0  0  0  0
  9 36  1  0  0  0  0
  9 37  1  0  0  0  0
 10 11  2  0  0  0  0
 10 18  1  0  0  0  0
 11 12  1  0  0  0  0
 11 38  1  0  0  0  0
 12 13  2  0  0  0  0
 12 39  1  0  0  0  0
 13 14  1  0  0  0  0
 13 17  1  0  0  0  0
 14 15  1  0  0  0  0
 14 16  2  0  0  0  0
 15 40  1  0  0  0  0
 15 41  1  0  0  0  0
 17 18  2  0  0  0  0
 17 42  1  0  0  0  0
 18 19  1  0  0  0  0
 20 21  2  0  0  0  0
 20 22  1  0  0  0  0
 22 23  2  0  0  0  0
 22 27  1  0  0  0  0
 23 24  1  0  0  0  0
 23 43  1  0  0  0  0
 24 25  2  0  0  0  0
 24 44  1  0  0  0  0
 25 26  1  0  0  0  0
 25 45  1  0  0  0  0
 26 27  2  0  0  0  0
 26 46  1  0  0  0  0
 28 29  2  0  0  0  0
 28 47  1  0  0  0  0
 29 30  1  0  0  0  0
 30 48  1  0  0  0  0
 30 49  1  0  0  0  0
 30 50  1  0  0  0  0
M  END
$$$$
