
 OpenBabel01122422533D

 48 51  0  0  0  0  0  0  0  0999 V2000
   -0.0994   -0.6568   -0.7561 O   0  0  0  0  0  0  0  0  0  0  0  0
    0.0655   -0.4850   -1.9584 C   0  0  0  0  0  0  0  0  0  0  0  0
    1.2536   -0.7165   -2.6184 N   0  0  0  0  0  0  0  0  0  0  0  0
    2.4435   -1.2166   -1.9808 C   0  0  0  0  0  0  0  0  0  0  0  0
    3.3891   -1.7748   -3.0114 C   0  0  0  0  0  0  0  0  0  0  0  0
    4.2253   -0.9073   -3.7199 C   0  0  0  0  0  0  0  0  0  0  0  0
    5.1028   -1.3940   -4.6900 C   0  0  0  0  0  0  0  0  0  0  0  0
    5.1678   -2.7564   -4.9842 C   0  0  0  0  0  0  0  0  0  0  0  0
    6.0735   -3.3043   -5.9187 N   0  0  0  0  0  0  0  0  0  0  0  0
    7.0167   -2.6196   -6.6628 C   0  0  0  0  0  0  0  0  0  0  0  0
    7.1586   -1.3985   -6.6821 O   0  0  0  0  0  0  0  0  0  0  0  0
    7.9603   -3.4323   -7.4963 C   0  0  0  0  0  0  0  0  0  0  0  0
    8.9212   -2.7178   -8.2380 C   0  0  0  0  0  0  0  0  0  0  0  0
    9.8849   -3.3790   -8.9993 C   0  0  0  0  0  0  0  0  0  0  0  0
    9.9020   -4.7690   -9.0314 C   0  0  0  0  0  0  0  0  0  0  0  0
    8.9464   -5.4964   -8.3193 C   0  0  0  0  0  0  0  0  0  0  0  0
    7.9760   -4.8325   -7.5593 C   0  0  0  0  0  0  0  0  0  0  0  0
    7.0480   -5.5786   -6.8790 O   0  0  0  0  0  0  0  0  0  0  0  0
    4.3072   -3.6255   -4.3030 C   0  0  0  0  0  0  0  0  0  0  0  0
    3.4199   -3.1392   -3.3287 C   0  0  0  0  0  0  0  0  0  0  0  0
   -1.0413   -0.0363   -2.8503 C   0  0  0  0  0  0  0  0  0  0  0  0
   -2.3091    0.2328   -2.3704 C   0  0  0  0  0  0  0  0  0  0  0  0
   -3.3206    0.4917   -3.3027 C   0  0  0  0  0  0  0  0  0  0  0  0
   -4.6529    0.7236   -2.9152 C   0  0  0  0  0  0  0  0  0  0  0  0
   -5.6475    0.8993   -3.8790 C   0  0  0  0  0  0  0  0  0  0  0  0
   -5.3172    0.8595   -5.2292 C   0  0  0  0  0  0  0  0  0  0  0  0
   -3.9901    0.6652   -5.6111 C   0  0  0  0  0  0  0  0  0  0  0  0
   -2.9850    0.4807   -4.6718 C   0  0  0  0  0  0  0  0  0  0  0  0
   -1.7238    0.2708   -5.0776 N   0  0  0  0  0  0  0  0  0  0  0  0
   -0.7411    0.0061   -4.1704 N   0  0  0  0  0  0  0  0  0  0  0  0
    1.2914   -0.4837   -3.6071 H   0  0  0  0  0  0  0  0  0  0  0  0
    2.1797   -1.9680   -1.2290 H   0  0  0  0  0  0  0  0  0  0  0  0
    2.9149   -0.3811   -1.4493 H   0  0  0  0  0  0  0  0  0  0  0  0
    4.2070    0.1615   -3.5228 H   0  0  0  0  0  0  0  0  0  0  0  0
    5.7306   -0.6688   -5.1940 H   0  0  0  0  0  0  0  0  0  0  0  0
    6.0717   -4.3158   -6.0307 H   0  0  0  0  0  0  0  0  0  0  0  0
    8.9288   -1.6283   -8.2175 H   0  0  0  0  0  0  0  0  0  0  0  0
   10.6220   -2.8049   -9.5553 H   0  0  0  0  0  0  0  0  0  0  0  0
   10.6629   -5.2858   -9.6114 H   0  0  0  0  0  0  0  0  0  0  0  0
    8.9819   -6.5813   -8.3641 H   0  0  0  0  0  0  0  0  0  0  0  0
    7.2015   -6.5196   -7.0791 H   0  0  0  0  0  0  0  0  0  0  0  0
    4.3149   -4.6922   -4.5157 H   0  0  0  0  0  0  0  0  0  0  0  0
    2.7549   -3.8327   -2.8197 H   0  0  0  0  0  0  0  0  0  0  0  0
   -2.5091    0.1969   -1.3037 H   0  0  0  0  0  0  0  0  0  0  0  0
   -4.9285    0.7507   -1.8629 H   0  0  0  0  0  0  0  0  0  0  0  0
   -6.6805    1.0550   -3.5770 H   0  0  0  0  0  0  0  0  0  0  0  0
   -6.0871    0.9750   -5.9879 H   0  0  0  0  0  0  0  0  0  0  0  0
   -3.7325    0.6353   -6.6684 H   0  0  0  0  0  0  0  0  0  0  0  0
  1  2  2  0  0  0  0
  2  3  1  0  0  0  0
  2 21  1  0  0  0  0
  3  4  1  0  0  0  0
  3 31  1  0  0  0  0
  4  5  1  0  0  0  0
  4 32  1  0  0  0  0
  4 33  1  0  0  0  0
  5  6  2  0  0  0  0
  5 20  1  0  0  0  0
  6  7  1  0  0  0  0
  6 34  1  0  0  0  0
  7  8  2  0  0  0  0
  7 35  1  0  0  0  0
  8  9  1  0  0  0  0
  8 19  1  0  0  0  0
  9 10  1  0  0  0  0
  9 36  1  0  0  0  0
 10 11  2  0  0  0  0
 10 12  1  0  0  0  0
 12 13  2  0  0  0  0
 12 17  1  0  0  0  0
 13 14  1  0  0  0  0
 13 37  1  0  0  0  0
 14 15  2  0  0  0  0
 14 38  1  0  0  0  0
 15 16  1  0  0  0  0
 15 39  1  0  0  0  0
 16 17  2  0  0  0  0
 16 40  1  0  0  0  0
 17 18  1  0  0  0  0
 18 41  1  0  0  0  0
 19 20  2  0  0  0  0
 19 42  1  0  0  0  0
 20 43  1  0  0  0  0
 21 22  2  0  0  0  0
 21 30  1  0  0  0  0
 22 23  1  0  0  0  0
 22 44  1  0  0  0  0
 23 24  2  0  0  0  0
 23 28  1  0  0  0  0
 24 25  1  0  0  0  0
 24 45  1  0  0  0  0
 25 26  2  0  0  0  0
 25 46  1  0  0  0  0
 26 27  1  0  0  0  0
 26 47  1  0  0  0  0
 27 28  2  0  0  0  0
 27 48  1  0  0  0  0
 28 29  1  0  0  0  0
 29 30  2  0  0  0  0
M  END
$$$$
