
 OpenBabel01122422533D

 49 52  0  0  0  0  0  0  0  0999 V2000
    1.1386    0.1763    0.3976 C   0  0  0  0  0  0  0  0  0  0  0  0
    2.5901    0.2908    0.3993 N   0  0  0  0  0  0  0  0  0  0  0  0
    3.1706    1.1389   -0.6523 C   0  0  0  0  0  0  0  0  0  0  0  0
    3.2615    2.5901   -0.2452 C   0  0  0  0  0  0  0  0  0  0  0  0
    2.8491    3.1476    0.9109 C   0  0  0  0  0  0  0  0  0  0  0  0
    3.0465    4.5499    1.1919 C   0  0  0  0  0  0  0  0  0  0  0  0
    3.6532    5.3313    0.2936 C   0  0  0  0  0  0  0  0  0  0  0  0
    4.0823    4.7954   -0.8936 N   0  0  0  0  0  0  0  0  0  0  0  0
    3.9312    3.4758   -1.2461 C   0  0  0  0  0  0  0  0  0  0  0  0
    4.3365    3.0429   -2.3244 O   0  0  0  0  0  0  0  0  0  0  0  0
    3.2772   -0.7165    1.0860 C   0  0  0  0  0  0  0  0  0  0  0  0
    2.6824   -1.6581    1.6152 O   0  0  0  0  0  0  0  0  0  0  0  0
    4.7612   -0.7073    1.2106 C   0  0  0  0  0  0  0  0  0  0  0  0
    5.5059    0.4673    1.3577 C   0  0  0  0  0  0  0  0  0  0  0  0
    6.9010    0.4211    1.4082 C   0  0  0  0  0  0  0  0  0  0  0  0
    7.5591   -0.8108    1.3355 C   0  0  0  0  0  0  0  0  0  0  0  0
    8.9725   -0.8268    1.1769 N   0  0  0  0  0  0  0  0  0  0  0  0
    9.7120    0.1711    1.7368 N   0  0  0  0  0  0  0  0  0  0  0  0
   10.9739   -0.2024    1.5457 C   0  0  0  0  0  0  0  0  0  0  0  0
   11.0740   -1.3583    0.7646 C   0  0  0  0  0  0  0  0  0  0  0  0
    9.7727   -1.7126    0.4412 C   0  0  0  0  0  0  0  0  0  0  0  0
    9.3182   -2.7187   -0.5379 C   0  0  0  0  0  0  0  0  0  0  0  0
   10.0572   -3.8960   -0.7397 C   0  0  0  0  0  0  0  0  0  0  0  0
    9.6195   -4.8696   -1.6440 C   0  0  0  0  0  0  0  0  0  0  0  0
    8.4279   -4.6834   -2.3338 C   0  0  0  0  0  0  0  0  0  0  0  0
    7.9909   -5.6339   -3.1699 F   0  0  0  0  0  0  0  0  0  0  0  0
    7.6944   -3.5198   -2.1784 C   0  0  0  0  0  0  0  0  0  0  0  0
    8.1638   -2.5262   -1.3181 C   0  0  0  0  0  0  0  0  0  0  0  0
    6.8172   -1.9977    1.3458 C   0  0  0  0  0  0  0  0  0  0  0  0
    5.4187   -1.9420    1.2632 C   0  0  0  0  0  0  0  0  0  0  0  0
    0.6771    1.1214    0.0964 H   0  0  0  0  0  0  0  0  0  0  0  0
    0.7818   -0.0836    1.4001 H   0  0  0  0  0  0  0  0  0  0  0  0
    0.8492   -0.6165   -0.2999 H   0  0  0  0  0  0  0  0  0  0  0  0
    2.5377    1.0446   -1.5445 H   0  0  0  0  0  0  0  0  0  0  0  0
    4.1570    0.7574   -0.9338 H   0  0  0  0  0  0  0  0  0  0  0  0
    2.3715    2.5585    1.6894 H   0  0  0  0  0  0  0  0  0  0  0  0
    2.7051    4.9483    2.1415 H   0  0  0  0  0  0  0  0  0  0  0  0
    3.8379    6.3869    0.4528 H   0  0  0  0  0  0  0  0  0  0  0  0
    4.5449    5.3841   -1.5800 H   0  0  0  0  0  0  0  0  0  0  0  0
    5.0222    1.4340    1.4185 H   0  0  0  0  0  0  0  0  0  0  0  0
    7.4612    1.3545    1.4430 H   0  0  0  0  0  0  0  0  0  0  0  0
   11.7684    0.4071    1.9559 H   0  0  0  0  0  0  0  0  0  0  0  0
   11.9822   -1.8255    0.4077 H   0  0  0  0  0  0  0  0  0  0  0  0
   10.9811   -4.0727   -0.1941 H   0  0  0  0  0  0  0  0  0  0  0  0
   10.1963   -5.7741   -1.8083 H   0  0  0  0  0  0  0  0  0  0  0  0
    6.7642   -3.3867   -2.7211 H   0  0  0  0  0  0  0  0  0  0  0  0
    7.5913   -1.6033   -1.2565 H   0  0  0  0  0  0  0  0  0  0  0  0
    7.3017   -2.9709    1.3896 H   0  0  0  0  0  0  0  0  0  0  0  0
    4.8564   -2.8706    1.2236 H   0  0  0  0  0  0  0  0  0  0  0  0
  1  2  1  0  0  0  0
  1 31  1  0  0  0  0
  1 32  1  0  0  0  0
  1 33  1  0  0  0  0
  2  3  1  0  0  0  0
  2 11  1  0  0  0  0
  3  4  1  0  0  0  0
  3 34  1  0  0  0  0
  3 35  1  0  0  0  0
  4  5  2  0  0  0  0
  4  9  1  0  0  0  0
  5  6  1  0  0  0  0
  5 36  1  0  0  0  0
  6  7  2  0  0  0  0
  6 37  1  0  0  0  0
  7  8  1  0  0  0  0
  7 38  1  0  0  0  0
  8  9  1  0  0  0  0
  8 39  1  0  0  0  0
  9 10  2  0  0  0  0
 11 12  2  0  0  0  0
 11 13  1  0  0  0  0
 13 14  2  0  0  0  0
 13 30  1  0  0  0  0
 14 15  1  0  0  0  0
 14 40  1  0  0  0  0
 15 16  2  0  0  0  0
 15 41  1  0  0  0  0
 16 17  1  0  0  0  0
 16 29  1  0  0  0  0
 17 18  1  0  0  0  0
 17 21  1  0  0  0  0
 18 19  2  0  0  0  0
 19 20  1  0  0  0  0
 19 42  1  0  0  0  0
 20 21  2  0  0  0  0
 20 43  1  0  0  0  0
 21 22  1  0  0  0  0
 22 23  2  0  0  0  0
 22 28  1  0  0  0  0
 23 24  1  0  0  0  0
 23 44  1  0  0  0  0
 24 25  2  0  0  0  0
 24 45  1  0  0  0  0
 25 26  1  0  0  0  0
 25 27  1  0  0  0  0
 27 28  2  0  0  0  0
 27 46  1  0  0  0  0
 28 47  1  0  0  0  0
 29 30  2  0  0  0  0
 29 48  1  0  0  0  0
 30 49  1  0  0  0  0
M  END
$$$$
