
 OpenBabel01122422533D

 42 45  0  0  0  0  0  0  0  0999 V2000
    1.2180   -0.1606    0.1570 O   0  0  0  0  0  0  0  0  0  0  0  0
    2.4276   -0.2976   -0.0067 C   0  0  0  0  0  0  0  0  0  0  0  0
    3.0181   -0.2720   -1.2806 N   0  0  0  0  0  0  0  0  0  0  0  0
    2.1859   -0.7084   -2.4981 S   0  0  3  0  0  0  0  0  0  0  0  0
    1.3065   -1.8671   -2.4875 O   0  0  0  0  0  0  0  0  0  0  0  0
    1.1989    0.6917   -3.0054 C   0  0  0  0  0  0  0  0  0  0  0  0
    1.8185    1.8916   -3.3681 C   0  0  0  0  0  0  0  0  0  0  0  0
    1.0395    2.9646   -3.8051 C   0  0  0  0  0  0  0  0  0  0  0  0
   -0.3488    2.8401   -3.8700 C   0  0  0  0  0  0  0  0  0  0  0  0
   -0.9636    1.6457   -3.4931 C   0  0  0  0  0  0  0  0  0  0  0  0
   -0.1921    0.5677   -3.0589 C   0  0  0  0  0  0  0  0  0  0  0  0
    3.3322   -1.0156   -3.8322 C   0  0  0  0  0  0  0  0  0  0  0  0
    3.0121   -1.9754   -4.7918 C   0  0  0  0  0  0  0  0  0  0  0  0
    3.9236   -2.1943   -5.8060 C   0  0  0  0  0  0  0  0  0  0  0  0
    5.0943   -1.5304   -5.9158 N   0  0  0  0  0  0  0  0  0  0  0  0
    5.3801   -0.6187   -4.9599 C   0  0  0  0  0  0  0  0  0  0  0  0
    4.5429   -0.3300   -3.8985 C   0  0  0  0  0  0  0  0  0  0  0  0
    3.3229   -0.3667    1.2098 C   0  0  0  0  0  0  0  0  0  0  0  0
    2.7463   -0.2857    2.4182 C   0  0  0  0  0  0  0  0  0  0  0  0
    3.5970   -0.2170    3.6136 C   0  0  0  0  0  0  0  0  0  0  0  0
    3.1094   -0.1902    4.7351 O   0  0  0  0  0  0  0  0  0  0  0  0
    5.0461   -0.1439    3.3821 C   0  0  0  0  0  0  0  0  0  0  0  0
    5.9276    0.1080    4.4367 C   0  0  0  0  0  0  0  0  0  0  0  0
    7.2985    0.1678    4.1859 C   0  0  0  0  0  0  0  0  0  0  0  0
    7.7821   -0.0477    2.8932 C   0  0  0  0  0  0  0  0  0  0  0  0
    6.8950   -0.2910    1.8415 C   0  0  0  0  0  0  0  0  0  0  0  0
    5.5222   -0.3137    2.0842 C   0  0  0  0  0  0  0  0  0  0  0  0
    4.6926   -0.4757    1.0027 O   0  0  0  0  0  0  0  0  0  0  0  0
    2.8957    2.0105   -3.3099 H   0  0  0  0  0  0  0  0  0  0  0  0
    1.5120    3.9002   -4.0938 H   0  0  0  0  0  0  0  0  0  0  0  0
   -0.9541    3.6773   -4.2099 H   0  0  0  0  0  0  0  0  0  0  0  0
   -2.0470    1.5550   -3.5364 H   0  0  0  0  0  0  0  0  0  0  0  0
   -0.6822   -0.3575   -2.7629 H   0  0  0  0  0  0  0  0  0  0  0  0
    2.0887   -2.5436   -4.7530 H   0  0  0  0  0  0  0  0  0  0  0  0
    3.7332   -2.9326   -6.5804 H   0  0  0  0  0  0  0  0  0  0  0  0
    6.3338   -0.1118   -5.0776 H   0  0  0  0  0  0  0  0  0  0  0  0
    4.8335    0.4018   -3.1535 H   0  0  0  0  0  0  0  0  0  0  0  0
    1.6763   -0.2219    2.5775 H   0  0  0  0  0  0  0  0  0  0  0  0
    5.5487    0.2701    5.4437 H   0  0  0  0  0  0  0  0  0  0  0  0
    7.9898    0.3804    4.9983 H   0  0  0  0  0  0  0  0  0  0  0  0
    8.8529   -0.0158    2.7040 H   0  0  0  0  0  0  0  0  0  0  0  0
    7.2759   -0.4493    0.8358 H   0  0  0  0  0  0  0  0  0  0  0  0
  1  2  2  0  0  0  0
  2  3  1  0  0  0  0
  2 18  1  0  0  0  0
  3  4  2  0  0  0  0
  4  5  2  0  0  0  0
  4  6  1  0  0  0  0
  4 12  1  0  0  0  0
  6  7  2  0  0  0  0
  6 11  1  0  0  0  0
  7  8  1  0  0  0  0
  7 29  1  0  0  0  0
  8  9  2  0  0  0  0
  8 30  1  0  0  0  0
  9 10  1  0  0  0  0
  9 31  1  0  0  0  0
 10 11  2  0  0  0  0
 10 32  1  0  0  0  0
 11 33  1  0  0  0  0
 12 13  2  0  0  0  0
 12 17  1  0  0  0  0
 13 14  1  0  0  0  0
 13 34  1  0  0  0  0
 14 15  2  0  0  0  0
 14 35  1  0  0  0  0
 15 16  1  0  0  0  0
 16 17  2  0  0  0  0
 16 36  1  0  0  0  0
 17 37  1  0  0  0  0
 18 19  2  0  0  0  0
 18 28  1  0  0  0  0
 19 20  1  0  0  0  0
 19 38  1  0  0  0  0
 20 21  2  0  0  0  0
 20 22  1  0  0  0  0
 22 23  2  0  0  0  0
 22 27  1  0  0  0  0
 23 24  1  0  0  0  0
 23 39  1  0  0  0  0
 24 25  2  0  0  0  0
 24 40  1  0  0  0  0
 25 26  1  0  0  0  0
 25 41  1  0  0  0  0
 26 27  2  0  0  0  0
 26 42  1  0  0  0  0
 27 28  1  0  0  0  0
M  END
$$$$
