
 OpenBabel01122422533D

 43 46  0  0  0  0  0  0  0  0999 V2000
    1.0976   -0.1679   -0.2283 O   0  0  0  0  0  0  0  0  0  0  0  0
    2.3056   -0.0764   -0.0516 C   0  0  0  0  0  0  0  0  0  0  0  0
    3.0225   -1.0107    0.6684 N   0  0  0  0  0  0  0  0  0  0  0  0
    2.3653   -2.1249    1.3237 C   0  0  0  0  0  0  0  0  0  0  0  0
    2.1715   -3.2389    0.3608 C   0  0  0  0  0  0  0  0  0  0  0  0
    3.0939   -4.1991    0.2167 N   0  0  0  0  0  0  0  0  0  0  0  0
    2.5937   -5.0481   -0.7564 O   0  0  0  0  0  0  0  0  0  0  0  0
    1.3828   -4.5935   -1.1964 C   0  0  0  0  0  0  0  0  0  0  0  0
    0.7443   -5.3580   -2.2602 C   0  0  0  0  0  0  0  0  0  0  0  0
    1.3238   -6.5335   -2.7653 C   0  0  0  0  0  0  0  0  0  0  0  0
    0.7238   -7.2352   -3.8143 C   0  0  0  0  0  0  0  0  0  0  0  0
   -0.4650   -6.7687   -4.3611 C   0  0  0  0  0  0  0  0  0  0  0  0
   -1.0309   -7.4386   -5.3764 F   0  0  0  0  0  0  0  0  0  0  0  0
   -1.0719   -5.6216   -3.8784 C   0  0  0  0  0  0  0  0  0  0  0  0
   -0.4676   -4.9274   -2.8303 C   0  0  0  0  0  0  0  0  0  0  0  0
   -1.0812   -3.8192   -2.3875 F   0  0  0  0  0  0  0  0  0  0  0  0
    1.0727   -3.4497   -0.5015 C   0  0  0  0  0  0  0  0  0  0  0  0
    3.0759    1.0746   -0.5898 C   0  0  0  0  0  0  0  0  0  0  0  0
    4.3444    0.8315   -1.1456 C   0  0  0  0  0  0  0  0  0  0  0  0
    5.0793    1.8770   -1.6917 C   0  0  0  0  0  0  0  0  0  0  0  0
    4.5120    3.1336   -1.6929 C   0  0  0  0  0  0  0  0  0  0  0  0
    3.2977    3.4043   -1.1688 N   0  0  0  0  0  0  0  0  0  0  0  0
    2.5749    2.3884   -0.6012 C   0  0  0  0  0  0  0  0  0  0  0  0
    1.3097    2.8679    0.0166 C   0  0  0  0  0  0  0  0  0  0  0  0
    0.6005    3.9418   -0.5477 C   0  0  0  0  0  0  0  0  0  0  0  0
   -0.5625    4.3974    0.0580 C   0  0  0  0  0  0  0  0  0  0  0  0
   -1.0861    3.8592    1.1767 N   0  0  0  0  0  0  0  0  0  0  0  0
   -0.4010    2.8352    1.7192 C   0  0  0  0  0  0  0  0  0  0  0  0
    0.7880    2.3380    1.2044 C   0  0  0  0  0  0  0  0  0  0  0  0
    4.0319   -0.9952    0.6937 H   0  0  0  0  0  0  0  0  0  0  0  0
    1.4039   -1.7929    1.7308 H   0  0  0  0  0  0  0  0  0  0  0  0
    2.9999   -2.4332    2.1612 H   0  0  0  0  0  0  0  0  0  0  0  0
    2.2590   -6.9140   -2.3518 H   0  0  0  0  0  0  0  0  0  0  0  0
    1.1791   -8.1367   -4.2090 H   0  0  0  0  0  0  0  0  0  0  0  0
   -2.0017   -5.2635   -4.3059 H   0  0  0  0  0  0  0  0  0  0  0  0
    0.1960   -2.8265   -0.6097 H   0  0  0  0  0  0  0  0  0  0  0  0
    4.7605   -0.1715   -1.1827 H   0  0  0  0  0  0  0  0  0  0  0  0
    6.0625    1.7113   -2.1186 H   0  0  0  0  0  0  0  0  0  0  0  0
    5.0310    3.9852   -2.1245 H   0  0  0  0  0  0  0  0  0  0  0  0
    0.9546    4.4322   -1.4505 H   0  0  0  0  0  0  0  0  0  0  0  0
   -1.1172    5.2346   -0.3555 H   0  0  0  0  0  0  0  0  0  0  0  0
   -0.8404    2.4040    2.6141 H   0  0  0  0  0  0  0  0  0  0  0  0
    1.2770    1.5316    1.7372 H   0  0  0  0  0  0  0  0  0  0  0  0
  1  2  2  0  0  0  0
  2  3  1  0  0  0  0
  2 18  1  0  0  0  0
  3  4  1  0  0  0  0
  3 30  1  0  0  0  0
  4  5  1  0  0  0  0
  4 31  1  0  0  0  0
  4 32  1  0  0  0  0
  5  6  2  0  0  0  0
  5 17  1  0  0  0  0
  6  7  1  0  0  0  0
  7  8  1  0  0  0  0
  8  9  1  0  0  0  0
  8 17  2  0  0  0  0
  9 10  2  0  0  0  0
  9 15  1  0  0  0  0
 10 11  1  0  0  0  0
 10 33  1  0  0  0  0
 11 12  2  0  0  0  0
 11 34  1  0  0  0  0
 12 13  1  0  0  0  0
 12 14  1  0  0  0  0
 14 15  2  0  0  0  0
 14 35  1  0  0  0  0
 15 16  1  0  0  0  0
 17 36  1  0  0  0  0
 18 19  2  0  0  0  0
 18 23  1  0  0  0  0
 19 20  1  0  0  0  0
 19 37  1  0  0  0  0
 20 21  2  0  0  0  0
 20 38  1  0  0  0  0
 21 22  1  0  0  0  0
 21 39  1  0  0  0  0
 22 23  2  0  0  0  0
 23 24  1  0  0  0  0
 24 25  2  0  0  0  0
 24 29  1  0  0  0  0
 25 26  1  0  0  0  0
 25 40  1  0  0  0  0
 26 27  2  0  0  0  0
 26 41  1  0  0  0  0
 27 28  1  0  0  0  0
 28 29  2  0  0  0  0
 28 42  1  0  0  0  0
 29 43  1  0  0  0  0
M  END
$$$$
