
 OpenBabel01122422533D

 42 45  0  0  0  0  0  0  0  0999 V2000
    1.5014   -0.9949   -1.2069 O   0  0  0  0  0  0  0  0  0  0  0  0
    2.0695   -0.3572   -0.3228 C   0  0  0  0  0  0  0  0  0  0  0  0
    1.8899    0.9953   -0.0727 N   0  0  0  0  0  0  0  0  0  0  0  0
    1.1641    1.8941   -0.8952 C   0  0  0  0  0  0  0  0  0  0  0  0
    0.6588    1.5363   -2.1523 C   0  0  0  0  0  0  0  0  0  0  0  0
    0.0238    2.4695   -2.9776 C   0  0  0  0  0  0  0  0  0  0  0  0
   -0.1057    3.7898   -2.5738 C   0  0  0  0  0  0  0  0  0  0  0  0
   -0.6784    4.7108   -3.4660 N   0  0  0  0  0  0  0  0  0  0  0  0
   -0.7109    5.9454   -3.1014 C   0  0  0  0  0  0  0  0  0  0  0  0
   -0.2523    6.4002   -1.8998 N   0  0  0  0  0  0  0  0  0  0  0  0
    0.2666    5.5692   -0.9389 C   0  0  0  0  0  0  0  0  0  0  0  0
    0.6348    5.9868    0.1542 O   0  0  0  0  0  0  0  0  0  0  0  0
    0.3785    4.1483   -1.3123 C   0  0  0  0  0  0  0  0  0  0  0  0
    0.9970    3.2134   -0.4640 C   0  0  0  0  0  0  0  0  0  0  0  0
    2.9841   -1.1262    0.5557 C   0  0  0  0  0  0  0  0  0  0  0  0
    2.7223   -2.5061    0.6607 C   0  0  0  0  0  0  0  0  0  0  0  0
    3.5384   -3.3279    1.4250 C   0  0  0  0  0  0  0  0  0  0  0  0
    4.6097   -2.7445    2.0586 C   0  0  0  0  0  0  0  0  0  0  0  0
    4.8826   -1.4255    1.9884 N   0  0  0  0  0  0  0  0  0  0  0  0
    4.0759   -0.6091    1.2558 C   0  0  0  0  0  0  0  0  0  0  0  0
    4.4036    0.7707    1.2368 N   0  0  0  0  0  0  0  0  0  0  0  0
    5.1996    1.3870    2.2446 C   0  0  0  0  0  0  0  0  0  0  0  0
    6.0952    2.4173    1.9383 C   0  0  0  0  0  0  0  0  0  0  0  0
    6.2246    2.8253    0.6653 F   0  0  0  0  0  0  0  0  0  0  0  0
    6.8724    3.0029    2.9366 C   0  0  0  0  0  0  0  0  0  0  0  0
    7.7479    3.9705    2.6292 F   0  0  0  0  0  0  0  0  0  0  0  0
    6.7601    2.5923    4.2621 C   0  0  0  0  0  0  0  0  0  0  0  0
    5.8390    1.6047    4.5951 C   0  0  0  0  0  0  0  0  0  0  0  0
    5.0532    1.0261    3.5964 C   0  0  0  0  0  0  0  0  0  0  0  0
    2.3224    1.3792    0.7643 H   0  0  0  0  0  0  0  0  0  0  0  0
    0.7690    0.5352   -2.5555 H   0  0  0  0  0  0  0  0  0  0  0  0
   -0.3373    2.1629   -3.9563 H   0  0  0  0  0  0  0  0  0  0  0  0
   -1.1203    6.7308   -3.7573 H   0  0  0  0  0  0  0  0  0  0  0  0
   -0.3045    7.3809   -1.6677 H   0  0  0  0  0  0  0  0  0  0  0  0
    1.3566    3.5379    0.5093 H   0  0  0  0  0  0  0  0  0  0  0  0
    1.8713   -2.9440    0.1407 H   0  0  0  0  0  0  0  0  0  0  0  0
    3.3429   -4.3902    1.5141 H   0  0  0  0  0  0  0  0  0  0  0  0
    5.2984   -3.3292    2.6615 H   0  0  0  0  0  0  0  0  0  0  0  0
    4.7394    1.0251    0.3052 H   0  0  0  0  0  0  0  0  0  0  0  0
    7.3849    3.0442    5.0258 H   0  0  0  0  0  0  0  0  0  0  0  0
    5.7308    1.2719    5.6244 H   0  0  0  0  0  0  0  0  0  0  0  0
    4.3369    0.2572    3.8798 H   0  0  0  0  0  0  0  0  0  0  0  0
  1  2  2  0  0  0  0
  2  3  1  0  0  0  0
  2 15  1  0  0  0  0
  3  4  1  0  0  0  0
  3 30  1  0  0  0  0
  4  5  2  0  0  0  0
  4 14  1  0  0  0  0
  5  6  1  0  0  0  0
  5 31  1  0  0  0  0
  6  7  2  0  0  0  0
  6 32  1  0  0  0  0
  7  8  1  0  0  0  0
  7 13  1  0  0  0  0
  8  9  2  0  0  0  0
  9 10  1  0  0  0  0
  9 33  1  0  0  0  0
 10 11  1  0  0  0  0
 10 34  1  0  0  0  0
 11 12  2  0  0  0  0
 11 13  1  0  0  0  0
 13 14  2  0  0  0  0
 14 35  1  0  0  0  0
 15 16  2  0  0  0  0
 15 20  1  0  0  0  0
 16 17  1  0  0  0  0
 16 36  1  0  0  0  0
 17 18  2  0  0  0  0
 17 37  1  0  0  0  0
 18 19  1  0  0  0  0
 18 38  1  0  0  0  0
 19 20  2  0  0  0  0
 20 21  1  0  0  0  0
 21 22  1  0  0  0  0
 21 39  1  0  0  0  0
 22 23  2  0  0  0  0
 22 29  1  0  0  0  0
 23 24  1  0  0  0  0
 23 25  1  0  0  0  0
 25 26  1  0  0  0  0
 25 27  2  0  0  0  0
 27 28  1  0  0  0  0
 27 40  1  0  0  0  0
 28 29  2  0  0  0  0
 28 41  1  0  0  0  0
 29 42  1  0  0  0  0
M  END
$$$$
