
 OpenBabel01122422533D

 44 47  0  0  0  0  0  0  0  0999 V2000
   -0.9296    0.7758    2.2073 O   0  0  0  0  0  0  0  0  0  0  0  0
   -0.1800    0.7316    1.2393 C   0  0  0  0  0  0  0  0  0  0  0  0
    0.8315    1.6342    1.0390 N   0  0  0  0  0  0  0  0  0  0  0  0
    1.6891    1.5958   -0.0369 C   0  0  0  0  0  0  0  0  0  0  0  0
    2.7283    2.6572   -0.0600 C   0  0  0  0  0  0  0  0  0  0  0  0
    3.6271    2.7261   -1.1130 C   0  0  0  0  0  0  0  0  0  0  0  0
    4.5674    3.7531   -1.1082 C   0  0  0  0  0  0  0  0  0  0  0  0
    4.6091    4.6849   -0.0595 C   0  0  0  0  0  0  0  0  0  0  0  0
    5.5757    5.8048   -0.0471 C   0  0  0  0  0  0  0  0  0  0  0  0
    6.8537    5.6820   -0.6318 C   0  0  0  0  0  0  0  0  0  0  0  0
    7.7683    6.7497   -0.6644 C   0  0  0  0  0  0  0  0  0  0  0  0
    9.0940    6.6256   -1.3724 C   0  0  0  0  0  0  0  0  0  0  0  0
    9.6170    5.3063   -1.2930 O   0  0  0  0  0  0  0  0  0  0  0  0
    7.3919    7.9737   -0.1034 C   0  0  0  0  0  0  0  0  0  0  0  0
    6.1427    8.1210    0.4917 C   0  0  0  0  0  0  0  0  0  0  0  0
    5.2460    7.0495    0.5159 C   0  0  0  0  0  0  0  0  0  0  0  0
    3.6627    4.4965    0.9560 C   0  0  0  0  0  0  0  0  0  0  0  0
    2.7212    3.5189    0.9866 N   0  0  0  0  0  0  0  0  0  0  0  0
    1.6032    0.7003   -0.9699 N   0  0  0  0  0  0  0  0  0  0  0  0
    0.5966   -0.2665   -0.8637 C   0  0  0  0  0  0  0  0  0  0  0  0
    0.4981   -1.2334   -1.8651 C   0  0  0  0  0  0  0  0  0  0  0  0
   -0.4665   -2.2421   -1.7981 C   0  0  0  0  0  0  0  0  0  0  0  0
   -0.4440   -3.1209   -2.8438 O   0  0  0  0  0  0  0  0  0  0  0  0
   -0.9206   -4.4235   -2.5591 C   0  0  0  0  0  0  0  0  0  0  0  0
   -2.2673   -4.4374   -2.7099 F   0  0  0  0  0  0  0  0  0  0  0  0
   -0.4118   -5.2531   -3.5055 F   0  0  0  0  0  0  0  0  0  0  0  0
   -1.3729   -2.2656   -0.7347 C   0  0  0  0  0  0  0  0  0  0  0  0
   -1.2906   -1.2986    0.2730 C   0  0  0  0  0  0  0  0  0  0  0  0
   -0.3052   -0.3092    0.2021 C   0  0  0  0  0  0  0  0  0  0  0  0
    0.9583    2.3709    1.7254 H   0  0  0  0  0  0  0  0  0  0  0  0
    3.5953    2.0096   -1.9278 H   0  0  0  0  0  0  0  0  0  0  0  0
    5.2532    3.8233   -1.9496 H   0  0  0  0  0  0  0  0  0  0  0  0
    7.1540    4.7375   -1.0831 H   0  0  0  0  0  0  0  0  0  0  0  0
    9.8347    7.2978   -0.9269 H   0  0  0  0  0  0  0  0  0  0  0  0
    8.9741    6.8899   -2.4277 H   0  0  0  0  0  0  0  0  0  0  0  0
    9.6428    5.0729   -0.3494 H   0  0  0  0  0  0  0  0  0  0  0  0
    8.0653    8.8275   -0.1383 H   0  0  0  0  0  0  0  0  0  0  0  0
    5.8532    9.0765    0.9208 H   0  0  0  0  0  0  0  0  0  0  0  0
    4.2672    7.2202    0.9598 H   0  0  0  0  0  0  0  0  0  0  0  0
    3.6303    5.1545    1.8218 H   0  0  0  0  0  0  0  0  0  0  0  0
    1.1926   -1.2015   -2.7010 H   0  0  0  0  0  0  0  0  0  0  0  0
   -0.6352   -4.8000   -1.5709 H   0  0  0  0  0  0  0  0  0  0  0  0
   -2.1679   -3.0044   -0.6761 H   0  0  0  0  0  0  0  0  0  0  0  0
   -1.9938   -1.3098    1.1033 H   0  0  0  0  0  0  0  0  0  0  0  0
  1  2  2  0  0  0  0
  2  3  1  0  0  0  0
  2 29  1  0  0  0  0
  3  4  1  0  0  0  0
  3 30  1  0  0  0  0
  4  5  1  0  0  0  0
  4 19  2  0  0  0  0
  5  6  2  0  0  0  0
  5 18  1  0  0  0  0
  6  7  1  0  0  0  0
  6 31  1  0  0  0  0
  7  8  2  0  0  0  0
  7 32  1  0  0  0  0
  8  9  1  0  0  0  0
  8 17  1  0  0  0  0
  9 10  2  0  0  0  0
  9 16  1  0  0  0  0
 10 11  1  0  0  0  0
 10 33  1  0  0  0  0
 11 12  1  0  0  0  0
 11 14  2  0  0  0  0
 12 13  1  0  0  0  0
 12 34  1  0  0  0  0
 12 35  1  0  0  0  0
 13 36  1  0  0  0  0
 14 15  1  0  0  0  0
 14 37  1  0  0  0  0
 15 16  2  0  0  0  0
 15 38  1  0  0  0  0
 16 39  1  0  0  0  0
 17 18  2  0  0  0  0
 17 40  1  0  0  0  0
 19 20  1  0  0  0  0
 20 21  2  0  0  0  0
 20 29  1  0  0  0  0
 21 22  1  0  0  0  0
 21 41  1  0  0  0  0
 22 23  1  0  0  0  0
 22 27  2  0  0  0  0
 23 24  1  0  0  0  0
 24 25  1  0  0  0  0
 24 26  1  0  0  0  0
 24 42  1  0  0  0  0
 27 28  1  0  0  0  0
 27 43  1  0  0  0  0
 28 29  2  0  0  0  0
 28 44  1  0  0  0  0
M  END
$$$$
