
 OpenBabel01122422533D

 47 50  0  0  0  0  0  0  0  0999 V2000
    2.6496   -0.6882   -0.8722 O   0  0  0  0  0  0  0  0  0  0  0  0
    2.2127    0.0402    0.0177 C   0  0  0  0  0  0  0  0  0  0  0  0
    0.7973   -0.1512    0.5558 C   0  0  0  0  0  0  0  0  0  0  0  0
   -0.2747   -0.1679   -0.4861 C   0  0  0  0  0  0  0  0  0  0  0  0
   -1.5514    0.3455   -0.3655 C   0  0  0  0  0  0  0  0  0  0  0  0
   -2.2329    0.0733   -1.5351 N   0  0  0  0  0  0  0  0  0  0  0  0
   -3.5758    0.4142   -1.8631 C   0  0  0  0  0  0  0  0  0  0  0  0
   -4.3567    1.1922   -0.9955 C   0  0  0  0  0  0  0  0  0  0  0  0
   -5.6667    1.5327   -1.3440 C   0  0  0  0  0  0  0  0  0  0  0  0
   -6.2079    1.0950   -2.5508 C   0  0  0  0  0  0  0  0  0  0  0  0
   -5.4422    0.3128   -3.4136 C   0  0  0  0  0  0  0  0  0  0  0  0
   -4.1291   -0.0260   -3.0752 C   0  0  0  0  0  0  0  0  0  0  0  0
   -1.4402   -0.6002   -2.4067 N   0  0  0  0  0  0  0  0  0  0  0  0
   -0.2717   -0.7337   -1.7780 C   0  0  0  0  0  0  0  0  0  0  0  0
    2.9638    1.0934    0.5683 N   0  0  0  0  0  0  0  0  0  0  0  0
    4.4782    0.9208    0.7682 S   0  0  3  0  0  0  0  0  0  0  0  0
    5.0887   -0.2972    1.2755 O   0  0  0  0  0  0  0  0  0  0  0  0
    5.2330    1.2737   -0.8118 C   0  0  0  0  0  0  0  0  0  0  0  0
    5.0688    2.5340   -1.3965 C   0  0  0  0  0  0  0  0  0  0  0  0
    5.5982    2.7793   -2.6639 C   0  0  0  0  0  0  0  0  0  0  0  0
    6.2835    1.7711   -3.3422 C   0  0  0  0  0  0  0  0  0  0  0  0
    6.4493    0.5165   -2.7533 C   0  0  0  0  0  0  0  0  0  0  0  0
    5.9262    0.2638   -1.4847 C   0  0  0  0  0  0  0  0  0  0  0  0
    4.9900    2.2033    1.9037 C   0  0  0  0  0  0  0  0  0  0  0  0
    6.0631    1.9715    2.7638 C   0  0  0  0  0  0  0  0  0  0  0  0
    6.3938    2.9715    3.6577 C   0  0  0  0  0  0  0  0  0  0  0  0
    5.7356    4.1500    3.7423 N   0  0  0  0  0  0  0  0  0  0  0  0
    4.6888    4.3330    2.9086 C   0  0  0  0  0  0  0  0  0  0  0  0
    4.2722    3.3948    1.9841 C   0  0  0  0  0  0  0  0  0  0  0  0
    0.5852    0.6539    1.2716 H   0  0  0  0  0  0  0  0  0  0  0  0
    0.7790   -1.0908    1.1201 H   0  0  0  0  0  0  0  0  0  0  0  0
   -2.0221    0.8547    0.4603 H   0  0  0  0  0  0  0  0  0  0  0  0
   -3.9763    1.5619   -0.0491 H   0  0  0  0  0  0  0  0  0  0  0  0
   -6.2641    2.1451   -0.6729 H   0  0  0  0  0  0  0  0  0  0  0  0
   -7.2262    1.3647   -2.8196 H   0  0  0  0  0  0  0  0  0  0  0  0
   -5.8659   -0.0330   -4.3533 H   0  0  0  0  0  0  0  0  0  0  0  0
   -3.5509   -0.6385   -3.7649 H   0  0  0  0  0  0  0  0  0  0  0  0
    0.5326   -1.2493   -2.2912 H   0  0  0  0  0  0  0  0  0  0  0  0
    4.5069    3.3184   -0.9001 H   0  0  0  0  0  0  0  0  0  0  0  0
    5.4608    3.7507   -3.1330 H   0  0  0  0  0  0  0  0  0  0  0  0
    6.6770    1.9584   -4.3386 H   0  0  0  0  0  0  0  0  0  0  0  0
    6.9708   -0.2710   -3.2923 H   0  0  0  0  0  0  0  0  0  0  0  0
    6.0364   -0.7254   -1.0461 H   0  0  0  0  0  0  0  0  0  0  0  0
    6.6212    1.0411    2.7539 H   0  0  0  0  0  0  0  0  0  0  0  0
    7.2146    2.8515    4.3595 H   0  0  0  0  0  0  0  0  0  0  0  0
    4.1748    5.2845    3.0146 H   0  0  0  0  0  0  0  0  0  0  0  0
    3.4094    3.5910    1.3583 H   0  0  0  0  0  0  0  0  0  0  0  0
  1  2  2  0  0  0  0
  2  3  1  0  0  0  0
  2 15  1  0  0  0  0
  3  4  1  0  0  0  0
  3 30  1  0  0  0  0
  3 31  1  0  0  0  0
  4  5  2  0  0  0  0
  4 14  1  0  0  0  0
  5  6  1  0  0  0  0
  5 32  1  0  0  0  0
  6  7  1  0  0  0  0
  6 13  1  0  0  0  0
  7  8  2  0  0  0  0
  7 12  1  0  0  0  0
  8  9  1  0  0  0  0
  8 33  1  0  0  0  0
  9 10  2  0  0  0  0
  9 34  1  0  0  0  0
 10 11  1  0  0  0  0
 10 35  1  0  0  0  0
 11 12  2  0  0  0  0
 11 36  1  0  0  0  0
 12 37  1  0  0  0  0
 13 14  2  0  0  0  0
 14 38  1  0  0  0  0
 15 16  2  0  0  0  0
 16 17  2  0  0  0  0
 16 18  1  0  0  0  0
 16 24  1  0  0  0  0
 18 19  2  0  0  0  0
 18 23  1  0  0  0  0
 19 20  1  0  0  0  0
 19 39  1  0  0  0  0
 20 21  2  0  0  0  0
 20 40  1  0  0  0  0
 21 22  1  0  0  0  0
 21 41  1  0  0  0  0
 22 23  2  0  0  0  0
 22 42  1  0  0  0  0
 23 43  1  0  0  0  0
 24 25  2  0  0  0  0
 24 29  1  0  0  0  0
 25 26  1  0  0  0  0
 25 44  1  0  0  0  0
 26 27  2  0  0  0  0
 26 45  1  0  0  0  0
 27 28  1  0  0  0  0
 28 29  2  0  0  0  0
 28 46  1  0  0  0  0
 29 47  1  0  0  0  0
M  END
$$$$
