
 OpenBabel01122422533D

 44 47  0  0  0  0  0  0  0  0999 V2000
    0.3267    1.3176    3.5063 N   0  0  0  0  0  0  0  0  0  0  0  0
    0.5055    0.9689    2.4133 C   0  0  0  0  0  0  0  0  0  0  0  0
    0.7050    0.4936    1.0711 C   0  0  0  0  0  0  0  0  0  0  0  0
    1.3931   -0.7288    0.9449 C   0  0  0  0  0  0  0  0  0  0  0  0
    1.6871   -1.2566   -0.3077 C   0  0  0  0  0  0  0  0  0  0  0  0
    1.2779   -0.5777   -1.4461 C   0  0  0  0  0  0  0  0  0  0  0  0
    0.5682    0.6235   -1.3297 C   0  0  0  0  0  0  0  0  0  0  0  0
    0.2663    1.2045   -0.0743 C   0  0  0  0  0  0  0  0  0  0  0  0
   -0.4598    2.5091   -0.0247 C   0  0  0  0  0  0  0  0  0  0  0  0
   -1.4031    2.8090    0.9747 C   0  0  0  0  0  0  0  0  0  0  0  0
   -2.0420    4.0523    1.0462 C   0  0  0  0  0  0  0  0  0  0  0  0
   -1.8181    5.0227    0.0695 C   0  0  0  0  0  0  0  0  0  0  0  0
   -2.5633    6.3281    0.1042 C   0  0  0  0  0  0  0  0  0  0  0  0
   -1.8556    7.3474    0.8375 N   0  0  0  0  0  0  0  0  0  0  0  0
   -2.3909    8.6074    0.9656 C   0  0  0  0  0  0  0  0  0  0  0  0
   -3.4615    8.9299    0.4614 O   0  0  0  0  0  0  0  0  0  0  0  0
   -1.6290    9.6139    1.7560 C   0  0  0  0  0  0  0  0  0  0  0  0
   -0.4243    9.3085    2.3990 C   0  0  0  0  0  0  0  0  0  0  0  0
    0.1167    8.0822    2.3541 F   0  0  0  0  0  0  0  0  0  0  0  0
    0.2124   10.3128    3.0886 C   0  0  0  0  0  0  0  0  0  0  0  0
   -0.3102   11.5996    3.1629 C   0  0  0  0  0  0  0  0  0  0  0  0
   -1.4915   11.9479    2.5546 C   0  0  0  0  0  0  0  0  0  0  0  0
   -2.1544   10.9363    1.8447 C   0  0  0  0  0  0  0  0  0  0  0  0
    0.5622   12.3754    3.9182 N   0  0  0  0  0  0  0  0  0  0  0  0
    1.6411   11.5767    4.3232 C   0  0  0  0  0  0  0  0  0  0  0  0
    2.5925   11.9270    4.9928 O   0  0  0  0  0  0  0  0  0  0  0  0
    1.4098   10.2952    3.8025 N   0  0  0  0  0  0  0  0  0  0  0  0
   -0.9015    4.7435   -0.9473 C   0  0  0  0  0  0  0  0  0  0  0  0
   -0.2327    3.5114   -0.9879 C   0  0  0  0  0  0  0  0  0  0  0  0
    1.7128   -1.2702    1.8347 H   0  0  0  0  0  0  0  0  0  0  0  0
    2.2351   -2.1917   -0.3919 H   0  0  0  0  0  0  0  0  0  0  0  0
    1.5069   -0.9802   -2.4305 H   0  0  0  0  0  0  0  0  0  0  0  0
    0.2469    1.1043   -2.2527 H   0  0  0  0  0  0  0  0  0  0  0  0
   -1.6781    2.0771    1.7298 H   0  0  0  0  0  0  0  0  0  0  0  0
   -2.7330    4.2407    1.8660 H   0  0  0  0  0  0  0  0  0  0  0  0
   -3.5493    6.1918    0.5644 H   0  0  0  0  0  0  0  0  0  0  0  0
   -2.7408    6.6914   -0.9149 H   0  0  0  0  0  0  0  0  0  0  0  0
   -0.9796    7.1028    1.2864 H   0  0  0  0  0  0  0  0  0  0  0  0
   -1.8976   12.9512    2.6144 H   0  0  0  0  0  0  0  0  0  0  0  0
   -3.0953   11.1733    1.3467 H   0  0  0  0  0  0  0  0  0  0  0  0
    0.4734   13.3504    4.1548 H   0  0  0  0  0  0  0  0  0  0  0  0
    2.0260    9.5082    3.9353 H   0  0  0  0  0  0  0  0  0  0  0  0
   -0.7059    5.4797   -1.7241 H   0  0  0  0  0  0  0  0  0  0  0  0
    0.4755    3.3514   -1.7993 H   0  0  0  0  0  0  0  0  0  0  0  0
  1  2  3  0  0  0  0
  2  3  1  0  0  0  0
  3  4  2  0  0  0  0
  3  8  1  0  0  0  0
  4  5  1  0  0  0  0
  4 30  1  0  0  0  0
  5  6  2  0  0  0  0
  5 31  1  0  0  0  0
  6  7  1  0  0  0  0
  6 32  1  0  0  0  0
  7  8  2  0  0  0  0
  7 33  1  0  0  0  0
  8  9  1  0  0  0  0
  9 10  2  0  0  0  0
  9 29  1  0  0  0  0
 10 11  1  0  0  0  0
 10 34  1  0  0  0  0
 11 12  2  0  0  0  0
 11 35  1  0  0  0  0
 12 13  1  0  0  0  0
 12 28  1  0  0  0  0
 13 14  1  0  0  0  0
 13 36  1  0  0  0  0
 13 37  1  0  0  0  0
 14 15  1  0  0  0  0
 14 38  1  0  0  0  0
 15 16  2  0  0  0  0
 15 17  1  0  0  0  0
 17 18  2  0  0  0  0
 17 23  1  0  0  0  0
 18 19  1  0  0  0  0
 18 20  1  0  0  0  0
 20 21  2  0  0  0  0
 20 27  1  0  0  0  0
 21 22  1  0  0  0  0
 21 24  1  0  0  0  0
 22 23  2  0  0  0  0
 22 39  1  0  0  0  0
 23 40  1  0  0  0  0
 24 25  1  0  0  0  0
 24 41  1  0  0  0  0
 25 26  2  0  0  0  0
 25 27  1  0  0  0  0
 27 42  1  0  0  0  0
 28 29  2  0  0  0  0
 28 43  1  0  0  0  0
 29 44  1  0  0  0  0
M  END
$$$$
