
 OpenBabel01122422533D

 53 56  0  0  0  0  0  0  0  0999 V2000
    0.6636   -0.5432   -1.7071 C   0  0  0  0  0  0  0  0  0  0  0  0
    1.9366   -0.4904   -1.0819 O   0  0  0  0  0  0  0  0  0  0  0  0
    2.9637   -0.0881   -1.9816 C   0  0  0  0  0  0  0  0  0  0  0  0
    4.2258   -0.1595   -1.1971 C   0  0  0  0  0  0  0  0  0  0  0  0
    4.9115    0.8706   -0.5362 C   0  0  0  0  0  0  0  0  0  0  0  0
    4.5010    2.2725   -0.4903 C   0  0  0  0  0  0  0  0  0  0  0  0
    3.3650    2.6271   -0.8167 O   0  0  0  0  0  0  0  0  0  0  0  0
    5.3523    3.2793   -0.1147 N   0  0  0  0  0  0  0  0  0  0  0  0
    6.7587    3.3120    0.2203 C   0  0  0  0  0  0  0  0  0  0  0  0
    7.0410    3.2876    1.7057 C   0  0  0  0  0  0  0  0  0  0  0  0
    6.1731    2.6796    2.6227 C   0  0  0  0  0  0  0  0  0  0  0  0
    6.5686    2.4569    3.9432 C   0  0  0  0  0  0  0  0  0  0  0  0
    7.8717    2.7447    4.3432 C   0  0  0  0  0  0  0  0  0  0  0  0
    8.7276    3.4046    3.4687 C   0  0  0  0  0  0  0  0  0  0  0  0
    8.2537    3.7925    2.2084 C   0  0  0  0  0  0  0  0  0  0  0  0
    8.4799    5.1470    1.9722 O   0  0  0  0  0  0  0  0  0  0  0  0
    9.3507    5.6129    1.0430 C   0  0  0  0  0  0  0  0  0  0  0  0
    9.9497    4.8707    0.0412 C   0  0  0  0  0  0  0  0  0  0  0  0
   10.7189    5.5487   -0.9022 C   0  0  0  0  0  0  0  0  0  0  0  0
   10.8793    6.9320   -0.7997 C   0  0  0  0  0  0  0  0  0  0  0  0
   10.2683    7.5821    0.2466 C   0  0  0  0  0  0  0  0  0  0  0  0
    9.5034    6.9538    1.1586 N   0  0  0  0  0  0  0  0  0  0  0  0
    5.9883    0.2021    0.0643 C   0  0  0  0  0  0  0  0  0  0  0  0
    6.1019   -1.0670   -0.3177 N   0  0  0  0  0  0  0  0  0  0  0  0
    4.9915   -1.3148   -1.0517 N   0  0  0  0  0  0  0  0  0  0  0  0
    4.8165   -2.6363   -1.5821 C   0  0  0  0  0  0  0  0  0  0  0  0
    3.5623   -3.1818   -1.8824 C   0  0  0  0  0  0  0  0  0  0  0  0
    3.4609   -4.4634   -2.4302 C   0  0  0  0  0  0  0  0  0  0  0  0
    4.6051   -5.2183   -2.6739 C   0  0  0  0  0  0  0  0  0  0  0  0
    5.8558   -4.7013   -2.3514 C   0  0  0  0  0  0  0  0  0  0  0  0
    5.9609   -3.4242   -1.7953 C   0  0  0  0  0  0  0  0  0  0  0  0
   -0.0670   -0.8684   -0.9613 H   0  0  0  0  0  0  0  0  0  0  0  0
    0.6686   -1.2717   -2.5242 H   0  0  0  0  0  0  0  0  0  0  0  0
    0.3741    0.4433   -2.0797 H   0  0  0  0  0  0  0  0  0  0  0  0
    2.7606    0.9212   -2.3501 H   0  0  0  0  0  0  0  0  0  0  0  0
    2.9965   -0.7366   -2.8633 H   0  0  0  0  0  0  0  0  0  0  0  0
    4.8961    4.1819   -0.1626 H   0  0  0  0  0  0  0  0  0  0  0  0
    7.1429    4.2352   -0.2265 H   0  0  0  0  0  0  0  0  0  0  0  0
    7.2793    2.4890   -0.2737 H   0  0  0  0  0  0  0  0  0  0  0  0
    5.1649    2.3941    2.3307 H   0  0  0  0  0  0  0  0  0  0  0  0
    5.8568    2.0532    4.6586 H   0  0  0  0  0  0  0  0  0  0  0  0
    8.1850    2.5460    5.3643 H   0  0  0  0  0  0  0  0  0  0  0  0
    9.6862    3.7701    3.8295 H   0  0  0  0  0  0  0  0  0  0  0  0
    9.8118    3.8026   -0.0374 H   0  0  0  0  0  0  0  0  0  0  0  0
   11.1811    5.0071   -1.7204 H   0  0  0  0  0  0  0  0  0  0  0  0
   11.4701    7.4834   -1.5228 H   0  0  0  0  0  0  0  0  0  0  0  0
   10.3533    8.6575    0.3804 H   0  0  0  0  0  0  0  0  0  0  0  0
    6.7318    0.5710    0.7573 H   0  0  0  0  0  0  0  0  0  0  0  0
    2.6418   -2.6666   -1.6492 H   0  0  0  0  0  0  0  0  0  0  0  0
    2.4806   -4.8796   -2.6501 H   0  0  0  0  0  0  0  0  0  0  0  0
    4.5206   -6.2148   -3.1005 H   0  0  0  0  0  0  0  0  0  0  0  0
    6.7523   -5.2886   -2.5307 H   0  0  0  0  0  0  0  0  0  0  0  0
    6.9528   -3.0396   -1.5596 H   0  0  0  0  0  0  0  0  0  0  0  0
  1  2  1  0  0  0  0
  1 32  1  0  0  0  0
  1 33  1  0  0  0  0
  1 34  1  0  0  0  0
  2  3  1  0  0  0  0
  3  4  1  0  0  0  0
  3 35  1  0  0  0  0
  3 36  1  0  0  0  0
  4  5  2  0  0  0  0
  4 25  1  0  0  0  0
  5  6  1  0  0  0  0
  5 23  1  0  0  0  0
  6  7  2  0  0  0  0
  6  8  1  0  0  0  0
  8  9  1  0  0  0  0
  8 37  1  0  0  0  0
  9 10  1  0  0  0  0
  9 38  1  0  0  0  0
  9 39  1  0  0  0  0
 10 11  2  0  0  0  0
 10 15  1  0  0  0  0
 11 12  1  0  0  0  0
 11 40  1  0  0  0  0
 12 13  2  0  0  0  0
 12 41  1  0  0  0  0
 13 14  1  0  0  0  0
 13 42  1  0  0  0  0
 14 15  2  0  0  0  0
 14 43  1  0  0  0  0
 15 16  1  0  0  0  0
 16 17  1  0  0  0  0
 17 18  2  0  0  0  0
 17 22  1  0  0  0  0
 18 19  1  0  0  0  0
 18 44  1  0  0  0  0
 19 20  2  0  0  0  0
 19 45  1  0  0  0  0
 20 21  1  0  0  0  0
 20 46  1  0  0  0  0
 21 22  2  0  0  0  0
 21 47  1  0  0  0  0
 23 24  2  0  0  0  0
 23 48  1  0  0  0  0
 24 25  1  0  0  0  0
 25 26  1  0  0  0  0
 26 27  2  0  0  0  0
 26 31  1  0  0  0  0
 27 28  1  0  0  0  0
 27 49  1  0  0  0  0
 28 29  2  0  0  0  0
 28 50  1  0  0  0  0
 29 30  1  0  0  0  0
 29 51  1  0  0  0  0
 30 31  2  0  0  0  0
 30 52  1  0  0  0  0
 31 53  1  0  0  0  0
M  END
$$$$
