
 OpenBabel01122422463D

 42 45  0  0  0  0  0  0  0  0999 V2000
    3.2379    1.1231    0.3518 N   0  0  0  0  0  0  0  0  0  0  0  0
    2.5167   -0.0356    0.2451 C   0  0  0  0  0  0  0  0  0  0  0  0
    1.3159    0.0147    0.0242 O   0  0  0  0  0  0  0  0  0  0  0  0
    3.2567   -1.3198    0.4189 C   0  0  0  0  0  0  0  0  0  0  0  0
    4.3319   -1.3428    1.3211 C   0  0  0  0  0  0  0  0  0  0  0  0
    4.9901   -2.5371    1.5352 C   0  0  0  0  0  0  0  0  0  0  0  0
    6.0670   -2.5590    2.4298 N   0  0  0  0  0  0  0  0  0  0  0  0
    6.7958   -3.6925    2.7485 C   0  0  0  0  0  0  0  0  0  0  0  0
    6.5437   -4.8306    2.3689 O   0  0  0  0  0  0  0  0  0  0  0  0
    7.9524   -3.4026    3.5827 C   0  0  0  0  0  0  0  0  0  0  0  0
    9.1876   -4.0299    3.7323 C   0  0  0  0  0  0  0  0  0  0  0  0
    9.6756   -5.1588    2.9423 C   0  0  0  0  0  0  0  0  0  0  0  0
    9.3534   -5.2919    1.5794 C   0  0  0  0  0  0  0  0  0  0  0  0
    9.7985   -6.3860    0.8324 C   0  0  0  0  0  0  0  0  0  0  0  0
   10.6099   -7.3355    1.4338 C   0  0  0  0  0  0  0  0  0  0  0  0
   11.0442   -8.3797    0.7152 F   0  0  0  0  0  0  0  0  0  0  0  0
   10.9741   -7.1973    2.7667 C   0  0  0  0  0  0  0  0  0  0  0  0
   11.7793   -8.1035    3.3389 F   0  0  0  0  0  0  0  0  0  0  0  0
   10.5128   -6.1208    3.5251 C   0  0  0  0  0  0  0  0  0  0  0  0
    9.8473   -3.3309    4.7865 C   0  0  0  0  0  0  0  0  0  0  0  0
    9.0119   -2.3106    5.1701 C   0  0  0  0  0  0  0  0  0  0  0  0
    7.8766   -2.3234    4.4300 O   0  0  0  0  0  0  0  0  0  0  0  0
    4.6328   -3.6584    0.9002 N   0  0  0  0  0  0  0  0  0  0  0  0
    3.6049   -3.6589    0.0492 C   0  0  0  0  0  0  0  0  0  0  0  0
    3.2803   -4.8695   -0.5479 C   0  0  0  0  0  0  0  0  0  0  0  0
    2.2308   -4.9838   -1.4589 C   0  0  0  0  0  0  0  0  0  0  0  0
    1.4940   -3.8604   -1.7919 C   0  0  0  0  0  0  0  0  0  0  0  0
    1.8025   -2.6331   -1.2002 C   0  0  0  0  0  0  0  0  0  0  0  0
    2.8575   -2.5063   -0.2550 C   0  0  0  0  0  0  0  0  0  0  0  0
    2.7312    1.9824    0.1728 H   0  0  0  0  0  0  0  0  0  0  0  0
    4.2466    1.1637    0.3525 H   0  0  0  0  0  0  0  0  0  0  0  0
    4.6204   -0.4537    1.8685 H   0  0  0  0  0  0  0  0  0  0  0  0
    6.3592   -1.6971    2.8683 H   0  0  0  0  0  0  0  0  0  0  0  0
    8.7319   -4.5571    1.0726 H   0  0  0  0  0  0  0  0  0  0  0  0
    9.5078   -6.4970   -0.2075 H   0  0  0  0  0  0  0  0  0  0  0  0
   10.8099   -6.0617    4.5676 H   0  0  0  0  0  0  0  0  0  0  0  0
   10.8243   -3.5343    5.2034 H   0  0  0  0  0  0  0  0  0  0  0  0
    9.0803   -1.5285    5.9142 H   0  0  0  0  0  0  0  0  0  0  0  0
    3.8594   -5.7522   -0.2851 H   0  0  0  0  0  0  0  0  0  0  0  0
    2.0006   -5.9498   -1.9018 H   0  0  0  0  0  0  0  0  0  0  0  0
    0.6753   -3.9330   -2.5040 H   0  0  0  0  0  0  0  0  0  0  0  0
    1.2015   -1.7712   -1.4829 H   0  0  0  0  0  0  0  0  0  0  0  0
  1  2  1  0  0  0  0
  1 30  1  0  0  0  0
  1 31  1  0  0  0  0
  2  3  2  0  0  0  0
  2  4  1  0  0  0  0
  4  5  2  0  0  0  0
  4 29  1  0  0  0  0
  5  6  1  0  0  0  0
  5 32  1  0  0  0  0
  6  7  1  0  0  0  0
  6 23  2  0  0  0  0
  7  8  1  0  0  0  0
  7 33  1  0  0  0  0
  8  9  2  0  0  0  0
  8 10  1  0  0  0  0
 10 11  2  0  0  0  0
 10 22  1  0  0  0  0
 11 12  1  0  0  0  0
 11 20  1  0  0  0  0
 12 13  2  0  0  0  0
 12 19  1  0  0  0  0
 13 14  1  0  0  0  0
 13 34  1  0  0  0  0
 14 15  2  0  0  0  0
 14 35  1  0  0  0  0
 15 16  1  0  0  0  0
 15 17  1  0  0  0  0
 17 18  1  0  0  0  0
 17 19  2  0  0  0  0
 19 36  1  0  0  0  0
 20 21  2  0  0  0  0
 20 37  1  0  0  0  0
 21 22  1  0  0  0  0
 21 38  1  0  0  0  0
 23 24  1  0  0  0  0
 24 25  2  0  0  0  0
 24 29  1  0  0  0  0
 25 26  1  0  0  0  0
 25 39  1  0  0  0  0
 26 27  2  0  0  0  0
 26 40  1  0  0  0  0
 27 28  1  0  0  0  0
 27 41  1  0  0  0  0
 28 29  2  0  0  0  0
 28 42  1  0  0  0  0
M  END
$$$$
