
 OpenBabel01122422533D

 53 55  0  0  0  0  0  0  0  0999 V2000
    0.9977    0.1517    0.1147 O   0  0  0  0  0  0  0  0  0  0  0  0
    2.2231    0.0929    0.0397 C   0  0  0  0  0  0  0  0  0  0  0  0
    2.9761   -1.1190   -0.4582 C   0  0  0  0  0  0  0  0  0  0  0  0
    2.0517   -2.2669   -0.8572 C   0  0  0  0  0  0  0  0  0  0  0  0
    2.8579   -3.4484   -1.3579 C   0  0  0  0  0  0  0  0  0  0  0  0
    4.0833   -3.4506   -1.3948 O   0  0  0  0  0  0  0  0  0  0  0  0
    2.0935   -4.5113   -1.7789 N   0  0  0  0  0  0  0  0  0  0  0  0
    2.7230   -5.7326   -2.2353 C   0  0  0  0  0  0  0  0  0  0  0  0
    1.8903   -6.4646   -3.2571 C   0  0  0  0  0  0  0  0  0  0  0  0
    1.5113   -5.8321   -4.4463 C   0  0  0  0  0  0  0  0  0  0  0  0
    0.8137   -6.5348   -5.4245 C   0  0  0  0  0  0  0  0  0  0  0  0
    0.5053   -7.8840   -5.2334 C   0  0  0  0  0  0  0  0  0  0  0  0
    0.8917   -8.5677   -4.0665 C   0  0  0  0  0  0  0  0  0  0  0  0
    0.6372  -10.0170   -3.9018 C   0  0  0  0  0  0  0  0  0  0  0  0
    0.3716  -10.6014   -2.6548 C   0  0  0  0  0  0  0  0  0  0  0  0
    0.1626  -11.9768   -2.5398 C   0  0  0  0  0  0  0  0  0  0  0  0
    0.2135  -12.7486   -3.6858 C   0  0  0  0  0  0  0  0  0  0  0  0
    0.4631  -12.2446   -4.9090 N   0  0  0  0  0  0  0  0  0  0  0  0
    0.6728  -10.9054   -4.9825 C   0  0  0  0  0  0  0  0  0  0  0  0
    1.5715   -7.8236   -3.0803 C   0  0  0  0  0  0  0  0  0  0  0  0
    3.0502    1.1287    0.4016 N   0  0  0  0  0  0  0  0  0  0  0  0
    2.5235    2.3842    0.9035 C   0  0  0  0  0  0  0  0  0  0  0  0
    3.6650    3.3463    1.2314 C   0  0  0  0  0  0  0  0  0  0  0  0
    4.8456    3.0218    1.0894 O   0  0  0  0  0  0  0  0  0  0  0  0
    3.3386    4.7140    1.7331 C   0  0  0  0  0  0  0  0  0  0  0  0
    4.3913    5.6015    2.0216 C   0  0  0  0  0  0  0  0  0  0  0  0
    4.1186    6.8944    2.4774 C   0  0  0  0  0  0  0  0  0  0  0  0
    2.7984    7.3018    2.6434 C   0  0  0  0  0  0  0  0  0  0  0  0
    2.5371    8.5428    3.0717 F   0  0  0  0  0  0  0  0  0  0  0  0
    1.7478    6.4394    2.3719 C   0  0  0  0  0  0  0  0  0  0  0  0
    2.0241    5.1513    1.9212 C   0  0  0  0  0  0  0  0  0  0  0  0
    0.9809    4.3482    1.6757 F   0  0  0  0  0  0  0  0  0  0  0  0
    3.6569   -1.4449    0.3364 H   0  0  0  0  0  0  0  0  0  0  0  0
    3.5826   -0.8111   -1.3173 H   0  0  0  0  0  0  0  0  0  0  0  0
    1.3699   -1.9476   -1.6528 H   0  0  0  0  0  0  0  0  0  0  0  0
    1.4502   -2.5898   -0.0005 H   0  0  0  0  0  0  0  0  0  0  0  0
    1.1117   -4.5435   -1.5353 H   0  0  0  0  0  0  0  0  0  0  0  0
    2.8900   -6.3531   -1.3473 H   0  0  0  0  0  0  0  0  0  0  0  0
    3.7051   -5.5158   -2.6711 H   0  0  0  0  0  0  0  0  0  0  0  0
    1.7784   -4.7919   -4.6232 H   0  0  0  0  0  0  0  0  0  0  0  0
    0.5253   -6.0391   -6.3483 H   0  0  0  0  0  0  0  0  0  0  0  0
   -0.0402   -8.3974   -6.0232 H   0  0  0  0  0  0  0  0  0  0  0  0
    0.3171   -9.9935   -1.7554 H   0  0  0  0  0  0  0  0  0  0  0  0
   -0.0370  -12.4321   -1.5764 H   0  0  0  0  0  0  0  0  0  0  0  0
    0.0512  -13.8218   -3.6492 H   0  0  0  0  0  0  0  0  0  0  0  0
    0.8970  -10.5603   -5.9890 H   0  0  0  0  0  0  0  0  0  0  0  0
    1.9019   -8.3180   -2.1683 H   0  0  0  0  0  0  0  0  0  0  0  0
    4.0611    1.0411    0.3281 H   0  0  0  0  0  0  0  0  0  0  0  0
    1.9476    2.1654    1.8065 H   0  0  0  0  0  0  0  0  0  0  0  0
    1.8870    2.8086    0.1224 H   0  0  0  0  0  0  0  0  0  0  0  0
    5.4275    5.2922    1.8915 H   0  0  0  0  0  0  0  0  0  0  0  0
    4.9242    7.5886    2.7008 H   0  0  0  0  0  0  0  0  0  0  0  0
    0.7218    6.7636    2.5063 H   0  0  0  0  0  0  0  0  0  0  0  0
  1  2  2  0  0  0  0
  2  3  1  0  0  0  0
  2 21  1  0  0  0  0
  3  4  1  0  0  0  0
  3 33  1  0  0  0  0
  3 34  1  0  0  0  0
  4  5  1  0  0  0  0
  4 35  1  0  0  0  0
  4 36  1  0  0  0  0
  5  6  2  0  0  0  0
  5  7  1  0  0  0  0
  7  8  1  0  0  0  0
  7 37  1  0  0  0  0
  8  9  1  0  0  0  0
  8 38  1  0  0  0  0
  8 39  1  0  0  0  0
  9 10  2  0  0  0  0
  9 20  1  0  0  0  0
 10 11  1  0  0  0  0
 10 40  1  0  0  0  0
 11 12  2  0  0  0  0
 11 41  1  0  0  0  0
 12 13  1  0  0  0  0
 12 42  1  0  0  0  0
 13 14  1  0  0  0  0
 13 20  2  0  0  0  0
 14 15  2  0  0  0  0
 14 19  1  0  0  0  0
 15 16  1  0  0  0  0
 15 43  1  0  0  0  0
 16 17  2  0  0  0  0
 16 44  1  0  0  0  0
 17 18  1  0  0  0  0
 17 45  1  0  0  0  0
 18 19  2  0  0  0  0
 19 46  1  0  0  0  0
 20 47  1  0  0  0  0
 21 22  1  0  0  0  0
 21 48  1  0  0  0  0
 22 23  1  0  0  0  0
 22 49  1  0  0  0  0
 22 50  1  0  0  0  0
 23 24  2  0  0  0  0
 23 25  1  0  0  0  0
 25 26  2  0  0  0  0
 25 31  1  0  0  0  0
 26 27  1  0  0  0  0
 26 51  1  0  0  0  0
 27 28  2  0  0  0  0
 27 52  1  0  0  0  0
 28 29  1  0  0  0  0
 28 30  1  0  0  0  0
 30 31  2  0  0  0  0
 30 53  1  0  0  0  0
 31 32  1  0  0  0  0
M  END
$$$$
