
 OpenBabel01122422533D

 41 44  0  0  0  0  0  0  0  0999 V2000
    0.9553   -0.2036    0.0262 O   0  0  0  0  0  0  0  0  0  0  0  0
    2.1768   -0.0251    0.0477 C   0  0  0  0  0  0  0  0  0  0  0  0
    2.8492    0.7839    0.9502 N   0  0  0  0  0  0  0  0  0  0  0  0
    2.2574    1.4435    2.0491 C   0  0  0  0  0  0  0  0  0  0  0  0
    0.9995    1.1100    2.5346 C   0  0  0  0  0  0  0  0  0  0  0  0
    0.4621    1.8049    3.6133 C   0  0  0  0  0  0  0  0  0  0  0  0
    1.1882    2.8324    4.2026 C   0  0  0  0  0  0  0  0  0  0  0  0
    0.6647    3.5662    5.3689 C   0  0  0  0  0  0  0  0  0  0  0  0
    1.5232    4.1225    6.3196 C   0  0  0  0  0  0  0  0  0  0  0  0
    0.9854    4.7281    7.4441 C   0  0  0  0  0  0  0  0  0  0  0  0
   -0.3388    4.8274    7.6818 N   0  0  0  0  0  0  0  0  0  0  0  0
   -1.1617    4.3131    6.7491 C   0  0  0  0  0  0  0  0  0  0  0  0
   -0.7153    3.6922    5.5930 C   0  0  0  0  0  0  0  0  0  0  0  0
    2.4272    3.1685    3.7615 N   0  0  0  0  0  0  0  0  0  0  0  0
    2.9272    2.4684    2.7056 C   0  0  0  0  0  0  0  0  0  0  0  0
    3.0135   -0.6138   -1.0054 C   0  0  0  0  0  0  0  0  0  0  0  0
    4.3472   -0.4284   -1.0616 N   0  0  0  0  0  0  0  0  0  0  0  0
    4.7034   -0.9192   -2.2801 N   0  0  0  0  0  0  0  0  0  0  0  0
    6.0142   -0.7464   -2.7893 C   0  0  0  0  0  0  0  0  0  0  0  0
    7.0039   -0.1470   -2.0014 C   0  0  0  0  0  0  0  0  0  0  0  0
    8.2776    0.0360   -2.5315 C   0  0  0  0  0  0  0  0  0  0  0  0
    9.2346    0.5801   -1.7682 F   0  0  0  0  0  0  0  0  0  0  0  0
    8.5775   -0.3383   -3.8351 C   0  0  0  0  0  0  0  0  0  0  0  0
    7.5890   -0.9255   -4.6067 C   0  0  0  0  0  0  0  0  0  0  0  0
    7.8509   -1.2644   -5.8745 F   0  0  0  0  0  0  0  0  0  0  0  0
    6.3179   -1.1529   -4.0957 C   0  0  0  0  0  0  0  0  0  0  0  0
    3.6464   -1.5189   -2.9212 C   0  0  0  0  0  0  0  0  0  0  0  0
    2.5559   -1.3757   -2.1077 C   0  0  0  0  0  0  0  0  0  0  0  0
    3.8177    0.9858    0.7140 H   0  0  0  0  0  0  0  0  0  0  0  0
    0.4084    0.3032    2.1173 H   0  0  0  0  0  0  0  0  0  0  0  0
   -0.5103    1.5126    3.9912 H   0  0  0  0  0  0  0  0  0  0  0  0
    2.6016    4.0661    6.1991 H   0  0  0  0  0  0  0  0  0  0  0  0
    1.6282    5.1529    8.2088 H   0  0  0  0  0  0  0  0  0  0  0  0
   -2.2210    4.4023    6.9602 H   0  0  0  0  0  0  0  0  0  0  0  0
   -1.4463    3.3079    4.8882 H   0  0  0  0  0  0  0  0  0  0  0  0
    3.9146    2.7933    2.3907 H   0  0  0  0  0  0  0  0  0  0  0  0
    6.8115    0.1713   -0.9806 H   0  0  0  0  0  0  0  0  0  0  0  0
    9.5672   -0.1726   -4.2421 H   0  0  0  0  0  0  0  0  0  0  0  0
    5.5918   -1.6256   -4.7480 H   0  0  0  0  0  0  0  0  0  0  0  0
    3.7378   -1.9637   -3.9001 H   0  0  0  0  0  0  0  0  0  0  0  0
    1.5452   -1.7073   -2.3146 H   0  0  0  0  0  0  0  0  0  0  0  0
  1  2  2  0  0  0  0
  2  3  1  0  0  0  0
  2 16  1  0  0  0  0
  3  4  1  0  0  0  0
  3 29  1  0  0  0  0
  4  5  2  0  0  0  0
  4 15  1  0  0  0  0
  5  6  1  0  0  0  0
  5 30  1  0  0  0  0
  6  7  2  0  0  0  0
  6 31  1  0  0  0  0
  7  8  1  0  0  0  0
  7 14  1  0  0  0  0
  8  9  2  0  0  0  0
  8 13  1  0  0  0  0
  9 10  1  0  0  0  0
  9 32  1  0  0  0  0
 10 11  2  0  0  0  0
 10 33  1  0  0  0  0
 11 12  1  0  0  0  0
 12 13  2  0  0  0  0
 12 34  1  0  0  0  0
 13 35  1  0  0  0  0
 14 15  2  0  0  0  0
 15 36  1  0  0  0  0
 16 17  2  0  0  0  0
 16 28  1  0  0  0  0
 17 18  1  0  0  0  0
 18 19  1  0  0  0  0
 18 27  1  0  0  0  0
 19 20  2  0  0  0  0
 19 26  1  0  0  0  0
 20 21  1  0  0  0  0
 20 37  1  0  0  0  0
 21 22  1  0  0  0  0
 21 23  2  0  0  0  0
 23 24  1  0  0  0  0
 23 38  1  0  0  0  0
 24 25  1  0  0  0  0
 24 26  2  0  0  0  0
 26 39  1  0  0  0  0
 27 28  2  0  0  0  0
 27 40  1  0  0  0  0
 28 41  1  0  0  0  0
M  END
$$$$
