
 OpenBabel01122422533D

 50 53  0  0  0  0  0  0  0  0999 V2000
    2.7953    0.5897    0.7803 O   0  0  0  0  0  0  0  0  0  0  0  0
    2.2050   -0.0926   -0.0528 C   0  0  0  0  0  0  0  0  0  0  0  0
    2.8996   -0.7262   -1.0291 N   0  0  0  0  0  0  0  0  0  0  0  0
    2.3799   -1.6267   -2.0378 C   0  0  0  0  0  0  0  0  0  0  0  0
    2.1277   -3.0292   -1.5214 C   0  0  0  0  0  0  0  0  0  0  0  0
    1.4252   -3.9253   -2.3157 C   0  0  0  0  0  0  0  0  0  0  0  0
    1.3343   -5.2541   -1.9057 C   0  0  0  0  0  0  0  0  0  0  0  0
    0.7445   -6.2529   -2.6472 O   0  0  0  0  0  0  0  0  0  0  0  0
    0.8206   -6.2165   -4.0231 C   0  0  0  0  0  0  0  0  0  0  0  0
    1.9057   -5.6940   -4.7421 C   0  0  0  0  0  0  0  0  0  0  0  0
    1.8637   -5.6417   -6.1368 C   0  0  0  0  0  0  0  0  0  0  0  0
    0.7698   -6.1753   -6.8077 C   0  0  0  0  0  0  0  0  0  0  0  0
    0.7319   -6.1221   -8.1457 F   0  0  0  0  0  0  0  0  0  0  0  0
   -0.2704   -6.7646   -6.0985 C   0  0  0  0  0  0  0  0  0  0  0  0
   -1.3057   -7.3096   -6.7515 F   0  0  0  0  0  0  0  0  0  0  0  0
   -0.2534   -6.7884   -4.7075 C   0  0  0  0  0  0  0  0  0  0  0  0
    1.8257   -5.6222   -0.6589 C   0  0  0  0  0  0  0  0  0  0  0  0
    2.4634   -4.6581    0.0954 C   0  0  0  0  0  0  0  0  0  0  0  0
    2.6509   -3.3889   -0.3214 N   0  0  0  0  0  0  0  0  0  0  0  0
    0.8547   -0.2338   -0.0995 N   0  0  0  0  0  0  0  0  0  0  0  0
   -0.0371    0.3845    0.8485 C   0  0  0  0  0  0  0  0  0  0  0  0
   -1.0596    1.2006    0.1056 C   0  0  0  0  0  0  0  0  0  0  0  0
   -2.2355    0.6350   -0.4196 C   0  0  0  0  0  0  0  0  0  0  0  0
   -2.4728   -0.6952   -0.1769 O   0  0  0  0  0  0  0  0  0  0  0  0
   -3.8131   -1.0824   -0.4825 C   0  0  0  0  0  0  0  0  0  0  0  0
   -4.2445   -0.6460   -1.7639 O   0  0  0  0  0  0  0  0  0  0  0  0
   -4.3465    0.7737   -1.7754 C   0  0  0  0  0  0  0  0  0  0  0  0
   -3.1130    1.4009   -1.1974 C   0  0  0  0  0  0  0  0  0  0  0  0
   -2.8399    2.7555   -1.4166 C   0  0  0  0  0  0  0  0  0  0  0  0
   -1.6811    3.3175   -0.8894 C   0  0  0  0  0  0  0  0  0  0  0  0
   -1.4160    4.6097   -1.1154 F   0  0  0  0  0  0  0  0  0  0  0  0
   -0.7911    2.5532   -0.1462 C   0  0  0  0  0  0  0  0  0  0  0  0
    3.8937   -0.7537   -0.8457 H   0  0  0  0  0  0  0  0  0  0  0  0
    3.1187   -1.6709   -2.8451 H   0  0  0  0  0  0  0  0  0  0  0  0
    1.4545   -1.2069   -2.4469 H   0  0  0  0  0  0  0  0  0  0  0  0
    0.9939   -3.5929   -3.2540 H   0  0  0  0  0  0  0  0  0  0  0  0
    2.7837   -5.3063   -4.2313 H   0  0  0  0  0  0  0  0  0  0  0  0
    2.6755   -5.1916   -6.7000 H   0  0  0  0  0  0  0  0  0  0  0  0
   -1.0781   -7.2445   -4.1690 H   0  0  0  0  0  0  0  0  0  0  0  0
    1.7230   -6.6361   -0.2895 H   0  0  0  0  0  0  0  0  0  0  0  0
    2.8655   -4.8858    1.0791 H   0  0  0  0  0  0  0  0  0  0  0  0
    0.4768   -1.0258   -0.5883 H   0  0  0  0  0  0  0  0  0  0  0  0
    0.5140    1.0082    1.5614 H   0  0  0  0  0  0  0  0  0  0  0  0
   -0.5098   -0.4164    1.4284 H   0  0  0  0  0  0  0  0  0  0  0  0
   -4.4977   -0.7360    0.3039 H   0  0  0  0  0  0  0  0  0  0  0  0
   -3.8446   -2.1762   -0.4794 H   0  0  0  0  0  0  0  0  0  0  0  0
   -5.2325    1.0797   -1.2090 H   0  0  0  0  0  0  0  0  0  0  0  0
   -4.4769    1.0808   -2.8188 H   0  0  0  0  0  0  0  0  0  0  0  0
   -3.5046    3.3788   -2.0036 H   0  0  0  0  0  0  0  0  0  0  0  0
    0.1224    3.0154    0.2221 H   0  0  0  0  0  0  0  0  0  0  0  0
  1  2  2  0  0  0  0
  2  3  1  0  0  0  0
  2 20  1  0  0  0  0
  3  4  1  0  0  0  0
  3 33  1  0  0  0  0
  4  5  1  0  0  0  0
  4 34  1  0  0  0  0
  4 35  1  0  0  0  0
  5  6  2  0  0  0  0
  5 19  1  0  0  0  0
  6  7  1  0  0  0  0
  6 36  1  0  0  0  0
  7  8  1  0  0  0  0
  7 17  2  0  0  0  0
  8  9  1  0  0  0  0
  9 10  2  0  0  0  0
  9 16  1  0  0  0  0
 10 11  1  0  0  0  0
 10 37  1  0  0  0  0
 11 12  2  0  0  0  0
 11 38  1  0  0  0  0
 12 13  1  0  0  0  0
 12 14  1  0  0  0  0
 14 15  1  0  0  0  0
 14 16  2  0  0  0  0
 16 39  1  0  0  0  0
 17 18  1  0  0  0  0
 17 40  1  0  0  0  0
 18 19  2  0  0  0  0
 18 41  1  0  0  0  0
 20 21  1  0  0  0  0
 20 42  1  0  0  0  0
 21 22  1  0  0  0  0
 21 43  1  0  0  0  0
 21 44  1  0  0  0  0
 22 23  2  0  0  0  0
 22 32  1  0  0  0  0
 23 24  1  0  0  0  0
 23 28  1  0  0  0  0
 24 25  1  0  0  0  0
 25 26  1  0  0  0  0
 25 45  1  0  0  0  0
 25 46  1  0  0  0  0
 26 27  1  0  0  0  0
 27 28  1  0  0  0  0
 27 47  1  0  0  0  0
 27 48  1  0  0  0  0
 28 29  2  0  0  0  0
 29 30  1  0  0  0  0
 29 49  1  0  0  0  0
 30 31  1  0  0  0  0
 30 32  2  0  0  0  0
 32 50  1  0  0  0  0
M  END
$$$$
