
 OpenBabel01122422533D

 48 51  0  0  0  0  0  0  0  0999 V2000
    0.8698   -4.4796    1.8581 C   0  0  0  0  0  0  0  0  0  0  0  0
    2.2958   -4.5133    1.9126 O   0  0  0  0  0  0  0  0  0  0  0  0
    2.9049   -4.3747    0.7031 C   0  0  0  0  0  0  0  0  0  0  0  0
    2.3237   -4.2316   -0.3584 O   0  0  0  0  0  0  0  0  0  0  0  0
    4.3904   -4.4011    0.8993 C   0  0  0  0  0  0  0  0  0  0  0  0
    4.8792   -5.1962    1.9474 C   0  0  0  0  0  0  0  0  0  0  0  0
    6.2336   -5.2101    2.2357 C   0  0  0  0  0  0  0  0  0  0  0  0
    7.1216   -4.4762    1.4445 C   0  0  0  0  0  0  0  0  0  0  0  0
    6.6981   -3.7430    0.3086 C   0  0  0  0  0  0  0  0  0  0  0  0
    7.6076   -3.0924   -0.5911 C   0  0  0  0  0  0  0  0  0  0  0  0
    9.1203   -3.2450   -0.5455 C   0  0  0  0  0  0  0  0  0  0  0  0
    9.7718   -2.2035    0.2153 N   0  0  0  0  0  0  0  0  0  0  0  0
   10.6894   -1.3162   -0.3085 C   0  0  0  0  0  0  0  0  0  0  0  0
   11.0238   -1.2996   -1.4939 O   0  0  0  0  0  0  0  0  0  0  0  0
   11.2535   -0.3877    0.6828 C   0  0  0  0  0  0  0  0  0  0  0  0
   10.8568   -0.4138    1.9738 N   0  0  0  0  0  0  0  0  0  0  0  0
   11.5572    0.6051    2.6038 O   0  0  0  0  0  0  0  0  0  0  0  0
   12.3741    1.2309    1.7105 C   0  0  0  0  0  0  0  0  0  0  0  0
   13.1789    2.3392    2.2154 C   0  0  0  0  0  0  0  0  0  0  0  0
   12.6996    3.1603    3.2505 C   0  0  0  0  0  0  0  0  0  0  0  0
   13.4458    4.2532    3.7075 C   0  0  0  0  0  0  0  0  0  0  0  0
   14.6845    4.5410    3.1382 C   0  0  0  0  0  0  0  0  0  0  0  0
   15.1825    3.7370    2.1149 C   0  0  0  0  0  0  0  0  0  0  0  0
   14.4333    2.6473    1.6606 C   0  0  0  0  0  0  0  0  0  0  0  0
   14.9440    1.8615    0.6608 O   0  0  0  0  0  0  0  0  0  0  0  0
   12.2239    0.6221    0.4850 C   0  0  0  0  0  0  0  0  0  0  0  0
    7.1038   -2.3186   -1.6511 C   0  0  0  0  0  0  0  0  0  0  0  0
    5.7389   -2.2020   -1.8581 C   0  0  0  0  0  0  0  0  0  0  0  0
    4.8541   -2.8726   -1.0202 C   0  0  0  0  0  0  0  0  0  0  0  0
    5.2898   -3.6730    0.0600 C   0  0  0  0  0  0  0  0  0  0  0  0
    0.4896   -4.6624    2.8670 H   0  0  0  0  0  0  0  0  0  0  0  0
    0.4877   -5.2642    1.1975 H   0  0  0  0  0  0  0  0  0  0  0  0
    0.5294   -3.4930    1.5306 H   0  0  0  0  0  0  0  0  0  0  0  0
    4.2027   -5.7957    2.5542 H   0  0  0  0  0  0  0  0  0  0  0  0
    6.5957   -5.7950    3.0787 H   0  0  0  0  0  0  0  0  0  0  0  0
    8.1671   -4.4837    1.7440 H   0  0  0  0  0  0  0  0  0  0  0  0
    9.5153   -3.2636   -1.5695 H   0  0  0  0  0  0  0  0  0  0  0  0
    9.4048   -4.2061   -0.1074 H   0  0  0  0  0  0  0  0  0  0  0  0
    9.6274   -2.1568    1.2156 H   0  0  0  0  0  0  0  0  0  0  0  0
   11.7267    2.9691    3.7005 H   0  0  0  0  0  0  0  0  0  0  0  0
   13.0559    4.8836    4.5034 H   0  0  0  0  0  0  0  0  0  0  0  0
   15.2617    5.3917    3.4920 H   0  0  0  0  0  0  0  0  0  0  0  0
   16.1522    3.9705    1.6857 H   0  0  0  0  0  0  0  0  0  0  0  0
   15.7893    2.2337    0.3616 H   0  0  0  0  0  0  0  0  0  0  0  0
   12.7342    0.8841   -0.4315 H   0  0  0  0  0  0  0  0  0  0  0  0
    7.7841   -1.8218   -2.3425 H   0  0  0  0  0  0  0  0  0  0  0  0
    5.3571   -1.6117   -2.6853 H   0  0  0  0  0  0  0  0  0  0  0  0
    3.7961   -2.7560   -1.2450 H   0  0  0  0  0  0  0  0  0  0  0  0
  1  2  1  0  0  0  0
  1 31  1  0  0  0  0
  1 32  1  0  0  0  0
  1 33  1  0  0  0  0
  2  3  1  0  0  0  0
  3  4  2  0  0  0  0
  3  5  1  0  0  0  0
  5  6  2  0  0  0  0
  5 30  1  0  0  0  0
  6  7  1  0  0  0  0
  6 34  1  0  0  0  0
  7  8  2  0  0  0  0
  7 35  1  0  0  0  0
  8  9  1  0  0  0  0
  8 36  1  0  0  0  0
  9 10  2  0  0  0  0
  9 30  1  0  0  0  0
 10 11  1  0  0  0  0
 10 27  1  0  0  0  0
 11 12  1  0  0  0  0
 11 37  1  0  0  0  0
 11 38  1  0  0  0  0
 12 13  1  0  0  0  0
 12 39  1  0  0  0  0
 13 14  2  0  0  0  0
 13 15  1  0  0  0  0
 15 16  2  0  0  0  0
 15 26  1  0  0  0  0
 16 17  1  0  0  0  0
 17 18  1  0  0  0  0
 18 19  1  0  0  0  0
 18 26  2  0  0  0  0
 19 20  2  0  0  0  0
 19 24  1  0  0  0  0
 20 21  1  0  0  0  0
 20 40  1  0  0  0  0
 21 22  2  0  0  0  0
 21 41  1  0  0  0  0
 22 23  1  0  0  0  0
 22 42  1  0  0  0  0
 23 24  2  0  0  0  0
 23 43  1  0  0  0  0
 24 25  1  0  0  0  0
 25 44  1  0  0  0  0
 26 45  1  0  0  0  0
 27 28  2  0  0  0  0
 27 46  1  0  0  0  0
 28 29  1  0  0  0  0
 28 47  1  0  0  0  0
 29 30  2  0  0  0  0
 29 48  1  0  0  0  0
M  END
$$$$
