
 OpenBabel01122422533D

 49 52  0  0  0  0  0  0  0  0999 V2000
   -3.9712    0.9897    1.1969 N   0  0  0  0  0  0  0  0  0  0  0  0
   -2.8547    1.3114    1.1660 C   0  0  0  0  0  0  0  0  0  0  0  0
   -1.4963    1.7120    1.1020 C   0  0  0  0  0  0  0  0  0  0  0  0
   -0.5533    0.9428    0.4266 C   0  0  0  0  0  0  0  0  0  0  0  0
    0.7874    1.3358    0.3920 C   0  0  0  0  0  0  0  0  0  0  0  0
    1.1983    2.5147    1.0420 C   0  0  0  0  0  0  0  0  0  0  0  0
    2.6297    2.8966    1.0041 C   0  0  0  0  0  0  0  0  0  0  0  0
    3.4356    2.1483    0.4554 O   0  0  0  0  0  0  0  0  0  0  0  0
    2.9980    4.0874    1.5917 N   0  0  0  0  0  0  0  0  0  0  0  0
    4.3912    4.5066    1.6553 C   0  0  0  0  0  0  0  0  0  0  0  0
    5.0098    4.7300    0.2723 C   0  0  0  0  0  0  0  0  0  0  0  0
    6.4346    5.1898    0.3223 C   0  0  0  0  0  0  0  0  0  0  0  0
    6.7757    6.4608    0.3976 N   0  0  0  0  0  0  0  0  0  0  0  0
    8.1407    6.4960    0.3303 C   0  0  0  0  0  0  0  0  0  0  0  0
    8.9980    7.6075    0.3934 C   0  0  0  0  0  0  0  0  0  0  0  0
   10.3809    7.4074    0.3455 C   0  0  0  0  0  0  0  0  0  0  0  0
   10.8981    6.1260    0.1759 C   0  0  0  0  0  0  0  0  0  0  0  0
   10.0552    5.0090    0.0713 C   0  0  0  0  0  0  0  0  0  0  0  0
    8.6702    5.2155    0.1923 C   0  0  0  0  0  0  0  0  0  0  0  0
    7.5617    4.3793    0.2409 N   0  0  0  0  0  0  0  0  0  0  0  0
    7.6004    2.9235    0.4202 C   0  0  0  0  0  0  0  0  0  0  0  0
    7.5645    2.1478   -0.8720 C   0  0  0  0  0  0  0  0  0  0  0  0
    8.5859    2.2664   -1.8227 C   0  0  0  0  0  0  0  0  0  0  0  0
    8.4541    1.6906   -3.0842 C   0  0  0  0  0  0  0  0  0  0  0  0
    7.3272    0.9335   -3.3878 C   0  0  0  0  0  0  0  0  0  0  0  0
    6.3634    0.7000   -2.4103 C   0  0  0  0  0  0  0  0  0  0  0  0
    6.4844    1.2979   -1.1553 C   0  0  0  0  0  0  0  0  0  0  0  0
    0.2427    3.2736    1.7214 C   0  0  0  0  0  0  0  0  0  0  0  0
    0.5711    4.4083    2.3552 F   0  0  0  0  0  0  0  0  0  0  0  0
   -1.0915    2.8895    1.7459 C   0  0  0  0  0  0  0  0  0  0  0  0
   -0.8540    0.0227   -0.0773 H   0  0  0  0  0  0  0  0  0  0  0  0
    1.5064    0.7217   -0.1499 H   0  0  0  0  0  0  0  0  0  0  0  0
    2.3063    4.6438    2.0860 H   0  0  0  0  0  0  0  0  0  0  0  0
    4.9317    3.7308    2.2061 H   0  0  0  0  0  0  0  0  0  0  0  0
    4.4155    5.4245    2.2558 H   0  0  0  0  0  0  0  0  0  0  0  0
    4.4187    5.4991   -0.2442 H   0  0  0  0  0  0  0  0  0  0  0  0
    4.9324    3.8382   -0.3532 H   0  0  0  0  0  0  0  0  0  0  0  0
    8.5830    8.6036    0.4959 H   0  0  0  0  0  0  0  0  0  0  0  0
   11.0521    8.2583    0.4369 H   0  0  0  0  0  0  0  0  0  0  0  0
   11.9770    5.9890    0.1292 H   0  0  0  0  0  0  0  0  0  0  0  0
   10.4876    4.0295   -0.0926 H   0  0  0  0  0  0  0  0  0  0  0  0
    6.7432    2.6562    1.0477 H   0  0  0  0  0  0  0  0  0  0  0  0
    8.5006    2.6713    0.9919 H   0  0  0  0  0  0  0  0  0  0  0  0
    9.4786    2.8444   -1.6153 H   0  0  0  0  0  0  0  0  0  0  0  0
    9.2157    1.8692   -3.8384 H   0  0  0  0  0  0  0  0  0  0  0  0
    7.1956    0.5358   -4.3896 H   0  0  0  0  0  0  0  0  0  0  0  0
    5.4948    0.0869   -2.6358 H   0  0  0  0  0  0  0  0  0  0  0  0
    5.7027    1.1244   -0.4167 H   0  0  0  0  0  0  0  0  0  0  0  0
   -1.8111    3.5095    2.2786 H   0  0  0  0  0  0  0  0  0  0  0  0
  1  2  3  0  0  0  0
  2  3  1  0  0  0  0
  3  4  2  0  0  0  0
  3 30  1  0  0  0  0
  4  5  1  0  0  0  0
  4 31  1  0  0  0  0
  5  6  2  0  0  0  0
  5 32  1  0  0  0  0
  6  7  1  0  0  0  0
  6 28  1  0  0  0  0
  7  8  2  0  0  0  0
  7  9  1  0  0  0  0
  9 10  1  0  0  0  0
  9 33  1  0  0  0  0
 10 11  1  0  0  0  0
 10 34  1  0  0  0  0
 10 35  1  0  0  0  0
 11 12  1  0  0  0  0
 11 36  1  0  0  0  0
 11 37  1  0  0  0  0
 12 13  2  0  0  0  0
 12 20  1  0  0  0  0
 13 14  1  0  0  0  0
 14 15  2  0  0  0  0
 14 19  1  0  0  0  0
 15 16  1  0  0  0  0
 15 38  1  0  0  0  0
 16 17  2  0  0  0  0
 16 39  1  0  0  0  0
 17 18  1  0  0  0  0
 17 40  1  0  0  0  0
 18 19  2  0  0  0  0
 18 41  1  0  0  0  0
 19 20  1  0  0  0  0
 20 21  1  0  0  0  0
 21 22  1  0  0  0  0
 21 42  1  0  0  0  0
 21 43  1  0  0  0  0
 22 23  2  0  0  0  0
 22 27  1  0  0  0  0
 23 24  1  0  0  0  0
 23 44  1  0  0  0  0
 24 25  2  0  0  0  0
 24 45  1  0  0  0  0
 25 26  1  0  0  0  0
 25 46  1  0  0  0  0
 26 27  2  0  0  0  0
 26 47  1  0  0  0  0
 27 48  1  0  0  0  0
 28 29  1  0  0  0  0
 28 30  2  0  0  0  0
 30 49  1  0  0  0  0
M  END
$$$$
