REMARK  Name = 
REMARK  4 active torsions:
REMARK  status: ('A' for Active; 'I' for Inactive)
REMARK    1  A    between atoms: C_2  and  C_3
REMARK    2  A    between atoms: C_4  and  N_5
REMARK    3  A    between atoms: C_6  and  C_8
REMARK    4  A    between atoms: N_22  and  C_23
REMARK                            x       y       z     vdW  Elec       q    Type
REMARK                         _______ _______ _______ _____ _____    ______ ____
ROOT
ATOM      1  N   UNL     1       3.798   2.371  -0.186  0.00  0.00    +0.000 N 
ATOM      2  C   UNL     1       4.420   3.624  -0.216  0.00  0.00    +0.000 C 
ATOM      3  O   UNL     1       5.622   3.827  -0.074  0.00  0.00    +0.000 OA
ATOM      4  H   UNL     1       2.790   2.398  -0.322  0.00  0.00    +0.000 HD
ENDROOT
BRANCH   2   5
ATOM      5  C   UNL     1       3.500   4.808  -0.409  0.00  0.00    +0.000 A 
ATOM      6  C   UNL     1       4.069   6.028  -0.409  0.00  0.00    +0.000 A 
ATOM      7  C   UNL     1       3.223   7.228  -0.467  0.00  0.00    +0.000 A 
ATOM      8  O   UNL     1       3.708   8.354  -0.533  0.00  0.00    +0.000 OA
ATOM      9  C   UNL     1       1.775   7.000  -0.399  0.00  0.00    +0.000 A 
ATOM     10  C   UNL     1       0.890   8.066  -0.229  0.00  0.00    +0.000 A 
ATOM     11  C   UNL     1      -0.469   7.802  -0.141  0.00  0.00    +0.000 A 
ATOM     12  F   UNL     1      -1.327   8.807   0.075  0.00  0.00    +0.000 F 
ATOM     13  C   UNL     1      -0.957   6.502  -0.261  0.00  0.00    +0.000 A 
ATOM     14  C   UNL     1      -0.065   5.439  -0.437  0.00  0.00    +0.000 A 
ATOM     15  C   UNL     1       1.306   5.684  -0.474  0.00  0.00    +0.000 A 
ATOM     16  O   UNL     1       2.138   4.588  -0.542  0.00  0.00    +0.000 OA
ENDBRANCH   2   5
BRANCH   1  18
ATOM     17  C   UNL     1       3.713  -0.071  -0.018  0.00  0.00    +0.000 A 
ATOM     18  C   UNL     1       4.402   1.105  -0.037  0.00  0.00    +0.000 A 
ATOM     19  C   UNL     1       5.843   1.020   0.116  0.00  0.00    +0.000 A 
ATOM     20  C   UNL     1       6.475  -0.154   0.163  0.00  0.00    +0.000 A 
ATOM     21  N   UNL     1       5.795  -1.356   0.107  0.00  0.00    +0.000 N 
ATOM     22  C   UNL     1       4.392  -1.393   0.045  0.00  0.00    +0.000 A 
ATOM     23  O   UNL     1       3.707  -2.412  -0.022  0.00  0.00    +0.000 OA
BRANCH  21  24
ATOM     24  C   UNL     1       6.514  -2.582   0.033  0.00  0.00    +0.000 A 
ATOM     25  C   UNL     1       7.572  -2.712  -0.876  0.00  0.00    +0.000 A 
ATOM     26  C   UNL     1       8.206  -3.939  -1.042  0.00  0.00    +0.000 A 
ATOM     27  C   UNL     1       7.820  -5.033  -0.268  0.00  0.00    +0.000 A 
ATOM     28  C   UNL     1       6.801  -4.899   0.673  0.00  0.00    +0.000 A 
ATOM     29  C   UNL     1       6.143  -3.679   0.817  0.00  0.00    +0.000 A 
ENDBRANCH  21  24
BRANCH  17  31
ATOM     30  N   UNL     1       0.932  -0.071  -0.018  0.00  0.00    +0.000 NA
ATOM     31  C   UNL     1       2.193  -0.071  -0.018  0.00  0.00    +0.000 C 
ENDBRANCH  17  31
ENDBRANCH   1  18
TORSDOF 4
