REMARK  Name = 
REMARK  6 active torsions:
REMARK  status: ('A' for Active; 'I' for Inactive)
REMARK    1  A    between atoms: C_2  and  C_16
REMARK    2  A    between atoms: N_3  and  C_4
REMARK    3  A    between atoms: C_7  and  C_8
REMARK    4  A    between atoms: C_19  and  C_20
REMARK    5  A    between atoms: C_20  and  C_22
REMARK    6  A    between atoms: C_24  and  O_25
REMARK                            x       y       z     vdW  Elec       q    Type
REMARK                         _______ _______ _______ _____ _____    ______ ____
ROOT
ATOM      1  O   UNL     1       0.938   0.230  -0.053  0.00  0.00    +0.000 OA
ATOM      2  C   UNL     1       2.149   0.066  -0.124  0.00  0.00    +0.000 C 
ATOM      3  N   UNL     1       2.810  -1.077  -0.551  0.00  0.00    +0.000 N 
ATOM      4  H   UNL     1       3.803  -1.141  -0.369  0.00  0.00    +0.000 HD
ENDROOT
BRANCH   2   5
ATOM      5  C   UNL     1       3.011   1.177   0.346  0.00  0.00    +0.000 A 
ATOM      6  C   UNL     1       2.550   1.955   1.417  0.00  0.00    +0.000 A 
ATOM      7  C   UNL     1       3.272   3.072   1.834  0.00  0.00    +0.000 A 
ATOM      8  C   UNL     1       4.454   3.426   1.176  0.00  0.00    +0.000 A 
ATOM      9  C   UNL     1       4.940   2.619   0.136  0.00  0.00    +0.000 A 
ATOM     10  C   UNL     1       4.211   1.506  -0.293  0.00  0.00    +0.000 A 
BRANCH   8  11
ATOM     11  C   UNL     1       5.159   4.657   1.621  0.00  0.00    +0.000 C 
ATOM     12  O   UNL     1       5.079   4.992   2.800  0.00  0.00    +0.000 OA
BRANCH  11  13
ATOM     13  C   UNL     1       5.954   5.493   0.682  0.00  0.00    +0.000 A 
ATOM     14  C   UNL     1       5.633   5.596  -0.679  0.00  0.00    +0.000 A 
ATOM     15  C   UNL     1       6.440   6.364  -1.513  0.00  0.00    +0.000 A 
ATOM     16  C   UNL     1       7.530   7.063  -1.009  0.00  0.00    +0.000 A 
ATOM     17  C   UNL     1       7.823   7.000   0.353  0.00  0.00    +0.000 A 
ATOM     18  C   UNL     1       7.037   6.217   1.198  0.00  0.00    +0.000 A 
BRANCH  15  19
ATOM     19  O   UNL     1       6.194   6.455  -2.852  0.00  0.00    +0.000 OA
ATOM     20  H   UNL     1       5.398   5.943  -3.070  0.00  0.00    +0.000 HD
ENDBRANCH  15  19
ENDBRANCH  11  13
ENDBRANCH   8  11
ENDBRANCH   2   5
BRANCH   3  21
ATOM     21  C   UNL     1       2.178  -2.253  -1.012  0.00  0.00    +0.000 A 
ATOM     22  C   UNL     1       0.834  -2.295  -1.382  0.00  0.00    +0.000 A 
ATOM     23  C   UNL     1       0.230  -3.498  -1.752  0.00  0.00    +0.000 A 
ATOM     24  C   UNL     1       0.958  -4.690  -1.777  0.00  0.00    +0.000 A 
ATOM     25  C   UNL     1       2.321  -4.640  -1.452  0.00  0.00    +0.000 A 
ATOM     26  C   UNL     1       2.929  -3.430  -1.084  0.00  0.00    +0.000 A 
BRANCH  24  27
ATOM     27  C   UNL     1       0.285  -5.948  -2.095  0.00  0.00    +0.000 A 
ATOM     28  C   UNL     1      -0.780  -6.154  -2.891  0.00  0.00    +0.000 A 
ATOM     29  N   UNL     1      -1.104  -7.486  -2.860  0.00  0.00    +0.000 N 
ATOM     30  C   UNL     1      -0.220  -8.155  -2.008  0.00  0.00    +0.000 A 
ATOM     31  O   UNL     1      -0.214  -9.336  -1.720  0.00  0.00    +0.000 OA
ATOM     32  N   UNL     1       0.649  -7.158  -1.553  0.00  0.00    +0.000 N 
ATOM     33  H   UNL     1      -1.869  -7.939  -3.338  0.00  0.00    +0.000 HD
ATOM     34  H   UNL     1       1.376  -7.325  -0.877  0.00  0.00    +0.000 HD
ENDBRANCH  24  27
ENDBRANCH   3  21
TORSDOF 6
