REMARK  Name = 
REMARK  6 active torsions:
REMARK  status: ('A' for Active; 'I' for Inactive)
REMARK    1  A    between atoms: C_2  and  C_4
REMARK    2  A    between atoms: C_4  and  N_5
REMARK    3  A    between atoms: N_5  and  C_6
REMARK    4  A    between atoms: C_6  and  C_7
REMARK    5  A    between atoms: C_10  and  C_11
REMARK    6  A    between atoms: C_19  and  C_21
REMARK                            x       y       z     vdW  Elec       q    Type
REMARK                         _______ _______ _______ _____ _____    ______ ____
ROOT
ATOM      1  N   UNL     1       5.047   0.997   0.286  0.00  0.00    +0.000 N 
ATOM      2  C   UNL     1       5.888   2.063   0.603  0.00  0.00    +0.000 C 
ATOM      3  O   UNL     1       5.420   3.039   1.191  0.00  0.00    +0.000 OA
ENDROOT
BRANCH   2   4
ATOM      4  C   UNL     1       7.297   2.103   0.258  0.00  0.00    +0.000 A 
ATOM      5  C   UNL     1       8.341   1.198   0.157  0.00  0.00    +0.000 A 
ATOM      6  C   UNL     1       9.556   1.921  -0.064  0.00  0.00    +0.000 A 
ATOM      7  C   UNL     1      10.911   1.562  -0.194  0.00  0.00    +0.000 A 
ATOM      8  C   UNL     1      11.864   2.575  -0.326  0.00  0.00    +0.000 A 
ATOM      9  F   UNL     1      13.159   2.245  -0.422  0.00  0.00    +0.000 F 
ATOM     10  C   UNL     1      11.509   3.919  -0.343  0.00  0.00    +0.000 A 
ATOM     11  C   UNL     1      10.170   4.296  -0.236  0.00  0.00    +0.000 A 
ATOM     12  C   UNL     1       9.225   3.272  -0.095  0.00  0.00    +0.000 A 
ATOM     13  N   UNL     1       7.868   3.349   0.065  0.00  0.00    +0.000 N 
ATOM     14  H   UNL     1       7.338   4.208   0.119  0.00  0.00    +0.000 HD
ENDBRANCH   2   4
BRANCH   1  15
ATOM     15  C   UNL     1       3.629   1.166   0.661  0.00  0.00    +0.000 C 
BRANCH  15  17
ATOM     16  N   UNL     1       4.203   0.142   2.852  0.00  0.00    +0.000 N 
ATOM     17  C   UNL     1       3.253   0.768   2.099  0.00  0.00    +0.000 C 
ATOM     18  O   UNL     1       2.123   0.933   2.554  0.00  0.00    +0.000 OA
ATOM     19  H   UNL     1       3.965   0.000   3.828  0.00  0.00    +0.000 HD
ATOM     20  H   UNL     1       5.179   0.242   2.621  0.00  0.00    +0.000 HD
ENDBRANCH  15  17
ENDBRANCH   1  15
BRANCH   1  21
ATOM     21  C   UNL     1       5.397  -0.240  -0.402  0.00  0.00    +0.000 C 
BRANCH  21  22
ATOM     22  C   UNL     1       5.183  -0.270  -1.903  0.00  0.00    +0.000 A 
ATOM     23  C   UNL     1       6.157   0.193  -2.795  0.00  0.00    +0.000 A 
ATOM     24  C   UNL     1       6.053  -0.059  -4.177  0.00  0.00    +0.000 A 
ATOM     25  C   UNL     1       4.977  -0.780  -4.723  0.00  0.00    +0.000 A 
ATOM     26  C   UNL     1       3.969  -1.166  -3.822  0.00  0.00    +0.000 A 
ATOM     27  C   UNL     1       4.060  -0.908  -2.444  0.00  0.00    +0.000 A 
BRANCH  25  28
ATOM     28  C   UNL     1       4.921  -1.159  -6.164  0.00  0.00    +0.000 A 
ATOM     29  C   UNL     1       6.086  -1.437  -6.906  0.00  0.00    +0.000 A 
ATOM     30  C   UNL     1       6.031  -1.830  -8.251  0.00  0.00    +0.000 A 
ATOM     31  C   UNL     1       4.803  -1.967  -8.889  0.00  0.00    +0.000 A 
ATOM     32  C   UNL     1       3.634  -1.704  -8.185  0.00  0.00    +0.000 A 
ATOM     33  C   UNL     1       3.695  -1.299  -6.844  0.00  0.00    +0.000 A 
ENDBRANCH  25  28
ENDBRANCH  21  22
ENDBRANCH   1  21
TORSDOF 6
