REMARK  Name = 
REMARK  7 active torsions:
REMARK  status: ('A' for Active; 'I' for Inactive)
REMARK    1  A    between atoms: C_1  and  N_2
REMARK    2  A    between atoms: C_3  and  C_4
REMARK    3  A    between atoms: N_6  and  C_7
REMARK    4  A    between atoms: C_7  and  C_8
REMARK    5  A    between atoms: C_12  and  C_13
REMARK    6  A    between atoms: C_21  and  C_22
REMARK    7  A    between atoms: C_22  and  C_24
REMARK                            x       y       z     vdW  Elec       q    Type
REMARK                         _______ _______ _______ _____ _____    ______ ____
ROOT
ATOM      1  C   UNL     1       0.463  -2.541  -0.066  0.00  0.00    +0.000 C 
ATOM      2  O   UNL     1      -0.316  -3.383  -0.501  0.00  0.00    +0.000 OA
ATOM      3  N   UNL     1       1.752  -2.864   0.290  0.00  0.00    +0.000 N 
ATOM      4  H   UNL     1       2.238  -2.241   0.912  0.00  0.00    +0.000 HD
ENDROOT
BRANCH   1   7
ATOM      5  C   UNL     1      -2.348  -1.160  -0.343  0.00  0.00    +0.000 C 
ATOM      6  N   UNL     1      -1.095  -0.509   0.002  0.00  0.00    +0.000 N 
ATOM      7  C   UNL     1       0.147  -1.127   0.121  0.00  0.00    +0.000 A 
ATOM      8  C   UNL     1       1.048  -0.106   0.406  0.00  0.00    +0.000 A 
ATOM      9  C   UNL     1       0.347   1.104   0.520  0.00  0.00    +0.000 A 
ATOM     10  C   UNL     1      -0.980   0.861   0.222  0.00  0.00    +0.000 A 
BRANCH  10  11
ATOM     11  C   UNL     1      -2.066   1.833   0.158  0.00  0.00    +0.000 C 
ATOM     12  O   UNL     1      -3.230   1.552   0.437  0.00  0.00    +0.000 OA
BRANCH  11  13
ATOM     13  C   UNL     1      -1.776   3.244  -0.229  0.00  0.00    +0.000 A 
ATOM     14  C   UNL     1      -2.517   4.278   0.361  0.00  0.00    +0.000 A 
ATOM     15  C   UNL     1      -2.292   5.608  -0.011  0.00  0.00    +0.000 A 
ATOM     16  C   UNL     1      -1.325   5.915  -0.969  0.00  0.00    +0.000 A 
ATOM     17  C   UNL     1      -0.587   4.892  -1.561  0.00  0.00    +0.000 A 
ATOM     18  C   UNL     1      -0.826   3.566  -1.202  0.00  0.00    +0.000 A 
ATOM     19  F   UNL     1      -0.132   2.617  -1.845  0.00  0.00    +0.000 F 
ENDBRANCH  11  13
ENDBRANCH  10  11
ENDBRANCH   1   7
BRANCH   3  20
ATOM     20  C   UNL     1       2.304  -4.179   0.096  0.00  0.00    +0.000 C 
BRANCH  20  21
ATOM     21  C   UNL     1       3.794  -4.162   0.279  0.00  0.00    +0.000 A 
ATOM     22  C   UNL     1       4.634  -3.084   0.483  0.00  0.00    +0.000 A 
ATOM     23  N   UNL     1       5.886  -3.591   0.644  0.00  0.00    +0.000 N 
ATOM     24  N   UNL     1       5.939  -4.921   0.546  0.00  0.00    +0.000 NA
ATOM     25  C   UNL     1       4.677  -5.302   0.287  0.00  0.00    +0.000 A 
ATOM     26  H   UNL     1       6.749  -3.089   0.828  0.00  0.00    +0.000 HD
BRANCH  25  27
ATOM     27  C   UNL     1       4.366  -6.721   0.074  0.00  0.00    +0.000 A 
ATOM     28  C   UNL     1       5.096  -7.713   0.747  0.00  0.00    +0.000 A 
ATOM     29  C   UNL     1       4.811  -9.068   0.552  0.00  0.00    +0.000 A 
ATOM     30  C   UNL     1       3.789  -9.448  -0.314  0.00  0.00    +0.000 A 
ATOM     31  C   UNL     1       3.067  -8.477  -1.002  0.00  0.00    +0.000 A 
ATOM     32  C   UNL     1       3.365  -7.125  -0.819  0.00  0.00    +0.000 A 
ENDBRANCH  25  27
ENDBRANCH  20  21
ENDBRANCH   3  20
TORSDOF 6
