REMARK  Name = 
REMARK  7 active torsions:
REMARK  status: ('A' for Active; 'I' for Inactive)
REMARK    1  A    between atoms: C_1  and  N_2
REMARK    2  A    between atoms: N_2  and  C_17
REMARK    3  A    between atoms: C_3  and  C_5
REMARK    4  A    between atoms: C_14  and  O_15
REMARK    5  A    between atoms: C_21  and  C_22
REMARK    6  A    between atoms: C_22  and  O_23
REMARK    7  A    between atoms: C_22  and  C_24
REMARK                            x       y       z     vdW  Elec       q    Type
REMARK                         _______ _______ _______ _____ _____    ______ ____
ROOT
ATOM      1  C   UNL     1       2.306   1.242  -0.810  0.00  0.00    +0.000 C 
ATOM      2  N   UNL     1       2.351   0.053   0.035  0.00  0.00    +0.000 N 
ATOM      3  C   UNL     1       1.832   0.100   1.333  0.00  0.00    +0.000 C 
ATOM      4  O   UNL     1       1.413   1.143   1.843  0.00  0.00    +0.000 OA
ENDROOT
BRANCH   3   5
ATOM      5  C   UNL     1       1.712  -1.201   2.091  0.00  0.00    +0.000 A 
ATOM      6  C   UNL     1       1.591  -1.153   3.422  0.00  0.00    +0.000 A 
ATOM      7  C   UNL     1       1.513  -2.411   4.192  0.00  0.00    +0.000 A 
ATOM      8  O   UNL     1       1.403  -2.354   5.410  0.00  0.00    +0.000 OA
ATOM      9  C   UNL     1       1.611  -3.674   3.420  0.00  0.00    +0.000 A 
ATOM     10  C   UNL     1       1.724  -3.570   2.034  0.00  0.00    +0.000 A 
ATOM     11  C   UNL     1       1.860  -4.706   1.231  0.00  0.00    +0.000 A 
ATOM     12  C   UNL     1       1.856  -5.971   1.812  0.00  0.00    +0.000 A 
ATOM     13  C   UNL     1       1.719  -6.091   3.194  0.00  0.00    +0.000 A 
ATOM     14  C   UNL     1       1.603  -4.949   3.996  0.00  0.00    +0.000 A 
ATOM     15  O   UNL     1       1.695  -2.377   1.367  0.00  0.00    +0.000 OA
BRANCH  14  16
ATOM     16  O   UNL     1       1.476  -5.109   5.346  0.00  0.00    +0.000 OA
ATOM     17  H   UNL     1       1.482  -6.050   5.576  0.00  0.00    +0.000 HD
ENDBRANCH  14  16
ENDBRANCH   3   5
BRANCH   2  18
ATOM     18  C   UNL     1       3.135  -1.018  -0.467  0.00  0.00    +0.000 A 
ATOM     19  C   UNL     1       2.725  -1.683  -1.626  0.00  0.00    +0.000 A 
ATOM     20  C   UNL     1       3.439  -2.791  -2.079  0.00  0.00    +0.000 A 
ATOM     21  C   UNL     1       4.597  -3.199  -1.415  0.00  0.00    +0.000 A 
ATOM     22  C   UNL     1       5.052  -2.509  -0.276  0.00  0.00    +0.000 A 
ATOM     23  C   UNL     1       4.295  -1.427   0.202  0.00  0.00    +0.000 A 
BRANCH  22  24
ATOM     24  C   UNL     1       6.397  -2.827   0.365  0.00  0.00    +0.000 C 
BRANCH  24  25
ATOM     25  C   UNL     1       7.556  -2.512  -0.572  0.00  0.00    +0.000 A 
ATOM     26  C   UNL     1       7.715  -1.200  -1.057  0.00  0.00    +0.000 A 
ATOM     27  C   UNL     1       8.721  -0.889  -1.971  0.00  0.00    +0.000 A 
ATOM     28  C   UNL     1       9.596  -1.882  -2.404  0.00  0.00    +0.000 A 
ATOM     29  C   UNL     1       9.472  -3.179  -1.912  0.00  0.00    +0.000 A 
ATOM     30  C   UNL     1       8.462  -3.493  -1.001  0.00  0.00    +0.000 A 
ENDBRANCH  24  25
BRANCH  24  31
ATOM     31  O   UNL     1       6.434  -4.182   0.810  0.00  0.00    +0.000 OA
ATOM     32  H   UNL     1       5.987  -4.722   0.141  0.00  0.00    +0.000 HD
ENDBRANCH  24  31
ENDBRANCH  22  24
ENDBRANCH   2  18
TORSDOF 6
