REMARK  Name = 
REMARK  3 active torsions:
REMARK  status: ('A' for Active; 'I' for Inactive)
REMARK    1  A    between atoms: C_2  and  C_17
REMARK    2  A    between atoms: C_8  and  C_9
REMARK    3  A    between atoms: N_21  and  C_22
REMARK                            x       y       z     vdW  Elec       q    Type
REMARK                         _______ _______ _______ _____ _____    ______ ____
ROOT
ATOM      1  O   UNL     1       1.002  -0.056   0.224  0.00  0.00    +0.000 OA
ATOM      2  C   UNL     1       2.219  -0.142   0.087  0.00  0.00    +0.000 C 
ATOM      3  N   UNL     1       2.891  -1.186  -0.502  0.00  0.00    +0.000 N 
ATOM      4  C   UNL     1       2.220  -2.268  -1.051  0.00  0.00    +0.000 A 
ATOM      5  N   UNL     1       0.947  -2.573  -0.777  0.00  0.00    +0.000 NA
ATOM      6  O   UNL     1       0.626  -3.667  -1.538  0.00  0.00    +0.000 OA
ATOM      7  C   UNL     1       1.702  -4.034  -2.263  0.00  0.00    +0.000 A 
ATOM      8  C   UNL     1       2.769  -3.211  -1.973  0.00  0.00    +0.000 A 
ATOM      9  H   UNL     1       3.887  -1.150  -0.659  0.00  0.00    +0.000 HD
ENDROOT
BRANCH   8  10
ATOM     10  C   UNL     1       4.056  -3.324  -2.640  0.00  0.00    +0.000 A 
ATOM     11  C   UNL     1       4.570  -4.592  -2.966  0.00  0.00    +0.000 A 
ATOM     12  C   UNL     1       5.775  -4.712  -3.659  0.00  0.00    +0.000 A 
ATOM     13  C   UNL     1       6.479  -3.569  -4.024  0.00  0.00    +0.000 A 
ATOM     14  F   UNL     1       7.626  -3.689  -4.700  0.00  0.00    +0.000 F 
ATOM     15  C   UNL     1       6.003  -2.307  -3.701  0.00  0.00    +0.000 A 
ATOM     16  C   UNL     1       4.801  -2.195  -3.011  0.00  0.00    +0.000 A 
ATOM     17  F   UNL     1       4.367  -0.959  -2.714  0.00  0.00    +0.000 F 
ENDBRANCH   8  10
BRANCH   2  18
ATOM     18  C   UNL     1       3.058   0.970   0.574  0.00  0.00    +0.000 A 
ATOM     19  C   UNL     1       2.560   1.668   1.593  0.00  0.00    +0.000 A 
ATOM     20  C   UNL     1       3.254   2.846   2.134  0.00  0.00    +0.000 A 
ATOM     21  O   UNL     1       2.684   3.428   3.055  0.00  0.00    +0.000 OA
ATOM     22  N   UNL     1       4.466   3.177   1.522  0.00  0.00    +0.000 N 
ATOM     23  N   UNL     1       4.979   2.496   0.426  0.00  0.00    +0.000 NA
ATOM     24  C   UNL     1       4.313   1.469   0.008  0.00  0.00    +0.000 A 
BRANCH  22  25
ATOM     25  C   UNL     1       5.245   4.301   1.954  0.00  0.00    +0.000 A 
ATOM     26  C   UNL     1       5.127   4.814   3.256  0.00  0.00    +0.000 A 
ATOM     27  C   UNL     1       5.830   5.951   3.659  0.00  0.00    +0.000 A 
ATOM     28  C   UNL     1       6.671   6.596   2.766  0.00  0.00    +0.000 A 
ATOM     29  C   UNL     1       6.834   6.088   1.478  0.00  0.00    +0.000 A 
ATOM     30  C   UNL     1       6.139   4.940   1.080  0.00  0.00    +0.000 A 
ENDBRANCH  22  25
ENDBRANCH   2  18
TORSDOF 3
