REMARK  Name = 
REMARK  6 active torsions:
REMARK  status: ('A' for Active; 'I' for Inactive)
REMARK    1  A    between atoms: C_2  and  O_3
REMARK    2  A    between atoms: C_2  and  C_18
REMARK    3  A    between atoms: O_3  and  C_4
REMARK    4  A    between atoms: C_4  and  C_5
REMARK    5  A    between atoms: N_7  and  C_8
REMARK    6  A    between atoms: C_23  and  C_24
REMARK                            x       y       z     vdW  Elec       q    Type
REMARK                         _______ _______ _______ _____ _____    ______ ____
ROOT
ATOM      1  O   UNL     1       2.587   0.508  -1.166  0.00  0.00    +0.000 OA
ENDROOT
BRANCH   1   3
ATOM      2  O   UNL     1       3.142  -0.511   0.803  0.00  0.00    +0.000 OA
ATOM      3  C   UNL     1       2.311  -0.096   0.007  0.00  0.00    +0.000 C 
BRANCH   3   4
ATOM      4  C   UNL     1       0.862  -0.052   0.337  0.00  0.00    +0.000 A 
ATOM      5  C   UNL     1       0.562   0.129   1.705  0.00  0.00    +0.000 A 
ATOM      6  C   UNL     1      -0.757   0.200   2.138  0.00  0.00    +0.000 A 
ATOM      7  C   UNL     1      -1.751   0.111   1.190  0.00  0.00    +0.000 A 
ATOM      8  N   UNL     1      -1.503  -0.068  -0.123  0.00  0.00    +0.000 NA
ATOM      9  C   UNL     1      -0.204  -0.182  -0.555  0.00  0.00    +0.000 A 
BRANCH   9  10
ATOM     10  C   UNL     1      -0.140  -0.557  -1.984  0.00  0.00    +0.000 A 
ATOM     11  C   UNL     1      -1.083  -0.049  -2.894  0.00  0.00    +0.000 A 
ATOM     12  C   UNL     1      -1.089  -0.507  -4.204  0.00  0.00    +0.000 A 
ATOM     13  N   UNL     1      -0.218  -1.418  -4.681  0.00  0.00    +0.000 NA
ATOM     14  C   UNL     1       0.688  -1.896  -3.805  0.00  0.00    +0.000 A 
ATOM     15  C   UNL     1       0.758  -1.512  -2.473  0.00  0.00    +0.000 A 
ENDBRANCH   9  10
ENDBRANCH   3   4
ENDBRANCH   1   3
BRANCH   1  16
ATOM     16  C   UNL     1       3.993   0.756  -1.409  0.00  0.00    +0.000 C 
BRANCH  16  17
ATOM     17  C   UNL     1       4.765  -0.406  -1.972  0.00  0.00    +0.000 A 
ATOM     18  N   UNL     1       4.435  -0.966  -3.146  0.00  0.00    +0.000 NA
ATOM     19  N   UNL     1       5.342  -1.966  -3.329  0.00  0.00    +0.000 N 
ATOM     20  C   UNL     1       6.288  -1.967  -2.330  0.00  0.00    +0.000 A 
ATOM     21  C   UNL     1       5.937  -0.982  -1.440  0.00  0.00    +0.000 A 
BRANCH  19  22
ATOM     22  C   UNL     1       5.250  -2.831  -4.448  0.00  0.00    +0.000 A 
ATOM     23  C   UNL     1       4.499  -2.434  -5.568  0.00  0.00    +0.000 A 
ATOM     24  C   UNL     1       4.402  -3.278  -6.678  0.00  0.00    +0.000 A 
ATOM     25  C   UNL     1       5.026  -4.521  -6.655  0.00  0.00    +0.000 A 
ATOM     26  F   UNL     1       4.914  -5.335  -7.712  0.00  0.00    +0.000 F 
ATOM     27  C   UNL     1       5.759  -4.933  -5.551  0.00  0.00    +0.000 A 
ATOM     28  C   UNL     1       5.878  -4.081  -4.456  0.00  0.00    +0.000 A 
ATOM     29  F   UNL     1       6.560  -4.534  -3.395  0.00  0.00    +0.000 F 
ENDBRANCH  19  22
ENDBRANCH  16  17
ENDBRANCH   1  16
TORSDOF 6
