REMARK  Name = 
REMARK  5 active torsions:
REMARK  status: ('A' for Active; 'I' for Inactive)
REMARK    1  A    between atoms: C_2  and  C_3
REMARK    2  A    between atoms: C_3  and  C_4
REMARK    3  A    between atoms: N_6  and  C_7
REMARK    4  A    between atoms: N_16  and  C_17
REMARK    5  A    between atoms: N_19  and  C_20
REMARK                            x       y       z     vdW  Elec       q    Type
REMARK                         _______ _______ _______ _____ _____    ______ ____
ROOT
ATOM      1  O   UNL     1       1.132   0.015  -0.029  0.00  0.00    +0.000 OA
ATOM      2  C   UNL     1       2.365  -0.008  -0.026  0.00  0.00    +0.000 C 
ATOM      3  N   UNL     1       3.176   0.771  -0.830  0.00  0.00    +0.000 N 
ATOM      4  H   UNL     1       4.173   0.551  -0.831  0.00  0.00    +0.000 HD
ENDROOT
BRANCH   3   5
ATOM      5  C   UNL     1       2.728   1.701  -1.746  0.00  0.00    +0.000 A 
ATOM      6  C   UNL     1       1.483   2.267  -1.835  0.00  0.00    +0.000 A 
ATOM      7  N   UNL     1       1.477   3.087  -2.940  0.00  0.00    +0.000 N 
ATOM      8  N   UNL     1       2.688   3.093  -3.556  0.00  0.00    +0.000 NA
ATOM      9  C   UNL     1       3.447   2.293  -2.802  0.00  0.00    +0.000 A 
BRANCH   7  10
ATOM     10  C   UNL     1       0.389   3.840  -3.424  0.00  0.00    +0.000 A 
ATOM     11  C   UNL     1      -0.582   4.327  -2.548  0.00  0.00    +0.000 A 
ATOM     12  F   UNL     1      -0.463   4.183  -1.220  0.00  0.00    +0.000 F 
ATOM     13  C   UNL     1      -1.681   5.045  -3.021  0.00  0.00    +0.000 A 
ATOM     14  C   UNL     1      -1.831   5.264  -4.388  0.00  0.00    +0.000 A 
ATOM     15  C   UNL     1      -0.867   4.780  -5.272  0.00  0.00    +0.000 A 
ATOM     16  C   UNL     1       0.245   4.086  -4.789  0.00  0.00    +0.000 A 
ATOM     17  F   UNL     1       1.105   3.594  -5.692  0.00  0.00    +0.000 F 
ENDBRANCH   7  10
ENDBRANCH   3   5
BRANCH   2  18
ATOM     18  C   UNL     1       3.096  -0.902   0.966  0.00  0.00    +0.000 C 
BRANCH  18  19
ATOM     19  C   UNL     1       4.400  -1.443   0.483  0.00  0.00    +0.000 A 
ATOM     20  N   UNL     1       5.364  -0.613   0.060  0.00  0.00    +0.000 NA
ATOM     21  N   UNL     1       6.387  -1.418  -0.330  0.00  0.00    +0.000 N 
ATOM     22  C   UNL     1       6.085  -2.742  -0.106  0.00  0.00    +0.000 A 
ATOM     23  C   UNL     1       4.811  -2.788   0.410  0.00  0.00    +0.000 A 
BRANCH  21  24
ATOM     24  C   UNL     1       7.550  -0.861  -0.930  0.00  0.00    +0.000 A 
ATOM     25  C   UNL     1       7.677   0.537  -1.022  0.00  0.00    +0.000 A 
ATOM     26  C   UNL     1       8.792   1.103  -1.644  0.00  0.00    +0.000 A 
ATOM     27  C   UNL     1       9.773   0.274  -2.171  0.00  0.00    +0.000 A 
ATOM     28  F   UNL     1      10.838   0.815  -2.779  0.00  0.00    +0.000 F 
ATOM     29  C   UNL     1       9.666  -1.109  -2.083  0.00  0.00    +0.000 A 
ATOM     30  C   UNL     1       8.556  -1.683  -1.458  0.00  0.00    +0.000 A 
ENDBRANCH  21  24
ENDBRANCH  18  19
ENDBRANCH   2  18
TORSDOF 5
