REMARK  Name = 
REMARK  3 active torsions:
REMARK  status: ('A' for Active; 'I' for Inactive)
REMARK    1  A    between atoms: C_2  and  C_4
REMARK    2  A    between atoms: C_8  and  C_10
REMARK    3  A    between atoms: C_11  and  C_12
REMARK                            x       y       z     vdW  Elec       q    Type
REMARK                         _______ _______ _______ _____ _____    ______ ____
ROOT
ATOM      1  C   UNL     1       3.305  -0.850  -1.044  0.00  0.00    +0.000 A 
ATOM      2  C   UNL     1       4.461  -1.607  -0.795  0.00  0.00    +0.000 A 
ATOM      3  C   UNL     1       5.178  -2.092  -1.871  0.00  0.00    +0.000 A 
ATOM      4  N   UNL     1       6.340  -2.834  -1.626  0.00  0.00    +0.000 N 
ATOM      5  C   UNL     1       7.145  -3.374  -2.616  0.00  0.00    +0.000 C 
ATOM      6  O   UNL     1       6.897  -3.368  -3.815  0.00  0.00    +0.000 OA
ATOM      7  N   UNL     1       4.800  -1.850  -3.131  0.00  0.00    +0.000 NA
ATOM      8  C   UNL     1       3.690  -1.149  -3.386  0.00  0.00    +0.000 A 
ATOM      9  C   UNL     1       3.353  -0.967  -4.720  0.00  0.00    +0.000 A 
ATOM     10  C   UNL     1       2.222  -0.248  -5.102  0.00  0.00    +0.000 A 
ATOM     11  C   UNL     1       1.410   0.309  -4.128  0.00  0.00    +0.000 A 
ATOM     12  C   UNL     1       1.734   0.138  -2.780  0.00  0.00    +0.000 A 
ATOM     13  C   UNL     1       2.878  -0.604  -2.377  0.00  0.00    +0.000 A 
ATOM     14  H   UNL     1       6.642  -2.974  -0.673  0.00  0.00    +0.000 HD
ENDROOT
BRANCH   1  16
ATOM     15  N   UNL     1       3.234  -0.013   1.248  0.00  0.00    +0.000 N 
ATOM     16  C   UNL     1       2.525  -0.362   0.129  0.00  0.00    +0.000 C 
ATOM     17  O   UNL     1       1.306  -0.267   0.126  0.00  0.00    +0.000 OA
ATOM     18  H   UNL     1       2.697   0.386   2.010  0.00  0.00    +0.000 HD
ATOM     19  H   UNL     1       4.234   0.123   1.259  0.00  0.00    +0.000 HD
ENDBRANCH   1  16
BRANCH   5  20
ATOM     20  C   UNL     1       8.375  -3.948  -2.094  0.00  0.00    +0.000 A 
ATOM     21  C   UNL     1       9.641  -4.132  -2.648  0.00  0.00    +0.000 A 
ATOM     22  C   UNL     1      10.383  -4.859  -1.671  0.00  0.00    +0.000 A 
ATOM     23  C   UNL     1       9.558  -5.027  -0.587  0.00  0.00    +0.000 A 
ATOM     24  O   UNL     1       8.353  -4.452  -0.815  0.00  0.00    +0.000 OA
BRANCH  21  25
ATOM     25  C   UNL     1      10.084  -3.659  -3.959  0.00  0.00    +0.000 A 
ATOM     26  C   UNL     1       9.629  -2.441  -4.496  0.00  0.00    +0.000 A 
ATOM     27  C   UNL     1      10.046  -2.005  -5.758  0.00  0.00    +0.000 A 
ATOM     28  C   UNL     1      10.954  -2.767  -6.477  0.00  0.00    +0.000 A 
ATOM     29  F   UNL     1      11.360  -2.344  -7.682  0.00  0.00    +0.000 F 
ATOM     30  C   UNL     1      11.443  -3.952  -5.945  0.00  0.00    +0.000 A 
ATOM     31  F   UNL     1      12.340  -4.676  -6.631  0.00  0.00    +0.000 F 
ATOM     32  C   UNL     1      11.015  -4.405  -4.697  0.00  0.00    +0.000 A 
ENDBRANCH  21  25
ENDBRANCH   5  20
TORSDOF 3
