REMARK  Name = 
REMARK  6 active torsions:
REMARK  status: ('A' for Active; 'I' for Inactive)
REMARK    1  A    between atoms: C_2  and  C_17
REMARK    2  A    between atoms: N_3  and  C_4
REMARK    3  A    between atoms: C_4  and  C_5
REMARK    4  A    between atoms: C_10  and  C_11
REMARK    5  A    between atoms: N_19  and  C_20
REMARK    6  A    between atoms: C_28  and  O_29
REMARK                            x       y       z     vdW  Elec       q    Type
REMARK                         _______ _______ _______ _____ _____    ______ ____
ROOT
ATOM      1  O   UNL     1       1.020   0.063   0.194  0.00  0.00    +0.000 OA
ATOM      2  C   UNL     1       2.244   0.025   0.102  0.00  0.00    +0.000 C 
ATOM      3  N   UNL     1       3.010  -0.847   0.845  0.00  0.00    +0.000 N 
ATOM      4  H   UNL     1       4.007  -0.919   0.663  0.00  0.00    +0.000 HD
ENDROOT
BRANCH   2   5
ATOM      5  C   UNL     1       3.020   0.894  -0.786  0.00  0.00    +0.000 A 
ATOM      6  N   UNL     1       4.355   0.762  -0.919  0.00  0.00    +0.000 NA
ATOM      7  N   UNL     1       4.738   1.782  -1.724  0.00  0.00    +0.000 N 
ATOM      8  C   UNL     1       3.657   2.503  -2.183  0.00  0.00    +0.000 A 
ATOM      9  C   UNL     1       2.554   1.954  -1.592  0.00  0.00    +0.000 A 
BRANCH   7  10
ATOM     10  C   UNL     1       6.114   2.000  -1.995  0.00  0.00    +0.000 A 
ATOM     11  C   UNL     1       6.546   3.116  -2.721  0.00  0.00    +0.000 A 
ATOM     12  C   UNL     1       7.909   3.338  -2.932  0.00  0.00    +0.000 A 
ATOM     13  C   UNL     1       8.845   2.433  -2.428  0.00  0.00    +0.000 A 
ATOM     14  C   UNL     1       8.416   1.322  -1.715  0.00  0.00    +0.000 A 
ATOM     15  F   UNL     1       9.319   0.457  -1.237  0.00  0.00    +0.000 F 
ATOM     16  C   UNL     1       7.061   1.090  -1.490  0.00  0.00    +0.000 A 
ENDBRANCH   7  10
BRANCH   9  17
ATOM     17  O   UNL     1       1.301   2.400  -1.758  0.00  0.00    +0.000 OA
ATOM     18  H   UNL     1       1.273   3.154  -2.369  0.00  0.00    +0.000 HD
ENDBRANCH   9  17
ENDBRANCH   2   5
BRANCH   3  19
ATOM     19  C   UNL     1       2.365  -1.819   1.683  0.00  0.00    +0.000 C 
BRANCH  19  20
ATOM     20  C   UNL     1       3.287  -2.834   2.325  0.00  0.00    +0.000 A 
ATOM     21  N   UNL     1       4.600  -2.756   1.936  0.00  0.00    +0.000 NA
ATOM     22  C   UNL     1       5.481  -3.592   2.515  0.00  0.00    +0.000 A 
ATOM     23  C   UNL     1       5.129  -4.523   3.468  0.00  0.00    +0.000 A 
ATOM     24  C   UNL     1       3.787  -4.616   3.835  0.00  0.00    +0.000 A 
ATOM     25  C   UNL     1       2.807  -3.772   3.273  0.00  0.00    +0.000 A 
BRANCH  25  26
ATOM     26  C   UNL     1       1.389  -3.866   3.738  0.00  0.00    +0.000 A 
ATOM     27  C   UNL     1       1.082  -4.106   5.092  0.00  0.00    +0.000 A 
ATOM     28  C   UNL     1      -0.238  -4.112   5.563  0.00  0.00    +0.000 A 
ATOM     29  C   UNL     1      -1.290  -3.842   4.696  0.00  0.00    +0.000 A 
ATOM     30  C   UNL     1      -1.027  -3.643   3.349  0.00  0.00    +0.000 A 
ATOM     31  C   UNL     1       0.288  -3.707   2.876  0.00  0.00    +0.000 A 
ENDBRANCH  25  26
ENDBRANCH  19  20
ENDBRANCH   3  19
TORSDOF 6
