REMARK  Name = 
REMARK  8 active torsions:
REMARK  status: ('A' for Active; 'I' for Inactive)
REMARK    1  A    between atoms: C_1  and  O_2
REMARK    2  A    between atoms: O_2  and  C_3
REMARK    3  A    between atoms: C_6  and  C_7
REMARK    4  A    between atoms: N_9  and  C_10
REMARK    5  A    between atoms: C_10  and  C_11
REMARK    6  A    between atoms: C_10  and  C_25
REMARK    7  A    between atoms: N_13  and  C_14
REMARK    8  A    between atoms: C_17  and  C_18
REMARK                            x       y       z     vdW  Elec       q    Type
REMARK                         _______ _______ _______ _____ _____    ______ ____
ROOT
ATOM      1  C   UNL     1       5.526  -0.401   7.232  0.00  0.00    +0.000 C 
ENDROOT
BRANCH   1   2
ATOM      2  C   UNL     1       4.896  -1.288   8.290  0.00  0.00    +0.000 A 
ATOM      3  C   UNL     1       5.725  -1.852   9.275  0.00  0.00    +0.000 A 
ATOM      4  C   UNL     1       5.183  -2.608  10.311  0.00  0.00    +0.000 A 
ATOM      5  C   UNL     1       3.805  -2.806  10.380  0.00  0.00    +0.000 A 
ATOM      6  C   UNL     1       2.974  -2.271   9.398  0.00  0.00    +0.000 A 
ATOM      7  C   UNL     1       3.514  -1.522   8.354  0.00  0.00    +0.000 A 
ENDBRANCH   1   2
BRANCH   1   8
ATOM      8  C   UNL     1       5.748   1.066   7.695  0.00  0.00    +0.000 C 
ATOM      9  O   UNL     1       6.704   1.700   7.239  0.00  0.00    +0.000 OA
ATOM     10  N   UNL     1       4.766   1.614   8.524  0.00  0.00    +0.000 N 
ATOM     11  H   UNL     1       4.114   0.971   8.958  0.00  0.00    +0.000 HD
BRANCH  10  12
ATOM     12  C   UNL     1       4.761   2.937   9.032  0.00  0.00    +0.000 A 
ATOM     13  C   UNL     1       5.544   3.961   8.493  0.00  0.00    +0.000 A 
ATOM     14  C   UNL     1       5.587   5.225   9.085  0.00  0.00    +0.000 A 
ATOM     15  C   UNL     1       4.833   5.505  10.229  0.00  0.00    +0.000 A 
ATOM     16  C   UNL     1       3.990   4.505  10.731  0.00  0.00    +0.000 A 
ATOM     17  C   UNL     1       3.950   3.233  10.134  0.00  0.00    +0.000 A 
BRANCH  15  18
ATOM     18  C   UNL     1       4.952   6.804  10.883  0.00  0.00    +0.000 A 
ATOM     19  N   UNL     1       3.964   7.365  11.601  0.00  0.00    +0.000 NA
ATOM     20  N   UNL     1       4.520   8.528  11.985  0.00  0.00    +0.000 N 
ATOM     21  N   UNL     1       5.784   8.780  11.612  0.00  0.00    +0.000 NA
ATOM     22  C   UNL     1       6.067   7.680  10.910  0.00  0.00    +0.000 A 
ATOM     23  H   UNL     1       3.999   9.198  12.543  0.00  0.00    +0.000 HD
ENDBRANCH  15  18
ENDBRANCH  10  12
ENDBRANCH   1   8
BRANCH   1  26
ATOM     24  C   UNL     1       5.062  -1.347   4.999  0.00  0.00    +0.000 C 
ATOM     25  O   UNL     1       5.828  -2.287   5.164  0.00  0.00    +0.000 OA
ATOM     26  N   UNL     1       4.803  -0.398   5.964  0.00  0.00    +0.000 N 
ATOM     27  H   UNL     1       4.102   0.312   5.818  0.00  0.00    +0.000 HD
BRANCH  24  31
ATOM     28  C   UNL     1       2.998  -1.015   1.240  0.00  0.00    +0.000 A 
ATOM     29  C   UNL     1       3.438  -2.254   1.705  0.00  0.00    +0.000 A 
ATOM     30  C   UNL     1       4.108  -2.346   2.932  0.00  0.00    +0.000 A 
ATOM     31  C   UNL     1       4.332  -1.201   3.708  0.00  0.00    +0.000 A 
ATOM     32  C   UNL     1       3.904   0.042   3.234  0.00  0.00    +0.000 A 
ATOM     33  C   UNL     1       3.235   0.128   2.010  0.00  0.00    +0.000 A 
BRANCH  28  35
ATOM     34  C   UNL     1       2.120  -1.896  -0.787  0.00  0.00    +0.000 C 
ATOM     35  O   UNL     1       2.342  -0.779   0.064  0.00  0.00    +0.000 OA
ENDBRANCH  28  35
ENDBRANCH  24  31
ENDBRANCH   1  26
TORSDOF 7
