REMARK  Name = 
REMARK  11 active torsions:
REMARK  status: ('A' for Active; 'I' for Inactive)
REMARK    1  A    between atoms: C_1  and  O_2
REMARK    2  A    between atoms: O_2  and  C_3
REMARK    3  A    between atoms: C_3  and  C_5
REMARK    4  A    between atoms: C_7  and  C_8
REMARK    5  A    between atoms: C_8  and  C_9
REMARK    6  A    between atoms: C_8  and  N_10
REMARK    7  A    between atoms: C_11  and  C_13
REMARK    8  A    between atoms: C_16  and  C_17
REMARK    9  A    between atoms: C_22  and  C_23
REMARK   10  A    between atoms: C_32  and  O_33
REMARK   11  A    between atoms: O_33  and  C_34
REMARK                            x       y       z     vdW  Elec       q    Type
REMARK                         _______ _______ _______ _____ _____    ______ ____
ROOT
ATOM      1  N   UNL     1       6.470   1.622   2.496  0.00  0.00    +0.000 N 
ATOM      2  C   UNL     1       6.912   2.517   3.443  0.00  0.00    +0.000 C 
ATOM      3  O   UNL     1       8.091   2.604   3.775  0.00  0.00    +0.000 OA
ATOM      4  H   UNL     1       5.525   1.688   2.147  0.00  0.00    +0.000 HD
ENDROOT
BRANCH   2   5
ATOM      5  C   UNL     1       5.905   3.406   4.068  0.00  0.00    +0.000 A 
ATOM      6  C   UNL     1       4.546   3.091   4.171  0.00  0.00    +0.000 A 
ATOM      7  C   UNL     1       3.659   3.987   4.796  0.00  0.00    +0.000 A 
ATOM      8  C   UNL     1       4.107   5.196   5.363  0.00  0.00    +0.000 A 
ATOM      9  C   UNL     1       5.492   5.435   5.319  0.00  0.00    +0.000 A 
ATOM     10  C   UNL     1       6.369   4.586   4.643  0.00  0.00    +0.000 A 
BRANCH   8  11
ATOM     11  C   UNL     1       3.181   6.172   6.015  0.00  0.00    +0.000 A 
ATOM     12  C   UNL     1       2.098   5.691   6.788  0.00  0.00    +0.000 A 
ATOM     13  C   UNL     1       1.272   6.548   7.523  0.00  0.00    +0.000 A 
ATOM     14  C   UNL     1       1.523   7.913   7.537  0.00  0.00    +0.000 A 
ATOM     15  C   UNL     1       2.558   8.428   6.760  0.00  0.00    +0.000 A 
ATOM     16  C   UNL     1       3.358   7.584   5.961  0.00  0.00    +0.000 A 
BRANCH  16  17
ATOM     17  C   UNL     1       4.329   8.226   5.079  0.00  0.00    +0.000 A 
ATOM     18  N   UNL     1       5.113   9.263   5.433  0.00  0.00    +0.000 NA
ATOM     19  N   UNL     1       5.856   9.385   4.322  0.00  0.00    +0.000 N 
ATOM     20  N   UNL     1       5.569   8.543   3.325  0.00  0.00    +0.000 NA
ATOM     21  N   UNL     1       4.571   7.806   3.790  0.00  0.00    +0.000 NA
ATOM     22  H   UNL     1       6.601  10.070   4.239  0.00  0.00    +0.000 HD
ENDBRANCH  16  17
ENDBRANCH   8  11
ENDBRANCH   2   5
BRANCH   1  23
ATOM     23  C   UNL     1       7.389   0.699   1.847  0.00  0.00    +0.000 C 
ATOM     24  C   UNL     1       7.006  -0.743   2.178  0.00  0.00    +0.000 C 
BRANCH  23  27
ATOM     25  C   UNL     1       6.327   0.871  -1.852  0.00  0.00    +0.000 A 
ATOM     26  C   UNL     1       6.280   0.768  -0.445  0.00  0.00    +0.000 A 
ATOM     27  C   UNL     1       7.425   0.933   0.348  0.00  0.00    +0.000 A 
ATOM     28  C   UNL     1       8.629   1.251  -0.286  0.00  0.00    +0.000 A 
ATOM     29  C   UNL     1       8.684   1.371  -1.679  0.00  0.00    +0.000 A 
ATOM     30  C   UNL     1       7.543   1.188  -2.475  0.00  0.00    +0.000 A 
BRANCH  25  31
ATOM     31  C   UNL     1       5.105   0.473  -2.583  0.00  0.00    +0.000 C 
ATOM     32  O   UNL     1       5.090  -0.196  -3.606  0.00  0.00    +0.000 OA
BRANCH  31  34
ATOM     33  C   UNL     1       2.761   0.527  -2.502  0.00  0.00    +0.000 C 
ATOM     34  O   UNL     1       4.006   0.925  -1.921  0.00  0.00    +0.000 OA
ENDBRANCH  31  34
ENDBRANCH  25  31
BRANCH  30  35
ATOM     35  O   UNL     1       7.821   1.277  -3.812  0.00  0.00    +0.000 OA
ATOM     36  C   UNL     1       6.855   1.901  -4.650  0.00  0.00    +0.000 C 
ENDBRANCH  30  35
ENDBRANCH  23  27
ENDBRANCH   1  23
TORSDOF 8
