REMARK  Name = 
REMARK  5 active torsions:
REMARK  status: ('A' for Active; 'I' for Inactive)
REMARK    1  A    between atoms: C_2  and  C_17
REMARK    2  A    between atoms: N_3  and  C_4
REMARK    3  A    between atoms: C_6  and  C_7
REMARK    4  A    between atoms: C_7  and  C_8
REMARK    5  A    between atoms: C_20  and  C_21
REMARK                            x       y       z     vdW  Elec       q    Type
REMARK                         _______ _______ _______ _____ _____    ______ ____
ROOT
ATOM      1  O   UNL     1       1.146  -0.190   0.289  0.00  0.00    +0.000 OA
ATOM      2  C   UNL     1       2.326   0.052   0.072  0.00  0.00    +0.000 C 
ATOM      3  N   UNL     1       2.998   1.204   0.420  0.00  0.00    +0.000 N 
ATOM      4  H   UNL     1       3.722   1.510  -0.215  0.00  0.00    +0.000 HD
ENDROOT
BRANCH   3   5
ATOM      5  C   UNL     1       2.365   2.271   1.062  0.00  0.00    +0.000 A 
ATOM      6  C   UNL     1       1.670   2.101   2.256  0.00  0.00    +0.000 A 
ATOM      7  C   UNL     1       1.139   3.229   2.897  0.00  0.00    +0.000 A 
ATOM      8  C   UNL     1       1.257   4.465   2.256  0.00  0.00    +0.000 A 
ATOM      9  C   UNL     1       1.958   4.529   1.062  0.00  0.00    +0.000 A 
ATOM     10  N   UNL     1       2.560   3.470   0.482  0.00  0.00    +0.000 NA
BRANCH   7  11
ATOM     11  C   UNL     1       0.521   3.136   4.274  0.00  0.00    +0.000 C 
BRANCH  11  12
ATOM     12  C   UNL     1       1.516   3.373   5.393  0.00  0.00    +0.000 A 
ATOM     13  C   UNL     1       1.748   4.666   5.887  0.00  0.00    +0.000 A 
ATOM     14  C   UNL     1       2.691   4.885   6.896  0.00  0.00    +0.000 A 
ATOM     15  C   UNL     1       3.413   3.816   7.422  0.00  0.00    +0.000 A 
ATOM     16  C   UNL     1       3.191   2.527   6.941  0.00  0.00    +0.000 A 
ATOM     17  C   UNL     1       2.250   2.307   5.933  0.00  0.00    +0.000 A 
ENDBRANCH  11  12
ENDBRANCH   7  11
ENDBRANCH   3   5
BRANCH   2  18
ATOM     18  C   UNL     1       3.135  -0.930  -0.700  0.00  0.00    +0.000 A 
ATOM     19  C   UNL     1       2.549  -1.608  -1.775  0.00  0.00    +0.000 A 
ATOM     20  C   UNL     1       3.269  -2.591  -2.466  0.00  0.00    +0.000 A 
ATOM     21  C   UNL     1       4.571  -2.923  -2.067  0.00  0.00    +0.000 A 
ATOM     22  C   UNL     1       5.162  -2.219  -1.006  0.00  0.00    +0.000 A 
ATOM     23  C   UNL     1       4.450  -1.226  -0.325  0.00  0.00    +0.000 A 
BRANCH  21  24
ATOM     24  C   UNL     1       5.358  -4.008  -2.731  0.00  0.00    +0.000 A 
ATOM     25  N   UNL     1       6.656  -3.930  -2.750  0.00  0.00    +0.000 NA
ATOM     26  N   UNL     1       7.332  -4.950  -3.364  0.00  0.00    +0.000 N 
ATOM     27  C   UNL     1       6.768  -6.048  -3.951  0.00  0.00    +0.000 A 
ATOM     28  O   UNL     1       7.426  -6.932  -4.499  0.00  0.00    +0.000 OA
ATOM     29  C   UNL     1       5.299  -6.123  -3.892  0.00  0.00    +0.000 A 
ATOM     30  C   UNL     1       4.598  -5.150  -3.302  0.00  0.00    +0.000 A 
ATOM     31  H   UNL     1       8.346  -4.878  -3.374  0.00  0.00    +0.000 HD
ENDBRANCH  21  24
ENDBRANCH   2  18
TORSDOF 5
