REMARK  Name = 
REMARK  6 active torsions:
REMARK  status: ('A' for Active; 'I' for Inactive)
REMARK    1  A    between atoms: C_2  and  C_18
REMARK    2  A    between atoms: N_3  and  C_4
REMARK    3  A    between atoms: C_7  and  O_8
REMARK    4  A    between atoms: O_8  and  C_9
REMARK    5  A    between atoms: C_9  and  C_10
REMARK    6  A    between atoms: N_22  and  C_23
REMARK                            x       y       z     vdW  Elec       q    Type
REMARK                         _______ _______ _______ _____ _____    ______ ____
ROOT
ATOM      1  O   UNL     1       0.946  -0.406   0.168  0.00  0.00    +0.000 OA
ATOM      2  C   UNL     1       2.126  -0.127  -0.022  0.00  0.00    +0.000 C 
ATOM      3  N   UNL     1       2.804   0.947   0.511  0.00  0.00    +0.000 N 
ATOM      4  H   UNL     1       3.715   1.180   0.136  0.00  0.00    +0.000 HD
ENDROOT
BRANCH   2   5
ATOM      5  C   UNL     1       2.920  -0.951  -0.961  0.00  0.00    +0.000 A 
ATOM      6  C   UNL     1       2.270  -1.555  -1.957  0.00  0.00    +0.000 A 
ATOM      7  C   UNL     1       2.966  -2.427  -2.918  0.00  0.00    +0.000 A 
ATOM      8  O   UNL     1       2.267  -2.945  -3.785  0.00  0.00    +0.000 OA
ATOM      9  N   UNL     1       4.341  -2.594  -2.711  0.00  0.00    +0.000 N 
ATOM     10  N   UNL     1       5.027  -1.994  -1.663  0.00  0.00    +0.000 NA
ATOM     11  C   UNL     1       4.353  -1.230  -0.869  0.00  0.00    +0.000 A 
BRANCH   9  12
ATOM     12  C   UNL     1       5.161  -3.416  -3.553  0.00  0.00    +0.000 A 
ATOM     13  C   UNL     1       4.784  -3.749  -4.862  0.00  0.00    +0.000 A 
ATOM     14  C   UNL     1       5.590  -4.562  -5.665  0.00  0.00    +0.000 A 
ATOM     15  C   UNL     1       6.786  -5.067  -5.169  0.00  0.00    +0.000 A 
ATOM     16  C   UNL     1       7.185  -4.747  -3.875  0.00  0.00    +0.000 A 
ATOM     17  C   UNL     1       6.386  -3.919  -3.080  0.00  0.00    +0.000 A 
ENDBRANCH   9  12
ENDBRANCH   2   5
BRANCH   3  18
ATOM     18  C   UNL     1       2.266   1.886   1.417  0.00  0.00    +0.000 A 
ATOM     19  C   UNL     1       1.072   1.694   2.116  0.00  0.00    +0.000 A 
ATOM     20  C   UNL     1       0.596   2.674   2.988  0.00  0.00    +0.000 A 
ATOM     21  C   UNL     1       1.319   3.849   3.179  0.00  0.00    +0.000 A 
ATOM     22  C   UNL     1       2.499   4.057   2.470  0.00  0.00    +0.000 A 
ATOM     23  C   UNL     1       2.982   3.071   1.608  0.00  0.00    +0.000 A 
BRANCH  21  24
ATOM     24  O   UNL     1       0.782   4.732   4.075  0.00  0.00    +0.000 OA
BRANCH  24  25
ATOM     25  C   UNL     1       1.728   5.612   4.689  0.00  0.00    +0.000 C 
BRANCH  25  26
ATOM     26  C   UNL     1       1.209   6.136   6.000  0.00  0.00    +0.000 A 
ATOM     27  C   UNL     1       0.337   5.389   6.786  0.00  0.00    +0.000 A 
ATOM     28  N   UNL     1      -0.091   5.801   8.004  0.00  0.00    +0.000 NA
ATOM     29  C   UNL     1       0.395   6.993   8.412  0.00  0.00    +0.000 A 
ATOM     30  C   UNL     1       1.275   7.737   7.646  0.00  0.00    +0.000 A 
ATOM     31  N   UNL     1       1.705   7.327   6.432  0.00  0.00    +0.000 NA
ENDBRANCH  25  26
ENDBRANCH  24  25
ENDBRANCH  21  24
ENDBRANCH   3  18
TORSDOF 6
