REMARK  Name = 
REMARK  6 active torsions:
REMARK  status: ('A' for Active; 'I' for Inactive)
REMARK    1  A    between atoms: C_1  and  C_2
REMARK    2  A    between atoms: N_7  and  C_8
REMARK    3  A    between atoms: C_12  and  C_13
REMARK    4  A    between atoms: N_15  and  C_16
REMARK    5  A    between atoms: C_16  and  C_17
REMARK    6  A    between atoms: C_20  and  C_21
REMARK                            x       y       z     vdW  Elec       q    Type
REMARK                         _______ _______ _______ _____ _____    ______ ____
ROOT
ATOM      1  C   UNL     1       3.664  -5.715   1.829  0.00  0.00    +0.000 C 
ATOM      2  O   UNL     1       4.350  -5.269   2.744  0.00  0.00    +0.000 OA
ATOM      3  N   UNL     1       3.502  -7.059   1.578  0.00  0.00    +0.000 N 
ATOM      4  H   UNL     1       3.023  -7.357   0.739  0.00  0.00    +0.000 HD
ENDROOT
BRANCH   1   9
ATOM      5  C   UNL     1       3.013  -2.684  -0.311  0.00  0.00    +0.000 A 
ATOM      6  C   UNL     1       1.757  -2.989  -0.853  0.00  0.00    +0.000 A 
ATOM      7  C   UNL     1       1.119  -4.189  -0.532  0.00  0.00    +0.000 A 
ATOM      8  C   UNL     1       1.723  -5.086   0.349  0.00  0.00    +0.000 A 
ATOM      9  C   UNL     1       2.981  -4.790   0.892  0.00  0.00    +0.000 A 
ATOM     10  C   UNL     1       3.623  -3.592   0.560  0.00  0.00    +0.000 A 
BRANCH   5  17
ATOM     11  C   UNL     1       1.916   0.238  -0.153  0.00  0.00    +0.000 C 
ATOM     12  C   UNL     1       3.212  -0.197  -0.736  0.00  0.00    +0.000 A 
ATOM     13  C   UNL     1       4.166   0.582  -1.273  0.00  0.00    +0.000 A 
ATOM     14  N   UNL     1       5.252  -0.188  -1.581  0.00  0.00    +0.000 N 
ATOM     15  C   UNL     1       5.006  -1.526  -1.218  0.00  0.00    +0.000 A 
ATOM     16  O   UNL     1       5.777  -2.459  -1.391  0.00  0.00    +0.000 OA
ATOM     17  N   UNL     1       3.682  -1.505  -0.684  0.00  0.00    +0.000 N 
ATOM     18  H   UNL     1       6.116   0.113  -2.009  0.00  0.00    +0.000 HD
ENDBRANCH   5  17
ENDBRANCH   1   9
BRANCH   3  19
ATOM     19  C   UNL     1       4.191  -8.067   2.349  0.00  0.00    +0.000 C 
BRANCH  19  20
ATOM     20  C   UNL     1       3.217  -8.947   3.082  0.00  0.00    +0.000 A 
ATOM     21  C   UNL     1       2.820  -8.615   4.383  0.00  0.00    +0.000 A 
ATOM     22  C   UNL     1       1.933  -9.437   5.089  0.00  0.00    +0.000 A 
ATOM     23  C   UNL     1       1.389 -10.604   4.519  0.00  0.00    +0.000 A 
ATOM     24  C   UNL     1       1.778 -10.894   3.198  0.00  0.00    +0.000 A 
ATOM     25  F   UNL     1       1.282 -11.967   2.562  0.00  0.00    +0.000 F 
ATOM     26  C   UNL     1       2.678 -10.091   2.489  0.00  0.00    +0.000 A 
BRANCH  23  27
ATOM     27  C   UNL     1       0.476 -11.479   5.291  0.00  0.00    +0.000 A 
ATOM     28  C   UNL     1      -0.395 -10.971   6.272  0.00  0.00    +0.000 A 
ATOM     29  C   UNL     1      -1.211 -11.824   7.016  0.00  0.00    +0.000 A 
ATOM     30  C   UNL     1      -1.152 -13.179   6.757  0.00  0.00    +0.000 A 
ATOM     31  N   UNL     1      -0.348 -13.722   5.825  0.00  0.00    +0.000 NA
ATOM     32  C   UNL     1       0.439 -12.865   5.124  0.00  0.00    +0.000 A 
ENDBRANCH  23  27
ENDBRANCH  19  20
ENDBRANCH   3  19
TORSDOF 5
