REMARK  Name = 
REMARK  6 active torsions:
REMARK  status: ('A' for Active; 'I' for Inactive)
REMARK    1  A    between atoms: C_2  and  O_3
REMARK    2  A    between atoms: C_2  and  C_23
REMARK    3  A    between atoms: O_3  and  C_4
REMARK    4  A    between atoms: C_4  and  C_5
REMARK    5  A    between atoms: C_8  and  C_9
REMARK    6  A    between atoms: C_28  and  O_29
REMARK                            x       y       z     vdW  Elec       q    Type
REMARK                         _______ _______ _______ _____ _____    ______ ____
ROOT
ATOM      1  C   UNL     1       5.052   2.691  -0.623  0.00  0.00    +0.000 A 
ATOM      2  C   UNL     1       4.152   3.746  -0.754  0.00  0.00    +0.000 A 
ATOM      3  C   UNL     1       4.619   5.057  -0.817  0.00  0.00    +0.000 A 
ATOM      4  C   UNL     1       5.987   5.386  -0.698  0.00  0.00    +0.000 A 
ATOM      5  C   UNL     1       6.889   4.315  -0.643  0.00  0.00    +0.000 A 
ATOM      6  C   UNL     1       6.425   2.983  -0.607  0.00  0.00    +0.000 A 
ENDROOT
BRANCH   4   7
ATOM      7  C   UNL     1       6.357   6.819  -0.551  0.00  0.00    +0.000 A 
ATOM      8  C   UNL     1       5.470   7.648   0.177  0.00  0.00    +0.000 A 
ATOM      9  C   UNL     1       5.614   9.025   0.246  0.00  0.00    +0.000 A 
ATOM     10  C   UNL     1       6.729   9.605  -0.331  0.00  0.00    +0.000 A 
ATOM     11  O   UNL     1       6.824  10.994  -0.209  0.00  0.00    +0.000 OA
ATOM     12  C   UNL     1       8.027  11.620  -0.495  0.00  0.00    +0.000 A 
ATOM     13  O   UNL     1       8.195  12.812  -0.272  0.00  0.00    +0.000 OA
ATOM     14  N   UNL     1       9.013  10.838  -1.036  0.00  0.00    +0.000 N 
ATOM     15  C   UNL     1       8.927   9.509  -1.364  0.00  0.00    +0.000 A 
ATOM     16  O   UNL     1       9.836   8.916  -1.933  0.00  0.00    +0.000 OA
ATOM     17  C   UNL     1       7.695   8.823  -0.947  0.00  0.00    +0.000 A 
ATOM     18  C   UNL     1       7.506   7.429  -1.087  0.00  0.00    +0.000 A 
ATOM     19  H   UNL     1       9.879  11.313  -1.246  0.00  0.00    +0.000 HD
ENDBRANCH   4   7
BRANCH   1  20
ATOM     20  C   UNL     1       4.530   1.290  -0.423  0.00  0.00    +0.000 C 
BRANCH  20  21
ATOM     21  O   UNL     1       4.912   0.439  -1.511  0.00  0.00    +0.000 OA
BRANCH  21  23
ATOM     22  O   UNL     1       5.953  -0.984  -0.037  0.00  0.00    +0.000 OA
ATOM     23  C   UNL     1       5.593  -0.673  -1.172  0.00  0.00    +0.000 C 
BRANCH  23  24
ATOM     24  C   UNL     1       5.748  -1.596  -2.324  0.00  0.00    +0.000 A 
ATOM     25  C   UNL     1       5.751  -2.972  -2.040  0.00  0.00    +0.000 A 
ATOM     26  C   UNL     1       5.878  -3.910  -3.066  0.00  0.00    +0.000 A 
ATOM     27  C   UNL     1       5.999  -3.481  -4.385  0.00  0.00    +0.000 A 
ATOM     28  C   UNL     1       6.016  -2.115  -4.678  0.00  0.00    +0.000 A 
ATOM     29  C   UNL     1       5.906  -1.174  -3.649  0.00  0.00    +0.000 A 
BRANCH  29  30
ATOM     30  O   UNL     1       5.995   0.154  -3.954  0.00  0.00    +0.000 OA
ATOM     31  H   UNL     1       6.154   0.264  -4.905  0.00  0.00    +0.000 HD
ENDBRANCH  29  30
ENDBRANCH  23  24
ENDBRANCH  21  23
ENDBRANCH  20  21
ENDBRANCH   1  20
TORSDOF 6
