REMARK  Name = 
REMARK  10 active torsions:
REMARK  status: ('A' for Active; 'I' for Inactive)
REMARK    1  A    between atoms: C_1  and  O_2
REMARK    2  A    between atoms: O_2  and  C_3
REMARK    3  A    between atoms: C_6  and  C_7
REMARK    4  A    between atoms: C_7  and  C_8
REMARK    5  A    between atoms: C_8  and  N_9
REMARK    6  A    between atoms: C_8  and  C_25
REMARK    7  A    between atoms: C_10  and  C_12
REMARK    8  A    between atoms: N_18  and  C_19
REMARK    9  A    between atoms: C_32  and  O_33
REMARK   10  A    between atoms: O_33  and  C_34
REMARK                            x       y       z     vdW  Elec       q    Type
REMARK                         _______ _______ _______ _____ _____    ______ ____
ROOT
ATOM      1  C   UNL     1       4.814   3.803   4.262  0.00  0.00    +0.000 C 
ENDROOT
BRANCH   1   2
ATOM      2  C   UNL     1       5.462   4.867   5.149  0.00  0.00    +0.000 A 
ATOM      3  C   UNL     1       4.682   5.447   6.169  0.00  0.00    +0.000 A 
ATOM      4  C   UNL     1       5.217   6.424   7.012  0.00  0.00    +0.000 A 
ATOM      5  C   UNL     1       6.535   6.834   6.853  0.00  0.00    +0.000 A 
ATOM      6  C   UNL     1       7.322   6.263   5.854  0.00  0.00    +0.000 A 
ATOM      7  C   UNL     1       6.786   5.277   5.014  0.00  0.00    +0.000 A 
ENDBRANCH   1   2
BRANCH   1   8
ATOM      8  N   UNL     1       4.882   2.491   4.921  0.00  0.00    +0.000 N 
ATOM      9  C   UNL     1       3.851   2.050   5.715  0.00  0.00    +0.000 C 
ATOM     10  O   UNL     1       2.774   2.613   5.852  0.00  0.00    +0.000 OA
ATOM     11  H   UNL     1       5.790   2.051   4.984  0.00  0.00    +0.000 HD
BRANCH   9  12
ATOM     12  C   UNL     1       4.158   0.883   6.566  0.00  0.00    +0.000 A 
ATOM     13  C   UNL     1       3.974   1.036   7.949  0.00  0.00    +0.000 A 
ATOM     14  C   UNL     1       4.335   0.012   8.814  0.00  0.00    +0.000 A 
ATOM     15  C   UNL     1       4.767  -1.179   8.259  0.00  0.00    +0.000 A 
ATOM     16  C   UNL     1       5.044  -2.318   9.108  0.00  0.00    +0.000 A 
ATOM     17  O   UNL     1       5.903  -2.312   9.974  0.00  0.00    +0.000 OA
ATOM     18  N   UNL     1       4.172  -3.340   8.811  0.00  0.00    +0.000 N 
ATOM     19  C   UNL     1       3.265  -3.684   9.884  0.00  0.00    +0.000 C 
ATOM     20  C   UNL     1       3.916  -3.672   7.489  0.00  0.00    +0.000 A 
ATOM     21  O   UNL     1       3.233  -4.626   7.135  0.00  0.00    +0.000 OA
ATOM     22  N   UNL     1       4.448  -2.793   6.535  0.00  0.00    +0.000 N 
ATOM     23  C   UNL     1       4.649  -1.434   6.896  0.00  0.00    +0.000 A 
ATOM     24  C   UNL     1       4.476  -0.384   6.020  0.00  0.00    +0.000 A 
ATOM     25  H   UNL     1       4.184  -3.010   5.580  0.00  0.00    +0.000 HD
ENDBRANCH   9  12
ENDBRANCH   1   8
BRANCH   1  26
ATOM     26  C   UNL     1       5.372   3.748   2.812  0.00  0.00    +0.000 C 
BRANCH  26  30
ATOM     27  C   UNL     1       3.128   0.768   0.632  0.00  0.00    +0.000 A 
ATOM     28  C   UNL     1       2.489   1.896   1.152  0.00  0.00    +0.000 A 
ATOM     29  C   UNL     1       3.226   2.906   1.771  0.00  0.00    +0.000 A 
ATOM     30  C   UNL     1       4.609   2.779   1.933  0.00  0.00    +0.000 A 
ATOM     31  C   UNL     1       5.261   1.703   1.319  0.00  0.00    +0.000 A 
ATOM     32  C   UNL     1       4.532   0.716   0.643  0.00  0.00    +0.000 A 
BRANCH  27  34
ATOM     33  C   UNL     1       1.094  -0.199  -0.155  0.00  0.00    +0.000 C 
ATOM     34  O   UNL     1       2.463  -0.343   0.187  0.00  0.00    +0.000 OA
ENDBRANCH  27  34
BRANCH  32  35
ATOM     35  O   UNL     1       5.304  -0.265   0.071  0.00  0.00    +0.000 OA
ATOM     36  C   UNL     1       4.779  -0.824  -1.133  0.00  0.00    +0.000 C 
ENDBRANCH  32  35
ENDBRANCH  26  30
ENDBRANCH   1  26
TORSDOF 7
