REMARK  Name = 
REMARK  4 active torsions:
REMARK  status: ('A' for Active; 'I' for Inactive)
REMARK    1  A    between atoms: C_2  and  C_24
REMARK    2  A    between atoms: N_3  and  C_4
REMARK    3  A    between atoms: C_9  and  C_10
REMARK    4  A    between atoms: N_12  and  C_13
REMARK                            x       y       z     vdW  Elec       q    Type
REMARK                         _______ _______ _______ _____ _____    ______ ____
ROOT
ATOM      1  C   UNL     1       2.148  -2.019  -1.328  0.00  0.00    +0.000 A 
ATOM      2  C   UNL     1       1.075  -1.678  -2.164  0.00  0.00    +0.000 A 
ATOM      3  C   UNL     1       0.366  -2.649  -2.859  0.00  0.00    +0.000 A 
ATOM      4  C   UNL     1       0.732  -3.976  -2.728  0.00  0.00    +0.000 A 
ATOM      5  F   UNL     1       0.003  -4.885  -3.394  0.00  0.00    +0.000 F 
ATOM      6  C   UNL     1       1.817  -4.357  -1.925  0.00  0.00    +0.000 A 
ATOM      7  C   UNL     1       2.550  -3.360  -1.252  0.00  0.00    +0.000 A 
ENDROOT
BRANCH   6   8
ATOM      8  C   UNL     1       2.121  -5.758  -1.723  0.00  0.00    +0.000 A 
ATOM      9  C   UNL     1       1.196  -6.773  -1.754  0.00  0.00    +0.000 A 
ATOM     10  N   UNL     1       1.885  -7.916  -1.436  0.00  0.00    +0.000 N 
ATOM     11  N   UNL     1       3.188  -7.589  -1.228  0.00  0.00    +0.000 NA
ATOM     12  N   UNL     1       3.334  -6.276  -1.387  0.00  0.00    +0.000 NA
BRANCH  10  13
ATOM     13  C   UNL     1       1.379  -9.227  -1.282  0.00  0.00    +0.000 A 
ATOM     14  C   UNL     1       0.038  -9.524  -1.555  0.00  0.00    +0.000 A 
ATOM     15  F   UNL     1      -0.816  -8.608  -2.028  0.00  0.00    +0.000 F 
ATOM     16  C   UNL     1      -0.479 -10.804  -1.357  0.00  0.00    +0.000 A 
ATOM     17  C   UNL     1       0.342 -11.820  -0.882  0.00  0.00    +0.000 A 
ATOM     18  C   UNL     1       1.682 -11.548  -0.621  0.00  0.00    +0.000 A 
ATOM     19  C   UNL     1       2.195 -10.263  -0.824  0.00  0.00    +0.000 A 
ATOM     20  F   UNL     1       3.491 -10.075  -0.539  0.00  0.00    +0.000 F 
ENDBRANCH  10  13
ENDBRANCH   6   8
BRANCH   1  23
ATOM     21  O   UNL     1       1.139   0.584  -0.508  0.00  0.00    +0.000 OA
ATOM     22  C   UNL     1       2.264   0.184  -0.204  0.00  0.00    +0.000 C 
ATOM     23  N   UNL     1       2.804  -1.048  -0.537  0.00  0.00    +0.000 N 
ATOM     24  H   UNL     1       3.669  -1.301  -0.064  0.00  0.00    +0.000 HD
BRANCH  22  25
ATOM     25  C   UNL     1       3.105   1.080   0.636  0.00  0.00    +0.000 A 
ATOM     26  C   UNL     1       2.541   2.262   1.083  0.00  0.00    +0.000 A 
ATOM     27  C   UNL     1       3.364   3.069   1.817  0.00  0.00    +0.000 A 
ATOM     28  N   UNL     1       4.641   2.751   2.092  0.00  0.00    +0.000 NA
ATOM     29  C   UNL     1       5.084   1.578   1.611  0.00  0.00    +0.000 A 
ATOM     30  N   UNL     1       4.378   0.694   0.891  0.00  0.00    +0.000 NA
ENDBRANCH  22  25
ENDBRANCH   1  23
TORSDOF 4
