REMARK  Name = 
REMARK  5 active torsions:
REMARK  status: ('A' for Active; 'I' for Inactive)
REMARK    1  A    between atoms: C_2  and  C_26
REMARK    2  A    between atoms: N_3  and  C_4
REMARK    3  A    between atoms: C_4  and  C_5
REMARK    4  A    between atoms: C_4  and  C_20
REMARK    5  A    between atoms: N_7  and  C_8
REMARK                            x       y       z     vdW  Elec       q    Type
REMARK                         _______ _______ _______ _____ _____    ______ ____
ROOT
ATOM      1  C   UNL     1       2.285   2.173   1.315  0.00  0.00    +0.000 C 
ENDROOT
BRANCH   1   2
ATOM      2  C   UNL     1       3.281   3.187   1.866  0.00  0.00    +0.000 A 
ATOM      3  C   UNL     1       2.909   4.540   1.921  0.00  0.00    +0.000 A 
ATOM      4  C   UNL     1       3.715   5.471   2.575  0.00  0.00    +0.000 A 
ATOM      5  C   UNL     1       4.896   5.062   3.189  0.00  0.00    +0.000 A 
ATOM      6  C   UNL     1       5.294   3.729   3.120  0.00  0.00    +0.000 A 
ATOM      7  C   UNL     1       4.503   2.799   2.446  0.00  0.00    +0.000 A 
ENDBRANCH   1   2
BRANCH   1  10
ATOM      8  O   UNL     1       3.119   1.971  -1.365  0.00  0.00    +0.000 OA
ATOM      9  C   UNL     1       3.273   1.010  -0.623  0.00  0.00    +0.000 C 
ATOM     10  N   UNL     1       2.932   1.016   0.709  0.00  0.00    +0.000 N 
ATOM     11  H   UNL     1       3.172   0.235   1.301  0.00  0.00    +0.000 HD
BRANCH   9  12
ATOM     12  C   UNL     1       3.908  -0.235  -1.137  0.00  0.00    +0.000 A 
ATOM     13  C   UNL     1       4.814  -0.128  -2.199  0.00  0.00    +0.000 A 
ATOM     14  C   UNL     1       5.424  -1.271  -2.720  0.00  0.00    +0.000 A 
ATOM     15  C   UNL     1       5.124  -2.525  -2.189  0.00  0.00    +0.000 A 
ATOM     16  C   UNL     1       4.209  -2.640  -1.141  0.00  0.00    +0.000 A 
ATOM     17  C   UNL     1       3.597  -1.498  -0.616  0.00  0.00    +0.000 A 
ENDBRANCH   9  12
ENDBRANCH   1  10
BRANCH   1  18
ATOM     18  C   UNL     1       1.278   1.677   2.395  0.00  0.00    +0.000 C 
ATOM     19  O   UNL     1       0.157   1.278   2.073  0.00  0.00    +0.000 OA
ATOM     20  N   UNL     1       1.802   1.592   3.680  0.00  0.00    +0.000 N 
ATOM     21  H   UNL     1       2.731   1.952   3.852  0.00  0.00    +0.000 HD
BRANCH  20  22
ATOM     22  C   UNL     1       1.114   1.202   4.810  0.00  0.00    +0.000 A 
ATOM     23  C   UNL     1      -0.175   0.756   4.927  0.00  0.00    +0.000 A 
ATOM     24  N   UNL     1      -0.427   0.571   6.273  0.00  0.00    +0.000 N 
ATOM     25  C   UNL     1      -1.650   0.080   6.817  0.00  0.00    +0.000 A 
ATOM     26  N   UNL     1      -2.433  -0.642   5.953  0.00  0.00    +0.000 NA
ATOM     27  C   UNL     1      -3.563  -1.197   6.436  0.00  0.00    +0.000 A 
ATOM     28  C   UNL     1      -3.987  -1.039   7.741  0.00  0.00    +0.000 A 
ATOM     29  C   UNL     1      -3.210  -0.264   8.597  0.00  0.00    +0.000 A 
ATOM     30  C   UNL     1      -2.016   0.308   8.146  0.00  0.00    +0.000 A 
ATOM     31 CL   UNL     1      -1.204   1.350   9.258  0.00  0.00    +0.000 Cl
ATOM     32  N   UNL     1       0.679   0.831   7.020  0.00  0.00    +0.000 NA
ATOM     33  C   UNL     1       1.602   1.193   6.130  0.00  0.00    +0.000 A 
ENDBRANCH  20  22
ENDBRANCH   1  18
TORSDOF 5
