REMARK  Name = 
REMARK  5 active torsions:
REMARK  status: ('A' for Active; 'I' for Inactive)
REMARK    1  A    between atoms: C_6  and  C_7
REMARK    2  A    between atoms: C_11  and  C_12
REMARK    3  A    between atoms: N_14  and  C_15
REMARK    4  A    between atoms: C_15  and  C_16
REMARK    5  A    between atoms: C_19  and  C_20
REMARK                            x       y       z     vdW  Elec       q    Type
REMARK                         _______ _______ _______ _____ _____    ______ ____
ROOT
ATOM      1  C   UNL     1       7.549   4.528  -2.252  0.00  0.00    +0.000 C 
ATOM      2  O   UNL     1       8.171   5.581  -2.183  0.00  0.00    +0.000 OA
ATOM      3  N   UNL     1       7.449   3.774  -3.397  0.00  0.00    +0.000 N 
ATOM      4  H   UNL     1       6.845   2.964  -3.425  0.00  0.00    +0.000 HD
ENDROOT
BRANCH   1   9
ATOM      5  C   UNL     1       5.928   2.236   0.353  0.00  0.00    +0.000 A 
ATOM      6  C   UNL     1       5.386   3.227   1.197  0.00  0.00    +0.000 A 
ATOM      7  C   UNL     1       5.585   4.587   0.950  0.00  0.00    +0.000 A 
ATOM      8  C   UNL     1       6.306   4.989  -0.169  0.00  0.00    +0.000 A 
ATOM      9  C   UNL     1       6.805   4.035  -1.061  0.00  0.00    +0.000 A 
ATOM     10  C   UNL     1       6.626   2.669  -0.795  0.00  0.00    +0.000 A 
BRANCH   5  16
ATOM     11  N   UNL     1       5.776  -2.260  -1.127  0.00  0.00    +0.000 N 
ATOM     12  C   UNL     1       5.756  -1.363  -0.076  0.00  0.00    +0.000 A 
ATOM     13  N   UNL     1       5.644  -1.844   1.179  0.00  0.00    +0.000 NA
ATOM     14  N   UNL     1       5.623  -0.991   2.228  0.00  0.00    +0.000 NA
ATOM     15  C   UNL     1       5.717   0.323   1.968  0.00  0.00    +0.000 A 
ATOM     16  C   UNL     1       5.806   0.798   0.672  0.00  0.00    +0.000 A 
ATOM     17  N   UNL     1       5.820  -0.059  -0.377  0.00  0.00    +0.000 NA
ATOM     18  H   UNL     1       5.346  -3.133  -0.854  0.00  0.00    +0.000 HD
ATOM     19  H   UNL     1       5.441  -1.821  -1.973  0.00  0.00    +0.000 HD
ENDBRANCH   5  16
ENDBRANCH   1   9
BRANCH   3  20
ATOM     20  C   UNL     1       8.095   4.180  -4.624  0.00  0.00    +0.000 C 
BRANCH  20  21
ATOM     21  C   UNL     1       9.104   3.152  -5.058  0.00  0.00    +0.000 A 
ATOM     22  C   UNL     1      10.436   3.235  -4.634  0.00  0.00    +0.000 A 
ATOM     23  C   UNL     1      11.371   2.268  -5.028  0.00  0.00    +0.000 A 
ATOM     24  C   UNL     1      11.005   1.182  -5.846  0.00  0.00    +0.000 A 
ATOM     25  C   UNL     1       9.664   1.126  -6.256  0.00  0.00    +0.000 A 
ATOM     26  F   UNL     1       9.233   0.144  -7.064  0.00  0.00    +0.000 F 
ATOM     27  C   UNL     1       8.725   2.083  -5.870  0.00  0.00    +0.000 A 
BRANCH  24  28
ATOM     28  C   UNL     1      11.996   0.168  -6.258  0.00  0.00    +0.000 A 
ATOM     29  C   UNL     1      11.659  -1.161  -6.514  0.00  0.00    +0.000 A 
ATOM     30  C   UNL     1      12.639  -2.050  -6.953  0.00  0.00    +0.000 A 
ATOM     31  C   UNL     1      13.940  -1.600  -7.108  0.00  0.00    +0.000 A 
ATOM     32  C   UNL     1      14.210  -0.278  -6.805  0.00  0.00    +0.000 A 
ATOM     33  N   UNL     1      13.277   0.607  -6.384  0.00  0.00    +0.000 NA
ENDBRANCH  24  28
ENDBRANCH  20  21
ENDBRANCH   3  20
TORSDOF 5
