REMARK  Name = 
REMARK  4 active torsions:
REMARK  status: ('A' for Active; 'I' for Inactive)
REMARK    1  A    between atoms: C_2  and  C_16
REMARK    2  A    between atoms: N_3  and  C_4
REMARK    3  A    between atoms: N_8  and  C_9
REMARK    4  A    between atoms: N_18  and  C_19
REMARK                            x       y       z     vdW  Elec       q    Type
REMARK                         _______ _______ _______ _____ _____    ______ ____
ROOT
ATOM      1  O   UNL     1       1.020   0.341  -0.546  0.00  0.00    +0.000 OA
ATOM      2  C   UNL     1       2.179   0.097  -0.222  0.00  0.00    +0.000 C 
ATOM      3  N   UNL     1       2.791   0.555   0.929  0.00  0.00    +0.000 N 
ATOM      4  H   UNL     1       3.801   0.525   0.980  0.00  0.00    +0.000 HD
ENDROOT
BRANCH   3   5
ATOM      5  C   UNL     1       2.106   1.183   2.005  0.00  0.00    +0.000 A 
ATOM      6  C   UNL     1       0.700   1.081   2.132  0.00  0.00    +0.000 A 
ATOM      7  C   UNL     1       0.158   1.733   3.248  0.00  0.00    +0.000 A 
ATOM      8  N   UNL     1      -1.118   1.806   3.659  0.00  0.00    +0.000 NA
ATOM      9  N   UNL     1      -1.073   2.534   4.804  0.00  0.00    +0.000 N 
ATOM     10  C   UNL     1       0.190   2.960   5.138  0.00  0.00    +0.000 A 
ATOM     11  C   UNL     1       1.002   2.445   4.166  0.00  0.00    +0.000 A 
ATOM     12  C   UNL     1       2.383   2.575   4.096  0.00  0.00    +0.000 A 
ATOM     13  C   UNL     1       2.905   1.890   2.969  0.00  0.00    +0.000 A 
BRANCH   9  14
ATOM     14  C   UNL     1      -2.291   2.759   5.575  0.00  0.00    +0.000 C 
ATOM     15  F   UNL     1      -2.164   2.272   6.840  0.00  0.00    +0.000 F 
ATOM     16  F   UNL     1      -2.559   4.087   5.697  0.00  0.00    +0.000 F 
ENDBRANCH   9  14
ENDBRANCH   3   5
BRANCH   2  17
ATOM     17  C   UNL     1       3.031  -0.722  -1.146  0.00  0.00    +0.000 A 
ATOM     18  C   UNL     1       2.609  -0.773  -2.422  0.00  0.00    +0.000 A 
ATOM     19  N   UNL     1       3.138  -1.646  -3.376  0.00  0.00    +0.000 N 
ATOM     20  C   UNL     1       4.177  -2.530  -3.012  0.00  0.00    +0.000 A 
ATOM     21  O   UNL     1       4.760  -3.332  -3.739  0.00  0.00    +0.000 OA
ATOM     22  C   UNL     1       4.640  -2.455  -1.593  0.00  0.00    +0.000 A 
ATOM     23  C   UNL     1       4.096  -1.596  -0.722  0.00  0.00    +0.000 A 
BRANCH  19  24
ATOM     24  C   UNL     1       2.575  -1.691  -4.711  0.00  0.00    +0.000 A 
ATOM     25  C   UNL     1       2.556  -2.879  -5.462  0.00  0.00    +0.000 A 
ATOM     26  C   UNL     1       1.989  -2.924  -6.741  0.00  0.00    +0.000 A 
ATOM     27  C   UNL     1       1.433  -1.778  -7.286  0.00  0.00    +0.000 A 
ATOM     28  F   UNL     1       0.896  -1.819  -8.512  0.00  0.00    +0.000 F 
ATOM     29  C   UNL     1       1.423  -0.590  -6.572  0.00  0.00    +0.000 A 
ATOM     30  C   UNL     1       1.987  -0.548  -5.291  0.00  0.00    +0.000 A 
ENDBRANCH  19  24
ENDBRANCH   2  17
TORSDOF 4
