REMARK  Name = 
REMARK  8 active torsions:
REMARK  status: ('A' for Active; 'I' for Inactive)
REMARK    1  A    between atoms: C_1  and  C_2
REMARK    2  A    between atoms: N_4  and  C_5
REMARK    3  A    between atoms: C_12  and  C_13
REMARK    4  A    between atoms: N_15  and  C_16
REMARK    5  A    between atoms: N_15  and  C_20
REMARK    6  A    between atoms: C_16  and  C_17
REMARK    7  A    between atoms: C_20  and  C_21
REMARK    8  A    between atoms: C_24  and  C_25
REMARK                            x       y       z     vdW  Elec       q    Type
REMARK                         _______ _______ _______ _____ _____    ______ ____
ROOT
ATOM      1  C   UNL     1       3.489   2.824   0.866  0.00  0.00    +0.000 C 
ATOM      2  O   UNL     1       3.467   1.623   1.159  0.00  0.00    +0.000 OA
ATOM      3  N   UNL     1       2.379   3.407   0.197  0.00  0.00    +0.000 N 
ENDROOT
BRANCH   1   9
ATOM      4  C   UNL     1       6.095   2.395   3.083  0.00  0.00    +0.000 C 
ATOM      5  C   UNL     1       5.803   3.403   2.037  0.00  0.00    +0.000 A 
ATOM      6  N   UNL     1       6.737   4.345   1.862  0.00  0.00    +0.000 NA
ATOM      7  N   UNL     1       6.162   5.180   0.979  0.00  0.00    +0.000 N 
ATOM      8  N   UNL     1       4.969   4.785   0.486  0.00  0.00    +0.000 NA
ATOM      9  C   UNL     1       4.707   3.638   1.146  0.00  0.00    +0.000 A 
BRANCH   7  10
ATOM     10  C   UNL     1       6.752   6.431   0.679  0.00  0.00    +0.000 A 
ATOM     11  C   UNL     1       8.044   6.705   1.151  0.00  0.00    +0.000 A 
ATOM     12  C   UNL     1       8.618   7.956   0.927  0.00  0.00    +0.000 A 
ATOM     13  C   UNL     1       7.898   8.934   0.247  0.00  0.00    +0.000 A 
ATOM     14  C   UNL     1       6.613   8.662  -0.231  0.00  0.00    +0.000 A 
ATOM     15  C   UNL     1       6.039   7.404  -0.030  0.00  0.00    +0.000 A 
ENDBRANCH   7  10
ENDBRANCH   1   9
BRANCH   3  16
ATOM     16  C   UNL     1       1.173   2.595  -0.067  0.00  0.00    +0.000 C 
BRANCH  16  17
ATOM     17  C   UNL     1       1.128   1.433  -1.075  0.00  0.00    +0.000 C 
ATOM     18  N   UNL     1       2.280   0.749  -1.329  0.00  0.00    +0.000 N 
ATOM     19  O   UNL     1       0.074   1.032  -1.559  0.00  0.00    +0.000 OA
ATOM     20  H   UNL     1       3.005   0.766  -0.623  0.00  0.00    +0.000 HD
ATOM     21  H   UNL     1       2.159  -0.121  -1.840  0.00  0.00    +0.000 HD
ENDBRANCH  16  17
ENDBRANCH   3  16
BRANCH   3  22
ATOM     22  C   UNL     1       2.123   4.860   0.260  0.00  0.00    +0.000 C 
BRANCH  22  23
ATOM     23  C   UNL     1       2.345   5.630  -1.026  0.00  0.00    +0.000 A 
ATOM     24  C   UNL     1       2.964   5.068  -2.141  0.00  0.00    +0.000 A 
ATOM     25  C   UNL     1       3.219   5.837  -3.282  0.00  0.00    +0.000 A 
ATOM     26  C   UNL     1       2.848   7.191  -3.377  0.00  0.00    +0.000 A 
ATOM     27  C   UNL     1       2.219   7.750  -2.253  0.00  0.00    +0.000 A 
ATOM     28  C   UNL     1       1.976   6.984  -1.097  0.00  0.00    +0.000 A 
BRANCH  26  29
ATOM     29  C   UNL     1       3.128   7.959  -4.620  0.00  0.00    +0.000 A 
ATOM     30  C   UNL     1       3.090   7.321  -5.877  0.00  0.00    +0.000 A 
ATOM     31  C   UNL     1       3.430   7.986  -7.058  0.00  0.00    +0.000 A 
ATOM     32  C   UNL     1       3.792   9.325  -7.018  0.00  0.00    +0.000 A 
ATOM     33  C   UNL     1       3.805   9.997  -5.798  0.00  0.00    +0.000 A 
ATOM     34  C   UNL     1       3.478   9.321  -4.612  0.00  0.00    +0.000 A 
ENDBRANCH  26  29
ENDBRANCH  22  23
ENDBRANCH   3  22
TORSDOF 7
