REMARK  Name = 
REMARK  3 active torsions:
REMARK  status: ('A' for Active; 'I' for Inactive)
REMARK    1  A    between atoms: C_2  and  C_17
REMARK    2  A    between atoms: N_6  and  C_7
REMARK    3  A    between atoms: C_20  and  N_21
REMARK                            x       y       z     vdW  Elec       q    Type
REMARK                         _______ _______ _______ _____ _____    ______ ____
ROOT
ATOM      1  O   UNL     1       0.890  -0.228  -0.002  0.00  0.00    +0.000 OA
ATOM      2  C   UNL     1       2.105  -0.064   0.049  0.00  0.00    +0.000 C 
ATOM      3  N   UNL     1       2.776   1.084   0.385  0.00  0.00    +0.000 N 
ATOM      4  C   UNL     1       2.155   2.239   0.771  0.00  0.00    +0.000 A 
ATOM      5  N   UNL     1       0.883   2.396   1.126  0.00  0.00    +0.000 NA
ATOM      6  N   UNL     1       0.779   3.725   1.301  0.00  0.00    +0.000 N 
ATOM      7  C   UNL     1       2.013   4.299   1.108  0.00  0.00    +0.000 A 
ATOM      8  N   UNL     1       2.900   3.380   0.803  0.00  0.00    +0.000 NA
ATOM      9  H   UNL     1       3.763   1.191   0.206  0.00  0.00    +0.000 HD
ENDROOT
BRANCH   6  10
ATOM     10  C   UNL     1      -0.453   4.347   1.619  0.00  0.00    +0.000 A 
ATOM     11  C   UNL     1      -1.587   3.558   1.880  0.00  0.00    +0.000 A 
ATOM     12  C   UNL     1      -2.796   4.176   2.195  0.00  0.00    +0.000 A 
ATOM     13  F   UNL     1      -3.871   3.422   2.461  0.00  0.00    +0.000 F 
ATOM     14  C   UNL     1      -2.909   5.557   2.243  0.00  0.00    +0.000 A 
ATOM     15  C   UNL     1      -1.786   6.327   1.973  0.00  0.00    +0.000 A 
ATOM     16  F   UNL     1      -1.879   7.662   2.001  0.00  0.00    +0.000 F 
ATOM     17  C   UNL     1      -0.559   5.741   1.669  0.00  0.00    +0.000 A 
ENDBRANCH   6  10
BRANCH   2  18
ATOM     18  C   UNL     1       2.959  -1.208  -0.349  0.00  0.00    +0.000 A 
ATOM     19  C   UNL     1       2.528  -2.028  -1.401  0.00  0.00    +0.000 A 
ATOM     20  C   UNL     1       3.263  -3.160  -1.762  0.00  0.00    +0.000 A 
ATOM     21  C   UNL     1       4.411  -3.504  -1.035  0.00  0.00    +0.000 A 
ATOM     22  C   UNL     1       4.827  -2.680   0.018  0.00  0.00    +0.000 A 
ATOM     23  F   UNL     1       5.946  -2.938   0.710  0.00  0.00    +0.000 F 
ATOM     24  C   UNL     1       4.122  -1.526   0.353  0.00  0.00    +0.000 A 
BRANCH  21  25
ATOM     25  N   UNL     1       5.124  -4.688  -1.357  0.00  0.00    +0.000 N 
ATOM     26  C   UNL     1       5.865  -5.463  -0.487  0.00  0.00    +0.000 A 
ATOM     27  C   UNL     1       6.405  -6.526  -1.176  0.00  0.00    +0.000 A 
ATOM     28  C   UNL     1       5.995  -6.404  -2.519  0.00  0.00    +0.000 A 
ATOM     29  C   UNL     1       5.185  -5.291  -2.599  0.00  0.00    +0.000 A 
ENDBRANCH  21  25
ENDBRANCH   2  18
TORSDOF 3
