REMARK  Name = 
REMARK  4 active torsions:
REMARK  status: ('A' for Active; 'I' for Inactive)
REMARK    1  A    between atoms: C_2  and  C_16
REMARK    2  A    between atoms: N_3  and  C_4
REMARK    3  A    between atoms: N_12  and  C_13
REMARK    4  A    between atoms: N_18  and  C_19
REMARK                            x       y       z     vdW  Elec       q    Type
REMARK                         _______ _______ _______ _____ _____    ______ ____
ROOT
ATOM      1  O   UNL     1       0.933   0.188  -0.292  0.00  0.00    +0.000 OA
ATOM      2  C   UNL     1       2.135  -0.024  -0.146  0.00  0.00    +0.000 C 
ATOM      3  N   UNL     1       2.791  -0.143   1.065  0.00  0.00    +0.000 N 
ATOM      4  H   UNL     1       3.801  -0.114   1.060  0.00  0.00    +0.000 HD
ENDROOT
BRANCH   3   5
ATOM      5  C   UNL     1       2.162  -0.129   2.336  0.00  0.00    +0.000 A 
ATOM      6  C   UNL     1       0.782  -0.284   2.500  0.00  0.00    +0.000 A 
ATOM      7  C   UNL     1       0.167  -0.199   3.752  0.00  0.00    +0.000 A 
ATOM      8  C   UNL     1       0.988   0.047   4.854  0.00  0.00    +0.000 A 
ATOM      9  C   UNL     1       2.369   0.167   4.738  0.00  0.00    +0.000 A 
ATOM     10  C   UNL     1       2.973   0.057   3.467  0.00  0.00    +0.000 A 
ATOM     11  C   UNL     1       2.814   0.403   6.058  0.00  0.00    +0.000 A 
ATOM     12  N   UNL     1       1.818   0.438   6.948  0.00  0.00    +0.000 NA
ATOM     13  N   UNL     1       0.709   0.224   6.191  0.00  0.00    +0.000 N 
BRANCH  13  14
ATOM     14  C   UNL     1      -0.617   0.214   6.797  0.00  0.00    +0.000 C 
ATOM     15  F   UNL     1      -1.419   1.175   6.258  0.00  0.00    +0.000 F 
ATOM     16  F   UNL     1      -1.249  -0.975   6.592  0.00  0.00    +0.000 F 
ENDBRANCH  13  14
ENDBRANCH   3   5
BRANCH   2  17
ATOM     17  C   UNL     1       3.005  -0.120  -1.363  0.00  0.00    +0.000 A 
ATOM     18  C   UNL     1       2.554   0.511  -2.462  0.00  0.00    +0.000 A 
ATOM     19  N   UNL     1       3.148   0.379  -3.719  0.00  0.00    +0.000 N 
ATOM     20  C   UNL     1       4.287  -0.441  -3.873  0.00  0.00    +0.000 A 
ATOM     21  O   UNL     1       4.935  -0.622  -4.902  0.00  0.00    +0.000 OA
ATOM     22  C   UNL     1       4.770  -1.138  -2.646  0.00  0.00    +0.000 A 
ATOM     23  C   UNL     1       4.160  -0.978  -1.465  0.00  0.00    +0.000 A 
BRANCH  19  24
ATOM     24  C   UNL     1       2.567   1.034  -4.877  0.00  0.00    +0.000 A 
ATOM     25  C   UNL     1       2.627   0.441  -6.150  0.00  0.00    +0.000 A 
ATOM     26  C   UNL     1       2.045   1.050  -7.270  0.00  0.00    +0.000 A 
ATOM     27  C   UNL     1       1.385   2.267  -7.144  0.00  0.00    +0.000 A 
ATOM     28  C   UNL     1       1.303   2.873  -5.895  0.00  0.00    +0.000 A 
ATOM     29  C   UNL     1       1.885   2.262  -4.782  0.00  0.00    +0.000 A 
ATOM     30  F   UNL     1       1.815   2.929  -3.619  0.00  0.00    +0.000 F 
ENDBRANCH  19  24
ENDBRANCH   2  17
TORSDOF 4
