REMARK  Name = 
REMARK  7 active torsions:
REMARK  status: ('A' for Active; 'I' for Inactive)
REMARK    1  A    between atoms: C_1  and  C_2
REMARK    2  A    between atoms: C_9  and  C_10
REMARK    3  A    between atoms: C_10  and  O_12
REMARK    4  A    between atoms: O_12  and  C_13
REMARK    5  A    between atoms: C_13  and  C_14
REMARK    6  A    between atoms: C_17  and  C_18
REMARK    7  A    between atoms: C_23  and  C_24
REMARK                            x       y       z     vdW  Elec       q    Type
REMARK                         _______ _______ _______ _____ _____    ______ ____
ROOT
ATOM      1  C   UNL     1       5.389  -7.232   0.036  0.00  0.00    +0.000 C 
ENDROOT
BRANCH   1   2
ATOM      2  C   UNL     1       4.453  -8.346  -0.264  0.00  0.00    +0.000 A 
ATOM      3  C   UNL     1       4.195  -8.972  -1.463  0.00  0.00    +0.000 A 
ATOM      4  O   UNL     1       3.256  -9.931  -1.246  0.00  0.00    +0.000 OA
ATOM      5  C   UNL     1       2.980  -9.833   0.093  0.00  0.00    +0.000 A 
ATOM      6  N   UNL     1       3.641  -8.879   0.710  0.00  0.00    +0.000 NA
BRANCH   5   7
ATOM      7  C   UNL     1       1.984 -10.758   0.614  0.00  0.00    +0.000 A 
ATOM      8  C   UNL     1       0.873 -11.059  -0.204  0.00  0.00    +0.000 A 
ATOM      9  C   UNL     1      -0.145 -11.908   0.230  0.00  0.00    +0.000 A 
ATOM     10  C   UNL     1      -0.074 -12.472   1.494  0.00  0.00    +0.000 A 
ATOM     11  C   UNL     1       1.015 -12.188   2.318  0.00  0.00    +0.000 A 
ATOM     12  C   UNL     1       2.063 -11.336   1.896  0.00  0.00    +0.000 A 
BRANCH  12  13
ATOM     13  C   UNL     1       3.200 -11.142   2.877  0.00  0.00    +0.000 C 
ATOM     14  F   UNL     1       4.296 -10.466   2.454  0.00  0.00    +0.000 F 
ATOM     15  F   UNL     1       2.786 -10.514   4.016  0.00  0.00    +0.000 F 
ATOM     16  F   UNL     1       3.693 -12.348   3.299  0.00  0.00    +0.000 F 
ENDBRANCH  12  13
ENDBRANCH   5   7
ENDBRANCH   1   2
BRANCH   1  17
ATOM     17  O   UNL     1       4.732  -5.953   0.005  0.00  0.00    +0.000 OA
BRANCH  17  18
ATOM     18  C   UNL     1       4.506  -5.484  -1.249  0.00  0.00    +0.000 C 
ATOM     19  O   UNL     1       4.865  -6.052  -2.270  0.00  0.00    +0.000 OA
BRANCH  18  28
ATOM     20  C   UNL     1       0.789  -0.238   0.129  0.00  0.00    +0.000 C 
ATOM     21  C   UNL     1       1.391  -0.675  -1.169  0.00  0.00    +0.000 A 
ATOM     22  C   UNL     1       1.253   0.016  -2.311  0.00  0.00    +0.000 A 
ATOM     23  C   UNL     1       1.917  -0.397  -3.515  0.00  0.00    +0.000 A 
ATOM     24  C   UNL     1       2.714  -1.471  -3.499  0.00  0.00    +0.000 A 
ATOM     25  N   UNL     1       2.875  -2.247  -2.359  0.00  0.00    +0.000 N 
ATOM     26  C   UNL     1       3.746  -3.330  -2.418  0.00  0.00    +0.000 A 
ATOM     27  O   UNL     1       4.489  -3.550  -3.373  0.00  0.00    +0.000 OA
ATOM     28  C   UNL     1       3.763  -4.210  -1.229  0.00  0.00    +0.000 A 
ATOM     29  C   UNL     1       3.029  -3.816  -0.176  0.00  0.00    +0.000 A 
ATOM     30  N   UNL     1       2.290  -2.670  -0.104  0.00  0.00    +0.000 NA
ATOM     31  C   UNL     1       2.214  -1.935  -1.174  0.00  0.00    +0.000 A 
ENDBRANCH  18  28
ENDBRANCH  17  18
ENDBRANCH   1  17
TORSDOF 6
