REMARK  Name = 
REMARK  5 active torsions:
REMARK  status: ('A' for Active; 'I' for Inactive)
REMARK    1  A    between atoms: C_2  and  C_14
REMARK    2  A    between atoms: N_3  and  C_4
REMARK    3  A    between atoms: C_4  and  C_5
REMARK    4  A    between atoms: C_21  and  C_22
REMARK    5  A    between atoms: C_22  and  C_24
REMARK                            x       y       z     vdW  Elec       q    Type
REMARK                         _______ _______ _______ _____ _____    ______ ____
ROOT
ATOM      1  C   UNL     1       2.881   0.892  -0.658  0.00  0.00    +0.000 A 
ATOM      2  C   UNL     1       2.382   2.204  -0.824  0.00  0.00    +0.000 A 
ATOM      3  C   UNL     1       2.863   3.037  -1.826  0.00  0.00    +0.000 A 
ATOM      4  F   UNL     1       2.372   4.276  -1.948  0.00  0.00    +0.000 F 
ATOM      5  C   UNL     1       3.833   2.580  -2.696  0.00  0.00    +0.000 A 
ATOM      6  F   UNL     1       4.285   3.367  -3.680  0.00  0.00    +0.000 F 
ATOM      7  C   UNL     1       4.346   1.295  -2.561  0.00  0.00    +0.000 A 
ATOM      8  C   UNL     1       3.907   0.447  -1.517  0.00  0.00    +0.000 A 
ENDROOT
BRANCH   1  10
ATOM      9  O   UNL     1       0.987   0.380   0.613  0.00  0.00    +0.000 OA
ATOM     10  C   UNL     1       2.178   0.135   0.424  0.00  0.00    +0.000 C 
ATOM     11  N   UNL     1       2.883  -0.729   1.229  0.00  0.00    +0.000 N 
ATOM     12  H   UNL     1       3.775  -1.093   0.915  0.00  0.00    +0.000 HD
BRANCH  11  13
ATOM     13  C   UNL     1       2.214  -1.481   2.279  0.00  0.00    +0.000 C 
BRANCH  13  14
ATOM     14  C   UNL     1       2.227  -0.750   3.592  0.00  0.00    +0.000 A 
ATOM     15  C   UNL     1       1.226   0.197   3.938  0.00  0.00    +0.000 A 
ATOM     16  C   UNL     1       1.218   0.945   5.147  0.00  0.00    +0.000 A 
ATOM     17  C   UNL     1       2.212   0.820   6.131  0.00  0.00    +0.000 A 
ATOM     18  C   UNL     1       3.206  -0.128   5.832  0.00  0.00    +0.000 A 
ATOM     19  N   UNL     1       4.268  -0.489   6.561  0.00  0.00    +0.000 NA
ATOM     20  O   UNL     1       4.921  -1.460   5.821  0.00  0.00    +0.000 OA
ATOM     21  N   UNL     1       4.284  -1.707   4.617  0.00  0.00    +0.000 NA
ATOM     22  C   UNL     1       3.216  -0.899   4.591  0.00  0.00    +0.000 A 
ENDBRANCH  13  14
ENDBRANCH  11  13
ENDBRANCH   1  10
BRANCH   8  23
ATOM     23  C   UNL     1       4.517  -0.909  -1.457  0.00  0.00    +0.000 C 
ATOM     24  O   UNL     1       3.837  -1.865  -1.101  0.00  0.00    +0.000 OA
BRANCH  23  25
ATOM     25  C   UNL     1       5.944  -1.136  -1.829  0.00  0.00    +0.000 A 
ATOM     26  C   UNL     1       6.295  -2.326  -2.477  0.00  0.00    +0.000 A 
ATOM     27  C   UNL     1       7.627  -2.571  -2.821  0.00  0.00    +0.000 A 
ATOM     28  C   UNL     1       8.614  -1.630  -2.520  0.00  0.00    +0.000 A 
ATOM     29  C   UNL     1       8.268  -0.443  -1.874  0.00  0.00    +0.000 A 
ATOM     30  C   UNL     1       6.939  -0.198  -1.520  0.00  0.00    +0.000 A 
ENDBRANCH  23  25
ENDBRANCH   8  23
TORSDOF 5
