REMARK  Name = 
REMARK  8 active torsions:
REMARK  status: ('A' for Active; 'I' for Inactive)
REMARK    1  A    between atoms: C_1  and  O_2
REMARK    2  A    between atoms: O_2  and  C_3
REMARK    3  A    between atoms: C_6  and  C_7
REMARK    4  A    between atoms: C_7  and  C_9
REMARK    5  A    between atoms: C_14  and  C_15
REMARK    6  A    between atoms: N_17  and  C_18
REMARK    7  A    between atoms: C_20  and  C_21
REMARK    8  A    between atoms: C_21  and  O_22
REMARK                            x       y       z     vdW  Elec       q    Type
REMARK                         _______ _______ _______ _____ _____    ______ ____
ROOT
ATOM      1  C   UNL     1       4.713  -4.378  -4.212  0.00  0.00    +0.000 A 
ATOM      2  C   UNL     1       4.765  -3.504  -5.323  0.00  0.00    +0.000 A 
ATOM      3  C   UNL     1       4.285  -3.891  -6.572  0.00  0.00    +0.000 A 
ATOM      4  C   UNL     1       3.793  -5.174  -6.748  0.00  0.00    +0.000 A 
ATOM      5  C   UNL     1       3.782  -6.063  -5.672  0.00  0.00    +0.000 A 
ATOM      6  C   UNL     1       4.236  -5.692  -4.385  0.00  0.00    +0.000 A 
ENDROOT
BRANCH   6   7
ATOM      7  C   UNL     1       4.058  -6.763  -3.342  0.00  0.00    +0.000 C 
ATOM      8  O   UNL     1       3.172  -7.593  -3.547  0.00  0.00    +0.000 OA
ATOM      9  N   UNL     1       4.872  -6.755  -2.231  0.00  0.00    +0.000 N 
ATOM     10  H   UNL     1       5.517  -5.974  -2.118  0.00  0.00    +0.000 HD
BRANCH   9  11
ATOM     11  C   UNL     1       4.833  -7.655  -1.144  0.00  0.00    +0.000 A 
ATOM     12  C   UNL     1       4.208  -8.906  -1.197  0.00  0.00    +0.000 A 
ATOM     13  C   UNL     1       4.183  -9.758  -0.079  0.00  0.00    +0.000 A 
ATOM     14  C   UNL     1       4.756  -9.315   1.118  0.00  0.00    +0.000 A 
ATOM     15  C   UNL     1       5.393  -8.079   1.163  0.00  0.00    +0.000 A 
ATOM     16  F   UNL     1       5.945  -7.665   2.311  0.00  0.00    +0.000 F 
ATOM     17  C   UNL     1       5.458  -7.260   0.041  0.00  0.00    +0.000 A 
BRANCH  13  18
ATOM     18  C   UNL     1       3.483 -11.088  -0.182  0.00  0.00    +0.000 C 
BRANCH  18  19
ATOM     19  O   UNL     1       4.093 -12.063   0.654  0.00  0.00    +0.000 OA
ATOM     20  H   UNL     1       5.039 -12.067   0.433  0.00  0.00    +0.000 HD
ENDBRANCH  18  19
ENDBRANCH  13  18
ENDBRANCH   9  11
ENDBRANCH   6   7
BRANCH   1  21
ATOM     21  C   UNL     1       5.216  -3.827  -2.928  0.00  0.00    +0.000 C 
ATOM     22  O   UNL     1       6.007  -4.498  -2.268  0.00  0.00    +0.000 OA
BRANCH  21  26
ATOM     23  C   UNL     1       4.443   0.213  -1.666  0.00  0.00    +0.000 A 
ATOM     24  C   UNL     1       5.539  -0.501  -1.177  0.00  0.00    +0.000 A 
ATOM     25  C   UNL     1       5.760  -1.824  -1.570  0.00  0.00    +0.000 A 
ATOM     26  C   UNL     1       4.882  -2.451  -2.463  0.00  0.00    +0.000 A 
ATOM     27  C   UNL     1       3.754  -1.761  -2.910  0.00  0.00    +0.000 A 
ATOM     28  C   UNL     1       3.554  -0.435  -2.527  0.00  0.00    +0.000 A 
ATOM     29  F   UNL     1       2.487   0.194  -3.040  0.00  0.00    +0.000 F 
BRANCH  23  31
ATOM     30  C   UNL     1       3.281   2.288  -1.691  0.00  0.00    +0.000 C 
ATOM     31  O   UNL     1       4.376   1.506  -1.227  0.00  0.00    +0.000 OA
ENDBRANCH  23  31
ENDBRANCH  21  26
ENDBRANCH   1  21
TORSDOF 7
