REMARK  Name = 
REMARK  7 active torsions:
REMARK  status: ('A' for Active; 'I' for Inactive)
REMARK    1  A    between atoms: C_2  and  C_18
REMARK    2  A    between atoms: N_3  and  C_4
REMARK    3  A    between atoms: C_4  and  C_5
REMARK    4  A    between atoms: C_8  and  O_9
REMARK    5  A    between atoms: O_9  and  C_10
REMARK    6  A    between atoms: N_20  and  C_21
REMARK    7  A    between atoms: C_23  and  O_24
REMARK                            x       y       z     vdW  Elec       q    Type
REMARK                         _______ _______ _______ _____ _____    ______ ____
ROOT
ATOM      1  O   UNL     1       2.792   2.497  -0.705  0.00  0.00    +0.000 OA
ATOM      2  C   UNL     1       3.122   1.370  -0.350  0.00  0.00    +0.000 C 
ATOM      3  N   UNL     1       2.886   0.249  -1.111  0.00  0.00    +0.000 N 
ATOM      4  H   UNL     1       3.201  -0.656  -0.800  0.00  0.00    +0.000 HD
ENDROOT
BRANCH   2   5
ATOM      5  C   UNL     1       3.775   1.125   0.923  0.00  0.00    +0.000 A 
ATOM      6  C   UNL     1       4.293  -0.052   1.427  0.00  0.00    +0.000 A 
ATOM      7  N   UNL     1       4.795   0.211   2.685  0.00  0.00    +0.000 N 
ATOM      8  N   UNL     1       4.609   1.514   3.022  0.00  0.00    +0.000 NA
ATOM      9  C   UNL     1       4.019   2.055   1.956  0.00  0.00    +0.000 A 
BRANCH   7  10
ATOM     10  C   UNL     1       5.427  -0.704   3.574  0.00  0.00    +0.000 A 
ATOM     11  C   UNL     1       5.782  -0.283   4.865  0.00  0.00    +0.000 A 
ATOM     12  C   UNL     1       6.382  -1.187   5.740  0.00  0.00    +0.000 A 
ATOM     13  C   UNL     1       6.651  -2.494   5.346  0.00  0.00    +0.000 A 
ATOM     14  C   UNL     1       6.306  -2.912   4.065  0.00  0.00    +0.000 A 
ATOM     15  C   UNL     1       5.693  -2.026   3.179  0.00  0.00    +0.000 A 
BRANCH  12  16
ATOM     16  O   UNL     1       6.718  -0.829   7.009  0.00  0.00    +0.000 OA
ATOM     17  H   UNL     1       6.408   0.078   7.167  0.00  0.00    +0.000 HD
ENDBRANCH  12  16
ENDBRANCH   7  10
ENDBRANCH   2   5
BRANCH   3  18
ATOM     18  C   UNL     1       2.236   0.308  -2.402  0.00  0.00    +0.000 C 
BRANCH  18  19
ATOM     19  C   UNL     1       3.195   0.570  -3.542  0.00  0.00    +0.000 A 
ATOM     20  C   UNL     1       3.468   1.879  -3.932  0.00  0.00    +0.000 A 
ATOM     21  C   UNL     1       4.300   2.103  -5.027  0.00  0.00    +0.000 A 
ATOM     22  C   UNL     1       4.899   1.023  -5.668  0.00  0.00    +0.000 A 
ATOM     23  C   UNL     1       4.570  -0.249  -5.218  0.00  0.00    +0.000 A 
ATOM     24  N   UNL     1       3.742  -0.503  -4.170  0.00  0.00    +0.000 NA
BRANCH  22  25
ATOM     25  O   UNL     1       5.745   1.111  -6.746  0.00  0.00    +0.000 OA
BRANCH  25  26
ATOM     26  C   UNL     1       6.568   2.207  -6.885  0.00  0.00    +0.000 A 
ATOM     27  C   UNL     1       7.159   2.884  -5.814  0.00  0.00    +0.000 A 
ATOM     28  C   UNL     1       7.946   4.013  -6.047  0.00  0.00    +0.000 A 
ATOM     29  C   UNL     1       8.197   4.431  -7.352  0.00  0.00    +0.000 A 
ATOM     30  C   UNL     1       7.670   3.715  -8.427  0.00  0.00    +0.000 A 
ATOM     31  C   UNL     1       6.855   2.605  -8.194  0.00  0.00    +0.000 A 
ENDBRANCH  25  26
ENDBRANCH  22  25
ENDBRANCH  18  19
ENDBRANCH   3  18
TORSDOF 7
