REMARK  Name = 
REMARK  6 active torsions:
REMARK  status: ('A' for Active; 'I' for Inactive)
REMARK    1  A    between atoms: C_2  and  C_17
REMARK    2  A    between atoms: N_3  and  C_4
REMARK    3  A    between atoms: C_7  and  O_8
REMARK    4  A    between atoms: O_8  and  C_9
REMARK    5  A    between atoms: N_19  and  C_20
REMARK    6  A    between atoms: C_27  and  O_28
REMARK                            x       y       z     vdW  Elec       q    Type
REMARK                         _______ _______ _______ _____ _____    ______ ____
ROOT
ATOM      1  O   UNL     1       0.884  -0.252  -0.226  0.00  0.00    +0.000 OA
ATOM      2  C   UNL     1       2.076   0.027  -0.128  0.00  0.00    +0.000 C 
ATOM      3  N   UNL     1       2.706   0.419   1.043  0.00  0.00    +0.000 N 
ATOM      4  H   UNL     1       3.678   0.692   0.925  0.00  0.00    +0.000 HD
ENDROOT
BRANCH   3   5
ATOM      5  C   UNL     1       2.081   0.617   2.290  0.00  0.00    +0.000 A 
ATOM      6  C   UNL     1       0.793   0.173   2.593  0.00  0.00    +0.000 A 
ATOM      7  C   UNL     1       0.229   0.450   3.837  0.00  0.00    +0.000 A 
ATOM      8  C   UNL     1       0.988   1.152   4.754  0.00  0.00    +0.000 A 
ATOM      9  N   UNL     1       2.238   1.605   4.500  0.00  0.00    +0.000 NA
ATOM     10  C   UNL     1       2.759   1.311   3.287  0.00  0.00    +0.000 A 
BRANCH   8  11
ATOM     11  O   UNL     1       0.407   1.385   5.994  0.00  0.00    +0.000 OA
BRANCH  11  12
ATOM     12  C   UNL     1       1.250   1.427   7.081  0.00  0.00    +0.000 A 
ATOM     13  C   UNL     1       0.950   2.348   8.084  0.00  0.00    +0.000 A 
ATOM     14  C   UNL     1       1.779   2.448   9.203  0.00  0.00    +0.000 A 
ATOM     15  C   UNL     1       2.898   1.622   9.322  0.00  0.00    +0.000 A 
ATOM     16  C   UNL     1       3.174   0.674   8.340  0.00  0.00    +0.000 A 
ATOM     17  C   UNL     1       2.337   0.560   7.234  0.00  0.00    +0.000 A 
ENDBRANCH  11  12
ENDBRANCH   8  11
ENDBRANCH   3   5
BRANCH   2  18
ATOM     18  C   UNL     1       2.969   0.033  -1.294  0.00  0.00    +0.000 A 
ATOM     19  N   UNL     1       4.294   0.286  -1.203  0.00  0.00    +0.000 NA
ATOM     20  N   UNL     1       4.742   0.262  -2.495  0.00  0.00    +0.000 N 
ATOM     21  C   UNL     1       3.732  -0.032  -3.382  0.00  0.00    +0.000 A 
ATOM     22  C   UNL     1       2.599  -0.182  -2.638  0.00  0.00    +0.000 A 
BRANCH  20  23
ATOM     23  C   UNL     1       6.101   0.544  -2.813  0.00  0.00    +0.000 A 
ATOM     24  C   UNL     1       7.036   0.724  -1.783  0.00  0.00    +0.000 A 
ATOM     25  C   UNL     1       8.368   1.019  -2.088  0.00  0.00    +0.000 A 
ATOM     26  C   UNL     1       8.773   1.145  -3.415  0.00  0.00    +0.000 A 
ATOM     27  C   UNL     1       7.851   0.964  -4.444  0.00  0.00    +0.000 A 
ATOM     28  C   UNL     1       6.520   0.662  -4.148  0.00  0.00    +0.000 A 
ENDBRANCH  20  23
BRANCH  22  29
ATOM     29  O   UNL     1       1.387  -0.454  -3.140  0.00  0.00    +0.000 OA
ATOM     30  H   UNL     1       1.414  -0.538  -4.107  0.00  0.00    +0.000 HD
ENDBRANCH  22  29
ENDBRANCH   2  18
TORSDOF 6
