REMARK  Name = 
REMARK  6 active torsions:
REMARK  status: ('A' for Active; 'I' for Inactive)
REMARK    1  A    between atoms: C_2  and  C_18
REMARK    2  A    between atoms: N_3  and  C_4
REMARK    3  A    between atoms: C_4  and  C_5
REMARK    4  A    between atoms: C_10  and  O_11
REMARK    5  A    between atoms: O_11  and  C_12
REMARK    6  A    between atoms: C_24  and  N_25
REMARK                            x       y       z     vdW  Elec       q    Type
REMARK                         _______ _______ _______ _____ _____    ______ ____
ROOT
ATOM      1  O   UNL     1       2.061  -1.644  -1.005  0.00  0.00    +0.000 OA
ATOM      2  C   UNL     1       2.833  -0.789  -0.587  0.00  0.00    +0.000 C 
ATOM      3  N   UNL     1       2.999   0.455  -1.159  0.00  0.00    +0.000 N 
ATOM      4  H   UNL     1       3.696   1.097  -0.807  0.00  0.00    +0.000 HD
ENDROOT
BRANCH   2   5
ATOM      5  C   UNL     1       3.643  -1.053   0.636  0.00  0.00    +0.000 A 
ATOM      6  C   UNL     1       3.645  -0.058   1.628  0.00  0.00    +0.000 A 
ATOM      7  C   UNL     1       4.202  -0.320   2.874  0.00  0.00    +0.000 A 
ATOM      8  F   UNL     1       4.206   0.643   3.805  0.00  0.00    +0.000 F 
ATOM      9  C   UNL     1       4.724  -1.569   3.179  0.00  0.00    +0.000 A 
ATOM     10  C   UNL     1       4.721  -2.572   2.206  0.00  0.00    +0.000 A 
ATOM     11  C   UNL     1       4.217  -2.313   0.914  0.00  0.00    +0.000 A 
BRANCH  11  12
ATOM     12  N   UNL     1       4.351  -3.324  -0.070  0.00  0.00    +0.000 N 
ATOM     13  C   UNL     1       4.553  -3.171  -1.425  0.00  0.00    +0.000 A 
ATOM     14  C   UNL     1       4.540  -4.428  -1.979  0.00  0.00    +0.000 A 
ATOM     15  C   UNL     1       4.435  -5.291  -0.880  0.00  0.00    +0.000 A 
ATOM     16  N   UNL     1       4.424  -4.638   0.284  0.00  0.00    +0.000 NA
ENDBRANCH  11  12
ENDBRANCH   2   5
BRANCH   3  17
ATOM     17  C   UNL     1       2.306   0.837  -2.368  0.00  0.00    +0.000 C 
BRANCH  17  18
ATOM     18  C   UNL     1       3.125   0.589  -3.607  0.00  0.00    +0.000 A 
ATOM     19  C   UNL     1       3.106  -0.708  -4.164  0.00  0.00    +0.000 A 
ATOM     20  C   UNL     1       3.765  -0.996  -5.359  0.00  0.00    +0.000 A 
ATOM     21  C   UNL     1       4.411   0.018  -6.048  0.00  0.00    +0.000 A 
ATOM     22  C   UNL     1       4.442   1.299  -5.515  0.00  0.00    +0.000 A 
ATOM     23  C   UNL     1       3.884   1.584  -4.251  0.00  0.00    +0.000 A 
BRANCH  23  24
ATOM     24  O   UNL     1       4.038   2.824  -3.651  0.00  0.00    +0.000 OA
BRANCH  24  25
ATOM     25  C   UNL     1       5.208   3.522  -3.968  0.00  0.00    +0.000 A 
ATOM     26  C   UNL     1       5.096   4.877  -4.239  0.00  0.00    +0.000 A 
ATOM     27  C   UNL     1       6.201   5.530  -4.786  0.00  0.00    +0.000 A 
ATOM     28  C   UNL     1       7.369   4.816  -5.036  0.00  0.00    +0.000 A 
ATOM     29  C   UNL     1       7.409   3.482  -4.668  0.00  0.00    +0.000 A 
ATOM     30  N   UNL     1       6.367   2.831  -4.109  0.00  0.00    +0.000 NA
ENDBRANCH  24  25
ENDBRANCH  23  24
ENDBRANCH  17  18
ENDBRANCH   3  17
TORSDOF 6
