REMARK  Name = 
REMARK  7 active torsions:
REMARK  status: ('A' for Active; 'I' for Inactive)
REMARK    1  A    between atoms: C_2  and  C_4
REMARK    2  A    between atoms: C_4  and  N_5
REMARK    3  A    between atoms: N_5  and  C_6
REMARK    4  A    between atoms: C_6  and  C_7
REMARK    5  A    between atoms: C_10  and  C_11
REMARK    6  A    between atoms: C_19  and  C_21
REMARK    7  A    between atoms: C_27  and  O_28
REMARK                            x       y       z     vdW  Elec       q    Type
REMARK                         _______ _______ _______ _____ _____    ______ ____
ROOT
ATOM      1  N   UNL     1       4.832   1.049   0.729  0.00  0.00    +0.000 N 
ATOM      2  C   UNL     1       5.573   2.223   0.425  0.00  0.00    +0.000 C 
ATOM      3  O   UNL     1       5.038   3.224  -0.045  0.00  0.00    +0.000 OA
ENDROOT
BRANCH   2   4
ATOM      4  C   UNL     1       6.960   2.280   0.878  0.00  0.00    +0.000 A 
ATOM      5  C   UNL     1       7.523   1.488   1.859  0.00  0.00    +0.000 A 
ATOM      6  O   UNL     1       8.711   1.988   2.276  0.00  0.00    +0.000 OA
ATOM      7  C   UNL     1       8.922   3.132   1.576  0.00  0.00    +0.000 A 
ATOM      8  C   UNL     1       9.936   4.051   1.837  0.00  0.00    +0.000 A 
ATOM      9  C   UNL     1       9.976   5.189   1.027  0.00  0.00    +0.000 A 
ATOM     10  C   UNL     1       9.081   5.331  -0.033  0.00  0.00    +0.000 A 
ATOM     11  C   UNL     1       8.065   4.395  -0.275  0.00  0.00    +0.000 A 
ATOM     12  C   UNL     1       7.943   3.294   0.602  0.00  0.00    +0.000 A 
BRANCH  10  13
ATOM     13  O   UNL     1       9.152   6.420  -0.854  0.00  0.00    +0.000 OA
ATOM     14  H   UNL     1       9.883   6.995  -0.560  0.00  0.00    +0.000 HD
ENDBRANCH  10  13
ENDBRANCH   2   4
BRANCH   1  15
ATOM     15  C   UNL     1       5.260  -0.145  -0.015  0.00  0.00    +0.000 C 
BRANCH  15  16
ATOM     16  C   UNL     1       5.338  -1.473   0.722  0.00  0.00    +0.000 A 
ATOM     17  C   UNL     1       4.281  -2.394   0.742  0.00  0.00    +0.000 A 
ATOM     18  C   UNL     1       4.484  -3.733   1.158  0.00  0.00    +0.000 A 
ATOM     19  C   UNL     1       5.746  -4.205   1.565  0.00  0.00    +0.000 A 
ATOM     20  C   UNL     1       6.764  -3.239   1.633  0.00  0.00    +0.000 A 
ATOM     21  C   UNL     1       6.567  -1.911   1.225  0.00  0.00    +0.000 A 
BRANCH  19  22
ATOM     22  C   UNL     1       6.055  -5.646   1.809  0.00  0.00    +0.000 A 
ATOM     23  C   UNL     1       5.396  -6.681   1.116  0.00  0.00    +0.000 A 
ATOM     24  C   UNL     1       5.794  -8.023   1.242  0.00  0.00    +0.000 A 
ATOM     25  C   UNL     1       6.865  -8.366   2.060  0.00  0.00    +0.000 A 
ATOM     26  C   UNL     1       7.515  -7.372   2.781  0.00  0.00    +0.000 A 
ATOM     27  C   UNL     1       7.102  -6.039   2.668  0.00  0.00    +0.000 A 
ENDBRANCH  19  22
ENDBRANCH  15  16
ENDBRANCH   1  15
BRANCH   1  28
ATOM     28  C   UNL     1       3.370   1.279   0.728  0.00  0.00    +0.000 C 
BRANCH  28  30
ATOM     29  N   UNL     1       3.622   2.350   2.955  0.00  0.00    +0.000 N 
ATOM     30  C   UNL     1       2.782   2.064   1.917  0.00  0.00    +0.000 C 
ATOM     31  O   UNL     1       1.600   2.373   1.965  0.00  0.00    +0.000 OA
ATOM     32  H   UNL     1       3.260   2.936   3.696  0.00  0.00    +0.000 HD
ATOM     33  H   UNL     1       4.619   2.234   2.873  0.00  0.00    +0.000 HD
ENDBRANCH  28  30
ENDBRANCH   1  28
TORSDOF 7
