REMARK  Name = 
REMARK  6 active torsions:
REMARK  status: ('A' for Active; 'I' for Inactive)
REMARK    1  A    between atoms: C_2  and  C_21
REMARK    2  A    between atoms: N_3  and  C_4
REMARK    3  A    between atoms: C_4  and  C_5
REMARK    4  A    between atoms: C_8  and  N_9
REMARK    5  A    between atoms: C_10  and  C_12
REMARK    6  A    between atoms: C_17  and  O_18
REMARK                            x       y       z     vdW  Elec       q    Type
REMARK                         _______ _______ _______ _____ _____    ______ ____
ROOT
ATOM      1  C   UNL     1       3.311   0.670  -3.481  0.00  0.00    +0.000 A 
ATOM      2  C   UNL     1       3.527   1.992  -3.875  0.00  0.00    +0.000 A 
ATOM      3  C   UNL     1       4.434   2.295  -4.891  0.00  0.00    +0.000 A 
ATOM      4  C   UNL     1       5.140   1.283  -5.544  0.00  0.00    +0.000 A 
ATOM      5  C   UNL     1       4.920  -0.045  -5.158  0.00  0.00    +0.000 A 
ATOM      6  C   UNL     1       4.007  -0.351  -4.140  0.00  0.00    +0.000 A 
ENDROOT
BRANCH   4   7
ATOM      7  N   UNL     1       6.077   1.528  -6.568  0.00  0.00    +0.000 N 
ATOM      8  C   UNL     1       6.429   2.752  -7.106  0.00  0.00    +0.000 C 
ATOM      9  O   UNL     1       5.938   3.834  -6.800  0.00  0.00    +0.000 OA
ATOM     10  H   UNL     1       6.564   0.722  -6.951  0.00  0.00    +0.000 HD
BRANCH   8  11
ATOM     11  C   UNL     1       7.517   2.748  -8.139  0.00  0.00    +0.000 A 
ATOM     12  C   UNL     1       7.880   3.996  -8.679  0.00  0.00    +0.000 A 
ATOM     13  C   UNL     1       8.921   4.109  -9.601  0.00  0.00    +0.000 A 
ATOM     14  C   UNL     1       9.616   2.972  -9.998  0.00  0.00    +0.000 A 
ATOM     15  C   UNL     1       9.255   1.719  -9.494  0.00  0.00    +0.000 A 
ATOM     16  C   UNL     1       8.207   1.607  -8.576  0.00  0.00    +0.000 A 
BRANCH  16  17
ATOM     17  O   UNL     1       7.870   0.359  -8.114  0.00  0.00    +0.000 OA
ATOM     18  H   UNL     1       8.422  -0.299  -8.573  0.00  0.00    +0.000 HD
ENDBRANCH  16  17
ENDBRANCH   8  11
ENDBRANCH   4   7
BRANCH   1  19
ATOM     19  C   UNL     1       2.329   0.371  -2.385  0.00  0.00    +0.000 C 
BRANCH  19  22
ATOM     20  O   UNL     1       0.088   0.008  -0.802  0.00  0.00    +0.000 OA
ATOM     21  C   UNL     1      -0.057   0.046  -2.018  0.00  0.00    +0.000 C 
ATOM     22  N   UNL     1       0.990   0.202  -2.899  0.00  0.00    +0.000 N 
ATOM     23  H   UNL     1       0.821   0.424  -3.872  0.00  0.00    +0.000 HD
BRANCH  21  24
ATOM     24  C   UNL     1      -1.415  -0.045  -2.591  0.00  0.00    +0.000 A 
ATOM     25  C   UNL     1      -2.484   0.390  -1.823  0.00  0.00    +0.000 A 
ATOM     26  N   UNL     1      -3.773   0.326  -2.230  0.00  0.00    +0.000 NA
ATOM     27  C   UNL     1      -4.010  -0.220  -3.438  0.00  0.00    +0.000 A 
ATOM     28  C   UNL     1      -5.314  -0.337  -3.891  0.00  0.00    +0.000 A 
ATOM     29  C   UNL     1      -5.591  -0.917  -5.126  0.00  0.00    +0.000 A 
ATOM     30  C   UNL     1      -4.527  -1.365  -5.884  0.00  0.00    +0.000 A 
ATOM     31  N   UNL     1      -3.238  -1.268  -5.494  0.00  0.00    +0.000 NA
ATOM     32  C   UNL     1      -2.993  -0.707  -4.292  0.00  0.00    +0.000 A 
ATOM     33  C   UNL     1      -1.686  -0.600  -3.841  0.00  0.00    +0.000 A 
ENDBRANCH  21  24
ENDBRANCH  19  22
ENDBRANCH   1  19
TORSDOF 6
