REMARK  Name = 
REMARK  7 active torsions:
REMARK  status: ('A' for Active; 'I' for Inactive)
REMARK    1  A    between atoms: C_1  and  C_2
REMARK    2  A    between atoms: C_2  and  N_3
REMARK    3  A    between atoms: C_2  and  C_21
REMARK    4  A    between atoms: C_4  and  C_6
REMARK    5  A    between atoms: C_9  and  N_10
REMARK    6  A    between atoms: C_24  and  O_25
REMARK    7  A    between atoms: C_26  and  C_27
REMARK                            x       y       z     vdW  Elec       q    Type
REMARK                         _______ _______ _______ _____ _____    ______ ____
ROOT
ATOM      1  N   UNL     1       2.964  -1.367  -0.108  0.00  0.00    +0.000 N 
ATOM      2  C   UNL     1       2.689  -2.267   0.889  0.00  0.00    +0.000 C 
ATOM      3  O   UNL     1       2.009  -2.000   1.877  0.00  0.00    +0.000 OA
ATOM      4  H   UNL     1       3.579  -1.619  -0.872  0.00  0.00    +0.000 HD
ENDROOT
BRANCH   2   5
ATOM      5  C   UNL     1       3.266  -3.624   0.742  0.00  0.00    +0.000 A 
ATOM      6  C   UNL     1       3.585  -4.297   1.925  0.00  0.00    +0.000 A 
ATOM      7  C   UNL     1       3.931  -5.637   1.882  0.00  0.00    +0.000 A 
ATOM      8  C   UNL     1       3.957  -6.300   0.650  0.00  0.00    +0.000 A 
ATOM      9  C   UNL     1       3.729  -5.628  -0.553  0.00  0.00    +0.000 A 
ATOM     10  C   UNL     1       3.375  -4.275  -0.502  0.00  0.00    +0.000 A 
BRANCH   8  11
ATOM     11  N   UNL     1       3.928  -7.705   0.683  0.00  0.00    +0.000 N 
ATOM     12  C   UNL     1       2.961  -8.406   1.377  0.00  0.00    +0.000 A 
ATOM     13  C   UNL     1       3.247  -9.739   1.230  0.00  0.00    +0.000 A 
ATOM     14  C   UNL     1       4.648  -9.757   1.054  0.00  0.00    +0.000 A 
ATOM     15  C   UNL     1       5.678 -10.646   1.397  0.00  0.00    +0.000 A 
ATOM     16  C   UNL     1       6.972 -10.370   0.951  0.00  0.00    +0.000 A 
ATOM     17  C   UNL     1       7.207  -9.315   0.068  0.00  0.00    +0.000 A 
ATOM     18  C   UNL     1       6.206  -8.387  -0.239  0.00  0.00    +0.000 A 
ATOM     19  C   UNL     1       4.971  -8.567   0.395  0.00  0.00    +0.000 A 
ENDBRANCH   8  11
ENDBRANCH   2   5
BRANCH   1  21
ATOM     20  C   UNL     1       1.023  -0.068  -0.850  0.00  0.00    +0.000 C 
ATOM     21  C   UNL     1       2.349  -0.052  -0.096  0.00  0.00    +0.000 C 
BRANCH  21  22
ATOM     22  C   UNL     1       3.306   0.976  -0.650  0.00  0.00    +0.000 A 
ATOM     23  C   UNL     1       3.766   2.018   0.198  0.00  0.00    +0.000 A 
ATOM     24  C   UNL     1       4.619   3.003  -0.287  0.00  0.00    +0.000 A 
ATOM     25  C   UNL     1       5.071   2.945  -1.610  0.00  0.00    +0.000 A 
ATOM     26  C   UNL     1       4.659   1.908  -2.467  0.00  0.00    +0.000 A 
ATOM     27  C   UNL     1       3.781   0.931  -1.973  0.00  0.00    +0.000 A 
BRANCH  26  28
ATOM     28  C   UNL     1       5.111   1.763  -3.886  0.00  0.00    +0.000 C 
ATOM     29  N   UNL     1       5.955   2.712  -4.374  0.00  0.00    +0.000 N 
ATOM     30  O   UNL     1       4.748   0.828  -4.589  0.00  0.00    +0.000 OA
ATOM     31  H   UNL     1       6.284   3.462  -3.774  0.00  0.00    +0.000 HD
ATOM     32  H   UNL     1       6.317   2.622  -5.311  0.00  0.00    +0.000 HD
ENDBRANCH  26  28
BRANCH  25  33
ATOM     33  O   UNL     1       5.872   3.961  -2.057  0.00  0.00    +0.000 OA
ATOM     34  H   UNL     1       5.912   4.664  -1.380  0.00  0.00    +0.000 HD
ENDBRANCH  25  33
ENDBRANCH  21  22
ENDBRANCH   1  21
TORSDOF 6
