REMARK  Name = 
REMARK  6 active torsions:
REMARK  status: ('A' for Active; 'I' for Inactive)
REMARK    1  A    between atoms: C_2  and  C_4
REMARK    2  A    between atoms: C_4  and  N_5
REMARK    3  A    between atoms: N_5  and  C_6
REMARK    4  A    between atoms: C_6  and  C_7
REMARK    5  A    between atoms: C_10  and  C_11
REMARK    6  A    between atoms: C_19  and  C_21
REMARK                            x       y       z     vdW  Elec       q    Type
REMARK                         _______ _______ _______ _____ _____    ______ ____
ROOT
ATOM      1  N   UNL     1       4.808  -1.032   0.399  0.00  0.00    +0.000 N 
ATOM      2  C   UNL     1       5.741  -2.055   0.635  0.00  0.00    +0.000 C 
ATOM      3  O   UNL     1       5.401  -3.097   1.200  0.00  0.00    +0.000 OA
ENDROOT
BRANCH   2   4
ATOM      4  C   UNL     1       7.154  -1.879   0.247  0.00  0.00    +0.000 A 
ATOM      5  C   UNL     1       8.217  -2.593   0.777  0.00  0.00    +0.000 A 
ATOM      6  N   UNL     1       9.353  -2.066   0.224  0.00  0.00    +0.000 N 
ATOM      7  C   UNL     1      10.692  -2.364   0.469  0.00  0.00    +0.000 A 
ATOM      8  C   UNL     1      11.643  -1.657  -0.167  0.00  0.00    +0.000 A 
ATOM      9  C   UNL     1      11.242  -0.607  -1.085  0.00  0.00    +0.000 A 
ATOM     10  F   UNL     1      12.212   0.112  -1.683  0.00  0.00    +0.000 F 
ATOM     11  C   UNL     1       9.948  -0.332  -1.333  0.00  0.00    +0.000 A 
ATOM     12  C   UNL     1       8.943  -1.083  -0.667  0.00  0.00    +0.000 A 
ATOM     13  N   UNL     1       7.633  -0.988  -0.695  0.00  0.00    +0.000 NA
ENDBRANCH   2   4
BRANCH   1  14
ATOM     14  C   UNL     1       3.396  -1.338   0.692  0.00  0.00    +0.000 C 
BRANCH  14  16
ATOM     15  N   UNL     1       3.718  -0.386   2.953  0.00  0.00    +0.000 N 
ATOM     16  C   UNL     1       2.841  -0.907   2.051  0.00  0.00    +0.000 C 
ATOM     17  O   UNL     1       1.653  -1.032   2.347  0.00  0.00    +0.000 OA
ATOM     18  H   UNL     1       3.362  -0.071   3.844  0.00  0.00    +0.000 HD
ATOM     19  H   UNL     1       4.676  -0.186   2.699  0.00  0.00    +0.000 HD
ENDBRANCH  14  16
ENDBRANCH   1  14
BRANCH   1  20
ATOM     20  C   UNL     1       5.077   0.213  -0.318  0.00  0.00    +0.000 C 
BRANCH  20  21
ATOM     21  C   UNL     1       5.443   1.418   0.519  0.00  0.00    +0.000 A 
ATOM     22  C   UNL     1       6.756   1.690   0.920  0.00  0.00    +0.000 A 
ATOM     23  C   UNL     1       7.109   2.943   1.450  0.00  0.00    +0.000 A 
ATOM     24  C   UNL     1       6.165   3.967   1.601  0.00  0.00    +0.000 A 
ATOM     25  C   UNL     1       4.832   3.643   1.283  0.00  0.00    +0.000 A 
ATOM     26  C   UNL     1       4.475   2.391   0.769  0.00  0.00    +0.000 A 
BRANCH  24  27
ATOM     27  C   UNL     1       6.536   5.343   2.022  0.00  0.00    +0.000 A 
ATOM     28  C   UNL     1       7.785   5.912   1.699  0.00  0.00    +0.000 A 
ATOM     29  C   UNL     1       8.109   7.225   2.065  0.00  0.00    +0.000 A 
ATOM     30  C   UNL     1       7.186   8.009   2.750  0.00  0.00    +0.000 A 
ATOM     31  C   UNL     1       5.945   7.478   3.078  0.00  0.00    +0.000 A 
ATOM     32  C   UNL     1       5.631   6.161   2.726  0.00  0.00    +0.000 A 
ENDBRANCH  24  27
ENDBRANCH  20  21
ENDBRANCH   1  20
TORSDOF 6
