REMARK  Name = 
REMARK  6 active torsions:
REMARK  status: ('A' for Active; 'I' for Inactive)
REMARK    1  A    between atoms: C_1  and  C_2
REMARK    2  A    between atoms: C_3  and  C_4
REMARK    3  A    between atoms: C_11  and  C_12
REMARK    4  A    between atoms: N_14  and  C_15
REMARK    5  A    between atoms: C_15  and  C_16
REMARK    6  A    between atoms: C_19  and  C_20
REMARK                            x       y       z     vdW  Elec       q    Type
REMARK                         _______ _______ _______ _____ _____    ______ ____
ROOT
ATOM      1  C   UNL     1       2.383  -2.029  -0.014  0.00  0.00    +0.000 C 
ATOM      2  O   UNL     1       2.321  -3.256  -0.042  0.00  0.00    +0.000 OA
ATOM      3  N   UNL     1       3.578  -1.363   0.000  0.00  0.00    +0.000 N 
ATOM      4  H   UNL     1       3.603  -0.342   0.024  0.00  0.00    +0.000 HD
ENDROOT
BRANCH   1   9
ATOM      5  C   UNL     1      -2.457   1.226   0.035  0.00  0.00    +0.000 C 
ATOM      6  C   UNL     1      -1.272   0.297   0.022  0.00  0.00    +0.000 A 
ATOM      7  C   UNL     1      -1.311  -1.055   0.003  0.00  0.00    +0.000 A 
ATOM      8  C   UNL     1      -0.047  -1.789  -0.006  0.00  0.00    +0.000 A 
ATOM      9  C   UNL     1       1.155  -1.180   0.004  0.00  0.00    +0.000 A 
ATOM     10  C   UNL     1       1.175   0.307   0.027  0.00  0.00    +0.000 A 
ATOM     11  O   UNL     1       2.218   0.955   0.038  0.00  0.00    +0.000 OA
ATOM     12  N   UNL     1      -0.046   0.934   0.035  0.00  0.00    +0.000 N 
ATOM     13  H   UNL     1      -0.007   1.947   0.049  0.00  0.00    +0.000 HD
BRANCH   7  14
ATOM     14  C   UNL     1      -2.598  -1.782  -0.024  0.00  0.00    +0.000 A 
ATOM     15  C   UNL     1      -3.202  -2.101  -1.248  0.00  0.00    +0.000 A 
ATOM     16  C   UNL     1      -4.407  -2.807  -1.275  0.00  0.00    +0.000 A 
ATOM     17  C   UNL     1      -5.013  -3.202  -0.083  0.00  0.00    +0.000 A 
ATOM     18  C   UNL     1      -4.415  -2.892   1.138  0.00  0.00    +0.000 A 
ATOM     19  C   UNL     1      -3.211  -2.185   1.169  0.00  0.00    +0.000 A 
ENDBRANCH   7  14
ENDBRANCH   1   9
BRANCH   3  20
ATOM     20  C   UNL     1       4.837  -2.078  -0.028  0.00  0.00    +0.000 C 
BRANCH  20  21
ATOM     21  C   UNL     1       5.997  -1.142  -0.036  0.00  0.00    +0.000 A 
ATOM     22  N   UNL     1       7.260  -1.588  -0.060  0.00  0.00    +0.000 NA
ATOM     23  O   UNL     1       8.014  -0.415  -0.056  0.00  0.00    +0.000 OA
ATOM     24  C   UNL     1       7.128   0.627  -0.031  0.00  0.00    +0.000 A 
ATOM     25  N   UNL     1       5.872   0.231  -0.020  0.00  0.00    +0.000 NA
BRANCH  24  26
ATOM     26  C   UNL     1       7.695   1.972  -0.013  0.00  0.00    +0.000 A 
ATOM     27  C   UNL     1       9.085   2.190  -0.005  0.00  0.00    +0.000 A 
ATOM     28  C   UNL     1       9.606   3.487   0.022  0.00  0.00    +0.000 A 
ATOM     29  C   UNL     1       8.741   4.573   0.042  0.00  0.00    +0.000 A 
ATOM     30  F   UNL     1       9.241   5.815   0.071  0.00  0.00    +0.000 F 
ATOM     31  C   UNL     1       7.364   4.387   0.031  0.00  0.00    +0.000 A 
ATOM     32  C   UNL     1       6.842   3.090   0.004  0.00  0.00    +0.000 A 
ENDBRANCH  24  26
ENDBRANCH  20  21
ENDBRANCH   3  20
TORSDOF 5
