REMARK  Name = 
REMARK  9 active torsions:
REMARK  status: ('A' for Active; 'I' for Inactive)
REMARK    1  A    between atoms: C_2  and  C_4
REMARK    2  A    between atoms: C_4  and  N_5
REMARK    3  A    between atoms: N_5  and  C_6
REMARK    4  A    between atoms: C_6  and  C_7
REMARK    5  A    between atoms: C_10  and  C_11
REMARK    6  A    between atoms: C_19  and  C_21
REMARK    7  A    between atoms: C_21  and  C_22
REMARK    8  A    between atoms: C_26  and  O_27
REMARK    9  A    between atoms: O_27  and  C_28
REMARK                            x       y       z     vdW  Elec       q    Type
REMARK                         _______ _______ _______ _____ _____    ______ ____
ROOT
ATOM      1  N   UNL     1       4.753   0.897  -0.438  0.00  0.00    +0.000 N 
ATOM      2  C   UNL     1       5.588   1.789  -1.109  0.00  0.00    +0.000 C 
ATOM      3  O   UNL     1       5.110   2.710  -1.776  0.00  0.00    +0.000 OA
ENDROOT
BRANCH   1   4
ATOM      4  C   UNL     1       5.185  -0.267   0.350  0.00  0.00    +0.000 C 
BRANCH   4   5
ATOM      5  C   UNL     1       5.772   0.049   1.716  0.00  0.00    +0.000 A 
ATOM      6  C   UNL     1       5.829  -0.935   2.710  0.00  0.00    +0.000 A 
ATOM      7  C   UNL     1       6.409  -0.664   3.966  0.00  0.00    +0.000 A 
ATOM      8  C   UNL     1       7.018   0.572   4.243  0.00  0.00    +0.000 A 
ATOM      9  C   UNL     1       7.043   1.502   3.203  0.00  0.00    +0.000 A 
ATOM     10  C   UNL     1       6.359   1.279   2.015  0.00  0.00    +0.000 A 
BRANCH   8  11
ATOM     11  C   UNL     1       7.549   0.957   5.572  0.00  0.00    +0.000 A 
ATOM     12  C   UNL     1       8.052   0.024   6.490  0.00  0.00    +0.000 A 
ATOM     13  C   UNL     1       8.529   0.431   7.742  0.00  0.00    +0.000 A 
ATOM     14  C   UNL     1       8.528   1.778   8.098  0.00  0.00    +0.000 A 
ATOM     15  C   UNL     1       8.038   2.723   7.209  0.00  0.00    +0.000 A 
ATOM     16  C   UNL     1       7.543   2.312   5.972  0.00  0.00    +0.000 A 
ENDBRANCH   8  11
ENDBRANCH   4   5
ENDBRANCH   1   4
BRANCH   2  17
ATOM     17  C   UNL     1       7.103   1.660  -0.945  0.00  0.00    +0.000 C 
BRANCH  17  18
ATOM     18  C   UNL     1       7.899   1.674  -2.213  0.00  0.00    +0.000 A 
ATOM     19  C   UNL     1       7.858   2.773  -3.075  0.00  0.00    +0.000 A 
ATOM     20  C   UNL     1       8.650   2.789  -4.223  0.00  0.00    +0.000 A 
ATOM     21  C   UNL     1       9.514   1.724  -4.485  0.00  0.00    +0.000 A 
ATOM     22  C   UNL     1       9.612   0.657  -3.597  0.00  0.00    +0.000 A 
ATOM     23  C   UNL     1       8.780   0.619  -2.479  0.00  0.00    +0.000 A 
BRANCH  22  24
ATOM     24  O   UNL     1      10.461  -0.404  -3.707  0.00  0.00    +0.000 OA
BRANCH  24  25
ATOM     25  C   UNL     1      11.662  -0.128  -4.404  0.00  0.00    +0.000 C 
ATOM     26  F   UNL     1      12.595  -1.010  -3.964  0.00  0.00    +0.000 F 
ATOM     27  F   UNL     1      11.461  -0.388  -5.718  0.00  0.00    +0.000 F 
ENDBRANCH  24  25
ENDBRANCH  22  24
ENDBRANCH  17  18
ENDBRANCH   2  17
BRANCH   1  28
ATOM     28  C   UNL     1       3.302   1.127  -0.542  0.00  0.00    +0.000 C 
BRANCH  28  30
ATOM     29  N   UNL     1       3.388  -0.269  -2.595  0.00  0.00    +0.000 N 
ATOM     30  C   UNL     1       2.618   0.489  -1.761  0.00  0.00    +0.000 C 
ATOM     31  O   UNL     1       1.414   0.613  -1.984  0.00  0.00    +0.000 OA
ATOM     32  H   UNL     1       2.942  -0.556  -3.457  0.00  0.00    +0.000 HD
ATOM     33  H   UNL     1       4.385  -0.101  -2.630  0.00  0.00    +0.000 HD
ENDBRANCH  28  30
ENDBRANCH   1  28
TORSDOF 9
