REMARK  Name = 
REMARK  3 active torsions:
REMARK  status: ('A' for Active; 'I' for Inactive)
REMARK    1  A    between atoms: C_2  and  C_15
REMARK    2  A    between atoms: N_3  and  C_4
REMARK    3  A    between atoms: C_18  and  C_19
REMARK                            x       y       z     vdW  Elec       q    Type
REMARK                         _______ _______ _______ _____ _____    ______ ____
ROOT
ATOM      1  O   UNL     1       0.973  -0.400  -0.048  0.00  0.00    +0.000 OA
ATOM      2  C   UNL     1       2.161  -0.096  -0.034  0.00  0.00    +0.000 C 
ATOM      3  N   UNL     1       2.762   0.884  -0.813  0.00  0.00    +0.000 N 
ATOM      4  H   UNL     1       3.771   0.884  -0.844  0.00  0.00    +0.000 HD
ENDROOT
BRANCH   3   5
ATOM      5  C   UNL     1       2.084   1.722  -1.686  0.00  0.00    +0.000 A 
ATOM      6  C   UNL     1       0.797   2.058  -1.495  0.00  0.00    +0.000 A 
ATOM      7  C   UNL     1       0.064   2.962  -2.404  0.00  0.00    +0.000 A 
ATOM      8  O   UNL     1      -1.097   3.284  -2.177  0.00  0.00    +0.000 OA
ATOM      9  N   UNL     1       0.747   3.426  -3.486  0.00  0.00    +0.000 N 
ATOM     10  C   UNL     1       2.092   3.131  -3.733  0.00  0.00    +0.000 A 
ATOM     11  C   UNL     1       2.708   3.686  -4.851  0.00  0.00    +0.000 A 
ATOM     12  C   UNL     1       4.040   3.389  -5.063  0.00  0.00    +0.000 A 
ATOM     13  N   UNL     1       4.755   2.566  -4.269  0.00  0.00    +0.000 NA
ATOM     14  C   UNL     1       4.112   2.028  -3.202  0.00  0.00    +0.000 A 
ATOM     15  C   UNL     1       2.792   2.292  -2.855  0.00  0.00    +0.000 A 
ATOM     16  H   UNL     1       0.223   4.031  -4.105  0.00  0.00    +0.000 HD
ENDBRANCH   3   5
BRANCH   2  17
ATOM     17  C   UNL     1       3.061  -0.873   0.844  0.00  0.00    +0.000 A 
ATOM     18  C   UNL     1       2.752  -2.216   1.082  0.00  0.00    +0.000 A 
ATOM     19  C   UNL     1       3.493  -2.946   2.007  0.00  0.00    +0.000 A 
ATOM     20  C   UNL     1       4.537  -2.351   2.743  0.00  0.00    +0.000 A 
ATOM     21  C   UNL     1       4.841  -1.008   2.448  0.00  0.00    +0.000 A 
ATOM     22  F   UNL     1       5.806  -0.358   3.111  0.00  0.00    +0.000 F 
ATOM     23  C   UNL     1       4.124  -0.273   1.507  0.00  0.00    +0.000 A 
BRANCH  20  24
ATOM     24  C   UNL     1       5.226  -3.103   3.814  0.00  0.00    +0.000 A 
ATOM     25  C   UNL     1       6.570  -2.862   4.149  0.00  0.00    +0.000 A 
ATOM     26  C   UNL     1       7.200  -3.575   5.170  0.00  0.00    +0.000 A 
ATOM     27  C   UNL     1       6.505  -4.550   5.882  0.00  0.00    +0.000 A 
ATOM     28  C   UNL     1       5.169  -4.803   5.576  0.00  0.00    +0.000 A 
ATOM     29  C   UNL     1       4.543  -4.083   4.559  0.00  0.00    +0.000 A 
ENDBRANCH  20  24
ENDBRANCH   2  17
TORSDOF 3
