REMARK  Name = 
REMARK  7 active torsions:
REMARK  status: ('A' for Active; 'I' for Inactive)
REMARK    1  A    between atoms: C_1  and  C_2
REMARK    2  A    between atoms: N_10  and  C_11
REMARK    3  A    between atoms: C_11  and  C_12
REMARK    4  A    between atoms: C_12  and  N_13
REMARK    5  A    between atoms: C_14  and  C_16
REMARK    6  A    between atoms: C_20  and  N_21
REMARK    7  A    between atoms: C_25  and  C_26
REMARK                            x       y       z     vdW  Elec       q    Type
REMARK                         _______ _______ _______ _____ _____    ______ ____
ROOT
ATOM      1  N   UNL     1       4.843  -5.006   0.048  0.00  0.00    +0.000 N 
ATOM      2  C   UNL     1       4.076  -6.156   0.060  0.00  0.00    +0.000 C 
ATOM      3  O   UNL     1       2.850  -6.150   0.066  0.00  0.00    +0.000 OA
ATOM      4  H   UNL     1       5.820  -5.080  -0.209  0.00  0.00    +0.000 HD
ENDROOT
BRANCH   2   5
ATOM      5  C   UNL     1       4.821  -7.437   0.027  0.00  0.00    +0.000 A 
ATOM      6  C   UNL     1       6.074  -7.568   0.638  0.00  0.00    +0.000 A 
ATOM      7  C   UNL     1       6.752  -8.782   0.581  0.00  0.00    +0.000 A 
ATOM      8  C   UNL     1       6.174  -9.881  -0.061  0.00  0.00    +0.000 A 
ATOM      9  C   UNL     1       4.890  -9.778  -0.608  0.00  0.00    +0.000 A 
ATOM     10  C   UNL     1       4.229  -8.542  -0.591  0.00  0.00    +0.000 A 
BRANCH   9  11
ATOM     11  N   UNL     1       4.232 -10.891  -1.199  0.00  0.00    +0.000 N 
ATOM     12  N   UNL     1       3.356 -10.644  -2.219  0.00  0.00    +0.000 NA
ATOM     13  C   UNL     1       3.014 -11.840  -2.685  0.00  0.00    +0.000 A 
ATOM     14  C   UNL     1       3.582 -12.875  -1.939  0.00  0.00    +0.000 A 
ATOM     15  C   UNL     1       4.318 -12.244  -0.946  0.00  0.00    +0.000 A 
BRANCH  15  16
ATOM     16  C   UNL     1       4.964 -12.869   0.217  0.00  0.00    +0.000 C 
ATOM     17  F   UNL     1       5.385 -12.023   1.183  0.00  0.00    +0.000 F 
ATOM     18  F   UNL     1       4.115 -13.734   0.836  0.00  0.00    +0.000 F 
ATOM     19  F   UNL     1       6.045 -13.603  -0.163  0.00  0.00    +0.000 F 
ENDBRANCH  15  16
ENDBRANCH   9  11
ENDBRANCH   2   5
BRANCH   1  20
ATOM     20  C   UNL     1       4.183  -3.714   0.012  0.00  0.00    +0.000 C 
BRANCH  20  21
ATOM     21  C   UNL     1       5.168  -2.545   0.035  0.00  0.00    +0.000 C 
BRANCH  21  31
ATOM     22  C   UNL     1       2.969   1.349   2.307  0.00  0.00    +0.000 C 
ATOM     23  C   UNL     1       3.410   0.700   1.026  0.00  0.00    +0.000 A 
ATOM     24  N   UNL     1       3.186   1.289  -0.108  0.00  0.00    +0.000 NA
ATOM     25  C   UNL     1       3.553   0.619  -1.285  0.00  0.00    +0.000 A 
ATOM     26  C   UNL     1       3.238   1.243  -2.498  0.00  0.00    +0.000 A 
ATOM     27  C   UNL     1       3.503   0.617  -3.713  0.00  0.00    +0.000 A 
ATOM     28  C   UNL     1       4.099  -0.639  -3.724  0.00  0.00    +0.000 A 
ATOM     29  C   UNL     1       4.442  -1.263  -2.522  0.00  0.00    +0.000 A 
ATOM     30  C   UNL     1       4.176  -0.643  -1.291  0.00  0.00    +0.000 A 
ATOM     31  N   UNL     1       4.499  -1.251  -0.043  0.00  0.00    +0.000 N 
ATOM     32  C   UNL     1       4.101  -0.649   1.148  0.00  0.00    +0.000 A 
ATOM     33  O   UNL     1       4.273  -1.123   2.265  0.00  0.00    +0.000 OA
ENDBRANCH  21  31
ENDBRANCH  20  21
ENDBRANCH   1  20
TORSDOF 6
