REMARK  Name = 
REMARK  8 active torsions:
REMARK  status: ('A' for Active; 'I' for Inactive)
REMARK    1  A    between atoms: C_1  and  N_2
REMARK    2  A    between atoms: N_2  and  C_3
REMARK    3  A    between atoms: C_3  and  C_4
REMARK    4  A    between atoms: N_6  and  C_7
REMARK    5  A    between atoms: C_7  and  C_8
REMARK    6  A    between atoms: C_7  and  C_14
REMARK    7  A    between atoms: C_20  and  C_22
REMARK    8  A    between atoms: C_26  and  C_27
REMARK                            x       y       z     vdW  Elec       q    Type
REMARK                         _______ _______ _______ _____ _____    ______ ____
ROOT
ATOM      1  C   UNL     1       3.098   1.105   0.698  0.00  0.00    +0.000 C 
ENDROOT
BRANCH   1   2
ATOM      2  C   UNL     1       2.209   2.228   1.248  0.00  0.00    +0.000 C 
ATOM      3  O   UNL     1       1.083   2.420   0.784  0.00  0.00    +0.000 OA
ATOM      4  N   UNL     1       2.706   2.933   2.317  0.00  0.00    +0.000 N 
ATOM      5  H   UNL     1       3.599   2.685   2.717  0.00  0.00    +0.000 HD
BRANCH   4   6
ATOM      6  C   UNL     1       1.895   3.950   2.965  0.00  0.00    +0.000 C 
BRANCH   6   7
ATOM      7  C   UNL     1       0.996   3.399   4.071  0.00  0.00    +0.000 A 
ATOM      8  C   UNL     1       1.350   2.293   4.860  0.00  0.00    +0.000 A 
ATOM      9  C   UNL     1       0.554   1.908   5.940  0.00  0.00    +0.000 A 
ATOM     10  C   UNL     1      -0.604   2.617   6.247  0.00  0.00    +0.000 A 
ATOM     11  C   UNL     1      -0.980   3.704   5.466  0.00  0.00    +0.000 A 
ATOM     12  C   UNL     1      -0.189   4.093   4.385  0.00  0.00    +0.000 A 
ENDBRANCH   6   7
BRANCH   6  13
ATOM     13  C   UNL     1       2.747   5.102   3.478  0.00  0.00    +0.000 A 
ATOM     14  C   UNL     1       2.571   6.389   2.940  0.00  0.00    +0.000 A 
ATOM     15  C   UNL     1       3.223   7.487   3.498  0.00  0.00    +0.000 A 
ATOM     16  C   UNL     1       4.065   7.314   4.594  0.00  0.00    +0.000 A 
ATOM     17  C   UNL     1       4.281   6.040   5.113  0.00  0.00    +0.000 A 
ATOM     18  C   UNL     1       3.634   4.938   4.554  0.00  0.00    +0.000 A 
ENDBRANCH   6  13
ENDBRANCH   4   6
ENDBRANCH   1   2
BRANCH   1  20
ATOM     19  C   UNL     1       4.887   2.759   0.047  0.00  0.00    +0.000 C 
ATOM     20  N   UNL     1       4.440   1.377   0.164  0.00  0.00    +0.000 N 
ATOM     21  C   UNL     1       5.384   0.399  -0.190  0.00  0.00    +0.000 C 
ATOM     22  O   UNL     1       6.534   0.706  -0.502  0.00  0.00    +0.000 OA
BRANCH  21  23
ATOM     23  C   UNL     1       5.065  -1.065  -0.183  0.00  0.00    +0.000 A 
ATOM     24  C   UNL     1       3.840  -1.599  -0.574  0.00  0.00    +0.000 A 
ATOM     25  C   UNL     1       3.666  -2.970  -0.513  0.00  0.00    +0.000 A 
ATOM     26  N   UNL     1       4.635  -3.833  -0.157  0.00  0.00    +0.000 NA
ATOM     27  C   UNL     1       5.855  -3.315   0.136  0.00  0.00    +0.000 A 
ATOM     28  C   UNL     1       6.103  -1.947   0.142  0.00  0.00    +0.000 A 
BRANCH  27  29
ATOM     29  C   UNL     1       6.913  -4.293   0.425  0.00  0.00    +0.000 A 
ATOM     30  N   UNL     1       8.185  -3.942   0.693  0.00  0.00    +0.000 NA
ATOM     31  N   UNL     1       8.827  -5.107   0.874  0.00  0.00    +0.000 N 
ATOM     32  C   UNL     1       8.024  -6.199   0.753  0.00  0.00    +0.000 A 
ATOM     33  C   UNL     1       6.776  -5.710   0.460  0.00  0.00    +0.000 A 
ATOM     34  H   UNL     1       9.820  -5.080   1.078  0.00  0.00    +0.000 HD
ENDBRANCH  27  29
ENDBRANCH  21  23
ENDBRANCH   1  20
TORSDOF 7
