REMARK  Name = 
REMARK  6 active torsions:
REMARK  status: ('A' for Active; 'I' for Inactive)
REMARK    1  A    between atoms: C_1  and  N_2
REMARK    2  A    between atoms: C_3  and  C_4
REMARK    3  A    between atoms: C_4  and  C_5
REMARK    4  A    between atoms: C_13  and  C_14
REMARK    5  A    between atoms: N_19  and  C_20
REMARK    6  A    between atoms: C_21  and  C_22
REMARK                            x       y       z     vdW  Elec       q    Type
REMARK                         _______ _______ _______ _____ _____    ______ ____
ROOT
ATOM      1  C   UNL     1       0.342   2.595   0.093  0.00  0.00    +0.000 C 
ATOM      2  O   UNL     1       1.461   2.998  -0.218  0.00  0.00    +0.000 OA
ATOM      3  N   UNL     1      -0.660   3.400   0.593  0.00  0.00    +0.000 N 
ATOM      4  C   UNL     1      -0.592   4.765   0.694  0.00  0.00    +0.000 A 
ATOM      5  N   UNL     1      -1.268   5.397   1.653  0.00  0.00    +0.000 NA
ATOM      6  N   UNL     1      -1.008   6.716   1.463  0.00  0.00    +0.000 N 
ATOM      7  C   UNL     1      -0.208   6.915   0.363  0.00  0.00    +0.000 A 
ATOM      8  C   UNL     1       0.094   5.669  -0.137  0.00  0.00    +0.000 A 
ATOM      9  H   UNL     1      -1.434   2.945   1.062  0.00  0.00    +0.000 HD
ENDROOT
BRANCH   6  10
ATOM     10  C   UNL     1      -1.550   7.674   2.367  0.00  0.00    +0.000 A 
ATOM     11  C   UNL     1      -1.933   8.967   1.983  0.00  0.00    +0.000 A 
ATOM     12  C   UNL     1      -2.502   9.818   2.936  0.00  0.00    +0.000 A 
ATOM     13  F   UNL     1      -2.924  11.043   2.583  0.00  0.00    +0.000 F 
ATOM     14  C   UNL     1      -2.672   9.424   4.259  0.00  0.00    +0.000 A 
ATOM     15  C   UNL     1      -2.274   8.151   4.650  0.00  0.00    +0.000 A 
ATOM     16  C   UNL     1      -1.729   7.275   3.708  0.00  0.00    +0.000 A 
BRANCH  11  17
ATOM     17  C   UNL     1      -1.886   9.449   0.637  0.00  0.00    +0.000 C 
ATOM     18  N   UNL     1      -1.836   9.828  -0.454  0.00  0.00    +0.000 NA
ENDBRANCH  11  17
ENDBRANCH   6  10
BRANCH   1  24
ATOM     19  C   UNL     1       2.196   0.154  -0.362  0.00  0.00    +0.000 C 
ATOM     20  N   UNL     1       0.773   0.091  -0.123  0.00  0.00    +0.000 N 
ATOM     21  C   UNL     1      -0.004  -1.042   0.009  0.00  0.00    +0.000 A 
ATOM     22  C   UNL     1      -1.291  -0.561   0.138  0.00  0.00    +0.000 A 
ATOM     23  N   UNL     1      -1.307   0.802   0.206  0.00  0.00    +0.000 NA
ATOM     24  C   UNL     1      -0.051   1.190   0.054  0.00  0.00    +0.000 A 
BRANCH  21  25
ATOM     25  C   UNL     1       0.489  -2.455   0.030  0.00  0.00    +0.000 C 
BRANCH  25  26
ATOM     26  C   UNL     1       0.632  -3.083  -1.337  0.00  0.00    +0.000 A 
ATOM     27  C   UNL     1       1.850  -3.658  -1.730  0.00  0.00    +0.000 A 
ATOM     28  C   UNL     1       1.997  -4.210  -3.004  0.00  0.00    +0.000 A 
ATOM     29  C   UNL     1       0.926  -4.209  -3.894  0.00  0.00    +0.000 A 
ATOM     30  C   UNL     1      -0.303  -3.686  -3.500  0.00  0.00    +0.000 A 
ATOM     31  C   UNL     1      -0.452  -3.136  -2.226  0.00  0.00    +0.000 A 
ENDBRANCH  25  26
ENDBRANCH  21  25
ENDBRANCH   1  24
TORSDOF 5
