REMARK  Name = 
REMARK  5 active torsions:
REMARK  status: ('A' for Active; 'I' for Inactive)
REMARK    1  A    between atoms: C_1  and  C_2
REMARK    2  A    between atoms: C_4  and  C_5
REMARK    3  A    between atoms: N_7  and  C_8
REMARK    4  A    between atoms: N_12  and  C_13
REMARK    5  A    between atoms: N_22  and  C_23
REMARK                            x       y       z     vdW  Elec       q    Type
REMARK                         _______ _______ _______ _____ _____    ______ ____
ROOT
ATOM      1  C   UNL     1       5.992   1.357   0.082  0.00  0.00    +0.000 C 
ATOM      2  O   UNL     1       7.022   0.694  -0.026  0.00  0.00    +0.000 OA
ATOM      3  N   UNL     1       5.960   2.728   0.260  0.00  0.00    +0.000 N 
ATOM      4  H   UNL     1       5.062   3.122   0.543  0.00  0.00    +0.000 HD
ENDROOT
BRANCH   3   5
ATOM      5  C   UNL     1       7.047   3.585   0.276  0.00  0.00    +0.000 A 
ATOM      6  C   UNL     1       8.253   3.298  -0.238  0.00  0.00    +0.000 A 
ATOM      7  C   UNL     1       9.354   4.215  -0.144  0.00  0.00    +0.000 A 
ATOM      8  C   UNL     1       9.213   5.360   0.529  0.00  0.00    +0.000 A 
ATOM      9  N   UNL     1       8.000   5.736   1.095  0.00  0.00    +0.000 N 
ATOM     10  C   UNL     1       6.844   4.931   0.953  0.00  0.00    +0.000 A 
ATOM     11  O   UNL     1       5.724   5.188   1.402  0.00  0.00    +0.000 OA
BRANCH   9  12
ATOM     12  C   UNL     1       7.926   6.915   1.901  0.00  0.00    +0.000 A 
ATOM     13  C   UNL     1       8.895   7.144   2.892  0.00  0.00    +0.000 A 
ATOM     14  C   UNL     1       8.797   8.250   3.738  0.00  0.00    +0.000 A 
ATOM     15  C   UNL     1       7.757   9.161   3.574  0.00  0.00    +0.000 A 
ATOM     16  C   UNL     1       6.813   8.966   2.567  0.00  0.00    +0.000 A 
ATOM     17  C   UNL     1       6.888   7.840   1.743  0.00  0.00    +0.000 A 
ENDBRANCH   9  12
ENDBRANCH   3   5
BRANCH   1  21
ATOM     18  C   UNL     1       2.387  -2.172  -0.129  0.00  0.00    +0.000 C 
ATOM     19  C   UNL     1       3.116  -0.890   0.045  0.00  0.00    +0.000 A 
ATOM     20  C   UNL     1       4.475  -0.696   0.129  0.00  0.00    +0.000 A 
ATOM     21  C   UNL     1       4.678   0.699   0.090  0.00  0.00    +0.000 A 
ATOM     22  N   UNL     1       3.508   1.354   0.016  0.00  0.00    +0.000 NA
ATOM     23  N   UNL     1       2.552   0.382   0.010  0.00  0.00    +0.000 N 
BRANCH  23  24
ATOM     24  C   UNL     1       1.175   0.718  -0.026  0.00  0.00    +0.000 A 
ATOM     25  C   UNL     1       0.232  -0.065   0.659  0.00  0.00    +0.000 A 
ATOM     26  C   UNL     1      -1.132   0.219   0.557  0.00  0.00    +0.000 A 
ATOM     27  C   UNL     1      -1.565   1.289  -0.222  0.00  0.00    +0.000 A 
ATOM     28  C   UNL     1      -0.630   2.094  -0.873  0.00  0.00    +0.000 A 
ATOM     29  C   UNL     1       0.735   1.817  -0.765  0.00  0.00    +0.000 A 
ATOM     30  F   UNL     1       1.583   2.584  -1.464  0.00  0.00    +0.000 F 
ENDBRANCH  23  24
ENDBRANCH   1  21
TORSDOF 4
