REMARK  Name = 
REMARK  9 active torsions:
REMARK  status: ('A' for Active; 'I' for Inactive)
REMARK    1  A    between atoms: N_1  and  CA_2
REMARK    2  A    between atoms: CA_2  and  C_3
REMARK    3  A    between atoms: CA_2  and  C_31
REMARK    4  A    between atoms: C_3  and  C_4
REMARK    5  A    between atoms: C_8  and  N_9
REMARK    6  A    between atoms: C_10  and  C_12
REMARK    7  A    between atoms: C_15  and  C_16
REMARK    8  A    between atoms: C_23  and  C_24
REMARK    9  A    between atoms: C_31  and  OXT_33
REMARK                            x       y       z     vdW  Elec       q    Type
REMARK                         _______ _______ _______ _____ _____    ______ ____
ROOT
ATOM      1  N   UNL     1       2.615   6.063  -1.389  0.00  0.00    +0.000 N 
ATOM      2  C   UNL     1       1.987   7.082  -2.091  0.00  0.00    +0.000 C 
ATOM      3  O   UNL     1       1.108   6.918  -2.941  0.00  0.00    +0.000 OA
ATOM      4  H   UNL     1       3.227   6.352  -0.631  0.00  0.00    +0.000 HD
ENDROOT
BRANCH   2   5
ATOM      5  C   UNL     1       2.376   8.439  -1.768  0.00  0.00    +0.000 A 
ATOM      6  C   UNL     1       3.277   8.936  -0.846  0.00  0.00    +0.000 A 
ATOM      7  N   UNL     1       4.102   8.317   0.057  0.00  0.00    +0.000 NA
ATOM      8  C   UNL     1       4.902   9.093   0.739  0.00  0.00    +0.000 A 
ATOM      9  C   UNL     1       4.934  10.588   0.634  0.00  0.00    +0.000 A 
ATOM     10  C   UNL     1       4.090  11.148  -0.246  0.00  0.00    +0.000 A 
ATOM     11  N   UNL     1       3.256  10.333  -0.999  0.00  0.00    +0.000 N 
ATOM     12  N   UNL     1       2.382  10.724  -1.953  0.00  0.00    +0.000 NA
ATOM     13  C   UNL     1       1.867   9.589  -2.411  0.00  0.00    +0.000 A 
BRANCH   8  14
ATOM     14  C   UNL     1       5.853   8.495   1.716  0.00  0.00    +0.000 A 
ATOM     15  C   UNL     1       7.100   9.082   1.968  0.00  0.00    +0.000 A 
ATOM     16  C   UNL     1       7.949   8.532   2.927  0.00  0.00    +0.000 A 
ATOM     17  C   UNL     1       7.568   7.384   3.618  0.00  0.00    +0.000 A 
ATOM     18  C   UNL     1       6.343   6.774   3.343  0.00  0.00    +0.000 A 
ATOM     19  C   UNL     1       5.486   7.324   2.389  0.00  0.00    +0.000 A 
ENDBRANCH   8  14
BRANCH  10  20
ATOM     20  C   UNL     1       4.016  12.613  -0.496  0.00  0.00    +0.000 C 
ATOM     21  F   UNL     1       3.112  13.196   0.335  0.00  0.00    +0.000 F 
ATOM     22  F   UNL     1       5.212  13.205  -0.205  0.00  0.00    +0.000 F 
ENDBRANCH  10  20
ENDBRANCH   2   5
BRANCH   1  27
ATOM     23  C   UNL     1       2.413   2.399  -0.688  0.00  0.00    +0.000 A 
ATOM     24  C   UNL     1       1.758   1.944  -1.839  0.00  0.00    +0.000 A 
ATOM     25  C   UNL     1       1.420   2.833  -2.852  0.00  0.00    +0.000 A 
ATOM     26  C   UNL     1       1.720   4.185  -2.715  0.00  0.00    +0.000 A 
ATOM     27  C   UNL     1       2.359   4.678  -1.570  0.00  0.00    +0.000 A 
ATOM     28  C   UNL     1       2.735   3.767  -0.572  0.00  0.00    +0.000 A 
BRANCH  23  29
ATOM     29  C   UNL     1       2.683   1.415   0.433  0.00  0.00    +0.000 C 
BRANCH  29  30
ATOM     30  CA  UNL     1       4.021   0.658   0.394  0.00  0.00    +0.000 C 
BRANCH  30  31
ATOM     31  N   UNL     1       5.223   1.543   0.444  0.00  0.00    +0.000 NA
ATOM     32  H1  UNL     1       5.058   2.242   1.175  0.00  0.00    +0.000 HD
ATOM     33  H2  UNL     1       5.239   2.096  -0.420  0.00  0.00    +0.000 HD
ENDBRANCH  30  31
BRANCH  30  34
ATOM     34  C   UNL     1       4.149  -0.294  -0.808  0.00  0.00    +0.000 C 
ATOM     35  O   UNL     1       3.229  -0.868  -1.367  0.00  0.00    +0.000 OA
BRANCH  34  36
ATOM     36  OXT UNL     1       5.453  -0.489  -1.149  0.00  0.00    +0.000 OA
ATOM     37  HXT UNL     1       6.001   0.064  -0.539  0.00  0.00    +0.000 HD
ENDBRANCH  34  36
ENDBRANCH  30  34
ENDBRANCH  29  30
ENDBRANCH  23  29
ENDBRANCH   1  27
TORSDOF 9
