REMARK  Name = 
REMARK  9 active torsions:
REMARK  status: ('A' for Active; 'I' for Inactive)
REMARK    1  A    between atoms: C_1  and  O_2
REMARK    2  A    between atoms: O_2  and  C_3
REMARK    3  A    between atoms: C_6  and  C_7
REMARK    4  A    between atoms: C_7  and  C_8
REMARK    5  A    between atoms: C_8  and  N_9
REMARK    6  A    between atoms: C_10  and  C_12
REMARK    7  A    between atoms: C_17  and  O_18
REMARK    8  A    between atoms: O_18  and  C_19
REMARK    9  A    between atoms: C_19  and  C_20
REMARK                            x       y       z     vdW  Elec       q    Type
REMARK                         _______ _______ _______ _____ _____    ______ ____
ROOT
ATOM      1  N   UNL     1       4.914  -7.355   0.828  0.00  0.00    +0.000 N 
ATOM      2  C   UNL     1       5.833  -7.525   1.843  0.00  0.00    +0.000 C 
ATOM      3  O   UNL     1       6.269  -8.663   2.049  0.00  0.00    +0.000 OA
ATOM      4  H   UNL     1       4.693  -8.254   0.415  0.00  0.00    +0.000 HD
ENDROOT
BRANCH   2   5
ATOM      5  C   UNL     1       6.334  -6.370   2.651  0.00  0.00    +0.000 A 
ATOM      6  N   UNL     1       5.375  -5.510   3.096  0.00  0.00    +0.000 NA
ATOM      7  C   UNL     1       5.806  -4.320   3.566  0.00  0.00    +0.000 A 
ATOM      8  C   UNL     1       7.139  -3.960   3.644  0.00  0.00    +0.000 A 
ATOM      9  C   UNL     1       8.104  -4.895   3.278  0.00  0.00    +0.000 A 
ATOM     10  C   UNL     1       7.713  -6.146   2.795  0.00  0.00    +0.000 A 
BRANCH  10  11
ATOM     11  O   UNL     1       8.615  -7.053   2.306  0.00  0.00    +0.000 OA
BRANCH  11  12
ATOM     12  C   UNL     1       9.826  -7.170   3.060  0.00  0.00    +0.000 C 
BRANCH  12  13
ATOM     13  C   UNL     1      10.665  -8.319   2.553  0.00  0.00    +0.000 A 
ATOM     14  C   UNL     1      12.048  -8.338   2.782  0.00  0.00    +0.000 A 
ATOM     15  C   UNL     1      12.791  -9.415   2.320  0.00  0.00    +0.000 A 
ATOM     16  N   UNL     1      12.251 -10.462   1.670  0.00  0.00    +0.000 NA
ATOM     17  C   UNL     1      10.910 -10.435   1.473  0.00  0.00    +0.000 A 
ATOM     18  C   UNL     1      10.090  -9.408   1.897  0.00  0.00    +0.000 A 
ENDBRANCH  12  13
ENDBRANCH  11  12
ENDBRANCH  10  11
ENDBRANCH   2   5
BRANCH   1  19
ATOM     19  C   UNL     1       4.277  -6.209   0.163  0.00  0.00    +0.000 C 
BRANCH  19  20
ATOM     20  C   UNL     1       4.842  -4.777   0.238  0.00  0.00    +0.000 C 
BRANCH  20  24
ATOM     21  C   UNL     1       9.117  -4.272  -0.296  0.00  0.00    +0.000 A 
ATOM     22  C   UNL     1       8.495  -5.487  -0.560  0.00  0.00    +0.000 A 
ATOM     23  C   UNL     1       7.116  -5.600  -0.484  0.00  0.00    +0.000 A 
ATOM     24  C   UNL     1       6.321  -4.542  -0.028  0.00  0.00    +0.000 A 
ATOM     25  C   UNL     1       6.943  -3.287   0.256  0.00  0.00    +0.000 A 
ATOM     26  C   UNL     1       6.223  -2.151   0.717  0.00  0.00    +0.000 A 
ATOM     27  C   UNL     1       6.855  -0.940   1.016  0.00  0.00    +0.000 A 
ATOM     28  C   UNL     1       8.225  -0.821   0.853  0.00  0.00    +0.000 A 
ATOM     29  C   UNL     1       8.963  -1.916   0.409  0.00  0.00    +0.000 A 
ATOM     30  C   UNL     1       8.352  -3.157   0.114  0.00  0.00    +0.000 A 
BRANCH  21  32
ATOM     31  C   UNL     1      11.133  -5.026  -1.267  0.00  0.00    +0.000 C 
ATOM     32  O   UNL     1      10.484  -4.124  -0.372  0.00  0.00    +0.000 OA
ENDBRANCH  21  32
ENDBRANCH  20  24
ENDBRANCH  19  20
ENDBRANCH   1  19
TORSDOF 8
