REMARK  Name = 
REMARK  6 active torsions:
REMARK  status: ('A' for Active; 'I' for Inactive)
REMARK    1  A    between atoms: C_1  and  O_2
REMARK    2  A    between atoms: O_2  and  C_3
REMARK    3  A    between atoms: C_3  and  C_5
REMARK    4  A    between atoms: C_7  and  N_8
REMARK    5  A    between atoms: C_9  and  C_11
REMARK    6  A    between atoms: N_13  and  C_14
REMARK                            x       y       z     vdW  Elec       q    Type
REMARK                         _______ _______ _______ _____ _____    ______ ____
ROOT
ATOM      1  N   UNL     1       7.187   1.831   2.904  0.00  0.00    +0.000 N 
ATOM      2  C   UNL     1       6.504   2.058   4.087  0.00  0.00    +0.000 C 
ATOM      3  O   UNL     1       5.290   1.998   4.249  0.00  0.00    +0.000 OA
ATOM      4  H   UNL     1       8.188   1.938   2.890  0.00  0.00    +0.000 HD
ENDROOT
BRANCH   1   7
ATOM      5  C   UNL     1       4.610   0.960   0.532  0.00  0.00    +0.000 A 
ATOM      6  N   UNL     1       5.232   1.299   1.691  0.00  0.00    +0.000 NA
ATOM      7  C   UNL     1       6.554   1.470   1.703  0.00  0.00    +0.000 A 
ATOM      8  C   UNL     1       7.315   1.298   0.555  0.00  0.00    +0.000 A 
ATOM      9  C   UNL     1       6.684   0.948  -0.656  0.00  0.00    +0.000 A 
ATOM     10  C   UNL     1       7.428   0.780  -1.839  0.00  0.00    +0.000 A 
ATOM     11  C   UNL     1       6.806   0.453  -3.047  0.00  0.00    +0.000 A 
ATOM     12  C   UNL     1       5.428   0.291  -3.094  0.00  0.00    +0.000 A 
ATOM     13  C   UNL     1       4.675   0.449  -1.932  0.00  0.00    +0.000 A 
ATOM     14  C   UNL     1       5.282   0.773  -0.690  0.00  0.00    +0.000 A 
BRANCH   5  15
ATOM     15  C   UNL     1       3.128   0.790   0.660  0.00  0.00    +0.000 C 
ATOM     16  O   UNL     1       2.444   0.026  -0.003  0.00  0.00    +0.000 OA
BRANCH  15  18
ATOM     17  C   UNL     1       1.252   1.571   1.825  0.00  0.00    +0.000 C 
ATOM     18  O   UNL     1       2.658   1.645   1.606  0.00  0.00    +0.000 OA
ENDBRANCH  15  18
ENDBRANCH   5  15
ENDBRANCH   1   7
BRANCH   2  19
ATOM     19  C   UNL     1       7.338   2.404   5.229  0.00  0.00    +0.000 A 
ATOM     20  C   UNL     1       8.708   2.518   5.360  0.00  0.00    +0.000 A 
ATOM     21  N   UNL     1       8.966   2.896   6.665  0.00  0.00    +0.000 N 
ATOM     22  N   UNL     1       7.827   2.966   7.393  0.00  0.00    +0.000 NA
ATOM     23  C   UNL     1       6.856   2.710   6.521  0.00  0.00    +0.000 A 
BRANCH  21  24
ATOM     24  C   UNL     1      10.217   3.223   7.253  0.00  0.00    +0.000 A 
ATOM     25  C   UNL     1      11.388   3.242   6.489  0.00  0.00    +0.000 A 
ATOM     26  C   UNL     1      12.588   3.601   7.093  0.00  0.00    +0.000 A 
ATOM     27  F   UNL     1      13.703   3.641   6.350  0.00  0.00    +0.000 F 
ATOM     28  C   UNL     1      12.652   3.928   8.442  0.00  0.00    +0.000 A 
ATOM     29  C   UNL     1      11.490   3.908   9.209  0.00  0.00    +0.000 A 
ATOM     30  C   UNL     1      10.273   3.562   8.616  0.00  0.00    +0.000 A 
ENDBRANCH  21  24
ENDBRANCH   2  19
TORSDOF 5
