REMARK  Name = 
REMARK  5 active torsions:
REMARK  status: ('A' for Active; 'I' for Inactive)
REMARK    1  A    between atoms: C_1  and  C_2
REMARK    2  A    between atoms: C_4  and  O_5
REMARK    3  A    between atoms: C_8  and  N_9
REMARK    4  A    between atoms: C_10  and  C_12
REMARK    5  A    between atoms: C_14  and  C_15
REMARK                            x       y       z     vdW  Elec       q    Type
REMARK                         _______ _______ _______ _____ _____    ______ ____
ROOT
ATOM      1  N   UNL     1       8.752  -1.343  -0.174  0.00  0.00    +0.000 N 
ATOM      2  C   UNL     1       9.551  -2.456  -0.391  0.00  0.00    +0.000 C 
ATOM      3  O   UNL     1       9.134  -3.594  -0.579  0.00  0.00    +0.000 OA
ATOM      4  H   UNL     1       9.225  -0.447  -0.168  0.00  0.00    +0.000 HD
ENDROOT
BRANCH   1  11
ATOM      5  C   UNL     1       0.985  -2.088   0.387  0.00  0.00    +0.000 C 
ATOM      6  C   UNL     1       2.473  -2.215   0.310  0.00  0.00    +0.000 A 
ATOM      7  N   UNL     1       3.005  -3.435   0.484  0.00  0.00    +0.000 NA
ATOM      8  C   UNL     1       4.338  -3.481   0.415  0.00  0.00    +0.000 A 
ATOM      9  C   UNL     1       5.175  -2.400   0.189  0.00  0.00    +0.000 A 
ATOM     10  C   UNL     1       6.583  -2.477   0.118  0.00  0.00    +0.000 A 
ATOM     11  C   UNL     1       7.347  -1.331  -0.082  0.00  0.00    +0.000 A 
ATOM     12  C   UNL     1       6.691  -0.104  -0.189  0.00  0.00    +0.000 A 
ATOM     13  C   UNL     1       5.290  -0.046  -0.148  0.00  0.00    +0.000 A 
ATOM     14  C   UNL     1       4.514  -1.183   0.039  0.00  0.00    +0.000 A 
ATOM     15  N   UNL     1       3.177  -1.086   0.088  0.00  0.00    +0.000 NA
BRANCH   8  16
ATOM     16  O   UNL     1       4.839  -4.729   0.621  0.00  0.00    +0.000 OA
ATOM     17  H   UNL     1       4.018  -5.227   0.775  0.00  0.00    +0.000 HD
ENDBRANCH   8  16
ENDBRANCH   1  11
BRANCH   2  18
ATOM     18  C   UNL     1      10.963  -2.171  -0.425  0.00  0.00    +0.000 A 
ATOM     19  C   UNL     1      12.041  -2.990  -0.656  0.00  0.00    +0.000 A 
ATOM     20  C   UNL     1      13.176  -2.145  -0.572  0.00  0.00    +0.000 A 
ATOM     21  N   UNL     1      12.790  -0.886  -0.304  0.00  0.00    +0.000 NA
ATOM     22  O   UNL     1      11.414  -0.908  -0.209  0.00  0.00    +0.000 OA
BRANCH  20  23
ATOM     23  C   UNL     1      14.576  -2.509  -0.751  0.00  0.00    +0.000 A 
ATOM     24  C   UNL     1      14.944  -3.548  -1.616  0.00  0.00    +0.000 A 
ATOM     25  F   UNL     1      14.015  -4.217  -2.317  0.00  0.00    +0.000 F 
ATOM     26  C   UNL     1      16.276  -3.918  -1.794  0.00  0.00    +0.000 A 
ATOM     27  C   UNL     1      17.260  -3.237  -1.095  0.00  0.00    +0.000 A 
ATOM     28  F   UNL     1      18.542  -3.587  -1.252  0.00  0.00    +0.000 F 
ATOM     29  C   UNL     1      16.936  -2.204  -0.228  0.00  0.00    +0.000 A 
ATOM     30  C   UNL     1      15.599  -1.846  -0.062  0.00  0.00    +0.000 A 
ATOM     31  F   UNL     1      15.324  -0.863   0.807  0.00  0.00    +0.000 F 
ENDBRANCH  20  23
ENDBRANCH   2  18
TORSDOF 4
