REMARK  Name = 
REMARK  8 active torsions:
REMARK  status: ('A' for Active; 'I' for Inactive)
REMARK    1  A    between atoms: C_2  and  C_4
REMARK    2  A    between atoms: C_4  and  N_5
REMARK    3  A    between atoms: N_5  and  C_6
REMARK    4  A    between atoms: C_6  and  C_7
REMARK    5  A    between atoms: C_10  and  C_11
REMARK    6  A    between atoms: C_19  and  C_21
REMARK    7  A    between atoms: C_21  and  C_22
REMARK    8  A    between atoms: C_22  and  C_23
REMARK                            x       y       z     vdW  Elec       q    Type
REMARK                         _______ _______ _______ _____ _____    ______ ____
ROOT
ATOM      1  N   UNL     1       4.893   0.792  -0.817  0.00  0.00    +0.000 N 
ATOM      2  C   UNL     1       5.808   1.575  -1.502  0.00  0.00    +0.000 C 
ATOM      3  O   UNL     1       5.417   2.425  -2.308  0.00  0.00    +0.000 OA
ENDROOT
BRANCH   1   4
ATOM      4  C   UNL     1       3.448   1.073  -0.999  0.00  0.00    +0.000 C 
BRANCH   4   6
ATOM      5  N   UNL     1       3.351  -0.472  -2.936  0.00  0.00    +0.000 N 
ATOM      6  C   UNL     1       2.650   0.196  -1.970  0.00  0.00    +0.000 C 
ATOM      7  O   UNL     1       1.427   0.153  -1.968  0.00  0.00    +0.000 OA
ATOM      8  H   UNL     1       2.807  -0.915  -3.662  0.00  0.00    +0.000 HD
ATOM      9  H   UNL     1       4.329  -0.283  -3.098  0.00  0.00    +0.000 HD
ENDBRANCH   4   6
ENDBRANCH   1   4
BRANCH   1  10
ATOM     10  C   UNL     1       5.255  -0.248   0.150  0.00  0.00    +0.000 C 
BRANCH  10  11
ATOM     11  C   UNL     1       4.870   0.062   1.583  0.00  0.00    +0.000 A 
ATOM     12  C   UNL     1       4.656  -0.998   2.472  0.00  0.00    +0.000 A 
ATOM     13  C   UNL     1       4.220  -0.764   3.783  0.00  0.00    +0.000 A 
ATOM     14  C   UNL     1       3.996   0.537   4.265  0.00  0.00    +0.000 A 
ATOM     15  C   UNL     1       4.285   1.594   3.385  0.00  0.00    +0.000 A 
ATOM     16  C   UNL     1       4.724   1.365   2.072  0.00  0.00    +0.000 A 
BRANCH  14  17
ATOM     17  C   UNL     1       3.468   0.784   5.632  0.00  0.00    +0.000 A 
ATOM     18  C   UNL     1       3.780  -0.062   6.712  0.00  0.00    +0.000 A 
ATOM     19  C   UNL     1       3.278   0.172   7.998  0.00  0.00    +0.000 A 
ATOM     20  C   UNL     1       2.457   1.269   8.238  0.00  0.00    +0.000 A 
ATOM     21  C   UNL     1       2.126   2.120   7.190  0.00  0.00    +0.000 A 
ATOM     22  C   UNL     1       2.619   1.874   5.904  0.00  0.00    +0.000 A 
ENDBRANCH  14  17
ENDBRANCH  10  11
ENDBRANCH   1  10
BRANCH   2  23
ATOM     23  C   UNL     1       7.311   1.362  -1.272  0.00  0.00    +0.000 C 
BRANCH  23  24
ATOM     24  C   UNL     1       8.069   2.428  -2.062  0.00  0.00    +0.000 C 
BRANCH  24  25
ATOM     25  C   UNL     1       9.558   2.416  -2.027  0.00  0.00    +0.000 A 
ATOM     26  N   UNL     1      10.413   1.631  -1.399  0.00  0.00    +0.000 NA
ATOM     27  C   UNL     1      11.676   2.155  -1.668  0.00  0.00    +0.000 A 
ATOM     28  C   UNL     1      12.967   1.772  -1.256  0.00  0.00    +0.000 A 
ATOM     29  F   UNL     1      13.165   0.698  -0.480  0.00  0.00    +0.000 F 
ATOM     30  C   UNL     1      14.078   2.535  -1.650  0.00  0.00    +0.000 A 
ATOM     31  C   UNL     1      13.921   3.662  -2.459  0.00  0.00    +0.000 A 
ATOM     32  C   UNL     1      12.657   4.046  -2.911  0.00  0.00    +0.000 A 
ATOM     33  C   UNL     1      11.570   3.271  -2.494  0.00  0.00    +0.000 A 
ATOM     34  N   UNL     1      10.232   3.379  -2.742  0.00  0.00    +0.000 N 
ATOM     35  H   UNL     1       9.796   4.083  -3.321  0.00  0.00    +0.000 HD
ENDBRANCH  24  25
ENDBRANCH  23  24
ENDBRANCH   2  23
TORSDOF 8
