REMARK  Name = 
REMARK  7 active torsions:
REMARK  status: ('A' for Active; 'I' for Inactive)
REMARK    1  A    between atoms: C_1  and  C_2
REMARK    2  A    between atoms: C_7  and  C_8
REMARK    3  A    between atoms: C_8  and  N_9
REMARK    4  A    between atoms: N_9  and  C_10
REMARK    5  A    between atoms: C_13  and  C_14
REMARK    6  A    between atoms: N_16  and  C_17
REMARK    7  A    between atoms: C_17  and  C_18
REMARK                            x       y       z     vdW  Elec       q    Type
REMARK                         _______ _______ _______ _____ _____    ______ ____
ROOT
ATOM      1  C   UNL     1       6.181  -6.777  -0.021  0.00  0.00    +0.000 C 
ATOM      2  O   UNL     1       7.356  -6.541   0.234  0.00  0.00    +0.000 OA
ATOM      3  N   UNL     1       5.717  -8.033  -0.342  0.00  0.00    +0.000 N 
ATOM      4  H   UNL     1       4.726  -8.225  -0.270  0.00  0.00    +0.000 HD
ENDROOT
BRANCH   1   8
ATOM      5  C   UNL     1       3.300  -3.558   0.293  0.00  0.00    +0.000 A 
ATOM      6  C   UNL     1       3.116  -4.592  -0.637  0.00  0.00    +0.000 A 
ATOM      7  C   UNL     1       4.025  -5.661  -0.745  0.00  0.00    +0.000 A 
ATOM      8  C   UNL     1       5.163  -5.690   0.063  0.00  0.00    +0.000 A 
ATOM      9  C   UNL     1       5.396  -4.633   0.944  0.00  0.00    +0.000 A 
ATOM     10  C   UNL     1       4.477  -3.581   1.051  0.00  0.00    +0.000 A 
BRANCH   5  11
ATOM     11  N   UNL     1       2.398  -2.485   0.316  0.00  0.00    +0.000 N 
ATOM     12  H   UNL     1       1.511  -2.710  -0.128  0.00  0.00    +0.000 HD
BRANCH  11  13
ATOM     13  C   UNL     1       2.186  -1.767   1.576  0.00  0.00    +0.000 C 
BRANCH  13  20
ATOM     14  C   UNL     1      -0.481  -1.231   2.968  0.00  0.00    +0.000 C 
ATOM     15  C   UNL     1       0.136  -0.256   2.002  0.00  0.00    +0.000 A 
ATOM     16  C   UNL     1      -0.522   0.966   1.776  0.00  0.00    +0.000 A 
ATOM     17  C   UNL     1       0.013   1.924   0.916  0.00  0.00    +0.000 A 
ATOM     18  C   UNL     1       1.214   1.675   0.265  0.00  0.00    +0.000 A 
ATOM     19  C   UNL     1       1.878   0.466   0.475  0.00  0.00    +0.000 A 
ATOM     20  C   UNL     1       1.357  -0.516   1.341  0.00  0.00    +0.000 A 
ENDBRANCH  13  20
ENDBRANCH  11  13
ENDBRANCH   5  11
ENDBRANCH   1   8
BRANCH   3  21
ATOM     21  C   UNL     1       6.603  -9.185  -0.310  0.00  0.00    +0.000 C 
BRANCH  21  22
ATOM     22  C   UNL     1       6.647  -9.823   1.061  0.00  0.00    +0.000 A 
ATOM     23  C   UNL     1       7.619  -9.435   1.986  0.00  0.00    +0.000 A 
ATOM     24  C   UNL     1       7.590  -9.974   3.271  0.00  0.00    +0.000 A 
ATOM     25  C   UNL     1       6.583 -10.873   3.606  0.00  0.00    +0.000 A 
ATOM     26  C   UNL     1       6.446 -11.431   4.950  0.00  0.00    +0.000 A 
ATOM     27  C   UNL     1       5.427 -12.258   5.219  0.00  0.00    +0.000 A 
ATOM     28  C   UNL     1       4.449 -12.643   4.169  0.00  0.00    +0.000 A 
ATOM     29  O   UNL     1       3.524 -13.405   4.430  0.00  0.00    +0.000 OA
ATOM     30  N   UNL     1       4.637 -12.105   2.930  0.00  0.00    +0.000 N 
ATOM     31  C   UNL     1       5.659 -11.214   2.616  0.00  0.00    +0.000 A 
ATOM     32  N   UNL     1       5.668 -10.716   1.363  0.00  0.00    +0.000 NA
ATOM     33  H   UNL     1       3.986 -12.341   2.197  0.00  0.00    +0.000 HD
ENDBRANCH  21  22
ENDBRANCH   3  21
TORSDOF 6
