REMARK  Name = 
REMARK  9 active torsions:
REMARK  status: ('A' for Active; 'I' for Inactive)
REMARK    1  A    between atoms: C_1  and  C_2
REMARK    2  A    between atoms: C_2  and  C_4
REMARK    3  A    between atoms: C_8  and  O_9
REMARK    4  A    between atoms: O_9  and  C_10
REMARK    5  A    between atoms: C_10  and  C_11
REMARK    6  A    between atoms: C_13  and  C_14
REMARK    7  A    between atoms: N_16  and  C_17
REMARK    8  A    between atoms: C_17  and  C_18
REMARK    9  A    between atoms: C_21  and  C_22
REMARK                            x       y       z     vdW  Elec       q    Type
REMARK                         _______ _______ _______ _____ _____    ______ ____
ROOT
ATOM      1  C   UNL     1      12.649  -0.954   3.289  0.00  0.00    +0.000 C 
ATOM      2  O   UNL     1      13.187  -2.058   3.330  0.00  0.00    +0.000 OA
ATOM      3  N   UNL     1      13.363   0.216   3.388  0.00  0.00    +0.000 N 
ATOM      4  H   UNL     1      12.870   1.105   3.357  0.00  0.00    +0.000 HD
ENDROOT
BRANCH   1   7
ATOM      5  C   UNL     1       9.030  -1.191   2.979  0.00  0.00    +0.000 A 
ATOM      6  C   UNL     1      10.240  -1.836   3.036  0.00  0.00    +0.000 A 
ATOM      7  C   UNL     1      11.201  -0.796   3.140  0.00  0.00    +0.000 A 
ATOM      8  N   UNL     1      10.602   0.408   3.109  0.00  0.00    +0.000 NA
ATOM      9  O   UNL     1       9.244   0.153   3.006  0.00  0.00    +0.000 OA
BRANCH   5  10
ATOM     10  C   UNL     1       7.620  -1.647   3.007  0.00  0.00    +0.000 C 
BRANCH  10  11
ATOM     11  O   UNL     1       7.176  -1.856   1.664  0.00  0.00    +0.000 OA
BRANCH  11  16
ATOM     12  C   UNL     1       4.270  -3.255  -0.040  0.00  0.00    +0.000 A 
ATOM     13  C   UNL     1       3.404  -3.527   1.026  0.00  0.00    +0.000 A 
ATOM     14  C   UNL     1       3.784  -3.227   2.332  0.00  0.00    +0.000 A 
ATOM     15  C   UNL     1       5.034  -2.659   2.584  0.00  0.00    +0.000 A 
ATOM     16  C   UNL     1       5.914  -2.386   1.532  0.00  0.00    +0.000 A 
ATOM     17  C   UNL     1       5.521  -2.674   0.219  0.00  0.00    +0.000 A 
BRANCH  12  19
ATOM     18  C   UNL     1       4.734  -3.321  -2.579  0.00  0.00    +0.000 C 
ATOM     19  C   UNL     1       3.825  -3.620  -1.418  0.00  0.00    +0.000 C 
ATOM     20  O   UNL     1       2.734  -4.165  -1.588  0.00  0.00    +0.000 OA
ENDBRANCH  12  19
ENDBRANCH  11  16
ENDBRANCH  10  11
ENDBRANCH   5  10
ENDBRANCH   1   7
BRANCH   3  21
ATOM     21  C   UNL     1      14.802   0.201   3.523  0.00  0.00    +0.000 C 
BRANCH  21  22
ATOM     22  C   UNL     1      15.359   1.581   3.573  0.00  0.00    +0.000 A 
ATOM     23  N   UNL     1      16.674   1.804   3.681  0.00  0.00    +0.000 NA
ATOM     24  O   UNL     1      16.763   3.196   3.694  0.00  0.00    +0.000 OA
ATOM     25  C   UNL     1      15.486   3.675   3.592  0.00  0.00    +0.000 A 
ATOM     26  N   UNL     1      14.583   2.719   3.514  0.00  0.00    +0.000 NA
BRANCH  25  27
ATOM     27  C   UNL     1      15.328   5.126   3.588  0.00  0.00    +0.000 A 
ATOM     28  C   UNL     1      16.431   5.992   3.699  0.00  0.00    +0.000 A 
ATOM     29  C   UNL     1      16.255   7.379   3.697  0.00  0.00    +0.000 A 
ATOM     30  C   UNL     1      14.976   7.907   3.585  0.00  0.00    +0.000 A 
ATOM     31  F   UNL     1      14.807   9.235   3.585  0.00  0.00    +0.000 F 
ATOM     32  C   UNL     1      13.869   7.075   3.473  0.00  0.00    +0.000 A 
ATOM     33  C   UNL     1      14.044   5.688   3.475  0.00  0.00    +0.000 A 
ENDBRANCH  25  27
ENDBRANCH  21  22
ENDBRANCH   3  21
TORSDOF 8
