REMARK  Name = 
REMARK  3 active torsions:
REMARK  status: ('A' for Active; 'I' for Inactive)
REMARK    1  A    between atoms: C_2  and  C_16
REMARK    2  A    between atoms: N_3  and  C_4
REMARK    3  A    between atoms: C_18  and  C_19
REMARK                            x       y       z     vdW  Elec       q    Type
REMARK                         _______ _______ _______ _____ _____    ______ ____
ROOT
ATOM      1  O   UNL     1       2.979  -0.382   1.003  0.00  0.00    +0.000 OA
ATOM      2  C   UNL     1       2.339   0.036   0.046  0.00  0.00    +0.000 C 
ATOM      3  N   UNL     1       0.972   0.229  -0.034  0.00  0.00    +0.000 N 
ATOM      4  H   UNL     1       0.563   0.374  -0.946  0.00  0.00    +0.000 HD
ENDROOT
BRANCH   3   5
ATOM      5  C   UNL     1       0.099   0.061   1.048  0.00  0.00    +0.000 A 
ATOM      6  C   UNL     1      -1.266  -0.036   0.782  0.00  0.00    +0.000 A 
ATOM      7  C   UNL     1      -2.147  -0.255   1.842  0.00  0.00    +0.000 A 
ATOM      8  C   UNL     1      -1.631  -0.331   3.132  0.00  0.00    +0.000 A 
ATOM      9  C   UNL     1      -2.469  -0.553   4.316  0.00  0.00    +0.000 A 
ATOM     10  O   UNL     1      -3.675  -0.745   4.216  0.00  0.00    +0.000 OA
ATOM     11  N   UNL     1      -1.820  -0.528   5.527  0.00  0.00    +0.000 N 
ATOM     12  C   UNL     1      -0.480  -0.337   5.714  0.00  0.00    +0.000 A 
ATOM     13  O   UNL     1       0.013  -0.300   6.837  0.00  0.00    +0.000 OA
ATOM     14  N   UNL     1       0.267  -0.189   4.590  0.00  0.00    +0.000 N 
ATOM     15  C   UNL     1      -0.271  -0.178   3.312  0.00  0.00    +0.000 A 
ATOM     16  N   UNL     1       0.590   0.008   2.299  0.00  0.00    +0.000 NA
ATOM     17  H   UNL     1      -2.378  -0.661   6.357  0.00  0.00    +0.000 HD
ATOM     18  H   UNL     1       1.267  -0.056   4.670  0.00  0.00    +0.000 HD
ENDBRANCH   3   5
BRANCH   2  19
ATOM     19  C   UNL     1       3.067   0.274  -1.225  0.00  0.00    +0.000 A 
ATOM     20  C   UNL     1       2.790   1.392  -2.029  0.00  0.00    +0.000 A 
ATOM     21  C   UNL     1       3.445   1.584  -3.259  0.00  0.00    +0.000 A 
ATOM     22  C   UNL     1       4.391   0.608  -3.636  0.00  0.00    +0.000 A 
ATOM     23  C   UNL     1       4.704  -0.481  -2.817  0.00  0.00    +0.000 A 
ATOM     24  C   UNL     1       4.046  -0.645  -1.605  0.00  0.00    +0.000 A 
BRANCH  21  25
ATOM     25  C   UNL     1       3.158   2.752  -4.132  0.00  0.00    +0.000 A 
ATOM     26  C   UNL     1       4.147   3.335  -4.945  0.00  0.00    +0.000 A 
ATOM     27  F   UNL     1       5.413   2.890  -4.907  0.00  0.00    +0.000 F 
ATOM     28  C   UNL     1       3.879   4.393  -5.818  0.00  0.00    +0.000 A 
ATOM     29  C   UNL     1       2.600   4.929  -5.888  0.00  0.00    +0.000 A 
ATOM     30  C   UNL     1       1.601   4.406  -5.075  0.00  0.00    +0.000 A 
ATOM     31  C   UNL     1       1.880   3.335  -4.219  0.00  0.00    +0.000 A 
ATOM     32  F   UNL     1       0.860   2.859  -3.486  0.00  0.00    +0.000 F 
ENDBRANCH  21  25
ENDBRANCH   2  19
TORSDOF 3
