REMARK  Name = 
REMARK  7 active torsions:
REMARK  status: ('A' for Active; 'I' for Inactive)
REMARK    1  A    between atoms: C_2  and  C_3
REMARK    2  A    between atoms: C_6  and  O_7
REMARK    3  A    between atoms: O_7  and  C_8
REMARK    4  A    between atoms: C_10  and  C_11
REMARK    5  A    between atoms: N_13  and  C_14
REMARK    6  A    between atoms: C_18  and  C_20
REMARK    7  A    between atoms: C_20  and  C_21
REMARK                            x       y       z     vdW  Elec       q    Type
REMARK                         _______ _______ _______ _____ _____    ______ ____
ROOT
ATOM      1  C   UNL     1       3.988  -2.554  -2.998  0.00  0.00    +0.000 C 
ATOM      2  O   UNL     1       3.538  -1.906  -3.939  0.00  0.00    +0.000 OA
ATOM      3  N   UNL     1       4.260  -3.914  -3.076  0.00  0.00    +0.000 N 
ATOM      4  H   UNL     1       4.660  -4.397  -2.284  0.00  0.00    +0.000 HD
ENDROOT
BRANCH   3   5
ATOM      5  C   UNL     1       4.053  -4.665  -4.311  0.00  0.00    +0.000 C 
ATOM      6  C   UNL     1       2.659  -5.299  -4.352  0.00  0.00    +0.000 C 
ATOM      7  C   UNL     1       2.853  -6.631  -3.642  0.00  0.00    +0.000 C 
ATOM      8  N   UNL     1       4.188  -7.043  -4.041  0.00  0.00    +0.000 N 
ATOM      9  C   UNL     1       4.646  -8.320  -4.294  0.00  0.00    +0.000 C 
ATOM     10  O   UNL     1       5.806  -8.514  -4.670  0.00  0.00    +0.000 OA
ATOM     11  C   UNL     1       4.979  -5.888  -4.456  0.00  0.00    +0.000 C 
BRANCH   9  12
ATOM     12  C   UNL     1       3.678  -9.489  -4.146  0.00  0.00    +0.000 C 
BRANCH  12  13
ATOM     13  C   UNL     1       2.922  -9.863  -5.410  0.00  0.00    +0.000 A 
ATOM     14  C   UNL     1       3.454  -9.677  -6.695  0.00  0.00    +0.000 A 
ATOM     15  C   UNL     1       2.729 -10.050  -7.832  0.00  0.00    +0.000 A 
ATOM     16  C   UNL     1       1.478 -10.648  -7.702  0.00  0.00    +0.000 A 
ATOM     17  C   UNL     1       0.954 -10.879  -6.434  0.00  0.00    +0.000 A 
ATOM     18  C   UNL     1       1.670 -10.492  -5.298  0.00  0.00    +0.000 A 
ENDBRANCH  12  13
ENDBRANCH   9  12
ENDBRANCH   3   5
BRANCH   1  21
ATOM     19  C   UNL     1       4.581  -1.928   0.708  0.00  0.00    +0.000 A 
ATOM     20  C   UNL     1       4.278  -2.576  -0.498  0.00  0.00    +0.000 A 
ATOM     21  C   UNL     1       4.312  -1.881  -1.708  0.00  0.00    +0.000 A 
ATOM     22  C   UNL     1       4.651  -0.521  -1.705  0.00  0.00    +0.000 A 
ATOM     23  C   UNL     1       4.986   0.120  -0.505  0.00  0.00    +0.000 A 
ATOM     24  C   UNL     1       4.962  -0.587   0.701  0.00  0.00    +0.000 A 
BRANCH  19  25
ATOM     25  O   UNL     1       4.539  -2.579   1.928  0.00  0.00    +0.000 OA
BRANCH  25  29
ATOM     26  C   UNL     1       1.456  -5.318   2.584  0.00  0.00    +0.000 A 
ATOM     27  C   UNL     1       2.707  -5.492   3.196  0.00  0.00    +0.000 A 
ATOM     28  C   UNL     1       3.728  -4.560   2.978  0.00  0.00    +0.000 A 
ATOM     29  C   UNL     1       3.495  -3.458   2.150  0.00  0.00    +0.000 A 
ATOM     30  C   UNL     1       2.228  -3.267   1.589  0.00  0.00    +0.000 A 
ATOM     31  C   UNL     1       1.224  -4.210   1.772  0.00  0.00    +0.000 A 
BRANCH  26  33
ATOM     32  N   UNL     1      -0.459  -7.024   2.957  0.00  0.00    +0.000 NA
ATOM     33  C   UNL     1       0.406  -6.262   2.796  0.00  0.00    +0.000 C 
ENDBRANCH  26  33
ENDBRANCH  25  29
ENDBRANCH  19  25
ENDBRANCH   1  21
TORSDOF 7
