REMARK  Name = 
REMARK  5 active torsions:
REMARK  status: ('A' for Active; 'I' for Inactive)
REMARK    1  A    between atoms: C_1  and  N_2
REMARK    2  A    between atoms: C_4  and  C_5
REMARK    3  A    between atoms: C_8  and  C_9
REMARK    4  A    between atoms: C_14  and  C_15
REMARK    5  A    between atoms: N_20  and  C_21
REMARK                            x       y       z     vdW  Elec       q    Type
REMARK                         _______ _______ _______ _____ _____    ______ ____
ROOT
ATOM      1  C   UNL     1      -0.327  -2.613   0.169  0.00  0.00    +0.000 C 
ATOM      2  O   UNL     1      -1.526  -2.860   0.127  0.00  0.00    +0.000 OA
ATOM      3  N   UNL     1       0.681  -3.548   0.346  0.00  0.00    +0.000 N 
ATOM      4  C   UNL     1       0.489  -4.907   0.490  0.00  0.00    +0.000 A 
ATOM      5  N   UNL     1      -0.652  -5.548   0.262  0.00  0.00    +0.000 NA
ATOM      6  N   UNL     1      -0.439  -6.826   0.640  0.00  0.00    +0.000 N 
ATOM      7  C   UNL     1       0.862  -7.013   1.050  0.00  0.00    +0.000 A 
ATOM      8  C   UNL     1       1.498  -5.803   0.910  0.00  0.00    +0.000 A 
ATOM      9  H   UNL     1       1.620  -3.231   0.515  0.00  0.00    +0.000 HD
ENDROOT
BRANCH   6  10
ATOM     10  C   UNL     1      -1.486  -7.788   0.589  0.00  0.00    +0.000 A 
ATOM     11  C   UNL     1      -2.730  -7.433   0.039  0.00  0.00    +0.000 A 
ATOM     12  C   UNL     1      -3.753  -8.380  -0.044  0.00  0.00    +0.000 A 
ATOM     13  C   UNL     1      -3.538  -9.666   0.436  0.00  0.00    +0.000 A 
ATOM     14  F   UNL     1      -4.516 -10.577   0.352  0.00  0.00    +0.000 F 
ATOM     15  C   UNL     1      -2.320 -10.025   1.002  0.00  0.00    +0.000 A 
ATOM     16  C   UNL     1      -1.288  -9.088   1.077  0.00  0.00    +0.000 A 
ENDBRANCH   6  10
BRANCH   1  22
ATOM     17  C   UNL     1      -2.060  -0.018  -0.001  0.00  0.00    +0.000 C 
ATOM     18  N   UNL     1      -0.617  -0.112   0.044  0.00  0.00    +0.000 N 
ATOM     19  N   UNL     1       0.094   1.035   0.021  0.00  0.00    +0.000 NA
ATOM     20  C   UNL     1       1.378   0.655  -0.015  0.00  0.00    +0.000 A 
ATOM     21  C   UNL     1       1.460  -0.761   0.003  0.00  0.00    +0.000 A 
ATOM     22  C   UNL     1       0.165  -1.247   0.087  0.00  0.00    +0.000 A 
BRANCH  20  23
ATOM     23  C   UNL     1       2.478   1.617  -0.074  0.00  0.00    +0.000 A 
ATOM     24  C   UNL     1       2.227   2.998  -0.057  0.00  0.00    +0.000 A 
ATOM     25  C   UNL     1       3.280   3.919  -0.105  0.00  0.00    +0.000 A 
ATOM     26  C   UNL     1       4.601   3.473  -0.171  0.00  0.00    +0.000 A 
ATOM     27  C   UNL     1       4.865   2.099  -0.192  0.00  0.00    +0.000 A 
ATOM     28  C   UNL     1       3.812   1.182  -0.142  0.00  0.00    +0.000 A 
BRANCH  26  29
ATOM     29  C   UNL     1       5.684   4.410  -0.221  0.00  0.00    +0.000 C 
ATOM     30  N   UNL     1       6.566   5.160  -0.260  0.00  0.00    +0.000 NA
ENDBRANCH  26  29
ENDBRANCH  20  23
ENDBRANCH   1  22
TORSDOF 4
