REMARK  Name = 
REMARK  3 active torsions:
REMARK  status: ('A' for Active; 'I' for Inactive)
REMARK    1  A    between atoms: C_2  and  C_4
REMARK    2  A    between atoms: C_8  and  C_10
REMARK    3  A    between atoms: C_14  and  C_15
REMARK                            x       y       z     vdW  Elec       q    Type
REMARK                         _______ _______ _______ _____ _____    ______ ____
ROOT
ATOM      1  C   UNL     1       3.241  -0.452   1.252  0.00  0.00    +0.000 A 
ATOM      2  C   UNL     1       4.303   0.208   1.893  0.00  0.00    +0.000 A 
ATOM      3  C   UNL     1       4.930  -0.424   2.947  0.00  0.00    +0.000 A 
ATOM      4  N   UNL     1       6.002   0.211   3.585  0.00  0.00    +0.000 N 
ATOM      5  C   UNL     1       6.662  -0.317   4.682  0.00  0.00    +0.000 C 
ATOM      6  O   UNL     1       6.439  -1.401   5.210  0.00  0.00    +0.000 OA
ATOM      7  N   UNL     1       4.531  -1.624   3.382  0.00  0.00    +0.000 NA
ATOM      8  C   UNL     1       3.524  -2.267   2.786  0.00  0.00    +0.000 A 
ATOM      9  C   UNL     1       3.182  -3.510   3.298  0.00  0.00    +0.000 A 
ATOM     10  C   UNL     1       2.164  -4.280   2.737  0.00  0.00    +0.000 A 
ATOM     11  C   UNL     1       1.478  -3.797   1.635  0.00  0.00    +0.000 A 
ATOM     12  C   UNL     1       1.803  -2.545   1.112  0.00  0.00    +0.000 A 
ATOM     13  C   UNL     1       2.828  -1.742   1.685  0.00  0.00    +0.000 A 
ATOM     14  H   UNL     1       6.318   1.113   3.253  0.00  0.00    +0.000 HD
ENDROOT
BRANCH   1  16
ATOM     15  N   UNL     1       3.264   1.113  -0.626  0.00  0.00    +0.000 N 
ATOM     16  C   UNL     1       2.528   0.262   0.153  0.00  0.00    +0.000 C 
ATOM     17  O   UNL     1       1.333   0.120  -0.064  0.00  0.00    +0.000 OA
ATOM     18  H   UNL     1       2.777   1.533  -1.409  0.00  0.00    +0.000 HD
ATOM     19  H   UNL     1       4.273   1.142  -0.633  0.00  0.00    +0.000 HD
ENDBRANCH   1  16
BRANCH   5  20
ATOM     20  C   UNL     1       7.689   0.574   5.232  0.00  0.00    +0.000 A 
ATOM     21  N   UNL     1       8.289   1.504   4.465  0.00  0.00    +0.000 NA
ATOM     22  O   UNL     1       9.264   2.075   5.263  0.00  0.00    +0.000 OA
ATOM     23  C   UNL     1       9.210   1.535   6.505  0.00  0.00    +0.000 A 
ATOM     24  C   UNL     1       8.206   0.599   6.567  0.00  0.00    +0.000 A 
BRANCH  24  25
ATOM     25  C   UNL     1       7.829  -0.145   7.761  0.00  0.00    +0.000 A 
ATOM     26  C   UNL     1       6.480  -0.456   8.001  0.00  0.00    +0.000 A 
ATOM     27  C   UNL     1       6.110  -1.251   9.091  0.00  0.00    +0.000 A 
ATOM     28  C   UNL     1       7.085  -1.710   9.965  0.00  0.00    +0.000 A 
ATOM     29  F   UNL     1       6.731  -2.488  10.995  0.00  0.00    +0.000 F 
ATOM     30  C   UNL     1       8.418  -1.377   9.783  0.00  0.00    +0.000 A 
ATOM     31  C   UNL     1       8.782  -0.599   8.686  0.00  0.00    +0.000 A 
ATOM     32  F   UNL     1      10.082  -0.305   8.527  0.00  0.00    +0.000 F 
ENDBRANCH  24  25
ENDBRANCH   5  20
TORSDOF 3
