REMARK  Name = 
REMARK  6 active torsions:
REMARK  status: ('A' for Active; 'I' for Inactive)
REMARK    1  A    between atoms: C_1  and  O_2
REMARK    2  A    between atoms: O_2  and  C_3
REMARK    3  A    between atoms: C_8  and  C_9
REMARK    4  A    between atoms: C_12  and  C_13
REMARK    5  A    between atoms: N_15  and  C_16
REMARK    6  A    between atoms: C_16  and  C_17
REMARK                            x       y       z     vdW  Elec       q    Type
REMARK                         _______ _______ _______ _____ _____    ______ ____
ROOT
ATOM      1  C   UNL     1       4.508  -1.758  -1.253  0.00  0.00    +0.000 A 
ATOM      2  C   UNL     1       3.626  -2.759  -1.345  0.00  0.00    +0.000 A 
ATOM      3  C   UNL     1       4.030  -4.109  -1.049  0.00  0.00    +0.000 A 
ATOM      4  C   UNL     1       5.288  -4.413  -0.670  0.00  0.00    +0.000 A 
ATOM      5  C   UNL     1       6.263  -3.294  -0.530  0.00  0.00    +0.000 A 
ATOM      6  O   UNL     1       7.420  -3.489  -0.162  0.00  0.00    +0.000 OA
ATOM      7  N   UNL     1       5.798  -2.029  -0.851  0.00  0.00    +0.000 N 
ATOM      8  H   UNL     1       6.461  -1.270  -0.764  0.00  0.00    +0.000 HD
ENDROOT
BRANCH   1  14
ATOM      9  C   UNL     1       3.442   0.521  -0.851  0.00  0.00    +0.000 A 
ATOM     10  C   UNL     1       3.011   1.743  -1.391  0.00  0.00    +0.000 A 
ATOM     11  C   UNL     1       3.264   2.067  -2.726  0.00  0.00    +0.000 A 
ATOM     12  C   UNL     1       3.954   1.177  -3.540  0.00  0.00    +0.000 A 
ATOM     13  C   UNL     1       4.386  -0.044  -3.020  0.00  0.00    +0.000 A 
ATOM     14  C   UNL     1       4.131  -0.395  -1.677  0.00  0.00    +0.000 A 
BRANCH   9  16
ATOM     15  C   UNL     1       2.618   1.099   1.308  0.00  0.00    +0.000 C 
ATOM     16  O   UNL     1       3.219   0.137   0.446  0.00  0.00    +0.000 OA
ENDBRANCH   9  16
ENDBRANCH   1  14
BRANCH   4  17
ATOM     17  C   UNL     1       5.553  -5.868  -0.452  0.00  0.00    +0.000 C 
ATOM     18  O   UNL     1       4.699  -6.706  -0.692  0.00  0.00    +0.000 OA
ATOM     19  N   UNL     1       6.799  -6.233  -0.004  0.00  0.00    +0.000 N 
ATOM     20  H   UNL     1       7.518  -5.546   0.159  0.00  0.00    +0.000 HD
BRANCH  19  21
ATOM     21  C   UNL     1       7.073  -7.651   0.165  0.00  0.00    +0.000 C 
BRANCH  21  22
ATOM     22  C   UNL     1       8.376  -7.867   0.825  0.00  0.00    +0.000 A 
ATOM     23  C   UNL     1       8.542  -8.252   2.147  0.00  0.00    +0.000 A 
ATOM     24  N   UNL     1       9.870  -8.532   2.296  0.00  0.00    +0.000 N 
ATOM     25  C   UNL     1      10.572  -7.817   1.359  0.00  0.00    +0.000 A 
ATOM     26  C   UNL     1      11.884  -7.340   1.344  0.00  0.00    +0.000 A 
ATOM     27  C   UNL     1      12.325  -6.773   0.148  0.00  0.00    +0.000 A 
ATOM     28  C   UNL     1      11.530  -6.828  -0.994  0.00  0.00    +0.000 A 
ATOM     29  F   UNL     1      12.024  -6.366  -2.151  0.00  0.00    +0.000 F 
ATOM     30  C   UNL     1      10.215  -7.294  -0.959  0.00  0.00    +0.000 A 
ATOM     31  C   UNL     1       9.686  -7.671   0.290  0.00  0.00    +0.000 A 
ATOM     32  H   UNL     1      10.267  -9.197   2.948  0.00  0.00    +0.000 HD
ENDBRANCH  21  22
ENDBRANCH  19  21
ENDBRANCH   4  17
TORSDOF 5
