REMARK  Name = 
REMARK  5 active torsions:
REMARK  status: ('A' for Active; 'I' for Inactive)
REMARK    1  A    between atoms: C_1  and  O_2
REMARK    2  A    between atoms: O_2  and  C_3
REMARK    3  A    between atoms: C_3  and  C_5
REMARK    4  A    between atoms: C_10  and  C_11
REMARK    5  A    between atoms: N_16  and  C_17
REMARK                            x       y       z     vdW  Elec       q    Type
REMARK                         _______ _______ _______ _____ _____    ______ ____
ROOT
ATOM      1  C   UNL     1      10.992  -1.775   0.933  0.00  0.00    +0.000 C 
ATOM      2  O   UNL     1      11.543  -2.871   1.012  0.00  0.00    +0.000 OA
ATOM      3  N   UNL     1      11.611  -0.547   0.807  0.00  0.00    +0.000 N 
ATOM      4  C   UNL     1      12.986  -0.391   0.765  0.00  0.00    +0.000 A 
ATOM      5  N   UNL     1      13.857  -1.385   0.596  0.00  0.00    +0.000 NA
ATOM      6  N   UNL     1      15.084  -0.838   0.718  0.00  0.00    +0.000 N 
ATOM      7  C   UNL     1      14.997   0.524   0.904  0.00  0.00    +0.000 A 
ATOM      8  C   UNL     1      13.658   0.842   0.899  0.00  0.00    +0.000 A 
ATOM      9  H   UNL     1      11.027   0.277   0.849  0.00  0.00    +0.000 HD
ENDROOT
BRANCH   1  15
ATOM     10  C   UNL     1       4.642  -0.577   0.942  0.00  0.00    +0.000 A 
ATOM     11  C   UNL     1       5.349   0.595   0.666  0.00  0.00    +0.000 A 
ATOM     12  C   UNL     1       6.756   0.584   0.639  0.00  0.00    +0.000 A 
ATOM     13  C   UNL     1       7.497  -0.572   0.874  0.00  0.00    +0.000 A 
ATOM     14  N   UNL     1       8.851  -0.552   0.821  0.00  0.00    +0.000 NA
ATOM     15  C   UNL     1       9.496  -1.738   1.030  0.00  0.00    +0.000 A 
ATOM     16  C   UNL     1       8.845  -2.930   1.324  0.00  0.00    +0.000 A 
ATOM     17  C   UNL     1       7.463  -2.933   1.391  0.00  0.00    +0.000 A 
ATOM     18  C   UNL     1       6.763  -1.751   1.155  0.00  0.00    +0.000 A 
ATOM     19  C   UNL     1       5.359  -1.748   1.192  0.00  0.00    +0.000 A 
BRANCH  10  20
ATOM     20  C   UNL     1       3.153  -0.652   0.980  0.00  0.00    +0.000 C 
ATOM     21  O   UNL     1       2.542  -1.670   1.266  0.00  0.00    +0.000 OA
BRANCH  20  23
ATOM     22  C   UNL     1       1.170   0.531   0.638  0.00  0.00    +0.000 C 
ATOM     23  O   UNL     1       2.600   0.540   0.646  0.00  0.00    +0.000 OA
ENDBRANCH  20  23
ENDBRANCH  10  20
ENDBRANCH   1  15
BRANCH   6  24
ATOM     24  C   UNL     1      16.257  -1.649   0.659  0.00  0.00    +0.000 A 
ATOM     25  C   UNL     1      16.144  -3.012   0.329  0.00  0.00    +0.000 A 
ATOM     26  C   UNL     1      17.284  -3.821   0.266  0.00  0.00    +0.000 A 
ATOM     27  C   UNL     1      18.528  -3.273   0.548  0.00  0.00    +0.000 A 
ATOM     28  F   UNL     1      19.620  -4.048   0.498  0.00  0.00    +0.000 F 
ATOM     29  C   UNL     1      18.658  -1.930   0.884  0.00  0.00    +0.000 A 
ATOM     30  C   UNL     1      17.524  -1.112   0.935  0.00  0.00    +0.000 A 
ENDBRANCH   6  24
TORSDOF 4
