REMARK  Name = 
REMARK  7 active torsions:
REMARK  status: ('A' for Active; 'I' for Inactive)
REMARK    1  A    between atoms: C_1  and  O_2
REMARK    2  A    between atoms: O_2  and  C_3
REMARK    3  A    between atoms: C_3  and  C_5
REMARK    4  A    between atoms: C_9  and  O_10
REMARK    5  A    between atoms: C_11  and  N_12
REMARK    6  A    between atoms: C_13  and  C_15
REMARK    7  A    between atoms: C_18  and  N_19
REMARK                            x       y       z     vdW  Elec       q    Type
REMARK                         _______ _______ _______ _____ _____    ______ ____
ROOT
ATOM      1  N   UNL     1       4.675  -1.206  -2.190  0.00  0.00    +0.000 N 
ATOM      2  C   UNL     1       3.401  -1.123  -1.646  0.00  0.00    +0.000 C 
ATOM      3  O   UNL     1       2.899  -0.140  -1.118  0.00  0.00    +0.000 OA
ATOM      4  H   UNL     1       4.784  -1.838  -2.980  0.00  0.00    +0.000 HD
ENDROOT
BRANCH   2   5
ATOM      5  C   UNL     1       2.551  -2.291  -1.912  0.00  0.00    +0.000 A 
ATOM      6  C   UNL     1       3.050  -3.565  -1.666  0.00  0.00    +0.000 A 
ATOM      7  C   UNL     1       2.363  -4.638  -2.192  0.00  0.00    +0.000 A 
ATOM      8  C   UNL     1       1.254  -4.418  -3.015  0.00  0.00    +0.000 A 
ATOM      9  C   UNL     1       0.621  -3.171  -3.033  0.00  0.00    +0.000 A 
ATOM     10  C   UNL     1       1.282  -2.092  -2.466  0.00  0.00    +0.000 A 
BRANCH   8  11
ATOM     11  N   UNL     1       0.937  -5.372  -4.017  0.00  0.00    +0.000 N 
ATOM     12  C   UNL     1      -0.246  -5.426  -4.725  0.00  0.00    +0.000 A 
ATOM     13  C   UNL     1       0.053  -6.037  -5.920  0.00  0.00    +0.000 A 
ATOM     14  C   UNL     1       1.064  -6.959  -5.573  0.00  0.00    +0.000 A 
ATOM     15  C   UNL     1       1.493  -8.212  -6.040  0.00  0.00    +0.000 A 
ATOM     16  C   UNL     1       2.673  -8.752  -5.520  0.00  0.00    +0.000 A 
ATOM     17  C   UNL     1       3.517  -7.970  -4.741  0.00  0.00    +0.000 A 
ATOM     18  C   UNL     1       3.123  -6.704  -4.318  0.00  0.00    +0.000 A 
ATOM     19  C   UNL     1       1.791  -6.332  -4.561  0.00  0.00    +0.000 A 
ENDBRANCH   8  11
ENDBRANCH   2   5
BRANCH   1  25
ATOM     20  C   UNL     1       6.274   0.348  -3.236  0.00  0.00    +0.000 A 
ATOM     21  C   UNL     1       7.050   1.510  -3.126  0.00  0.00    +0.000 A 
ATOM     22  C   UNL     1       7.130   2.146  -1.901  0.00  0.00    +0.000 A 
ATOM     23  N   UNL     1       6.523   1.695  -0.788  0.00  0.00    +0.000 NA
ATOM     24  C   UNL     1       5.770   0.590  -0.930  0.00  0.00    +0.000 A 
ATOM     25  C   UNL     1       5.571  -0.111  -2.118  0.00  0.00    +0.000 A 
BRANCH  20  26
ATOM     26  C   UNL     1       6.182  -0.235  -4.599  0.00  0.00    +0.000 C 
ATOM     27  O   UNL     1       6.399   0.409  -5.603  0.00  0.00    +0.000 OA
BRANCH  26  29
ATOM     28  C   UNL     1       5.879  -2.164  -5.864  0.00  0.00    +0.000 C 
ATOM     29  O   UNL     1       5.905  -1.568  -4.561  0.00  0.00    +0.000 OA
ENDBRANCH  26  29
ENDBRANCH  20  26
BRANCH  24  30
ATOM     30  O   UNL     1       5.286   0.140   0.258  0.00  0.00    +0.000 OA
ATOM     31  H   UNL     1       5.491   0.902   0.826  0.00  0.00    +0.000 HD
ENDBRANCH  24  30
ENDBRANCH   1  25
TORSDOF 6
