REMARK  Name = 
REMARK  7 active torsions:
REMARK  status: ('A' for Active; 'I' for Inactive)
REMARK    1  A    between atoms: C_1  and  O_2
REMARK    2  A    between atoms: O_2  and  C_3
REMARK    3  A    between atoms: C_3  and  C_5
REMARK    4  A    between atoms: C_10  and  C_11
REMARK    5  A    between atoms: C_11  and  N_12
REMARK    6  A    between atoms: C_13  and  C_15
REMARK    7  A    between atoms: C_18  and  C_19
REMARK                            x       y       z     vdW  Elec       q    Type
REMARK                         _______ _______ _______ _____ _____    ______ ____
ROOT
ATOM      1  N   UNL     1       9.706   2.059   0.867  0.00  0.00    +0.000 N 
ATOM      2  C   UNL     1      10.618   1.025   0.893  0.00  0.00    +0.000 C 
ATOM      3  O   UNL     1      10.961   0.450   1.920  0.00  0.00    +0.000 OA
ATOM      4  H   UNL     1       9.369   2.443  -0.005  0.00  0.00    +0.000 HD
ENDROOT
BRANCH   2   5
ATOM      5  C   UNL     1      11.158   0.560  -0.393  0.00  0.00    +0.000 A 
ATOM      6  C   UNL     1      11.341   1.356  -1.497  0.00  0.00    +0.000 A 
ATOM      7  N   UNL     1      11.857   0.906  -2.663  0.00  0.00    +0.000 NA
ATOM      8  C   UNL     1      12.222  -0.397  -2.715  0.00  0.00    +0.000 A 
ATOM      9  N   UNL     1      12.099  -1.252  -1.673  0.00  0.00    +0.000 NA
ATOM     10  C   UNL     1      11.566  -0.749  -0.535  0.00  0.00    +0.000 A 
BRANCH   8  11
ATOM     11  C   UNL     1      12.851  -0.909  -3.958  0.00  0.00    +0.000 A 
ATOM     12  C   UNL     1      13.697  -2.023  -3.940  0.00  0.00    +0.000 A 
ATOM     13  C   UNL     1      14.308  -2.444  -5.120  0.00  0.00    +0.000 A 
ATOM     14  C   UNL     1      14.051  -1.758  -6.299  0.00  0.00    +0.000 A 
ATOM     15  C   UNL     1      13.188  -0.678  -6.249  0.00  0.00    +0.000 A 
ATOM     16  N   UNL     1      12.593  -0.240  -5.118  0.00  0.00    +0.000 NA
ENDBRANCH   8  11
ENDBRANCH   2   5
BRANCH   1  17
ATOM     17  C   UNL     1       9.073   2.537   2.083  0.00  0.00    +0.000 C 
BRANCH  17  23
ATOM     18  C   UNL     1       4.601   0.248   1.552  0.00  0.00    +0.000 A 
ATOM     19  C   UNL     1       5.239  -1.004   1.528  0.00  0.00    +0.000 A 
ATOM     20  C   UNL     1       6.607  -1.093   1.716  0.00  0.00    +0.000 A 
ATOM     21  C   UNL     1       7.354   0.069   1.894  0.00  0.00    +0.000 A 
ATOM     22  C   UNL     1       6.774   1.357   1.864  0.00  0.00    +0.000 A 
ATOM     23  C   UNL     1       7.559   2.548   1.979  0.00  0.00    +0.000 A 
ATOM     24  C   UNL     1       6.923   3.800   2.010  0.00  0.00    +0.000 A 
ATOM     25  C   UNL     1       5.542   3.893   1.927  0.00  0.00    +0.000 A 
ATOM     26  C   UNL     1       4.777   2.738   1.782  0.00  0.00    +0.000 A 
ATOM     27  C   UNL     1       5.357   1.448   1.726  0.00  0.00    +0.000 A 
BRANCH  18  28
ATOM     28  C   UNL     1       3.118   0.262   1.357  0.00  0.00    +0.000 C 
ATOM     29  O   UNL     1       2.486   1.141   0.797  0.00  0.00    +0.000 OA
BRANCH  28  31
ATOM     30  C   UNL     1       1.158  -0.951   1.789  0.00  0.00    +0.000 C 
ATOM     31  O   UNL     1       2.579  -0.856   1.915  0.00  0.00    +0.000 OA
ENDBRANCH  28  31
ENDBRANCH  18  28
ENDBRANCH  17  23
ENDBRANCH   1  17
TORSDOF 6
