REMARK  Name = 
REMARK  8 active torsions:
REMARK  status: ('A' for Active; 'I' for Inactive)
REMARK    1  A    between atoms: C_2  and  C_20
REMARK    2  A    between atoms: N_3  and  C_4
REMARK    3  A    between atoms: C_4  and  C_5
REMARK    4  A    between atoms: C_4  and  C_12
REMARK    5  A    between atoms: C_5  and  C_6
REMARK    6  A    between atoms: C_12  and  O_13
REMARK    7  A    between atoms: C_12  and  C_14
REMARK    8  A    between atoms: C_27  and  O_28
REMARK                            x       y       z     vdW  Elec       q    Type
REMARK                         _______ _______ _______ _____ _____    ______ ____
ROOT
ATOM      1  C   UNL     1       2.457   2.187  -0.792  0.00  0.00    +0.000 C 
ENDROOT
BRANCH   1   4
ATOM      2  O   UNL     1       1.353  -0.284   0.015  0.00  0.00    +0.000 OA
ATOM      3  C   UNL     1       2.564  -0.115   0.127  0.00  0.00    +0.000 C 
ATOM      4  N   UNL     1       3.201   1.062  -0.210  0.00  0.00    +0.000 N 
ATOM      5  H   UNL     1       4.218   1.044  -0.192  0.00  0.00    +0.000 HD
BRANCH   3   6
ATOM      6  C   UNL     1       3.435  -1.224   0.621  0.00  0.00    +0.000 A 
ATOM      7  C   UNL     1       2.823  -2.388   1.062  0.00  0.00    +0.000 A 
ATOM      8  C   UNL     1       3.627  -3.470   1.380  0.00  0.00    +0.000 A 
ATOM      9  C   UNL     1       5.014  -3.364   1.245  0.00  0.00    +0.000 A 
ATOM     10  C   UNL     1       5.834  -4.474   1.483  0.00  0.00    +0.000 A 
ATOM     11  C   UNL     1       7.202  -4.330   1.348  0.00  0.00    +0.000 A 
ATOM     12  N   UNL     1       7.796  -3.160   1.054  0.00  0.00    +0.000 NA
ATOM     13  C   UNL     1       6.965  -2.115   0.828  0.00  0.00    +0.000 A 
ATOM     14  C   UNL     1       5.566  -2.122   0.864  0.00  0.00    +0.000 A 
ATOM     15  N   UNL     1       4.780  -1.052   0.548  0.00  0.00    +0.000 NA
BRANCH  13  16
ATOM     16  O   UNL     1       7.656  -0.969   0.570  0.00  0.00    +0.000 OA
ATOM     17  H   UNL     1       8.566  -1.295   0.686  0.00  0.00    +0.000 HD
ENDBRANCH  13  16
ENDBRANCH   3   6
ENDBRANCH   1   4
BRANCH   1  18
ATOM     18  C   UNL     1       1.401   2.775   0.182  0.00  0.00    +0.000 C 
BRANCH  18  19
ATOM     19  C   UNL     1       1.867   3.308   1.515  0.00  0.00    +0.000 A 
ATOM     20  C   UNL     1       2.122   4.676   1.676  0.00  0.00    +0.000 A 
ATOM     21  C   UNL     1       2.422   5.198   2.934  0.00  0.00    +0.000 A 
ATOM     22  C   UNL     1       2.484   4.357   4.043  0.00  0.00    +0.000 A 
ATOM     23  C   UNL     1       2.273   2.989   3.889  0.00  0.00    +0.000 A 
ATOM     24  C   UNL     1       1.967   2.466   2.631  0.00  0.00    +0.000 A 
ENDBRANCH  18  19
ENDBRANCH   1  18
BRANCH   1  25
ATOM     25  C   UNL     1       3.362   3.292  -1.421  0.00  0.00    +0.000 C 
BRANCH  25  26
ATOM     26  C   UNL     1       4.168   2.931  -2.659  0.00  0.00    +0.000 A 
ATOM     27  C   UNL     1       4.125   1.675  -3.282  0.00  0.00    +0.000 A 
ATOM     28  C   UNL     1       4.867   1.423  -4.440  0.00  0.00    +0.000 A 
ATOM     29  C   UNL     1       5.660   2.423  -4.996  0.00  0.00    +0.000 A 
ATOM     30  C   UNL     1       5.715   3.677  -4.398  0.00  0.00    +0.000 A 
ATOM     31  C   UNL     1       4.975   3.928  -3.240  0.00  0.00    +0.000 A 
ENDBRANCH  25  26
BRANCH  25  32
ATOM     32  O   UNL     1       4.265   3.842  -0.462  0.00  0.00    +0.000 OA
ATOM     33  H   UNL     1       4.744   3.100  -0.058  0.00  0.00    +0.000 HD
ENDBRANCH  25  32
ENDBRANCH   1  25
TORSDOF 8
