REMARK  Name = 
REMARK  5 active torsions:
REMARK  status: ('A' for Active; 'I' for Inactive)
REMARK    1  A    between atoms: N_1  and  C_2
REMARK    2  A    between atoms: C_4  and  C_5
REMARK    3  A    between atoms: N_7  and  C_8
REMARK    4  A    between atoms: C_10  and  N_11
REMARK    5  A    between atoms: C_12  and  C_14
REMARK                            x       y       z     vdW  Elec       q    Type
REMARK                         _______ _______ _______ _____ _____    ______ ____
ROOT
ATOM      1  C   UNL     1       5.535   4.992  -0.704  0.00  0.00    +0.000 A 
ATOM      2  C   UNL     1       6.558   5.020  -1.658  0.00  0.00    +0.000 A 
ATOM      3  C   UNL     1       7.365   6.139  -1.910  0.00  0.00    +0.000 A 
ATOM      4  C   UNL     1       7.114   7.285  -1.157  0.00  0.00    +0.000 A 
ATOM      5  C   UNL     1       6.042   7.307  -0.244  0.00  0.00    +0.000 A 
ATOM      6  C   UNL     1       5.243   6.171  -0.028  0.00  0.00    +0.000 A 
ENDROOT
BRANCH   1   9
ATOM      7  C   UNL     1       5.283   2.517  -0.707  0.00  0.00    +0.000 C 
ATOM      8  O   UNL     1       6.349   2.230  -1.248  0.00  0.00    +0.000 OA
ATOM      9  N   UNL     1       4.829   3.799  -0.406  0.00  0.00    +0.000 N 
ATOM     10  H   UNL     1       4.006   3.845   0.187  0.00  0.00    +0.000 HD
BRANCH   7  13
ATOM     11  C   UNL     1       4.140  -0.996  -0.041  0.00  0.00    +0.000 A 
ATOM     12  C   UNL     1       4.866   0.085  -0.530  0.00  0.00    +0.000 A 
ATOM     13  C   UNL     1       4.422   1.384  -0.268  0.00  0.00    +0.000 A 
ATOM     14  N   UNL     1       3.273   1.680   0.398  0.00  0.00    +0.000 NA
ATOM     15  C   UNL     1       2.548   0.604   0.795  0.00  0.00    +0.000 A 
ATOM     16  C   UNL     1       2.933  -0.716   0.597  0.00  0.00    +0.000 A 
ATOM     17  F   UNL     1       2.151  -1.716   1.032  0.00  0.00    +0.000 F 
BRANCH  11  18
ATOM     18  N   UNL     1       4.516  -2.305  -0.375  0.00  0.00    +0.000 N 
ATOM     19  H   UNL     1       5.514  -2.437  -0.516  0.00  0.00    +0.000 HD
ATOM     20  H   UNL     1       4.110  -3.010   0.236  0.00  0.00    +0.000 HD
ENDBRANCH  11  18
ENDBRANCH   7  13
ENDBRANCH   1   9
BRANCH   3  21
ATOM     21  N   UNL     1       8.423   6.108  -2.877  0.00  0.00    +0.000 N 
ATOM     22  C   UNL     1       8.493   5.146  -3.875  0.00  0.00    +0.000 C 
ATOM     23  O   UNL     1       7.594   4.337  -4.101  0.00  0.00    +0.000 OA
ATOM     24  H   UNL     1       9.094   6.865  -2.885  0.00  0.00    +0.000 HD
BRANCH  22  25
ATOM     25  C   UNL     1       9.639   5.060  -4.753  0.00  0.00    +0.000 A 
ATOM     26  C   UNL     1      10.764   5.798  -5.100  0.00  0.00    +0.000 A 
ATOM     27  C   UNL     1      11.365   5.160  -6.249  0.00  0.00    +0.000 A 
ATOM     28  C   UNL     1      12.442   5.446  -7.120  0.00  0.00    +0.000 A 
ATOM     29  C   UNL     1      12.676   4.607  -8.228  0.00  0.00    +0.000 A 
ATOM     30  C   UNL     1      11.881   3.494  -8.470  0.00  0.00    +0.000 A 
ATOM     31  C   UNL     1      10.840   3.163  -7.603  0.00  0.00    +0.000 A 
ATOM     32  C   UNL     1      10.624   4.014  -6.517  0.00  0.00    +0.000 A 
ATOM     33  N   UNL     1       9.683   3.928  -5.540  0.00  0.00    +0.000 N 
ATOM     34  H   UNL     1       8.983   3.200  -5.462  0.00  0.00    +0.000 HD
ENDBRANCH  22  25
ENDBRANCH   3  21
TORSDOF 5
