REMARK  Name = 
REMARK  5 active torsions:
REMARK  status: ('A' for Active; 'I' for Inactive)
REMARK    1  A    between atoms: C_2  and  C_17
REMARK    2  A    between atoms: N_3  and  C_4
REMARK    3  A    between atoms: C_4  and  C_5
REMARK    4  A    between atoms: C_8  and  C_9
REMARK    5  A    between atoms: C_21  and  C_22
REMARK                            x       y       z     vdW  Elec       q    Type
REMARK                         _______ _______ _______ _____ _____    ______ ____
ROOT
ATOM      1  O   UNL     1       3.049  -2.416   1.289  0.00  0.00    +0.000 OA
ATOM      2  C   UNL     1       3.315  -1.372   0.696  0.00  0.00    +0.000 C 
ATOM      3  N   UNL     1       2.974  -0.139   1.188  0.00  0.00    +0.000 N 
ATOM      4  H   UNL     1       3.174   0.710   0.678  0.00  0.00    +0.000 HD
ENDROOT
BRANCH   2   5
ATOM      5  C   UNL     1       4.008  -1.401  -0.635  0.00  0.00    +0.000 A 
ATOM      6  C   UNL     1       4.730  -0.368  -1.117  0.00  0.00    +0.000 A 
ATOM      7  N   UNL     1       5.378  -0.502  -2.344  0.00  0.00    +0.000 N 
ATOM      8  C   UNL     1       6.153   0.405  -3.021  0.00  0.00    +0.000 A 
ATOM      9  C   UNL     1       6.567  -0.226  -4.184  0.00  0.00    +0.000 A 
ATOM     10  N   UNL     1       6.044  -1.513  -4.223  0.00  0.00    +0.000 NA
ATOM     11  C   UNL     1       5.344  -1.655  -3.118  0.00  0.00    +0.000 A 
ATOM     12  C   UNL     1       4.602  -2.753  -2.610  0.00  0.00    +0.000 A 
ATOM     13  C   UNL     1       3.966  -2.636  -1.428  0.00  0.00    +0.000 A 
BRANCH   9  14
ATOM     14  C   UNL     1       7.441   0.313  -5.280  0.00  0.00    +0.000 C 
ATOM     15  F   UNL     1       7.832   1.593  -5.027  0.00  0.00    +0.000 F 
ATOM     16  F   UNL     1       8.579  -0.412  -5.437  0.00  0.00    +0.000 F 
ATOM     17  F   UNL     1       6.809   0.334  -6.481  0.00  0.00    +0.000 F 
ENDBRANCH   9  14
ENDBRANCH   2   5
BRANCH   3  18
ATOM     18  C   UNL     1       2.330  -0.001   2.479  0.00  0.00    +0.000 C 
BRANCH  18  19
ATOM     19  C   UNL     1       3.312   0.047   3.621  0.00  0.00    +0.000 A 
ATOM     20  C   UNL     1       3.722  -1.115   4.268  0.00  0.00    +0.000 A 
ATOM     21  N   UNL     1       4.602  -1.118   5.303  0.00  0.00    +0.000 NA
ATOM     22  C   UNL     1       5.085   0.091   5.692  0.00  0.00    +0.000 A 
ATOM     23  C   UNL     1       4.679   1.246   5.022  0.00  0.00    +0.000 A 
ATOM     24  N   UNL     1       3.800   1.259   3.986  0.00  0.00    +0.000 NA
BRANCH  22  25
ATOM     25  C   UNL     1       6.077   0.104   6.786  0.00  0.00    +0.000 A 
ATOM     26  C   UNL     1       6.947  -0.984   6.987  0.00  0.00    +0.000 A 
ATOM     27  C   UNL     1       7.954  -0.944   7.957  0.00  0.00    +0.000 A 
ATOM     28  C   UNL     1       8.105   0.183   8.760  0.00  0.00    +0.000 A 
ATOM     29  C   UNL     1       7.232   1.256   8.613  0.00  0.00    +0.000 A 
ATOM     30  C   UNL     1       6.225   1.212   7.644  0.00  0.00    +0.000 A 
ENDBRANCH  22  25
ENDBRANCH  18  19
ENDBRANCH   3  18
TORSDOF 5
