REMARK  Name = 
REMARK  3 active torsions:
REMARK  status: ('A' for Active; 'I' for Inactive)
REMARK    1  A    between atoms: N_3  and  C_4
REMARK    2  A    between atoms: C_7  and  C_8
REMARK    3  A    between atoms: N_17  and  C_18
REMARK                            x       y       z     vdW  Elec       q    Type
REMARK                         _______ _______ _______ _____ _____    ______ ____
ROOT
ATOM      1  O   UNL     1       1.042   0.131  -0.375  0.00  0.00    +0.000 OA
ATOM      2  C   UNL     1       2.190   0.124   0.064  0.00  0.00    +0.000 C 
ATOM      3  N   UNL     1       2.725  -0.802   0.915  0.00  0.00    +0.000 N 
ATOM      4  N   UNL     1       3.009   1.169  -0.281  0.00  0.00    +0.000 N 
ATOM      5  H   UNL     1       3.659  -0.573   1.242  0.00  0.00    +0.000 HD
ATOM      6  H   UNL     1       2.534   1.864  -0.837  0.00  0.00    +0.000 HD
ENDROOT
BRANCH   4   7
ATOM      7  C   UNL     1       4.366   1.338  -0.003  0.00  0.00    +0.000 A 
ATOM      8  C   UNL     1       4.983   2.516  -0.409  0.00  0.00    +0.000 A 
ATOM      9  C   UNL     1       6.347   2.681  -0.157  0.00  0.00    +0.000 A 
ATOM     10  C   UNL     1       7.044   1.647   0.461  0.00  0.00    +0.000 A 
ATOM     11  C   UNL     1       8.486   1.700   0.721  0.00  0.00    +0.000 A 
ATOM     12  O   UNL     1       9.144   2.699   0.451  0.00  0.00    +0.000 OA
ATOM     13  N   UNL     1       9.044   0.570   1.268  0.00  0.00    +0.000 N 
ATOM     14  C   UNL     1       8.377  -0.581   1.579  0.00  0.00    +0.000 A 
ATOM     15  O   UNL     1       8.954  -1.569   2.015  0.00  0.00    +0.000 OA
ATOM     16  N   UNL     1       7.034  -0.571   1.374  0.00  0.00    +0.000 N 
ATOM     17  C   UNL     1       6.357   0.504   0.820  0.00  0.00    +0.000 A 
ATOM     18  N   UNL     1       5.035   0.345   0.628  0.00  0.00    +0.000 NA
ATOM     19  H   UNL     1      10.040   0.571   1.424  0.00  0.00    +0.000 HD
ATOM     20  H   UNL     1       6.514  -1.413   1.578  0.00  0.00    +0.000 HD
ENDBRANCH   4   7
BRANCH   3  21
ATOM     21  C   UNL     1       2.122  -1.944   1.455  0.00  0.00    +0.000 A 
ATOM     22  C   UNL     1       0.926  -2.472   0.982  0.00  0.00    +0.000 A 
ATOM     23  C   UNL     1       0.361  -3.597   1.590  0.00  0.00    +0.000 A 
ATOM     24  C   UNL     1       0.976  -4.237   2.680  0.00  0.00    +0.000 A 
ATOM     25  C   UNL     1       2.195  -3.700   3.129  0.00  0.00    +0.000 A 
ATOM     26  C   UNL     1       2.765  -2.575   2.522  0.00  0.00    +0.000 A 
BRANCH  24  27
ATOM     27  C   UNL     1       0.378  -5.436   3.309  0.00  0.00    +0.000 A 
ATOM     28  C   UNL     1      -0.359  -6.365   2.553  0.00  0.00    +0.000 A 
ATOM     29  C   UNL     1      -0.893  -7.506   3.143  0.00  0.00    +0.000 A 
ATOM     30  F   UNL     1      -1.588  -8.370   2.391  0.00  0.00    +0.000 F 
ATOM     31  C   UNL     1      -0.709  -7.769   4.492  0.00  0.00    +0.000 A 
ATOM     32  C   UNL     1       0.005  -6.864   5.269  0.00  0.00    +0.000 A 
ATOM     33  C   UNL     1       0.533  -5.707   4.684  0.00  0.00    +0.000 A 
ENDBRANCH  24  27
ENDBRANCH   3  21
TORSDOF 3
