REMARK  Name = 
REMARK  6 active torsions:
REMARK  status: ('A' for Active; 'I' for Inactive)
REMARK    1  A    between atoms: C_2  and  O_3
REMARK    2  A    between atoms: C_2  and  C_4
REMARK    3  A    between atoms: N_6  and  C_7
REMARK    4  A    between atoms: C_11  and  C_12
REMARK    5  A    between atoms: C_14  and  C_15
REMARK    6  A    between atoms: C_15  and  N_16
REMARK                            x       y       z     vdW  Elec       q    Type
REMARK                         _______ _______ _______ _____ _____    ______ ____
ROOT
ATOM      1  C   UNL     1       2.560   4.548   2.034  0.00  0.00    +0.000 A 
ATOM      2  C   UNL     1       2.516   4.476   3.427  0.00  0.00    +0.000 A 
ATOM      3  C   UNL     1       1.870   5.474   4.160  0.00  0.00    +0.000 A 
ATOM      4  C   UNL     1       1.284   6.565   3.508  0.00  0.00    +0.000 A 
ATOM      5  C   UNL     1       1.312   6.673   2.109  0.00  0.00    +0.000 A 
ATOM      6  C   UNL     1       1.949   5.641   1.398  0.00  0.00    +0.000 A 
ENDROOT
BRANCH   5   7
ATOM      7  C   UNL     1       0.665   7.782   1.373  0.00  0.00    +0.000 A 
ATOM      8  C   UNL     1       1.228   8.302   0.185  0.00  0.00    +0.000 A 
ATOM      9  C   UNL     1       0.558   9.249  -0.610  0.00  0.00    +0.000 A 
ATOM     10  C   UNL     1      -0.689   9.717  -0.182  0.00  0.00    +0.000 A 
ATOM     11  C   UNL     1      -1.231   9.248   1.008  0.00  0.00    +0.000 A 
ATOM     12  F   UNL     1      -2.425   9.705   1.408  0.00  0.00    +0.000 F 
ATOM     13  C   UNL     1      -0.575   8.294   1.779  0.00  0.00    +0.000 A 
BRANCH   9  14
ATOM     14  C   UNL     1       1.155   9.717  -1.913  0.00  0.00    +0.000 C 
BRANCH  14  15
ATOM     15  N   UNL     1       0.753   8.879  -3.033  0.00  0.00    +0.000 N 
ATOM     16  C   UNL     1       1.449   7.807  -3.535  0.00  0.00    +0.000 A 
ATOM     17  C   UNL     1       0.743   7.420  -4.652  0.00  0.00    +0.000 A 
ATOM     18  N   UNL     1      -0.348   8.230  -4.839  0.00  0.00    +0.000 NA
ATOM     19  C   UNL     1      -0.319   9.091  -3.847  0.00  0.00    +0.000 A 
ENDBRANCH  14  15
ENDBRANCH   9  14
ENDBRANCH   5   7
BRANCH   1  22
ATOM     20  C   UNL     1       3.222   2.279  -0.809  0.00  0.00    +0.000 A 
ATOM     21  C   UNL     1       2.618   3.128   0.038  0.00  0.00    +0.000 A 
ATOM     22  N   UNL     1       3.203   3.545   1.236  0.00  0.00    +0.000 N 
ATOM     23  C   UNL     1       4.468   3.069   1.626  0.00  0.00    +0.000 A 
ATOM     24  O   UNL     1       5.090   3.373   2.641  0.00  0.00    +0.000 OA
ATOM     25  C   UNL     1       5.143   2.163   0.651  0.00  0.00    +0.000 A 
ATOM     26  C   UNL     1       4.552   1.811  -0.498  0.00  0.00    +0.000 A 
BRANCH  20  28
ATOM     27  O   UNL     1       1.611   2.656  -2.531  0.00  0.00    +0.000 OA
ATOM     28  C   UNL     1       2.477   1.942  -2.052  0.00  0.00    +0.000 C 
BRANCH  28  29
ATOM     29  O   UNL     1       2.832   0.766  -2.607  0.00  0.00    +0.000 OA
ATOM     30  H   UNL     1       3.407   0.200  -2.064  0.00  0.00    +0.000 HD
ENDBRANCH  28  29
ENDBRANCH  20  28
ENDBRANCH   1  22
TORSDOF 6
