REMARK  Name = 
REMARK  6 active torsions:
REMARK  status: ('A' for Active; 'I' for Inactive)
REMARK    1  A    between atoms: C_1  and  O_2
REMARK    2  A    between atoms: O_2  and  C_3
REMARK    3  A    between atoms: C_3  and  C_5
REMARK    4  A    between atoms: C_5  and  C_6
REMARK    5  A    between atoms: C_12  and  C_13
REMARK    6  A    between atoms: C_22  and  C_23
REMARK                            x       y       z     vdW  Elec       q    Type
REMARK                         _______ _______ _______ _____ _____    ______ ____
ROOT
ATOM      1  C   UNL     1       7.157   1.711  -1.924  0.00  0.00    +0.000 A 
ATOM      2  C   UNL     1       8.497   1.553  -1.525  0.00  0.00    +0.000 A 
ATOM      3  C   UNL     1       9.281   0.477  -1.964  0.00  0.00    +0.000 A 
ATOM      4  C   UNL     1       8.727  -0.534  -2.751  0.00  0.00    +0.000 A 
ATOM      5  N   UNL     1       9.555  -1.624  -3.047  0.00  0.00    +0.000 N 
ATOM      6  C   UNL     1       9.165  -2.921  -3.242  0.00  0.00    +0.000 C 
ATOM      7  O   UNL     1      10.008  -3.781  -3.497  0.00  0.00    +0.000 OA
ATOM      8  C   UNL     1       7.707  -3.253  -2.982  0.00  0.00    +0.000 C 
ATOM      9  N   UNL     1       6.856  -2.663  -4.003  0.00  0.00    +0.000 NA
ATOM     10  C   UNL     1       6.743  -1.382  -4.105  0.00  0.00    +0.000 C 
ATOM     11  C   UNL     1       7.410  -0.393  -3.200  0.00  0.00    +0.000 A 
ATOM     12  C   UNL     1       6.674   0.749  -2.818  0.00  0.00    +0.000 A 
ATOM     13  H   UNL     1      10.560  -1.520  -2.974  0.00  0.00    +0.000 HD
ENDROOT
BRANCH   1  20
ATOM     14  C   UNL     1       4.919   2.764  -1.126  0.00  0.00    +0.000 A 
ATOM     15  C   UNL     1       4.247   3.895  -0.596  0.00  0.00    +0.000 A 
ATOM     16  C   UNL     1       4.922   5.082  -0.335  0.00  0.00    +0.000 A 
ATOM     17  C   UNL     1       6.267   5.165  -0.621  0.00  0.00    +0.000 A 
ATOM     18  F   UNL     1       6.928   6.303  -0.375  0.00  0.00    +0.000 F 
ATOM     19  C   UNL     1       6.953   4.078  -1.159  0.00  0.00    +0.000 A 
ATOM     20  C   UNL     1       6.317   2.840  -1.415  0.00  0.00    +0.000 A 
BRANCH  14  21
ATOM     21  C   UNL     1       4.036   1.543  -1.352  0.00  0.00    +0.000 C 
BRANCH  21  22
ATOM     22  C   UNL     1       4.494   0.283  -0.655  0.00  0.00    +0.000 C 
ATOM     23  O   UNL     1       5.046   0.241   0.436  0.00  0.00    +0.000 OA
BRANCH  22  25
ATOM     24  C   UNL     1       4.616  -2.045  -0.851  0.00  0.00    +0.000 C 
ATOM     25  O   UNL     1       4.169  -0.804  -1.407  0.00  0.00    +0.000 OA
ENDBRANCH  22  25
ENDBRANCH  21  22
ENDBRANCH  14  21
ENDBRANCH   1  20
BRANCH  10  26
ATOM     26  C   UNL     1       5.861  -0.883  -5.214  0.00  0.00    +0.000 A 
ATOM     27  C   UNL     1       4.754  -1.651  -5.602  0.00  0.00    +0.000 A 
ATOM     28  C   UNL     1       3.953  -1.238  -6.668  0.00  0.00    +0.000 A 
ATOM     29  C   UNL     1       4.249  -0.055  -7.344  0.00  0.00    +0.000 A 
ATOM     30  C   UNL     1       5.342   0.719  -6.955  0.00  0.00    +0.000 A 
ATOM     31  C   UNL     1       6.154   0.302  -5.900  0.00  0.00    +0.000 A 
ENDBRANCH  10  26
TORSDOF 5
