REMARK  Name = 
REMARK  7 active torsions:
REMARK  status: ('A' for Active; 'I' for Inactive)
REMARK    1  A    between atoms: C_2  and  O_3
REMARK    2  A    between atoms: C_2  and  C_17
REMARK    3  A    between atoms: O_3  and  C_4
REMARK    4  A    between atoms: C_4  and  C_5
REMARK    5  A    between atoms: C_7  and  C_8
REMARK    6  A    between atoms: C_8  and  C_9
REMARK    7  A    between atoms: C_20  and  C_21
REMARK                            x       y       z     vdW  Elec       q    Type
REMARK                         _______ _______ _______ _____ _____    ______ ____
ROOT
ATOM      1  O   UNL     1       2.984  -0.338  -1.116  0.00  0.00    +0.000 OA
ATOM      2  C   UNL     1       2.410  -0.073  -0.070  0.00  0.00    +0.000 C 
ENDROOT
BRANCH   2   3
ATOM      3  C   UNL     1       0.949  -0.313   0.124  0.00  0.00    +0.000 A 
ATOM      4  C   UNL     1       0.233  -0.911  -0.927  0.00  0.00    +0.000 A 
ATOM      5  C   UNL     1      -1.136  -1.180  -0.803  0.00  0.00    +0.000 A 
ATOM      6  C   UNL     1      -1.812  -0.857   0.379  0.00  0.00    +0.000 A 
ATOM      7  C   UNL     1      -1.098  -0.261   1.429  0.00  0.00    +0.000 A 
ATOM      8  C   UNL     1       0.268   0.022   1.299  0.00  0.00    +0.000 A 
BRANCH   6   9
ATOM      9  C   UNL     1      -3.267  -1.138   0.569  0.00  0.00    +0.000 A 
ATOM     10  N   UNL     1      -3.721  -1.376   1.765  0.00  0.00    +0.000 NA
ATOM     11  N   UNL     1      -5.059  -1.616   1.882  0.00  0.00    +0.000 N 
ATOM     12  C   UNL     1      -5.972  -1.618   0.867  0.00  0.00    +0.000 A 
ATOM     13  O   UNL     1      -7.168  -1.827   1.026  0.00  0.00    +0.000 OA
ATOM     14  C   UNL     1      -5.433  -1.335  -0.477  0.00  0.00    +0.000 A 
ATOM     15  C   UNL     1      -4.129  -1.099  -0.643  0.00  0.00    +0.000 A 
ATOM     16  H   UNL     1      -5.404  -1.804   2.820  0.00  0.00    +0.000 HD
ENDBRANCH   6   9
ENDBRANCH   2   3
BRANCH   2  17
ATOM     17  O   UNL     1       2.986   0.455   1.035  0.00  0.00    +0.000 OA
BRANCH  17  18
ATOM     18  C   UNL     1       4.388   0.758   0.942  0.00  0.00    +0.000 C 
BRANCH  18  19
ATOM     19  C   UNL     1       4.525   2.222   1.112  0.00  0.00    +0.000 A 
ATOM     20  C   UNL     1       4.551   3.292   0.249  0.00  0.00    +0.000 A 
ATOM     21  C   UNL     1       4.613   4.429   1.096  0.00  0.00    +0.000 A 
ATOM     22  N   UNL     1       4.715   4.059   2.381  0.00  0.00    +0.000 NA
ATOM     23  O   UNL     1       4.644   2.678   2.387  0.00  0.00    +0.000 OA
BRANCH  21  24
ATOM     24  C   UNL     1       4.634   5.871   0.718  0.00  0.00    +0.000 C 
BRANCH  24  25
ATOM     25  C   UNL     1       3.197   6.343   0.673  0.00  0.00    +0.000 A 
ATOM     26  C   UNL     1       2.572   6.850   1.825  0.00  0.00    +0.000 A 
ATOM     27  C   UNL     1       1.249   7.297   1.781  0.00  0.00    +0.000 A 
ATOM     28  C   UNL     1       0.536   7.253   0.585  0.00  0.00    +0.000 A 
ATOM     29  C   UNL     1       1.145   6.761  -0.568  0.00  0.00    +0.000 A 
ATOM     30  C   UNL     1       2.466   6.305  -0.524  0.00  0.00    +0.000 A 
ENDBRANCH  24  25
ENDBRANCH  21  24
ENDBRANCH  18  19
ENDBRANCH  17  18
ENDBRANCH   2  17
TORSDOF 7
