REMARK  Name = 
REMARK  6 active torsions:
REMARK  status: ('A' for Active; 'I' for Inactive)
REMARK    1  A    between atoms: C_2  and  C_16
REMARK    2  A    between atoms: N_3  and  C_4
REMARK    3  A    between atoms: C_4  and  C_5
REMARK    4  A    between atoms: C_8  and  N_9
REMARK    5  A    between atoms: C_18  and  C_19
REMARK    6  A    between atoms: C_28  and  O_29
REMARK                            x       y       z     vdW  Elec       q    Type
REMARK                         _______ _______ _______ _____ _____    ______ ____
ROOT
ATOM      1  O   UNL     1       1.023   0.512   0.217  0.00  0.00    +0.000 OA
ATOM      2  C   UNL     1       2.213   0.217   0.143  0.00  0.00    +0.000 C 
ATOM      3  N   UNL     1       2.886  -0.388   1.172  0.00  0.00    +0.000 N 
ATOM      4  H   UNL     1       3.881  -0.575   1.084  0.00  0.00    +0.000 HD
ENDROOT
BRANCH   2   5
ATOM      5  C   UNL     1       2.970   0.533  -1.096  0.00  0.00    +0.000 A 
ATOM      6  C   UNL     1       2.265   1.097  -2.167  0.00  0.00    +0.000 A 
ATOM      7  C   UNL     1       2.902   1.463  -3.365  0.00  0.00    +0.000 A 
ATOM      8  C   UNL     1       4.277   1.218  -3.407  0.00  0.00    +0.000 A 
ATOM      9  N   UNL     1       5.002   0.654  -2.404  0.00  0.00    +0.000 NA
ATOM     10  C   UNL     1       4.324   0.327  -1.287  0.00  0.00    +0.000 A 
BRANCH   7  11
ATOM     11  C   UNL     1       2.135   2.043  -4.490  0.00  0.00    +0.000 A 
ATOM     12  C   UNL     1       1.003   2.851  -4.254  0.00  0.00    +0.000 A 
ATOM     13  C   UNL     1       0.207   3.327  -5.302  0.00  0.00    +0.000 A 
ATOM     14  C   UNL     1       0.536   3.027  -6.619  0.00  0.00    +0.000 A 
ATOM     15  C   UNL     1       1.669   2.264  -6.886  0.00  0.00    +0.000 A 
ATOM     16  C   UNL     1       2.450   1.783  -5.834  0.00  0.00    +0.000 A 
ATOM     17  F   UNL     1       3.513   1.026  -6.150  0.00  0.00    +0.000 F 
ENDBRANCH   7  11
BRANCH  10  18
ATOM     18  O   UNL     1       5.127  -0.247  -0.356  0.00  0.00    +0.000 OA
ATOM     19  H   UNL     1       5.972  -0.246  -0.846  0.00  0.00    +0.000 HD
ENDBRANCH  10  18
ENDBRANCH   2   5
BRANCH   3  20
ATOM     20  C   UNL     1       2.246  -0.706   2.430  0.00  0.00    +0.000 C 
BRANCH  20  21
ATOM     21  C   UNL     1       2.815   0.105   3.570  0.00  0.00    +0.000 A 
ATOM     22  C   UNL     1       2.283   1.350   3.892  0.00  0.00    +0.000 A 
ATOM     23  C   UNL     1       2.818   2.059   4.971  0.00  0.00    +0.000 A 
ATOM     24  C   UNL     1       3.883   1.515   5.695  0.00  0.00    +0.000 A 
ATOM     25  C   UNL     1       4.372   0.280   5.281  0.00  0.00    +0.000 A 
ATOM     26  N   UNL     1       3.865  -0.426   4.241  0.00  0.00    +0.000 NA
BRANCH  24  27
ATOM     27  N   UNL     1       4.443   2.184   6.815  0.00  0.00    +0.000 N 
ATOM     28  C   UNL     1       4.031   3.378   7.371  0.00  0.00    +0.000 A 
ATOM     29  C   UNL     1       4.858   3.608   8.445  0.00  0.00    +0.000 A 
ATOM     30  N   UNL     1       5.774   2.606   8.573  0.00  0.00    +0.000 NA
ATOM     31  C   UNL     1       5.507   1.773   7.591  0.00  0.00    +0.000 A 
ENDBRANCH  24  27
ENDBRANCH  20  21
ENDBRANCH   3  20
TORSDOF 6
