REMARK  Name = 
REMARK  6 active torsions:
REMARK  status: ('A' for Active; 'I' for Inactive)
REMARK    1  A    between atoms: C_1  and  C_2
REMARK    2  A    between atoms: C_3  and  N_4
REMARK    3  A    between atoms: C_5  and  C_7
REMARK    4  A    between atoms: C_10  and  S_11
REMARK    5  A    between atoms: S_11  and  C_12
REMARK    6  A    between atoms: C_12  and  C_13
REMARK                            x       y       z     vdW  Elec       q    Type
REMARK                         _______ _______ _______ _____ _____    ______ ____
ROOT
ATOM      1  N   UNL     1       4.386   0.077  -1.397  0.00  0.00    +0.000 N 
ATOM      2  C   UNL     1       4.436   1.098  -0.463  0.00  0.00    +0.000 C 
ATOM      3  O   UNL     1       3.615   1.306   0.424  0.00  0.00    +0.000 OA
ATOM      4  H   UNL     1       5.272  -0.110  -1.875  0.00  0.00    +0.000 HD
ENDROOT
BRANCH   1   7
ATOM      5  C   UNL     1       1.362   0.422  -0.856  0.00  0.00    +0.000 C 
ATOM      6  C   UNL     1       2.097  -0.835  -1.243  0.00  0.00    +0.000 A 
ATOM      7  C   UNL     1       3.410  -0.903  -1.545  0.00  0.00    +0.000 A 
ATOM      8  C   UNL     1       3.884  -2.196  -2.167  0.00  0.00    +0.000 A 
ATOM      9  O   UNL     1       5.051  -2.269  -2.568  0.00  0.00    +0.000 OA
ATOM     10  N   UNL     1       2.962  -3.233  -2.242  0.00  0.00    +0.000 N 
ATOM     11  C   UNL     1       3.335  -4.465  -2.777  0.00  0.00    +0.000 A 
ATOM     12  C   UNL     1       2.476  -5.491  -2.853  0.00  0.00    +0.000 A 
ATOM     13  C   UNL     1       1.129  -5.341  -2.368  0.00  0.00    +0.000 A 
ATOM     14  C   UNL     1       0.724  -4.172  -1.860  0.00  0.00    +0.000 A 
ATOM     15  C   UNL     1       1.670  -3.023  -1.797  0.00  0.00    +0.000 A 
ATOM     16  N   UNL     1       1.232  -1.899  -1.335  0.00  0.00    +0.000 NA
ENDBRANCH   1   7
BRANCH   2  17
ATOM     17  C   UNL     1       5.653   1.974  -0.529  0.00  0.00    +0.000 A 
ATOM     18  C   UNL     1       5.765   3.063   0.333  0.00  0.00    +0.000 A 
ATOM     19  C   UNL     1       6.908   3.867   0.268  0.00  0.00    +0.000 A 
ATOM     20  C   UNL     1       7.913   3.567  -0.650  0.00  0.00    +0.000 A 
ATOM     21  C   UNL     1       7.696   2.457  -1.475  0.00  0.00    +0.000 A 
ATOM     22  N   UNL     1       6.602   1.647  -1.441  0.00  0.00    +0.000 NA
BRANCH  20  23
ATOM     23  S   UNL     1       9.386   4.538  -0.906  0.00  0.00    +0.000 S 
BRANCH  23  24
ATOM     24  C   UNL     1       9.759   5.206   0.755  0.00  0.00    +0.000 C 
BRANCH  24  25
ATOM     25  C   UNL     1      11.039   6.012   0.744  0.00  0.00    +0.000 A 
ATOM     26  C   UNL     1      11.017   7.378   0.420  0.00  0.00    +0.000 A 
ATOM     27  C   UNL     1      12.196   8.126   0.405  0.00  0.00    +0.000 A 
ATOM     28  C   UNL     1      13.413   7.519   0.710  0.00  0.00    +0.000 A 
ATOM     29  C   UNL     1      13.452   6.161   1.021  0.00  0.00    +0.000 A 
ATOM     30  C   UNL     1      12.273   5.410   1.036  0.00  0.00    +0.000 A 
ENDBRANCH  24  25
ENDBRANCH  23  24
ENDBRANCH  20  23
ENDBRANCH   2  17
TORSDOF 5
