REMARK  Name = 
REMARK  8 active torsions:
REMARK  status: ('A' for Active; 'I' for Inactive)
REMARK    1  A    between atoms: C_1  and  O_2
REMARK    2  A    between atoms: O_2  and  C_3
REMARK    3  A    between atoms: C_5  and  C_6
REMARK    4  A    between atoms: C_9  and  C_10
REMARK    5  A    between atoms: C_10  and  N_11
REMARK    6  A    between atoms: C_17  and  O_18
REMARK    7  A    between atoms: O_18  and  C_19
REMARK    8  A    between atoms: C_19  and  C_20
REMARK                            x       y       z     vdW  Elec       q    Type
REMARK                         _______ _______ _______ _____ _____    ______ ____
ROOT
ATOM      1  N   UNL     1       3.582   0.498   1.973  0.00  0.00    +0.000 N 
ATOM      2  C   UNL     1       2.262   0.343   2.364  0.00  0.00    +0.000 A 
ATOM      3  O   UNL     1       1.750  -0.712   2.733  0.00  0.00    +0.000 OA
ATOM      4  N   UNL     1       1.488   1.471   2.360  0.00  0.00    +0.000 N 
ATOM      5  C   UNL     1       1.986   2.748   2.135  0.00  0.00    +0.000 A 
ATOM      6  C   UNL     1       1.115   3.836   2.046  0.00  0.00    +0.000 A 
ATOM      7  C   UNL     1       1.623   5.127   1.878  0.00  0.00    +0.000 A 
ATOM      8  C   UNL     1       3.006   5.327   1.893  0.00  0.00    +0.000 A 
ATOM      9  C   UNL     1       3.874   4.228   1.937  0.00  0.00    +0.000 A 
ATOM     10  C   UNL     1       3.355   2.933   2.014  0.00  0.00    +0.000 A 
ATOM     11  C   UNL     1       4.220   1.737   1.921  0.00  0.00    +0.000 A 
ATOM     12  O   UNL     1       5.433   1.884   1.804  0.00  0.00    +0.000 OA
ATOM     13  H   UNL     1       0.513   1.325   2.581  0.00  0.00    +0.000 HD
ENDROOT
BRANCH   1  14
ATOM     14  C   UNL     1       4.379  -0.707   1.769  0.00  0.00    +0.000 C 
BRANCH  14  21
ATOM     15  C   UNL     1       3.542  -2.158  -0.176  0.00  0.00    +0.000 A 
ATOM     16  C   UNL     1       3.652  -2.586  -1.507  0.00  0.00    +0.000 A 
ATOM     17  C   UNL     1       4.635  -2.067  -2.355  0.00  0.00    +0.000 A 
ATOM     18  C   UNL     1       4.783  -2.579  -3.759  0.00  0.00    +0.000 C 
ATOM     19  C   UNL     1       5.489  -1.074  -1.873  0.00  0.00    +0.000 A 
ATOM     20  C   UNL     1       5.372  -0.624  -0.555  0.00  0.00    +0.000 A 
ATOM     21  C   UNL     1       4.413  -1.168   0.318  0.00  0.00    +0.000 A 
BRANCH  15  23
ATOM     22  C   UNL     1       2.021  -3.903   0.379  0.00  0.00    +0.000 C 
ATOM     23  O   UNL     1       2.609  -2.647   0.698  0.00  0.00    +0.000 OA
ENDBRANCH  15  23
ENDBRANCH  14  21
ENDBRANCH   1  14
BRANCH   7  24
ATOM     24  O   UNL     1       0.689   6.078   1.572  0.00  0.00    +0.000 OA
BRANCH  24  25
ATOM     25  C   UNL     1       0.908   7.421   2.009  0.00  0.00    +0.000 C 
BRANCH  25  26
ATOM     26  C   UNL     1       1.751   8.309   1.113  0.00  0.00    +0.000 A 
ATOM     27  C   UNL     1       2.298   7.878  -0.103  0.00  0.00    +0.000 A 
ATOM     28  C   UNL     1       3.215   8.678  -0.789  0.00  0.00    +0.000 A 
ATOM     29  C   UNL     1       3.550   9.938  -0.298  0.00  0.00    +0.000 A 
ATOM     30  C   UNL     1       2.943  10.416   0.860  0.00  0.00    +0.000 A 
ATOM     31  C   UNL     1       2.046   9.608   1.559  0.00  0.00    +0.000 A 
ENDBRANCH  25  26
ENDBRANCH  24  25
ENDBRANCH   7  24
TORSDOF 6
