REMARK  Name = 
REMARK  9 active torsions:
REMARK  status: ('A' for Active; 'I' for Inactive)
REMARK    1  A    between atoms: C_2  and  C_3
REMARK    2  A    between atoms: C_3  and  N_4
REMARK    3  A    between atoms: C_5  and  C_7
REMARK    4  A    between atoms: C_12  and  O_13
REMARK    5  A    between atoms: N_14  and  C_15
REMARK    6  A    between atoms: C_15  and  C_16
REMARK    7  A    between atoms: C_15  and  C_22
REMARK    8  A    between atoms: C_25  and  O_26
REMARK    9  A    between atoms: O_26  and  C_27
REMARK                            x       y       z     vdW  Elec       q    Type
REMARK                         _______ _______ _______ _____ _____    ______ ____
ROOT
ATOM      1  O   UNL     1       0.948   0.393  -1.138  0.00  0.00    +0.000 OA
ATOM      2  C   UNL     1       2.161   0.561  -0.976  0.00  0.00    +0.000 C 
ATOM      3  N   UNL     1       2.965  -0.538  -0.924  0.00  0.00    +0.000 N 
ATOM      4  H   UNL     1       2.452  -1.405  -0.972  0.00  0.00    +0.000 HD
ENDROOT
BRANCH   2   5
ATOM      5  C   UNL     1       2.761   1.962  -0.888  0.00  0.00    +0.000 C 
BRANCH   5   6
ATOM      6  N   UNL     1       3.002   2.542  -2.194  0.00  0.00    +0.000 N 
ATOM      7  C   UNL     1       4.109   3.339  -2.418  0.00  0.00    +0.000 C 
ATOM      8  O   UNL     1       4.978   3.491  -1.561  0.00  0.00    +0.000 OA
ATOM      9  H   UNL     1       2.248   2.594  -2.874  0.00  0.00    +0.000 HD
BRANCH   7  10
ATOM     10  C   UNL     1       4.168   4.014  -3.759  0.00  0.00    +0.000 A 
ATOM     11  N   UNL     1       2.967   4.154  -4.404  0.00  0.00    +0.000 NA
ATOM     12  C   UNL     1       2.994   4.801  -5.592  0.00  0.00    +0.000 A 
ATOM     13  C   UNL     1       4.149   5.296  -6.182  0.00  0.00    +0.000 A 
ATOM     14  C   UNL     1       5.362   5.119  -5.521  0.00  0.00    +0.000 A 
ATOM     15  C   UNL     1       5.378   4.466  -4.291  0.00  0.00    +0.000 A 
BRANCH  15  16
ATOM     16  O   UNL     1       6.569   4.250  -3.667  0.00  0.00    +0.000 OA
ATOM     17  H   UNL     1       7.297   4.642  -4.173  0.00  0.00    +0.000 HD
ENDBRANCH  15  16
ENDBRANCH   7  10
ENDBRANCH   5   6
ENDBRANCH   2   5
BRANCH   3  18
ATOM     18  C   UNL     1       4.406  -0.621  -1.135  0.00  0.00    +0.000 C 
BRANCH  18  19
ATOM     19  C   UNL     1       4.777  -1.136  -2.534  0.00  0.00    +0.000 A 
ATOM     20  C   UNL     1       3.824  -1.494  -3.501  0.00  0.00    +0.000 A 
ATOM     21  C   UNL     1       4.213  -1.898  -4.786  0.00  0.00    +0.000 A 
ATOM     22  C   UNL     1       5.562  -1.929  -5.135  0.00  0.00    +0.000 A 
ATOM     23  C   UNL     1       6.523  -1.638  -4.169  0.00  0.00    +0.000 A 
ATOM     24  C   UNL     1       6.136  -1.238  -2.888  0.00  0.00    +0.000 A 
BRANCH  22  25
ATOM     25  O   UNL     1       6.050  -2.241  -6.371  0.00  0.00    +0.000 OA
BRANCH  25  26
ATOM     26  C   UNL     1       5.200  -1.891  -7.452  0.00  0.00    +0.000 C 
ATOM     27  F   UNL     1       5.992  -1.662  -8.533  0.00  0.00    +0.000 F 
ATOM     28  F   UNL     1       4.426  -2.962  -7.755  0.00  0.00    +0.000 F 
ENDBRANCH  25  26
ENDBRANCH  22  25
ENDBRANCH  18  19
BRANCH  18  29
ATOM     29  C   UNL     1       5.045  -1.460  -0.032  0.00  0.00    +0.000 A 
ATOM     30  C   UNL     1       4.691  -2.805   0.170  0.00  0.00    +0.000 A 
ATOM     31  C   UNL     1       5.376  -3.589   1.101  0.00  0.00    +0.000 A 
ATOM     32  C   UNL     1       6.420  -3.042   1.843  0.00  0.00    +0.000 A 
ATOM     33  C   UNL     1       6.762  -1.702   1.678  0.00  0.00    +0.000 A 
ATOM     34  C   UNL     1       6.075  -0.913   0.753  0.00  0.00    +0.000 A 
ENDBRANCH  18  29
ENDBRANCH   3  18
TORSDOF 9
