REMARK  Name = 
REMARK  6 active torsions:
REMARK  status: ('A' for Active; 'I' for Inactive)
REMARK    1  A    between atoms: C_2  and  C_17
REMARK    2  A    between atoms: N_3  and  C_4
REMARK    3  A    between atoms: C_4  and  C_5
REMARK    4  A    between atoms: N_9  and  C_10
REMARK    5  A    between atoms: C_10  and  C_11
REMARK    6  A    between atoms: N_19  and  C_20
REMARK                            x       y       z     vdW  Elec       q    Type
REMARK                         _______ _______ _______ _____ _____    ______ ____
ROOT
ATOM      1  O   UNL     1       0.925   0.283   0.425  0.00  0.00    +0.000 OA
ATOM      2  C   UNL     1       2.091   0.041   0.131  0.00  0.00    +0.000 C 
ATOM      3  N   UNL     1       2.818  -0.927   0.789  0.00  0.00    +0.000 N 
ATOM      4  H   UNL     1       3.823  -0.960   0.690  0.00  0.00    +0.000 HD
ENDROOT
BRANCH   2   5
ATOM      5  C   UNL     1       2.797   0.810  -0.941  0.00  0.00    +0.000 A 
ATOM      6  C   UNL     1       2.242   1.982  -1.302  0.00  0.00    +0.000 A 
ATOM      7  N   UNL     1       2.760   2.783  -2.320  0.00  0.00    +0.000 N 
ATOM      8  C   UNL     1       3.900   2.384  -3.042  0.00  0.00    +0.000 A 
ATOM      9  O   UNL     1       4.423   2.987  -3.977  0.00  0.00    +0.000 OA
ATOM     10  C   UNL     1       4.480   1.064  -2.656  0.00  0.00    +0.000 A 
ATOM     11  C   UNL     1       3.951   0.332  -1.666  0.00  0.00    +0.000 A 
BRANCH   7  12
ATOM     12  C   UNL     1       2.084   3.986  -2.718  0.00  0.00    +0.000 A 
ATOM     13  C   UNL     1       2.797   5.174  -2.938  0.00  0.00    +0.000 A 
ATOM     14  C   UNL     1       2.132   6.341  -3.332  0.00  0.00    +0.000 A 
ATOM     15  C   UNL     1       0.754   6.329  -3.542  0.00  0.00    +0.000 A 
ATOM     16  C   UNL     1       0.034   5.155  -3.336  0.00  0.00    +0.000 A 
ATOM     17  C   UNL     1       0.695   4.004  -2.912  0.00  0.00    +0.000 A 
ATOM     18  F   UNL     1      -0.031   2.884  -2.760  0.00  0.00    +0.000 F 
ENDBRANCH   7  12
ENDBRANCH   2   5
BRANCH   3  19
ATOM     19  C   UNL     1       2.228  -1.598   1.923  0.00  0.00    +0.000 C 
BRANCH  19  20
ATOM     20  C   UNL     1       2.897  -2.901   2.142  0.00  0.00    +0.000 A 
ATOM     21  C   UNL     1       3.986  -3.211   2.934  0.00  0.00    +0.000 A 
ATOM     22  C   UNL     1       4.115  -4.605   2.859  0.00  0.00    +0.000 A 
ATOM     23  N   UNL     1       3.189  -5.156   2.079  0.00  0.00    +0.000 NA
ATOM     24  N   UNL     1       2.472  -4.104   1.616  0.00  0.00    +0.000 N 
BRANCH  24  25
ATOM     25  C   UNL     1       1.358  -4.372   0.706  0.00  0.00    +0.000 C 
BRANCH  25  26
ATOM     26  C   UNL     1       1.790  -4.355  -0.741  0.00  0.00    +0.000 A 
ATOM     27  C   UNL     1       2.782  -5.236  -1.206  0.00  0.00    +0.000 A 
ATOM     28  C   UNL     1       3.204  -5.197  -2.534  0.00  0.00    +0.000 A 
ATOM     29  C   UNL     1       2.624  -4.294  -3.422  0.00  0.00    +0.000 A 
ATOM     30  C   UNL     1       1.609  -3.445  -2.985  0.00  0.00    +0.000 A 
ATOM     31  C   UNL     1       1.190  -3.476  -1.653  0.00  0.00    +0.000 A 
ENDBRANCH  25  26
ENDBRANCH  24  25
ENDBRANCH  19  20
ENDBRANCH   3  19
TORSDOF 6
