REMARK  Name = 
REMARK  9 active torsions:
REMARK  status: ('A' for Active; 'I' for Inactive)
REMARK    1  A    between atoms: C_2  and  C_3
REMARK    2  A    between atoms: C_2  and  O_18
REMARK    3  A    between atoms: C_3  and  O_4
REMARK    4  A    between atoms: O_4  and  C_5
REMARK    5  A    between atoms: C_9  and  O_10
REMARK    6  A    between atoms: O_10  and  C_11
REMARK    7  A    between atoms: O_18  and  C_19
REMARK    8  A    between atoms: C_19  and  C_20
REMARK    9  A    between atoms: C_23  and  N_24
REMARK                            x       y       z     vdW  Elec       q    Type
REMARK                         _______ _______ _______ _____ _____    ______ ____
ROOT
ATOM      1  O   UNL     1       2.005   0.272  -1.200  0.00  0.00    +0.000 OA
ATOM      2  C   UNL     1       2.220   0.014  -0.022  0.00  0.00    +0.000 C 
ENDROOT
BRANCH   2   3
ATOM      3  O   UNL     1       1.806   0.770   1.033  0.00  0.00    +0.000 OA
BRANCH   3   4
ATOM      4  C   UNL     1       1.014   1.928   0.723  0.00  0.00    +0.000 C 
BRANCH   4   5
ATOM      5  C   UNL     1      -0.336   1.763   1.361  0.00  0.00    +0.000 A 
ATOM      6  C   UNL     1      -1.181   0.721   0.983  0.00  0.00    +0.000 A 
ATOM      7  C   UNL     1      -2.417   0.562   1.605  0.00  0.00    +0.000 A 
ATOM      8  C   UNL     1      -2.790   1.465   2.593  0.00  0.00    +0.000 A 
ATOM      9  N   UNL     1      -2.001   2.509   2.960  0.00  0.00    +0.000 NA
ATOM     10  C   UNL     1      -0.799   2.631   2.343  0.00  0.00    +0.000 A 
BRANCH   8  11
ATOM     11  N   UNL     1      -4.033   1.304   3.269  0.00  0.00    +0.000 N 
ATOM     12  C   UNL     1      -4.965   0.298   3.127  0.00  0.00    +0.000 A 
ATOM     13  C   UNL     1      -5.979   0.597   4.006  0.00  0.00    +0.000 A 
ATOM     14  N   UNL     1      -5.708   1.751   4.686  0.00  0.00    +0.000 NA
ATOM     15  C   UNL     1      -4.539   2.148   4.232  0.00  0.00    +0.000 A 
ENDBRANCH   8  11
ENDBRANCH   4   5
ENDBRANCH   3   4
ENDBRANCH   2   3
BRANCH   2  16
ATOM     16  C   UNL     1       2.982  -1.209   0.458  0.00  0.00    +0.000 C 
BRANCH  16  17
ATOM     17  O   UNL     1       2.080  -2.285   0.680  0.00  0.00    +0.000 OA
BRANCH  17  18
ATOM     18  C   UNL     1       2.627  -3.483   1.061  0.00  0.00    +0.000 A 
ATOM     19  C   UNL     1       3.990  -3.734   1.242  0.00  0.00    +0.000 A 
ATOM     20  C   UNL     1       4.427  -5.009   1.610  0.00  0.00    +0.000 A 
ATOM     21  C   UNL     1       3.506  -6.034   1.811  0.00  0.00    +0.000 A 
ATOM     22  C   UNL     1       2.138  -5.781   1.690  0.00  0.00    +0.000 A 
ATOM     23  C   UNL     1       1.707  -4.515   1.282  0.00  0.00    +0.000 A 
BRANCH  22  24
ATOM     24  O   UNL     1       1.167  -6.742   1.880  0.00  0.00    +0.000 OA
BRANCH  24  25
ATOM     25  C   UNL     1       1.343  -7.670   2.902  0.00  0.00    +0.000 A 
ATOM     26  C   UNL     1       0.661  -8.872   2.774  0.00  0.00    +0.000 A 
ATOM     27  C   UNL     1       0.831  -9.837   3.764  0.00  0.00    +0.000 A 
ATOM     28  C   UNL     1       1.667  -9.567   4.843  0.00  0.00    +0.000 A 
ATOM     29  C   UNL     1       2.283  -8.330   4.901  0.00  0.00    +0.000 A 
ATOM     30  N   UNL     1       2.128  -7.372   3.963  0.00  0.00    +0.000 NA
ENDBRANCH  24  25
ENDBRANCH  22  24
ENDBRANCH  17  18
ENDBRANCH  16  17
ENDBRANCH   2  16
TORSDOF 9
