REMARK  Name = 
REMARK  5 active torsions:
REMARK  status: ('A' for Active; 'I' for Inactive)
REMARK    1  A    between atoms: N_3  and  C_4
REMARK    2  A    between atoms: C_4  and  C_5
REMARK    3  A    between atoms: C_8  and  O_9
REMARK    4  A    between atoms: N_14  and  C_15
REMARK    5  A    between atoms: C_18  and  N_19
REMARK                            x       y       z     vdW  Elec       q    Type
REMARK                         _______ _______ _______ _____ _____    ______ ____
ROOT
ATOM      1  O   UNL     1       2.497  -1.239  -0.521  0.00  0.00    +0.000 OA
ATOM      2  C   UNL     1       2.177  -0.092  -0.256  0.00  0.00    +0.000 C 
ATOM      3  N   UNL     1       0.860   0.296  -0.186  0.00  0.00    +0.000 N 
ATOM      4  N   UNL     1       3.024   0.948   0.046  0.00  0.00    +0.000 N 
ATOM      5  H   UNL     1       0.671   1.247  -0.470  0.00  0.00    +0.000 HD
ATOM      6  H   UNL     1       2.602   1.749   0.491  0.00  0.00    +0.000 HD
ENDROOT
BRANCH   4   7
ATOM      7  C   UNL     1       4.428   0.917  -0.029  0.00  0.00    +0.000 A 
ATOM      8  C   UNL     1       5.122  -0.077  -0.719  0.00  0.00    +0.000 A 
ATOM      9  C   UNL     1       6.505  -0.001  -0.880  0.00  0.00    +0.000 A 
ATOM     10  C   UNL     1       7.206   1.095  -0.371  0.00  0.00    +0.000 A 
ATOM     11  C   UNL     1       6.530   2.039   0.416  0.00  0.00    +0.000 A 
ATOM     12  C   UNL     1       5.142   1.960   0.564  0.00  0.00    +0.000 A 
BRANCH  10  13
ATOM     13  N   UNL     1       8.497   1.423  -0.880  0.00  0.00    +0.000 N 
ATOM     14  N   UNL     1       8.965   2.694  -0.740  0.00  0.00    +0.000 NA
ATOM     15  N   UNL     1       9.394   3.074  -1.936  0.00  0.00    +0.000 NA
ATOM     16  C   UNL     1       9.480   1.953  -2.714  0.00  0.00    +0.000 A 
ATOM     17  C   UNL     1       9.815   1.798  -4.063  0.00  0.00    +0.000 A 
ATOM     18  C   UNL     1       9.927   0.501  -4.577  0.00  0.00    +0.000 A 
ATOM     19  C   UNL     1       9.740  -0.615  -3.757  0.00  0.00    +0.000 A 
ATOM     20  C   UNL     1       9.336  -0.478  -2.424  0.00  0.00    +0.000 A 
ATOM     21  C   UNL     1       9.153   0.831  -1.956  0.00  0.00    +0.000 A 
ENDBRANCH  10  13
ENDBRANCH   4   7
BRANCH   3  22
ATOM     22  C   UNL     1      -0.166  -0.673  -0.499  0.00  0.00    +0.000 C 
BRANCH  22  23
ATOM     23  C   UNL     1      -1.434  -0.331   0.218  0.00  0.00    +0.000 A 
ATOM     24  C   UNL     1      -1.710  -0.873   1.482  0.00  0.00    +0.000 A 
ATOM     25  C   UNL     1      -2.875  -0.516   2.166  0.00  0.00    +0.000 A 
ATOM     26  C   UNL     1      -3.758   0.394   1.590  0.00  0.00    +0.000 A 
ATOM     27  C   UNL     1      -3.486   0.945   0.339  0.00  0.00    +0.000 A 
ATOM     28  F   UNL     1      -4.328   1.833  -0.210  0.00  0.00    +0.000 F 
ATOM     29  C   UNL     1      -2.330   0.584  -0.339  0.00  0.00    +0.000 A 
ATOM     30  F   UNL     1      -2.054   1.140  -1.528  0.00  0.00    +0.000 F 
BRANCH  26  31
ATOM     31  O   UNL     1      -4.899   0.764   2.243  0.00  0.00    +0.000 OA
ATOM     32  H   UNL     1      -4.951   0.300   3.094  0.00  0.00    +0.000 HD
ENDBRANCH  26  31
ENDBRANCH  22  23
ENDBRANCH   3  22
TORSDOF 5
