REMARK  Name = 
REMARK  5 active torsions:
REMARK  status: ('A' for Active; 'I' for Inactive)
REMARK    1  A    between atoms: C_2  and  C_16
REMARK    2  A    between atoms: N_3  and  C_4
REMARK    3  A    between atoms: C_6  and  C_7
REMARK    4  A    between atoms: C_21  and  O_22
REMARK    5  A    between atoms: O_22  and  C_23
REMARK                            x       y       z     vdW  Elec       q    Type
REMARK                         _______ _______ _______ _____ _____    ______ ____
ROOT
ATOM      1  O   UNL     1       1.171   0.441  -0.746  0.00  0.00    +0.000 OA
ATOM      2  C   UNL     1       2.240   0.060  -0.263  0.00  0.00    +0.000 C 
ATOM      3  N   UNL     1       2.608   0.303   1.051  0.00  0.00    +0.000 N 
ATOM      4  H   UNL     1       3.357  -0.243   1.467  0.00  0.00    +0.000 HD
ENDROOT
BRANCH   3   5
ATOM      5  C   UNL     1       1.890   1.177   1.922  0.00  0.00    +0.000 A 
ATOM      6  C   UNL     1       0.976   2.124   1.438  0.00  0.00    +0.000 A 
ATOM      7  C   UNL     1       0.203   2.930   2.288  0.00  0.00    +0.000 A 
ATOM      8  C   UNL     1       0.432   2.850   3.665  0.00  0.00    +0.000 A 
ATOM      9  C   UNL     1       1.379   1.950   4.170  0.00  0.00    +0.000 A 
ATOM     10  C   UNL     1       2.090   1.118   3.303  0.00  0.00    +0.000 A 
ATOM     11  F   UNL     1       2.956   0.228   3.812  0.00  0.00    +0.000 F 
BRANCH   7  12
ATOM     12  C   UNL     1      -0.842   3.798   1.744  0.00  0.00    +0.000 A 
ATOM     13  N   UNL     1      -1.540   4.724   2.375  0.00  0.00    +0.000 NA
ATOM     14  N   UNL     1      -2.434   5.231   1.463  0.00  0.00    +0.000 NA
ATOM     15  N   UNL     1      -2.305   4.632   0.284  0.00  0.00    +0.000 NA
ATOM     16  N   UNL     1      -1.324   3.741   0.459  0.00  0.00    +0.000 N 
ATOM     17  H   UNL     1      -1.064   3.131  -0.307  0.00  0.00    +0.000 HD
ENDBRANCH   7  12
ENDBRANCH   3   5
BRANCH   2  18
ATOM     18  C   UNL     1       3.162  -0.667  -1.183  0.00  0.00    +0.000 A 
ATOM     19  C   UNL     1       2.797  -0.591  -2.544  0.00  0.00    +0.000 A 
ATOM     20  C   UNL     1       3.587  -1.185  -3.506  0.00  0.00    +0.000 A 
ATOM     21  N   UNL     1       4.739  -1.805  -3.217  0.00  0.00    +0.000 NA
ATOM     22  C   UNL     1       5.084  -1.867  -1.910  0.00  0.00    +0.000 A 
ATOM     23  C   UNL     1       4.314  -1.379  -0.846  0.00  0.00    +0.000 A 
BRANCH  23  24
ATOM     24  O   UNL     1       4.668  -1.600   0.470  0.00  0.00    +0.000 OA
BRANCH  24  25
ATOM     25  C   UNL     1       5.308  -2.800   0.751  0.00  0.00    +0.000 A 
ATOM     26  C   UNL     1       6.435  -2.760   1.575  0.00  0.00    +0.000 A 
ATOM     27  C   UNL     1       7.167  -3.932   1.807  0.00  0.00    +0.000 A 
ATOM     28  C   UNL     1       6.763  -5.126   1.216  0.00  0.00    +0.000 A 
ATOM     29  F   UNL     1       7.488  -6.237   1.402  0.00  0.00    +0.000 F 
ATOM     30  C   UNL     1       5.620  -5.181   0.428  0.00  0.00    +0.000 A 
ATOM     31  C   UNL     1       4.872  -4.022   0.222  0.00  0.00    +0.000 A 
ENDBRANCH  24  25
ENDBRANCH  23  24
ENDBRANCH   2  18
TORSDOF 5
