REMARK  Name = 
REMARK  6 active torsions:
REMARK  status: ('A' for Active; 'I' for Inactive)
REMARK    1  A    between atoms: C_2  and  C_3
REMARK    2  A    between atoms: C_3  and  C_4
REMARK    3  A    between atoms: N_13  and  C_14
REMARK    4  A    between atoms: C_14  and  C_15
REMARK    5  A    between atoms: C_17  and  O_18
REMARK    6  A    between atoms: O_18  and  C_19
REMARK                            x       y       z     vdW  Elec       q    Type
REMARK                         _______ _______ _______ _____ _____    ______ ____
ROOT
ATOM      1  C   UNL     1       4.528   1.230   0.183  0.00  0.00    +0.000 C 
ENDROOT
BRANCH   1   2
ATOM      2  C   UNL     1       5.017   2.647   0.370  0.00  0.00    +0.000 A 
ATOM      3  C   UNL     1       5.326   3.108   1.644  0.00  0.00    +0.000 A 
ATOM      4  C   UNL     1       5.963   4.339   1.772  0.00  0.00    +0.000 A 
ATOM      5  C   UNL     1       6.132   5.140   0.650  0.00  0.00    +0.000 A 
ATOM      6  C   UNL     1       5.721   4.639  -0.572  0.00  0.00    +0.000 A 
ATOM      7  N   UNL     1       5.189   3.407  -0.741  0.00  0.00    +0.000 NA
BRANCH   4   8
ATOM      8  O   UNL     1       6.429   4.846   2.965  0.00  0.00    +0.000 OA
BRANCH   8   9
ATOM      9  C   UNL     1       6.926   3.987   3.922  0.00  0.00    +0.000 A 
ATOM     10  C   UNL     1       7.598   2.788   3.638  0.00  0.00    +0.000 A 
ATOM     11  C   UNL     1       8.004   1.946   4.676  0.00  0.00    +0.000 A 
ATOM     12  C   UNL     1       7.799   2.338   5.993  0.00  0.00    +0.000 A 
ATOM     13  F   UNL     1       8.187   1.527   6.986  0.00  0.00    +0.000 F 
ATOM     14  C   UNL     1       7.205   3.562   6.277  0.00  0.00    +0.000 A 
ATOM     15  F   UNL     1       7.044   3.952   7.549  0.00  0.00    +0.000 F 
ATOM     16  C   UNL     1       6.767   4.392   5.249  0.00  0.00    +0.000 A 
ENDBRANCH   8   9
ENDBRANCH   4   8
ENDBRANCH   1   2
BRANCH   1  19
ATOM     17  O   UNL     1       2.942   0.799   2.459  0.00  0.00    +0.000 OA
ATOM     18  C   UNL     1       2.394   0.904   1.363  0.00  0.00    +0.000 C 
ATOM     19  N   UNL     1       3.090   1.123   0.194  0.00  0.00    +0.000 N 
ATOM     20  H   UNL     1       2.597   1.485  -0.611  0.00  0.00    +0.000 HD
BRANCH  18  21
ATOM     21  C   UNL     1       0.886   0.789   1.187  0.00  0.00    +0.000 C 
BRANCH  21  22
ATOM     22  C   UNL     1       0.190   2.117   1.316  0.00  0.00    +0.000 A 
ATOM     23  C   UNL     1      -0.520   2.657   0.297  0.00  0.00    +0.000 A 
ATOM     24  C   UNL     1      -1.160   3.915   0.469  0.00  0.00    +0.000 A 
ATOM     25  C   UNL     1      -1.920   4.766  -0.300  0.00  0.00    +0.000 A 
ATOM     26  N   UNL     1      -2.269   5.888   0.411  0.00  0.00    +0.000 NA
ATOM     27  C   UNL     1      -1.731   5.724   1.601  0.00  0.00    +0.000 A 
ATOM     28  N   UNL     1      -1.045   4.540   1.700  0.00  0.00    +0.000 N 
ATOM     29  C   UNL     1      -0.344   3.992   2.768  0.00  0.00    +0.000 A 
ATOM     30  C   UNL     1       0.267   2.805   2.611  0.00  0.00    +0.000 A 
ENDBRANCH  21  22
ENDBRANCH  18  21
ENDBRANCH   1  19
TORSDOF 6
