REMARK  Name = 
REMARK  4 active torsions:
REMARK  status: ('A' for Active; 'I' for Inactive)
REMARK    1  A    between atoms: C_2  and  C_17
REMARK    2  A    between atoms: N_3  and  C_4
REMARK    3  A    between atoms: C_7  and  C_8
REMARK    4  A    between atoms: C_19  and  C_20
REMARK                            x       y       z     vdW  Elec       q    Type
REMARK                         _______ _______ _______ _____ _____    ______ ____
ROOT
ATOM      1  O   UNL     1       0.905   0.210  -0.212  0.00  0.00    +0.000 OA
ATOM      2  C   UNL     1       2.099   0.026   0.018  0.00  0.00    +0.000 C 
ATOM      3  N   UNL     1       2.769  -1.148  -0.305  0.00  0.00    +0.000 N 
ATOM      4  H   UNL     1       3.613  -1.329   0.234  0.00  0.00    +0.000 HD
ENDROOT
BRANCH   3   5
ATOM      5  C   UNL     1       2.138  -2.259  -0.899  0.00  0.00    +0.000 A 
ATOM      6  C   UNL     1       2.415  -3.531  -0.381  0.00  0.00    +0.000 A 
ATOM      7  F   UNL     1       3.230  -3.590   0.688  0.00  0.00    +0.000 F 
ATOM      8  C   UNL     1       1.803  -4.697  -0.880  0.00  0.00    +0.000 A 
ATOM      9  C   UNL     1       0.953  -4.528  -1.992  0.00  0.00    +0.000 A 
ATOM     10  C   UNL     1       0.686  -3.263  -2.531  0.00  0.00    +0.000 A 
ATOM     11  C   UNL     1       1.263  -2.126  -1.973  0.00  0.00    +0.000 A 
BRANCH   8  12
ATOM     12  C   UNL     1       1.999  -6.028  -0.252  0.00  0.00    +0.000 A 
ATOM     13  C   UNL     1       0.995  -7.012  -0.286  0.00  0.00    +0.000 A 
ATOM     14  C   UNL     1       1.204  -8.238   0.335  0.00  0.00    +0.000 A 
ATOM     15  N   UNL     1       2.330  -8.559   1.000  0.00  0.00    +0.000 NA
ATOM     16  C   UNL     1       3.288  -7.614   1.040  0.00  0.00    +0.000 A 
ATOM     17  C   UNL     1       3.173  -6.370   0.432  0.00  0.00    +0.000 A 
ENDBRANCH   8  12
ENDBRANCH   3   5
BRANCH   2  18
ATOM     18  C   UNL     1       2.928   0.986   0.716  0.00  0.00    +0.000 A 
ATOM     19  N   UNL     1       4.244   0.977   0.824  0.00  0.00    +0.000 NA
ATOM     20  C   UNL     1       4.487   2.144   1.527  0.00  0.00    +0.000 A 
ATOM     21  N   UNL     1       3.376   2.798   1.895  0.00  0.00    +0.000 NA
ATOM     22  O   UNL     1       2.343   2.038   1.347  0.00  0.00    +0.000 OA
BRANCH  20  23
ATOM     23  C   UNL     1       5.836   2.630   1.802  0.00  0.00    +0.000 A 
ATOM     24  C   UNL     1       6.948   1.986   1.242  0.00  0.00    +0.000 A 
ATOM     25  C   UNL     1       8.238   2.475   1.471  0.00  0.00    +0.000 A 
ATOM     26  C   UNL     1       8.430   3.606   2.263  0.00  0.00    +0.000 A 
ATOM     27  C   UNL     1       7.333   4.250   2.830  0.00  0.00    +0.000 A 
ATOM     28  C   UNL     1       6.043   3.765   2.600  0.00  0.00    +0.000 A 
ENDBRANCH  20  23
ENDBRANCH   2  18
TORSDOF 4
