REMARK  Name = 
REMARK  8 active torsions:
REMARK  status: ('A' for Active; 'I' for Inactive)
REMARK    1  A    between atoms: N_3  and  C_4
REMARK    2  A    between atoms: C_4  and  C_5
REMARK    3  A    between atoms: C_8  and  C_9
REMARK    4  A    between atoms: C_9  and  O_10
REMARK    5  A    between atoms: O_10  and  C_11
REMARK    6  A    between atoms: N_19  and  C_20
REMARK    7  A    between atoms: C_25  and  C_26
REMARK    8  A    between atoms: C_26  and  N_27
REMARK                            x       y       z     vdW  Elec       q    Type
REMARK                         _______ _______ _______ _____ _____    ______ ____
ROOT
ATOM      1  O   UNL     1       1.131   0.430  -0.400  0.00  0.00    +0.000 OA
ATOM      2  C   UNL     1       2.349   0.322  -0.308  0.00  0.00    +0.000 C 
ATOM      3  N   UNL     1       3.079  -0.355  -1.259  0.00  0.00    +0.000 N 
ATOM      4  N   UNL     1       3.156   0.858   0.677  0.00  0.00    +0.000 N 
ATOM      5  H   UNL     1       3.897  -0.833  -0.906  0.00  0.00    +0.000 HD
ATOM      6  H   UNL     1       4.146   0.888   0.469  0.00  0.00    +0.000 HD
ENDROOT
BRANCH   4   7
ATOM      7  C   UNL     1       2.708   1.462   1.881  0.00  0.00    +0.000 A 
ATOM      8  C   UNL     1       1.399   1.256   2.342  0.00  0.00    +0.000 A 
ATOM      9  C   UNL     1       0.947   1.809   3.540  0.00  0.00    +0.000 A 
ATOM     10  C   UNL     1       1.809   2.562   4.321  0.00  0.00    +0.000 A 
ATOM     11  C   UNL     1       3.113   2.785   3.886  0.00  0.00    +0.000 A 
ATOM     12  C   UNL     1       3.577   2.267   2.655  0.00  0.00    +0.000 A 
BRANCH  12  13
ATOM     13  C   UNL     1       4.948   2.707   2.200  0.00  0.00    +0.000 C 
BRANCH  13  14
ATOM     14  N   UNL     1       6.031   1.861   2.683  0.00  0.00    +0.000 N 
ATOM     15  C   UNL     1       6.754   2.044   3.833  0.00  0.00    +0.000 A 
ATOM     16  C   UNL     1       7.829   1.192   3.753  0.00  0.00    +0.000 A 
ATOM     17  C   UNL     1       7.668   0.536   2.520  0.00  0.00    +0.000 A 
ATOM     18  N   UNL     1       6.574   0.934   1.861  0.00  0.00    +0.000 NA
ENDBRANCH  13  14
ENDBRANCH  12  13
ENDBRANCH   4   7
BRANCH   3  19
ATOM     19  C   UNL     1       2.345  -1.056  -2.303  0.00  0.00    +0.000 C 
BRANCH  19  20
ATOM     20  C   UNL     1       3.308  -1.677  -3.248  0.00  0.00    +0.000 A 
ATOM     21  N   UNL     1       3.736  -2.934  -3.064  0.00  0.00    +0.000 NA
ATOM     22  O   UNL     1       4.622  -3.185  -4.098  0.00  0.00    +0.000 OA
ATOM     23  C   UNL     1       4.721  -2.081  -4.886  0.00  0.00    +0.000 A 
ATOM     24  C   UNL     1       3.901  -1.097  -4.392  0.00  0.00    +0.000 A 
BRANCH  23  25
ATOM     25  C   UNL     1       5.649  -2.158  -6.036  0.00  0.00    +0.000 C 
BRANCH  25  26
ATOM     26  O   UNL     1       6.907  -1.694  -5.551  0.00  0.00    +0.000 OA
BRANCH  26  27
ATOM     27  C   UNL     1       7.935  -1.611  -6.448  0.00  0.00    +0.000 A 
ATOM     28  C   UNL     1       9.147  -1.191  -5.891  0.00  0.00    +0.000 A 
ATOM     29  C   UNL     1      10.287  -1.047  -6.685  0.00  0.00    +0.000 A 
ATOM     30  C   UNL     1      10.225  -1.321  -8.050  0.00  0.00    +0.000 A 
ATOM     31  C   UNL     1       9.022  -1.742  -8.616  0.00  0.00    +0.000 A 
ATOM     32  C   UNL     1       7.888  -1.887  -7.817  0.00  0.00    +0.000 A 
ATOM     33  F   UNL     1       6.758  -2.295  -8.411  0.00  0.00    +0.000 F 
ENDBRANCH  26  27
ENDBRANCH  25  26
ENDBRANCH  23  25
ENDBRANCH  19  20
ENDBRANCH   3  19
TORSDOF 8
