REMARK  Name = 
REMARK  6 active torsions:
REMARK  status: ('A' for Active; 'I' for Inactive)
REMARK    1  A    between atoms: C_2  and  C_18
REMARK    2  A    between atoms: N_3  and  C_4
REMARK    3  A    between atoms: C_7  and  O_8
REMARK    4  A    between atoms: O_8  and  C_9
REMARK    5  A    between atoms: C_9  and  C_10
REMARK    6  A    between atoms: C_22  and  C_23
REMARK                            x       y       z     vdW  Elec       q    Type
REMARK                         _______ _______ _______ _____ _____    ______ ____
ROOT
ATOM      1  O   UNL     1       1.120   0.230   0.336  0.00  0.00    +0.000 OA
ATOM      2  C   UNL     1       2.309   0.101   0.071  0.00  0.00    +0.000 C 
ATOM      3  N   UNL     1       2.921   0.361  -1.137  0.00  0.00    +0.000 N 
ATOM      4  H   UNL     1       3.858   0.005  -1.270  0.00  0.00    +0.000 HD
ENDROOT
BRANCH   3   5
ATOM      5  C   UNL     1       2.293   0.890  -2.278  0.00  0.00    +0.000 A 
ATOM      6  C   UNL     1       1.046   1.517  -2.253  0.00  0.00    +0.000 A 
ATOM      7  C   UNL     1       0.475   1.994  -3.433  0.00  0.00    +0.000 A 
ATOM      8  C   UNL     1       1.151   1.861  -4.643  0.00  0.00    +0.000 A 
ATOM      9  C   UNL     1       2.391   1.222  -4.674  0.00  0.00    +0.000 A 
ATOM     10  C   UNL     1       2.970   0.761  -3.492  0.00  0.00    +0.000 A 
BRANCH   8  11
ATOM     11  O   UNL     1       0.515   2.387  -5.731  0.00  0.00    +0.000 OA
BRANCH  11  12
ATOM     12  C   UNL     1       1.374   2.707  -6.828  0.00  0.00    +0.000 C 
BRANCH  12  13
ATOM     13  C   UNL     1       0.733   3.723  -7.731  0.00  0.00    +0.000 A 
ATOM     14  C   UNL     1      -0.637   3.731  -7.967  0.00  0.00    +0.000 A 
ATOM     15  N   UNL     1      -1.234   4.623  -8.793  0.00  0.00    +0.000 NA
ATOM     16  C   UNL     1      -0.402   5.512  -9.376  0.00  0.00    +0.000 A 
ATOM     17  C   UNL     1       0.963   5.508  -9.159  0.00  0.00    +0.000 A 
ATOM     18  N   UNL     1       1.560   4.613  -8.344  0.00  0.00    +0.000 NA
ENDBRANCH  12  13
ENDBRANCH  11  12
ENDBRANCH   8  11
ENDBRANCH   3   5
BRANCH   2  19
ATOM     19  C   UNL     1       3.194  -0.480   1.110  0.00  0.00    +0.000 A 
ATOM     20  C   UNL     1       4.536  -0.104   1.243  0.00  0.00    +0.000 A 
ATOM     21  C   UNL     1       5.309  -0.657   2.265  0.00  0.00    +0.000 A 
ATOM     22  C   UNL     1       4.740  -1.577   3.150  0.00  0.00    +0.000 A 
ATOM     23  C   UNL     1       3.398  -1.957   3.014  0.00  0.00    +0.000 A 
ATOM     24  C   UNL     1       2.625  -1.400   1.996  0.00  0.00    +0.000 A 
BRANCH  23  25
ATOM     25  C   UNL     1       2.796  -2.885   4.006  0.00  0.00    +0.000 A 
ATOM     26  N   UNL     1       3.196  -2.830   5.242  0.00  0.00    +0.000 NA
ATOM     27  N   UNL     1       2.582  -3.668   6.126  0.00  0.00    +0.000 N 
ATOM     28  C   UNL     1       1.576  -4.553   5.830  0.00  0.00    +0.000 A 
ATOM     29  O   UNL     1       1.035  -5.262   6.668  0.00  0.00    +0.000 OA
ATOM     30  C   UNL     1       1.178  -4.619   4.413  0.00  0.00    +0.000 A 
ATOM     31  C   UNL     1       1.761  -3.826   3.511  0.00  0.00    +0.000 A 
ATOM     32  H   UNL     1       2.867  -3.591   7.096  0.00  0.00    +0.000 HD
ENDBRANCH  23  25
ENDBRANCH   2  19
TORSDOF 6
