REMARK  Name = 
REMARK  6 active torsions:
REMARK  status: ('A' for Active; 'I' for Inactive)
REMARK    1  A    between atoms: C_1  and  N_2
REMARK    2  A    between atoms: C_4  and  C_5
REMARK    3  A    between atoms: C_5  and  C_6
REMARK    4  A    between atoms: C_13  and  N_14
REMARK    5  A    between atoms: C_15  and  C_17
REMARK    6  A    between atoms: C_20  and  C_21
REMARK                            x       y       z     vdW  Elec       q    Type
REMARK                         _______ _______ _______ _____ _____    ______ ____
ROOT
ATOM      1  N   UNL     1      -0.423  -2.441   0.137  0.00  0.00    +0.000 N 
ATOM      2  C   UNL     1       0.405  -3.563   0.508  0.00  0.00    +0.000 C 
ATOM      3  O   UNL     1       1.567  -3.408   0.867  0.00  0.00    +0.000 OA
ATOM      4  H   UNL     1      -1.398  -2.604  -0.093  0.00  0.00    +0.000 HD
ENDROOT
BRANCH   2   5
ATOM      5  C   UNL     1      -0.188  -4.916   0.491  0.00  0.00    +0.000 A 
ATOM      6  C   UNL     1       0.579  -6.017   0.890  0.00  0.00    +0.000 A 
ATOM      7  C   UNL     1       0.009  -7.298   0.925  0.00  0.00    +0.000 A 
ATOM      8  C   UNL     1      -1.331  -7.513   0.553  0.00  0.00    +0.000 A 
ATOM      9  C   UNL     1      -2.072  -6.393   0.135  0.00  0.00    +0.000 A 
ATOM     10  C   UNL     1      -1.505  -5.120   0.107  0.00  0.00    +0.000 A 
ATOM     11  F   UNL     1      -2.264  -4.090  -0.295  0.00  0.00    +0.000 F 
BRANCH   8  12
ATOM     12  C   UNL     1      -1.940  -8.855   0.592  0.00  0.00    +0.000 A 
ATOM     13  C   UNL     1      -3.280  -9.080   0.877  0.00  0.00    +0.000 A 
ATOM     14  N   UNL     1      -3.874 -10.292   0.903  0.00  0.00    +0.000 NA
ATOM     15  C   UNL     1      -3.076 -11.335   0.640  0.00  0.00    +0.000 A 
ATOM     16  N   UNL     1      -1.770 -11.265   0.356  0.00  0.00    +0.000 NA
ATOM     17  C   UNL     1      -1.238 -10.024   0.337  0.00  0.00    +0.000 A 
ENDBRANCH   8  12
ENDBRANCH   2   5
BRANCH   1  23
ATOM     18  C   UNL     1      -2.110   0.202  -0.053  0.00  0.00    +0.000 C 
ATOM     19  N   UNL     1      -0.678   0.033  -0.016  0.00  0.00    +0.000 N 
ATOM     20  N   UNL     1       0.084   1.142  -0.081  0.00  0.00    +0.000 NA
ATOM     21  C   UNL     1       1.339   0.688   0.021  0.00  0.00    +0.000 A 
ATOM     22  C   UNL     1       1.365  -0.722   0.116  0.00  0.00    +0.000 A 
ATOM     23  C   UNL     1       0.053  -1.130   0.095  0.00  0.00    +0.000 A 
BRANCH  21  24
ATOM     24  C   UNL     1       2.507   1.610  -0.076  0.00  0.00    +0.000 C 
BRANCH  24  25
ATOM     25  C   UNL     1       2.873   2.018   1.329  0.00  0.00    +0.000 A 
ATOM     26  C   UNL     1       3.823   1.297   2.071  0.00  0.00    +0.000 A 
ATOM     27  C   UNL     1       4.192   1.719   3.350  0.00  0.00    +0.000 A 
ATOM     28  C   UNL     1       3.619   2.863   3.903  0.00  0.00    +0.000 A 
ATOM     29  C   UNL     1       2.670   3.583   3.181  0.00  0.00    +0.000 A 
ATOM     30  C   UNL     1       2.294   3.160   1.905  0.00  0.00    +0.000 A 
ENDBRANCH  24  25
ENDBRANCH  21  24
ENDBRANCH   1  23
TORSDOF 5
