REMARK  Name = 
REMARK  5 active torsions:
REMARK  status: ('A' for Active; 'I' for Inactive)
REMARK    1  A    between atoms: C_2  and  C_3
REMARK    2  A    between atoms: C_7  and  N_8
REMARK    3  A    between atoms: N_8  and  C_9
REMARK    4  A    between atoms: C_9  and  C_10
REMARK    5  A    between atoms: C_18  and  C_20
REMARK                            x       y       z     vdW  Elec       q    Type
REMARK                         _______ _______ _______ _____ _____    ______ ____
ROOT
ATOM      1  N   UNL     1      -2.326  -2.347  -0.164  0.00  0.00    +0.000 N 
ATOM      2  C   UNL     1      -3.719  -2.427  -0.089  0.00  0.00    +0.000 C 
ATOM      3  O   UNL     1      -4.402  -1.397  -0.155  0.00  0.00    +0.000 OA
ENDROOT
BRANCH   2   4
ATOM      4  C   UNL     1      -4.434  -3.708  -0.031  0.00  0.00    +0.000 A 
ATOM      5  C   UNL     1      -5.700  -3.827  -0.604  0.00  0.00    +0.000 A 
ATOM      6  N   UNL     1      -6.159  -5.101  -0.437  0.00  0.00    +0.000 N 
ATOM      7  C   UNL     1      -5.232  -5.836   0.252  0.00  0.00    +0.000 A 
ATOM      8  C   UNL     1      -5.234  -7.178   0.636  0.00  0.00    +0.000 A 
ATOM      9  C   UNL     1      -4.127  -7.610   1.355  0.00  0.00    +0.000 A 
ATOM     10  C   UNL     1      -3.139  -6.697   1.676  0.00  0.00    +0.000 A 
ATOM     11  N   UNL     1      -3.137  -5.397   1.327  0.00  0.00    +0.000 NA
ATOM     12  C   UNL     1      -4.176  -4.978   0.566  0.00  0.00    +0.000 A 
ATOM     13  H   UNL     1      -7.051  -5.449  -0.764  0.00  0.00    +0.000 HD
ENDBRANCH   2   4
BRANCH   1  18
ATOM     14  C   UNL     1      -1.325   1.163   0.325  0.00  0.00    +0.000 A 
ATOM     15  C   UNL     1      -1.099   1.533  -1.000  0.00  0.00    +0.000 A 
ATOM     16  C   UNL     1      -1.203   0.552  -1.969  0.00  0.00    +0.000 A 
ATOM     17  N   UNL     1      -1.528  -0.732  -1.705  0.00  0.00    +0.000 NA
ATOM     18  C   UNL     1      -1.794  -1.058  -0.422  0.00  0.00    +0.000 A 
ATOM     19  C   UNL     1      -1.668  -0.151   0.626  0.00  0.00    +0.000 A 
BRANCH  14  21
ATOM     20  N   UNL     1      -1.166   2.949   2.204  0.00  0.00    +0.000 NA
ATOM     21  C   UNL     1      -1.239   2.145   1.364  0.00  0.00    +0.000 C 
ENDBRANCH  14  21
ENDBRANCH   1  18
BRANCH   1  22
ATOM     22  C   UNL     1      -1.334  -3.386   0.090  0.00  0.00    +0.000 C 
BRANCH  22  23
ATOM     23  C   UNL     1      -1.008  -4.348  -1.029  0.00  0.00    +0.000 A 
ATOM     24  C   UNL     1      -1.280  -4.088  -2.380  0.00  0.00    +0.000 A 
ATOM     25  C   UNL     1      -0.693  -4.870  -3.379  0.00  0.00    +0.000 A 
ATOM     26  C   UNL     1       0.154  -5.918  -3.033  0.00  0.00    +0.000 A 
ATOM     27  F   UNL     1       0.789  -6.601  -3.995  0.00  0.00    +0.000 F 
ATOM     28  C   UNL     1       0.373  -6.248  -1.706  0.00  0.00    +0.000 A 
ATOM     29  C   UNL     1      -0.218  -5.468  -0.718  0.00  0.00    +0.000 A 
ATOM     30  F   UNL     1       0.037  -5.768   0.564  0.00  0.00    +0.000 F 
ENDBRANCH  22  23
ENDBRANCH   1  22
TORSDOF 5
