REMARK  Name = 
REMARK  4 active torsions:
REMARK  status: ('A' for Active; 'I' for Inactive)
REMARK    1  A    between atoms: C_2  and  C_4
REMARK    2  A    between atoms: C_10  and  N_11
REMARK    3  A    between atoms: C_12  and  C_14
REMARK    4  A    between atoms: C_16  and  C_17
REMARK                            x       y       z     vdW  Elec       q    Type
REMARK                         _______ _______ _______ _____ _____    ______ ____
ROOT
ATOM      1  N   UNL     1       3.510  -5.065   2.643  0.00  0.00    +0.000 N 
ATOM      2  C   UNL     1       3.643  -6.294   3.287  0.00  0.00    +0.000 C 
ATOM      3  O   UNL     1       4.545  -6.632   4.048  0.00  0.00    +0.000 OA
ATOM      4  H   UNL     1       2.790  -4.976   1.942  0.00  0.00    +0.000 HD
ENDROOT
BRANCH   1  11
ATOM      5  C   UNL     1       3.535  -1.074   0.653  0.00  0.00    +0.000 A 
ATOM      6  C   UNL     1       4.586  -0.596   1.405  0.00  0.00    +0.000 A 
ATOM      7  C   UNL     1       5.001  -1.618   2.292  0.00  0.00    +0.000 A 
ATOM      8  C   UNL     1       6.026  -1.658   3.248  0.00  0.00    +0.000 A 
ATOM      9  C   UNL     1       6.209  -2.816   3.988  0.00  0.00    +0.000 A 
ATOM     10  C   UNL     1       5.387  -3.920   3.783  0.00  0.00    +0.000 A 
ATOM     11  C   UNL     1       4.347  -3.931   2.834  0.00  0.00    +0.000 A 
ATOM     12  C   UNL     1       4.177  -2.735   2.093  0.00  0.00    +0.000 A 
ATOM     13  N   UNL     1       3.285  -2.360   1.101  0.00  0.00    +0.000 N 
ATOM     14  H   UNL     1       2.545  -2.936   0.724  0.00  0.00    +0.000 HD
BRANCH   5  16
ATOM     15  N   UNL     1       3.238   0.787  -0.798  0.00  0.00    +0.000 N 
ATOM     16  C   UNL     1       2.780  -0.438  -0.398  0.00  0.00    +0.000 C 
ATOM     17  O   UNL     1       1.798  -0.940  -0.930  0.00  0.00    +0.000 OA
ATOM     18  H   UNL     1       2.768   1.247  -1.564  0.00  0.00    +0.000 HD
ATOM     19  H   UNL     1       4.102   1.185  -0.462  0.00  0.00    +0.000 HD
ENDBRANCH   5  16
ENDBRANCH   1  11
BRANCH   2  20
ATOM     20  C   UNL     1       2.596  -7.319   3.021  0.00  0.00    +0.000 A 
ATOM     21  C   UNL     1       2.958  -8.681   3.121  0.00  0.00    +0.000 A 
ATOM     22  C   UNL     1       2.018  -9.715   2.949  0.00  0.00    +0.000 A 
ATOM     23  C   UNL     1       0.695  -9.332   2.674  0.00  0.00    +0.000 A 
ATOM     24  C   UNL     1       0.338  -7.987   2.594  0.00  0.00    +0.000 A 
ATOM     25  F   UNL     1      -0.939  -7.661   2.358  0.00  0.00    +0.000 F 
ATOM     26  C   UNL     1       1.272  -6.974   2.768  0.00  0.00    +0.000 A 
BRANCH  22  27
ATOM     27  C   UNL     1       2.387 -11.146   3.034  0.00  0.00    +0.000 A 
ATOM     28  C   UNL     1       3.400 -11.632   3.863  0.00  0.00    +0.000 A 
ATOM     29  C   UNL     1       3.692 -12.996   3.861  0.00  0.00    +0.000 A 
ATOM     30  C   UNL     1       2.967 -13.847   3.039  0.00  0.00    +0.000 A 
ATOM     31  C   UNL     1       1.969 -13.296   2.257  0.00  0.00    +0.000 A 
ATOM     32  N   UNL     1       1.665 -11.979   2.241  0.00  0.00    +0.000 NA
ENDBRANCH  22  27
ENDBRANCH   2  20
TORSDOF 4
