REMARK  Name = 
REMARK  5 active torsions:
REMARK  status: ('A' for Active; 'I' for Inactive)
REMARK    1  A    between atoms: C_2  and  C_3
REMARK    2  A    between atoms: C_5  and  C_6
REMARK    3  A    between atoms: C_12  and  C_14
REMARK    4  A    between atoms: C_17  and  C_18
REMARK    5  A    between atoms: C_18  and  N_19
REMARK                            x       y       z     vdW  Elec       q    Type
REMARK                         _______ _______ _______ _____ _____    ______ ____
ROOT
ATOM      1  C   UNL     1       0.656   5.084   2.000  0.00  0.00    +0.000 A 
ATOM      2  C   UNL     1       0.309   3.817   1.546  0.00  0.00    +0.000 A 
ATOM      3  C   UNL     1       0.883   3.348   0.367  0.00  0.00    +0.000 A 
ATOM      4  C   UNL     1       1.785   4.152  -0.329  0.00  0.00    +0.000 A 
ATOM      5  C   UNL     1       2.075   5.414   0.168  0.00  0.00    +0.000 A 
ATOM      6  N   UNL     1       2.986   6.229  -0.539  0.00  0.00    +0.000 N 
ATOM      7  C   UNL     1       3.310   7.512  -0.141  0.00  0.00    +0.000 C 
ATOM      8  O   UNL     1       2.865   8.085   0.845  0.00  0.00    +0.000 OA
ATOM      9  N   UNL     1       1.512   5.866   1.303  0.00  0.00    +0.000 NA
ATOM     10  H   UNL     1       3.393   5.850  -1.379  0.00  0.00    +0.000 HD
ENDROOT
BRANCH   1  13
ATOM     11  C   UNL     1      -0.354   7.612   4.665  0.00  0.00    +0.000 A 
ATOM     12  C   UNL     1       0.002   7.047   3.429  0.00  0.00    +0.000 A 
ATOM     13  C   UNL     1       0.188   5.655   3.280  0.00  0.00    +0.000 A 
ATOM     14  C   UNL     1      -0.018   4.851   4.413  0.00  0.00    +0.000 A 
ATOM     15  C   UNL     1      -0.372   5.418   5.635  0.00  0.00    +0.000 A 
ATOM     16  F   UNL     1      -0.533   4.624   6.701  0.00  0.00    +0.000 F 
ATOM     17  C   UNL     1      -0.539   6.788   5.775  0.00  0.00    +0.000 A 
BRANCH  11  19
ATOM     18  N   UNL     1      -0.654  10.177   4.930  0.00  0.00    +0.000 NA
ATOM     19  C   UNL     1      -0.513   9.034   4.797  0.00  0.00    +0.000 C 
ENDBRANCH  11  19
ENDBRANCH   1  13
BRANCH   7  20
ATOM     20  C   UNL     1       4.246   8.247  -0.994  0.00  0.00    +0.000 A 
ATOM     21  C   UNL     1       4.972   7.860  -2.103  0.00  0.00    +0.000 A 
ATOM     22  O   UNL     1       5.712   8.900  -2.591  0.00  0.00    +0.000 OA
ATOM     23  C   UNL     1       5.483   9.974  -1.780  0.00  0.00    +0.000 A 
ATOM     24  C   UNL     1       4.599   9.618  -0.790  0.00  0.00    +0.000 A 
BRANCH  23  25
ATOM     25  C   UNL     1       6.174  11.252  -2.091  0.00  0.00    +0.000 C 
BRANCH  25  26
ATOM     26  N   UNL     1       7.418  11.365  -1.340  0.00  0.00    +0.000 N 
ATOM     27  C   UNL     1       8.541  10.598  -1.494  0.00  0.00    +0.000 A 
ATOM     28  C   UNL     1       9.441  11.043  -0.556  0.00  0.00    +0.000 A 
ATOM     29  C   UNL     1       8.789  12.112   0.084  0.00  0.00    +0.000 A 
ATOM     30  N   UNL     1       7.564  12.328  -0.403  0.00  0.00    +0.000 NA
ENDBRANCH  25  26
ENDBRANCH  23  25
ENDBRANCH   7  20
TORSDOF 5
