REMARK  Name = 
REMARK  6 active torsions:
REMARK  status: ('A' for Active; 'I' for Inactive)
REMARK    1  A    between atoms: C_1  and  C_2
REMARK    2  A    between atoms: C_3  and  N_4
REMARK    3  A    between atoms: C_5  and  C_7
REMARK    4  A    between atoms: C_10  and  C_11
REMARK    5  A    between atoms: C_14  and  C_15
REMARK    6  A    between atoms: C_25  and  O_26
REMARK                            x       y       z     vdW  Elec       q    Type
REMARK                         _______ _______ _______ _____ _____    ______ ____
ROOT
ATOM      1  N   UNL     1       2.580   2.565  -0.201  0.00  0.00    +0.000 N 
ATOM      2  C   UNL     1       3.207   3.800  -0.281  0.00  0.00    +0.000 C 
ATOM      3  O   UNL     1       4.421   3.977  -0.285  0.00  0.00    +0.000 OA
ATOM      4  H   UNL     1       1.604   2.575  -0.473  0.00  0.00    +0.000 HD
ENDROOT
BRANCH   1   7
ATOM      5  C   UNL     1       1.817   0.431  -2.047  0.00  0.00    +0.000 C 
ATOM      6  C   UNL     1       2.898   0.274  -1.004  0.00  0.00    +0.000 A 
ATOM      7  C   UNL     1       3.266   1.337  -0.158  0.00  0.00    +0.000 A 
ATOM      8  C   UNL     1       4.296   1.161   0.767  0.00  0.00    +0.000 A 
ATOM      9  C   UNL     1       4.955  -0.066   0.867  0.00  0.00    +0.000 A 
ATOM     10  C   UNL     1       4.656  -1.124   0.027  0.00  0.00    +0.000 A 
ATOM     11  N   UNL     1       5.372  -2.256   0.157  0.00  0.00    +0.000 NA
ATOM     12  C   UNL     1       5.112  -3.246  -0.708  0.00  0.00    +0.000 A 
ATOM     13  C   UNL     1       4.174  -3.203  -1.707  0.00  0.00    +0.000 A 
ATOM     14  C   UNL     1       3.416  -2.044  -1.812  0.00  0.00    +0.000 A 
ATOM     15  C   UNL     1       3.631  -0.955  -0.937  0.00  0.00    +0.000 A 
BRANCH  12  16
ATOM     16  O   UNL     1       5.874  -4.353  -0.530  0.00  0.00    +0.000 OA
ATOM     17  H   UNL     1       6.403  -4.069   0.237  0.00  0.00    +0.000 HD
ENDBRANCH  12  16
ENDBRANCH   1   7
BRANCH   2  18
ATOM     18  C   UNL     1       2.269   4.917  -0.443  0.00  0.00    +0.000 A 
ATOM     19  N   UNL     1       0.939   4.750  -0.337  0.00  0.00    +0.000 NA
ATOM     20  O   UNL     1       0.387   6.009  -0.492  0.00  0.00    +0.000 OA
ATOM     21  C   UNL     1       1.369   6.930  -0.717  0.00  0.00    +0.000 A 
ATOM     22  C   UNL     1       2.578   6.273  -0.721  0.00  0.00    +0.000 A 
BRANCH  21  23
ATOM     23  C   UNL     1       0.940   8.320  -0.858  0.00  0.00    +0.000 A 
ATOM     24  C   UNL     1      -0.417   8.678  -0.772  0.00  0.00    +0.000 A 
ATOM     25  C   UNL     1      -0.816  10.020  -0.837  0.00  0.00    +0.000 A 
ATOM     26  C   UNL     1       0.136  11.034  -0.997  0.00  0.00    +0.000 A 
ATOM     27  C   UNL     1       1.486  10.692  -1.113  0.00  0.00    +0.000 A 
ATOM     28  C   UNL     1       1.871   9.352  -1.045  0.00  0.00    +0.000 A 
ATOM     29  F   UNL     1       3.180   9.079  -1.151  0.00  0.00    +0.000 F 
BRANCH  26  30
ATOM     30  C   UNL     1      -0.262  12.412  -1.024  0.00  0.00    +0.000 C 
ATOM     31  N   UNL     1      -0.583  13.525  -1.037  0.00  0.00    +0.000 NA
ENDBRANCH  26  30
ENDBRANCH  21  23
ENDBRANCH   2  18
TORSDOF 5
