REMARK  Name = 
REMARK  4 active torsions:
REMARK  status: ('A' for Active; 'I' for Inactive)
REMARK    1  A    between atoms: C_2  and  C_15
REMARK    2  A    between atoms: N_3  and  C_4
REMARK    3  A    between atoms: C_17  and  C_18
REMARK    4  A    between atoms: C_23  and  C_24
REMARK                            x       y       z     vdW  Elec       q    Type
REMARK                         _______ _______ _______ _____ _____    ______ ____
ROOT
ATOM      1  O   UNL     1       2.730  -1.075  -0.165  0.00  0.00    +0.000 OA
ATOM      2  C   UNL     1       2.233   0.035  -0.020  0.00  0.00    +0.000 C 
ATOM      3  N   UNL     1       0.955   0.290   0.443  0.00  0.00    +0.000 N 
ATOM      4  H   UNL     1       0.616   1.237   0.349  0.00  0.00    +0.000 HD
ENDROOT
BRANCH   3   5
ATOM      5  C   UNL     1       0.005  -0.670   0.844  0.00  0.00    +0.000 A 
ATOM      6  C   UNL     1       0.334  -2.001   1.119  0.00  0.00    +0.000 A 
ATOM      7  C   UNL     1      -0.661  -2.927   1.424  0.00  0.00    +0.000 A 
ATOM      8  C   UNL     1      -1.991  -2.515   1.452  0.00  0.00    +0.000 A 
ATOM      9  C   UNL     1      -3.078  -3.477   1.687  0.00  0.00    +0.000 A 
ATOM     10  O   UNL     1      -2.867  -4.665   1.903  0.00  0.00    +0.000 OA
ATOM     11  N   UNL     1      -4.344  -2.958   1.635  0.00  0.00    +0.000 N 
ATOM     12  C   UNL     1      -4.595  -1.633   1.420  0.00  0.00    +0.000 A 
ATOM     13  N   UNL     1      -3.681  -0.743   1.232  0.00  0.00    +0.000 NA
ATOM     14  C   UNL     1      -2.344  -1.181   1.224  0.00  0.00    +0.000 A 
ATOM     15  C   UNL     1      -1.332  -0.258   0.942  0.00  0.00    +0.000 A 
ATOM     16  H   UNL     1      -5.100  -3.613   1.775  0.00  0.00    +0.000 HD
ENDBRANCH   3   5
BRANCH   2  17
ATOM     17  C   UNL     1       2.974   1.212  -0.390  0.00  0.00    +0.000 A 
ATOM     18  C   UNL     1       2.733   2.564  -0.275  0.00  0.00    +0.000 A 
ATOM     19  C   UNL     1       3.847   3.209  -0.876  0.00  0.00    +0.000 A 
ATOM     20  N   UNL     1       4.769   2.312  -1.243  0.00  0.00    +0.000 NA
ATOM     21  N   UNL     1       4.189   1.125  -1.012  0.00  0.00    +0.000 N 
ATOM     22  H   UNL     1       4.665   0.275  -1.302  0.00  0.00    +0.000 HD
BRANCH  19  23
ATOM     23  C   UNL     1       4.055   4.643  -1.050  0.00  0.00    +0.000 A 
ATOM     24  C   UNL     1       3.617   5.498  -0.017  0.00  0.00    +0.000 A 
ATOM     25  C   UNL     1       3.817   6.876  -0.083  0.00  0.00    +0.000 A 
ATOM     26  C   UNL     1       4.484   7.421  -1.170  0.00  0.00    +0.000 A 
ATOM     27  C   UNL     1       4.906   6.592  -2.208  0.00  0.00    +0.000 A 
ATOM     28  C   UNL     1       4.667   5.199  -2.189  0.00  0.00    +0.000 A 
BRANCH  28  29
ATOM     29  C   UNL     1       5.067   4.432  -3.434  0.00  0.00    +0.000 C 
ATOM     30  F   UNL     1       4.548   3.190  -3.610  0.00  0.00    +0.000 F 
ATOM     31  F   UNL     1       4.661   5.110  -4.557  0.00  0.00    +0.000 F 
ATOM     32  F   UNL     1       6.419   4.320  -3.570  0.00  0.00    +0.000 F 
ENDBRANCH  28  29
ENDBRANCH  19  23
ENDBRANCH   2  17
TORSDOF 4
