REMARK  Name = 
REMARK  6 active torsions:
REMARK  status: ('A' for Active; 'I' for Inactive)
REMARK    1  A    between atoms: C_1  and  N_2
REMARK    2  A    between atoms: C_4  and  C_5
REMARK    3  A    between atoms: N_7  and  C_8
REMARK    4  A    between atoms: C_8  and  C_9
REMARK    5  A    between atoms: C_11  and  C_12
REMARK    6  A    between atoms: C_14  and  O_15
REMARK                            x       y       z     vdW  Elec       q    Type
REMARK                         _______ _______ _______ _____ _____    ______ ____
ROOT
ATOM      1  C   UNL     1       5.093  -2.593  -0.572  0.00  0.00    +0.000 C 
ATOM      2  O   UNL     1       6.142  -2.652  -1.198  0.00  0.00    +0.000 OA
ATOM      3  N   UNL     1       4.428  -3.691  -0.064  0.00  0.00    +0.000 N 
ATOM      4  H   UNL     1       3.550  -3.543   0.422  0.00  0.00    +0.000 HD
ENDROOT
BRANCH   1   8
ATOM      5  C   UNL     1       0.986  -0.128  -0.244  0.00  0.00    +0.000 C 
ATOM      6  N   UNL     1       2.442  -0.050  -0.140  0.00  0.00    +0.000 N 
ATOM      7  N   UNL     1       3.110  -1.238  -0.305  0.00  0.00    +0.000 NA
ATOM      8  C   UNL     1       4.415  -1.250  -0.343  0.00  0.00    +0.000 A 
ATOM      9  C   UNL     1       5.213   0.016  -0.188  0.00  0.00    +0.000 A 
ATOM     10  O   UNL     1       6.415  -0.016   0.025  0.00  0.00    +0.000 OA
ATOM     11  C   UNL     1       4.476   1.274  -0.271  0.00  0.00    +0.000 A 
ATOM     12  C   UNL     1       5.168   2.491  -0.360  0.00  0.00    +0.000 A 
ATOM     13  C   UNL     1       4.455   3.683  -0.399  0.00  0.00    +0.000 A 
ATOM     14  C   UNL     1       3.066   3.649  -0.332  0.00  0.00    +0.000 A 
ATOM     15  C   UNL     1       2.389   2.423  -0.241  0.00  0.00    +0.000 A 
ATOM     16  C   UNL     1       3.081   1.199  -0.226  0.00  0.00    +0.000 A 
ENDBRANCH   1   8
BRANCH   3  17
ATOM     17  C   UNL     1       5.013  -5.010  -0.131  0.00  0.00    +0.000 C 
BRANCH  17  18
ATOM     18  C   UNL     1       3.964  -6.081  -0.255  0.00  0.00    +0.000 A 
ATOM     19  C   UNL     1       3.497  -6.458  -1.528  0.00  0.00    +0.000 A 
ATOM     20  C   UNL     1       2.479  -7.415  -1.703  0.00  0.00    +0.000 A 
ATOM     21  C   UNL     1       1.970  -8.021  -0.540  0.00  0.00    +0.000 A 
ATOM     22  C   UNL     1       2.436  -7.671   0.731  0.00  0.00    +0.000 A 
ATOM     23  C   UNL     1       3.417  -6.694   0.875  0.00  0.00    +0.000 A 
BRANCH  20  24
ATOM     24  C   UNL     1       1.927  -7.729  -3.045  0.00  0.00    +0.000 A 
ATOM     25  C   UNL     1       1.852  -6.741  -4.048  0.00  0.00    +0.000 A 
ATOM     26  C   UNL     1       1.270  -7.015  -5.285  0.00  0.00    +0.000 A 
ATOM     27  C   UNL     1       0.747  -8.267  -5.565  0.00  0.00    +0.000 A 
ATOM     28  C   UNL     1       0.819  -9.266  -4.601  0.00  0.00    +0.000 A 
ATOM     29  C   UNL     1       1.410  -9.001  -3.359  0.00  0.00    +0.000 A 
BRANCH  26  30
ATOM     30  O   UNL     1       1.179  -6.056  -6.252  0.00  0.00    +0.000 OA
ATOM     31  H   UNL     1       1.567  -5.234  -5.910  0.00  0.00    +0.000 HD
ENDBRANCH  26  30
ENDBRANCH  20  24
ENDBRANCH  17  18
ENDBRANCH   3  17
TORSDOF 5
