REMARK  Name = 
REMARK  7 active torsions:
REMARK  status: ('A' for Active; 'I' for Inactive)
REMARK    1  A    between atoms: C_1  and  N_2
REMARK    2  A    between atoms: N_2  and  C_3
REMARK    3  A    between atoms: C_3  and  C_4
REMARK    4  A    between atoms: C_11  and  C_13
REMARK    5  A    between atoms: C_18  and  C_19
REMARK    6  A    between atoms: C_22  and  C_23
REMARK    7  A    between atoms: C_23  and  N_24
REMARK                            x       y       z     vdW  Elec       q    Type
REMARK                         _______ _______ _______ _____ _____    ______ ____
ROOT
ATOM      1  C   UNL     1       4.647   0.905   0.912  0.00  0.00    +0.000 A 
ATOM      2  C   UNL     1       5.397   1.323  -0.206  0.00  0.00    +0.000 A 
ATOM      3  C   UNL     1       6.788   1.331  -0.200  0.00  0.00    +0.000 A 
ATOM      4  C   UNL     1       7.460   0.984   0.957  0.00  0.00    +0.000 A 
ATOM      5  C   UNL     1       6.736   0.607   2.092  0.00  0.00    +0.000 A 
ATOM      6  C   UNL     1       5.317   0.551   2.119  0.00  0.00    +0.000 A 
ENDROOT
BRANCH   6   7
ATOM      7  C   UNL     1       4.657   0.139   3.399  0.00  0.00    +0.000 A 
ATOM      8  C   UNL     1       5.199   0.502   4.651  0.00  0.00    +0.000 A 
ATOM      9  C   UNL     1       4.606   0.123   5.864  0.00  0.00    +0.000 A 
ATOM     10  C   UNL     1       3.420  -0.613   5.874  0.00  0.00    +0.000 A 
ATOM     11  C   UNL     1       2.867  -0.989   4.646  0.00  0.00    +0.000 A 
ATOM     12  C   UNL     1       3.491  -0.643   3.437  0.00  0.00    +0.000 A 
BRANCH  10  13
ATOM     13  C   UNL     1       2.751  -0.984   7.171  0.00  0.00    +0.000 C 
BRANCH  13  14
ATOM     14  N   UNL     1       1.867   0.064   7.655  0.00  0.00    +0.000 N 
ATOM     15  C   UNL     1       2.187   1.054   8.543  0.00  0.00    +0.000 A 
ATOM     16  C   UNL     1       1.000   1.698   8.802  0.00  0.00    +0.000 A 
ATOM     17  N   UNL     1      -0.027   1.129   8.093  0.00  0.00    +0.000 NA
ATOM     18  C   UNL     1       0.526   0.155   7.405  0.00  0.00    +0.000 A 
ENDBRANCH  13  14
ENDBRANCH  10  13
ENDBRANCH   6   7
BRANCH   1  21
ATOM     19  C   UNL     1       0.989   0.541  -0.179  0.00  0.00    +0.000 C 
ATOM     20  N   UNL     1       2.442   0.468  -0.269  0.00  0.00    +0.000 N 
ATOM     21  C   UNL     1       3.158   1.016   0.812  0.00  0.00    +0.000 C 
ATOM     22  O   UNL     1       2.572   1.620   1.712  0.00  0.00    +0.000 OA
BRANCH  20  23
ATOM     23  C   UNL     1       2.989  -0.251  -1.430  0.00  0.00    +0.000 C 
BRANCH  23  24
ATOM     24  C   UNL     1       3.113   0.642  -2.644  0.00  0.00    +0.000 A 
ATOM     25  C   UNL     1       2.764   1.938  -2.764  0.00  0.00    +0.000 A 
ATOM     26  C   UNL     1       3.025   2.693  -3.967  0.00  0.00    +0.000 A 
ATOM     27  C   UNL     1       3.626   2.105  -5.006  0.00  0.00    +0.000 A 
ATOM     28  N   UNL     1       3.983   0.783  -4.928  0.00  0.00    +0.000 N 
ATOM     29  C   UNL     1       3.768  -0.010  -3.827  0.00  0.00    +0.000 A 
ATOM     30  O   UNL     1       4.100  -1.190  -3.810  0.00  0.00    +0.000 OA
ATOM     31  H   UNL     1       4.435   0.331  -5.714  0.00  0.00    +0.000 HD
ENDBRANCH  23  24
ENDBRANCH  20  23
ENDBRANCH   1  21
TORSDOF 6
