REMARK  Name = 
REMARK  5 active torsions:
REMARK  status: ('A' for Active; 'I' for Inactive)
REMARK    1  A    between atoms: C_1  and  N_2
REMARK    2  A    between atoms: C_8  and  C_9
REMARK    3  A    between atoms: N_11  and  C_12
REMARK    4  A    between atoms: C_18  and  S_19
REMARK    5  A    between atoms: S_19  and  C_20
REMARK                            x       y       z     vdW  Elec       q    Type
REMARK                         _______ _______ _______ _____ _____    ______ ____
ROOT
ATOM      1  C   UNL     1       8.638  -1.014  -0.995  0.00  0.00    +0.000 C 
ATOM      2  O   UNL     1       9.106   0.116  -0.868  0.00  0.00    +0.000 OA
ATOM      3  N   UNL     1       9.395  -2.175  -1.006  0.00  0.00    +0.000 N 
ATOM      4  H   UNL     1       9.102  -2.911  -1.640  0.00  0.00    +0.000 HD
ENDROOT
BRANCH   1  12
ATOM      5  C   UNL     1       0.862   0.296  -0.980  0.00  0.00    +0.000 C 
ATOM      6  N   UNL     1       2.303   0.215  -1.112  0.00  0.00    +0.000 N 
ATOM      7  C   UNL     1       3.006   1.374  -1.400  0.00  0.00    +0.000 A 
ATOM      8  O   UNL     1       2.493   2.480  -1.554  0.00  0.00    +0.000 OA
ATOM      9  N   UNL     1       4.364   1.255  -1.503  0.00  0.00    +0.000 N 
ATOM     10  C   UNL     1       5.055   0.061  -1.310  0.00  0.00    +0.000 A 
ATOM     11  C   UNL     1       6.445   0.046  -1.385  0.00  0.00    +0.000 A 
ATOM     12  C   UNL     1       7.159  -1.134  -1.125  0.00  0.00    +0.000 A 
ATOM     13  C   UNL     1       6.463  -2.316  -0.842  0.00  0.00    +0.000 A 
ATOM     14  C   UNL     1       5.058  -2.297  -0.785  0.00  0.00    +0.000 A 
ATOM     15  C   UNL     1       4.363  -1.102  -0.999  0.00  0.00    +0.000 A 
ATOM     16  C   UNL     1       2.894  -1.021  -0.855  0.00  0.00    +0.000 A 
ATOM     17  O   UNL     1       2.272  -2.022  -0.506  0.00  0.00    +0.000 OA
ATOM     18  H   UNL     1       4.860   2.113  -1.701  0.00  0.00    +0.000 HD
ENDBRANCH   1  12
BRANCH   3  19
ATOM     19  C   UNL     1      10.771  -2.161  -0.650  0.00  0.00    +0.000 A 
ATOM     20  C   UNL     1      11.179  -1.379   0.447  0.00  0.00    +0.000 A 
ATOM     21  C   UNL     1      12.509  -1.347   0.854  0.00  0.00    +0.000 A 
ATOM     22  C   UNL     1      13.453  -2.091   0.158  0.00  0.00    +0.000 A 
ATOM     23  C   UNL     1      13.065  -2.881  -0.934  0.00  0.00    +0.000 A 
ATOM     24 CL   UNL     1      14.328  -3.758  -1.735  0.00  0.00    +0.000 Cl
ATOM     25  C   UNL     1      11.716  -2.946  -1.346  0.00  0.00    +0.000 A 
BRANCH  25  26
ATOM     26  S   UNL     1      11.195  -4.019  -2.695  0.00  0.00    +0.000 S 
BRANCH  26  27
ATOM     27  C   UNL     1      11.363  -2.933  -4.100  0.00  0.00    +0.000 A 
ATOM     28  C   UNL     1      12.318  -3.192  -5.080  0.00  0.00    +0.000 A 
ATOM     29  C   UNL     1      12.359  -2.379  -6.213  0.00  0.00    +0.000 A 
ATOM     30  C   UNL     1      11.450  -1.335  -6.331  0.00  0.00    +0.000 A 
ATOM     31  C   UNL     1      10.535  -1.148  -5.308  0.00  0.00    +0.000 A 
ATOM     32  N   UNL     1      10.463  -1.928  -4.205  0.00  0.00    +0.000 NA
ENDBRANCH  26  27
ENDBRANCH  25  26
ENDBRANCH   3  19
TORSDOF 4
