REMARK  Name = 
REMARK  7 active torsions:
REMARK  status: ('A' for Active; 'I' for Inactive)
REMARK    1  A    between atoms: C_1  and  O_2
REMARK    2  A    between atoms: O_2  and  C_3
REMARK    3  A    between atoms: C_6  and  C_7
REMARK    4  A    between atoms: C_7  and  N_8
REMARK    5  A    between atoms: C_7  and  C_22
REMARK    6  A    between atoms: C_9  and  C_11
REMARK    7  A    between atoms: N_15  and  C_16
REMARK                            x       y       z     vdW  Elec       q    Type
REMARK                         _______ _______ _______ _____ _____    ______ ____
ROOT
ATOM      1  C   UNL     1       5.643  -3.328   3.289  0.00  0.00    +0.000 C 
ENDROOT
BRANCH   1   2
ATOM      2  C   UNL     1       5.146  -4.767   3.459  0.00  0.00    +0.000 A 
ATOM      3  C   UNL     1       5.008  -5.581   2.316  0.00  0.00    +0.000 A 
ATOM      4  C   UNL     1       4.523  -6.887   2.416  0.00  0.00    +0.000 A 
ATOM      5  C   UNL     1       4.184  -7.396   3.661  0.00  0.00    +0.000 A 
ATOM      6  F   UNL     1       3.706  -8.643   3.759  0.00  0.00    +0.000 F 
ATOM      7  C   UNL     1       4.336  -6.630   4.809  0.00  0.00    +0.000 A 
ATOM      8  C   UNL     1       4.818  -5.322   4.710  0.00  0.00    +0.000 A 
ENDBRANCH   1   2
BRANCH   1  12
ATOM      9  C   UNL     1       2.956  -0.924   0.856  0.00  0.00    +0.000 A 
ATOM     10  C   UNL     1       4.252  -1.196   0.418  0.00  0.00    +0.000 A 
ATOM     11  C   UNL     1       5.116  -1.964   1.208  0.00  0.00    +0.000 A 
ATOM     12  C   UNL     1       4.696  -2.481   2.445  0.00  0.00    +0.000 A 
ATOM     13  C   UNL     1       3.390  -2.203   2.874  0.00  0.00    +0.000 A 
ATOM     14  C   UNL     1       2.535  -1.430   2.087  0.00  0.00    +0.000 A 
BRANCH   9  16
ATOM     15  C   UNL     1       2.385   0.346  -1.071  0.00  0.00    +0.000 C 
ATOM     16  O   UNL     1       2.014  -0.192   0.191  0.00  0.00    +0.000 OA
ENDBRANCH   9  16
ENDBRANCH   1  12
BRANCH   1  17
ATOM     17  N   UNL     1       5.871  -2.656   4.558  0.00  0.00    +0.000 N 
ATOM     18  C   UNL     1       7.131  -2.379   5.025  0.00  0.00    +0.000 C 
ATOM     19  O   UNL     1       8.134  -2.621   4.361  0.00  0.00    +0.000 OA
ATOM     20  H   UNL     1       5.066  -2.358   5.086  0.00  0.00    +0.000 HD
BRANCH  18  21
ATOM     21  C   UNL     1       7.174  -1.817   6.353  0.00  0.00    +0.000 A 
ATOM     22  C   UNL     1       6.311  -2.022   7.419  0.00  0.00    +0.000 A 
ATOM     23  C   UNL     1       6.974  -1.500   8.537  0.00  0.00    +0.000 A 
ATOM     24  N   UNL     1       8.152  -0.969   8.222  0.00  0.00    +0.000 NA
ATOM     25  N   UNL     1       8.220  -1.055   6.864  0.00  0.00    +0.000 N 
BRANCH  25  26
ATOM     26  C   UNL     1       9.250  -0.369   6.178  0.00  0.00    +0.000 A 
ATOM     27  C   UNL     1       9.087   0.117   4.879  0.00  0.00    +0.000 A 
ATOM     28  C   UNL     1      10.158   0.746   4.249  0.00  0.00    +0.000 A 
ATOM     29  C   UNL     1      11.350   0.870   4.943  0.00  0.00    +0.000 A 
ATOM     30  N   UNL     1      11.526   0.450   6.215  0.00  0.00    +0.000 NA
ATOM     31  C   UNL     1      10.466  -0.149   6.812  0.00  0.00    +0.000 A 
ENDBRANCH  25  26
ENDBRANCH  18  21
ENDBRANCH   1  17
TORSDOF 6
