REMARK  Name = 
REMARK  5 active torsions:
REMARK  status: ('A' for Active; 'I' for Inactive)
REMARK    1  A    between atoms: C_2  and  C_3
REMARK    2  A    between atoms: C_3  and  N_4
REMARK    3  A    between atoms: C_6  and  N_7
REMARK    4  A    between atoms: C_8  and  C_10
REMARK    5  A    between atoms: C_15  and  C_16
REMARK                            x       y       z     vdW  Elec       q    Type
REMARK                         _______ _______ _______ _____ _____    ______ ____
ROOT
ATOM      1  C   UNL     1       3.854   6.385  -2.333  0.00  0.00    +0.000 A 
ATOM      2  C   UNL     1       2.945   6.295  -3.400  0.00  0.00    +0.000 A 
ATOM      3  C   UNL     1       2.574   7.420  -4.128  0.00  0.00    +0.000 A 
ATOM      4  C   UNL     1       3.108   8.653  -3.756  0.00  0.00    +0.000 A 
ATOM      5  N   UNL     1       2.879   9.861  -4.328  0.00  0.00    +0.000 NA
ATOM      6  C   UNL     1       3.506  10.756  -3.592  0.00  0.00    +0.000 A 
ATOM      7  N   UNL     1       4.210  10.120  -2.580  0.00  0.00    +0.000 N 
ATOM      8  C   UNL     1       3.970   8.758  -2.671  0.00  0.00    +0.000 A 
ATOM      9  C   UNL     1       4.382   7.634  -1.927  0.00  0.00    +0.000 A 
ATOM     10  H   UNL     1       4.774  10.579  -1.885  0.00  0.00    +0.000 HD
ENDROOT
BRANCH   6  11
ATOM     11  C   UNL     1       3.375  12.197  -3.841  0.00  0.00    +0.000 A 
ATOM     12  C   UNL     1       2.721  12.586  -5.032  0.00  0.00    +0.000 A 
ATOM     13  C   UNL     1       2.441  13.921  -5.309  0.00  0.00    +0.000 A 
ATOM     14  C   UNL     1       2.822  14.887  -4.394  0.00  0.00    +0.000 A 
ATOM     15  F   UNL     1       2.531  16.171  -4.634  0.00  0.00    +0.000 F 
ATOM     16  C   UNL     1       3.494  14.539  -3.225  0.00  0.00    +0.000 A 
ATOM     17  C   UNL     1       3.776  13.193  -2.946  0.00  0.00    +0.000 A 
ENDBRANCH   6  11
BRANCH   1  19
ATOM     18  N   UNL     1       5.475   4.918  -1.218  0.00  0.00    +0.000 N 
ATOM     19  C   UNL     1       4.177   5.084  -1.675  0.00  0.00    +0.000 C 
ATOM     20  O   UNL     1       3.289   4.238  -1.638  0.00  0.00    +0.000 OA
ATOM     21  H   UNL     1       6.095   5.708  -1.331  0.00  0.00    +0.000 HD
BRANCH  18  24
ATOM     22  N   UNL     1       7.913   2.680   0.341  0.00  0.00    +0.000 N 
ATOM     23  C   UNL     1       7.310   3.795  -0.231  0.00  0.00    +0.000 A 
ATOM     24  C   UNL     1       6.039   3.772  -0.680  0.00  0.00    +0.000 A 
ATOM     25  C   UNL     1       5.311   2.521  -0.565  0.00  0.00    +0.000 A 
ATOM     26  C   UNL     1       5.863   1.426  -0.025  0.00  0.00    +0.000 A 
ATOM     27  C   UNL     1       7.248   1.466   0.488  0.00  0.00    +0.000 A 
ATOM     28  O   UNL     1       7.733   0.475   1.023  0.00  0.00    +0.000 OA
BRANCH  22  29
ATOM     29  C   UNL     1       9.191   2.811   1.037  0.00  0.00    +0.000 C 
BRANCH  29  31
ATOM     30  N   UNL     1       8.707   3.482   3.693  0.00  0.00    +0.000 NA
ATOM     31  C   UNL     1       8.926   3.178   2.489  0.00  0.00    +0.000 C 
ENDBRANCH  29  31
ENDBRANCH  22  29
ENDBRANCH  18  24
ENDBRANCH   1  19
TORSDOF 5
