REMARK  Name = 
REMARK  6 active torsions:
REMARK  status: ('A' for Active; 'I' for Inactive)
REMARK    1  A    between atoms: C_2  and  C_18
REMARK    2  A    between atoms: N_3  and  C_4
REMARK    3  A    between atoms: C_4  and  C_5
REMARK    4  A    between atoms: C_8  and  C_9
REMARK    5  A    between atoms: C_20  and  C_21
REMARK    6  A    between atoms: C_28  and  O_29
REMARK                            x       y       z     vdW  Elec       q    Type
REMARK                         _______ _______ _______ _____ _____    ______ ____
ROOT
ATOM      1  O   UNL     1       0.989   0.098   0.052  0.00  0.00    +0.000 OA
ATOM      2  C   UNL     1       2.205  -0.044   0.055  0.00  0.00    +0.000 C 
ATOM      3  N   UNL     1       2.871  -0.976   0.821  0.00  0.00    +0.000 N 
ATOM      4  H   UNL     1       3.876  -0.930   0.911  0.00  0.00    +0.000 HD
ENDROOT
BRANCH   2   5
ATOM      5  C   UNL     1       3.052   0.847  -0.777  0.00  0.00    +0.000 A 
ATOM      6  C   UNL     1       2.611   2.151  -1.017  0.00  0.00    +0.000 A 
ATOM      7  C   UNL     1       3.415   3.015  -1.758  0.00  0.00    +0.000 A 
ATOM      8  N   UNL     1       4.596   2.600  -2.288  0.00  0.00    +0.000 NA
ATOM      9  C   UNL     1       4.960   1.331  -2.057  0.00  0.00    +0.000 A 
ATOM     10  C   UNL     1       4.253   0.413  -1.322  0.00  0.00    +0.000 A 
BRANCH   7  11
ATOM     11  C   UNL     1       3.079   4.439  -1.976  0.00  0.00    +0.000 A 
ATOM     12  C   UNL     1       2.351   5.183  -1.028  0.00  0.00    +0.000 A 
ATOM     13  C   UNL     1       2.072   6.540  -1.221  0.00  0.00    +0.000 A 
ATOM     14  C   UNL     1       2.517   7.186  -2.369  0.00  0.00    +0.000 A 
ATOM     15  C   UNL     1       3.235   6.476  -3.327  0.00  0.00    +0.000 A 
ATOM     16  C   UNL     1       3.512   5.118  -3.131  0.00  0.00    +0.000 A 
ENDBRANCH   7  11
BRANCH   9  17
ATOM     17  O   UNL     1       6.153   0.992  -2.606  0.00  0.00    +0.000 OA
ATOM     18  H   UNL     1       6.399   1.841  -3.018  0.00  0.00    +0.000 HD
ENDBRANCH   9  17
ENDBRANCH   2   5
BRANCH   3  19
ATOM     19  C   UNL     1       2.166  -1.896   1.685  0.00  0.00    +0.000 C 
BRANCH  19  20
ATOM     20  C   UNL     1       2.020  -1.376   3.094  0.00  0.00    +0.000 A 
ATOM     21  C   UNL     1       0.915  -0.586   3.445  0.00  0.00    +0.000 A 
ATOM     22  C   UNL     1       0.743  -0.142   4.761  0.00  0.00    +0.000 A 
ATOM     23  C   UNL     1       1.677  -0.475   5.747  0.00  0.00    +0.000 A 
ATOM     24  C   UNL     1       2.796  -1.239   5.396  0.00  0.00    +0.000 A 
ATOM     25  C   UNL     1       2.968  -1.682   4.079  0.00  0.00    +0.000 A 
BRANCH  23  26
ATOM     26  C   UNL     1       1.492  -0.021   7.136  0.00  0.00    +0.000 A 
ATOM     27  C   UNL     1       0.797  -0.803   7.985  0.00  0.00    +0.000 A 
ATOM     28  N   UNL     1       0.595  -0.423   9.290  0.00  0.00    +0.000 N 
ATOM     29  C   UNL     1       1.064   0.748   9.832  0.00  0.00    +0.000 A 
ATOM     30  O   UNL     1       0.871   1.069  11.000  0.00  0.00    +0.000 OA
ATOM     31  C   UNL     1       1.833   1.620   8.909  0.00  0.00    +0.000 A 
ATOM     32  C   UNL     1       2.024   1.236   7.637  0.00  0.00    +0.000 A 
ATOM     33  H   UNL     1       0.069  -1.018   9.918  0.00  0.00    +0.000 HD
ENDBRANCH  23  26
ENDBRANCH  19  20
ENDBRANCH   3  19
TORSDOF 6
