REMARK  Name = 
REMARK  5 active torsions:
REMARK  status: ('A' for Active; 'I' for Inactive)
REMARK    1  A    between atoms: C_2  and  C_18
REMARK    2  A    between atoms: N_3  and  C_4
REMARK    3  A    between atoms: C_4  and  C_5
REMARK    4  A    between atoms: C_8  and  C_9
REMARK    5  A    between atoms: C_21  and  C_22
REMARK                            x       y       z     vdW  Elec       q    Type
REMARK                         _______ _______ _______ _____ _____    ______ ____
ROOT
ATOM      1  O   UNL     1       2.187  -0.783  -1.924  0.00  0.00    +0.000 OA
ATOM      2  C   UNL     1       2.882  -0.370  -1.002  0.00  0.00    +0.000 C 
ATOM      3  N   UNL     1       2.969   0.959  -0.661  0.00  0.00    +0.000 N 
ATOM      4  H   UNL     1       3.542   1.238   0.130  0.00  0.00    +0.000 HD
ENDROOT
BRANCH   2   5
ATOM      5  C   UNL     1       3.705  -1.325  -0.212  0.00  0.00    +0.000 A 
ATOM      6  C   UNL     1       3.686  -2.679  -0.561  0.00  0.00    +0.000 A 
ATOM      7  C   UNL     1       4.503  -3.595   0.113  0.00  0.00    +0.000 A 
ATOM      8  C   UNL     1       5.365  -3.187   1.148  0.00  0.00    +0.000 A 
ATOM      9  C   UNL     1       5.354  -1.827   1.496  0.00  0.00    +0.000 A 
ATOM     10  C   UNL     1       4.528  -0.920   0.834  0.00  0.00    +0.000 A 
ATOM     11  F   UNL     1       4.561   0.358   1.244  0.00  0.00    +0.000 F 
BRANCH   8  12
ATOM     12  C   UNL     1       6.229  -4.150   1.850  0.00  0.00    +0.000 A 
ATOM     13  C   UNL     1       6.759  -5.283   1.251  0.00  0.00    +0.000 A 
ATOM     14  N   UNL     1       7.522  -6.204   1.879  0.00  0.00    +0.000 NA
ATOM     15  C   UNL     1       7.773  -5.963   3.172  0.00  0.00    +0.000 A 
ATOM     16  N   UNL     1       7.350  -4.901   3.869  0.00  0.00    +0.000 NA
ATOM     17  C   UNL     1       6.586  -4.022   3.184  0.00  0.00    +0.000 A 
ENDBRANCH   8  12
ENDBRANCH   2   5
BRANCH   3  18
ATOM     18  C   UNL     1       2.304   1.998  -1.400  0.00  0.00    +0.000 C 
BRANCH  18  19
ATOM     19  C   UNL     1       3.294   2.967  -1.999  0.00  0.00    +0.000 A 
ATOM     20  C   UNL     1       3.812   2.737  -3.282  0.00  0.00    +0.000 A 
ATOM     21  C   UNL     1       4.702   3.644  -3.868  0.00  0.00    +0.000 A 
ATOM     22  C   UNL     1       5.097   4.795  -3.176  0.00  0.00    +0.000 A 
ATOM     23  C   UNL     1       4.604   5.014  -1.884  0.00  0.00    +0.000 A 
ATOM     24  C   UNL     1       3.719   4.102  -1.296  0.00  0.00    +0.000 A 
BRANCH  22  25
ATOM     25  C   UNL     1       6.038   5.750  -3.788  0.00  0.00    +0.000 A 
ATOM     26  C   UNL     1       5.553   6.752  -4.544  0.00  0.00    +0.000 A 
ATOM     27  N   UNL     1       6.395   7.676  -5.119  0.00  0.00    +0.000 N 
ATOM     28  C   UNL     1       7.761   7.668  -4.974  0.00  0.00    +0.000 A 
ATOM     29  O   UNL     1       8.493   8.509  -5.485  0.00  0.00    +0.000 OA
ATOM     30  C   UNL     1       8.311   6.558  -4.153  0.00  0.00    +0.000 A 
ATOM     31  C   UNL     1       7.481   5.662  -3.605  0.00  0.00    +0.000 A 
ATOM     32  H   UNL     1       6.019   8.428  -5.681  0.00  0.00    +0.000 HD
ENDBRANCH  22  25
ENDBRANCH  18  19
ENDBRANCH   3  18
TORSDOF 5
