REMARK  Name = 
REMARK  10 active torsions:
REMARK  status: ('A' for Active; 'I' for Inactive)
REMARK    1  A    between atoms: C_1  and  O_2
REMARK    2  A    between atoms: O_2  and  C_3
REMARK    3  A    between atoms: C_7  and  C_8
REMARK    4  A    between atoms: C_8  and  C_9
REMARK    5  A    between atoms: C_9  and  N_10
REMARK    6  A    between atoms: C_9  and  C_27
REMARK    7  A    between atoms: C_11  and  C_13
REMARK    8  A    between atoms: C_17  and  N_18
REMARK    9  A    between atoms: C_21  and  C_22
REMARK   10  A    between atoms: C_24  and  N_25
REMARK                            x       y       z     vdW  Elec       q    Type
REMARK                         _______ _______ _______ _____ _____    ______ ____
ROOT
ATOM      1  N   UNL     1       7.175   3.759  -0.056  0.00  0.00    +0.000 N 
ATOM      2  C   UNL     1       7.348   5.017   0.501  0.00  0.00    +0.000 C 
ATOM      3  O   UNL     1       7.285   6.075  -0.112  0.00  0.00    +0.000 OA
ATOM      4  H   UNL     1       7.451   2.962   0.499  0.00  0.00    +0.000 HD
ENDROOT
BRANCH   2   5
ATOM      5  C   UNL     1       7.729   4.993   1.946  0.00  0.00    +0.000 A 
ATOM      6  C   UNL     1       7.186   3.999   2.773  0.00  0.00    +0.000 A 
ATOM      7  C   UNL     1       7.772   3.725   4.003  0.00  0.00    +0.000 A 
ATOM      8  C   UNL     1       8.886   4.454   4.414  0.00  0.00    +0.000 A 
ATOM      9  C   UNL     1       9.356   5.535   3.648  0.00  0.00    +0.000 A 
ATOM     10  C   UNL     1       8.754   5.834   2.416  0.00  0.00    +0.000 A 
BRANCH   9  11
ATOM     11  N   UNL     1      10.522   6.216   4.102  0.00  0.00    +0.000 N 
ATOM     12  N   UNL     1      11.485   5.509   4.760  0.00  0.00    +0.000 NA
ATOM     13  C   UNL     1      12.483   6.370   4.928  0.00  0.00    +0.000 A 
ATOM     14  C   UNL     1      12.156   7.665   4.505  0.00  0.00    +0.000 A 
ATOM     15  C   UNL     1      10.871   7.571   3.993  0.00  0.00    +0.000 A 
BRANCH  15  16
ATOM     16  N   UNL     1      10.032   8.547   3.558  0.00  0.00    +0.000 N 
ATOM     17  H   UNL     1      10.237   9.528   3.756  0.00  0.00    +0.000 HD
ATOM     18  H   UNL     1       9.026   8.384   3.498  0.00  0.00    +0.000 HD
ENDBRANCH  15  16
BRANCH  14  19
ATOM     19  C   UNL     1      12.952   8.841   4.646  0.00  0.00    +0.000 C 
ATOM     20  N   UNL     1      13.599   9.791   4.801  0.00  0.00    +0.000 NA
ENDBRANCH  14  19
ENDBRANCH   9  11
ENDBRANCH   2   5
BRANCH   1  21
ATOM     21  C   UNL     1       7.078   3.528  -1.496  0.00  0.00    +0.000 C 
BRANCH  21  22
ATOM     22  C   UNL     1       8.481   3.497  -2.095  0.00  0.00    +0.000 A 
ATOM     23  C   UNL     1       8.874   4.507  -2.986  0.00  0.00    +0.000 A 
ATOM     24  C   UNL     1      10.172   4.543  -3.502  0.00  0.00    +0.000 A 
ATOM     25  C   UNL     1      11.097   3.570  -3.133  0.00  0.00    +0.000 A 
ATOM     26  C   UNL     1      10.722   2.554  -2.256  0.00  0.00    +0.000 A 
ATOM     27  C   UNL     1       9.423   2.516  -1.740  0.00  0.00    +0.000 A 
ENDBRANCH  21  22
BRANCH  21  28
ATOM     28  C   UNL     1       6.283   2.226  -1.833  0.00  0.00    +0.000 C 
BRANCH  28  33
ATOM     29  C   UNL     1       3.220   1.437   0.311  0.00  0.00    +0.000 A 
ATOM     30  C   UNL     1       2.439   2.562   0.055  0.00  0.00    +0.000 A 
ATOM     31  C   UNL     1       2.789   3.437  -0.970  0.00  0.00    +0.000 A 
ATOM     32  C   UNL     1       3.975   3.250  -1.674  0.00  0.00    +0.000 A 
ATOM     33  C   UNL     1       4.865   2.237  -1.296  0.00  0.00    +0.000 A 
ATOM     34  C   UNL     1       4.444   1.288  -0.349  0.00  0.00    +0.000 A 
BRANCH  29  36
ATOM     35  C   UNL     1       1.497   0.320   1.461  0.00  0.00    +0.000 C 
ATOM     36  O   UNL     1       2.898   0.466   1.223  0.00  0.00    +0.000 OA
ENDBRANCH  29  36
ENDBRANCH  28  33
ENDBRANCH  21  28
ENDBRANCH   1  21
TORSDOF 9
