REMARK  Name = 
REMARK  8 active torsions:
REMARK  status: ('A' for Active; 'I' for Inactive)
REMARK    1  A    between atoms: C_1  and  N_2
REMARK    2  A    between atoms: C_8  and  C_9
REMARK    3  A    between atoms: N_11  and  C_12
REMARK    4  A    between atoms: N_11  and  C_16
REMARK    5  A    between atoms: C_12  and  C_13
REMARK    6  A    between atoms: C_16  and  C_17
REMARK    7  A    between atoms: C_21  and  O_22
REMARK    8  A    between atoms: O_22  and  C_23
REMARK                            x       y       z     vdW  Elec       q    Type
REMARK                         _______ _______ _______ _____ _____    ______ ____
ROOT
ATOM      1  C   UNL     1       8.573  -1.232   0.159  0.00  0.00    +0.000 C 
ATOM      2  O   UNL     1       7.343  -1.234   0.046  0.00  0.00    +0.000 OA
ATOM      3  N   UNL     1       9.298  -2.391  -0.184  0.00  0.00    +0.000 N 
ENDROOT
BRANCH   1  11
ATOM      4  C   UNL     1      10.495   5.972   2.952  0.00  0.00    +0.000 C 
ATOM      5  N   UNL     1       9.978   4.812   2.251  0.00  0.00    +0.000 N 
ATOM      6  C   UNL     1       8.650   4.774   1.860  0.00  0.00    +0.000 A 
ATOM      7  O   UNL     1       7.849   5.687   2.054  0.00  0.00    +0.000 OA
ATOM      8  N   UNL     1       8.218   3.626   1.234  0.00  0.00    +0.000 N 
ATOM      9  C   UNL     1       8.993   2.470   1.105  0.00  0.00    +0.000 A 
ATOM     10  C   UNL     1       8.454   1.264   0.608  0.00  0.00    +0.000 A 
ATOM     11  C   UNL     1       9.208   0.064   0.641  0.00  0.00    +0.000 A 
ATOM     12  C   UNL     1      10.480   0.145   1.216  0.00  0.00    +0.000 A 
ATOM     13  C   UNL     1      11.056   1.352   1.606  0.00  0.00    +0.000 A 
ATOM     14  C   UNL     1      10.305   2.511   1.553  0.00  0.00    +0.000 A 
ATOM     15  C   UNL     1      10.865   3.760   2.084  0.00  0.00    +0.000 A 
ATOM     16  O   UNL     1      12.056   3.806   2.382  0.00  0.00    +0.000 OA
ATOM     17  H   UNL     1       7.237   3.621   0.984  0.00  0.00    +0.000 HD
ENDBRANCH   1  11
BRANCH   3  18
ATOM     18  C   UNL     1       8.566  -3.645  -0.464  0.00  0.00    +0.000 C 
BRANCH  18  19
ATOM     19  C   UNL     1       8.057  -3.853  -1.895  0.00  0.00    +0.000 C 
ATOM     20  N   UNL     1       7.654  -2.739  -2.573  0.00  0.00    +0.000 N 
ATOM     21  O   UNL     1       7.881  -4.968  -2.383  0.00  0.00    +0.000 OA
ATOM     22  H   UNL     1       7.370  -1.934  -2.031  0.00  0.00    +0.000 HD
ATOM     23  H   UNL     1       7.125  -2.918  -3.422  0.00  0.00    +0.000 HD
ENDBRANCH  18  19
ENDBRANCH   3  18
BRANCH   3  24
ATOM     24  C   UNL     1      10.744  -2.557  -0.200  0.00  0.00    +0.000 C 
BRANCH  24  25
ATOM     25  C   UNL     1      11.312  -3.092   1.111  0.00  0.00    +0.000 A 
ATOM     26  C   UNL     1      10.608  -3.074   2.329  0.00  0.00    +0.000 A 
ATOM     27  C   UNL     1      11.272  -3.271   3.542  0.00  0.00    +0.000 A 
ATOM     28  C   UNL     1      12.654  -3.448   3.557  0.00  0.00    +0.000 A 
ATOM     29  C   UNL     1      13.363  -3.483   2.357  0.00  0.00    +0.000 A 
ATOM     30  C   UNL     1      12.672  -3.416   1.141  0.00  0.00    +0.000 A 
BRANCH  29  31
ATOM     31  O   UNL     1      14.737  -3.547   2.468  0.00  0.00    +0.000 OA
BRANCH  31  32
ATOM     32  C   UNL     1      15.528  -3.018   1.469  0.00  0.00    +0.000 A 
ATOM     33  C   UNL     1      15.174  -1.926   0.668  0.00  0.00    +0.000 A 
ATOM     34  C   UNL     1      15.953  -1.585  -0.437  0.00  0.00    +0.000 A 
ATOM     35  C   UNL     1      17.147  -2.258  -0.675  0.00  0.00    +0.000 A 
ATOM     36  C   UNL     1      17.574  -3.252   0.206  0.00  0.00    +0.000 A 
ATOM     37  C   UNL     1      16.763  -3.635   1.275  0.00  0.00    +0.000 A 
ENDBRANCH  31  32
ENDBRANCH  29  31
ENDBRANCH  24  25
ENDBRANCH   3  24
TORSDOF 7
