REMARK  Name = 
REMARK  6 active torsions:
REMARK  status: ('A' for Active; 'I' for Inactive)
REMARK    1  A    between atoms: C_1  and  C_2
REMARK    2  A    between atoms: C_3  and  N_4
REMARK    3  A    between atoms: C_5  and  C_7
REMARK    4  A    between atoms: N_13  and  C_14
REMARK    5  A    between atoms: C_23  and  C_24
REMARK    6  A    between atoms: N_26  and  C_27
REMARK                            x       y       z     vdW  Elec       q    Type
REMARK                         _______ _______ _______ _____ _____    ______ ____
ROOT
ATOM      1  N   UNL     1       1.394   2.414   0.263  0.00  0.00    +0.000 N 
ATOM      2  C   UNL     1       2.449   2.617  -0.620  0.00  0.00    +0.000 C 
ATOM      3  O   UNL     1       2.768   1.830  -1.507  0.00  0.00    +0.000 OA
ATOM      4  H   UNL     1       0.901   3.251   0.548  0.00  0.00    +0.000 HD
ENDROOT
BRANCH   2   5
ATOM      5  C   UNL     1       3.183   3.916  -0.538  0.00  0.00    +0.000 A 
ATOM      6  C   UNL     1       3.935   4.281  -1.678  0.00  0.00    +0.000 A 
ATOM      7  C   UNL     1       4.649   5.471  -1.715  0.00  0.00    +0.000 A 
ATOM      8  C   UNL     1       4.670   6.245  -0.570  0.00  0.00    +0.000 A 
ATOM      9  C   UNL     1       5.531   7.418  -0.484  0.00  0.00    +0.000 A 
ATOM     10  O   UNL     1       5.458   8.336  -1.286  0.00  0.00    +0.000 OA
ATOM     11  N   UNL     1       6.376   7.323   0.591  0.00  0.00    +0.000 N 
ATOM     12  C   UNL     1       7.749   7.037   0.239  0.00  0.00    +0.000 C 
ATOM     13  C   UNL     1       5.878   6.933   1.826  0.00  0.00    +0.000 A 
ATOM     14  O   UNL     1       6.528   6.948   2.866  0.00  0.00    +0.000 OA
ATOM     15  N   UNL     1       4.598   6.392   1.811  0.00  0.00    +0.000 N 
ATOM     16  C   UNL     1       4.104   5.811   0.626  0.00  0.00    +0.000 A 
ATOM     17  C   UNL     1       3.265   4.694   0.633  0.00  0.00    +0.000 A 
ATOM     18  H   UNL     1       4.298   6.038   2.713  0.00  0.00    +0.000 HD
ENDBRANCH   2   5
BRANCH   1  21
ATOM     19  C   UNL     1       2.674  -0.247   0.642  0.00  0.00    +0.000 C 
ATOM     20  C   UNL     1       1.222  -0.080   0.266  0.00  0.00    +0.000 A 
ATOM     21  C   UNL     1       0.635   1.211   0.213  0.00  0.00    +0.000 A 
ATOM     22  C   UNL     1      -0.753   1.346   0.097  0.00  0.00    +0.000 A 
ATOM     23  C   UNL     1      -1.562   0.222  -0.051  0.00  0.00    +0.000 A 
ATOM     24  C   UNL     1      -0.991  -1.048  -0.096  0.00  0.00    +0.000 A 
ATOM     25  C   UNL     1       0.399  -1.217   0.037  0.00  0.00    +0.000 A 
BRANCH  25  26
ATOM     26  C   UNL     1       0.947  -2.623  -0.022  0.00  0.00    +0.000 C 
ATOM     27  O   UNL     1       1.872  -2.944   0.713  0.00  0.00    +0.000 OA
ATOM     28  N   UNL     1       0.333  -3.456  -0.954  0.00  0.00    +0.000 N 
ATOM     29  H   UNL     1      -0.315  -3.024  -1.599  0.00  0.00    +0.000 HD
BRANCH  28  30
ATOM     30  C   UNL     1       0.605  -4.826  -1.189  0.00  0.00    +0.000 A 
ATOM     31  C   UNL     1       1.442  -5.605  -0.391  0.00  0.00    +0.000 A 
ATOM     32  C   UNL     1       1.685  -6.954  -0.708  0.00  0.00    +0.000 A 
ATOM     33  C   UNL     1       1.083  -7.524  -1.829  0.00  0.00    +0.000 A 
ATOM     34  C   UNL     1       0.233  -6.776  -2.614  0.00  0.00    +0.000 A 
ATOM     35  C   UNL     1      -0.013  -5.431  -2.294  0.00  0.00    +0.000 A 
ENDBRANCH  28  30
ENDBRANCH  25  26
ENDBRANCH   1  21
TORSDOF 4
