REMARK  Name = 
REMARK  7 active torsions:
REMARK  status: ('A' for Active; 'I' for Inactive)
REMARK    1  A    between atoms: C_2  and  C_20
REMARK    2  A    between atoms: N_3  and  C_4
REMARK    3  A    between atoms: C_4  and  C_5
REMARK    4  A    between atoms: C_4  and  C_15
REMARK    5  A    between atoms: C_9  and  C_10
REMARK    6  A    between atoms: N_22  and  C_23
REMARK    7  A    between atoms: C_31  and  O_32
REMARK                            x       y       z     vdW  Elec       q    Type
REMARK                         _______ _______ _______ _____ _____    ______ ____
ROOT
ATOM      1  O   UNL     1       1.108  -0.324  -0.005  0.00  0.00    +0.000 OA
ATOM      2  C   UNL     1       2.326  -0.164  -0.027  0.00  0.00    +0.000 C 
ATOM      3  N   UNL     1       3.031  -0.088  -1.204  0.00  0.00    +0.000 N 
ATOM      4  H   UNL     1       4.033   0.068  -1.150  0.00  0.00    +0.000 HD
ENDROOT
BRANCH   2   5
ATOM      5  C   UNL     1       3.156  -0.059   1.183  0.00  0.00    +0.000 A 
ATOM      6  N   UNL     1       4.495   0.117   1.133  0.00  0.00    +0.000 NA
ATOM      7  N   UNL     1       4.908   0.113   2.437  0.00  0.00    +0.000 N 
ATOM      8  C   UNL     1       3.842  -0.027   3.297  0.00  0.00    +0.000 A 
ATOM      9  C   UNL     1       2.725  -0.135   2.521  0.00  0.00    +0.000 A 
BRANCH   7  10
ATOM     10  C   UNL     1       6.289   0.242   2.762  0.00  0.00    +0.000 A 
ATOM     11  C   UNL     1       7.231   0.418   1.734  0.00  0.00    +0.000 A 
ATOM     12  C   UNL     1       8.592   0.548   2.035  0.00  0.00    +0.000 A 
ATOM     13  C   UNL     1       9.028   0.504   3.358  0.00  0.00    +0.000 A 
ATOM     14  C   UNL     1       8.102   0.325   4.382  0.00  0.00    +0.000 A 
ATOM     15  C   UNL     1       6.745   0.196   4.084  0.00  0.00    +0.000 A 
ATOM     16  F   UNL     1       5.918   0.018   5.121  0.00  0.00    +0.000 F 
ENDBRANCH   7  10
BRANCH   9  17
ATOM     17  O   UNL     1       1.485  -0.294   3.006  0.00  0.00    +0.000 OA
ATOM     18  H   UNL     1       1.492  -0.311   3.978  0.00  0.00    +0.000 HD
ENDBRANCH   9  17
ENDBRANCH   2   5
BRANCH   3  19
ATOM     19  C   UNL     1       2.375  -0.120  -2.488  0.00  0.00    +0.000 C 
BRANCH  19  20
ATOM     20  C   UNL     1       3.288  -0.789  -3.471  0.00  0.00    +0.000 A 
ATOM     21  N   UNL     1       4.607  -0.760  -3.511  0.00  0.00    +0.000 NA
ATOM     22  N   UNL     1       5.018  -1.517  -4.582  0.00  0.00    +0.000 NA
ATOM     23  C   UNL     1       3.945  -1.995  -5.168  0.00  0.00    +0.000 A 
ATOM     24  N   UNL     1       2.835  -1.559  -4.512  0.00  0.00    +0.000 N 
ATOM     25  H   UNL     1       1.874  -1.763  -4.742  0.00  0.00    +0.000 HD
ENDBRANCH  19  20
BRANCH  19  26
ATOM     26  C   UNL     1       1.937   1.280  -2.902  0.00  0.00    +0.000 A 
ATOM     27  C   UNL     1       0.656   1.735  -2.546  0.00  0.00    +0.000 A 
ATOM     28  C   UNL     1       0.241   3.031  -2.856  0.00  0.00    +0.000 A 
ATOM     29  C   UNL     1       1.103   3.898  -3.523  0.00  0.00    +0.000 A 
ATOM     30  C   UNL     1       2.392   3.481  -3.880  0.00  0.00    +0.000 A 
ATOM     31  C   UNL     1       2.799   2.172  -3.563  0.00  0.00    +0.000 A 
BRANCH  30  32
ATOM     32  C   UNL     1       3.353   4.415  -4.575  0.00  0.00    +0.000 C 
ATOM     33  F   UNL     1       2.840   5.658  -4.795  0.00  0.00    +0.000 F 
ATOM     34  F   UNL     1       4.499   4.606  -3.866  0.00  0.00    +0.000 F 
ATOM     35  F   UNL     1       3.738   3.951  -5.796  0.00  0.00    +0.000 F 
ENDBRANCH  30  32
ENDBRANCH  19  26
ENDBRANCH   3  19
TORSDOF 7
