REMARK  Name = 
REMARK  6 active torsions:
REMARK  status: ('A' for Active; 'I' for Inactive)
REMARK    1  A    between atoms: C_2  and  C_3
REMARK    2  A    between atoms: C_8  and  C_9
REMARK    3  A    between atoms: C_9  and  O_10
REMARK    4  A    between atoms: O_10  and  C_11
REMARK    5  A    between atoms: C_14  and  C_15
REMARK    6  A    between atoms: N_17  and  C_18
REMARK                            x       y       z     vdW  Elec       q    Type
REMARK                         _______ _______ _______ _____ _____    ______ ____
ROOT
ATOM      1  C   UNL     1      -2.779   3.408  -0.131  0.00  0.00    +0.000 A 
ATOM      2  C   UNL     1      -2.499   4.454  -1.019  0.00  0.00    +0.000 A 
ATOM      3  C   UNL     1      -3.411   5.509  -1.169  0.00  0.00    +0.000 A 
ATOM      4  C   UNL     1      -4.606   5.507  -0.431  0.00  0.00    +0.000 A 
ATOM      5  C   UNL     1      -4.914   4.418   0.381  0.00  0.00    +0.000 A 
ATOM      6  C   UNL     1      -4.013   3.377   0.520  0.00  0.00    +0.000 A 
ENDROOT
BRANCH   4   7
ATOM      7  C   UNL     1      -5.564   6.640  -0.519  0.00  0.00    +0.000 C 
ATOM      8  O   UNL     1      -5.610   7.300  -1.549  0.00  0.00    +0.000 OA
ATOM      9  N   UNL     1      -6.291   6.891   0.644  0.00  0.00    +0.000 N 
ATOM     10  H   UNL     1      -5.970   6.432   1.484  0.00  0.00    +0.000 HD
BRANCH   9  11
ATOM     11  C   UNL     1      -7.238   7.889   0.797  0.00  0.00    +0.000 A 
ATOM     12  C   UNL     1      -7.955   8.349  -0.239  0.00  0.00    +0.000 A 
ATOM     13  C   UNL     1      -8.935   9.444  -0.107  0.00  0.00    +0.000 A 
ATOM     14  O   UNL     1      -9.560   9.855  -1.077  0.00  0.00    +0.000 OA
ATOM     15  N   UNL     1      -9.099   9.971   1.138  0.00  0.00    +0.000 N 
ATOM     16  C   UNL     1      -8.362   9.553   2.251  0.00  0.00    +0.000 A 
ATOM     17  C   UNL     1      -8.493  10.211   3.467  0.00  0.00    +0.000 A 
ATOM     18  N   UNL     1      -7.753   9.921   4.559  0.00  0.00    +0.000 NA
ATOM     19  C   UNL     1      -6.856   8.922   4.429  0.00  0.00    +0.000 A 
ATOM     20  C   UNL     1      -6.680   8.181   3.268  0.00  0.00    +0.000 A 
ATOM     21  C   UNL     1      -7.439   8.504   2.135  0.00  0.00    +0.000 A 
ATOM     22  H   UNL     1      -9.747  10.745   1.201  0.00  0.00    +0.000 HD
ENDBRANCH   9  11
ENDBRANCH   4   7
BRANCH   1  23
ATOM     23  O   UNL     1      -1.817   2.452   0.072  0.00  0.00    +0.000 OA
BRANCH  23  24
ATOM     24  C   UNL     1      -1.914   1.789   1.348  0.00  0.00    +0.000 C 
BRANCH  24  30
ATOM     25  C   UNL     1       0.173   1.479   2.823  0.00  0.00    +0.000 A 
ATOM     26  C   UNL     1       1.375   0.802   3.058  0.00  0.00    +0.000 A 
ATOM     27  C   UNL     1       1.826  -0.186   2.179  0.00  0.00    +0.000 A 
ATOM     28  C   UNL     1       1.075  -0.514   1.054  0.00  0.00    +0.000 A 
ATOM     29  C   UNL     1      -0.125   0.141   0.813  0.00  0.00    +0.000 A 
ATOM     30  C   UNL     1      -0.594   1.145   1.684  0.00  0.00    +0.000 A 
BRANCH  25  32
ATOM     31  N   UNL     1      -0.529   3.287   4.557  0.00  0.00    +0.000 NA
ATOM     32  C   UNL     1      -0.227   2.489   3.776  0.00  0.00    +0.000 C 
ENDBRANCH  25  32
ENDBRANCH  24  30
ENDBRANCH  23  24
ENDBRANCH   1  23
TORSDOF 6
