REMARK  Name = 
REMARK  10 active torsions:
REMARK  status: ('A' for Active; 'I' for Inactive)
REMARK    1  A    between atoms: C_2  and  C_3
REMARK    2  A    between atoms: C_3  and  O_4
REMARK    3  A    between atoms: O_4  and  C_5
REMARK    4  A    between atoms: C_9  and  O_10
REMARK    5  A    between atoms: O_10  and  C_11
REMARK    6  A    between atoms: N_18  and  C_19
REMARK    7  A    between atoms: C_19  and  C_20
REMARK    8  A    between atoms: N_24  and  C_25
REMARK    9  A    between atoms: C_25  and  C_26
REMARK   10  A    between atoms: C_26  and  C_27
REMARK                            x       y       z     vdW  Elec       q    Type
REMARK                         _______ _______ _______ _____ _____    ______ ____
ROOT
ATOM      1  O   UNL     1       2.752   0.650   0.839  0.00  0.00    +0.000 OA
ATOM      2  C   UNL     1       2.182   0.225  -0.165  0.00  0.00    +0.000 C 
ATOM      3  N   UNL     1       2.868  -0.258  -1.259  0.00  0.00    +0.000 N 
ATOM      4  H   UNL     1       2.363  -0.729  -1.998  0.00  0.00    +0.000 HD
ENDROOT
BRANCH   2   5
ATOM      5  C   UNL     1       0.663   0.198  -0.288  0.00  0.00    +0.000 C 
BRANCH   5   6
ATOM      6  O   UNL     1       0.228   1.430  -0.852  0.00  0.00    +0.000 OA
BRANCH   6   7
ATOM      7  C   UNL     1      -1.057   1.794  -0.547  0.00  0.00    +0.000 A 
ATOM      8  C   UNL     1      -2.091   0.898  -0.265  0.00  0.00    +0.000 A 
ATOM      9  C   UNL     1      -3.373   1.376   0.020  0.00  0.00    +0.000 A 
ATOM     10  C   UNL     1      -3.622   2.749   0.023  0.00  0.00    +0.000 A 
ATOM     11  C   UNL     1      -2.583   3.649  -0.222  0.00  0.00    +0.000 A 
ATOM     12  C   UNL     1      -1.314   3.169  -0.550  0.00  0.00    +0.000 A 
BRANCH  11  13
ATOM     13  O   UNL     1      -2.755   5.018  -0.221  0.00  0.00    +0.000 OA
BRANCH  13  14
ATOM     14  C   UNL     1      -3.566   5.575   0.765  0.00  0.00    +0.000 A 
ATOM     15  C   UNL     1      -4.123   6.813   0.484  0.00  0.00    +0.000 A 
ATOM     16  C   UNL     1      -4.967   7.387   1.432  0.00  0.00    +0.000 A 
ATOM     17  C   UNL     1      -5.216   6.712   2.622  0.00  0.00    +0.000 A 
ATOM     18  C   UNL     1      -4.590   5.494   2.827  0.00  0.00    +0.000 A 
ATOM     19  N   UNL     1      -3.761   4.918   1.933  0.00  0.00    +0.000 NA
ENDBRANCH  13  14
ENDBRANCH  11  13
ENDBRANCH   6   7
ENDBRANCH   5   6
ENDBRANCH   2   5
BRANCH   3  20
ATOM     20  C   UNL     1       4.299  -0.388  -1.220  0.00  0.00    +0.000 C 
BRANCH  20  21
ATOM     21  C   UNL     1       4.808  -0.362  -2.609  0.00  0.00    +0.000 A 
ATOM     22  C   UNL     1       5.026  -1.413  -3.481  0.00  0.00    +0.000 A 
ATOM     23  C   UNL     1       5.516  -0.824  -4.654  0.00  0.00    +0.000 A 
ATOM     24  N   UNL     1       5.620   0.500  -4.546  0.00  0.00    +0.000 NA
ATOM     25  N   UNL     1       5.177   0.773  -3.297  0.00  0.00    +0.000 N 
BRANCH  25  26
ATOM     26  C   UNL     1       5.074   2.172  -2.898  0.00  0.00    +0.000 C 
BRANCH  26  27
ATOM     27  C   UNL     1       6.094   2.574  -1.831  0.00  0.00    +0.000 C 
BRANCH  27  28
ATOM     28  C   UNL     1       6.102   4.050  -1.500  0.00  0.00    +0.000 A 
ATOM     29  C   UNL     1       5.717   4.493  -0.226  0.00  0.00    +0.000 A 
ATOM     30  C   UNL     1       5.816   5.843   0.118  0.00  0.00    +0.000 A 
ATOM     31  C   UNL     1       6.295   6.765  -0.809  0.00  0.00    +0.000 A 
ATOM     32  C   UNL     1       6.660   6.340  -2.085  0.00  0.00    +0.000 A 
ATOM     33  C   UNL     1       6.562   4.990  -2.431  0.00  0.00    +0.000 A 
ENDBRANCH  27  28
ENDBRANCH  26  27
ENDBRANCH  25  26
ENDBRANCH  20  21
ENDBRANCH   3  20
TORSDOF 10
