REMARK  Name = 
REMARK  4 active torsions:
REMARK  status: ('A' for Active; 'I' for Inactive)
REMARK    1  A    between atoms: C_2  and  C_18
REMARK    2  A    between atoms: N_3  and  C_4
REMARK    3  A    between atoms: C_6  and  C_7
REMARK    4  A    between atoms: C_21  and  N_22
REMARK                            x       y       z     vdW  Elec       q    Type
REMARK                         _______ _______ _______ _____ _____    ______ ____
ROOT
ATOM      1  O   UNL     1       1.055   0.072   0.445  0.00  0.00    +0.000 OA
ATOM      2  C   UNL     1       2.238  -0.005   0.138  0.00  0.00    +0.000 C 
ATOM      3  N   UNL     1       2.857   0.584  -0.950  0.00  0.00    +0.000 N 
ATOM      4  H   UNL     1       3.780   0.248  -1.193  0.00  0.00    +0.000 HD
ENDROOT
BRANCH   3   5
ATOM      5  C   UNL     1       2.254   1.454  -1.880  0.00  0.00    +0.000 A 
ATOM      6  C   UNL     1       1.034   2.097  -1.644  0.00  0.00    +0.000 A 
ATOM      7  C   UNL     1       0.422   2.924  -2.607  0.00  0.00    +0.000 A 
ATOM      8  C   UNL     1       1.093   3.071  -3.833  0.00  0.00    +0.000 A 
ATOM      9  C   UNL     1       2.335   2.475  -4.064  0.00  0.00    +0.000 A 
ATOM     10  C   UNL     1       2.921   1.680  -3.082  0.00  0.00    +0.000 A 
BRANCH   7  11
ATOM     11  C   UNL     1      -0.856   3.621  -2.313  0.00  0.00    +0.000 A 
ATOM     12  C   UNL     1      -1.815   3.058  -1.442  0.00  0.00    +0.000 A 
ATOM     13  C   UNL     1      -2.990   3.740  -1.107  0.00  0.00    +0.000 A 
ATOM     14  C   UNL     1      -3.238   4.989  -1.657  0.00  0.00    +0.000 A 
ATOM     15  F   UNL     1      -4.359   5.645  -1.332  0.00  0.00    +0.000 F 
ATOM     16  C   UNL     1      -2.337   5.567  -2.534  0.00  0.00    +0.000 A 
ATOM     17  C   UNL     1      -1.162   4.889  -2.848  0.00  0.00    +0.000 A 
ATOM     18  F   UNL     1      -0.302   5.510  -3.671  0.00  0.00    +0.000 F 
ENDBRANCH   7  11
ENDBRANCH   3   5
BRANCH   2  19
ATOM     19  C   UNL     1       3.123  -0.871   0.957  0.00  0.00    +0.000 A 
ATOM     20  C   UNL     1       2.596  -2.043   1.503  0.00  0.00    +0.000 A 
ATOM     21  C   UNL     1       3.396  -2.870   2.297  0.00  0.00    +0.000 A 
ATOM     22  C   UNL     1       4.726  -2.529   2.574  0.00  0.00    +0.000 A 
ATOM     23  C   UNL     1       5.245  -1.347   2.016  0.00  0.00    +0.000 A 
ATOM     24  C   UNL     1       4.451  -0.520   1.216  0.00  0.00    +0.000 A 
BRANCH  22  25
ATOM     25  N   UNL     1       5.526  -3.327   3.410  0.00  0.00    +0.000 N 
ATOM     26  N   UNL     1       6.805  -2.945   3.736  0.00  0.00    +0.000 NA
ATOM     27  N   UNL     1       7.305  -3.794   4.538  0.00  0.00    +0.000 NA
ATOM     28  N   UNL     1       6.390  -4.767   4.769  0.00  0.00    +0.000 N 
ATOM     29  C   UNL     1       5.229  -4.511   4.071  0.00  0.00    +0.000 A 
ATOM     30  O   UNL     1       4.225  -5.201   4.083  0.00  0.00    +0.000 OA
ATOM     31  H   UNL     1       6.559  -5.540   5.392  0.00  0.00    +0.000 HD
ENDBRANCH  22  25
ENDBRANCH   2  19
TORSDOF 4
