REMARK  Name = 
REMARK  5 active torsions:
REMARK  status: ('A' for Active; 'I' for Inactive)
REMARK    1  A    between atoms: C_2  and  C_18
REMARK    2  A    between atoms: N_3  and  C_4
REMARK    3  A    between atoms: C_5  and  C_6
REMARK    4  A    between atoms: N_9  and  C_10
REMARK    5  A    between atoms: N_20  and  C_21
REMARK                            x       y       z     vdW  Elec       q    Type
REMARK                         _______ _______ _______ _____ _____    ______ ____
ROOT
ATOM      1  O   UNL     1       1.112   0.410  -0.908  0.00  0.00    +0.000 OA
ATOM      2  C   UNL     1       2.228   0.189  -0.452  0.00  0.00    +0.000 C 
ATOM      3  N   UNL     1       2.838  -1.046  -0.405  0.00  0.00    +0.000 N 
ATOM      4  H   UNL     1       3.547  -1.193   0.309  0.00  0.00    +0.000 HD
ENDROOT
BRANCH   2   5
ATOM      5  C   UNL     1       2.983   1.248   0.298  0.00  0.00    +0.000 A 
ATOM      6  C   UNL     1       4.321   1.340   0.192  0.00  0.00    +0.000 A 
ATOM      7  N   UNL     1       5.058   2.262   0.932  0.00  0.00    +0.000 N 
ATOM      8  C   UNL     1       4.431   3.168   1.810  0.00  0.00    +0.000 A 
ATOM      9  O   UNL     1       4.991   4.015   2.502  0.00  0.00    +0.000 OA
ATOM     10  C   UNL     1       2.943   3.111   1.844  0.00  0.00    +0.000 A 
ATOM     11  C   UNL     1       2.277   2.197   1.127  0.00  0.00    +0.000 A 
BRANCH   7  12
ATOM     12  C   UNL     1       6.478   2.327   0.803  0.00  0.00    +0.000 A 
ATOM     13  C   UNL     1       7.299   2.272   1.939  0.00  0.00    +0.000 A 
ATOM     14  C   UNL     1       8.685   2.379   1.812  0.00  0.00    +0.000 A 
ATOM     15  C   UNL     1       9.243   2.572   0.554  0.00  0.00    +0.000 A 
ATOM     16  F   UNL     1      10.569   2.719   0.437  0.00  0.00    +0.000 F 
ATOM     17  C   UNL     1       8.445   2.624  -0.583  0.00  0.00    +0.000 A 
ATOM     18  C   UNL     1       7.062   2.478  -0.464  0.00  0.00    +0.000 A 
ENDBRANCH   7  12
ENDBRANCH   2   5
BRANCH   3  19
ATOM     19  C   UNL     1       2.256  -2.189  -0.918  0.00  0.00    +0.000 A 
ATOM     20  C   UNL     1       2.306  -3.410  -0.281  0.00  0.00    +0.000 A 
ATOM     21  N   UNL     1       1.603  -4.291  -1.083  0.00  0.00    +0.000 N 
ATOM     22  N   UNL     1       1.254  -3.713  -2.262  0.00  0.00    +0.000 NA
ATOM     23  C   UNL     1       1.551  -2.420  -2.108  0.00  0.00    +0.000 A 
BRANCH  21  24
ATOM     24  C   UNL     1       1.180  -5.633  -0.822  0.00  0.00    +0.000 A 
ATOM     25  C   UNL     1       0.875  -6.063   0.464  0.00  0.00    +0.000 A 
ATOM     26  C   UNL     1       0.450  -7.371   0.633  0.00  0.00    +0.000 A 
ATOM     27  N   UNL     1       0.318  -8.255  -0.376  0.00  0.00    +0.000 NA
ATOM     28  C   UNL     1       0.595  -7.801  -1.618  0.00  0.00    +0.000 A 
ATOM     29  C   UNL     1       1.010  -6.509  -1.894  0.00  0.00    +0.000 A 
ENDBRANCH  21  24
BRANCH  20  30
ATOM     30  C   UNL     1       2.947  -3.758   0.995  0.00  0.00    +0.000 C 
ATOM     31  F   UNL     1       3.789  -4.811   0.865  0.00  0.00    +0.000 F 
ATOM     32  F   UNL     1       3.719  -2.719   1.437  0.00  0.00    +0.000 F 
ENDBRANCH  20  30
ENDBRANCH   3  19
TORSDOF 5
