REMARK  Name = 
REMARK  5 active torsions:
REMARK  status: ('A' for Active; 'I' for Inactive)
REMARK    1  A    between atoms: C_2  and  C_23
REMARK    2  A    between atoms: N_3  and  C_4
REMARK    3  A    between atoms: C_7  and  N_8
REMARK    4  A    between atoms: C_9  and  C_11
REMARK    5  A    between atoms: C_25  and  O_26
REMARK                            x       y       z     vdW  Elec       q    Type
REMARK                         _______ _______ _______ _____ _____    ______ ____
ROOT
ATOM      1  C   UNL     1       2.183  -1.675  -1.896  0.00  0.00    +0.000 A 
ATOM      2  C   UNL     1       1.089  -1.022  -2.446  0.00  0.00    +0.000 A 
ATOM      3  C   UNL     1       0.248  -1.718  -3.321  0.00  0.00    +0.000 A 
ATOM      4  C   UNL     1       0.491  -3.056  -3.609  0.00  0.00    +0.000 A 
ATOM      5  C   UNL     1       1.611  -3.622  -3.011  0.00  0.00    +0.000 A 
ATOM      6  N   UNL     1       2.443  -2.966  -2.171  0.00  0.00    +0.000 NA
ENDROOT
BRANCH   1   9
ATOM      7  O   UNL     1       4.889  -2.337  -1.103  0.00  0.00    +0.000 OA
ATOM      8  C   UNL     1       4.254  -1.399  -0.628  0.00  0.00    +0.000 C 
ATOM      9  N   UNL     1       3.005  -0.961  -1.008  0.00  0.00    +0.000 N 
ATOM     10  H   UNL     1       2.698  -0.043  -0.722  0.00  0.00    +0.000 HD
BRANCH   8  11
ATOM     11  C   UNL     1       4.941  -0.600   0.421  0.00  0.00    +0.000 A 
ATOM     12  C   UNL     1       6.330  -0.450   0.302  0.00  0.00    +0.000 A 
ATOM     13  C   UNL     1       7.044   0.148   1.327  0.00  0.00    +0.000 A 
ATOM     14  C   UNL     1       6.399   0.595   2.474  0.00  0.00    +0.000 A 
ATOM     15  C   UNL     1       5.012   0.466   2.587  0.00  0.00    +0.000 A 
ATOM     16  C   UNL     1       4.274  -0.127   1.558  0.00  0.00    +0.000 A 
BRANCH  13  17
ATOM     17  O   UNL     1       8.397   0.294   1.250  0.00  0.00    +0.000 OA
ATOM     18  H   UNL     1       8.700  -0.081   0.406  0.00  0.00    +0.000 HD
ENDBRANCH  13  17
ENDBRANCH   8  11
ENDBRANCH   1   9
BRANCH   4  19
ATOM     19  N   UNL     1      -0.306  -3.850  -4.464  0.00  0.00    +0.000 N 
ATOM     20  C   UNL     1      -1.470  -3.466  -5.103  0.00  0.00    +0.000 C 
ATOM     21  O   UNL     1      -2.015  -2.372  -4.981  0.00  0.00    +0.000 OA
ATOM     22  H   UNL     1       0.017  -4.802  -4.614  0.00  0.00    +0.000 HD
BRANCH  20  23
ATOM     23  C   UNL     1      -2.100  -4.453  -6.028  0.00  0.00    +0.000 A 
ATOM     24  C   UNL     1      -3.276  -4.069  -6.694  0.00  0.00    +0.000 A 
ATOM     25  C   UNL     1      -3.884  -4.889  -7.651  0.00  0.00    +0.000 A 
ATOM     26  C   UNL     1      -3.262  -6.107  -7.940  0.00  0.00    +0.000 A 
ATOM     27  N   UNL     1      -3.589  -7.075  -8.863  0.00  0.00    +0.000 N 
ATOM     28  C   UNL     1      -2.674  -8.093  -8.821  0.00  0.00    +0.000 A 
ATOM     29  C   UNL     1      -1.762  -7.802  -7.833  0.00  0.00    +0.000 A 
ATOM     30  C   UNL     1      -2.110  -6.538  -7.281  0.00  0.00    +0.000 A 
ATOM     31  C   UNL     1      -1.540  -5.707  -6.299  0.00  0.00    +0.000 A 
ATOM     32  F   UNL     1      -0.434  -6.120  -5.657  0.00  0.00    +0.000 F 
ATOM     33  H   UNL     1      -4.373  -7.021  -9.499  0.00  0.00    +0.000 HD
ENDBRANCH  20  23
ENDBRANCH   4  19
TORSDOF 5
