REMARK  Name = 
REMARK  6 active torsions:
REMARK  status: ('A' for Active; 'I' for Inactive)
REMARK    1  A    between atoms: C_2  and  C_3
REMARK    2  A    between atoms: C_3  and  C_4
REMARK    3  A    between atoms: C_7  and  O_8
REMARK    4  A    between atoms: N_15  and  C_16
REMARK    5  A    between atoms: C_18  and  N_19
REMARK    6  A    between atoms: C_20  and  C_22
REMARK                            x       y       z     vdW  Elec       q    Type
REMARK                         _______ _______ _______ _____ _____    ______ ____
ROOT
ATOM      1  O   UNL     1       2.619   0.805   0.705  0.00  0.00    +0.000 OA
ATOM      2  C   UNL     1       2.199   0.020  -0.142  0.00  0.00    +0.000 C 
ATOM      3  N   UNL     1       2.970  -0.831  -0.926  0.00  0.00    +0.000 N 
ATOM      4  H   UNL     1       2.523  -1.260  -1.726  0.00  0.00    +0.000 HD
ENDROOT
BRANCH   3   5
ATOM      5  C   UNL     1       4.364  -1.019  -0.796  0.00  0.00    +0.000 A 
ATOM      6  C   UNL     1       5.055  -0.679   0.369  0.00  0.00    +0.000 A 
ATOM      7  C   UNL     1       6.444  -0.805   0.467  0.00  0.00    +0.000 A 
ATOM      8  C   UNL     1       7.153  -1.278  -0.638  0.00  0.00    +0.000 A 
ATOM      9  C   UNL     1       6.468  -1.683  -1.791  0.00  0.00    +0.000 A 
ATOM     10  C   UNL     1       5.076  -1.568  -1.865  0.00  0.00    +0.000 A 
BRANCH   7  11
ATOM     11  N   UNL     1       7.159  -0.443   1.638  0.00  0.00    +0.000 N 
ATOM     12  C   UNL     1       6.590  -0.307   2.896  0.00  0.00    +0.000 C 
ATOM     13  O   UNL     1       5.440  -0.615   3.204  0.00  0.00    +0.000 OA
ATOM     14  H   UNL     1       8.165  -0.415   1.552  0.00  0.00    +0.000 HD
BRANCH  12  15
ATOM     15  C   UNL     1       7.447   0.170   3.992  0.00  0.00    +0.000 A 
ATOM     16  C   UNL     1       8.558   0.971   3.844  0.00  0.00    +0.000 A 
ATOM     17  N   UNL     1       9.304   1.411   4.884  0.00  0.00    +0.000 NA
ATOM     18  C   UNL     1       8.886   1.038   6.107  0.00  0.00    +0.000 A 
ATOM     19  N   UNL     1       7.815   0.277   6.374  0.00  0.00    +0.000 NA
ATOM     20  C   UNL     1       7.108  -0.135   5.297  0.00  0.00    +0.000 A 
ENDBRANCH  12  15
ENDBRANCH   7  11
ENDBRANCH   3   5
BRANCH   2  21
ATOM     21  C   UNL     1       0.711  -0.054  -0.435  0.00  0.00    +0.000 C 
BRANCH  21  22
ATOM     22  C   UNL     1      -0.031  -1.170   0.284  0.00  0.00    +0.000 A 
ATOM     23  C   UNL     1       0.410  -1.576   1.559  0.00  0.00    +0.000 A 
ATOM     24  C   UNL     1      -0.251  -2.574   2.267  0.00  0.00    +0.000 A 
ATOM     25  C   UNL     1      -1.386  -3.161   1.722  0.00  0.00    +0.000 A 
ATOM     26  C   UNL     1      -1.894  -2.758   0.472  0.00  0.00    +0.000 A 
ATOM     27  C   UNL     1      -3.069  -3.333  -0.057  0.00  0.00    +0.000 A 
ATOM     28  C   UNL     1      -3.583  -2.940  -1.290  0.00  0.00    +0.000 A 
ATOM     29  C   UNL     1      -2.933  -1.958  -2.019  0.00  0.00    +0.000 A 
ATOM     30  C   UNL     1      -1.772  -1.369  -1.510  0.00  0.00    +0.000 A 
ATOM     31  C   UNL     1      -1.216  -1.749  -0.264  0.00  0.00    +0.000 A 
BRANCH  25  32
ATOM     32  O   UNL     1      -2.028  -4.151   2.424  0.00  0.00    +0.000 OA
ATOM     33  H   UNL     1      -1.530  -4.327   3.238  0.00  0.00    +0.000 HD
ENDBRANCH  25  32
ENDBRANCH  21  22
ENDBRANCH   2  21
TORSDOF 6
