REMARK  Name = 
REMARK  5 active torsions:
REMARK  status: ('A' for Active; 'I' for Inactive)
REMARK    1  A    between atoms: C_2  and  C_17
REMARK    2  A    between atoms: N_3  and  C_4
REMARK    3  A    between atoms: N_6  and  C_7
REMARK    4  A    between atoms: C_19  and  O_20
REMARK    5  A    between atoms: N_22  and  C_23
REMARK                            x       y       z     vdW  Elec       q    Type
REMARK                         _______ _______ _______ _____ _____    ______ ____
ROOT
ATOM      1  O   UNL     1       0.942  -0.380   0.379  0.00  0.00    +0.000 OA
ATOM      2  C   UNL     1       2.093  -0.031   0.131  0.00  0.00    +0.000 C 
ATOM      3  N   UNL     1       2.705   1.108   0.636  0.00  0.00    +0.000 N 
ATOM      4  H   UNL     1       3.602   1.340   0.229  0.00  0.00    +0.000 HD
ENDROOT
BRANCH   3   5
ATOM      5  C   UNL     1       2.118   2.078   1.418  0.00  0.00    +0.000 A 
ATOM      6  C   UNL     1       0.963   1.927   2.090  0.00  0.00    +0.000 A 
ATOM      7  N   UNL     1       0.369   2.953   2.821  0.00  0.00    +0.000 N 
ATOM      8  C   UNL     1       0.954   4.231   2.877  0.00  0.00    +0.000 A 
ATOM      9  O   UNL     1       0.494   5.230   3.421  0.00  0.00    +0.000 OA
ATOM     10  C   UNL     1       2.248   4.382   2.152  0.00  0.00    +0.000 A 
ATOM     11  C   UNL     1       2.788   3.357   1.483  0.00  0.00    +0.000 A 
BRANCH   7  12
ATOM     12  C   UNL     1      -0.897   2.739   3.457  0.00  0.00    +0.000 A 
ATOM     13  C   UNL     1      -1.906   2.014   2.802  0.00  0.00    +0.000 A 
ATOM     14  C   UNL     1      -3.154   1.829   3.401  0.00  0.00    +0.000 A 
ATOM     15  C   UNL     1      -3.394   2.332   4.676  0.00  0.00    +0.000 A 
ATOM     16  C   UNL     1      -2.392   3.024   5.352  0.00  0.00    +0.000 A 
ATOM     17  C   UNL     1      -1.154   3.239   4.740  0.00  0.00    +0.000 A 
ENDBRANCH   7  12
ENDBRANCH   3   5
BRANCH   2  18
ATOM     18  C   UNL     1       2.929  -0.773  -0.774  0.00  0.00    +0.000 A 
ATOM     19  C   UNL     1       4.253  -1.146  -0.631  0.00  0.00    +0.000 A 
ATOM     20  C   UNL     1       4.469  -2.030  -1.684  0.00  0.00    +0.000 A 
ATOM     21  N   UNL     1       3.409  -2.231  -2.445  0.00  0.00    +0.000 NA
ATOM     22  N   UNL     1       2.486  -1.355  -1.960  0.00  0.00    +0.000 N 
BRANCH  22  23
ATOM     23  C   UNL     1       1.315  -1.099  -2.721  0.00  0.00    +0.000 A 
ATOM     24  C   UNL     1       0.806  -2.103  -3.560  0.00  0.00    +0.000 A 
ATOM     25  C   UNL     1      -0.324  -1.856  -4.344  0.00  0.00    +0.000 A 
ATOM     26  C   UNL     1      -0.940  -0.605  -4.315  0.00  0.00    +0.000 A 
ATOM     27  C   UNL     1      -0.423   0.402  -3.502  0.00  0.00    +0.000 A 
ATOM     28  C   UNL     1       0.700   0.154  -2.714  0.00  0.00    +0.000 A 
ATOM     29  F   UNL     1       1.228   1.190  -2.047  0.00  0.00    +0.000 F 
ENDBRANCH  22  23
BRANCH  20  30
ATOM     30  O   UNL     1       5.572  -2.710  -2.000  0.00  0.00    +0.000 OA
ATOM     31  H   UNL     1       6.291  -2.480  -1.394  0.00  0.00    +0.000 HD
ENDBRANCH  20  30
ENDBRANCH   2  18
TORSDOF 5
