REMARK  Name = 
REMARK  9 active torsions:
REMARK  status: ('A' for Active; 'I' for Inactive)
REMARK    1  A    between atoms: C_1  and  O_2
REMARK    2  A    between atoms: O_2  and  C_3
REMARK    3  A    between atoms: C_7  and  C_8
REMARK    4  A    between atoms: C_8  and  C_9
REMARK    5  A    between atoms: C_9  and  N_10
REMARK    6  A    between atoms: C_9  and  C_27
REMARK    7  A    between atoms: N_13  and  C_14
REMARK    8  A    between atoms: C_14  and  C_15
REMARK    9  A    between atoms: C_15  and  N_16
REMARK                            x       y       z     vdW  Elec       q    Type
REMARK                         _______ _______ _______ _____ _____    ______ ____
ROOT
ATOM      1  N   UNL     1       7.181   2.328   2.875  0.00  0.00    +0.000 N 
ATOM      2  C   UNL     1       7.145   2.837   4.151  0.00  0.00    +0.000 C 
ATOM      3  O   UNL     1       7.052   4.031   4.407  0.00  0.00    +0.000 OA
ATOM      4  N   UNL     1       7.190   1.848   5.099  0.00  0.00    +0.000 N 
ATOM      5  H   UNL     1       7.562   1.406   2.761  0.00  0.00    +0.000 HD
ATOM      6  H   UNL     1       7.203   0.887   4.799  0.00  0.00    +0.000 HD
ENDROOT
BRANCH   1   7
ATOM      7  C   UNL     1       7.203   3.212   1.710  0.00  0.00    +0.000 C 
BRANCH   7   8
ATOM      8  C   UNL     1       8.640   3.550   1.343  0.00  0.00    +0.000 A 
ATOM      9  C   UNL     1       9.101   4.870   1.484  0.00  0.00    +0.000 A 
ATOM     10  C   UNL     1      10.425   5.199   1.191  0.00  0.00    +0.000 A 
ATOM     11  C   UNL     1      11.308   4.214   0.758  0.00  0.00    +0.000 A 
ATOM     12  C   UNL     1      10.868   2.900   0.615  0.00  0.00    +0.000 A 
ATOM     13  C   UNL     1       9.543   2.568   0.904  0.00  0.00    +0.000 A 
ENDBRANCH   7   8
BRANCH   7  14
ATOM     14  C   UNL     1       6.420   2.619   0.507  0.00  0.00    +0.000 C 
BRANCH  14  19
ATOM     15  C   UNL     1       3.152   0.772   1.223  0.00  0.00    +0.000 A 
ATOM     16  C   UNL     1       2.372   1.805   1.744  0.00  0.00    +0.000 A 
ATOM     17  C   UNL     1       2.851   3.115   1.737  0.00  0.00    +0.000 A 
ATOM     18  C   UNL     1       4.131   3.389   1.261  0.00  0.00    +0.000 A 
ATOM     19  C   UNL     1       4.966   2.348   0.835  0.00  0.00    +0.000 A 
ATOM     20  C   UNL     1       4.450   1.045   0.783  0.00  0.00    +0.000 A 
BRANCH  15  22
ATOM     21  C   UNL     1       1.356  -0.754   1.097  0.00  0.00    +0.000 C 
ATOM     22  O   UNL     1       2.763  -0.539   1.146  0.00  0.00    +0.000 OA
ENDBRANCH  15  22
ENDBRANCH  14  19
ENDBRANCH   7  14
ENDBRANCH   1   7
BRANCH   4  23
ATOM     23  C   UNL     1       7.098   2.136   6.526  0.00  0.00    +0.000 C 
BRANCH  23  24
ATOM     24  C   UNL     1       5.771   1.646   7.121  0.00  0.00    +0.000 C 
BRANCH  24  25
ATOM     25  N   UNL     1       5.518   2.013   8.534  0.00  0.00    +0.000 N 
ATOM     26  N   UNL     1       4.259   1.546   8.952  0.00  0.00    +0.000 NA
ATOM     27  C   UNL     1       3.279   2.404   8.893  0.00  0.00    +0.000 A 
ATOM     28  C   UNL     1       3.466   3.770   8.400  0.00  0.00    +0.000 A 
ATOM     29  C   UNL     1       2.448   4.468   7.760  0.00  0.00    +0.000 A 
ATOM     30  C   UNL     1       2.742   5.715   7.203  0.00  0.00    +0.000 A 
ATOM     31  C   UNL     1       4.020   6.276   7.343  0.00  0.00    +0.000 A 
ATOM     32  C   UNL     1       5.029   5.570   7.990  0.00  0.00    +0.000 A 
ATOM     33  C   UNL     1       4.749   4.294   8.475  0.00  0.00    +0.000 A 
ATOM     34  C   UNL     1       5.832   3.358   8.833  0.00  0.00    +0.000 A 
ATOM     35  O   UNL     1       6.939   3.758   9.158  0.00  0.00    +0.000 OA
ENDBRANCH  24  25
ENDBRANCH  23  24
ENDBRANCH   4  23
TORSDOF 8
