REMARK  Name = 
REMARK  4 active torsions:
REMARK  status: ('A' for Active; 'I' for Inactive)
REMARK    1  A    between atoms: C_11  and  C_12
REMARK    2  A    between atoms: N_19  and  C_20
REMARK    3  A    between atoms: C_23  and  C_24
REMARK    4  A    between atoms: C_24  and  O_25
REMARK                            x       y       z     vdW  Elec       q    Type
REMARK                         _______ _______ _______ _____ _____    ______ ____
ROOT
ATOM      1  O   UNL     1       0.929   0.140  -0.070  0.00  0.00    +0.000 OA
ATOM      2  C   UNL     1       2.155   0.053  -0.089  0.00  0.00    +0.000 A 
ATOM      3  C   UNL     1       2.895   1.325  -0.111  0.00  0.00    +0.000 A 
ATOM      4  C   UNL     1       4.286   1.329  -0.175  0.00  0.00    +0.000 A 
ATOM      5  C   UNL     1       4.942   2.561  -0.318  0.00  0.00    +0.000 A 
ATOM      6  C   UNL     1       4.224   3.753  -0.235  0.00  0.00    +0.000 A 
ATOM      7  F   UNL     1       4.887   4.917  -0.269  0.00  0.00    +0.000 F 
ATOM      8  C   UNL     1       2.847   3.740  -0.098  0.00  0.00    +0.000 A 
ATOM      9  F   UNL     1       2.162   4.886   0.001  0.00  0.00    +0.000 F 
ATOM     10  C   UNL     1       2.170   2.532  -0.073  0.00  0.00    +0.000 A 
ATOM     11  C   UNL     1       4.971   0.009  -0.058  0.00  0.00    +0.000 A 
ATOM     12  N   UNL     1       4.303  -1.107   0.000  0.00  0.00    +0.000 NA
ATOM     13  N   UNL     1       2.924  -1.109  -0.043  0.00  0.00    +0.000 N 
ENDROOT
BRANCH  13  14
ATOM     14  C   UNL     1       2.285  -2.394   0.008  0.00  0.00    +0.000 A 
ATOM     15  C   UNL     1       2.919  -3.505   0.582  0.00  0.00    +0.000 A 
ATOM     16  F   UNL     1       4.153  -3.429   1.100  0.00  0.00    +0.000 F 
ATOM     17  C   UNL     1       2.223  -4.715   0.710  0.00  0.00    +0.000 A 
ATOM     18  C   UNL     1       0.923  -4.804   0.205  0.00  0.00    +0.000 A 
ATOM     19  C   UNL     1       0.372  -3.683  -0.380  0.00  0.00    +0.000 A 
ATOM     20  N   UNL     1       1.018  -2.504  -0.478  0.00  0.00    +0.000 NA
BRANCH  17  21
ATOM     21  C   UNL     1       2.838  -5.895   1.400  0.00  0.00    +0.000 C 
BRANCH  21  22
ATOM     22  O   UNL     1       2.003  -6.333   2.469  0.00  0.00    +0.000 OA
ATOM     23  H   UNL     1       1.657  -5.539   2.912  0.00  0.00    +0.000 HD
ENDBRANCH  21  22
ENDBRANCH  17  21
ENDBRANCH  13  14
BRANCH  11  24
ATOM     24  C   UNL     1       6.472  -0.102   0.015  0.00  0.00    +0.000 A 
ATOM     25  C   UNL     1       7.262   0.823   0.711  0.00  0.00    +0.000 A 
ATOM     26  C   UNL     1       8.657   0.739   0.677  0.00  0.00    +0.000 A 
ATOM     27  C   UNL     1       9.274  -0.324   0.023  0.00  0.00    +0.000 A 
ATOM     28  C   UNL     1       8.498  -1.303  -0.593  0.00  0.00    +0.000 A 
ATOM     29  C   UNL     1       7.104  -1.192  -0.604  0.00  0.00    +0.000 A 
ENDBRANCH  11  24
TORSDOF 4
