REMARK  Name = 
REMARK  5 active torsions:
REMARK  status: ('A' for Active; 'I' for Inactive)
REMARK    1  A    between atoms: C_2  and  C_18
REMARK    2  A    between atoms: N_3  and  C_4
REMARK    3  A    between atoms: C_4  and  C_5
REMARK    4  A    between atoms: C_8  and  C_9
REMARK    5  A    between atoms: N_21  and  C_22
REMARK                            x       y       z     vdW  Elec       q    Type
REMARK                         _______ _______ _______ _____ _____    ______ ____
ROOT
ATOM      1  O   UNL     1       1.882  -1.639   1.506  0.00  0.00    +0.000 OA
ATOM      2  C   UNL     1       2.616  -0.925   0.831  0.00  0.00    +0.000 C 
ATOM      3  N   UNL     1       2.857   0.398   1.123  0.00  0.00    +0.000 N 
ATOM      4  H   UNL     1       3.458   0.942   0.518  0.00  0.00    +0.000 HD
ENDROOT
BRANCH   2   5
ATOM      5  C   UNL     1       3.274  -1.432  -0.352  0.00  0.00    +0.000 A 
ATOM      6  C   UNL     1       4.135  -0.785  -1.202  0.00  0.00    +0.000 A 
ATOM      7  F   UNL     1       4.529   0.453  -1.054  0.00  0.00    +0.000 F 
ATOM      8  N   UNL     1       4.498  -1.659  -2.205  0.00  0.00    +0.000 N 
ATOM      9  N   UNL     1       3.898  -2.870  -2.029  0.00  0.00    +0.000 NA
ATOM     10  C   UNL     1       3.175  -2.721  -0.914  0.00  0.00    +0.000 A 
BRANCH   8  11
ATOM     11  C   UNL     1       5.384  -1.420  -3.291  0.00  0.00    +0.000 A 
ATOM     12  C   UNL     1       6.003  -0.172  -3.450  0.00  0.00    +0.000 A 
ATOM     13  C   UNL     1       6.912   0.036  -4.488  0.00  0.00    +0.000 A 
ATOM     14  C   UNL     1       7.202  -0.993  -5.379  0.00  0.00    +0.000 A 
ATOM     15  C   UNL     1       6.573  -2.230  -5.244  0.00  0.00    +0.000 A 
ATOM     16  C   UNL     1       5.664  -2.447  -4.205  0.00  0.00    +0.000 A 
ENDBRANCH   8  11
ENDBRANCH   2   5
BRANCH   3  17
ATOM     17  C   UNL     1       2.175   1.083   2.194  0.00  0.00    +0.000 C 
BRANCH  17  18
ATOM     18  C   UNL     1       3.128   1.643   3.220  0.00  0.00    +0.000 A 
ATOM     19  C   UNL     1       3.146   3.016   3.505  0.00  0.00    +0.000 A 
ATOM     20  C   UNL     1       3.955   3.521   4.528  0.00  0.00    +0.000 A 
ATOM     21  C   UNL     1       4.760   2.662   5.284  0.00  0.00    +0.000 A 
ATOM     22  C   UNL     1       4.765   1.294   4.988  0.00  0.00    +0.000 A 
ATOM     23  C   UNL     1       3.954   0.790   3.965  0.00  0.00    +0.000 A 
BRANCH  21  24
ATOM     24  C   UNL     1       5.585   3.191   6.383  0.00  0.00    +0.000 A 
ATOM     25  C   UNL     1       5.054   3.250   7.617  0.00  0.00    +0.000 A 
ATOM     26  N   UNL     1       5.782   3.742   8.677  0.00  0.00    +0.000 N 
ATOM     27  C   UNL     1       7.074   4.198   8.575  0.00  0.00    +0.000 A 
ATOM     28  O   UNL     1       7.705   4.631   9.531  0.00  0.00    +0.000 OA
ATOM     29  C   UNL     1       7.673   4.134   7.218  0.00  0.00    +0.000 A 
ATOM     30  C   UNL     1       6.952   3.654   6.195  0.00  0.00    +0.000 A 
ATOM     31  H   UNL     1       5.371   3.782   9.601  0.00  0.00    +0.000 HD
ENDBRANCH  21  24
ENDBRANCH  17  18
ENDBRANCH   3  17
TORSDOF 5
