REMARK  Name = 
REMARK  7 active torsions:
REMARK  status: ('A' for Active; 'I' for Inactive)
REMARK    1  A    between atoms: C_1  and  O_2
REMARK    2  A    between atoms: O_2  and  C_3
REMARK    3  A    between atoms: C_9  and  C_10
REMARK    4  A    between atoms: C_14  and  C_15
REMARK    5  A    between atoms: C_15  and  O_16
REMARK    6  A    between atoms: O_16  and  C_17
REMARK    7  A    between atoms: C_20  and  N_21
REMARK                            x       y       z     vdW  Elec       q    Type
REMARK                         _______ _______ _______ _____ _____    ______ ____
ROOT
ATOM      1  C   UNL     1       4.696  -0.353  -1.757  0.00  0.00    +0.000 A 
ATOM      2  C   UNL     1       5.974  -0.819  -1.439  0.00  0.00    +0.000 A 
ATOM      3  N   UNL     1       6.498  -2.015  -1.814  0.00  0.00    +0.000 NA
ATOM      4  C   UNL     1       5.697  -2.826  -2.532  0.00  0.00    +0.000 A 
ATOM      5  C   UNL     1       4.400  -2.501  -2.896  0.00  0.00    +0.000 A 
ATOM      6  C   UNL     1       3.913  -1.243  -2.513  0.00  0.00    +0.000 A 
ENDROOT
BRANCH   1  13
ATOM      7  C   UNL     1       4.985   2.130  -1.177  0.00  0.00    +0.000 A 
ATOM      8  C   UNL     1       4.428   3.354  -0.765  0.00  0.00    +0.000 A 
ATOM      9  C   UNL     1       3.070   3.453  -0.473  0.00  0.00    +0.000 A 
ATOM     10  C   UNL     1       2.272   2.329  -0.593  0.00  0.00    +0.000 A 
ATOM     11  F   UNL     1       0.963   2.419  -0.324  0.00  0.00    +0.000 F 
ATOM     12  C   UNL     1       2.807   1.109  -0.995  0.00  0.00    +0.000 A 
ATOM     13  C   UNL     1       4.176   0.971  -1.313  0.00  0.00    +0.000 A 
BRANCH   7  15
ATOM     14  C   UNL     1       7.216   2.866  -0.826  0.00  0.00    +0.000 C 
ATOM     15  O   UNL     1       6.306   2.036  -1.543  0.00  0.00    +0.000 OA
ENDBRANCH   7  15
ENDBRANCH   1  13
BRANCH   5  16
ATOM     16  C   UNL     1       3.560  -3.466  -3.682  0.00  0.00    +0.000 C 
BRANCH  16  17
ATOM     17  O   UNL     1       3.428  -4.674  -2.931  0.00  0.00    +0.000 OA
BRANCH  17  18
ATOM     18  C   UNL     1       2.708  -5.677  -3.517  0.00  0.00    +0.000 A 
ATOM     19  C   UNL     1       2.083  -5.609  -4.758  0.00  0.00    +0.000 A 
ATOM     20  C   UNL     1       1.385  -6.712  -5.260  0.00  0.00    +0.000 A 
ATOM     21  C   UNL     1       1.285  -7.905  -4.534  0.00  0.00    +0.000 A 
ATOM     22  C   UNL     1       1.900  -7.954  -3.275  0.00  0.00    +0.000 A 
ATOM     23  C   UNL     1       2.612  -6.854  -2.777  0.00  0.00    +0.000 A 
BRANCH  21  24
ATOM     24  N   UNL     1       0.582  -9.024  -5.051  0.00  0.00    +0.000 N 
ATOM     25  C   UNL     1       0.169 -10.158  -4.365  0.00  0.00    +0.000 A 
ATOM     26  C   UNL     1      -0.445 -10.998  -5.207  0.00  0.00    +0.000 A 
ATOM     27  N   UNL     1      -0.448 -10.443  -6.453  0.00  0.00    +0.000 N 
ATOM     28  C   UNL     1       0.189  -9.188  -6.422  0.00  0.00    +0.000 A 
ATOM     29  O   UNL     1       0.350  -8.476  -7.398  0.00  0.00    +0.000 OA
ATOM     30  H   UNL     1      -0.823 -10.839  -7.301  0.00  0.00    +0.000 HD
ENDBRANCH  21  24
ENDBRANCH  17  18
ENDBRANCH  16  17
ENDBRANCH   5  16
TORSDOF 6
