REMARK  Name = 
REMARK  4 active torsions:
REMARK  status: ('A' for Active; 'I' for Inactive)
REMARK    1  A    between atoms: C_2  and  C_3
REMARK    2  A    between atoms: C_3  and  C_4
REMARK    3  A    between atoms: C_7  and  N_8
REMARK    4  A    between atoms: C_18  and  C_19
REMARK                            x       y       z     vdW  Elec       q    Type
REMARK                         _______ _______ _______ _____ _____    ______ ____
ROOT
ATOM      1  O   UNL     1       1.102  -0.171  -0.254  0.00  0.00    +0.000 OA
ATOM      2  C   UNL     1       2.316  -0.123  -0.084  0.00  0.00    +0.000 C 
ATOM      3  N   UNL     1       3.186  -1.184  -0.175  0.00  0.00    +0.000 N 
ATOM      4  C   UNL     1       2.837  -2.459  -0.604  0.00  0.00    +0.000 A 
ATOM      5  N   UNL     1       3.737  -3.414  -0.326  0.00  0.00    +0.000 NA
ATOM      6  C   UNL     1       3.425  -4.689  -0.670  0.00  0.00    +0.000 A 
ATOM      7  C   UNL     1       2.252  -5.001  -1.332  0.00  0.00    +0.000 A 
ATOM      8  C   UNL     1       1.420  -3.944  -1.608  0.00  0.00    +0.000 A 
ATOM      9  N   UNL     1       1.694  -2.679  -1.256  0.00  0.00    +0.000 NA
ATOM     10  H   UNL     1       4.117  -1.122   0.207  0.00  0.00    +0.000 HD
ENDROOT
BRANCH   6  11
ATOM     11  C   UNL     1       4.394  -5.720  -0.244  0.00  0.00    +0.000 A 
ATOM     12  C   UNL     1       5.155  -5.542   0.927  0.00  0.00    +0.000 A 
ATOM     13  C   UNL     1       6.057  -6.515   1.353  0.00  0.00    +0.000 A 
ATOM     14  F   UNL     1       6.758  -6.314   2.477  0.00  0.00    +0.000 F 
ATOM     15  C   UNL     1       6.237  -7.687   0.639  0.00  0.00    +0.000 A 
ATOM     16  C   UNL     1       5.498  -7.875  -0.516  0.00  0.00    +0.000 A 
ATOM     17  F   UNL     1       5.653  -9.003  -1.222  0.00  0.00    +0.000 F 
ATOM     18  C   UNL     1       4.589  -6.914  -0.962  0.00  0.00    +0.000 A 
ENDBRANCH   6  11
BRANCH   2  19
ATOM     19  C   UNL     1       2.981   1.197   0.270  0.00  0.00    +0.000 C 
BRANCH  19  20
ATOM     20  C   UNL     1       3.035   1.547   1.741  0.00  0.00    +0.000 A 
ATOM     21  C   UNL     1       4.067   2.381   2.199  0.00  0.00    +0.000 A 
ATOM     22  C   UNL     1       4.129   2.790   3.536  0.00  0.00    +0.000 A 
ATOM     23  C   UNL     1       3.152   2.372   4.446  0.00  0.00    +0.000 A 
ATOM     24  C   UNL     1       2.100   1.563   3.991  0.00  0.00    +0.000 A 
ATOM     25  C   UNL     1       2.038   1.166   2.648  0.00  0.00    +0.000 A 
BRANCH  23  26
ATOM     26  N   UNL     1       3.222   2.739   5.819  0.00  0.00    +0.000 N 
ATOM     27  C   UNL     1       4.151   3.557   6.433  0.00  0.00    +0.000 A 
ATOM     28  C   UNL     1       3.886   3.537   7.782  0.00  0.00    +0.000 A 
ATOM     29  C   UNL     1       2.762   2.711   7.903  0.00  0.00    +0.000 A 
ATOM     30  N   UNL     1       2.336   2.248   6.727  0.00  0.00    +0.000 NA
ENDBRANCH  23  26
ENDBRANCH  19  20
ENDBRANCH   2  19
TORSDOF 4
