REMARK  Name = 
REMARK  6 active torsions:
REMARK  status: ('A' for Active; 'I' for Inactive)
REMARK    1  A    between atoms: N_1  and  C_2
REMARK    2  A    between atoms: C_2  and  C_3
REMARK    3  A    between atoms: C_3  and  N_4
REMARK    4  A    between atoms: C_3  and  C_21
REMARK    5  A    between atoms: C_5  and  C_7
REMARK    6  A    between atoms: N_9  and  C_10
REMARK                            x       y       z     vdW  Elec       q    Type
REMARK                         _______ _______ _______ _____ _____    ______ ____
ROOT
ATOM      1  N   UNL     1       2.413  -2.269  -1.002  0.00  0.00    +0.000 N 
ATOM      2  C   UNL     1       1.287  -3.052  -0.781  0.00  0.00    +0.000 C 
ATOM      3  O   UNL     1       0.620  -3.077   0.286  0.00  0.00    +0.000 OA
ATOM      4  H   UNL     1       2.764  -2.205  -1.949  0.00  0.00    +0.000 HD
ENDROOT
BRANCH   2   5
ATOM      5  C   UNL     1       0.846  -3.830  -2.012  0.00  0.00    +0.000 A 
ATOM      6  N   UNL     1       1.170  -3.327  -3.169  0.00  0.00    +0.000 NA
ATOM      7  N   UNL     1       0.823  -4.032  -4.319  0.00  0.00    +0.000 N 
ATOM      8  C   UNL     1       0.055  -5.183  -4.252  0.00  0.00    +0.000 A 
ATOM      9  C   UNL     1      -0.314  -5.792  -3.130  0.00  0.00    +0.000 A 
ATOM     10  C   UNL     1       0.163  -5.194  -1.905  0.00  0.00    +0.000 A 
ATOM     11  O   UNL     1       0.039  -5.737  -0.824  0.00  0.00    +0.000 OA
BRANCH   7  12
ATOM     12  C   UNL     1       1.250  -3.437  -5.545  0.00  0.00    +0.000 A 
ATOM     13  C   UNL     1       1.491  -2.043  -5.615  0.00  0.00    +0.000 A 
ATOM     14  C   UNL     1       1.909  -1.427  -6.798  0.00  0.00    +0.000 A 
ATOM     15  C   UNL     1       2.115  -2.180  -7.953  0.00  0.00    +0.000 A 
ATOM     16  C   UNL     1       1.897  -3.558  -7.911  0.00  0.00    +0.000 A 
ATOM     17  C   UNL     1       1.478  -4.167  -6.721  0.00  0.00    +0.000 A 
ATOM     18  F   UNL     1       1.310  -5.498  -6.756  0.00  0.00    +0.000 F 
ENDBRANCH   7  12
ENDBRANCH   2   5
BRANCH   1  19
ATOM     19  C   UNL     1       2.942  -1.385   0.030  0.00  0.00    +0.000 C 
BRANCH  19  20
ATOM     20  C   UNL     1       4.463  -1.432  -0.015  0.00  0.00    +0.000 A 
ATOM     21  C   UNL     1       5.085  -2.598   0.459  0.00  0.00    +0.000 A 
ATOM     22  C   UNL     1       6.467  -2.740   0.407  0.00  0.00    +0.000 A 
ATOM     23  C   UNL     1       7.263  -1.660   0.015  0.00  0.00    +0.000 A 
ATOM     24  C   UNL     1       8.655  -1.753   0.014  0.00  0.00    +0.000 A 
ATOM     25  C   UNL     1       9.412  -0.617   0.262  0.00  0.00    +0.000 A 
ATOM     26  C   UNL     1       8.833   0.625   0.045  0.00  0.00    +0.000 A 
ATOM     27  C   UNL     1       7.504   0.704  -0.386  0.00  0.00    +0.000 A 
ATOM     28  C   UNL     1       6.672  -0.428  -0.303  0.00  0.00    +0.000 A 
ATOM     29  C   UNL     1       5.273  -0.366  -0.446  0.00  0.00    +0.000 A 
ENDBRANCH  19  20
BRANCH  19  30
ATOM     30  C   UNL     1       2.321   0.040  -0.052  0.00  0.00    +0.000 C 
BRANCH  30  31
ATOM     31  N   UNL     1       0.859   0.074   0.075  0.00  0.00    +0.000 NA
ATOM     32  H   UNL     1       0.554   1.018   0.302  0.00  0.00    +0.000 HD
ATOM     33  H   UNL     1       0.569  -0.526   0.852  0.00  0.00    +0.000 HD
ENDBRANCH  30  31
ENDBRANCH  19  30
ENDBRANCH   1  19
TORSDOF 6
