REMARK  Name = 
REMARK  5 active torsions:
REMARK  status: ('A' for Active; 'I' for Inactive)
REMARK    1  A    between atoms: C_1  and  C_2
REMARK    2  A    between atoms: C_7  and  C_8
REMARK    3  A    between atoms: N_10  and  C_11
REMARK    4  A    between atoms: C_15  and  N_16
REMARK    5  A    between atoms: C_17  and  C_19
REMARK                            x       y       z     vdW  Elec       q    Type
REMARK                         _______ _______ _______ _____ _____    ______ ____
ROOT
ATOM      1  C   UNL     1       0.463  -3.771   0.274  0.00  0.00    +0.000 A 
ATOM      2  C   UNL     1       0.717  -4.763   1.230  0.00  0.00    +0.000 A 
ATOM      3  C   UNL     1      -0.061  -5.919   1.266  0.00  0.00    +0.000 A 
ATOM      4  C   UNL     1      -1.100  -6.088   0.347  0.00  0.00    +0.000 A 
ATOM      5  C   UNL     1      -1.383  -5.108  -0.608  0.00  0.00    +0.000 A 
ATOM      6  C   UNL     1      -0.592  -3.951  -0.636  0.00  0.00    +0.000 A 
ENDROOT
BRANCH   1   9
ATOM      7  C   UNL     1       2.459  -2.329   0.781  0.00  0.00    +0.000 C 
ATOM      8  O   UNL     1       3.057  -3.067   1.536  0.00  0.00    +0.000 OA
ATOM      9  N   UNL     1       1.228  -2.587   0.183  0.00  0.00    +0.000 N 
ATOM     10  H   UNL     1       0.909  -1.882  -0.485  0.00  0.00    +0.000 HD
BRANCH   7  17
ATOM     11  C   UNL     1       5.346  -1.499   1.343  0.00  0.00    +0.000 C 
ATOM     12  C   UNL     1       4.360  -0.620   0.635  0.00  0.00    +0.000 A 
ATOM     13  C   UNL     1       4.758   0.643   0.188  0.00  0.00    +0.000 A 
ATOM     14  C   UNL     1       3.848   1.438  -0.486  0.00  0.00    +0.000 A 
ATOM     15  N   UNL     1       2.588   1.033  -0.743  0.00  0.00    +0.000 NA
ATOM     16  N   UNL     1       2.183  -0.197  -0.313  0.00  0.00    +0.000 NA
ATOM     17  C   UNL     1       3.043  -0.999   0.372  0.00  0.00    +0.000 A 
ENDBRANCH   7  17
ENDBRANCH   1   9
BRANCH   5  18
ATOM     18  N   UNL     1      -2.409  -5.239  -1.573  0.00  0.00    +0.000 N 
ATOM     19  C   UNL     1      -3.418  -6.192  -1.580  0.00  0.00    +0.000 C 
ATOM     20  O   UNL     1      -3.648  -7.008  -0.694  0.00  0.00    +0.000 OA
ATOM     21  H   UNL     1      -2.427  -4.590  -2.354  0.00  0.00    +0.000 HD
BRANCH  19  22
ATOM     22  C   UNL     1      -4.253  -6.221  -2.830  0.00  0.00    +0.000 A 
ATOM     23  C   UNL     1      -5.247  -7.189  -2.925  0.00  0.00    +0.000 A 
ATOM     24  C   UNL     1      -5.671  -7.572  -4.198  0.00  0.00    +0.000 A 
ATOM     25  C   UNL     1      -6.510  -8.675  -4.355  0.00  0.00    +0.000 A 
ATOM     26  C   UNL     1      -6.442  -9.378  -5.546  0.00  0.00    +0.000 A 
ATOM     27  F   UNL     1      -6.911 -10.631  -5.588  0.00  0.00    +0.000 F 
ATOM     28  C   UNL     1      -5.812  -8.838  -6.661  0.00  0.00    +0.000 A 
ATOM     29  C   UNL     1      -5.257  -7.559  -6.585  0.00  0.00    +0.000 A 
ATOM     30  C   UNL     1      -5.103  -6.951  -5.325  0.00  0.00    +0.000 A 
ATOM     31  C   UNL     1      -4.303  -5.825  -5.098  0.00  0.00    +0.000 A 
ATOM     32  N   UNL     1      -3.839  -5.454  -3.877  0.00  0.00    +0.000 NA
ENDBRANCH  19  22
ENDBRANCH   5  18
TORSDOF 4
