REMARK  Name = 
REMARK  9 active torsions:
REMARK  status: ('A' for Active; 'I' for Inactive)
REMARK    1  A    between atoms: C_1  and  O_2
REMARK    2  A    between atoms: O_2  and  C_3
REMARK    3  A    between atoms: C_6  and  N_7
REMARK    4  A    between atoms: C_8  and  C_10
REMARK    5  A    between atoms: C_10  and  C_11
REMARK    6  A    between atoms: C_10  and  N_12
REMARK    7  A    between atoms: C_13  and  C_15
REMARK    8  A    between atoms: C_18  and  C_19
REMARK    9  A    between atoms: C_24  and  C_25
REMARK                            x       y       z     vdW  Elec       q    Type
REMARK                         _______ _______ _______ _____ _____    ______ ____
ROOT
ATOM      1  N   UNL     1       5.122   3.872   7.411  0.00  0.00    +0.000 N 
ATOM      2  C   UNL     1       5.728   4.388   8.524  0.00  0.00    +0.000 C 
ATOM      3  O   UNL     1       6.831   4.923   8.497  0.00  0.00    +0.000 OA
ATOM      4  H   UNL     1       4.190   3.469   7.464  0.00  0.00    +0.000 HD
ENDROOT
BRANCH   2   5
ATOM      5  C   UNL     1       4.965   4.301   9.800  0.00  0.00    +0.000 A 
ATOM      6  C   UNL     1       4.045   3.285  10.079  0.00  0.00    +0.000 A 
ATOM      7  C   UNL     1       3.363   3.268  11.308  0.00  0.00    +0.000 A 
ATOM      8  C   UNL     1       3.600   4.240  12.300  0.00  0.00    +0.000 A 
ATOM      9  C   UNL     1       4.579   5.209  12.010  0.00  0.00    +0.000 A 
ATOM     10  C   UNL     1       5.223   5.266  10.771  0.00  0.00    +0.000 A 
BRANCH   8  11
ATOM     11  C   UNL     1       2.885   4.229  13.614  0.00  0.00    +0.000 A 
ATOM     12  C   UNL     1       2.631   2.990  14.248  0.00  0.00    +0.000 A 
ATOM     13  C   UNL     1       2.066   2.907  15.525  0.00  0.00    +0.000 A 
ATOM     14  C   UNL     1       1.770   4.065  16.229  0.00  0.00    +0.000 A 
ATOM     15  C   UNL     1       1.980   5.303  15.628  0.00  0.00    +0.000 A 
ATOM     16  C   UNL     1       2.488   5.402  14.314  0.00  0.00    +0.000 A 
BRANCH  16  17
ATOM     17  C   UNL     1       2.535   6.736  13.722  0.00  0.00    +0.000 A 
ATOM     18  N   UNL     1       2.899   7.852  14.382  0.00  0.00    +0.000 NA
ATOM     19  N   UNL     1       2.804   8.752  13.391  0.00  0.00    +0.000 N 
ATOM     20  N   UNL     1       2.396   8.286  12.208  0.00  0.00    +0.000 NA
ATOM     21  N   UNL     1       2.199   6.992  12.411  0.00  0.00    +0.000 NA
ATOM     22  H   UNL     1       3.029   9.734  13.526  0.00  0.00    +0.000 HD
ENDBRANCH  16  17
ENDBRANCH   8  11
ENDBRANCH   2   5
BRANCH   1  23
ATOM     23  C   UNL     1       5.732   3.861   6.080  0.00  0.00    +0.000 C 
ATOM     24  C   UNL     1       5.908   5.269   5.525  0.00  0.00    +0.000 C 
BRANCH  23  26
ATOM     25  N   UNL     1       5.172   2.854   3.886  0.00  0.00    +0.000 N 
ATOM     26  C   UNL     1       4.779   3.020   5.205  0.00  0.00    +0.000 C 
ATOM     27  O   UNL     1       3.761   2.535   5.709  0.00  0.00    +0.000 OA
ATOM     28  H   UNL     1       6.056   3.262   3.603  0.00  0.00    +0.000 HD
BRANCH  25  32
ATOM     29  C   UNL     1       3.103   0.824   0.793  0.00  0.00    +0.000 A 
ATOM     30  C   UNL     1       2.554   0.877   2.069  0.00  0.00    +0.000 A 
ATOM     31  C   UNL     1       3.229   1.542   3.102  0.00  0.00    +0.000 A 
ATOM     32  C   UNL     1       4.452   2.168   2.881  0.00  0.00    +0.000 A 
ATOM     33  C   UNL     1       5.001   2.121   1.594  0.00  0.00    +0.000 A 
ATOM     34  C   UNL     1       4.327   1.449   0.558  0.00  0.00    +0.000 A 
BRANCH  29  36
ATOM     35  C   UNL     1       1.289  -0.444  -0.062  0.00  0.00    +0.000 C 
ATOM     36  O   UNL     1       2.543   0.195  -0.285  0.00  0.00    +0.000 OA
ENDBRANCH  29  36
ENDBRANCH  25  32
ENDBRANCH  23  26
ENDBRANCH   1  23
TORSDOF 7
