REMARK  Name = 
REMARK  6 active torsions:
REMARK  status: ('A' for Active; 'I' for Inactive)
REMARK    1  A    between atoms: C_2  and  C_3
REMARK    2  A    between atoms: C_4  and  N_5
REMARK    3  A    between atoms: C_6  and  C_8
REMARK    4  A    between atoms: C_8  and  C_11
REMARK    5  A    between atoms: C_12  and  C_13
REMARK    6  A    between atoms: N_21  and  C_22
REMARK                            x       y       z     vdW  Elec       q    Type
REMARK                         _______ _______ _______ _____ _____    ______ ____
ROOT
ATOM      1  C   UNL     1       3.832   0.002   0.086  0.00  0.00    +0.000 A 
ATOM      2  C   UNL     1       4.504   1.177   0.223  0.00  0.00    +0.000 A 
ATOM      3  C   UNL     1       5.949   1.102   0.324  0.00  0.00    +0.000 A 
ATOM      4  C   UNL     1       6.589  -0.070   0.278  0.00  0.00    +0.000 A 
ATOM      5  N   UNL     1       5.917  -1.273   0.150  0.00  0.00    +0.000 N 
ATOM      6  C   UNL     1       4.517  -1.314   0.043  0.00  0.00    +0.000 A 
ATOM      7  O   UNL     1       3.838  -2.327  -0.114  0.00  0.00    +0.000 OA
ENDROOT
BRANCH   5   8
ATOM      8  C   UNL     1       6.632  -2.504   0.077  0.00  0.00    +0.000 A 
ATOM      9  C   UNL     1       7.726  -2.627  -0.790  0.00  0.00    +0.000 A 
ATOM     10  C   UNL     1       8.358  -3.863  -0.947  0.00  0.00    +0.000 A 
ATOM     11  C   UNL     1       7.931  -4.964  -0.206  0.00  0.00    +0.000 A 
ATOM     12  C   UNL     1       6.876  -4.836   0.695  0.00  0.00    +0.000 A 
ATOM     13  C   UNL     1       6.224  -3.612   0.827  0.00  0.00    +0.000 A 
ENDBRANCH   5   8
BRANCH   2  14
ATOM     14  N   UNL     1       3.856   2.420   0.306  0.00  0.00    +0.000 N 
ATOM     15  C   UNL     1       4.413   3.712   0.373  0.00  0.00    +0.000 C 
ATOM     16  O   UNL     1       5.620   3.956   0.354  0.00  0.00    +0.000 OA
ATOM     17  H   UNL     1       2.834   2.425   0.304  0.00  0.00    +0.000 HD
BRANCH  15  18
ATOM     18  C   UNL     1       3.350   4.856   0.515  0.00  0.00    +0.000 C 
ATOM     19  F   UNL     1       2.088   4.353   0.361  0.00  0.00    +0.000 F 
ATOM     20  F   UNL     1       3.379   5.361   1.787  0.00  0.00    +0.000 F 
BRANCH  18  21
ATOM     21  C   UNL     1       3.615   5.982  -0.456  0.00  0.00    +0.000 C 
ATOM     22  C   UNL     1       2.741   6.463  -1.367  0.00  0.00    +0.000 C 
BRANCH  22  23
ATOM     23  C   UNL     1       2.994   7.616  -2.255  0.00  0.00    +0.000 A 
ATOM     24  C   UNL     1       4.270   7.961  -2.717  0.00  0.00    +0.000 A 
ATOM     25  C   UNL     1       4.455   9.066  -3.556  0.00  0.00    +0.000 A 
ATOM     26  C   UNL     1       3.362   9.831  -3.956  0.00  0.00    +0.000 A 
ATOM     27  C   UNL     1       2.086   9.492  -3.527  0.00  0.00    +0.000 A 
ATOM     28  C   UNL     1       1.902   8.387  -2.686  0.00  0.00    +0.000 A 
ENDBRANCH  22  23
ENDBRANCH  18  21
ENDBRANCH  15  18
ENDBRANCH   2  14
BRANCH   1  30
ATOM     29  N   UNL     1       1.051   0.002   0.086  0.00  0.00    +0.000 NA
ATOM     30  C   UNL     1       2.312   0.002   0.086  0.00  0.00    +0.000 C 
ENDBRANCH   1  30
TORSDOF 6
