REMARK  Name = 
REMARK  5 active torsions:
REMARK  status: ('A' for Active; 'I' for Inactive)
REMARK    1  A    between atoms: N_1  and  C_2
REMARK    2  A    between atoms: C_4  and  C_5
REMARK    3  A    between atoms: N_7  and  C_8
REMARK    4  A    between atoms: C_12  and  N_13
REMARK    5  A    between atoms: N_22  and  C_23
REMARK                            x       y       z     vdW  Elec       q    Type
REMARK                         _______ _______ _______ _____ _____    ______ ____
ROOT
ATOM      1  C   UNL     1       5.877   1.267  -0.178  0.00  0.00    +0.000 C 
ATOM      2  O   UNL     1       6.865   0.587  -0.438  0.00  0.00    +0.000 OA
ATOM      3  N   UNL     1       5.878   2.634   0.059  0.00  0.00    +0.000 N 
ATOM      4  H   UNL     1       4.989   3.002   0.387  0.00  0.00    +0.000 HD
ENDROOT
BRANCH   3   5
ATOM      5  C   UNL     1       7.012   3.473   0.039  0.00  0.00    +0.000 A 
ATOM      6  C   UNL     1       8.225   3.098  -0.537  0.00  0.00    +0.000 A 
ATOM      7  C   UNL     1       9.335   3.941  -0.487  0.00  0.00    +0.000 A 
ATOM      8  F   UNL     1      10.477   3.483  -1.019  0.00  0.00    +0.000 F 
ATOM      9  C   UNL     1       9.276   5.170   0.162  0.00  0.00    +0.000 A 
ATOM     10  C   UNL     1       8.054   5.560   0.715  0.00  0.00    +0.000 A 
ATOM     11  F   UNL     1       7.906   6.757   1.298  0.00  0.00    +0.000 F 
ATOM     12  C   UNL     1       6.921   4.735   0.632  0.00  0.00    +0.000 A 
BRANCH   9  13
ATOM     13  N   UNL     1      10.425   5.989   0.266  0.00  0.00    +0.000 N 
ATOM     14  C   UNL     1      11.520   6.005  -0.573  0.00  0.00    +0.000 A 
ATOM     15  C   UNL     1      12.383   6.944  -0.060  0.00  0.00    +0.000 A 
ATOM     16  N   UNL     1      11.872   7.500   1.077  0.00  0.00    +0.000 NA
ATOM     17  C   UNL     1      10.704   6.917   1.247  0.00  0.00    +0.000 A 
ENDBRANCH   9  13
ENDBRANCH   3   5
BRANCH   1  20
ATOM     18  C   UNL     1       2.985  -0.924   0.182  0.00  0.00    +0.000 A 
ATOM     19  C   UNL     1       4.325  -0.763  -0.048  0.00  0.00    +0.000 A 
ATOM     20  C   UNL     1       4.559   0.632  -0.021  0.00  0.00    +0.000 A 
ATOM     21  N   UNL     1       3.419   1.323   0.167  0.00  0.00    +0.000 NA
ATOM     22  N   UNL     1       2.473   0.358   0.391  0.00  0.00    +0.000 N 
BRANCH  22  23
ATOM     23  C   UNL     1       1.168   0.725   0.818  0.00  0.00    +0.000 A 
ATOM     24  C   UNL     1       0.623   1.948   0.402  0.00  0.00    +0.000 A 
ATOM     25  C   UNL     1      -0.662   2.310   0.814  0.00  0.00    +0.000 A 
ATOM     26  C   UNL     1      -1.374   1.471   1.666  0.00  0.00    +0.000 A 
ATOM     27  F   UNL     1      -2.597   1.831   2.076  0.00  0.00    +0.000 F 
ATOM     28  C   UNL     1      -0.833   0.269   2.106  0.00  0.00    +0.000 A 
ATOM     29  C   UNL     1       0.438  -0.113   1.676  0.00  0.00    +0.000 A 
ENDBRANCH  22  23
BRANCH  18  30
ATOM     30  N   UNL     1       2.262  -2.074   0.170  0.00  0.00    +0.000 N 
ATOM     31  H   UNL     1       2.684  -2.920  -0.211  0.00  0.00    +0.000 HD
ATOM     32  H   UNL     1       1.257  -2.048   0.002  0.00  0.00    +0.000 HD
ENDBRANCH  18  30
ENDBRANCH   1  20
TORSDOF 5
