REMARK  Name = 
REMARK  4 active torsions:
REMARK  status: ('A' for Active; 'I' for Inactive)
REMARK    1  A    between atoms: C_2  and  C_17
REMARK    2  A    between atoms: N_3  and  C_4
REMARK    3  A    between atoms: N_8  and  C_9
REMARK    4  A    between atoms: C_23  and  O_24
REMARK                            x       y       z     vdW  Elec       q    Type
REMARK                         _______ _______ _______ _____ _____    ______ ____
ROOT
ATOM      1  O   UNL     1       1.206   0.701   0.158  0.00  0.00    +0.000 OA
ATOM      2  C   UNL     1       2.282   0.112   0.063  0.00  0.00    +0.000 C 
ATOM      3  N   UNL     1       2.640  -0.769  -0.942  0.00  0.00    +0.000 N 
ATOM      4  H   UNL     1       3.589  -1.149  -0.931  0.00  0.00    +0.000 HD
ENDROOT
BRANCH   2   5
ATOM      5  C   UNL     1       3.419   0.485   0.955  0.00  0.00    +0.000 A 
ATOM      6  C   UNL     1       3.594   1.862   1.151  0.00  0.00    +0.000 A 
ATOM      7  C   UNL     1       4.880   2.367   1.210  0.00  0.00    +0.000 A 
ATOM      8  C   UNL     1       5.960   1.499   1.078  0.00  0.00    +0.000 A 
ATOM      9  C   UNL     1       5.773   0.125   1.260  0.00  0.00    +0.000 A 
ATOM     10  C   UNL     1       6.873  -0.714   1.518  0.00  0.00    +0.000 A 
ATOM     11  C   UNL     1       6.671  -2.063   1.794  0.00  0.00    +0.000 A 
ATOM     12  C   UNL     1       5.404  -2.617   1.738  0.00  0.00    +0.000 A 
ATOM     13  C   UNL     1       4.307  -1.807   1.444  0.00  0.00    +0.000 A 
ATOM     14  C   UNL     1       4.481  -0.415   1.230  0.00  0.00    +0.000 A 
BRANCH  11  15
ATOM     15  O   UNL     1       7.712  -2.871   2.160  0.00  0.00    +0.000 OA
ATOM     16  H   UNL     1       8.489  -2.312   2.308  0.00  0.00    +0.000 HD
ENDBRANCH  11  15
ENDBRANCH   2   5
BRANCH   3  17
ATOM     17  C   UNL     1       1.971  -1.108  -2.092  0.00  0.00    +0.000 A 
ATOM     18  C   UNL     1       0.739  -0.723  -2.450  0.00  0.00    +0.000 A 
ATOM     19  C   UNL     1       0.155  -1.138  -3.691  0.00  0.00    +0.000 A 
ATOM     20  C   UNL     1       0.828  -1.947  -4.520  0.00  0.00    +0.000 A 
ATOM     21  N   UNL     1       2.115  -2.385  -4.230  0.00  0.00    +0.000 N 
ATOM     22  C   UNL     1       2.759  -1.996  -3.044  0.00  0.00    +0.000 A 
ATOM     23  O   UNL     1       3.893  -2.335  -2.685  0.00  0.00    +0.000 OA
BRANCH  21  24
ATOM     24  C   UNL     1       2.789  -3.291  -5.106  0.00  0.00    +0.000 A 
ATOM     25  C   UNL     1       2.127  -4.434  -5.575  0.00  0.00    +0.000 A 
ATOM     26  C   UNL     1       2.805  -5.376  -6.352  0.00  0.00    +0.000 A 
ATOM     27  C   UNL     1       4.136  -5.159  -6.707  0.00  0.00    +0.000 A 
ATOM     28  C   UNL     1       4.789  -4.003  -6.287  0.00  0.00    +0.000 A 
ATOM     29  C   UNL     1       4.123  -3.079  -5.479  0.00  0.00    +0.000 A 
ENDBRANCH  21  24
ENDBRANCH   3  17
TORSDOF 4
