REMARK  Name = 
REMARK  8 active torsions:
REMARK  status: ('A' for Active; 'I' for Inactive)
REMARK    1  A    between atoms: C_1  and  C_2
REMARK    2  A    between atoms: C_5  and  C_6
REMARK    3  A    between atoms: C_9  and  C_10
REMARK    4  A    between atoms: C_10  and  O_11
REMARK    5  A    between atoms: O_11  and  C_12
REMARK    6  A    between atoms: C_12  and  C_14
REMARK    7  A    between atoms: C_19  and  O_20
REMARK    8  A    between atoms: N_29  and  C_30
REMARK                            x       y       z     vdW  Elec       q    Type
REMARK                         _______ _______ _______ _____ _____    ______ ____
ROOT
ATOM      1  C   UNL     1       4.656   3.569   0.392  0.00  0.00    +0.000 A 
ATOM      2  C   UNL     1       4.734   4.683  -0.463  0.00  0.00    +0.000 A 
ATOM      3  C   UNL     1       4.254   5.937  -0.083  0.00  0.00    +0.000 A 
ATOM      4  C   UNL     1       3.646   6.112   1.160  0.00  0.00    +0.000 A 
ATOM      5  C   UNL     1       3.482   5.001   1.992  0.00  0.00    +0.000 A 
ATOM      6  C   UNL     1       3.988   3.751   1.616  0.00  0.00    +0.000 A 
ENDROOT
BRANCH   1  11
ATOM      7  C   UNL     1       9.216   4.467  -1.683  0.00  0.00    +0.000 C 
ATOM      8  C   UNL     1       8.400   3.205  -1.520  0.00  0.00    +0.000 A 
ATOM      9  N   UNL     1       7.272   3.301  -0.900  0.00  0.00    +0.000 NA
ATOM     10  C   UNL     1       6.482   2.157  -0.691  0.00  0.00    +0.000 A 
ATOM     11  C   UNL     1       5.245   2.259   0.002  0.00  0.00    +0.000 A 
ATOM     12  C   UNL     1       4.561   1.061   0.309  0.00  0.00    +0.000 A 
ATOM     13  C   UNL     1       5.044  -0.186  -0.092  0.00  0.00    +0.000 A 
ATOM     14  C   UNL     1       6.213  -0.264  -0.836  0.00  0.00    +0.000 A 
ATOM     15  C   UNL     1       6.925   0.905  -1.125  0.00  0.00    +0.000 A 
ATOM     16  C   UNL     1       8.179   0.839  -1.899  0.00  0.00    +0.000 A 
ATOM     17  O   UNL     1       8.530  -0.235  -2.383  0.00  0.00    +0.000 OA
ATOM     18  N   UNL     1       8.892   2.026  -2.032  0.00  0.00    +0.000 N 
ATOM     19  C   UNL     1      10.163   1.978  -2.739  0.00  0.00    +0.000 C 
ENDBRANCH   1  11
BRANCH   4  20
ATOM     20  C   UNL     1       3.187   7.481   1.585  0.00  0.00    +0.000 C 
BRANCH  20  21
ATOM     21  O   UNL     1       1.772   7.504   1.795  0.00  0.00    +0.000 OA
BRANCH  21  22
ATOM     22  C   UNL     1       1.036   7.674   0.665  0.00  0.00    +0.000 C 
ATOM     23  O   UNL     1       1.482   7.808  -0.460  0.00  0.00    +0.000 OA
BRANCH  22  24
ATOM     24  C   UNL     1      -0.404   7.703   1.042  0.00  0.00    +0.000 A 
ATOM     25  C   UNL     1      -0.857   7.001   2.175  0.00  0.00    +0.000 A 
ATOM     26  C   UNL     1      -2.206   7.023   2.527  0.00  0.00    +0.000 A 
ATOM     27  C   UNL     1      -3.117   7.740   1.749  0.00  0.00    +0.000 A 
ATOM     28  C   UNL     1      -2.680   8.431   0.622  0.00  0.00    +0.000 A 
ATOM     29  C   UNL     1      -1.328   8.416   0.269  0.00  0.00    +0.000 A 
BRANCH  29  30
ATOM     30  O   UNL     1      -0.920   9.133  -0.820  0.00  0.00    +0.000 OA
ATOM     31  H   UNL     1      -1.690   9.477  -1.299  0.00  0.00    +0.000 HD
ENDBRANCH  29  30
ENDBRANCH  22  24
ENDBRANCH  21  22
ENDBRANCH  20  21
ENDBRANCH   4  20
TORSDOF 6
