REMARK  Name = 
REMARK  6 active torsions:
REMARK  status: ('A' for Active; 'I' for Inactive)
REMARK    1  A    between atoms: C_2  and  C_18
REMARK    2  A    between atoms: N_3  and  C_4
REMARK    3  A    between atoms: C_4  and  C_5
REMARK    4  A    between atoms: C_4  and  C_12
REMARK    5  A    between atoms: C_5  and  C_6
REMARK    6  A    between atoms: N_20  and  C_21
REMARK                            x       y       z     vdW  Elec       q    Type
REMARK                         _______ _______ _______ _____ _____    ______ ____
ROOT
ATOM      1  O   UNL     1       3.175  -2.163  -1.029  0.00  0.00    +0.000 OA
ATOM      2  C   UNL     1       3.430  -1.047  -0.601  0.00  0.00    +0.000 C 
ATOM      3  N   UNL     1       3.014   0.134  -1.175  0.00  0.00    +0.000 N 
ATOM      4  H   UNL     1       3.374   0.994  -0.775  0.00  0.00    +0.000 HD
ENDROOT
BRANCH   2   5
ATOM      5  C   UNL     1       4.300  -0.890   0.652  0.00  0.00    +0.000 A 
ATOM      6  N   UNL     1       4.487   0.298   1.139  0.00  0.00    +0.000 NA
ATOM      7  N   UNL     1       5.334   0.421   2.242  0.00  0.00    +0.000 N 
ATOM      8  C   UNL     1       5.989  -0.672   2.830  0.00  0.00    +0.000 A 
ATOM      9  O   UNL     1       6.756  -0.662   3.791  0.00  0.00    +0.000 OA
ATOM     10  C   UNL     1       5.685  -1.999   2.245  0.00  0.00    +0.000 A 
ATOM     11  C   UNL     1       4.875  -2.129   1.197  0.00  0.00    +0.000 A 
BRANCH   7  12
ATOM     12  C   UNL     1       5.530   1.779   2.666  0.00  0.00    +0.000 A 
ATOM     13  C   UNL     1       6.657   2.187   3.395  0.00  0.00    +0.000 A 
ATOM     14  C   UNL     1       6.851   3.530   3.741  0.00  0.00    +0.000 A 
ATOM     15  C   UNL     1       5.909   4.489   3.382  0.00  0.00    +0.000 A 
ATOM     16  C   UNL     1       4.769   4.105   2.686  0.00  0.00    +0.000 A 
ATOM     17  C   UNL     1       4.585   2.765   2.326  0.00  0.00    +0.000 A 
ENDBRANCH   7  12
ENDBRANCH   2   5
BRANCH   3  18
ATOM     18  C   UNL     1       2.290   0.144  -2.437  0.00  0.00    +0.000 C 
BRANCH  18  19
ATOM     19  C   UNL     1       3.265   0.157  -3.608  0.00  0.00    +0.000 A 
ATOM     20  C   UNL     1       3.267  -0.894  -4.532  0.00  0.00    +0.000 A 
ATOM     21  C   UNL     1       4.135  -0.840  -5.612  0.00  0.00    +0.000 A 
ATOM     22  N   UNL     1       4.995   0.176  -5.834  0.00  0.00    +0.000 NA
ATOM     23  C   UNL     1       4.992   1.177  -4.929  0.00  0.00    +0.000 A 
ATOM     24  C   UNL     1       4.162   1.212  -3.817  0.00  0.00    +0.000 A 
ENDBRANCH  18  19
BRANCH  18  25
ATOM     25  C   UNL     1       1.301   1.325  -2.555  0.00  0.00    +0.000 C 
BRANCH  25  26
ATOM     26  C   UNL     1       0.159   1.358  -1.561  0.00  0.00    +0.000 A 
ATOM     27  C   UNL     1      -0.053   2.508  -0.786  0.00  0.00    +0.000 A 
ATOM     28  C   UNL     1      -1.181   2.620   0.029  0.00  0.00    +0.000 A 
ATOM     29  C   UNL     1      -2.108   1.583   0.084  0.00  0.00    +0.000 A 
ATOM     30  C   UNL     1      -1.897   0.424  -0.660  0.00  0.00    +0.000 A 
ATOM     31  C   UNL     1      -0.769   0.311  -1.478  0.00  0.00    +0.000 A 
ENDBRANCH  25  26
ENDBRANCH  18  25
ENDBRANCH   3  18
TORSDOF 6
