REMARK  Name = 
REMARK  5 active torsions:
REMARK  status: ('A' for Active; 'I' for Inactive)
REMARK    1  A    between atoms: C_2  and  C_16
REMARK    2  A    between atoms: N_3  and  C_4
REMARK    3  A    between atoms: C_7  and  C_8
REMARK    4  A    between atoms: C_19  and  C_20
REMARK    5  A    between atoms: C_20  and  C_22
REMARK                            x       y       z     vdW  Elec       q    Type
REMARK                         _______ _______ _______ _____ _____    ______ ____
ROOT
ATOM      1  O   UNL     1       0.915   0.215  -0.197  0.00  0.00    +0.000 OA
ATOM      2  C   UNL     1       2.120   0.031  -0.047  0.00  0.00    +0.000 C 
ATOM      3  N   UNL     1       2.756  -1.181   0.151  0.00  0.00    +0.000 N 
ATOM      4  H   UNL     1       3.721  -1.165   0.457  0.00  0.00    +0.000 HD
ENDROOT
BRANCH   3   5
ATOM      5  C   UNL     1       2.103  -2.435   0.167  0.00  0.00    +0.000 A 
ATOM      6  C   UNL     1       0.814  -2.624  -0.315  0.00  0.00    +0.000 A 
ATOM      7  C   UNL     1       0.205  -3.872  -0.211  0.00  0.00    +0.000 A 
ATOM      8  C   UNL     1       0.895  -4.931   0.368  0.00  0.00    +0.000 A 
ATOM      9  N   UNL     1       2.176  -4.787   0.796  0.00  0.00    +0.000 NA
ATOM     10  C   UNL     1       2.744  -3.556   0.686  0.00  0.00    +0.000 A 
BRANCH   8  11
ATOM     11  C   UNL     1       0.282  -6.264   0.532  0.00  0.00    +0.000 A 
ATOM     12  C   UNL     1       1.065  -7.425   0.542  0.00  0.00    +0.000 A 
ATOM     13  C   UNL     1       0.446  -8.661   0.648  0.00  0.00    +0.000 A 
ATOM     14  N   UNL     1      -0.889  -8.829   0.752  0.00  0.00    +0.000 NA
ATOM     15  C   UNL     1      -1.635  -7.708   0.767  0.00  0.00    +0.000 A 
ATOM     16  C   UNL     1      -1.106  -6.431   0.670  0.00  0.00    +0.000 A 
ENDBRANCH   8  11
ENDBRANCH   3   5
BRANCH   2  17
ATOM     17  C   UNL     1       2.985   1.234  -0.022  0.00  0.00    +0.000 A 
ATOM     18  C   UNL     1       2.462   2.412   0.531  0.00  0.00    +0.000 A 
ATOM     19  C   UNL     1       3.207   3.592   0.507  0.00  0.00    +0.000 A 
ATOM     20  C   UNL     1       4.474   3.599  -0.085  0.00  0.00    +0.000 A 
ATOM     21  C   UNL     1       5.008   2.406  -0.601  0.00  0.00    +0.000 A 
ATOM     22  C   UNL     1       4.260   1.229  -0.590  0.00  0.00    +0.000 A 
BRANCH  20  23
ATOM     23  C   UNL     1       5.238   4.877  -0.141  0.00  0.00    +0.000 C 
ATOM     24  O   UNL     1       5.090   5.701   0.757  0.00  0.00    +0.000 OA
BRANCH  23  25
ATOM     25  C   UNL     1       6.155   5.089  -1.259  0.00  0.00    +0.000 A 
ATOM     26  C   UNL     1       7.318   5.835  -1.190  0.00  0.00    +0.000 A 
ATOM     27  N   UNL     1       7.947   5.783  -2.406  0.00  0.00    +0.000 N 
ATOM     28  C   UNL     1       7.198   5.033  -3.273  0.00  0.00    +0.000 A 
ATOM     29  C   UNL     1       6.071   4.616  -2.604  0.00  0.00    +0.000 A 
ATOM     30  H   UNL     1       8.827   6.231  -2.629  0.00  0.00    +0.000 HD
ENDBRANCH  23  25
ENDBRANCH  20  23
ENDBRANCH   2  17
TORSDOF 5
