REMARK  Name = 
REMARK  6 active torsions:
REMARK  status: ('A' for Active; 'I' for Inactive)
REMARK    1  A    between atoms: C_1  and  C_2
REMARK    2  A    between atoms: C_4  and  N_5
REMARK    3  A    between atoms: C_6  and  C_8
REMARK    4  A    between atoms: C_15  and  C_16
REMARK    5  A    between atoms: C_16  and  C_18
REMARK    6  A    between atoms: C_25  and  C_26
REMARK                            x       y       z     vdW  Elec       q    Type
REMARK                         _______ _______ _______ _____ _____    ______ ____
ROOT
ATOM      1  N   UNL     1      -1.682   2.457   0.040  0.00  0.00    +0.000 N 
ATOM      2  C   UNL     1      -1.373   3.764  -0.330  0.00  0.00    +0.000 C 
ATOM      3  O   UNL     1      -2.086   4.751  -0.190  0.00  0.00    +0.000 OA
ATOM      4  H   UNL     1      -1.028   1.725  -0.204  0.00  0.00    +0.000 HD
ENDROOT
BRANCH   2   5
ATOM      5  C   UNL     1      -0.085   3.950  -1.064  0.00  0.00    +0.000 A 
ATOM      6  C   UNL     1       0.274   2.997  -2.035  0.00  0.00    +0.000 A 
ATOM      7  C   UNL     1       1.417   3.180  -2.808  0.00  0.00    +0.000 A 
ATOM      8  F   UNL     1       1.727   2.272  -3.742  0.00  0.00    +0.000 F 
ATOM      9  C   UNL     1       2.220   4.295  -2.630  0.00  0.00    +0.000 A 
ATOM     10  F   UNL     1       3.310   4.475  -3.387  0.00  0.00    +0.000 F 
ATOM     11  C   UNL     1       1.892   5.247  -1.677  0.00  0.00    +0.000 A 
ATOM     12  C   UNL     1       0.718   5.105  -0.913  0.00  0.00    +0.000 A 
BRANCH  12  13
ATOM     13  C   UNL     1       0.448   6.168   0.092  0.00  0.00    +0.000 C 
ATOM     14  O   UNL     1       0.259   5.825   1.256  0.00  0.00    +0.000 OA
BRANCH  13  15
ATOM     15  C   UNL     1       0.577   7.621  -0.269  0.00  0.00    +0.000 A 
ATOM     16  C   UNL     1       0.840   8.547   0.750  0.00  0.00    +0.000 A 
ATOM     17  C   UNL     1       1.057   9.895   0.445  0.00  0.00    +0.000 A 
ATOM     18  C   UNL     1       1.016  10.328  -0.880  0.00  0.00    +0.000 A 
ATOM     19  C   UNL     1       0.736   9.421  -1.898  0.00  0.00    +0.000 A 
ATOM     20  C   UNL     1       0.499   8.075  -1.594  0.00  0.00    +0.000 A 
ENDBRANCH  13  15
ENDBRANCH  12  13
ENDBRANCH   2   5
BRANCH   1  24
ATOM     21  C   UNL     1      -5.736   3.348   2.827  0.00  0.00    +0.000 C 
ATOM     22  C   UNL     1      -4.797   2.399   2.140  0.00  0.00    +0.000 A 
ATOM     23  C   UNL     1      -3.733   2.885   1.365  0.00  0.00    +0.000 A 
ATOM     24  C   UNL     1      -2.818   2.016   0.768  0.00  0.00    +0.000 A 
ATOM     25  C   UNL     1      -3.006   0.634   0.930  0.00  0.00    +0.000 A 
ATOM     26  C   UNL     1      -4.086   0.126   1.680  0.00  0.00    +0.000 A 
ATOM     27  C   UNL     1      -4.971   1.018   2.292  0.00  0.00    +0.000 A 
BRANCH  26  28
ATOM     28  C   UNL     1      -4.227  -1.354   1.796  0.00  0.00    +0.000 C 
ATOM     29  N   UNL     1      -5.285  -1.869   2.494  0.00  0.00    +0.000 N 
ATOM     30  O   UNL     1      -3.417  -2.114   1.271  0.00  0.00    +0.000 OA
ATOM     31  H   UNL     1      -6.022  -1.336   2.927  0.00  0.00    +0.000 HD
ATOM     32  H   UNL     1      -5.353  -2.879   2.537  0.00  0.00    +0.000 HD
ENDBRANCH  26  28
ENDBRANCH   1  24
TORSDOF 5
