REMARK  Name = 
REMARK  5 active torsions:
REMARK  status: ('A' for Active; 'I' for Inactive)
REMARK    1  A    between atoms: C_1  and  N_2
REMARK    2  A    between atoms: C_6  and  C_7
REMARK    3  A    between atoms: C_13  and  C_14
REMARK    4  A    between atoms: N_16  and  C_17
REMARK    5  A    between atoms: N_21  and  C_22
REMARK                            x       y       z     vdW  Elec       q    Type
REMARK                         _______ _______ _______ _____ _____    ______ ____
ROOT
ATOM      1  C   UNL     1      -0.698  -2.907  -2.261  0.00  0.00    +0.000 C 
ATOM      2  O   UNL     1      -1.108  -3.786  -3.002  0.00  0.00    +0.000 OA
ATOM      3  N   UNL     1      -0.934  -1.562  -2.541  0.00  0.00    +0.000 N 
ATOM      4  H   UNL     1      -0.478  -0.825  -2.017  0.00  0.00    +0.000 HD
ENDROOT
BRANCH   1  11
ATOM      5  C   UNL     1       0.629  -4.549  -0.748  0.00  0.00    +0.000 A 
ATOM      6  C   UNL     1       1.345  -4.718   0.463  0.00  0.00    +0.000 A 
ATOM      7  C   UNL     1       1.510  -3.691   1.366  0.00  0.00    +0.000 A 
ATOM      8  F   UNL     1       2.149  -3.906   2.503  0.00  0.00    +0.000 F 
ATOM      9  C   UNL     1       1.035  -2.432   1.091  0.00  0.00    +0.000 A 
ATOM     10  C   UNL     1       0.353  -2.205  -0.098  0.00  0.00    +0.000 A 
ATOM     11  C   UNL     1       0.116  -3.242  -1.028  0.00  0.00    +0.000 A 
BRANCH   5  17
ATOM     12  C   UNL     1       0.280  -7.583   0.151  0.00  0.00    +0.000 C 
ATOM     13  N   UNL     1       0.295  -7.061  -1.195  0.00  0.00    +0.000 N 
ATOM     14  C   UNL     1       0.077  -7.841  -2.297  0.00  0.00    +0.000 A 
ATOM     15  N   UNL     1       0.175  -7.156  -3.405  0.00  0.00    +0.000 NA
ATOM     16  C   UNL     1       0.448  -5.880  -3.000  0.00  0.00    +0.000 A 
ATOM     17  C   UNL     1       0.469  -5.750  -1.613  0.00  0.00    +0.000 A 
ENDBRANCH   5  17
ENDBRANCH   1  11
BRANCH   3  18
ATOM     18  C   UNL     1      -1.599  -1.093  -3.659  0.00  0.00    +0.000 A 
ATOM     19  C   UNL     1      -2.490  -1.809  -4.352  0.00  0.00    +0.000 A 
ATOM     20  C   UNL     1      -3.211  -1.253  -5.465  0.00  0.00    +0.000 A 
ATOM     21  C   UNL     1      -2.922  -0.020  -5.880  0.00  0.00    +0.000 A 
ATOM     22  N   UNL     1      -1.952   0.764  -5.270  0.00  0.00    +0.000 N 
ATOM     23  C   UNL     1      -1.232   0.309  -4.131  0.00  0.00    +0.000 A 
ATOM     24  O   UNL     1      -0.314   0.888  -3.567  0.00  0.00    +0.000 OA
BRANCH  22  25
ATOM     25  C   UNL     1      -1.565   2.011  -5.845  0.00  0.00    +0.000 A 
ATOM     26  C   UNL     1      -1.201   2.077  -7.197  0.00  0.00    +0.000 A 
ATOM     27  C   UNL     1      -0.699   3.265  -7.731  0.00  0.00    +0.000 A 
ATOM     28  C   UNL     1      -0.598   4.401  -6.930  0.00  0.00    +0.000 A 
ATOM     29  C   UNL     1      -1.013   4.356  -5.599  0.00  0.00    +0.000 A 
ATOM     30  C   UNL     1      -1.488   3.163  -5.055  0.00  0.00    +0.000 A 
ENDBRANCH  22  25
ENDBRANCH   3  18
TORSDOF 4
