REMARK  Name = 
REMARK  4 active torsions:
REMARK  status: ('A' for Active; 'I' for Inactive)
REMARK    1  A    between atoms: C_2  and  C_21
REMARK    2  A    between atoms: N_3  and  C_4
REMARK    3  A    between atoms: N_10  and  C_11
REMARK    4  A    between atoms: C_21  and  C_24
REMARK                            x       y       z     vdW  Elec       q    Type
REMARK                         _______ _______ _______ _____ _____    ______ ____
ROOT
ATOM      1  C   UNL     1       2.261   0.630  -2.292  0.00  0.00    +0.000 A 
ATOM      2  C   UNL     1       1.314   1.654  -2.383  0.00  0.00    +0.000 A 
ATOM      3  C   UNL     1       0.724   1.981  -3.608  0.00  0.00    +0.000 A 
ATOM      4  C   UNL     1       1.056   1.283  -4.765  0.00  0.00    +0.000 A 
ATOM      5  N   UNL     1       0.379   1.590  -5.950  0.00  0.00    +0.000 NA
ATOM      6  C   UNL     1       0.621   0.851  -6.980  0.00  0.00    +0.000 A 
ATOM      7  N   UNL     1       1.525  -0.188  -7.020  0.00  0.00    +0.000 N 
ATOM      8  C   UNL     1       2.304  -0.503  -5.904  0.00  0.00    +0.000 A 
ATOM      9  O   UNL     1       3.138  -1.405  -5.837  0.00  0.00    +0.000 OA
ATOM     10  C   UNL     1       2.023   0.283  -4.683  0.00  0.00    +0.000 A 
ATOM     11  C   UNL     1       2.647  -0.031  -3.462  0.00  0.00    +0.000 A 
ENDROOT
BRANCH   7  12
ATOM     12  C   UNL     1       1.610  -0.990  -8.192  0.00  0.00    +0.000 A 
ATOM     13  C   UNL     1       0.443  -1.518  -8.766  0.00  0.00    +0.000 A 
ATOM     14  C   UNL     1       0.524  -2.367  -9.872  0.00  0.00    +0.000 A 
ATOM     15  C   UNL     1       1.764  -2.659 -10.437  0.00  0.00    +0.000 A 
ATOM     16  C   UNL     1       2.924  -2.110  -9.895  0.00  0.00    +0.000 A 
ATOM     17  C   UNL     1       2.850  -1.291  -8.767  0.00  0.00    +0.000 A 
ENDBRANCH   7  12
BRANCH   1  20
ATOM     18  O   UNL     1       1.297   1.128   0.426  0.00  0.00    +0.000 OA
ATOM     19  C   UNL     1       2.330   0.499   0.206  0.00  0.00    +0.000 C 
ATOM     20  N   UNL     1       2.831   0.212  -1.068  0.00  0.00    +0.000 N 
ATOM     21  H   UNL     1       3.582  -0.474  -1.112  0.00  0.00    +0.000 HD
BRANCH  19  22
ATOM     22  C   UNL     1       3.178  -0.103   1.365  0.00  0.00    +0.000 C 
ATOM     23  F   UNL     1       2.459  -1.081   2.000  0.00  0.00    +0.000 F 
ATOM     24  F   UNL     1       4.267  -0.764   0.852  0.00  0.00    +0.000 F 
BRANCH  22  25
ATOM     25  C   UNL     1       3.588   0.993   2.320  0.00  0.00    +0.000 A 
ATOM     26  C   UNL     1       2.772   1.394   3.386  0.00  0.00    +0.000 A 
ATOM     27  C   UNL     1       3.164   2.455   4.196  0.00  0.00    +0.000 A 
ATOM     28  C   UNL     1       4.365   3.084   3.914  0.00  0.00    +0.000 A 
ATOM     29  N   UNL     1       5.182   2.719   2.902  0.00  0.00    +0.000 NA
ATOM     30  C   UNL     1       4.779   1.684   2.132  0.00  0.00    +0.000 A 
ENDBRANCH  22  25
ENDBRANCH  19  22
ENDBRANCH   1  20
TORSDOF 4
