REMARK  Name = 
REMARK  7 active torsions:
REMARK  status: ('A' for Active; 'I' for Inactive)
REMARK    1  A    between atoms: C_1  and  N_2
REMARK    2  A    between atoms: C_6  and  C_7
REMARK    3  A    between atoms: C_8  and  C_9
REMARK    4  A    between atoms: N_11  and  C_12
REMARK    5  A    between atoms: C_16  and  C_17
REMARK    6  A    between atoms: C_22  and  O_23
REMARK    7  A    between atoms: O_23  and  C_24
REMARK                            x       y       z     vdW  Elec       q    Type
REMARK                         _______ _______ _______ _____ _____    ______ ____
ROOT
ATOM      1  C   UNL     1      -1.999  -0.851  -3.693  0.00  0.00    +0.000 A 
ATOM      2  C   UNL     1      -3.315  -1.086  -4.084  0.00  0.00    +0.000 A 
ATOM      3  C   UNL     1      -3.856  -0.411  -5.169  0.00  0.00    +0.000 A 
ATOM      4  C   UNL     1      -3.080   0.510  -5.870  0.00  0.00    +0.000 A 
ATOM      5  C   UNL     1      -1.772   0.843  -5.471  0.00  0.00    +0.000 A 
ATOM      6  C   UNL     1      -1.259   0.152  -4.349  0.00  0.00    +0.000 A 
ENDROOT
BRANCH   5   7
ATOM      7  C   UNL     1      -1.009   1.914  -6.194  0.00  0.00    +0.000 A 
ATOM      8  C   UNL     1      -1.731   2.988  -6.771  0.00  0.00    +0.000 A 
ATOM      9  C   UNL     1      -1.108   4.025  -7.466  0.00  0.00    +0.000 A 
ATOM     10  C   UNL     1       0.273   4.062  -7.542  0.00  0.00    +0.000 A 
ATOM     11  C   UNL     1       1.024   3.038  -6.966  0.00  0.00    +0.000 A 
ATOM     12  C   UNL     1       0.400   1.933  -6.361  0.00  0.00    +0.000 A 
BRANCH  12  13
ATOM     13  O   UNL     1       1.097   0.839  -5.921  0.00  0.00    +0.000 OA
BRANCH  13  14
ATOM     14  C   UNL     1       2.378   0.557  -6.463  0.00  0.00    +0.000 C 
ATOM     15  F   UNL     1       2.560   1.034  -7.712  0.00  0.00    +0.000 F 
ATOM     16  F   UNL     1       3.336   1.063  -5.654  0.00  0.00    +0.000 F 
ATOM     17  F   UNL     1       2.539  -0.784  -6.512  0.00  0.00    +0.000 F 
ENDBRANCH  13  14
ENDBRANCH  12  13
ENDBRANCH   5   7
BRANCH   1  20
ATOM     18  C   UNL     1      -1.832  -2.761  -2.091  0.00  0.00    +0.000 C 
ATOM     19  O   UNL     1      -2.865  -3.345  -2.401  0.00  0.00    +0.000 OA
ATOM     20  N   UNL     1      -1.365  -1.590  -2.666  0.00  0.00    +0.000 N 
ATOM     21  H   UNL     1      -0.432  -1.305  -2.394  0.00  0.00    +0.000 HD
BRANCH  18  23
ATOM     22  C   UNL     1      -1.203  -4.189  -0.040  0.00  0.00    +0.000 A 
ATOM     23  C   UNL     1      -0.935  -3.284  -1.060  0.00  0.00    +0.000 A 
ATOM     24  N   UNL     1       0.386  -2.893  -0.988  0.00  0.00    +0.000 NA
ATOM     25  N   UNL     1       0.952  -3.533   0.022  0.00  0.00    +0.000 NA
ATOM     26  N   UNL     1       0.005  -4.290   0.596  0.00  0.00    +0.000 N 
ATOM     27  H   UNL     1       0.254  -4.808   1.428  0.00  0.00    +0.000 HD
BRANCH  22  33
ATOM     28  C   UNL     1      -1.524  -7.027   1.315  0.00  0.00    +0.000 C 
ATOM     29  N   UNL     1      -2.550  -6.068   0.982  0.00  0.00    +0.000 N 
ATOM     30  N   UNL     1      -3.830  -6.401   1.250  0.00  0.00    +0.000 NA
ATOM     31  C   UNL     1      -4.535  -5.377   0.777  0.00  0.00    +0.000 A 
ATOM     32  C   UNL     1      -3.713  -4.369   0.253  0.00  0.00    +0.000 A 
ATOM     33  C   UNL     1      -2.415  -4.833   0.379  0.00  0.00    +0.000 A 
ENDBRANCH  22  33
ENDBRANCH  18  23
ENDBRANCH   1  20
TORSDOF 6
