REMARK  Name = 
REMARK  4 active torsions:
REMARK  status: ('A' for Active; 'I' for Inactive)
REMARK    1  A    between atoms: C_2  and  C_16
REMARK    2  A    between atoms: N_3  and  C_4
REMARK    3  A    between atoms: C_7  and  C_8
REMARK    4  A    between atoms: N_22  and  C_23
REMARK                            x       y       z     vdW  Elec       q    Type
REMARK                         _______ _______ _______ _____ _____    ______ ____
ROOT
ATOM      1  O   UNL     1       0.851  -0.126  -0.487  0.00  0.00    +0.000 OA
ATOM      2  C   UNL     1       2.049   0.145  -0.473  0.00  0.00    +0.000 C 
ATOM      3  N   UNL     1       2.595   1.397  -0.247  0.00  0.00    +0.000 N 
ATOM      4  H   UNL     1       3.609   1.464  -0.236  0.00  0.00    +0.000 HD
ENDROOT
BRANCH   2   5
ATOM      5  C   UNL     1       2.992  -0.989  -0.676  0.00  0.00    +0.000 A 
ATOM      6  C   UNL     1       2.523  -2.265  -0.314  0.00  0.00    +0.000 A 
ATOM      7  C   UNL     1       3.330  -3.381  -0.472  0.00  0.00    +0.000 A 
ATOM      8  C   UNL     1       4.593  -3.184  -0.993  0.00  0.00    +0.000 A 
ATOM      9  N   UNL     1       5.083  -1.972  -1.332  0.00  0.00    +0.000 NA
ATOM     10  C   UNL     1       4.293  -0.877  -1.181  0.00  0.00    +0.000 A 
ATOM     11  N   UNL     1       4.813   0.379  -1.571  0.00  0.00    +0.000 N 
ATOM     12  H   UNL     1       4.277   0.747  -2.357  0.00  0.00    +0.000 HD
BRANCH  11  13
ATOM     13  C   UNL     1       6.184   0.719  -1.690  0.00  0.00    +0.000 A 
ATOM     14  C   UNL     1       7.149   0.238  -0.795  0.00  0.00    +0.000 A 
ATOM     15  C   UNL     1       8.467   0.705  -0.842  0.00  0.00    +0.000 A 
ATOM     16  C   UNL     1       8.841   1.659  -1.788  0.00  0.00    +0.000 A 
ATOM     17  C   UNL     1       7.901   2.134  -2.699  0.00  0.00    +0.000 A 
ATOM     18  C   UNL     1       6.588   1.670  -2.637  0.00  0.00    +0.000 A 
ATOM     19  F   UNL     1       5.687   2.153  -3.506  0.00  0.00    +0.000 F 
ENDBRANCH  11  13
ENDBRANCH   2   5
BRANCH   3  20
ATOM     20  C   UNL     1       1.882   2.580   0.060  0.00  0.00    +0.000 A 
ATOM     21  C   UNL     1       0.490   2.644   0.132  0.00  0.00    +0.000 A 
ATOM     22  C   UNL     1      -0.159   3.823   0.517  0.00  0.00    +0.000 A 
ATOM     23  C   UNL     1       0.565   4.977   0.824  0.00  0.00    +0.000 A 
ATOM     24  C   UNL     1       1.961   4.927   0.710  0.00  0.00    +0.000 A 
ATOM     25  C   UNL     1       2.612   3.740   0.333  0.00  0.00    +0.000 A 
BRANCH  23  26
ATOM     26  C   UNL     1      -0.136   6.199   1.225  0.00  0.00    +0.000 A 
ATOM     27  C   UNL     1      -1.290   6.325   1.901  0.00  0.00    +0.000 A 
ATOM     28  N   UNL     1      -1.587   7.660   2.026  0.00  0.00    +0.000 N 
ATOM     29  C   UNL     1      -0.584   8.413   1.405  0.00  0.00    +0.000 A 
ATOM     30  O   UNL     1      -0.519   9.622   1.302  0.00  0.00    +0.000 OA
ATOM     31  N   UNL     1       0.319   7.460   0.922  0.00  0.00    +0.000 N 
ATOM     32  H   UNL     1      -2.398   8.068   2.466  0.00  0.00    +0.000 HD
ATOM     33  H   UNL     1       1.139   7.697   0.386  0.00  0.00    +0.000 HD
ENDBRANCH  23  26
ENDBRANCH   3  20
TORSDOF 4
