REMARK  Name = 
REMARK  7 active torsions:
REMARK  status: ('A' for Active; 'I' for Inactive)
REMARK    1  A    between atoms: C_1  and  C_2
REMARK    2  A    between atoms: C_2  and  N_3
REMARK    3  A    between atoms: C_5  and  C_6
REMARK    4  A    between atoms: N_8  and  C_9
REMARK    5  A    between atoms: C_9  and  C_10
REMARK    6  A    between atoms: C_12  and  O_13
REMARK    7  A    between atoms: O_13  and  C_14
REMARK                            x       y       z     vdW  Elec       q    Type
REMARK                         _______ _______ _______ _____ _____    ______ ____
ROOT
ATOM      1  C   UNL     1       2.091  -4.694   0.964  0.00  0.00    +0.000 C 
ATOM      2  O   UNL     1       2.403  -5.692   1.595  0.00  0.00    +0.000 OA
ATOM      3  N   UNL     1       1.252  -4.685  -0.123  0.00  0.00    +0.000 N 
ATOM      4  H   UNL     1       1.100  -3.807  -0.608  0.00  0.00    +0.000 HD
ENDROOT
BRANCH   1   7
ATOM      5  N   UNL     1       3.434  -1.293   0.537  0.00  0.00    +0.000 N 
ATOM      6  N   UNL     1       2.903  -2.537   0.307  0.00  0.00    +0.000 NA
ATOM      7  C   UNL     1       2.654  -3.317   1.321  0.00  0.00    +0.000 A 
ATOM      8  C   UNL     1       2.884  -2.928   2.726  0.00  0.00    +0.000 A 
ATOM      9  C   UNL     1       2.621  -3.757   3.824  0.00  0.00    +0.000 A 
ATOM     10  C   UNL     1       2.893  -3.316   5.123  0.00  0.00    +0.000 A 
ATOM     11  C   UNL     1       3.410  -2.041   5.337  0.00  0.00    +0.000 A 
ATOM     12  C   UNL     1       3.655  -1.204   4.250  0.00  0.00    +0.000 A 
ATOM     13  C   UNL     1       3.394  -1.652   2.947  0.00  0.00    +0.000 A 
ATOM     14  C   UNL     1       3.675  -0.765   1.803  0.00  0.00    +0.000 A 
ATOM     15  O   UNL     1       4.102   0.368   2.006  0.00  0.00    +0.000 OA
BRANCH   5  17
ATOM     16  C   UNL     1       2.517   0.366  -1.040  0.00  0.00    +0.000 C 
ATOM     17  C   UNL     1       3.713  -0.483  -0.643  0.00  0.00    +0.000 C 
ENDBRANCH   5  17
ENDBRANCH   1   7
BRANCH   3  18
ATOM     18  C   UNL     1       0.630  -5.887  -0.625  0.00  0.00    +0.000 C 
BRANCH  18  19
ATOM     19  C   UNL     1      -0.740  -6.115  -0.031  0.00  0.00    +0.000 A 
ATOM     20  C   UNL     1      -0.864  -6.712   1.220  0.00  0.00    +0.000 A 
ATOM     21  C   UNL     1      -2.137  -7.018   1.692  0.00  0.00    +0.000 A 
ATOM     22  C   UNL     1      -3.251  -6.620   0.965  0.00  0.00    +0.000 A 
ATOM     23  C   UNL     1      -3.041  -5.979  -0.243  0.00  0.00    +0.000 A 
ATOM     24  N   UNL     1      -1.817  -5.732  -0.762  0.00  0.00    +0.000 NA
BRANCH  21  25
ATOM     25  O   UNL     1      -2.378  -7.669   2.881  0.00  0.00    +0.000 OA
BRANCH  25  26
ATOM     26  C   UNL     1      -1.528  -8.676   3.285  0.00  0.00    +0.000 A 
ATOM     27  C   UNL     1      -0.864  -9.547   2.411  0.00  0.00    +0.000 A 
ATOM     28  C   UNL     1       0.005 -10.520   2.911  0.00  0.00    +0.000 A 
ATOM     29  C   UNL     1       0.168 -10.661   4.287  0.00  0.00    +0.000 A 
ATOM     30  C   UNL     1      -0.543  -9.834   5.149  0.00  0.00    +0.000 A 
ATOM     31  F   UNL     1      -0.406  -9.992   6.472  0.00  0.00    +0.000 F 
ATOM     32  C   UNL     1      -1.389  -8.843   4.663  0.00  0.00    +0.000 A 
ENDBRANCH  25  26
ENDBRANCH  21  25
ENDBRANCH  18  19
ENDBRANCH   3  18
TORSDOF 6
