REMARK  Name = 
REMARK  4 active torsions:
REMARK  status: ('A' for Active; 'I' for Inactive)
REMARK    1  A    between atoms: N_12  and  C_13
REMARK    2  A    between atoms: C_13  and  C_14
REMARK    3  A    between atoms: C_16  and  O_17
REMARK    4  A    between atoms: O_17  and  C_18
REMARK                            x       y       z     vdW  Elec       q    Type
REMARK                         _______ _______ _______ _____ _____    ______ ____
ROOT
ATOM      1  C   UNL     1       0.488  -2.113  -0.044  0.00  0.00    +0.000 A 
ATOM      2  C   UNL     1       0.046  -1.268  -1.057  0.00  0.00    +0.000 A 
ATOM      3  C   UNL     1      -1.302  -0.905  -1.098  0.00  0.00    +0.000 A 
ATOM      4  C   UNL     1      -2.159  -1.343  -0.098  0.00  0.00    +0.000 A 
ATOM      5  C   UNL     1      -1.644  -2.184   0.870  0.00  0.00    +0.000 A 
ATOM      6  N   UNL     1      -0.353  -2.584   0.909  0.00  0.00    +0.000 NA
ENDROOT
BRANCH   1   7
ATOM      7  C   UNL     1       1.964  -2.432   0.100  0.00  0.00    +0.000 C 
BRANCH   7  19
ATOM      8  O   UNL     1       2.141  -5.036   1.062  0.00  0.00    +0.000 OA
ATOM      9  C   UNL     1       2.548  -4.789  -0.070  0.00  0.00    +0.000 A 
ATOM     10  N   UNL     1       3.191  -5.780  -0.760  0.00  0.00    +0.000 N 
ATOM     11  C   UNL     1       3.768  -5.612  -2.011  0.00  0.00    +0.000 A 
ATOM     12  C   UNL     1       4.484  -6.656  -2.600  0.00  0.00    +0.000 A 
ATOM     13  C   UNL     1       5.068  -6.473  -3.856  0.00  0.00    +0.000 A 
ATOM     14  C   UNL     1       4.932  -5.252  -4.521  0.00  0.00    +0.000 A 
ATOM     15  C   UNL     1       4.221  -4.208  -3.925  0.00  0.00    +0.000 A 
ATOM     16  C   UNL     1       3.643  -4.391  -2.663  0.00  0.00    +0.000 A 
ATOM     17  C   UNL     1       2.933  -3.293  -1.974  0.00  0.00    +0.000 A 
ATOM     18  O   UNL     1       2.828  -2.205  -2.538  0.00  0.00    +0.000 OA
ATOM     19  N   UNL     1       2.455  -3.556  -0.693  0.00  0.00    +0.000 N 
ATOM     20  H   UNL     1       3.270  -6.662  -0.266  0.00  0.00    +0.000 HD
ENDBRANCH   7  19
ENDBRANCH   1   7
BRANCH   3  21
ATOM     21  O   UNL     1      -1.853  -0.065  -2.043  0.00  0.00    +0.000 OA
BRANCH  21  22
ATOM     22  C   UNL     1      -1.313  -0.048  -3.310  0.00  0.00    +0.000 A 
ATOM     23  C   UNL     1      -0.920  -1.210  -3.986  0.00  0.00    +0.000 A 
ATOM     24  C   UNL     1      -0.320  -1.118  -5.241  0.00  0.00    +0.000 A 
ATOM     25  C   UNL     1      -0.173   0.130  -5.837  0.00  0.00    +0.000 A 
ATOM     26  F   UNL     1       0.412   0.216  -7.040  0.00  0.00    +0.000 F 
ATOM     27  C   UNL     1      -0.632   1.276  -5.197  0.00  0.00    +0.000 A 
ATOM     28  F   UNL     1      -0.519   2.470  -5.793  0.00  0.00    +0.000 F 
ATOM     29  C   UNL     1      -1.206   1.197  -3.932  0.00  0.00    +0.000 A 
ENDBRANCH  21  22
ENDBRANCH   3  21
TORSDOF 4
