REMARK  Name = 
REMARK  4 active torsions:
REMARK  status: ('A' for Active; 'I' for Inactive)
REMARK    1  A    between atoms: C_2  and  C_15
REMARK    2  A    between atoms: N_3  and  C_4
REMARK    3  A    between atoms: C_9  and  C_10
REMARK    4  A    between atoms: N_17  and  C_18
REMARK                            x       y       z     vdW  Elec       q    Type
REMARK                         _______ _______ _______ _____ _____    ______ ____
ROOT
ATOM      1  O   UNL     1       0.816   0.140  -0.023  0.00  0.00    +0.000 OA
ATOM      2  C   UNL     1       2.041   0.083   0.075  0.00  0.00    +0.000 C 
ATOM      3  N   UNL     1       2.720  -0.592   1.065  0.00  0.00    +0.000 N 
ATOM      4  H   UNL     1       3.703  -0.378   1.241  0.00  0.00    +0.000 HD
ENDROOT
BRANCH   2   5
ATOM      5  C   UNL     1       2.884   0.833  -0.913  0.00  0.00    +0.000 A 
ATOM      6  C   UNL     1       2.252   1.818  -1.574  0.00  0.00    +0.000 A 
ATOM      7  N   UNL     1       2.837   2.522  -2.621  0.00  0.00    +0.000 N 
ATOM      8  C   UNL     1       4.136   2.214  -3.058  0.00  0.00    +0.000 A 
ATOM      9  O   UNL     1       4.730   2.731  -4.003  0.00  0.00    +0.000 OA
ATOM     10  C   UNL     1       4.821   1.105  -2.328  0.00  0.00    +0.000 A 
ATOM     11  C   UNL     1       4.221   0.463  -1.315  0.00  0.00    +0.000 A 
BRANCH   7  12
ATOM     12  C   UNL     1       2.068   3.475  -3.366  0.00  0.00    +0.000 A 
ATOM     13  C   UNL     1       2.606   4.724  -3.704  0.00  0.00    +0.000 A 
ATOM     14  C   UNL     1       1.858   5.642  -4.449  0.00  0.00    +0.000 A 
ATOM     15  C   UNL     1       0.575   5.313  -4.887  0.00  0.00    +0.000 A 
ATOM     16  C   UNL     1       0.026   4.077  -4.557  0.00  0.00    +0.000 A 
ATOM     17  C   UNL     1       0.762   3.178  -3.789  0.00  0.00    +0.000 A 
ATOM     18  F   UNL     1       0.210   1.983  -3.524  0.00  0.00    +0.000 F 
ENDBRANCH   7  12
ENDBRANCH   2   5
BRANCH   3  19
ATOM     19  C   UNL     1       2.138  -1.489   2.004  0.00  0.00    +0.000 A 
ATOM     20  C   UNL     1       0.866  -2.043   1.786  0.00  0.00    +0.000 A 
ATOM     21  C   UNL     1       0.296  -2.932   2.698  0.00  0.00    +0.000 A 
ATOM     22  C   UNL     1       1.004  -3.311   3.828  0.00  0.00    +0.000 A 
ATOM     23  C   UNL     1       2.273  -2.784   4.060  0.00  0.00    +0.000 A 
ATOM     24  C   UNL     1       2.850  -1.854   3.169  0.00  0.00    +0.000 A 
BRANCH  24  25
ATOM     25  C   UNL     1       4.124  -1.231   3.514  0.00  0.00    +0.000 A 
ATOM     26  C   UNL     1       4.572  -0.985   4.796  0.00  0.00    +0.000 A 
ATOM     27  N   UNL     1       5.747  -0.304   4.646  0.00  0.00    +0.000 N 
ATOM     28  C   UNL     1       5.974  -0.168   3.305  0.00  0.00    +0.000 A 
ATOM     29  N   UNL     1       5.007  -0.703   2.592  0.00  0.00    +0.000 NA
ATOM     30  H   UNL     1       6.329   0.059   5.389  0.00  0.00    +0.000 HD
ENDBRANCH  24  25
ENDBRANCH   3  19
TORSDOF 4
