REMARK  Name = 
REMARK  8 active torsions:
REMARK  status: ('A' for Active; 'I' for Inactive)
REMARK    1  A    between atoms: C_1  and  O_2
REMARK    2  A    between atoms: O_2  and  C_3
REMARK    3  A    between atoms: C_3  and  C_5
REMARK    4  A    between atoms: N_13  and  C_14
REMARK    5  A    between atoms: C_14  and  C_15
REMARK    6  A    between atoms: C_20  and  O_21
REMARK    7  A    between atoms: O_21  and  C_22
REMARK    8  A    between atoms: C_22  and  C_23
REMARK                            x       y       z     vdW  Elec       q    Type
REMARK                         _______ _______ _______ _____ _____    ______ ____
ROOT
ATOM      1  C   UNL     1       5.112   1.033  -1.086  0.00  0.00    +0.000 A 
ATOM      2  C   UNL     1       5.304   0.874  -2.471  0.00  0.00    +0.000 A 
ATOM      3  C   UNL     1       5.944   1.867  -3.213  0.00  0.00    +0.000 A 
ATOM      4  C   UNL     1       6.388   3.026  -2.581  0.00  0.00    +0.000 A 
ATOM      5  C   UNL     1       6.236   3.176  -1.196  0.00  0.00    +0.000 A 
ATOM      6  C   UNL     1       5.611   2.182  -0.448  0.00  0.00    +0.000 A 
ATOM      7  C   UNL     1       5.598   2.384   1.003  0.00  0.00    +0.000 A 
ATOM      8  N   UNL     1       6.140   3.393   1.614  0.00  0.00    +0.000 NA
ATOM      9  N   UNL     1       6.733   4.391   0.864  0.00  0.00    +0.000 N 
ATOM     10  C   UNL     1       6.785   4.374  -0.526  0.00  0.00    +0.000 A 
ATOM     11  O   UNL     1       7.287   5.257  -1.216  0.00  0.00    +0.000 OA
ENDROOT
BRANCH   1  12
ATOM     12  C   UNL     1       4.322   0.016  -0.354  0.00  0.00    +0.000 C 
ATOM     13  O   UNL     1       3.582   0.284   0.578  0.00  0.00    +0.000 OA
BRANCH  12  15
ATOM     14  C   UNL     1       3.781  -2.250  -0.218  0.00  0.00    +0.000 C 
ATOM     15  O   UNL     1       4.537  -1.221  -0.867  0.00  0.00    +0.000 OA
ENDBRANCH  12  15
ENDBRANCH   1  12
BRANCH   9  16
ATOM     16  C   UNL     1       7.379   5.492   1.606  0.00  0.00    +0.000 C 
BRANCH  16  17
ATOM     17  C   UNL     1       6.418   6.569   2.073  0.00  0.00    +0.000 A 
ATOM     18  C   UNL     1       5.360   6.187   2.925  0.00  0.00    +0.000 A 
ATOM     19  C   UNL     1       4.428   7.110   3.392  0.00  0.00    +0.000 A 
ATOM     20  C   UNL     1       4.521   8.435   2.999  0.00  0.00    +0.000 A 
ATOM     21  C   UNL     1       5.572   8.840   2.177  0.00  0.00    +0.000 A 
ATOM     22  C   UNL     1       6.559   7.934   1.752  0.00  0.00    +0.000 A 
BRANCH  22  23
ATOM     23  O   UNL     1       7.683   8.334   1.057  0.00  0.00    +0.000 OA
BRANCH  23  24
ATOM     24  C   UNL     1       7.956   9.746   1.113  0.00  0.00    +0.000 C 
BRANCH  24  25
ATOM     25  C   UNL     1       9.368  10.110   0.711  0.00  0.00    +0.000 A 
ATOM     26  C   UNL     1      10.031   9.458  -0.333  0.00  0.00    +0.000 A 
ATOM     27  C   UNL     1      11.326   9.842  -0.693  0.00  0.00    +0.000 A 
ATOM     28  C   UNL     1      11.963  10.890  -0.026  0.00  0.00    +0.000 A 
ATOM     29  C   UNL     1      11.299  11.571   0.991  0.00  0.00    +0.000 A 
ATOM     30  C   UNL     1      10.006  11.190   1.349  0.00  0.00    +0.000 A 
ENDBRANCH  24  25
ENDBRANCH  23  24
ENDBRANCH  22  23
ENDBRANCH  16  17
ENDBRANCH   9  16
TORSDOF 7
