REMARK  Name = 
REMARK  7 active torsions:
REMARK  status: ('A' for Active; 'I' for Inactive)
REMARK    1  A    between atoms: N_3  and  C_4
REMARK    2  A    between atoms: C_4  and  C_5
REMARK    3  A    between atoms: C_8  and  N_9
REMARK    4  A    between atoms: N_16  and  C_17
REMARK    5  A    between atoms: C_17  and  C_18
REMARK    6  A    between atoms: C_20  and  O_21
REMARK    7  A    between atoms: O_21  and  C_22
REMARK                            x       y       z     vdW  Elec       q    Type
REMARK                         _______ _______ _______ _____ _____    ______ ____
ROOT
ATOM      1  O   UNL     1       3.017  -0.287   1.059  0.00  0.00    +0.000 OA
ATOM      2  C   UNL     1       2.431  -0.068   0.007  0.00  0.00    +0.000 C 
ATOM      3  N   UNL     1       1.065  -0.040  -0.122  0.00  0.00    +0.000 N 
ATOM      4  N   UNL     1       3.051   0.201  -1.183  0.00  0.00    +0.000 N 
ATOM      5  H   UNL     1       0.714   0.519  -0.886  0.00  0.00    +0.000 HD
ATOM      6  H   UNL     1       2.559  -0.108  -2.010  0.00  0.00    +0.000 HD
ENDROOT
BRANCH   3   7
ATOM      7  C   UNL     1       0.206  -0.181   1.036  0.00  0.00    +0.000 C 
BRANCH   7   8
ATOM      8  C   UNL     1      -1.136  -0.745   0.662  0.00  0.00    +0.000 A 
ATOM      9  C   UNL     1      -1.245  -2.007   0.072  0.00  0.00    +0.000 A 
ATOM     10  C   UNL     1      -2.500  -2.541  -0.214  0.00  0.00    +0.000 A 
ATOM     11  C   UNL     1      -3.630  -1.790   0.101  0.00  0.00    +0.000 A 
ATOM     12  N   UNL     1      -3.558  -0.553   0.664  0.00  0.00    +0.000 NA
ATOM     13  C   UNL     1      -2.321  -0.070   0.940  0.00  0.00    +0.000 A 
BRANCH  11  14
ATOM     14  N   UNL     1      -4.913  -2.342  -0.155  0.00  0.00    +0.000 N 
ATOM     15  C   UNL     1      -6.132  -1.745   0.066  0.00  0.00    +0.000 A 
ATOM     16  N   UNL     1      -7.111  -2.566  -0.248  0.00  0.00    +0.000 NA
ATOM     17  C   UNL     1      -6.442  -3.676  -0.670  0.00  0.00    +0.000 A 
ATOM     18  N   UNL     1      -5.109  -3.593  -0.652  0.00  0.00    +0.000 NA
ENDBRANCH  11  14
ENDBRANCH   7   8
ENDBRANCH   3   7
BRANCH   4  19
ATOM     19  C   UNL     1       4.500   0.150  -1.293  0.00  0.00    +0.000 C 
BRANCH  19  20
ATOM     20  C   UNL     1       5.014  -1.244  -1.594  0.00  0.00    +0.000 A 
ATOM     21  C   UNL     1       5.948  -1.834  -0.750  0.00  0.00    +0.000 A 
ATOM     22  C   UNL     1       6.323  -3.158  -0.974  0.00  0.00    +0.000 A 
ATOM     23  C   UNL     1       5.864  -3.809  -2.110  0.00  0.00    +0.000 A 
ATOM     24  C   UNL     1       4.983  -3.132  -2.934  0.00  0.00    +0.000 A 
ATOM     25  N   UNL     1       4.529  -1.880  -2.693  0.00  0.00    +0.000 NA
BRANCH  22  26
ATOM     26  O   UNL     1       7.154  -3.877  -0.141  0.00  0.00    +0.000 OA
BRANCH  26  27
ATOM     27  C   UNL     1       7.146  -3.608   1.211  0.00  0.00    +0.000 A 
ATOM     28  C   UNL     1       5.996  -3.234   1.922  0.00  0.00    +0.000 A 
ATOM     29  C   UNL     1       6.089  -2.866   3.265  0.00  0.00    +0.000 A 
ATOM     30  C   UNL     1       7.316  -2.949   3.911  0.00  0.00    +0.000 A 
ATOM     31  F   UNL     1       7.408  -2.579   5.195  0.00  0.00    +0.000 F 
ATOM     32  C   UNL     1       8.438  -3.411   3.231  0.00  0.00    +0.000 A 
ATOM     33  F   UNL     1       9.611  -3.522   3.870  0.00  0.00    +0.000 F 
ATOM     34  C   UNL     1       8.363  -3.743   1.882  0.00  0.00    +0.000 A 
ENDBRANCH  26  27
ENDBRANCH  22  26
ENDBRANCH  19  20
ENDBRANCH   4  19
TORSDOF 7
