REMARK  Name = 
REMARK  6 active torsions:
REMARK  status: ('A' for Active; 'I' for Inactive)
REMARK    1  A    between atoms: C_1  and  O_2
REMARK    2  A    between atoms: O_2  and  C_3
REMARK    3  A    between atoms: C_4  and  C_5
REMARK    4  A    between atoms: N_7  and  C_8
REMARK    5  A    between atoms: C_8  and  C_9
REMARK    6  A    between atoms: C_12  and  C_13
REMARK                            x       y       z     vdW  Elec       q    Type
REMARK                         _______ _______ _______ _____ _____    ______ ____
ROOT
ATOM      1  C   UNL     1       4.490   3.237   1.313  0.00  0.00    +0.000 C 
ENDROOT
BRANCH   1   2
ATOM      2  C   UNL     1       3.767   4.198   0.406  0.00  0.00    +0.000 A 
ATOM      3  C   UNL     1       2.746   3.742  -0.423  0.00  0.00    +0.000 A 
ATOM      4  C   UNL     1       2.057   4.645  -1.238  0.00  0.00    +0.000 A 
ATOM      5  C   UNL     1       2.322   6.032  -1.243  0.00  0.00    +0.000 A 
ATOM      6  C   UNL     1       3.378   6.469  -0.435  0.00  0.00    +0.000 A 
ATOM      7  C   UNL     1       4.095   5.561   0.371  0.00  0.00    +0.000 A 
BRANCH   5   8
ATOM      8  C   UNL     1       1.472   6.927  -2.077  0.00  0.00    +0.000 A 
ATOM      9  C   UNL     1       0.153   6.524  -2.344  0.00  0.00    +0.000 A 
ATOM     10  C   UNL     1      -0.603   7.106  -3.350  0.00  0.00    +0.000 A 
ATOM     11  C   UNL     1      -0.142   8.243  -3.987  0.00  0.00    +0.000 A 
ATOM     12  C   UNL     1      -0.902   8.805  -5.015  0.00  0.00    +0.000 A 
ATOM     13  C   UNL     1      -0.774  10.155  -5.295  0.00  0.00    +0.000 A 
ATOM     14  C   UNL     1       0.282  10.868  -4.738  0.00  0.00    +0.000 A 
ATOM     15  C   UNL     1       1.246  10.203  -3.964  0.00  0.00    +0.000 A 
ATOM     16  C   UNL     1       1.033   8.876  -3.535  0.00  0.00    +0.000 A 
ATOM     17  C   UNL     1       1.887   8.149  -2.658  0.00  0.00    +0.000 A 
ENDBRANCH   5   8
ENDBRANCH   1   2
BRANCH   1  20
ATOM     18  C   UNL     1       6.914   2.731   1.081  0.00  0.00    +0.000 C 
ATOM     19  O   UNL     1       7.214   3.454   2.042  0.00  0.00    +0.000 OA
ATOM     20  N   UNL     1       5.612   2.610   0.637  0.00  0.00    +0.000 N 
ATOM     21  H   UNL     1       5.383   1.934  -0.076  0.00  0.00    +0.000 HD
BRANCH  18  23
ATOM     22  C   UNL     1       9.106   1.594   0.780  0.00  0.00    +0.000 A 
ATOM     23  C   UNL     1       7.933   1.975   0.266  0.00  0.00    +0.000 A 
ATOM     24  N   UNL     1       7.593   1.695  -1.048  0.00  0.00    +0.000 N 
ATOM     25  C   UNL     1       8.412   1.030  -1.908  0.00  0.00    +0.000 A 
ATOM     26  O   UNL     1       8.072   0.811  -3.069  0.00  0.00    +0.000 OA
ATOM     27  N   UNL     1       9.615   0.642  -1.413  0.00  0.00    +0.000 N 
ATOM     28  C   UNL     1      10.027   0.816  -0.131  0.00  0.00    +0.000 A 
ATOM     29  O   UNL     1      11.109   0.349   0.238  0.00  0.00    +0.000 OA
ATOM     30  H   UNL     1       6.751   2.055  -1.447  0.00  0.00    +0.000 HD
ATOM     31  H   UNL     1      10.220   0.122  -2.027  0.00  0.00    +0.000 HD
BRANCH  22  33
ATOM     32  C   UNL     1      10.816   2.163   2.346  0.00  0.00    +0.000 C 
ATOM     33  O   UNL     1       9.442   1.833   2.114  0.00  0.00    +0.000 OA
ENDBRANCH  22  33
ENDBRANCH  18  23
ENDBRANCH   1  20
TORSDOF 5
