REMARK  Name = 
REMARK  6 active torsions:
REMARK  status: ('A' for Active; 'I' for Inactive)
REMARK    1  A    between atoms: C_2  and  C_3
REMARK    2  A    between atoms: C_3  and  C_4
REMARK    3  A    between atoms: N_10  and  C_11
REMARK    4  A    between atoms: C_14  and  C_15
REMARK    5  A    between atoms: N_17  and  C_18
REMARK    6  A    between atoms: C_18  and  C_19
REMARK                            x       y       z     vdW  Elec       q    Type
REMARK                         _______ _______ _______ _____ _____    ______ ____
ROOT
ATOM      1  C   UNL     1       4.604  -0.093   1.062  0.00  0.00    +0.000 A 
ATOM      2  C   UNL     1       5.340   0.849   0.334  0.00  0.00    +0.000 A 
ATOM      3  C   UNL     1       6.748   0.893   0.429  0.00  0.00    +0.000 A 
ATOM      4  C   UNL     1       7.426  -0.008   1.258  0.00  0.00    +0.000 A 
ATOM      5  C   UNL     1       6.676  -0.932   1.997  0.00  0.00    +0.000 A 
ATOM      6  C   UNL     1       5.285  -0.971   1.903  0.00  0.00    +0.000 A 
ENDROOT
BRANCH   4   7
ATOM      7  C   UNL     1       8.899  -0.048   1.443  0.00  0.00    +0.000 C 
ATOM      8  O   UNL     1       9.365  -0.564   2.457  0.00  0.00    +0.000 OA
ATOM      9  N   UNL     1       9.714   0.451   0.441  0.00  0.00    +0.000 N 
ATOM     10  H   UNL     1       9.331   0.726  -0.451  0.00  0.00    +0.000 HD
BRANCH   9  11
ATOM     11  C   UNL     1      11.136   0.206   0.547  0.00  0.00    +0.000 C 
BRANCH  11  12
ATOM     12  C   UNL     1      11.852   0.890  -0.560  0.00  0.00    +0.000 A 
ATOM     13  C   UNL     1      12.577   2.063  -0.450  0.00  0.00    +0.000 A 
ATOM     14  N   UNL     1      13.162   2.290  -1.663  0.00  0.00    +0.000 N 
ATOM     15  C   UNL     1      12.468   1.592  -2.620  0.00  0.00    +0.000 A 
ATOM     16  C   UNL     1      12.343   1.792  -3.997  0.00  0.00    +0.000 A 
ATOM     17  C   UNL     1      11.663   0.807  -4.714  0.00  0.00    +0.000 A 
ATOM     18  C   UNL     1      11.255  -0.367  -4.087  0.00  0.00    +0.000 A 
ATOM     19  F   UNL     1      10.697  -1.337  -4.824  0.00  0.00    +0.000 F 
ATOM     20  C   UNL     1      11.361  -0.541  -2.706  0.00  0.00    +0.000 A 
ATOM     21  C   UNL     1      11.872   0.525  -1.946  0.00  0.00    +0.000 A 
ATOM     22  H   UNL     1      13.939   2.915  -1.840  0.00  0.00    +0.000 HD
ENDBRANCH  11  12
ENDBRANCH   9  11
ENDBRANCH   4   7
BRANCH   1  25
ATOM     23  O   UNL     1       2.639   1.113  -0.816  0.00  0.00    +0.000 OA
ATOM     24  C   UNL     1       2.326   0.377   0.142  0.00  0.00    +0.000 C 
ATOM     25  N   UNL     1       3.204  -0.223   1.015  0.00  0.00    +0.000 N 
ATOM     26  H   UNL     1       2.797  -0.914   1.640  0.00  0.00    +0.000 HD
BRANCH  24  27
ATOM     27  C   UNL     1       0.856   0.076   0.441  0.00  0.00    +0.000 C 
BRANCH  27  28
ATOM     28  C   UNL     1       0.346  -1.164  -0.245  0.00  0.00    +0.000 A 
ATOM     29  C   UNL     1      -0.266  -2.185   0.492  0.00  0.00    +0.000 A 
ATOM     30  C   UNL     1      -0.779  -3.302  -0.165  0.00  0.00    +0.000 A 
ATOM     31  C   UNL     1      -0.669  -3.361  -1.543  0.00  0.00    +0.000 A 
ATOM     32  N   UNL     1      -0.096  -2.394  -2.288  0.00  0.00    +0.000 NA
ATOM     33  C   UNL     1       0.395  -1.320  -1.629  0.00  0.00    +0.000 A 
ENDBRANCH  27  28
ENDBRANCH  24  27
ENDBRANCH   1  25
TORSDOF 6
