REMARK  Name = 
REMARK  6 active torsions:
REMARK  status: ('A' for Active; 'I' for Inactive)
REMARK    1  A    between atoms: C_1  and  N_2
REMARK    2  A    between atoms: C_9  and  N_10
REMARK    3  A    between atoms: C_11  and  C_13
REMARK    4  A    between atoms: C_16  and  O_17
REMARK    5  A    between atoms: O_17  and  C_18
REMARK    6  A    between atoms: C_18  and  C_19
REMARK                            x       y       z     vdW  Elec       q    Type
REMARK                         _______ _______ _______ _____ _____    ______ ____
ROOT
ATOM      1  N   UNL     1       5.303  -4.908  -0.005  0.00  0.00    +0.000 N 
ATOM      2  C   UNL     1       4.750  -6.165  -0.200  0.00  0.00    +0.000 C 
ATOM      3  O   UNL     1       3.600  -6.401  -0.556  0.00  0.00    +0.000 OA
ATOM      4  H   UNL     1       6.308  -4.834   0.061  0.00  0.00    +0.000 HD
ENDROOT
BRANCH   1  13
ATOM      5  C   UNL     1       3.203   1.244  -0.643  0.00  0.00    +0.000 C 
ATOM      6  N   UNL     1       2.477   0.004  -0.373  0.00  0.00    +0.000 N 
ATOM      7  C   UNL     1       1.106  -0.018  -0.184  0.00  0.00    +0.000 A 
ATOM      8  C   UNL     1       0.366  -1.103   0.046  0.00  0.00    +0.000 A 
ATOM      9  C   UNL     1       1.045  -2.407   0.092  0.00  0.00    +0.000 A 
ATOM     10  O   UNL     1       0.394  -3.431   0.285  0.00  0.00    +0.000 OA
ATOM     11  C   UNL     1       2.521  -2.416  -0.083  0.00  0.00    +0.000 A 
ATOM     12  C   UNL     1       3.192  -3.642  -0.004  0.00  0.00    +0.000 A 
ATOM     13  C   UNL     1       4.580  -3.696  -0.096  0.00  0.00    +0.000 A 
ATOM     14  C   UNL     1       5.287  -2.502  -0.262  0.00  0.00    +0.000 A 
ATOM     15  C   UNL     1       4.606  -1.278  -0.383  0.00  0.00    +0.000 A 
ATOM     16  C   UNL     1       3.206  -1.205  -0.292  0.00  0.00    +0.000 A 
ENDBRANCH   1  13
BRANCH   2  17
ATOM     17  C   UNL     1       5.654  -7.322  -0.049  0.00  0.00    +0.000 A 
ATOM     18  C   UNL     1       6.755  -7.360   0.806  0.00  0.00    +0.000 A 
ATOM     19  C   UNL     1       7.525  -8.525   0.864  0.00  0.00    +0.000 A 
ATOM     20  C   UNL     1       7.182  -9.591   0.042  0.00  0.00    +0.000 A 
ATOM     21  N   UNL     1       6.109  -9.585  -0.772  0.00  0.00    +0.000 NA
ATOM     22  C   UNL     1       5.358  -8.463  -0.785  0.00  0.00    +0.000 A 
BRANCH  20  23
ATOM     23  O   UNL     1       7.973 -10.718   0.085  0.00  0.00    +0.000 OA
BRANCH  23  24
ATOM     24  C   UNL     1       7.877 -11.468  -1.131  0.00  0.00    +0.000 C 
BRANCH  24  25
ATOM     25  C   UNL     1       8.701 -12.724  -0.994  0.00  0.00    +0.000 A 
ATOM     26  C   UNL     1       8.106 -13.917  -0.559  0.00  0.00    +0.000 A 
ATOM     27  C   UNL     1       8.873 -15.071  -0.398  0.00  0.00    +0.000 A 
ATOM     28  C   UNL     1      10.240 -15.044  -0.671  0.00  0.00    +0.000 A 
ATOM     29  C   UNL     1      10.839 -13.865  -1.112  0.00  0.00    +0.000 A 
ATOM     30  C   UNL     1      10.074 -12.709  -1.271  0.00  0.00    +0.000 A 
ENDBRANCH  24  25
ENDBRANCH  23  24
ENDBRANCH  20  23
ENDBRANCH   2  17
TORSDOF 5
