REMARK  Name = 
REMARK  8 active torsions:
REMARK  status: ('A' for Active; 'I' for Inactive)
REMARK    1  A    between atoms: C_1  and  C_2
REMARK    2  A    between atoms: C_2  and  C_3
REMARK    3  A    between atoms: C_4  and  C_5
REMARK    4  A    between atoms: N_7  and  C_8
REMARK    5  A    between atoms: C_8  and  C_9
REMARK    6  A    between atoms: C_13  and  C_14
REMARK    7  A    between atoms: N_23  and  C_24
REMARK    8  A    between atoms: C_24  and  C_25
REMARK                            x       y       z     vdW  Elec       q    Type
REMARK                         _______ _______ _______ _____ _____    ______ ____
ROOT
ATOM      1  C   UNL     1       2.406  -3.072   0.452  0.00  0.00    +0.000 C 
ATOM      2  O   UNL     1       2.189  -4.221   0.814  0.00  0.00    +0.000 OA
ATOM      3  N   UNL     1       2.177  -2.622  -0.834  0.00  0.00    +0.000 N 
ATOM      4  H   UNL     1       2.241  -1.623  -0.992  0.00  0.00    +0.000 HD
ENDROOT
BRANCH   1   6
ATOM      5  C   UNL     1       2.902  -1.974   2.731  0.00  0.00    +0.000 A 
ATOM      6  C   UNL     1       2.913  -2.027   1.341  0.00  0.00    +0.000 A 
ATOM      7  N   UNL     1       3.477  -0.870   0.855  0.00  0.00    +0.000 NA
ATOM      8  N   UNL     1       3.824  -0.110   1.879  0.00  0.00    +0.000 NA
ATOM      9  N   UNL     1       3.486  -0.758   3.013  0.00  0.00    +0.000 N 
BRANCH   5  11
ATOM     10  C   UNL     1       3.400  -3.921   4.221  0.00  0.00    +0.000 C 
ATOM     11  C   UNL     1       2.357  -2.927   3.738  0.00  0.00    +0.000 C 
ENDBRANCH   5  11
BRANCH   9  12
ATOM     12  C   UNL     1       3.633  -0.055   4.282  0.00  0.00    +0.000 C 
BRANCH  12  13
ATOM     13  C   UNL     1       4.927  -0.378   4.994  0.00  0.00    +0.000 A 
ATOM     14  C   UNL     1       6.170  -0.160   4.374  0.00  0.00    +0.000 A 
ATOM     15  C   UNL     1       7.358  -0.504   5.023  0.00  0.00    +0.000 A 
ATOM     16  C   UNL     1       7.309  -1.045   6.301  0.00  0.00    +0.000 A 
ATOM     17  F   UNL     1       8.445  -1.408   6.910  0.00  0.00    +0.000 F 
ATOM     18  C   UNL     1       6.096  -1.214   6.957  0.00  0.00    +0.000 A 
ATOM     19  C   UNL     1       4.907  -0.873   6.309  0.00  0.00    +0.000 A 
ENDBRANCH  12  13
ENDBRANCH   9  12
ENDBRANCH   1   6
BRANCH   3  20
ATOM     20  C   UNL     1       1.649  -3.467  -1.877  0.00  0.00    +0.000 C 
BRANCH  20  21
ATOM     21  C   UNL     1       2.028  -2.958  -3.249  0.00  0.00    +0.000 A 
ATOM     22  C   UNL     1       3.377  -2.773  -3.580  0.00  0.00    +0.000 A 
ATOM     23  C   UNL     1       3.735  -2.340  -4.852  0.00  0.00    +0.000 A 
ATOM     24  C   UNL     1       2.756  -2.109  -5.820  0.00  0.00    +0.000 A 
ATOM     25  C   UNL     1       1.390  -2.323  -5.549  0.00  0.00    +0.000 A 
ATOM     26  C   UNL     1       1.052  -2.728  -4.238  0.00  0.00    +0.000 A 
BRANCH  25  27
ATOM     27  C   UNL     1       0.368  -2.195  -6.615  0.00  0.00    +0.000 A 
ATOM     28  C   UNL     1       0.640  -2.543  -7.949  0.00  0.00    +0.000 A 
ATOM     29  C   UNL     1      -0.353  -2.484  -8.928  0.00  0.00    +0.000 A 
ATOM     30  C   UNL     1      -1.617  -2.072  -8.552  0.00  0.00    +0.000 A 
ATOM     31  N   UNL     1      -1.934  -1.704  -7.294  0.00  0.00    +0.000 NA
ATOM     32  C   UNL     1      -0.940  -1.770  -6.369  0.00  0.00    +0.000 A 
ENDBRANCH  25  27
ENDBRANCH  20  21
ENDBRANCH   3  20
TORSDOF 7
