REMARK  Name = 
REMARK  7 active torsions:
REMARK  status: ('A' for Active; 'I' for Inactive)
REMARK    1  A    between atoms: N_1  and  C_2
REMARK    2  A    between atoms: C_2  and  C_3
REMARK    3  A    between atoms: C_3  and  N_4
REMARK    4  A    between atoms: C_3  and  C_24
REMARK    5  A    between atoms: C_5  and  C_7
REMARK    6  A    between atoms: N_9  and  C_10
REMARK    7  A    between atoms: C_17  and  C_18
REMARK                            x       y       z     vdW  Elec       q    Type
REMARK                         _______ _______ _______ _____ _____    ______ ____
ROOT
ATOM      1  C   UNL     1       0.537   0.764   3.801  0.00  0.00    +0.000 A 
ATOM      2  C   UNL     1       0.954   1.323   4.994  0.00  0.00    +0.000 A 
ATOM      3  N   UNL     1       0.240   0.724   6.002  0.00  0.00    +0.000 N 
ATOM      4  N   UNL     1      -0.547  -0.266   5.523  0.00  0.00    +0.000 NA
ATOM      5  C   UNL     1      -0.425  -0.217   4.185  0.00  0.00    +0.000 A 
ENDROOT
BRANCH   5   6
ATOM      6  C   UNL     1      -1.265  -1.077   3.343  0.00  0.00    +0.000 A 
ATOM      7  C   UNL     1      -1.753  -0.636   2.111  0.00  0.00    +0.000 A 
ATOM      8  C   UNL     1      -2.548  -1.490   1.364  0.00  0.00    +0.000 A 
ATOM      9  N   UNL     1      -2.906  -2.727   1.766  0.00  0.00    +0.000 NA
ATOM     10  C   UNL     1      -2.444  -3.127   2.969  0.00  0.00    +0.000 A 
ATOM     11  C   UNL     1      -1.634  -2.352   3.783  0.00  0.00    +0.000 A 
ENDBRANCH   5   6
BRANCH   3  12
ATOM     12  C   UNL     1       0.240   1.068   7.384  0.00  0.00    +0.000 A 
ATOM     13  C   UNL     1       0.981   2.162   7.858  0.00  0.00    +0.000 A 
ATOM     14  C   UNL     1       0.923   2.517   9.208  0.00  0.00    +0.000 A 
ATOM     15  C   UNL     1       0.137   1.782  10.093  0.00  0.00    +0.000 A 
ATOM     16  C   UNL     1      -0.591   0.686   9.633  0.00  0.00    +0.000 A 
ATOM     17  C   UNL     1      -0.542   0.328   8.283  0.00  0.00    +0.000 A 
ENDBRANCH   3  12
BRANCH   1  19
ATOM     18  N   UNL     1       1.322   2.462   2.347  0.00  0.00    +0.000 N 
ATOM     19  C   UNL     1       1.011   1.131   2.478  0.00  0.00    +0.000 C 
ATOM     20  O   UNL     1       1.093   0.337   1.549  0.00  0.00    +0.000 OA
ATOM     21  H   UNL     1       1.237   3.084   3.140  0.00  0.00    +0.000 HD
BRANCH  18  22
ATOM     22  C   UNL     1       1.739   3.051   1.081  0.00  0.00    +0.000 C 
BRANCH  22  23
ATOM     23  C   UNL     1       1.202   4.462   0.914  0.00  0.00    +0.000 A 
ATOM     24  C   UNL     1       0.832   4.917  -0.364  0.00  0.00    +0.000 A 
ATOM     25  C   UNL     1       0.296   6.196  -0.541  0.00  0.00    +0.000 A 
ATOM     26  C   UNL     1       0.126   7.043   0.553  0.00  0.00    +0.000 A 
ATOM     27  C   UNL     1       0.506   6.616   1.822  0.00  0.00    +0.000 A 
ATOM     28  C   UNL     1       1.044   5.343   1.992  0.00  0.00    +0.000 A 
ATOM     29  F   UNL     1       1.374   4.955   3.235  0.00  0.00    +0.000 F 
ENDBRANCH  22  23
BRANCH  22  30
ATOM     30  C   UNL     1       3.279   2.949   0.899  0.00  0.00    +0.000 C 
BRANCH  30  31
ATOM     31  N   UNL     1       4.062   3.624   1.944  0.00  0.00    +0.000 NA
ATOM     32  H   UNL     1       5.028   3.300   1.895  0.00  0.00    +0.000 HD
ATOM     33  H   UNL     1       3.710   3.343   2.857  0.00  0.00    +0.000 HD
ENDBRANCH  30  31
ENDBRANCH  22  30
ENDBRANCH  18  22
ENDBRANCH   1  19
TORSDOF 7
