REMARK  Name = 
REMARK  7 active torsions:
REMARK  status: ('A' for Active; 'I' for Inactive)
REMARK    1  A    between atoms: C_1  and  C_2
REMARK    2  A    between atoms: C_3  and  C_4
REMARK    3  A    between atoms: N_6  and  C_7
REMARK    4  A    between atoms: C_7  and  C_8
REMARK    5  A    between atoms: C_11  and  C_12
REMARK    6  A    between atoms: N_27  and  C_28
REMARK    7  A    between atoms: N_31  and  C_32
REMARK                            x       y       z     vdW  Elec       q    Type
REMARK                         _______ _______ _______ _____ _____    ______ ____
ROOT
ATOM      1  C   UNL     1       2.293  -2.538  -0.095  0.00  0.00    +0.000 C 
ATOM      2  O   UNL     1       1.089  -2.573  -0.309  0.00  0.00    +0.000 OA
ATOM      3  N   UNL     1       3.064  -3.682  -0.004  0.00  0.00    +0.000 N 
ATOM      4  H   UNL     1       4.034  -3.645   0.277  0.00  0.00    +0.000 HD
ENDROOT
BRANCH   1   7
ATOM      5  C   UNL     1       1.076  -0.171   1.353  0.00  0.00    +0.000 C 
ATOM      6  C   UNL     1       2.417  -0.096   0.666  0.00  0.00    +0.000 A 
ATOM      7  C   UNL     1       2.989  -1.229   0.050  0.00  0.00    +0.000 A 
ATOM      8  C   UNL     1       4.234  -1.070  -0.553  0.00  0.00    +0.000 A 
ATOM      9  N   UNL     1       4.935   0.089  -0.573  0.00  0.00    +0.000 NA
ATOM     10  C   UNL     1       4.380   1.187   0.002  0.00  0.00    +0.000 A 
ATOM     11  C   UNL     1       3.136   1.136   0.626  0.00  0.00    +0.000 A 
ATOM     12  C   UNL     1       2.618   2.396   1.211  0.00  0.00    +0.000 A 
ATOM     13  O   UNL     1       1.530   2.420   1.780  0.00  0.00    +0.000 OA
ATOM     14  N   UNL     1       3.406   3.531   1.091  0.00  0.00    +0.000 N 
ATOM     15  C   UNL     1       2.916   4.777   1.658  0.00  0.00    +0.000 C 
ATOM     16  C   UNL     1       4.644   3.574   0.470  0.00  0.00    +0.000 A 
ATOM     17  O   UNL     1       5.290   4.624   0.409  0.00  0.00    +0.000 OA
ATOM     18  N   UNL     1       5.107   2.396  -0.064  0.00  0.00    +0.000 N 
ATOM     19  C   UNL     1       6.396   2.374  -0.744  0.00  0.00    +0.000 C 
ENDBRANCH   1   7
BRANCH   3  20
ATOM     20  C   UNL     1       2.460  -4.997  -0.106  0.00  0.00    +0.000 C 
BRANCH  20  21
ATOM     21  C   UNL     1       2.200  -5.602   1.244  0.00  0.00    +0.000 A 
ATOM     22  C   UNL     1       0.999  -5.373   1.922  0.00  0.00    +0.000 A 
ATOM     23  C   UNL     1       0.766  -5.963   3.173  0.00  0.00    +0.000 A 
ATOM     24  C   UNL     1       1.730  -6.776   3.802  0.00  0.00    +0.000 A 
ATOM     25  C   UNL     1       2.937  -6.977   3.112  0.00  0.00    +0.000 A 
ATOM     26  C   UNL     1       3.158  -6.403   1.860  0.00  0.00    +0.000 A 
ATOM     27  F   UNL     1       4.326  -6.635   1.243  0.00  0.00    +0.000 F 
BRANCH  24  28
ATOM     28  C   UNL     1       1.487  -7.386   5.133  0.00  0.00    +0.000 A 
ATOM     29  C   UNL     1       2.037  -8.634   5.483  0.00  0.00    +0.000 A 
ATOM     30  C   UNL     1       1.819  -9.204   6.742  0.00  0.00    +0.000 A 
ATOM     31  C   UNL     1       1.032  -8.546   7.679  0.00  0.00    +0.000 A 
ATOM     32  C   UNL     1       0.469  -7.314   7.361  0.00  0.00    +0.000 A 
ATOM     33  C   UNL     1       0.702  -6.740   6.106  0.00  0.00    +0.000 A 
ENDBRANCH  24  28
ENDBRANCH  20  21
ENDBRANCH   3  20
TORSDOF 4
