REMARK  Name = 
REMARK  5 active torsions:
REMARK  status: ('A' for Active; 'I' for Inactive)
REMARK    1  A    between atoms: C_2  and  C_15
REMARK    2  A    between atoms: N_3  and  C_4
REMARK    3  A    between atoms: N_6  and  C_7
REMARK    4  A    between atoms: C_18  and  O_19
REMARK    5  A    between atoms: O_19  and  C_20
REMARK                            x       y       z     vdW  Elec       q    Type
REMARK                         _______ _______ _______ _____ _____    ______ ____
ROOT
ATOM      1  O   UNL     1       0.953   0.445   0.013  0.00  0.00    +0.000 OA
ATOM      2  C   UNL     1       2.151   0.178   0.015  0.00  0.00    +0.000 C 
ATOM      3  N   UNL     1       2.820  -0.577  -0.934  0.00  0.00    +0.000 N 
ATOM      4  H   UNL     1       3.786  -0.812  -0.749  0.00  0.00    +0.000 HD
ENDROOT
BRANCH   2   5
ATOM      5  C   UNL     1       2.971   0.664   1.160  0.00  0.00    +0.000 A 
ATOM      6  C   UNL     1       2.292   1.218   2.243  0.00  0.00    +0.000 A 
ATOM      7  C   UNL     1       3.026   1.719   3.307  0.00  0.00    +0.000 A 
ATOM      8  C   UNL     1       4.418   1.721   3.233  0.00  0.00    +0.000 A 
ATOM      9  C   UNL     1       5.013   1.109   2.131  0.00  0.00    +0.000 A 
ATOM     10  N   UNL     1       4.326   0.564   1.087  0.00  0.00    +0.000 NA
BRANCH   8  11
ATOM     11  O   UNL     1       5.232   2.277   4.194  0.00  0.00    +0.000 OA
BRANCH  11  12
ATOM     12  C   UNL     1       4.819   3.441   4.816  0.00  0.00    +0.000 A 
ATOM     13  C   UNL     1       5.221   3.630   6.144  0.00  0.00    +0.000 A 
ATOM     14  C   UNL     1       4.793   4.759   6.848  0.00  0.00    +0.000 A 
ATOM     15  C   UNL     1       3.964   5.687   6.221  0.00  0.00    +0.000 A 
ATOM     16  F   UNL     1       3.521   6.749   6.907  0.00  0.00    +0.000 F 
ATOM     17  C   UNL     1       3.591   5.531   4.892  0.00  0.00    +0.000 A 
ATOM     18  C   UNL     1       4.048   4.422   4.180  0.00  0.00    +0.000 A 
ENDBRANCH  11  12
ENDBRANCH   8  11
ENDBRANCH   2   5
BRANCH   3  19
ATOM     19  C   UNL     1       2.169  -1.144  -2.018  0.00  0.00    +0.000 A 
ATOM     20  C   UNL     1       0.915  -0.839  -2.487  0.00  0.00    +0.000 A 
ATOM     21  N   UNL     1       0.632  -1.701  -3.517  0.00  0.00    +0.000 N 
ATOM     22  N   UNL     1       1.688  -2.529  -3.776  0.00  0.00    +0.000 NA
ATOM     23  C   UNL     1       2.616  -2.158  -2.885  0.00  0.00    +0.000 A 
BRANCH  21  24
ATOM     24  C   UNL     1      -0.591  -1.743  -4.252  0.00  0.00    +0.000 A 
ATOM     25  C   UNL     1      -0.777  -2.753  -5.191  0.00  0.00    +0.000 A 
ATOM     26  C   UNL     1      -1.960  -2.768  -5.925  0.00  0.00    +0.000 A 
ATOM     27  C   UNL     1      -2.914  -1.780  -5.710  0.00  0.00    +0.000 A 
ATOM     28  C   UNL     1      -2.657  -0.818  -4.749  0.00  0.00    +0.000 A 
ATOM     29  N   UNL     1      -1.526  -0.781  -4.011  0.00  0.00    +0.000 NA
ENDBRANCH  21  24
ENDBRANCH   3  19
TORSDOF 5
