REMARK  Name = 
REMARK  5 active torsions:
REMARK  status: ('A' for Active; 'I' for Inactive)
REMARK    1  A    between atoms: C_1  and  O_2
REMARK    2  A    between atoms: O_2  and  C_3
REMARK    3  A    between atoms: C_6  and  C_7
REMARK    4  A    between atoms: N_12  and  C_13
REMARK    5  A    between atoms: C_23  and  C_24
REMARK                            x       y       z     vdW  Elec       q    Type
REMARK                         _______ _______ _______ _____ _____    ______ ____
ROOT
ATOM      1  C   UNL     1       5.452  -2.648   3.941  0.00  0.00    +0.000 C 
ATOM      2  O   UNL     1       5.869  -1.939   4.848  0.00  0.00    +0.000 OA
ATOM      3  N   UNL     1       5.686  -4.004   3.829  0.00  0.00    +0.000 N 
ATOM      4  C   UNL     1       6.386  -4.690   4.799  0.00  0.00    +0.000 A 
ATOM      5  N   UNL     1       7.183  -5.711   4.479  0.00  0.00    +0.000 NA
ATOM      6  N   UNL     1       7.783  -5.986   5.673  0.00  0.00    +0.000 N 
ATOM      7  N   UNL     1       7.233  -5.390   6.763  0.00  0.00    +0.000 NA
ATOM      8  C   UNL     1       6.403  -4.510   6.196  0.00  0.00    +0.000 A 
ATOM      9  H   UNL     1       5.669  -4.446   2.921  0.00  0.00    +0.000 HD
ENDROOT
BRANCH   6  10
ATOM     10  C   UNL     1       8.949  -6.793   5.770  0.00  0.00    +0.000 A 
ATOM     11  C   UNL     1       9.620  -7.203   4.606  0.00  0.00    +0.000 A 
ATOM     12  C   UNL     1      10.792  -7.957   4.709  0.00  0.00    +0.000 A 
ATOM     13  C   UNL     1      11.278  -8.309   5.965  0.00  0.00    +0.000 A 
ATOM     14  F   UNL     1      12.398  -9.036   6.058  0.00  0.00    +0.000 F 
ATOM     15  C   UNL     1      10.621  -7.913   7.124  0.00  0.00    +0.000 A 
ATOM     16  C   UNL     1       9.458  -7.145   7.032  0.00  0.00    +0.000 A 
ENDBRANCH   6  10
BRANCH   1  20
ATOM     17  C   UNL     1       3.103  -0.738   0.892  0.00  0.00    +0.000 A 
ATOM     18  C   UNL     1       2.805  -2.045   1.307  0.00  0.00    +0.000 A 
ATOM     19  C   UNL     1       3.579  -2.683   2.280  0.00  0.00    +0.000 A 
ATOM     20  C   UNL     1       4.676  -2.024   2.833  0.00  0.00    +0.000 A 
ATOM     21  C   UNL     1       4.973  -0.713   2.430  0.00  0.00    +0.000 A 
ATOM     22  C   UNL     1       4.179  -0.025   1.480  0.00  0.00    +0.000 A 
BRANCH  22  23
ATOM     23  C   UNL     1       4.465   1.404   1.185  0.00  0.00    +0.000 A 
ATOM     24  C   UNL     1       3.455   2.346   0.941  0.00  0.00    +0.000 A 
ATOM     25  C   UNL     1       3.781   3.680   0.702  0.00  0.00    +0.000 A 
ATOM     26  C   UNL     1       5.110   4.065   0.746  0.00  0.00    +0.000 A 
ATOM     27  C   UNL     1       6.052   3.090   1.023  0.00  0.00    +0.000 A 
ATOM     28  N   UNL     1       5.765   1.787   1.241  0.00  0.00    +0.000 NA
ENDBRANCH  22  23
BRANCH  17  30
ATOM     29  C   UNL     1       1.244  -0.703  -0.633  0.00  0.00    +0.000 C 
ATOM     30  O   UNL     1       2.406  -0.089  -0.097  0.00  0.00    +0.000 OA
ENDBRANCH  17  30
ENDBRANCH   1  20
TORSDOF 4
