REMARK  Name = 
REMARK  4 active torsions:
REMARK  status: ('A' for Active; 'I' for Inactive)
REMARK    1  A    between atoms: C_2  and  C_17
REMARK    2  A    between atoms: N_3  and  C_4
REMARK    3  A    between atoms: C_7  and  N_8
REMARK    4  A    between atoms: N_19  and  C_20
REMARK                            x       y       z     vdW  Elec       q    Type
REMARK                         _______ _______ _______ _____ _____    ______ ____
ROOT
ATOM      1  O   UNL     1       1.045   0.118   0.056  0.00  0.00    +0.000 OA
ATOM      2  C   UNL     1       2.264   0.009  -0.053  0.00  0.00    +0.000 C 
ATOM      3  N   UNL     1       2.919  -0.666  -1.070  0.00  0.00    +0.000 N 
ATOM      4  H   UNL     1       3.908  -0.849  -0.931  0.00  0.00    +0.000 HD
ENDROOT
BRANCH   3   5
ATOM      5  C   UNL     1       2.251  -1.302  -2.138  0.00  0.00    +0.000 A 
ATOM      6  C   UNL     1       0.940  -0.973  -2.492  0.00  0.00    +0.000 A 
ATOM      7  C   UNL     1       0.244  -1.705  -3.454  0.00  0.00    +0.000 A 
ATOM      8  C   UNL     1       0.834  -2.787  -4.115  0.00  0.00    +0.000 A 
ATOM      9  C   UNL     1       2.184  -3.047  -3.804  0.00  0.00    +0.000 A 
ATOM     10  F   UNL     1       2.833  -4.059  -4.406  0.00  0.00    +0.000 F 
ATOM     11  C   UNL     1       2.895  -2.312  -2.845  0.00  0.00    +0.000 A 
BRANCH   8  12
ATOM     12  N   UNL     1       0.080  -3.556  -5.024  0.00  0.00    +0.000 N 
ATOM     13  C   UNL     1      -1.237  -3.486  -5.389  0.00  0.00    +0.000 A 
ATOM     14  C   UNL     1      -1.604  -4.496  -6.184  0.00  0.00    +0.000 A 
ATOM     15  C   UNL     1      -0.384  -5.334  -6.289  0.00  0.00    +0.000 A 
ATOM     16  O   UNL     1      -0.334  -6.422  -6.829  0.00  0.00    +0.000 OA
ATOM     17  N   UNL     1       0.623  -4.666  -5.625  0.00  0.00    +0.000 N 
ATOM     18  H   UNL     1       1.485  -5.093  -5.311  0.00  0.00    +0.000 HD
ENDBRANCH   8  12
ENDBRANCH   3   5
BRANCH   2  19
ATOM     19  C   UNL     1       3.116   0.569   0.976  0.00  0.00    +0.000 A 
ATOM     20  C   UNL     1       2.635   1.142   2.129  0.00  0.00    +0.000 A 
ATOM     21  N   UNL     1       3.731   1.572   2.821  0.00  0.00    +0.000 N 
ATOM     22  N   UNL     1       4.843   1.266   2.098  0.00  0.00    +0.000 NA
ATOM     23  N   UNL     1       4.477   0.639   0.981  0.00  0.00    +0.000 NA
BRANCH  21  24
ATOM     24  C   UNL     1       3.762   2.224   4.073  0.00  0.00    +0.000 A 
ATOM     25  C   UNL     1       2.596   2.387   4.832  0.00  0.00    +0.000 A 
ATOM     26  F   UNL     1       1.408   1.919   4.428  0.00  0.00    +0.000 F 
ATOM     27  C   UNL     1       2.616   3.030   6.069  0.00  0.00    +0.000 A 
ATOM     28  C   UNL     1       3.811   3.528   6.572  0.00  0.00    +0.000 A 
ATOM     29  C   UNL     1       4.981   3.377   5.829  0.00  0.00    +0.000 A 
ATOM     30  C   UNL     1       4.955   2.728   4.592  0.00  0.00    +0.000 A 
ATOM     31  F   UNL     1       6.114   2.634   3.926  0.00  0.00    +0.000 F 
ENDBRANCH  21  24
ENDBRANCH   2  19
TORSDOF 4
