REMARK  Name = 
REMARK  5 active torsions:
REMARK  status: ('A' for Active; 'I' for Inactive)
REMARK    1  A    between atoms: C_2  and  C_3
REMARK    2  A    between atoms: C_4  and  N_5
REMARK    3  A    between atoms: C_6  and  C_8
REMARK    4  A    between atoms: C_12  and  C_13
REMARK    5  A    between atoms: N_21  and  C_22
REMARK                            x       y       z     vdW  Elec       q    Type
REMARK                         _______ _______ _______ _____ _____    ______ ____
ROOT
ATOM      1  C   UNL     1       3.716   0.065  -0.040  0.00  0.00    +0.000 A 
ATOM      2  C   UNL     1       4.400   1.226   0.142  0.00  0.00    +0.000 A 
ATOM      3  C   UNL     1       5.846   1.127   0.230  0.00  0.00    +0.000 A 
ATOM      4  C   UNL     1       6.473  -0.049   0.177  0.00  0.00    +0.000 A 
ATOM      5  N   UNL     1       5.787  -1.242   0.045  0.00  0.00    +0.000 N 
ATOM      6  C   UNL     1       4.393  -1.262  -0.076  0.00  0.00    +0.000 A 
ATOM      7  O   UNL     1       3.700  -2.268  -0.226  0.00  0.00    +0.000 OA
ENDROOT
BRANCH   5   8
ATOM      8  C   UNL     1       6.497  -2.474  -0.026  0.00  0.00    +0.000 A 
ATOM      9  C   UNL     1       7.595  -2.598  -0.887  0.00  0.00    +0.000 A 
ATOM     10  C   UNL     1       8.235  -3.829  -1.032  0.00  0.00    +0.000 A 
ATOM     11  C   UNL     1       7.813  -4.927  -0.283  0.00  0.00    +0.000 A 
ATOM     12  C   UNL     1       6.754  -4.796   0.614  0.00  0.00    +0.000 A 
ATOM     13  C   UNL     1       6.091  -3.576   0.735  0.00  0.00    +0.000 A 
ENDBRANCH   5   8
BRANCH   2  14
ATOM     14  N   UNL     1       3.766   2.477   0.273  0.00  0.00    +0.000 N 
ATOM     15  C   UNL     1       4.376   3.722   0.465  0.00  0.00    +0.000 C 
ATOM     16  O   UNL     1       5.587   3.886   0.579  0.00  0.00    +0.000 OA
ATOM     17  H   UNL     1       2.752   2.479   0.244  0.00  0.00    +0.000 HD
BRANCH  15  18
ATOM     18  C   UNL     1       3.545   4.962   0.534  0.00  0.00    +0.000 A 
ATOM     19  C   UNL     1       4.235   6.153   0.790  0.00  0.00    +0.000 A 
ATOM     20  N   UNL     1       3.675   7.386   0.819  0.00  0.00    +0.000 NA
ATOM     21  C   UNL     1       2.349   7.443   0.576  0.00  0.00    +0.000 A 
ATOM     22  C   UNL     1       1.544   6.329   0.332  0.00  0.00    +0.000 A 
ATOM     23  C   UNL     1       2.166   5.064   0.316  0.00  0.00    +0.000 A 
BRANCH  22  24
ATOM     24  C   UNL     1       0.121   6.483   0.066  0.00  0.00    +0.000 A 
ATOM     25  C   UNL     1      -0.643   7.556   0.485  0.00  0.00    +0.000 A 
ATOM     26  O   UNL     1      -1.928   7.432   0.067  0.00  0.00    +0.000 OA
ATOM     27  C   UNL     1      -2.003   6.268  -0.629  0.00  0.00    +0.000 A 
ATOM     28  C   UNL     1      -0.776   5.648  -0.657  0.00  0.00    +0.000 A 
ENDBRANCH  22  24
ENDBRANCH  15  18
ENDBRANCH   2  14
BRANCH   1  30
ATOM     29  N   UNL     1       0.935   0.065  -0.040  0.00  0.00    +0.000 NA
ATOM     30  C   UNL     1       2.196   0.065  -0.040  0.00  0.00    +0.000 C 
ENDBRANCH   1  30
TORSDOF 5
