REMARK  Name = 
REMARK  6 active torsions:
REMARK  status: ('A' for Active; 'I' for Inactive)
REMARK    1  A    between atoms: C_2  and  C_17
REMARK    2  A    between atoms: N_3  and  C_4
REMARK    3  A    between atoms: N_8  and  C_9
REMARK    4  A    between atoms: C_20  and  C_21
REMARK    5  A    between atoms: C_21  and  O_22
REMARK    6  A    between atoms: O_22  and  C_23
REMARK                            x       y       z     vdW  Elec       q    Type
REMARK                         _______ _______ _______ _____ _____    ______ ____
ROOT
ATOM      1  O   UNL     1       0.910  -0.034  -0.114  0.00  0.00    +0.000 OA
ATOM      2  C   UNL     1       2.135   0.017  -0.038  0.00  0.00    +0.000 C 
ATOM      3  N   UNL     1       2.862  -0.333   1.085  0.00  0.00    +0.000 N 
ATOM      4  H   UNL     1       3.846  -0.060   1.115  0.00  0.00    +0.000 HD
ENDROOT
BRANCH   3   5
ATOM      5  C   UNL     1       2.329  -0.831   2.265  0.00  0.00    +0.000 A 
ATOM      6  C   UNL     1       1.106  -1.371   2.380  0.00  0.00    +0.000 A 
ATOM      7  C   UNL     1       0.582  -1.802   3.641  0.00  0.00    +0.000 A 
ATOM      8  C   UNL     1       1.300  -1.630   4.754  0.00  0.00    +0.000 A 
ATOM      9  N   UNL     1       2.582  -1.094   4.724  0.00  0.00    +0.000 N 
ATOM     10  C   UNL     1       3.193  -0.724   3.507  0.00  0.00    +0.000 A 
ATOM     11  O   UNL     1       4.330  -0.255   3.378  0.00  0.00    +0.000 OA
BRANCH   9  12
ATOM     12  C   UNL     1       3.275  -0.851   5.949  0.00  0.00    +0.000 A 
ATOM     13  C   UNL     1       2.621  -0.186   6.999  0.00  0.00    +0.000 A 
ATOM     14  C   UNL     1       3.300   0.110   8.180  0.00  0.00    +0.000 A 
ATOM     15  C   UNL     1       4.623  -0.296   8.341  0.00  0.00    +0.000 A 
ATOM     16  C   UNL     1       5.269  -0.992   7.319  0.00  0.00    +0.000 A 
ATOM     17  C   UNL     1       4.602  -1.254   6.121  0.00  0.00    +0.000 A 
ENDBRANCH   9  12
ENDBRANCH   3   5
BRANCH   2  18
ATOM     18  C   UNL     1       2.901   0.514  -1.175  0.00  0.00    +0.000 A 
ATOM     19  N   UNL     1       4.235   0.413  -1.303  0.00  0.00    +0.000 NA
ATOM     20  O   UNL     1       4.527   0.932  -2.564  0.00  0.00    +0.000 OA
ATOM     21  C   UNL     1       3.377   1.347  -3.161  0.00  0.00    +0.000 A 
ATOM     22  C   UNL     1       2.325   1.123  -2.315  0.00  0.00    +0.000 A 
BRANCH  21  23
ATOM     23  C   UNL     1       3.457   1.892  -4.531  0.00  0.00    +0.000 C 
BRANCH  23  24
ATOM     24  O   UNL     1       3.606   3.303  -4.404  0.00  0.00    +0.000 OA
BRANCH  24  25
ATOM     25  C   UNL     1       3.650   4.013  -5.573  0.00  0.00    +0.000 A 
ATOM     26  C   UNL     1       3.527   3.479  -6.857  0.00  0.00    +0.000 A 
ATOM     27  C   UNL     1       3.600   4.314  -7.975  0.00  0.00    +0.000 A 
ATOM     28  C   UNL     1       3.796   5.684  -7.814  0.00  0.00    +0.000 A 
ATOM     29  C   UNL     1       3.913   6.223  -6.535  0.00  0.00    +0.000 A 
ATOM     30  C   UNL     1       3.838   5.388  -5.418  0.00  0.00    +0.000 A 
ENDBRANCH  24  25
ENDBRANCH  23  24
ENDBRANCH  21  23
ENDBRANCH   2  18
TORSDOF 6
