REMARK  Name = 
REMARK  5 active torsions:
REMARK  status: ('A' for Active; 'I' for Inactive)
REMARK    1  A    between atoms: C_2  and  C_3
REMARK    2  A    between atoms: C_3  and  C_4
REMARK    3  A    between atoms: C_4  and  C_5
REMARK    4  A    between atoms: N_16  and  C_17
REMARK    5  A    between atoms: N_19  and  C_20
REMARK                            x       y       z     vdW  Elec       q    Type
REMARK                         _______ _______ _______ _____ _____    ______ ____
ROOT
ATOM      1  O   UNL     1       1.794  -0.855  -0.559  0.00  0.00    +0.000 OA
ATOM      2  C   UNL     1       2.898  -0.833  -0.017  0.00  0.00    +0.000 C 
ATOM      3  N   UNL     1       3.682  -1.954   0.223  0.00  0.00    +0.000 N 
ATOM      4  H   UNL     1       4.552  -1.812   0.725  0.00  0.00    +0.000 HD
ENDROOT
BRANCH   3   5
ATOM      5  C   UNL     1       3.494  -3.226  -0.297  0.00  0.00    +0.000 A 
ATOM      6  C   UNL     1       2.556  -3.568  -1.203  0.00  0.00    +0.000 A 
ATOM      7  N   UNL     1       2.813  -4.642  -2.078  0.00  0.00    +0.000 N 
ATOM      8  C   UNL     1       3.420  -5.790  -1.515  0.00  0.00    +0.000 A 
ATOM      9  O   UNL     1       3.382  -6.934  -1.963  0.00  0.00    +0.000 OA
ATOM     10  C   UNL     1       4.251  -5.526  -0.284  0.00  0.00    +0.000 A 
ATOM     11  C   UNL     1       4.519  -4.232   0.004  0.00  0.00    +0.000 A 
BRANCH   7  12
ATOM     12  C   UNL     1       3.389  -4.257  -3.379  0.00  0.00    +0.000 A 
ATOM     13  C   UNL     1       4.078  -5.192  -4.165  0.00  0.00    +0.000 A 
ATOM     14  C   UNL     1       5.218  -4.816  -4.880  0.00  0.00    +0.000 A 
ATOM     15  C   UNL     1       5.618  -3.495  -4.894  0.00  0.00    +0.000 A 
ATOM     16  C   UNL     1       4.773  -2.548  -4.354  0.00  0.00    +0.000 A 
ATOM     17  C   UNL     1       3.626  -2.905  -3.642  0.00  0.00    +0.000 A 
ENDBRANCH   7  12
ENDBRANCH   3   5
BRANCH   2  18
ATOM     18  C   UNL     1       3.454   0.494   0.493  0.00  0.00    +0.000 C 
BRANCH  18  19
ATOM     19  C   UNL     1       4.513   1.208  -0.357  0.00  0.00    +0.000 C 
BRANCH  19  20
ATOM     20  C   UNL     1       4.126   1.579  -1.774  0.00  0.00    +0.000 A 
ATOM     21  C   UNL     1       3.607   2.753  -2.194  0.00  0.00    +0.000 A 
ATOM     22  C   UNL     1       3.328   3.002  -3.622  0.00  0.00    +0.000 A 
ATOM     23  C   UNL     1       2.850   4.226  -4.093  0.00  0.00    +0.000 A 
ATOM     24  C   UNL     1       2.614   4.411  -5.462  0.00  0.00    +0.000 A 
ATOM     25  C   UNL     1       2.845   3.378  -6.370  0.00  0.00    +0.000 A 
ATOM     26  C   UNL     1       3.333   2.158  -5.910  0.00  0.00    +0.000 A 
ATOM     27  C   UNL     1       3.582   1.990  -4.554  0.00  0.00    +0.000 A 
ATOM     28  N   UNL     1       4.130   0.798  -4.094  0.00  0.00    +0.000 N 
ATOM     29  C   UNL     1       4.511   0.576  -2.800  0.00  0.00    +0.000 A 
ATOM     30  O   UNL     1       5.150  -0.411  -2.447  0.00  0.00    +0.000 OA
ATOM     31  H   UNL     1       4.358   0.103  -4.791  0.00  0.00    +0.000 HD
ENDBRANCH  19  20
ENDBRANCH  18  19
ENDBRANCH   2  18
TORSDOF 5
