REMARK  Name = 
REMARK  5 active torsions:
REMARK  status: ('A' for Active; 'I' for Inactive)
REMARK    1  A    between atoms: C_2  and  C_17
REMARK    2  A    between atoms: N_3  and  C_4
REMARK    3  A    between atoms: C_7  and  O_8
REMARK    4  A    between atoms: O_8  and  C_9
REMARK    5  A    between atoms: C_21  and  C_22
REMARK                            x       y       z     vdW  Elec       q    Type
REMARK                         _______ _______ _______ _____ _____    ______ ____
ROOT
ATOM      1  O   UNL     1       1.133  -0.686   0.138  0.00  0.00    +0.000 OA
ATOM      2  C   UNL     1       2.274  -0.257   0.020  0.00  0.00    +0.000 C 
ATOM      3  N   UNL     1       2.860   0.675   0.857  0.00  0.00    +0.000 N 
ATOM      4  H   UNL     1       3.762   1.053   0.583  0.00  0.00    +0.000 HD
ENDROOT
BRANCH   2   5
ATOM      5  C   UNL     1       3.087  -0.713  -1.136  0.00  0.00    +0.000 A 
ATOM      6  C   UNL     1       4.162   0.022  -1.636  0.00  0.00    +0.000 A 
ATOM      7  F   UNL     1       4.548   1.165  -1.045  0.00  0.00    +0.000 F 
ATOM      8  C   UNL     1       4.865  -0.395  -2.766  0.00  0.00    +0.000 A 
ATOM      9  C   UNL     1       4.500  -1.574  -3.428  0.00  0.00    +0.000 A 
ATOM     10  C   UNL     1       3.436  -2.328  -2.921  0.00  0.00    +0.000 A 
ATOM     11  C   UNL     1       2.743  -1.897  -1.790  0.00  0.00    +0.000 A 
ATOM     12  F   UNL     1       1.748  -2.678  -1.347  0.00  0.00    +0.000 F 
BRANCH   9  13
ATOM     13  C   UNL     1       5.202  -2.009  -4.624  0.00  0.00    +0.000 A 
ATOM     14  N   UNL     1       6.230  -1.351  -5.187  0.00  0.00    +0.000 NA
ATOM     15  N   UNL     1       6.475  -2.152  -6.237  0.00  0.00    +0.000 N 
ATOM     16  N   UNL     1       5.690  -3.229  -6.348  0.00  0.00    +0.000 NA
ATOM     17  N   UNL     1       4.865  -3.149  -5.316  0.00  0.00    +0.000 NA
ATOM     18  H   UNL     1       7.210  -1.956  -6.909  0.00  0.00    +0.000 HD
ENDBRANCH   9  13
ENDBRANCH   2   5
BRANCH   3  19
ATOM     19  C   UNL     1       2.249   1.287   1.971  0.00  0.00    +0.000 A 
ATOM     20  C   UNL     1       1.077   0.835   2.575  0.00  0.00    +0.000 A 
ATOM     21  C   UNL     1       0.547   1.523   3.667  0.00  0.00    +0.000 A 
ATOM     22  C   UNL     1       1.222   2.640   4.127  0.00  0.00    +0.000 A 
ATOM     23  N   UNL     1       2.350   3.120   3.554  0.00  0.00    +0.000 NA
ATOM     24  C   UNL     1       2.845   2.423   2.510  0.00  0.00    +0.000 A 
BRANCH  22  25
ATOM     25  O   UNL     1       0.704   3.275   5.247  0.00  0.00    +0.000 OA
BRANCH  25  26
ATOM     26  C   UNL     1       1.611   3.869   6.096  0.00  0.00    +0.000 A 
ATOM     27  C   UNL     1       1.236   5.079   6.681  0.00  0.00    +0.000 A 
ATOM     28  C   UNL     1       2.122   5.734   7.536  0.00  0.00    +0.000 A 
ATOM     29  C   UNL     1       3.374   5.180   7.816  0.00  0.00    +0.000 A 
ATOM     30  C   UNL     1       3.732   3.954   7.260  0.00  0.00    +0.000 A 
ATOM     31  C   UNL     1       2.843   3.288   6.421  0.00  0.00    +0.000 A 
ENDBRANCH  25  26
ENDBRANCH  22  25
ENDBRANCH   3  19
TORSDOF 5
