REMARK  Name = 
REMARK  7 active torsions:
REMARK  status: ('A' for Active; 'I' for Inactive)
REMARK    1  A    between atoms: C_1  and  O_2
REMARK    2  A    between atoms: O_2  and  C_3
REMARK    3  A    between atoms: C_10  and  C_11
REMARK    4  A    between atoms: N_13  and  C_14
REMARK    5  A    between atoms: C_17  and  N_18
REMARK    6  A    between atoms: C_19  and  C_21
REMARK    7  A    between atoms: C_23  and  O_24
REMARK                            x       y       z     vdW  Elec       q    Type
REMARK                         _______ _______ _______ _____ _____    ______ ____
ROOT
ATOM      1  C   UNL     1       7.331   3.531   3.812  0.00  0.00    +0.000 A 
ATOM      2  C   UNL     1       8.717   3.437   3.815  0.00  0.00    +0.000 A 
ATOM      3  C   UNL     1       9.489   4.488   4.317  0.00  0.00    +0.000 A 
ATOM      4  C   UNL     1       8.858   5.629   4.799  0.00  0.00    +0.000 A 
ATOM      5  N   UNL     1       7.522   5.761   4.761  0.00  0.00    +0.000 NA
ATOM      6  C   UNL     1       6.793   4.730   4.267  0.00  0.00    +0.000 A 
ENDROOT
BRANCH   1   9
ATOM      7  C   UNL     1       6.819   1.173   3.166  0.00  0.00    +0.000 C 
ATOM      8  O   UNL     1       7.932   0.701   3.373  0.00  0.00    +0.000 OA
ATOM      9  N   UNL     1       6.470   2.497   3.380  0.00  0.00    +0.000 N 
ATOM     10  H   UNL     1       5.488   2.725   3.326  0.00  0.00    +0.000 HD
BRANCH   7  18
ATOM     11  C   UNL     1       4.506  -2.962   1.678  0.00  0.00    +0.000 A 
ATOM     12  C   UNL     1       3.219  -3.238   1.191  0.00  0.00    +0.000 A 
ATOM     13  C   UNL     1       2.255  -2.240   1.063  0.00  0.00    +0.000 A 
ATOM     14  C   UNL     1       2.540  -0.921   1.417  0.00  0.00    +0.000 A 
ATOM     15  C   UNL     1       3.822  -0.608   1.899  0.00  0.00    +0.000 A 
ATOM     16  C   UNL     1       4.767  -1.623   2.017  0.00  0.00    +0.000 A 
ATOM     17  N   UNL     1       5.913  -1.032   2.502  0.00  0.00    +0.000 N 
ATOM     18  C   UNL     1       5.740   0.327   2.690  0.00  0.00    +0.000 A 
ATOM     19  C   UNL     1       4.435   0.600   2.324  0.00  0.00    +0.000 A 
ATOM     20  H   UNL     1       6.779  -1.524   2.683  0.00  0.00    +0.000 HD
BRANCH  11  22
ATOM     21  C   UNL     1       5.184  -5.231   1.540  0.00  0.00    +0.000 C 
ATOM     22  O   UNL     1       5.511  -3.876   1.840  0.00  0.00    +0.000 OA
ENDBRANCH  11  22
ENDBRANCH   7  18
ENDBRANCH   1   9
BRANCH   4  23
ATOM     23  N   UNL     1       9.671   6.624   5.363  0.00  0.00    +0.000 N 
ATOM     24  C   UNL     1       9.214   7.824   5.869  0.00  0.00    +0.000 C 
ATOM     25  O   UNL     1       8.076   8.273   5.796  0.00  0.00    +0.000 OA
ATOM     26  H   UNL     1      10.662   6.442   5.375  0.00  0.00    +0.000 HD
BRANCH  24  27
ATOM     27  C   UNL     1      10.240   8.669   6.550  0.00  0.00    +0.000 A 
ATOM     28  C   UNL     1      10.065  10.060   6.525  0.00  0.00    +0.000 A 
ATOM     29  C   UNL     1      10.958  10.879   7.208  0.00  0.00    +0.000 A 
ATOM     30  C   UNL     1      12.025  10.336   7.913  0.00  0.00    +0.000 A 
ATOM     31  C   UNL     1      12.204   8.953   7.944  0.00  0.00    +0.000 A 
ATOM     32  C   UNL     1      11.312   8.116   7.268  0.00  0.00    +0.000 A 
BRANCH  29  33
ATOM     33  O   UNL     1      10.809  12.234   7.224  0.00  0.00    +0.000 OA
ATOM     34  H   UNL     1       9.977  12.460   6.773  0.00  0.00    +0.000 HD
ENDBRANCH  29  33
ENDBRANCH  24  27
ENDBRANCH   4  23
TORSDOF 6
