REMARK  Name = 
REMARK  8 active torsions:
REMARK  status: ('A' for Active; 'I' for Inactive)
REMARK    1  A    between atoms: N_3  and  C_4
REMARK    2  A    between atoms: C_4  and  C_5
REMARK    3  A    between atoms: C_9  and  C_10
REMARK    4  A    between atoms: C_10  and  O_12
REMARK    5  A    between atoms: O_12  and  C_13
REMARK    6  A    between atoms: C_13  and  C_14
REMARK    7  A    between atoms: N_21  and  C_22
REMARK    8  A    between atoms: C_22  and  C_23
REMARK                            x       y       z     vdW  Elec       q    Type
REMARK                         _______ _______ _______ _____ _____    ______ ____
ROOT
ATOM      1  O   UNL     1       0.268   0.098  -0.877  0.00  0.00    +0.000 OA
ATOM      2  C   UNL     1       0.306   0.389  -2.067  0.00  0.00    +0.000 C 
ATOM      3  N   UNL     1       1.267   1.190  -2.632  0.00  0.00    +0.000 N 
ATOM      4  N   UNL     1      -0.602  -0.057  -2.988  0.00  0.00    +0.000 N 
ATOM      5  H   UNL     1       1.452   1.046  -3.613  0.00  0.00    +0.000 HD
ATOM      6  H   UNL     1      -0.664   0.441  -3.863  0.00  0.00    +0.000 HD
ENDROOT
BRANCH   3   7
ATOM      7  C   UNL     1       2.355   1.681  -1.817  0.00  0.00    +0.000 C 
BRANCH   7   8
ATOM      8  C   UNL     1       3.311   2.549  -2.600  0.00  0.00    +0.000 A 
ATOM      9  C   UNL     1       3.090   3.928  -2.717  0.00  0.00    +0.000 A 
ATOM     10  C   UNL     1       3.988   4.737  -3.419  0.00  0.00    +0.000 A 
ATOM     11  C   UNL     1       5.128   4.183  -4.003  0.00  0.00    +0.000 A 
ATOM     12  C   UNL     1       5.374   2.809  -3.892  0.00  0.00    +0.000 A 
ATOM     13  C   UNL     1       4.450   1.996  -3.211  0.00  0.00    +0.000 A 
BRANCH  12  14
ATOM     14  C   UNL     1       6.610   2.176  -4.433  0.00  0.00    +0.000 C 
ATOM     15  O   UNL     1       6.816   0.973  -4.371  0.00  0.00    +0.000 OA
BRANCH  14  16
ATOM     16  O   UNL     1       7.457   3.108  -4.933  0.00  0.00    +0.000 OA
BRANCH  16  17
ATOM     17  C   UNL     1       8.737   2.627  -5.367  0.00  0.00    +0.000 C 
BRANCH  17  18
ATOM     18  C   UNL     1       8.934   2.948  -6.827  0.00  0.00    +0.000 A 
ATOM     19  C   UNL     1       9.513   4.159  -7.232  0.00  0.00    +0.000 A 
ATOM     20  C   UNL     1       9.712   4.428  -8.588  0.00  0.00    +0.000 A 
ATOM     21  C   UNL     1       9.329   3.495  -9.550  0.00  0.00    +0.000 A 
ATOM     22  C   UNL     1       8.739   2.295  -9.159  0.00  0.00    +0.000 A 
ATOM     23  C   UNL     1       8.537   2.025  -7.804  0.00  0.00    +0.000 A 
ENDBRANCH  17  18
ENDBRANCH  16  17
ENDBRANCH  14  16
ENDBRANCH  12  14
ENDBRANCH   7   8
ENDBRANCH   3   7
BRANCH   4  24
ATOM     24  C   UNL     1      -1.753  -0.861  -2.617  0.00  0.00    +0.000 C 
BRANCH  24  25
ATOM     25  C   UNL     1      -2.973  -0.048  -2.207  0.00  0.00    +0.000 A 
ATOM     26  C   UNL     1      -3.172   0.238  -0.852  0.00  0.00    +0.000 A 
ATOM     27  C   UNL     1      -4.313   0.937  -0.445  0.00  0.00    +0.000 A 
ATOM     28  C   UNL     1      -5.220   1.327  -1.436  0.00  0.00    +0.000 A 
ATOM     29  C   UNL     1      -6.465   2.017  -1.464  0.00  0.00    +0.000 A 
ATOM     30  C   UNL     1      -6.873   2.086  -2.780  0.00  0.00    +0.000 A 
ATOM     31  N   UNL     1      -5.920   1.466  -3.546  0.00  0.00    +0.000 N 
ATOM     32  C   UNL     1      -4.907   0.996  -2.751  0.00  0.00    +0.000 A 
ATOM     33  N   UNL     1      -3.825   0.332  -3.199  0.00  0.00    +0.000 NA
ATOM     34  H   UNL     1      -5.938   1.352  -4.549  0.00  0.00    +0.000 HD
ENDBRANCH  24  25
ENDBRANCH   4  24
TORSDOF 8
