REMARK  Name = 
REMARK  7 active torsions:
REMARK  status: ('A' for Active; 'I' for Inactive)
REMARK    1  A    between atoms: C_1  and  N_2
REMARK    2  A    between atoms: C_8  and  C_9
REMARK    3  A    between atoms: C_9  and  N_10
REMARK    4  A    between atoms: N_10  and  C_11
REMARK    5  A    between atoms: C_15  and  C_16
REMARK    6  A    between atoms: C_16  and  S_17
REMARK    7  A    between atoms: S_17  and  C_20
REMARK                            x       y       z     vdW  Elec       q    Type
REMARK                         _______ _______ _______ _____ _____    ______ ____
ROOT
ATOM      1  C   UNL     1       6.806  -6.424   0.115  0.00  0.00    +0.000 A 
ATOM      2  C   UNL     1       7.908  -6.537   0.969  0.00  0.00    +0.000 A 
ATOM      3  C   UNL     1       8.813  -7.590   0.820  0.00  0.00    +0.000 A 
ATOM      4  C   UNL     1       8.617  -8.551  -0.176  0.00  0.00    +0.000 A 
ATOM      5  C   UNL     1       7.501  -8.484  -1.019  0.00  0.00    +0.000 A 
ATOM      6  C   UNL     1       6.591  -7.433  -0.835  0.00  0.00    +0.000 A 
ENDROOT
BRANCH   1   7
ATOM      7  N   UNL     1       5.915  -5.348   0.297  0.00  0.00    +0.000 N 
ATOM      8  H   UNL     1       5.269  -5.589   1.049  0.00  0.00    +0.000 HD
BRANCH   7   9
ATOM      9  C   UNL     1       5.172  -4.943  -0.898  0.00  0.00    +0.000 C 
BRANCH   9  17
ATOM     10  C   UNL     1       2.879   1.359  -0.679  0.00  0.00    +0.000 C 
ATOM     11  N   UNL     1       4.060   0.547  -0.657  0.00  0.00    +0.000 N 
ATOM     12  C   UNL     1       5.361   0.982  -0.509  0.00  0.00    +0.000 A 
ATOM     13  O   UNL     1       5.725   2.143  -0.380  0.00  0.00    +0.000 OA
ATOM     14  O   UNL     1       6.256  -0.100  -0.523  0.00  0.00    +0.000 OA
ATOM     15  C   UNL     1       5.409  -1.187  -0.661  0.00  0.00    +0.000 A 
ATOM     16  C   UNL     1       5.796  -2.508  -0.700  0.00  0.00    +0.000 A 
ATOM     17  C   UNL     1       4.790  -3.485  -0.817  0.00  0.00    +0.000 A 
ATOM     18  C   UNL     1       3.433  -3.092  -0.921  0.00  0.00    +0.000 A 
ATOM     19  C   UNL     1       3.067  -1.743  -0.887  0.00  0.00    +0.000 A 
ATOM     20  C   UNL     1       4.082  -0.823  -0.749  0.00  0.00    +0.000 A 
ENDBRANCH   9  17
ENDBRANCH   7   9
ENDBRANCH   1   7
BRANCH   5  21
ATOM     21  C   UNL     1       7.345  -9.448  -2.173  0.00  0.00    +0.000 C 
BRANCH  21  22
ATOM     22  S   UNL     1       5.843 -10.410  -2.028  0.00  0.00    +0.000 S 
ATOM     23  O   UNL     1       5.891 -11.153  -0.784  0.00  0.00    +0.000 OA
ATOM     24  O   UNL     1       4.684  -9.595  -2.358  0.00  0.00    +0.000 OA
BRANCH  22  25
ATOM     25  C   UNL     1       5.982 -11.619  -3.325  0.00  0.00    +0.000 A 
ATOM     26  C   UNL     1       6.001 -12.985  -3.016  0.00  0.00    +0.000 A 
ATOM     27  C   UNL     1       6.098 -13.921  -4.049  0.00  0.00    +0.000 A 
ATOM     28  C   UNL     1       6.161 -13.486  -5.370  0.00  0.00    +0.000 A 
ATOM     29  F   UNL     1       6.256 -14.389  -6.355  0.00  0.00    +0.000 F 
ATOM     30  C   UNL     1       6.132 -12.132  -5.683  0.00  0.00    +0.000 A 
ATOM     31  C   UNL     1       6.046 -11.201  -4.651  0.00  0.00    +0.000 A 
ATOM     32  F   UNL     1       6.046  -9.898  -4.962  0.00  0.00    +0.000 F 
ENDBRANCH  22  25
ENDBRANCH  21  22
ENDBRANCH   5  21
TORSDOF 6
