REMARK  Name = 
REMARK  8 active torsions:
REMARK  status: ('A' for Active; 'I' for Inactive)
REMARK    1  A    between atoms: C_2  and  C_20
REMARK    2  A    between atoms: N_3  and  C_4
REMARK    3  A    between atoms: C_4  and  C_5
REMARK    4  A    between atoms: C_4  and  C_8
REMARK    5  A    between atoms: C_5  and  C_6
REMARK    6  A    between atoms: C_6  and  O_7
REMARK    7  A    between atoms: C_11  and  C_12
REMARK    8  A    between atoms: C_28  and  O_29
REMARK                            x       y       z     vdW  Elec       q    Type
REMARK                         _______ _______ _______ _____ _____    ______ ____
ROOT
ATOM      1  C   UNL     1       2.215   0.868  -2.215  0.00  0.00    +0.000 C 
ENDROOT
BRANCH   1   2
ATOM      2  C   UNL     1       3.226   1.219  -3.311  0.00  0.00    +0.000 A 
ATOM      3  C   UNL     1       4.608   1.124  -3.120  0.00  0.00    +0.000 A 
ATOM      4  C   UNL     1       5.508   1.463  -4.137  0.00  0.00    +0.000 A 
ATOM      5  C   UNL     1       5.069   1.888  -5.400  0.00  0.00    +0.000 A 
ATOM      6  C   UNL     1       3.681   1.964  -5.596  0.00  0.00    +0.000 A 
ATOM      7  C   UNL     1       2.777   1.637  -4.575  0.00  0.00    +0.000 A 
BRANCH   5   8
ATOM      8  C   UNL     1       6.034   2.230  -6.469  0.00  0.00    +0.000 A 
ATOM      9  C   UNL     1       7.283   1.584  -6.565  0.00  0.00    +0.000 A 
ATOM     10  C   UNL     1       8.206   1.921  -7.558  0.00  0.00    +0.000 A 
ATOM     11  C   UNL     1       7.899   2.902  -8.491  0.00  0.00    +0.000 A 
ATOM     12  C   UNL     1       6.670   3.552  -8.428  0.00  0.00    +0.000 A 
ATOM     13  C   UNL     1       5.753   3.224  -7.425  0.00  0.00    +0.000 A 
ENDBRANCH   5   8
ENDBRANCH   1   2
BRANCH   1  16
ATOM     14  O   UNL     1       2.046  -1.739  -1.026  0.00  0.00    +0.000 OA
ATOM     15  C   UNL     1       2.776  -0.884  -0.529  0.00  0.00    +0.000 C 
ATOM     16  N   UNL     1       2.878   0.407  -0.999  0.00  0.00    +0.000 N 
ATOM     17  H   UNL     1       3.571   0.997  -0.546  0.00  0.00    +0.000 HD
BRANCH  15  18
ATOM     18  C   UNL     1       3.619  -1.199   0.669  0.00  0.00    +0.000 A 
ATOM     19  C   UNL     1       3.547  -2.459   1.249  0.00  0.00    +0.000 A 
ATOM     20  C   UNL     1       4.322  -2.727   2.382  0.00  0.00    +0.000 A 
ATOM     21  C   UNL     1       4.288  -3.981   3.009  0.00  0.00    +0.000 A 
ATOM     22  C   UNL     1       5.077  -4.192   4.128  0.00  0.00    +0.000 A 
ATOM     23  N   UNL     1       5.872  -3.249   4.667  0.00  0.00    +0.000 NA
ATOM     24  C   UNL     1       5.886  -2.042   4.054  0.00  0.00    +0.000 A 
ATOM     25  C   UNL     1       5.150  -1.714   2.901  0.00  0.00    +0.000 A 
ATOM     26  C   UNL     1       5.155  -0.477   2.220  0.00  0.00    +0.000 A 
ATOM     27  N   UNL     1       4.413  -0.198   1.130  0.00  0.00    +0.000 NA
BRANCH  26  28
ATOM     28  O   UNL     1       5.929   0.578   2.605  0.00  0.00    +0.000 OA
ATOM     29  H   UNL     1       6.590   0.288   3.248  0.00  0.00    +0.000 HD
ENDBRANCH  26  28
ENDBRANCH  15  18
ENDBRANCH   1  16
BRANCH   1  30
ATOM     30  C   UNL     1       1.304   2.071  -1.906  0.00  0.00    +0.000 C 
BRANCH  30  31
ATOM     31  C   UNL     1       0.221   1.787  -0.871  0.00  0.00    +0.000 C 
BRANCH  31  32
ATOM     32  O   UNL     1      -0.571   2.961  -0.691  0.00  0.00    +0.000 OA
ATOM     33  H   UNL     1      -0.004   3.633  -0.275  0.00  0.00    +0.000 HD
ENDBRANCH  31  32
ENDBRANCH  30  31
ENDBRANCH   1  30
TORSDOF 8
