REMARK  Name = 
REMARK  9 active torsions:
REMARK  status: ('A' for Active; 'I' for Inactive)
REMARK    1  A    between atoms: C_1  and  C_2
REMARK    2  A    between atoms: C_2  and  N_3
REMARK    3  A    between atoms: C_4  and  C_6
REMARK    4  A    between atoms: C_6  and  C_7
REMARK    5  A    between atoms: C_10  and  N_11
REMARK    6  A    between atoms: N_14  and  C_15
REMARK    7  A    between atoms: C_15  and  C_16
REMARK    8  A    between atoms: C_18  and  O_19
REMARK    9  A    between atoms: O_19  and  C_20
REMARK                            x       y       z     vdW  Elec       q    Type
REMARK                         _______ _______ _______ _____ _____    ______ ____
ROOT
ATOM      1  N   UNL     1      10.603  -2.940  -0.154  0.00  0.00    +0.000 N 
ATOM      2  C   UNL     1      11.417  -1.845  -0.057  0.00  0.00    +0.000 C 
ATOM      3  O   UNL     1      11.082  -0.661   0.043  0.00  0.00    +0.000 OA
ATOM      4  N   UNL     1      12.752  -2.097  -0.066  0.00  0.00    +0.000 N 
ATOM      5  H   UNL     1      11.033  -3.813  -0.422  0.00  0.00    +0.000 HD
ATOM      6  H   UNL     1      13.307  -1.245  -0.102  0.00  0.00    +0.000 HD
ENDROOT
BRANCH   1  10
ATOM      7  C   UNL     1       6.393  -3.053  -0.178  0.00  0.00    +0.000 A 
ATOM      8  C   UNL     1       7.060  -1.846   0.035  0.00  0.00    +0.000 A 
ATOM      9  C   UNL     1       8.447  -1.803   0.079  0.00  0.00    +0.000 A 
ATOM     10  C   UNL     1       9.200  -2.957  -0.118  0.00  0.00    +0.000 A 
ATOM     11  C   UNL     1       8.539  -4.177  -0.309  0.00  0.00    +0.000 A 
ATOM     12  C   UNL     1       7.139  -4.228  -0.337  0.00  0.00    +0.000 A 
BRANCH   7  13
ATOM     13  C   UNL     1       4.889  -3.045  -0.236  0.00  0.00    +0.000 C 
BRANCH  13  15
ATOM     14  N   UNL     1       5.037  -2.631  -2.693  0.00  0.00    +0.000 N 
ATOM     15  C   UNL     1       4.236  -2.776  -1.581  0.00  0.00    +0.000 C 
ATOM     16  O   UNL     1       3.009  -2.693  -1.658  0.00  0.00    +0.000 OA
ATOM     17  H   UNL     1       6.043  -2.731  -2.616  0.00  0.00    +0.000 HD
BRANCH  14  19
ATOM     18  C   UNL     1       5.432  -2.234  -5.109  0.00  0.00    +0.000 C 
ATOM     19  C   UNL     1       4.428  -2.378  -3.982  0.00  0.00    +0.000 C 
ENDBRANCH  14  19
ENDBRANCH  13  15
ENDBRANCH   7  13
ENDBRANCH   1  10
BRANCH   4  20
ATOM     20  C   UNL     1      13.397  -3.374  -0.220  0.00  0.00    +0.000 C 
BRANCH  20  21
ATOM     21  C   UNL     1      13.500  -3.764  -1.674  0.00  0.00    +0.000 A 
ATOM     22  C   UNL     1      14.338  -3.032  -2.507  0.00  0.00    +0.000 A 
ATOM     23  C   UNL     1      14.426  -3.384  -3.848  0.00  0.00    +0.000 A 
ATOM     24  C   UNL     1      13.718  -4.486  -4.309  0.00  0.00    +0.000 A 
ATOM     25  C   UNL     1      12.889  -5.148  -3.419  0.00  0.00    +0.000 A 
ATOM     26  N   UNL     1      12.746  -4.801  -2.118  0.00  0.00    +0.000 NA
BRANCH  23  27
ATOM     27  O   UNL     1      15.238  -2.743  -4.756  0.00  0.00    +0.000 OA
BRANCH  27  28
ATOM     28  C   UNL     1      15.461  -1.389  -4.629  0.00  0.00    +0.000 A 
ATOM     29  C   UNL     1      14.483  -0.475  -4.209  0.00  0.00    +0.000 A 
ATOM     30  C   UNL     1      14.790   0.883  -4.109  0.00  0.00    +0.000 A 
ATOM     31  C   UNL     1      16.058   1.326  -4.470  0.00  0.00    +0.000 A 
ATOM     32  F   UNL     1      16.344   2.632  -4.384  0.00  0.00    +0.000 F 
ATOM     33  C   UNL     1      17.015   0.426  -4.924  0.00  0.00    +0.000 A 
ATOM     34  F   UNL     1      18.232   0.861  -5.280  0.00  0.00    +0.000 F 
ATOM     35  C   UNL     1      16.725  -0.932  -5.008  0.00  0.00    +0.000 A 
ENDBRANCH  27  28
ENDBRANCH  23  27
ENDBRANCH  20  21
ENDBRANCH   4  20
TORSDOF 8
