REMARK  Name = 
REMARK  6 active torsions:
REMARK  status: ('A' for Active; 'I' for Inactive)
REMARK    1  A    between atoms: C_2  and  C_20
REMARK    2  A    between atoms: N_3  and  C_4
REMARK    3  A    between atoms: C_4  and  C_5
REMARK    4  A    between atoms: C_4  and  C_14
REMARK    5  A    between atoms: C_5  and  C_7
REMARK    6  A    between atoms: C_7  and  C_8
REMARK                            x       y       z     vdW  Elec       q    Type
REMARK                         _______ _______ _______ _____ _____    ______ ____
ROOT
ATOM      1  O   UNL     1       2.953   1.540  -1.867  0.00  0.00    +0.000 OA
ATOM      2  C   UNL     1       3.299   0.783  -0.963  0.00  0.00    +0.000 C 
ATOM      3  N   UNL     1       3.067   1.052   0.371  0.00  0.00    +0.000 N 
ATOM      4  H   UNL     1       3.467   0.407   1.046  0.00  0.00    +0.000 HD
ENDROOT
BRANCH   2   5
ATOM      5  C   UNL     1       3.988  -0.514  -1.266  0.00  0.00    +0.000 A 
ATOM      6  C   UNL     1       4.311  -0.809  -2.592  0.00  0.00    +0.000 A 
ATOM      7  C   UNL     1       4.912  -2.032  -2.879  0.00  0.00    +0.000 A 
ATOM      8  C   UNL     1       5.161  -2.916  -1.832  0.00  0.00    +0.000 A 
ATOM      9  C   UNL     1       5.782  -4.238  -2.068  0.00  0.00    +0.000 A 
ATOM     10  O   UNL     1       6.114  -4.603  -3.192  0.00  0.00    +0.000 OA
ATOM     11  N   UNL     1       5.961  -5.032  -0.954  0.00  0.00    +0.000 N 
ATOM     12  C   UNL     1       5.605  -4.667   0.319  0.00  0.00    +0.000 A 
ATOM     13  C   UNL     1       5.046  -3.477   0.570  0.00  0.00    +0.000 A 
ATOM     14  C   UNL     1       4.807  -2.547  -0.533  0.00  0.00    +0.000 A 
ATOM     15  N   UNL     1       4.226  -1.357  -0.217  0.00  0.00    +0.000 NA
ATOM     16  H   UNL     1       6.385  -5.937  -1.125  0.00  0.00    +0.000 HD
ENDBRANCH   2   5
BRANCH   3  17
ATOM     17  C   UNL     1       2.425   2.289   0.817  0.00  0.00    +0.000 C 
BRANCH  17  18
ATOM     18  C   UNL     1       3.415   3.420   1.064  0.00  0.00    +0.000 A 
ATOM     19  C   UNL     1       3.024   4.744   0.796  0.00  0.00    +0.000 A 
ATOM     20  C   UNL     1       3.830   5.819   1.177  0.00  0.00    +0.000 A 
ATOM     21  C   UNL     1       5.041   5.585   1.823  0.00  0.00    +0.000 A 
ATOM     22  C   UNL     1       5.457   4.279   2.070  0.00  0.00    +0.000 A 
ATOM     23  C   UNL     1       4.651   3.201   1.693  0.00  0.00    +0.000 A 
ENDBRANCH  17  18
BRANCH  17  24
ATOM     24  C   UNL     1       1.567   2.025   2.076  0.00  0.00    +0.000 C 
ATOM     25  O   UNL     1       1.753   2.593   3.157  0.00  0.00    +0.000 OA
BRANCH  24  26
ATOM     26  C   UNL     1       0.406   1.065   1.932  0.00  0.00    +0.000 C 
BRANCH  26  27
ATOM     27  C   UNL     1      -0.894   1.724   1.546  0.00  0.00    +0.000 A 
ATOM     28  C   UNL     1      -1.572   1.317   0.389  0.00  0.00    +0.000 A 
ATOM     29  C   UNL     1      -2.826   1.846   0.079  0.00  0.00    +0.000 A 
ATOM     30  C   UNL     1      -3.414   2.791   0.917  0.00  0.00    +0.000 A 
ATOM     31  C   UNL     1      -2.740   3.221   2.058  0.00  0.00    +0.000 A 
ATOM     32  C   UNL     1      -1.487   2.691   2.372  0.00  0.00    +0.000 A 
ENDBRANCH  26  27
ENDBRANCH  24  26
ENDBRANCH  17  24
ENDBRANCH   3  17
TORSDOF 6
