REMARK  Name = 
REMARK  6 active torsions:
REMARK  status: ('A' for Active; 'I' for Inactive)
REMARK    1  A    between atoms: C_2  and  C_3
REMARK    2  A    between atoms: C_5  and  O_6
REMARK    3  A    between atoms: O_6  and  C_7
REMARK    4  A    between atoms: C_10  and  N_11
REMARK    5  A    between atoms: N_14  and  C_15
REMARK    6  A    between atoms: C_15  and  C_16
REMARK                            x       y       z     vdW  Elec       q    Type
REMARK                         _______ _______ _______ _____ _____    ______ ____
ROOT
ATOM      1  N   UNL     1      -0.815  -7.309  -0.310  0.00  0.00    +0.000 N 
ATOM      2  C   UNL     1      -1.679  -7.666  -1.321  0.00  0.00    +0.000 C 
ATOM      3  O   UNL     1      -1.903  -7.005  -2.328  0.00  0.00    +0.000 OA
ATOM      4  N   UNL     1      -2.295  -8.885  -1.138  0.00  0.00    +0.000 N 
ATOM      5  H   UNL     1      -0.733  -7.951   0.467  0.00  0.00    +0.000 HD
ATOM      6  H   UNL     1      -2.281  -9.401  -0.268  0.00  0.00    +0.000 HD
ENDROOT
BRANCH   1  10
ATOM      7  C   UNL     1       1.460  -3.805   0.065  0.00  0.00    +0.000 A 
ATOM      8  C   UNL     1       0.714  -3.959  -1.088  0.00  0.00    +0.000 A 
ATOM      9  C   UNL     1      -0.048  -5.124  -1.241  0.00  0.00    +0.000 A 
ATOM     10  C   UNL     1      -0.043  -6.112  -0.256  0.00  0.00    +0.000 A 
ATOM     11  C   UNL     1       0.786  -5.872   0.843  0.00  0.00    +0.000 A 
ATOM     12  N   UNL     1       1.539  -4.755   1.025  0.00  0.00    +0.000 NA
BRANCH   7  13
ATOM     13  O   UNL     1       2.167  -2.614   0.199  0.00  0.00    +0.000 OA
BRANCH  13  16
ATOM     14  C   UNL     1       1.767  -1.727   3.778  0.00  0.00    +0.000 A 
ATOM     15  C   UNL     1       1.468  -2.246   2.515  0.00  0.00    +0.000 A 
ATOM     16  C   UNL     1       2.384  -2.119   1.467  0.00  0.00    +0.000 A 
ATOM     17  C   UNL     1       3.563  -1.396   1.665  0.00  0.00    +0.000 A 
ATOM     18  C   UNL     1       3.856  -0.857   2.922  0.00  0.00    +0.000 A 
ATOM     19  C   UNL     1       2.964  -1.034   3.982  0.00  0.00    +0.000 A 
BRANCH  14  21
ATOM     20  N   UNL     1       0.105  -2.083   5.737  0.00  0.00    +0.000 NA
ATOM     21  C   UNL     1       0.850  -1.918   4.861  0.00  0.00    +0.000 C 
ENDBRANCH  14  21
ENDBRANCH  13  16
ENDBRANCH   7  13
ENDBRANCH   1  10
BRANCH   4  22
ATOM     22  C   UNL     1      -3.236  -9.308  -2.154  0.00  0.00    +0.000 C 
BRANCH  22  23
ATOM     23  C   UNL     1      -3.872 -10.630  -1.871  0.00  0.00    +0.000 A 
ATOM     24  C   UNL     1      -4.781 -11.300  -2.674  0.00  0.00    +0.000 A 
ATOM     25  N   UNL     1      -5.077 -12.468  -2.021  0.00  0.00    +0.000 N 
ATOM     26  C   UNL     1      -5.925 -13.508  -2.397  0.00  0.00    +0.000 A 
ATOM     27  C   UNL     1      -6.044 -14.564  -1.578  0.00  0.00    +0.000 A 
ATOM     28  F   UNL     1      -6.844 -15.601  -1.887  0.00  0.00    +0.000 F 
ATOM     29  C   UNL     1      -5.299 -14.600  -0.334  0.00  0.00    +0.000 A 
ATOM     30  C   UNL     1      -4.483 -13.587   0.020  0.00  0.00    +0.000 A 
ATOM     31  C   UNL     1      -4.341 -12.457  -0.838  0.00  0.00    +0.000 A 
ATOM     32  N   UNL     1      -3.617 -11.360  -0.726  0.00  0.00    +0.000 NA
ENDBRANCH  22  23
ENDBRANCH   4  22
TORSDOF 6
