REMARK  Name = 
REMARK  5 active torsions:
REMARK  status: ('A' for Active; 'I' for Inactive)
REMARK    1  A    between atoms: C_2  and  C_17
REMARK    2  A    between atoms: N_3  and  C_4
REMARK    3  A    between atoms: C_4  and  C_5
REMARK    4  A    between atoms: C_8  and  C_9
REMARK    5  A    between atoms: C_21  and  C_22
REMARK                            x       y       z     vdW  Elec       q    Type
REMARK                         _______ _______ _______ _____ _____    ______ ____
ROOT
ATOM      1  O   UNL     1       1.020  -0.249  -0.092  0.00  0.00    +0.000 OA
ATOM      2  C   UNL     1       2.250  -0.186  -0.084  0.00  0.00    +0.000 C 
ATOM      3  N   UNL     1       2.991  -0.582  -1.172  0.00  0.00    +0.000 N 
ATOM      4  H   UNL     1       4.000  -0.630  -1.079  0.00  0.00    +0.000 HD
ENDROOT
BRANCH   2   5
ATOM      5  C   UNL     1       2.996   0.379   1.039  0.00  0.00    +0.000 A 
ATOM      6  N   UNL     1       4.256   0.003   1.314  0.00  0.00    +0.000 NA
ATOM      7  O   UNL     1       4.605   0.675   2.476  0.00  0.00    +0.000 OA
ATOM      8  C   UNL     1       3.584   1.484   2.856  0.00  0.00    +0.000 A 
ATOM      9  C   UNL     1       2.538   1.362   1.976  0.00  0.00    +0.000 A 
BRANCH   9  10
ATOM     10  C   UNL     1       1.287   2.100   2.053  0.00  0.00    +0.000 A 
ATOM     11  C   UNL     1       0.608   2.473   0.880  0.00  0.00    +0.000 A 
ATOM     12  C   UNL     1      -0.646   3.082   0.941  0.00  0.00    +0.000 A 
ATOM     13  C   UNL     1      -1.211   3.363   2.177  0.00  0.00    +0.000 A 
ATOM     14  F   UNL     1      -2.415   3.942   2.236  0.00  0.00    +0.000 F 
ATOM     15  C   UNL     1      -0.542   3.050   3.353  0.00  0.00    +0.000 A 
ATOM     16  C   UNL     1       0.699   2.423   3.283  0.00  0.00    +0.000 A 
ATOM     17  F   UNL     1       1.314   2.118   4.436  0.00  0.00    +0.000 F 
ENDBRANCH   9  10
ENDBRANCH   2   5
BRANCH   3  18
ATOM     18  C   UNL     1       2.337  -1.129  -2.346  0.00  0.00    +0.000 C 
BRANCH  18  19
ATOM     19  C   UNL     1       2.090  -2.589  -2.195  0.00  0.00    +0.000 A 
ATOM     20  N   UNL     1       3.077  -3.489  -2.069  0.00  0.00    +0.000 NA
ATOM     21  O   UNL     1       2.388  -4.700  -1.937  0.00  0.00    +0.000 OA
ATOM     22  C   UNL     1       1.054  -4.403  -2.013  0.00  0.00    +0.000 A 
ATOM     23  N   UNL     1       0.825  -3.121  -2.197  0.00  0.00    +0.000 NA
BRANCH  22  24
ATOM     24  C   UNL     1       0.102  -5.498  -1.867  0.00  0.00    +0.000 A 
ATOM     25  C   UNL     1      -1.269  -5.218  -1.954  0.00  0.00    +0.000 A 
ATOM     26  C   UNL     1      -2.205  -6.232  -1.784  0.00  0.00    +0.000 A 
ATOM     27  F   UNL     1      -3.510  -5.943  -1.860  0.00  0.00    +0.000 F 
ATOM     28  C   UNL     1      -1.808  -7.537  -1.526  0.00  0.00    +0.000 A 
ATOM     29  C   UNL     1      -0.449  -7.835  -1.445  0.00  0.00    +0.000 A 
ATOM     30  C   UNL     1       0.502  -6.822  -1.618  0.00  0.00    +0.000 A 
ENDBRANCH  22  24
ENDBRANCH  18  19
ENDBRANCH   3  18
TORSDOF 5
