REMARK  Name = 
REMARK  7 active torsions:
REMARK  status: ('A' for Active; 'I' for Inactive)
REMARK    1  A    between atoms: C_1  and  C_2
REMARK    2  A    between atoms: C_5  and  C_6
REMARK    3  A    between atoms: C_6  and  N_7
REMARK    4  A    between atoms: C_11  and  N_12
REMARK    5  A    between atoms: C_13  and  C_15
REMARK    6  A    between atoms: C_18  and  C_19
REMARK    7  A    between atoms: N_25  and  C_26
REMARK                            x       y       z     vdW  Elec       q    Type
REMARK                         _______ _______ _______ _____ _____    ______ ____
ROOT
ATOM      1  N   UNL     1      -3.818   4.268  -2.340  0.00  0.00    +0.000 N 
ATOM      2  C   UNL     1      -4.121   5.603  -2.558  0.00  0.00    +0.000 C 
ATOM      3  O   UNL     1      -4.705   6.316  -1.745  0.00  0.00    +0.000 OA
ATOM      4  H   UNL     1      -3.338   3.788  -3.104  0.00  0.00    +0.000 HD
ENDROOT
BRANCH   1   9
ATOM      5  N   UNL     1      -3.783   1.347  -0.010  0.00  0.00    +0.000 N 
ATOM      6  C   UNL     1      -4.419   1.900   1.087  0.00  0.00    +0.000 A 
ATOM      7  C   UNL     1      -4.847   3.164   1.079  0.00  0.00    +0.000 A 
ATOM      8  C   UNL     1      -4.643   3.985  -0.083  0.00  0.00    +0.000 A 
ATOM      9  C   UNL     1      -4.052   3.523  -1.196  0.00  0.00    +0.000 A 
ATOM     10  C   UNL     1      -3.573   2.072  -1.190  0.00  0.00    +0.000 A 
ATOM     11  O   UNL     1      -3.016   1.623  -2.194  0.00  0.00    +0.000 OA
BRANCH   5  12
ATOM     12  C   UNL     1      -3.276  -0.025   0.095  0.00  0.00    +0.000 C 
BRANCH  12  17
ATOM     13  C   UNL     1      -7.372  -4.006  -1.097  0.00  0.00    +0.000 C 
ATOM     14  C   UNL     1      -6.295  -3.009  -0.788  0.00  0.00    +0.000 A 
ATOM     15  C   UNL     1      -5.441  -2.537  -1.790  0.00  0.00    +0.000 A 
ATOM     16  C   UNL     1      -4.468  -1.576  -1.500  0.00  0.00    +0.000 A 
ATOM     17  C   UNL     1      -4.320  -1.078  -0.200  0.00  0.00    +0.000 A 
ATOM     18  C   UNL     1      -5.162  -1.571   0.808  0.00  0.00    +0.000 A 
ATOM     19  C   UNL     1      -6.140  -2.526   0.516  0.00  0.00    +0.000 A 
ENDBRANCH  12  17
ENDBRANCH   5  12
ENDBRANCH   1   9
BRANCH   2  20
ATOM     20  C   UNL     1      -3.666   6.119  -3.845  0.00  0.00    +0.000 A 
ATOM     21  N   UNL     1      -3.068   5.373  -4.757  0.00  0.00    +0.000 NA
ATOM     22  C   UNL     1      -2.742   6.234  -5.770  0.00  0.00    +0.000 A 
ATOM     23  C   UNL     1      -3.122   7.540  -5.499  0.00  0.00    +0.000 A 
ATOM     24  N   UNL     1      -3.765   7.434  -4.277  0.00  0.00    +0.000 N 
ATOM     25  C   UNL     1      -4.442   8.472  -3.531  0.00  0.00    +0.000 C 
BRANCH  23  26
ATOM     26  C   UNL     1      -2.903   8.749  -6.305  0.00  0.00    +0.000 A 
ATOM     27  C   UNL     1      -2.928   8.668  -7.707  0.00  0.00    +0.000 A 
ATOM     28  C   UNL     1      -2.663   9.789  -8.500  0.00  0.00    +0.000 A 
ATOM     29  C   UNL     1      -2.389  11.017  -7.904  0.00  0.00    +0.000 A 
ATOM     30  C   UNL     1      -2.363  11.118  -6.517  0.00  0.00    +0.000 A 
ATOM     31  C   UNL     1      -2.594   9.988  -5.726  0.00  0.00    +0.000 A 
ENDBRANCH  23  26
ENDBRANCH   2  20
TORSDOF 5
