REMARK  Name = 
REMARK  5 active torsions:
REMARK  status: ('A' for Active; 'I' for Inactive)
REMARK    1  A    between atoms: C_1  and  C_2
REMARK    2  A    between atoms: C_8  and  N_9
REMARK    3  A    between atoms: C_10  and  C_12
REMARK    4  A    between atoms: C_15  and  O_16
REMARK    5  A    between atoms: O_16  and  C_17
REMARK                            x       y       z     vdW  Elec       q    Type
REMARK                         _______ _______ _______ _____ _____    ______ ____
ROOT
ATOM      1  N   UNL     1       6.801  -2.510   0.439  0.00  0.00    +0.000 N 
ATOM      2  C   UNL     1       7.574  -3.662   0.431  0.00  0.00    +0.000 C 
ATOM      3  O   UNL     1       7.148  -4.805   0.280  0.00  0.00    +0.000 OA
ATOM      4  H   UNL     1       7.206  -1.730   0.968  0.00  0.00    +0.000 HD
ENDROOT
BRANCH   1  12
ATOM      5  C   UNL     1       0.803  -1.230   1.724  0.00  0.00    +0.000 C 
ATOM      6  C   UNL     1       2.304  -1.098   1.833  0.00  0.00    +0.000 A 
ATOM      7  N   UNL     1       2.773  -0.373   2.801  0.00  0.00    +0.000 NA
ATOM      8  N   UNL     1       4.120  -0.272   2.930  0.00  0.00    +0.000 N 
ATOM      9  C   UNL     1       5.062  -0.894   2.147  0.00  0.00    +0.000 A 
ATOM     10  O   UNL     1       6.264  -0.744   2.346  0.00  0.00    +0.000 OA
ATOM     11  C   UNL     1       4.552  -1.739   1.047  0.00  0.00    +0.000 A 
ATOM     12  C   UNL     1       5.406  -2.505   0.235  0.00  0.00    +0.000 A 
ATOM     13  C   UNL     1       4.861  -3.260  -0.811  0.00  0.00    +0.000 A 
ATOM     14  C   UNL     1       3.485  -3.280  -1.032  0.00  0.00    +0.000 A 
ATOM     15  C   UNL     1       2.634  -2.577  -0.182  0.00  0.00    +0.000 A 
ATOM     16  C   UNL     1       3.167  -1.816   0.865  0.00  0.00    +0.000 A 
ATOM     17  H   UNL     1       4.458   0.306   3.694  0.00  0.00    +0.000 HD
ENDBRANCH   1  12
BRANCH   2  18
ATOM     18  C   UNL     1       9.027  -3.429   0.709  0.00  0.00    +0.000 A 
ATOM     19  C   UNL     1       9.860  -4.494   1.036  0.00  0.00    +0.000 A 
ATOM     20  C   UNL     1      11.203  -4.226   1.310  0.00  0.00    +0.000 A 
ATOM     21  C   UNL     1      11.665  -2.912   1.250  0.00  0.00    +0.000 A 
ATOM     22  C   UNL     1      10.770  -1.928   0.841  0.00  0.00    +0.000 A 
ATOM     23  N   UNL     1       9.456  -2.144   0.602  0.00  0.00    +0.000 NA
BRANCH  21  24
ATOM     24  O   UNL     1      12.987  -2.698   1.565  0.00  0.00    +0.000 OA
BRANCH  24  25
ATOM     25  C   UNL     1      13.357  -1.488   2.115  0.00  0.00    +0.000 A 
ATOM     26  C   UNL     1      12.560  -0.771   3.018  0.00  0.00    +0.000 A 
ATOM     27  C   UNL     1      12.967   0.486   3.457  0.00  0.00    +0.000 A 
ATOM     28  C   UNL     1      14.202   0.988   3.051  0.00  0.00    +0.000 A 
ATOM     29  F   UNL     1      14.588   2.196   3.468  0.00  0.00    +0.000 F 
ATOM     30  C   UNL     1      15.037   0.244   2.226  0.00  0.00    +0.000 A 
ATOM     31  C   UNL     1      14.615  -1.001   1.758  0.00  0.00    +0.000 A 
ENDBRANCH  24  25
ENDBRANCH  21  24
ENDBRANCH   2  18
TORSDOF 4
