REMARK  Name = 
REMARK  4 active torsions:
REMARK  status: ('A' for Active; 'I' for Inactive)
REMARK    1  A    between atoms: C_2  and  C_17
REMARK    2  A    between atoms: N_3  and  C_4
REMARK    3  A    between atoms: N_6  and  C_7
REMARK    4  A    between atoms: N_19  and  C_20
REMARK                            x       y       z     vdW  Elec       q    Type
REMARK                         _______ _______ _______ _____ _____    ______ ____
ROOT
ATOM      1  O   UNL     1       0.995   0.084  -0.113  0.00  0.00    +0.000 OA
ATOM      2  C   UNL     1       2.216   0.018   0.016  0.00  0.00    +0.000 C 
ATOM      3  N   UNL     1       2.873  -0.662   1.027  0.00  0.00    +0.000 N 
ATOM      4  H   UNL     1       3.860  -0.442   1.124  0.00  0.00    +0.000 HD
ENDROOT
BRANCH   3   5
ATOM      5  C   UNL     1       2.243  -1.429   1.983  0.00  0.00    +0.000 A 
ATOM      6  C   UNL     1       1.033  -1.981   1.801  0.00  0.00    +0.000 A 
ATOM      7  N   UNL     1       0.351  -2.685   2.785  0.00  0.00    +0.000 N 
ATOM      8  C   UNL     1       0.914  -2.852   4.061  0.00  0.00    +0.000 A 
ATOM      9  O   UNL     1       0.382  -3.379   5.036  0.00  0.00    +0.000 OA
ATOM     10  C   UNL     1       2.280  -2.280   4.245  0.00  0.00    +0.000 A 
ATOM     11  C   UNL     1       2.903  -1.630   3.252  0.00  0.00    +0.000 A 
BRANCH   7  12
ATOM     12  C   UNL     1      -0.984  -3.147   2.537  0.00  0.00    +0.000 A 
ATOM     13  C   UNL     1      -1.895  -2.331   1.844  0.00  0.00    +0.000 A 
ATOM     14  C   UNL     1      -3.212  -2.746   1.638  0.00  0.00    +0.000 A 
ATOM     15  C   UNL     1      -3.622  -3.999   2.085  0.00  0.00    +0.000 A 
ATOM     16  C   UNL     1      -2.718  -4.835   2.737  0.00  0.00    +0.000 A 
ATOM     17  C   UNL     1      -1.409  -4.407   2.973  0.00  0.00    +0.000 A 
ENDBRANCH   7  12
ENDBRANCH   3   5
BRANCH   2  18
ATOM     18  C   UNL     1       3.086   0.731  -0.916  0.00  0.00    +0.000 A 
ATOM     19  C   UNL     1       2.617   1.585  -1.888  0.00  0.00    +0.000 A 
ATOM     20  N   UNL     1       3.697   1.975  -2.635  0.00  0.00    +0.000 N 
ATOM     21  C   UNL     1       4.785   1.369  -2.035  0.00  0.00    +0.000 A 
ATOM     22  N   UNL     1       4.456   0.635  -0.988  0.00  0.00    +0.000 NA
BRANCH  20  23
ATOM     23  C   UNL     1       3.664   2.811  -3.789  0.00  0.00    +0.000 A 
ATOM     24  C   UNL     1       4.825   3.053  -4.532  0.00  0.00    +0.000 A 
ATOM     25  C   UNL     1       4.765   3.871  -5.665  0.00  0.00    +0.000 A 
ATOM     26 CL   UNL     1       6.193   4.158  -6.582  0.00  0.00    +0.000 Cl
ATOM     27  C   UNL     1       3.563   4.452  -6.068  0.00  0.00    +0.000 A 
ATOM     28  C   UNL     1       2.406   4.213  -5.335  0.00  0.00    +0.000 A 
ATOM     29  C   UNL     1       2.455   3.396  -4.204  0.00  0.00    +0.000 A 
ENDBRANCH  20  23
ENDBRANCH   2  18
TORSDOF 4
