REMARK  Name = 
REMARK  5 active torsions:
REMARK  status: ('A' for Active; 'I' for Inactive)
REMARK    1  A    between atoms: N_7  and  C_8
REMARK    2  A    between atoms: C_8  and  C_9
REMARK    3  A    between atoms: C_12  and  C_13
REMARK    4  A    between atoms: C_18  and  N_19
REMARK    5  A    between atoms: C_23  and  C_24
REMARK                            x       y       z     vdW  Elec       q    Type
REMARK                         _______ _______ _______ _____ _____    ______ ____
ROOT
ATOM      1  C   UNL     1      -3.324  -1.060   0.027  0.00  0.00    +0.000 A 
ATOM      2  C   UNL     1      -4.072  -0.739  -1.133  0.00  0.00    +0.000 A 
ATOM      3  C   UNL     1      -5.375  -0.241  -1.072  0.00  0.00    +0.000 A 
ATOM      4  C   UNL     1      -5.989  -0.062   0.157  0.00  0.00    +0.000 A 
ATOM      5  C   UNL     1      -5.298  -0.372   1.327  0.00  0.00    +0.000 A 
ATOM      6  C   UNL     1      -3.979  -0.871   1.281  0.00  0.00    +0.000 A 
ENDROOT
BRANCH   1  10
ATOM      7  C   UNL     1       0.858  -2.160  -0.299  0.00  0.00    +0.000 A 
ATOM      8  C   UNL     1       0.279  -1.275  -1.210  0.00  0.00    +0.000 A 
ATOM      9  C   UNL     1      -1.083  -0.966  -1.133  0.00  0.00    +0.000 A 
ATOM     10  C   UNL     1      -1.924  -1.554  -0.167  0.00  0.00    +0.000 A 
ATOM     11  C   UNL     1      -1.357  -2.570   0.621  0.00  0.00    +0.000 A 
ATOM     12  C   UNL     1       0.020  -2.834   0.594  0.00  0.00    +0.000 A 
BRANCH   7  13
ATOM     13  C   UNL     1       2.359  -2.311  -0.231  0.00  0.00    +0.000 C 
BRANCH  13  20
ATOM     14  O   UNL     1       3.233   0.242  -1.046  0.00  0.00    +0.000 OA
ATOM     15  C   UNL     1       3.383  -0.100   0.123  0.00  0.00    +0.000 A 
ATOM     16  C   UNL     1       4.061   0.833   1.067  0.00  0.00    +0.000 A 
ATOM     17  C   UNL     1       4.242   0.492   2.350  0.00  0.00    +0.000 A 
ATOM     18  C   UNL     1       3.747  -0.771   2.838  0.00  0.00    +0.000 A 
ATOM     19  C   UNL     1       3.151  -1.629   2.002  0.00  0.00    +0.000 A 
ATOM     20  N   UNL     1       2.986  -1.329   0.658  0.00  0.00    +0.000 N 
ENDBRANCH  13  20
ENDBRANCH   7  13
ENDBRANCH   1  10
BRANCH   6  21
ATOM     21  N   UNL     1      -3.313  -1.080   2.522  0.00  0.00    +0.000 N 
ATOM     22  N   UNL     1      -2.029  -0.679   2.688  0.00  0.00    +0.000 NA
ATOM     23  N   UNL     1      -1.672  -1.027   3.910  0.00  0.00    +0.000 NA
ATOM     24  N   UNL     1      -2.716  -1.588   4.575  0.00  0.00    +0.000 NA
ATOM     25  C   UNL     1      -3.740  -1.593   3.736  0.00  0.00    +0.000 A 
BRANCH  25  26
ATOM     26  C   UNL     1      -5.070  -2.143   4.035  0.00  0.00    +0.000 C 
ATOM     27  F   UNL     1      -5.823  -2.441   2.946  0.00  0.00    +0.000 F 
ATOM     28  F   UNL     1      -4.994  -3.295   4.751  0.00  0.00    +0.000 F 
ATOM     29  F   UNL     1      -5.802  -1.275   4.783  0.00  0.00    +0.000 F 
ENDBRANCH  25  26
ENDBRANCH   6  21
TORSDOF 5
