REMARK  Name = 
REMARK  5 active torsions:
REMARK  status: ('A' for Active; 'I' for Inactive)
REMARK    1  A    between atoms: N_3  and  C_4
REMARK    2  A    between atoms: C_4  and  C_5
REMARK    3  A    between atoms: C_8  and  C_9
REMARK    4  A    between atoms: N_16  and  C_17
REMARK    5  A    between atoms: N_21  and  C_22
REMARK                            x       y       z     vdW  Elec       q    Type
REMARK                         _______ _______ _______ _____ _____    ______ ____
ROOT
ATOM      1  O   UNL     1       0.919   0.311   0.197  0.00  0.00    +0.000 OA
ATOM      2  C   UNL     1       2.127   0.089   0.130  0.00  0.00    +0.000 C 
ATOM      3  N   UNL     1       2.855  -0.262   1.234  0.00  0.00    +0.000 N 
ATOM      4  N   UNL     1       2.894   0.211  -1.002  0.00  0.00    +0.000 N 
ATOM      5  H   UNL     1       3.629  -0.900   1.105  0.00  0.00    +0.000 HD
ATOM      6  H   UNL     1       3.807  -0.226  -1.015  0.00  0.00    +0.000 HD
ENDROOT
BRANCH   4   7
ATOM      7  C   UNL     1       2.477   0.741  -2.215  0.00  0.00    +0.000 A 
ATOM      8  C   UNL     1       1.384   1.502  -2.374  0.00  0.00    +0.000 A 
ATOM      9  C   UNL     1       1.017   2.044  -3.649  0.00  0.00    +0.000 A 
ATOM     10  C   UNL     1       1.737   1.742  -4.730  0.00  0.00    +0.000 A 
ATOM     11  N   UNL     1       2.854   0.923  -4.670  0.00  0.00    +0.000 N 
ATOM     12  C   UNL     1       3.333   0.430  -3.434  0.00  0.00    +0.000 A 
ATOM     13  O   UNL     1       4.332  -0.278  -3.277  0.00  0.00    +0.000 OA
BRANCH  11  14
ATOM     14  C   UNL     1       3.509   0.541  -5.882  0.00  0.00    +0.000 A 
ATOM     15  C   UNL     1       2.752   0.023  -6.944  0.00  0.00    +0.000 A 
ATOM     16  C   UNL     1       3.365  -0.340  -8.144  0.00  0.00    +0.000 A 
ATOM     17  C   UNL     1       4.735  -0.151  -8.305  0.00  0.00    +0.000 A 
ATOM     18  C   UNL     1       5.494   0.378  -7.261  0.00  0.00    +0.000 A 
ATOM     19  C   UNL     1       4.888   0.707  -6.045  0.00  0.00    +0.000 A 
ENDBRANCH  11  14
ENDBRANCH   4   7
BRANCH   3  20
ATOM     20  C   UNL     1       2.162  -0.420   2.496  0.00  0.00    +0.000 C 
BRANCH  20  21
ATOM     21  C   UNL     1       2.969  -1.299   3.392  0.00  0.00    +0.000 A 
ATOM     22  N   UNL     1       3.759  -2.257   2.885  0.00  0.00    +0.000 NA
ATOM     23  N   UNL     1       4.253  -2.869   3.972  0.00  0.00    +0.000 N 
ATOM     24  C   UNL     1       3.832  -2.337   5.162  0.00  0.00    +0.000 A 
ATOM     25  C   UNL     1       3.006  -1.290   4.804  0.00  0.00    +0.000 A 
ATOM     26  H   UNL     1       4.885  -3.650   3.832  0.00  0.00    +0.000 HD
BRANCH  24  27
ATOM     27  C   UNL     1       4.220  -2.859   6.468  0.00  0.00    +0.000 A 
ATOM     28  C   UNL     1       4.339  -2.000   7.568  0.00  0.00    +0.000 A 
ATOM     29  C   UNL     1       4.683  -2.496   8.828  0.00  0.00    +0.000 A 
ATOM     30  C   UNL     1       4.906  -3.859   9.004  0.00  0.00    +0.000 A 
ATOM     31  C   UNL     1       4.797  -4.724   7.918  0.00  0.00    +0.000 A 
ATOM     32  C   UNL     1       4.455  -4.229   6.659  0.00  0.00    +0.000 A 
ENDBRANCH  24  27
ENDBRANCH  20  21
ENDBRANCH   3  20
TORSDOF 5
