REMARK  Name = 
REMARK  7 active torsions:
REMARK  status: ('A' for Active; 'I' for Inactive)
REMARK    1  A    between atoms: C_1  and  N_2
REMARK    2  A    between atoms: C_4  and  C_5
REMARK    3  A    between atoms: C_5  and  C_7
REMARK    4  A    between atoms: C_7  and  O_8
REMARK    5  A    between atoms: O_8  and  C_9
REMARK    6  A    between atoms: C_9  and  C_11
REMARK    7  A    between atoms: C_13  and  C_14
REMARK                            x       y       z     vdW  Elec       q    Type
REMARK                         _______ _______ _______ _____ _____    ______ ____
ROOT
ATOM      1  C   UNL     1      -3.301   6.084   0.123  0.00  0.00    +0.000 C 
ATOM      2  O   UNL     1      -4.431   5.636   0.257  0.00  0.00    +0.000 OA
ENDROOT
BRANCH   1   3
ATOM      3  C   UNL     1      -3.023   7.536   0.063  0.00  0.00    +0.000 A 
ATOM      4  C   UNL     1      -1.756   8.091  -0.161  0.00  0.00    +0.000 A 
ATOM      5  C   UNL     1      -1.583   9.487  -0.246  0.00  0.00    +0.000 A 
ATOM      6  C   UNL     1      -2.742  10.253  -0.074  0.00  0.00    +0.000 A 
ATOM      7  N   UNL     1      -3.980   9.757   0.165  0.00  0.00    +0.000 NA
ATOM      8  C   UNL     1      -4.091   8.410   0.221  0.00  0.00    +0.000 A 
BRANCH   5   9
ATOM      9  C   UNL     1      -0.270  10.114  -0.528  0.00  0.00    +0.000 A 
ATOM     10  C   UNL     1       0.068  11.382  -0.019  0.00  0.00    +0.000 A 
ATOM     11  C   UNL     1       1.291  11.976  -0.328  0.00  0.00    +0.000 A 
ATOM     12  F   UNL     1       1.570  13.193   0.159  0.00  0.00    +0.000 F 
ATOM     13  C   UNL     1       2.219  11.334  -1.133  0.00  0.00    +0.000 A 
ATOM     14  C   UNL     1       1.920  10.074  -1.637  0.00  0.00    +0.000 A 
ATOM     15  C   UNL     1       0.689   9.475  -1.340  0.00  0.00    +0.000 A 
ENDBRANCH   5   9
ENDBRANCH   1   3
BRANCH   1  16
ATOM     16  O   UNL     1      -2.168   5.348   0.020  0.00  0.00    +0.000 OA
BRANCH  16  17
ATOM     17  C   UNL     1      -2.335   3.915   0.014  0.00  0.00    +0.000 C 
BRANCH  17  18
ATOM     18  C   UNL     1      -1.891   3.309  -1.317  0.00  0.00    +0.000 C 
ATOM     19  O   UNL     1      -1.455   4.024  -2.225  0.00  0.00    +0.000 OA
BRANCH  18  23
ATOM     20  C   UNL     1      -2.846  -1.341  -0.270  0.00  0.00    +0.000 C 
ATOM     21  N   UNL     1      -2.382  -0.200  -1.026  0.00  0.00    +0.000 N 
ATOM     22  N   UNL     1      -2.448   1.042  -0.494  0.00  0.00    +0.000 NA
ATOM     23  C   UNL     1      -1.984   1.845  -1.471  0.00  0.00    +0.000 A 
ATOM     24  C   UNL     1      -1.607   1.086  -2.623  0.00  0.00    +0.000 A 
ATOM     25  C   UNL     1      -1.076   1.379  -3.894  0.00  0.00    +0.000 A 
ATOM     26  C   UNL     1      -0.828   0.334  -4.792  0.00  0.00    +0.000 A 
ATOM     27  C   UNL     1      -1.099  -0.986  -4.439  0.00  0.00    +0.000 A 
ATOM     28  C   UNL     1      -1.627  -1.302  -3.184  0.00  0.00    +0.000 A 
ATOM     29  C   UNL     1      -1.871  -0.241  -2.298  0.00  0.00    +0.000 A 
ENDBRANCH  18  23
ENDBRANCH  17  18
ENDBRANCH  16  17
ENDBRANCH   1  16
TORSDOF 6
