REMARK  Name = 
REMARK  6 active torsions:
REMARK  status: ('A' for Active; 'I' for Inactive)
REMARK    1  A    between atoms: C_1  and  N_2
REMARK    2  A    between atoms: C_3  and  C_5
REMARK    3  A    between atoms: C_8  and  C_9
REMARK    4  A    between atoms: N_11  and  C_12
REMARK    5  A    between atoms: N_16  and  C_17
REMARK    6  A    between atoms: C_17  and  C_18
REMARK                            x       y       z     vdW  Elec       q    Type
REMARK                         _______ _______ _______ _____ _____    ______ ____
ROOT
ATOM      1  C   UNL     1       8.943  -0.820  -0.153  0.00  0.00    +0.000 C 
ATOM      2  O   UNL     1       9.546  -1.701  -0.741  0.00  0.00    +0.000 OA
ATOM      3  N   UNL     1       9.637   0.212   0.583  0.00  0.00    +0.000 N 
ATOM      4  H   UNL     1       9.111   0.863   1.147  0.00  0.00    +0.000 HD
ENDROOT
BRANCH   1   8
ATOM      5  C   UNL     1       4.657  -0.968   0.042  0.00  0.00    +0.000 A 
ATOM      6  C   UNL     1       5.419  -2.140  -0.037  0.00  0.00    +0.000 A 
ATOM      7  C   UNL     1       6.813  -2.074  -0.108  0.00  0.00    +0.000 A 
ATOM      8  C   UNL     1       7.466  -0.832  -0.086  0.00  0.00    +0.000 A 
ATOM      9  C   UNL     1       6.718   0.343  -0.022  0.00  0.00    +0.000 A 
ATOM     10  C   UNL     1       5.324   0.262   0.049  0.00  0.00    +0.000 A 
ATOM     11  F   UNL     1       4.647   1.417   0.125  0.00  0.00    +0.000 F 
BRANCH   5  14
ATOM     12  C   UNL     1       1.014   0.097   0.182  0.00  0.00    +0.000 C 
ATOM     13  N   UNL     1       2.452   0.086   0.171  0.00  0.00    +0.000 N 
ATOM     14  C   UNL     1       3.169  -1.085   0.098  0.00  0.00    +0.000 C 
ATOM     15  O   UNL     1       2.648  -2.191   0.074  0.00  0.00    +0.000 OA
ATOM     16  H   UNL     1       2.934   0.979   0.222  0.00  0.00    +0.000 HD
ENDBRANCH   5  14
ENDBRANCH   1   8
BRANCH   3  17
ATOM     17  C   UNL     1      11.032   0.291   0.619  0.00  0.00    +0.000 A 
ATOM     18  C   UNL     1      11.928  -0.326  -0.228  0.00  0.00    +0.000 A 
ATOM     19  C   UNL     1      13.201   0.045   0.229  0.00  0.00    +0.000 A 
ATOM     20  N   UNL     1      13.142   0.840   1.295  0.00  0.00    +0.000 NA
ATOM     21  N   UNL     1      11.815   0.993   1.520  0.00  0.00    +0.000 N 
BRANCH  21  22
ATOM     22  C   UNL     1      11.403   1.606   2.780  0.00  0.00    +0.000 C 
BRANCH  22  23
ATOM     23  C   UNL     1      11.256   3.113   2.712  0.00  0.00    +0.000 A 
ATOM     24  C   UNL     1      12.398   3.872   2.373  0.00  0.00    +0.000 A 
ATOM     25  C   UNL     1      12.388   5.261   2.435  0.00  0.00    +0.000 A 
ATOM     26  C   UNL     1      11.242   5.922   2.858  0.00  0.00    +0.000 A 
ATOM     27  C   UNL     1      10.081   5.210   3.182  0.00  0.00    +0.000 A 
ATOM     28  C   UNL     1       8.938   5.913   3.594  0.00  0.00    +0.000 A 
ATOM     29  C   UNL     1       7.753   5.247   3.891  0.00  0.00    +0.000 A 
ATOM     30  C   UNL     1       7.700   3.865   3.794  0.00  0.00    +0.000 A 
ATOM     31  C   UNL     1       8.840   3.147   3.419  0.00  0.00    +0.000 A 
ATOM     32  C   UNL     1      10.061   3.791   3.098  0.00  0.00    +0.000 A 
ENDBRANCH  22  23
ENDBRANCH  21  22
ENDBRANCH   3  17
TORSDOF 5
