REMARK  Name = 
REMARK  4 active torsions:
REMARK  status: ('A' for Active; 'I' for Inactive)
REMARK    1  A    between atoms: C_2  and  C_17
REMARK    2  A    between atoms: N_3  and  C_4
REMARK    3  A    between atoms: C_4  and  C_5
REMARK    4  A    between atoms: C_8  and  C_9
REMARK                            x       y       z     vdW  Elec       q    Type
REMARK                         _______ _______ _______ _____ _____    ______ ____
ROOT
ATOM      1  O   UNL     1       2.627  -1.770  -1.112  0.00  0.00    +0.000 OA
ATOM      2  C   UNL     1       3.426  -1.025  -0.553  0.00  0.00    +0.000 C 
ATOM      3  N   UNL     1       3.379  -0.783   0.801  0.00  0.00    +0.000 N 
ATOM      4  H   UNL     1       4.132  -0.286   1.269  0.00  0.00    +0.000 HD
ENDROOT
BRANCH   2   5
ATOM      5  C   UNL     1       4.594  -0.519  -1.310  0.00  0.00    +0.000 A 
ATOM      6  C   UNL     1       5.312   0.634  -1.053  0.00  0.00    +0.000 A 
ATOM      7  N   UNL     1       6.481   0.949  -1.688  0.00  0.00    +0.000 NA
ATOM      8  C   UNL     1       7.039   0.032  -2.530  0.00  0.00    +0.000 A 
ATOM      9  C   UNL     1       8.282   0.191  -3.168  0.00  0.00    +0.000 A 
ATOM     10  F   UNL     1       8.947   1.353  -3.063  0.00  0.00    +0.000 F 
ATOM     11  C   UNL     1       8.893  -0.833  -3.909  0.00  0.00    +0.000 A 
ATOM     12  C   UNL     1       8.273  -2.070  -4.014  0.00  0.00    +0.000 A 
ATOM     13  C   UNL     1       7.010  -2.222  -3.470  0.00  0.00    +0.000 A 
ATOM     14  F   UNL     1       6.429  -3.431  -3.526  0.00  0.00    +0.000 F 
ATOM     15  C   UNL     1       6.381  -1.179  -2.792  0.00  0.00    +0.000 A 
ATOM     16  C   UNL     1       5.093  -1.371  -2.284  0.00  0.00    +0.000 A 
ENDBRANCH   2   5
BRANCH   3  17
ATOM     17  C   UNL     1       2.518  -1.579   1.668  0.00  0.00    +0.000 C 
BRANCH  17  18
ATOM     18  C   UNL     1       3.336  -2.370   2.659  0.00  0.00    +0.000 A 
ATOM     19  C   UNL     1       3.477  -3.754   2.575  0.00  0.00    +0.000 A 
ATOM     20  N   UNL     1       4.249  -4.479   3.432  0.00  0.00    +0.000 NA
ATOM     21  C   UNL     1       4.904  -3.782   4.397  0.00  0.00    +0.000 A 
ATOM     22  C   UNL     1       4.724  -2.402   4.491  0.00  0.00    +0.000 A 
ATOM     23  N   UNL     1       3.973  -1.668   3.629  0.00  0.00    +0.000 NA
BRANCH  21  24
ATOM     24  C   UNL     1       5.777  -4.521   5.328  0.00  0.00    +0.000 A 
ATOM     25  C   UNL     1       6.925  -3.921   5.891  0.00  0.00    +0.000 A 
ATOM     26  C   UNL     1       7.711  -4.585   6.836  0.00  0.00    +0.000 A 
ATOM     27  C   UNL     1       7.377  -5.876   7.230  0.00  0.00    +0.000 A 
ATOM     28  C   UNL     1       6.272  -6.500   6.661  0.00  0.00    +0.000 A 
ATOM     29  C   UNL     1       5.490  -5.844   5.705  0.00  0.00    +0.000 A 
ENDBRANCH  21  24
ENDBRANCH  17  18
ENDBRANCH   3  17
TORSDOF 4
