REMARK  Name = 
REMARK  7 active torsions:
REMARK  status: ('A' for Active; 'I' for Inactive)
REMARK    1  A    between atoms: C_1  and  N_2
REMARK    2  A    between atoms: C_4  and  C_5
REMARK    3  A    between atoms: C_5  and  O_6
REMARK    4  A    between atoms: O_6  and  C_7
REMARK    5  A    between atoms: C_7  and  C_9
REMARK    6  A    between atoms: C_21  and  C_22
REMARK    7  A    between atoms: C_25  and  C_26
REMARK                            x       y       z     vdW  Elec       q    Type
REMARK                         _______ _______ _______ _____ _____    ______ ____
ROOT
ATOM      1  O   UNL     1       2.343  -3.013  -0.150  0.00  0.00    +0.000 OA
ENDROOT
BRANCH   1   2
ATOM      2  C   UNL     1       2.089  -3.558   1.058  0.00  0.00    +0.000 C 
ATOM      3  O   UNL     1       2.144  -2.999   2.140  0.00  0.00    +0.000 OA
BRANCH   2   4
ATOM      4  C   UNL     1       1.664  -4.966   0.883  0.00  0.00    +0.000 A 
ATOM      5  C   UNL     1       1.155  -5.629   2.009  0.00  0.00    +0.000 A 
ATOM      6  C   UNL     1       0.710  -6.947   1.902  0.00  0.00    +0.000 A 
ATOM      7  C   UNL     1       0.794  -7.605   0.669  0.00  0.00    +0.000 A 
ATOM      8  N   UNL     1       0.343  -8.927   0.564  0.00  0.00    +0.000 N 
ATOM      9  C   UNL     1      -0.206  -9.621   1.607  0.00  0.00    +0.000 A 
ATOM     10  O   UNL     1      -0.609 -10.773   1.495  0.00  0.00    +0.000 OA
ATOM     11  C   UNL     1      -0.300  -8.907   2.906  0.00  0.00    +0.000 A 
ATOM     12  C   UNL     1       0.139  -7.651   3.049  0.00  0.00    +0.000 A 
ATOM     13  C   UNL     1       1.310  -6.944  -0.444  0.00  0.00    +0.000 A 
ATOM     14  F   UNL     1       1.382  -7.574  -1.626  0.00  0.00    +0.000 F 
ATOM     15  C   UNL     1       1.740  -5.627  -0.350  0.00  0.00    +0.000 A 
ATOM     16  H   UNL     1       0.406  -9.409  -0.324  0.00  0.00    +0.000 HD
ENDBRANCH   2   4
ENDBRANCH   1   2
BRANCH   1  17
ATOM     17  C   UNL     1       2.669  -1.618  -0.122  0.00  0.00    +0.000 C 
BRANCH  17  21
ATOM     18  C   UNL     1      -2.031   0.112  -0.164  0.00  0.00    +0.000 C 
ATOM     19  N   UNL     1      -0.592   0.019  -0.128  0.00  0.00    +0.000 N 
ATOM     20  C   UNL     1       0.142  -1.121  -0.195  0.00  0.00    +0.000 A 
ATOM     21  C   UNL     1       1.467  -0.736  -0.134  0.00  0.00    +0.000 A 
ATOM     22  C   UNL     1       1.424   0.695  -0.039  0.00  0.00    +0.000 A 
ATOM     23  N   UNL     1       0.152   1.132  -0.029  0.00  0.00    +0.000 NA
BRANCH  22  24
ATOM     24  C   UNL     1       2.551   1.629   0.085  0.00  0.00    +0.000 A 
ATOM     25  C   UNL     1       3.775   1.378  -0.552  0.00  0.00    +0.000 A 
ATOM     26  C   UNL     1       4.885   2.198  -0.333  0.00  0.00    +0.000 A 
ATOM     27  C   UNL     1       4.772   3.315   0.494  0.00  0.00    +0.000 A 
ATOM     28  C   UNL     1       3.542   3.615   1.083  0.00  0.00    +0.000 A 
ATOM     29  C   UNL     1       2.439   2.777   0.881  0.00  0.00    +0.000 A 
BRANCH  27  30
ATOM     30  C   UNL     1       5.917   4.139   0.737  0.00  0.00    +0.000 C 
ATOM     31  N   UNL     1       6.857   4.795   0.931  0.00  0.00    +0.000 NA
ENDBRANCH  27  30
ENDBRANCH  22  24
ENDBRANCH  17  21
ENDBRANCH   1  17
TORSDOF 6
