REMARK  Name = 
REMARK  7 active torsions:
REMARK  status: ('A' for Active; 'I' for Inactive)
REMARK    1  A    between atoms: C_2  and  C_17
REMARK    2  A    between atoms: N_3  and  C_4
REMARK    3  A    between atoms: N_6  and  C_7
REMARK    4  A    between atoms: C_18  and  C_19
REMARK    5  A    between atoms: N_25  and  C_26
REMARK    6  A    between atoms: C_26  and  C_27
REMARK    7  A    between atoms: C_27  and  O_28
REMARK                            x       y       z     vdW  Elec       q    Type
REMARK                         _______ _______ _______ _____ _____    ______ ____
ROOT
ATOM      1  O   UNL     1       1.030   0.396   0.054  0.00  0.00    +0.000 OA
ATOM      2  C   UNL     1       2.231   0.164  -0.022  0.00  0.00    +0.000 C 
ATOM      3  N   UNL     1       2.829  -0.666  -0.970  0.00  0.00    +0.000 N 
ATOM      4  H   UNL     1       3.802  -0.898  -0.813  0.00  0.00    +0.000 HD
ENDROOT
BRANCH   3   5
ATOM      5  C   UNL     1       2.151  -1.416  -1.908  0.00  0.00    +0.000 A 
ATOM      6  C   UNL     1       0.883  -1.183  -2.279  0.00  0.00    +0.000 A 
ATOM      7  N   UNL     1       0.157  -2.031  -3.106  0.00  0.00    +0.000 N 
ATOM      8  C   UNL     1       0.748  -3.188  -3.642  0.00  0.00    +0.000 A 
ATOM      9  O   UNL     1       0.198  -4.054  -4.319  0.00  0.00    +0.000 OA
ATOM     10  C   UNL     1       2.185  -3.397  -3.296  0.00  0.00    +0.000 A 
ATOM     11  C   UNL     1       2.834  -2.552  -2.485  0.00  0.00    +0.000 A 
BRANCH   7  12
ATOM     12  C   UNL     1      -1.248  -1.803  -3.292  0.00  0.00    +0.000 A 
ATOM     13  C   UNL     1      -2.035  -1.349  -2.217  0.00  0.00    +0.000 A 
ATOM     14  C   UNL     1      -3.408  -1.157  -2.366  0.00  0.00    +0.000 A 
ATOM     15  C   UNL     1      -4.008  -1.382  -3.600  0.00  0.00    +0.000 A 
ATOM     16  C   UNL     1      -3.237  -1.805  -4.681  0.00  0.00    +0.000 A 
ATOM     17  C   UNL     1      -1.866  -2.023  -4.527  0.00  0.00    +0.000 A 
ENDBRANCH   7  12
ENDBRANCH   3   5
BRANCH   2  18
ATOM     18  C   UNL     1       3.151   0.688   0.965  0.00  0.00    +0.000 A 
ATOM     19  C   UNL     1       2.935   0.823   2.341  0.00  0.00    +0.000 A 
ATOM     20  N   UNL     1       4.120   1.359   2.821  0.00  0.00    +0.000 N 
ATOM     21  N   UNL     1       5.027   1.627   1.850  0.00  0.00    +0.000 NA
ATOM     22  C   UNL     1       4.434   1.219   0.734  0.00  0.00    +0.000 A 
BRANCH  19  23
ATOM     23  C   UNL     1       1.774   0.448   3.176  0.00  0.00    +0.000 A 
ATOM     24  C   UNL     1       1.081  -0.749   2.942  0.00  0.00    +0.000 A 
ATOM     25  C   UNL     1      -0.017  -1.119   3.727  0.00  0.00    +0.000 A 
ATOM     26  C   UNL     1      -0.423  -0.310   4.784  0.00  0.00    +0.000 A 
ATOM     27  C   UNL     1       0.247   0.883   5.034  0.00  0.00    +0.000 A 
ATOM     28  C   UNL     1       1.319   1.270   4.220  0.00  0.00    +0.000 A 
ENDBRANCH  19  23
BRANCH  20  29
ATOM     29  C   UNL     1       4.475   1.665   4.201  0.00  0.00    +0.000 C 
BRANCH  29  30
ATOM     30  C   UNL     1       5.969   1.560   4.495  0.00  0.00    +0.000 C 
BRANCH  30  31
ATOM     31  O   UNL     1       6.712   2.572   3.821  0.00  0.00    +0.000 OA
ATOM     32  H   UNL     1       6.473   2.476   2.870  0.00  0.00    +0.000 HD
ENDBRANCH  30  31
ENDBRANCH  29  30
ENDBRANCH  20  29
ENDBRANCH   2  18
TORSDOF 7
