REMARK  Name = 
REMARK  4 active torsions:
REMARK  status: ('A' for Active; 'I' for Inactive)
REMARK    1  A    between atoms: C_2  and  C_16
REMARK    2  A    between atoms: N_3  and  C_4
REMARK    3  A    between atoms: C_8  and  N_9
REMARK    4  A    between atoms: C_19  and  C_20
REMARK                            x       y       z     vdW  Elec       q    Type
REMARK                         _______ _______ _______ _____ _____    ______ ____
ROOT
ATOM      1  O   UNL     1       0.912  -0.257  -0.034  0.00  0.00    +0.000 OA
ATOM      2  C   UNL     1       2.117  -0.026  -0.004  0.00  0.00    +0.000 C 
ATOM      3  N   UNL     1       2.722   1.048   0.628  0.00  0.00    +0.000 N 
ATOM      4  H   UNL     1       3.733   1.107   0.574  0.00  0.00    +0.000 HD
ENDROOT
BRANCH   2   5
ATOM      5  C   UNL     1       3.015  -0.995  -0.690  0.00  0.00    +0.000 A 
ATOM      6  C   UNL     1       2.433  -2.052  -1.401  0.00  0.00    +0.000 A 
ATOM      7  C   UNL     1       3.232  -3.021  -2.018  0.00  0.00    +0.000 A 
ATOM      8  C   UNL     1       4.635  -2.978  -1.928  0.00  0.00    +0.000 A 
ATOM      9  C   UNL     1       5.201  -1.898  -1.231  0.00  0.00    +0.000 A 
ATOM     10  C   UNL     1       4.403  -0.925  -0.629  0.00  0.00    +0.000 A 
ATOM     11  F   UNL     1       5.019   0.070   0.028  0.00  0.00    +0.000 F 
BRANCH   8  12
ATOM     12  C   UNL     1       5.481  -4.046  -2.503  0.00  0.00    +0.000 A 
ATOM     13  C   UNL     1       6.759  -3.772  -3.024  0.00  0.00    +0.000 A 
ATOM     14  C   UNL     1       7.583  -4.793  -3.506  0.00  0.00    +0.000 A 
ATOM     15  C   UNL     1       7.139  -6.111  -3.498  0.00  0.00    +0.000 A 
ATOM     16  C   UNL     1       5.871  -6.408  -3.009  0.00  0.00    +0.000 A 
ATOM     17  C   UNL     1       5.056  -5.388  -2.514  0.00  0.00    +0.000 A 
ENDBRANCH   8  12
ENDBRANCH   2   5
BRANCH   3  18
ATOM     18  C   UNL     1       2.089   2.042   1.403  0.00  0.00    +0.000 A 
ATOM     19  C   UNL     1       0.710   2.106   1.593  0.00  0.00    +0.000 A 
ATOM     20  C   UNL     1       0.153   3.088   2.410  0.00  0.00    +0.000 A 
ATOM     21  C   UNL     1       0.973   4.017   3.046  0.00  0.00    +0.000 A 
ATOM     22  C   UNL     1       2.359   3.992   2.863  0.00  0.00    +0.000 A 
ATOM     23  C   UNL     1       2.905   2.999   2.029  0.00  0.00    +0.000 A 
BRANCH  22  24
ATOM     24  N   UNL     1       3.186   4.934   3.500  0.00  0.00    +0.000 N 
ATOM     25  N   UNL     1       4.536   4.980   3.252  0.00  0.00    +0.000 NA
ATOM     26  N   UNL     1       5.055   5.923   3.928  0.00  0.00    +0.000 NA
ATOM     27  N   UNL     1       4.081   6.531   4.647  0.00  0.00    +0.000 N 
ATOM     28  C   UNL     1       2.863   5.931   4.412  0.00  0.00    +0.000 A 
ATOM     29  O   UNL     1       1.805   6.250   4.925  0.00  0.00    +0.000 OA
ATOM     30  H   UNL     1       4.257   7.306   5.266  0.00  0.00    +0.000 HD
ENDBRANCH  22  24
ENDBRANCH   3  18
TORSDOF 4
