REMARK  Name = 
REMARK  6 active torsions:
REMARK  status: ('A' for Active; 'I' for Inactive)
REMARK    1  A    between atoms: C_2  and  C_19
REMARK    2  A    between atoms: N_3  and  C_4
REMARK    3  A    between atoms: C_4  and  C_5
REMARK    4  A    between atoms: C_8  and  O_9
REMARK    5  A    between atoms: O_9  and  C_10
REMARK    6  A    between atoms: C_21  and  O_22
REMARK                            x       y       z     vdW  Elec       q    Type
REMARK                         _______ _______ _______ _____ _____    ______ ____
ROOT
ATOM      1  O   UNL     1       1.043   0.100  -0.008  0.00  0.00    +0.000 OA
ATOM      2  C   UNL     1       2.272   0.111  -0.070  0.00  0.00    +0.000 C 
ATOM      3  N   UNL     1       2.935   0.016  -1.274  0.00  0.00    +0.000 N 
ATOM      4  H   UNL     1       3.943  -0.025  -1.286  0.00  0.00    +0.000 HD
ENDROOT
BRANCH   2   5
ATOM      5  C   UNL     1       3.106   0.141   1.201  0.00  0.00    +0.000 A 
ATOM      6  C   UNL     1       2.449  -0.513   2.308  0.00  0.00    +0.000 A 
ATOM      7  C   UNL     1       3.065  -0.496   3.558  0.00  0.00    +0.000 A 
ATOM      8  N   UNL     1       4.210   0.113   3.729  0.00  0.00    +0.000 NA
ATOM      9  C   UNL     1       4.766   0.780   2.697  0.00  0.00    +0.000 A 
ATOM     10  C   UNL     1       5.971   1.340   2.978  0.00  0.00    +0.000 A 
ATOM     11  N   UNL     1       6.956   1.661   2.144  0.00  0.00    +0.000 NA
ATOM     12  C   UNL     1       6.712   2.293   0.991  0.00  0.00    +0.000 A 
ATOM     13  C   UNL     1       5.515   1.709   0.564  0.00  0.00    +0.000 A 
ATOM     14  C   UNL     1       4.414   0.842   1.363  0.00  0.00    +0.000 A 
BRANCH   7  15
ATOM     15  O   UNL     1       2.620  -1.101   4.665  0.00  0.00    +0.000 OA
ATOM     16  H   UNL     1       1.768  -1.549   4.546  0.00  0.00    +0.000 HD
ENDBRANCH   7  15
ENDBRANCH   2   5
BRANCH   3  17
ATOM     17  C   UNL     1       2.226  -0.104  -2.542  0.00  0.00    +0.000 C 
BRANCH  17  18
ATOM     18  C   UNL     1       3.179  -0.189  -3.703  0.00  0.00    +0.000 A 
ATOM     19  C   UNL     1       3.665  -1.416  -4.170  0.00  0.00    +0.000 A 
ATOM     20  C   UNL     1       4.554  -1.470  -5.261  0.00  0.00    +0.000 A 
ATOM     21  C   UNL     1       4.974  -0.289  -5.898  0.00  0.00    +0.000 A 
ATOM     22  C   UNL     1       4.444   0.914  -5.432  0.00  0.00    +0.000 A 
ATOM     23  F   UNL     1       4.735   2.089  -5.995  0.00  0.00    +0.000 F 
ATOM     24  C   UNL     1       3.578   0.972  -4.354  0.00  0.00    +0.000 A 
BRANCH  21  25
ATOM     25  O   UNL     1       5.876  -0.389  -6.944  0.00  0.00    +0.000 OA
BRANCH  25  26
ATOM     26  C   UNL     1       6.777  -1.436  -6.933  0.00  0.00    +0.000 A 
ATOM     27  C   UNL     1       7.269  -2.024  -5.763  0.00  0.00    +0.000 A 
ATOM     28  C   UNL     1       8.261  -3.002  -5.849  0.00  0.00    +0.000 A 
ATOM     29  C   UNL     1       8.671  -3.415  -7.105  0.00  0.00    +0.000 A 
ATOM     30  N   UNL     1       8.182  -2.907  -8.258  0.00  0.00    +0.000 NA
ATOM     31  C   UNL     1       7.248  -1.927  -8.141  0.00  0.00    +0.000 A 
ENDBRANCH  25  26
ENDBRANCH  21  25
ENDBRANCH  17  18
ENDBRANCH   3  17
TORSDOF 6
