REMARK  Name = 
REMARK  5 active torsions:
REMARK  status: ('A' for Active; 'I' for Inactive)
REMARK    1  A    between atoms: C_2  and  C_4
REMARK    2  A    between atoms: C_4  and  N_5
REMARK    3  A    between atoms: C_4  and  C_20
REMARK    4  A    between atoms: C_6  and  C_8
REMARK    5  A    between atoms: N_12  and  C_13
REMARK                            x       y       z     vdW  Elec       q    Type
REMARK                         _______ _______ _______ _____ _____    ______ ____
ROOT
ATOM      1  C   UNL     1       3.251   0.017  -1.241  0.00  0.00    +0.000 C 
ENDROOT
BRANCH   1   2
ATOM      2  C   UNL     1       4.758   0.021  -1.051  0.00  0.00    +0.000 A 
ATOM      3  C   UNL     1       5.391   1.024  -0.301  0.00  0.00    +0.000 A 
ATOM      4  C   UNL     1       6.778   1.034  -0.153  0.00  0.00    +0.000 A 
ATOM      5  C   UNL     1       7.568   0.036  -0.740  0.00  0.00    +0.000 A 
ATOM      6  C   UNL     1       8.963   0.024  -0.582  0.00  0.00    +0.000 A 
ATOM      7  C   UNL     1       9.736  -0.983  -1.161  0.00  0.00    +0.000 A 
ATOM      8  C   UNL     1       9.126  -1.985  -1.909  0.00  0.00    +0.000 A 
ATOM      9  C   UNL     1       7.740  -1.982  -2.082  0.00  0.00    +0.000 A 
ATOM     10  C   UNL     1       6.947  -0.980  -1.501  0.00  0.00    +0.000 A 
ATOM     11  C   UNL     1       5.549  -0.968  -1.656  0.00  0.00    +0.000 A 
ENDBRANCH   1   2
BRANCH   1  13
ATOM     12  N   UNL     1       2.297  -1.247   0.660  0.00  0.00    +0.000 N 
ATOM     13  C   UNL     1       2.508  -0.006   0.117  0.00  0.00    +0.000 C 
ATOM     14  O   UNL     1       2.164   1.006   0.728  0.00  0.00    +0.000 OA
ATOM     15  H   UNL     1       1.774  -1.291   1.524  0.00  0.00    +0.000 HD
ATOM     16  H   UNL     1       2.425  -2.101   0.135  0.00  0.00    +0.000 HD
ENDBRANCH   1  13
BRANCH   1  17
ATOM     17  N   UNL     1       2.860   1.181  -2.018  0.00  0.00    +0.000 N 
ATOM     18  C   UNL     1       1.716   1.187  -2.772  0.00  0.00    +0.000 C 
ATOM     19  O   UNL     1       0.989   0.203  -2.849  0.00  0.00    +0.000 OA
ATOM     20  H   UNL     1       3.379   2.036  -1.884  0.00  0.00    +0.000 HD
BRANCH  18  21
ATOM     21  C   UNL     1       1.495   2.421  -3.480  0.00  0.00    +0.000 A 
ATOM     22  C   UNL     1       1.629   3.709  -2.986  0.00  0.00    +0.000 A 
ATOM     23  N   UNL     1       1.278   4.647  -3.910  0.00  0.00    +0.000 NA
ATOM     24  C   UNL     1       0.905   3.954  -4.959  0.00  0.00    +0.000 A 
ATOM     25  N   UNL     1       1.005   2.588  -4.772  0.00  0.00    +0.000 N 
BRANCH  25  26
ATOM     26  C   UNL     1       0.703   1.610  -5.765  0.00  0.00    +0.000 A 
ATOM     27  C   UNL     1       1.333   0.356  -5.761  0.00  0.00    +0.000 A 
ATOM     28  C   UNL     1       0.994  -0.608  -6.713  0.00  0.00    +0.000 A 
ATOM     29  C   UNL     1       0.047  -0.313  -7.680  0.00  0.00    +0.000 A 
ATOM     30  F   UNL     1      -0.281  -1.243  -8.588  0.00  0.00    +0.000 F 
ATOM     31  C   UNL     1      -0.566   0.932  -7.723  0.00  0.00    +0.000 A 
ATOM     32  C   UNL     1      -0.237   1.899  -6.769  0.00  0.00    +0.000 A 
ENDBRANCH  25  26
ENDBRANCH  18  21
ENDBRANCH   1  17
TORSDOF 5
