REMARK  Name = 
REMARK  7 active torsions:
REMARK  status: ('A' for Active; 'I' for Inactive)
REMARK    1  A    between atoms: C_2  and  O_3
REMARK    2  A    between atoms: C_2  and  C_19
REMARK    3  A    between atoms: O_3  and  C_4
REMARK    4  A    between atoms: C_4  and  C_5
REMARK    5  A    between atoms: C_8  and  O_9
REMARK    6  A    between atoms: O_9  and  C_10
REMARK    7  A    between atoms: C_10  and  C_11
REMARK                            x       y       z     vdW  Elec       q    Type
REMARK                         _______ _______ _______ _____ _____    ______ ____
ROOT
ATOM      1  O   UNL     1       3.061   0.849   0.683  0.00  0.00    +0.000 OA
ENDROOT
BRANCH   1   3
ATOM      2  O   UNL     1       3.359   1.515  -1.498  0.00  0.00    +0.000 OA
ATOM      3  C   UNL     1       2.650   1.189  -0.560  0.00  0.00    +0.000 C 
BRANCH   3   4
ATOM      4  C   UNL     1       1.168   1.035  -0.681  0.00  0.00    +0.000 A 
ATOM      5  C   UNL     1       0.397   0.657   0.433  0.00  0.00    +0.000 A 
ATOM      6  C   UNL     1      -0.914   0.224   0.266  0.00  0.00    +0.000 A 
ATOM      7  C   UNL     1      -1.479   0.283  -0.995  0.00  0.00    +0.000 A 
ATOM      8  C   UNL     1      -2.763  -0.333  -1.307  0.00  0.00    +0.000 A 
ATOM      9  N   UNL     1      -3.547   0.111  -2.236  0.00  0.00    +0.000 NA
ATOM     10  N   UNL     1      -3.046   1.140  -2.988  0.00  0.00    +0.000 N 
ATOM     11  C   UNL     1      -1.690   1.379  -3.144  0.00  0.00    +0.000 A 
ATOM     12  O   UNL     1      -1.222   2.034  -4.080  0.00  0.00    +0.000 OA
ATOM     13  C   UNL     1      -0.828   0.917  -2.037  0.00  0.00    +0.000 A 
ATOM     14  C   UNL     1       0.538   1.218  -1.930  0.00  0.00    +0.000 A 
ATOM     15  H   UNL     1      -3.679   1.533  -3.678  0.00  0.00    +0.000 HD
ENDBRANCH   3   4
ENDBRANCH   1   3
BRANCH   1  16
ATOM     16  C   UNL     1       4.479   0.839   0.930  0.00  0.00    +0.000 C 
BRANCH  16  17
ATOM     17  C   UNL     1       4.796   1.821   2.020  0.00  0.00    +0.000 A 
ATOM     18  C   UNL     1       4.556   3.190   1.867  0.00  0.00    +0.000 A 
ATOM     19  C   UNL     1       4.868   4.072   2.903  0.00  0.00    +0.000 A 
ATOM     20  C   UNL     1       5.397   3.551   4.072  0.00  0.00    +0.000 A 
ATOM     21  N   UNL     1       5.659   2.237   4.244  0.00  0.00    +0.000 NA
ATOM     22  C   UNL     1       5.361   1.409   3.220  0.00  0.00    +0.000 A 
BRANCH  20  23
ATOM     23  O   UNL     1       5.697   4.435   5.092  0.00  0.00    +0.000 OA
BRANCH  23  24
ATOM     24  C   UNL     1       5.701   3.769   6.361  0.00  0.00    +0.000 C 
BRANCH  24  25
ATOM     25  C   UNL     1       6.107   4.692   7.491  0.00  0.00    +0.000 A 
ATOM     26  C   UNL     1       5.543   4.512   8.765  0.00  0.00    +0.000 A 
ATOM     27  C   UNL     1       5.977   5.272   9.852  0.00  0.00    +0.000 A 
ATOM     28  C   UNL     1       6.988   6.214   9.682  0.00  0.00    +0.000 A 
ATOM     29  C   UNL     1       7.560   6.401   8.424  0.00  0.00    +0.000 A 
ATOM     30  C   UNL     1       7.126   5.641   7.335  0.00  0.00    +0.000 A 
ENDBRANCH  24  25
ENDBRANCH  23  24
ENDBRANCH  20  23
ENDBRANCH  16  17
ENDBRANCH   1  16
TORSDOF 7
