REMARK  Name = 
REMARK  6 active torsions:
REMARK  status: ('A' for Active; 'I' for Inactive)
REMARK    1  A    between atoms: C_2  and  C_18
REMARK    2  A    between atoms: N_3  and  C_4
REMARK    3  A    between atoms: C_7  and  O_8
REMARK    4  A    between atoms: O_8  and  C_9
REMARK    5  A    between atoms: C_9  and  C_10
REMARK    6  A    between atoms: N_22  and  C_23
REMARK                            x       y       z     vdW  Elec       q    Type
REMARK                         _______ _______ _______ _____ _____    ______ ____
ROOT
ATOM      1  O   UNL     1       1.045   0.339   0.081  0.00  0.00    +0.000 OA
ATOM      2  C   UNL     1       2.236   0.045   0.068  0.00  0.00    +0.000 C 
ATOM      3  N   UNL     1       2.862  -0.836  -0.788  0.00  0.00    +0.000 N 
ATOM      4  H   UNL     1       3.805  -1.120  -0.542  0.00  0.00    +0.000 HD
ENDROOT
BRANCH   2   5
ATOM      5  C   UNL     1       3.131   0.621   1.097  0.00  0.00    +0.000 A 
ATOM      6  C   UNL     1       2.622   1.026   2.263  0.00  0.00    +0.000 A 
ATOM      7  C   UNL     1       3.736   1.702   2.943  0.00  0.00    +0.000 A 
ATOM      8  O   UNL     1       3.608   2.206   4.049  0.00  0.00    +0.000 OA
ATOM      9  N   UNL     1       4.832   1.646   2.075  0.00  0.00    +0.000 N 
ATOM     10  N   UNL     1       4.479   0.899   0.924  0.00  0.00    +0.000 N 
ATOM     11  H   UNL     1       4.630   1.421   0.059  0.00  0.00    +0.000 HD
BRANCH   9  12
ATOM     12  C   UNL     1       6.147   2.107   2.287  0.00  0.00    +0.000 A 
ATOM     13  C   UNL     1       6.508   2.701   3.505  0.00  0.00    +0.000 A 
ATOM     14  C   UNL     1       7.822   3.103   3.752  0.00  0.00    +0.000 A 
ATOM     15  C   UNL     1       8.794   2.939   2.773  0.00  0.00    +0.000 A 
ATOM     16  C   UNL     1       8.448   2.391   1.541  0.00  0.00    +0.000 A 
ATOM     17  C   UNL     1       7.133   1.975   1.299  0.00  0.00    +0.000 A 
ENDBRANCH   9  12
ENDBRANCH   2   5
BRANCH   3  18
ATOM     18  C   UNL     1       2.190  -1.570  -1.791  0.00  0.00    +0.000 A 
ATOM     19  C   UNL     1       0.933  -1.219  -2.283  0.00  0.00    +0.000 A 
ATOM     20  C   UNL     1       0.285  -2.043  -3.199  0.00  0.00    +0.000 A 
ATOM     21  C   UNL     1       0.923  -3.202  -3.596  0.00  0.00    +0.000 A 
ATOM     22  N   UNL     1       2.168  -3.547  -3.201  0.00  0.00    +0.000 NA
ATOM     23  C   UNL     1       2.773  -2.722  -2.314  0.00  0.00    +0.000 A 
BRANCH  21  24
ATOM     24  O   UNL     1       0.243  -4.012  -4.477  0.00  0.00    +0.000 OA
BRANCH  24  25
ATOM     25  C   UNL     1       0.652  -5.377  -4.350  0.00  0.00    +0.000 C 
BRANCH  25  26
ATOM     26  C   UNL     1      -0.113  -6.221  -5.344  0.00  0.00    +0.000 A 
ATOM     27  C   UNL     1       0.015  -5.973  -6.711  0.00  0.00    +0.000 A 
ATOM     28  C   UNL     1      -0.687  -6.772  -7.608  0.00  0.00    +0.000 A 
ATOM     29  C   UNL     1      -1.492  -7.795  -7.122  0.00  0.00    +0.000 A 
ATOM     30  C   UNL     1      -1.559  -7.981  -5.752  0.00  0.00    +0.000 A 
ATOM     31  N   UNL     1      -0.889  -7.223  -4.856  0.00  0.00    +0.000 NA
ENDBRANCH  25  26
ENDBRANCH  24  25
ENDBRANCH  21  24
ENDBRANCH   3  18
TORSDOF 6
