REMARK  Name = 
REMARK  6 active torsions:
REMARK  status: ('A' for Active; 'I' for Inactive)
REMARK    1  A    between atoms: C_2  and  C_16
REMARK    2  A    between atoms: N_3  and  C_4
REMARK    3  A    between atoms: C_4  and  C_5
REMARK    4  A    between atoms: C_9  and  C_10
REMARK    5  A    between atoms: N_18  and  C_19
REMARK    6  A    between atoms: C_27  and  O_28
REMARK                            x       y       z     vdW  Elec       q    Type
REMARK                         _______ _______ _______ _____ _____    ______ ____
ROOT
ATOM      1  O   UNL     1       1.019  -0.246   0.178  0.00  0.00    +0.000 OA
ATOM      2  C   UNL     1       2.249  -0.189   0.111  0.00  0.00    +0.000 C 
ATOM      3  N   UNL     1       2.945  -0.501  -1.035  0.00  0.00    +0.000 N 
ATOM      4  H   UNL     1       3.953  -0.422  -0.988  0.00  0.00    +0.000 HD
ENDROOT
BRANCH   2   5
ATOM      5  C   UNL     1       3.101   0.199   1.243  0.00  0.00    +0.000 A 
ATOM      6  N   UNL     1       4.450   0.228   1.152  0.00  0.00    +0.000 NA
ATOM      7  N   UNL     1       4.883   0.548   2.402  0.00  0.00    +0.000 N 
ATOM      8  C   UNL     1       3.834   0.778   3.265  0.00  0.00    +0.000 A 
ATOM      9  C   UNL     1       2.694   0.575   2.542  0.00  0.00    +0.000 A 
BRANCH   7  10
ATOM     10  C   UNL     1       6.275   0.613   2.706  0.00  0.00    +0.000 A 
ATOM     11  C   UNL     1       7.220   0.417   1.685  0.00  0.00    +0.000 A 
ATOM     12  C   UNL     1       8.587   0.485   1.972  0.00  0.00    +0.000 A 
ATOM     13  C   UNL     1       9.006   0.736   3.273  0.00  0.00    +0.000 A 
ATOM     14  F   UNL     1      10.314   0.798   3.547  0.00  0.00    +0.000 F 
ATOM     15  C   UNL     1       8.085   0.922   4.296  0.00  0.00    +0.000 A 
ATOM     16  C   UNL     1       6.717   0.865   4.016  0.00  0.00    +0.000 A 
ENDBRANCH   7  10
BRANCH   9  17
ATOM     17  O   UNL     1       1.455   0.705   3.037  0.00  0.00    +0.000 OA
ATOM     18  H   UNL     1       1.475   0.994   3.963  0.00  0.00    +0.000 HD
ENDBRANCH   9  17
ENDBRANCH   2   5
BRANCH   3  19
ATOM     19  C   UNL     1       2.289  -0.911  -2.244  0.00  0.00    +0.000 C 
BRANCH  19  20
ATOM     20  C   UNL     1       2.721  -2.287  -2.681  0.00  0.00    +0.000 A 
ATOM     21  C   UNL     1       2.090  -3.422  -2.151  0.00  0.00    +0.000 A 
ATOM     22  C   UNL     1       2.440  -4.693  -2.592  0.00  0.00    +0.000 A 
ATOM     23  C   UNL     1       3.411  -4.843  -3.581  0.00  0.00    +0.000 A 
ATOM     24  C   UNL     1       4.048  -3.728  -4.145  0.00  0.00    +0.000 A 
ATOM     25  C   UNL     1       3.723  -2.454  -3.654  0.00  0.00    +0.000 A 
BRANCH  24  26
ATOM     26  C   UNL     1       4.951  -3.909  -5.278  0.00  0.00    +0.000 A 
ATOM     27  C   UNL     1       5.293  -5.000  -6.057  0.00  0.00    +0.000 A 
ATOM     28  C   UNL     1       6.153  -4.525  -7.076  0.00  0.00    +0.000 A 
ATOM     29  C   UNL     1       6.298  -3.178  -6.852  0.00  0.00    +0.000 A 
ATOM     30  O   UNL     1       5.580  -2.795  -5.764  0.00  0.00    +0.000 OA
ENDBRANCH  24  26
ENDBRANCH  19  20
ENDBRANCH   3  19
TORSDOF 6
