REMARK  Name = 
REMARK  4 active torsions:
REMARK  status: ('A' for Active; 'I' for Inactive)
REMARK    1  A    between atoms: N_3  and  C_4
REMARK    2  A    between atoms: C_7  and  C_8
REMARK    3  A    between atoms: N_16  and  C_17
REMARK    4  A    between atoms: C_21  and  N_22
REMARK                            x       y       z     vdW  Elec       q    Type
REMARK                         _______ _______ _______ _____ _____    ______ ____
ROOT
ATOM      1  O   UNL     1       1.338   0.262  -0.521  0.00  0.00    +0.000 OA
ATOM      2  C   UNL     1       2.436   0.049  -0.015  0.00  0.00    +0.000 C 
ATOM      3  N   UNL     1       2.927  -1.223   0.225  0.00  0.00    +0.000 N 
ATOM      4  N   UNL     1       3.314   1.055   0.420  0.00  0.00    +0.000 N 
ATOM      5  H   UNL     1       3.805  -1.288   0.717  0.00  0.00    +0.000 HD
ATOM      6  H   UNL     1       4.245   0.772   0.695  0.00  0.00    +0.000 HD
ENDROOT
BRANCH   4   7
ATOM      7  C   UNL     1       3.039   2.458   0.418  0.00  0.00    +0.000 A 
ATOM      8  C   UNL     1       1.785   2.963   0.112  0.00  0.00    +0.000 A 
ATOM      9  C   UNL     1       1.526   4.334   0.073  0.00  0.00    +0.000 A 
ATOM     10  F   UNL     1       0.251   4.681  -0.132  0.00  0.00    +0.000 F 
ATOM     11  C   UNL     1       2.531   5.278   0.264  0.00  0.00    +0.000 A 
ATOM     12  C   UNL     1       3.767   4.782   0.679  0.00  0.00    +0.000 A 
ATOM     13  F   UNL     1       4.766   5.610   1.031  0.00  0.00    +0.000 F 
ATOM     14  C   UNL     1       4.031   3.391   0.762  0.00  0.00    +0.000 A 
BRANCH  11  15
ATOM     15  N   UNL     1       2.286   6.651  -0.037  0.00  0.00    +0.000 N 
ATOM     16  C   UNL     1       1.147   7.198  -0.606  0.00  0.00    +0.000 A 
ATOM     17  C   UNL     1       1.403   8.530  -0.816  0.00  0.00    +0.000 A 
ATOM     18  N   UNL     1       2.648   8.849  -0.376  0.00  0.00    +0.000 NA
ATOM     19  C   UNL     1       3.173   7.711   0.033  0.00  0.00    +0.000 A 
ENDBRANCH  11  15
ENDBRANCH   4   7
BRANCH   3  20
ATOM     20  C   UNL     1       2.241  -2.457   0.029  0.00  0.00    +0.000 A 
ATOM     21  C   UNL     1       1.035  -2.616  -0.663  0.00  0.00    +0.000 A 
ATOM     22  C   UNL     1       0.400  -3.872  -0.741  0.00  0.00    +0.000 A 
ATOM     23  C   UNL     1       0.940  -5.009  -0.123  0.00  0.00    +0.000 A 
ATOM     24  C   UNL     1       2.173  -4.846   0.536  0.00  0.00    +0.000 A 
ATOM     25  C   UNL     1       2.811  -3.602   0.601  0.00  0.00    +0.000 A 
BRANCH  23  26
ATOM     26  C   UNL     1       0.255  -6.304  -0.128  0.00  0.00    +0.000 A 
ATOM     27  C   UNL     1      -0.554  -6.843  -1.064  0.00  0.00    +0.000 A 
ATOM     28  N   UNL     1      -0.974  -8.077  -0.624  0.00  0.00    +0.000 N 
ATOM     29  C   UNL     1      -0.427  -8.337   0.633  0.00  0.00    +0.000 A 
ATOM     30  O   UNL     1      -0.581  -9.321   1.331  0.00  0.00    +0.000 OA
ATOM     31  N   UNL     1       0.346  -7.201   0.914  0.00  0.00    +0.000 N 
ATOM     32  H   UNL     1      -1.591  -8.720  -1.106  0.00  0.00    +0.000 HD
ATOM     33  H   UNL     1       0.846  -7.076   1.780  0.00  0.00    +0.000 HD
ENDBRANCH  23  26
ENDBRANCH   3  20
TORSDOF 4
