REMARK  Name = 
REMARK  11 active torsions:
REMARK  status: ('A' for Active; 'I' for Inactive)
REMARK    1  A    between atoms: C_1  and  N_2
REMARK    2  A    between atoms: N_2  and  C_3
REMARK    3  A    between atoms: C_3  and  C_4
REMARK    4  A    between atoms: C_4  and  O_5
REMARK    5  A    between atoms: O_5  and  C_6
REMARK    6  A    between atoms: C_10  and  C_11
REMARK    7  A    between atoms: C_14  and  C_16
REMARK    8  A    between atoms: C_20  and  C_21
REMARK    9  A    between atoms: C_21  and  O_22
REMARK   10  A    between atoms: O_22  and  C_23
REMARK   11  A    between atoms: C_28  and  C_29
REMARK                            x       y       z     vdW  Elec       q    Type
REMARK                         _______ _______ _______ _____ _____    ______ ____
ROOT
ATOM      1  C   UNL     1       4.813   0.857  -0.868  0.00  0.00    +0.000 A 
ATOM      2  C   UNL     1       5.539  -0.307  -1.127  0.00  0.00    +0.000 A 
ATOM      3  C   UNL     1       6.933  -0.288  -1.192  0.00  0.00    +0.000 A 
ATOM      4  C   UNL     1       7.617   0.920  -1.136  0.00  0.00    +0.000 A 
ATOM      5  C   UNL     1       6.904   2.119  -1.033  0.00  0.00    +0.000 A 
ATOM      6  C   UNL     1       5.512   2.075  -0.837  0.00  0.00    +0.000 A 
ENDROOT
BRANCH   1   9
ATOM      7  C   UNL     1       1.120   0.056  -0.238  0.00  0.00    +0.000 C 
ATOM      8  N   UNL     1       2.563  -0.166  -0.243  0.00  0.00    +0.000 N 
ATOM      9  C   UNL     1       3.321   0.907  -0.753  0.00  0.00    +0.000 C 
ATOM     10  O   UNL     1       2.772   1.951  -1.116  0.00  0.00    +0.000 OA
BRANCH   8  11
ATOM     11  C   UNL     1       3.132  -1.348   0.424  0.00  0.00    +0.000 C 
BRANCH  11  12
ATOM     12  C   UNL     1       2.181  -2.289   1.155  0.00  0.00    +0.000 C 
BRANCH  12  13
ATOM     13  O   UNL     1       2.932  -3.368   1.719  0.00  0.00    +0.000 OA
BRANCH  13  14
ATOM     14  C   UNL     1       2.190  -4.332   2.350  0.00  0.00    +0.000 A 
ATOM     15  C   UNL     1       0.800  -4.307   2.502  0.00  0.00    +0.000 A 
ATOM     16  C   UNL     1       0.142  -5.330   3.179  0.00  0.00    +0.000 A 
ATOM     17  C   UNL     1       0.874  -6.391   3.713  0.00  0.00    +0.000 A 
ATOM     18  C   UNL     1       2.258  -6.434   3.557  0.00  0.00    +0.000 A 
ATOM     19  C   UNL     1       2.918  -5.400   2.876  0.00  0.00    +0.000 A 
BRANCH  18  20
ATOM     20  C   UNL     1       3.008  -7.526   4.097  0.00  0.00    +0.000 C 
ATOM     21  N   UNL     1       3.601  -8.428   4.534  0.00  0.00    +0.000 NA
ENDBRANCH  18  20
ENDBRANCH  13  14
ENDBRANCH  12  13
ENDBRANCH  11  12
ENDBRANCH   8  11
ENDBRANCH   1   9
BRANCH   5  22
ATOM     22  C   UNL     1       7.611   3.442  -1.180  0.00  0.00    +0.000 C 
BRANCH  22  23
ATOM     23  O   UNL     1       8.077   3.845   0.100  0.00  0.00    +0.000 OA
BRANCH  23  24
ATOM     24  C   UNL     1       8.744   5.043   0.174  0.00  0.00    +0.000 A 
ATOM     25  C   UNL     1       8.527   6.095  -0.730  0.00  0.00    +0.000 A 
ATOM     26  C   UNL     1       9.150   7.332  -0.551  0.00  0.00    +0.000 A 
ATOM     27  C   UNL     1       9.990   7.539   0.536  0.00  0.00    +0.000 A 
ATOM     28  C   UNL     1      10.231   6.496   1.431  0.00  0.00    +0.000 A 
ATOM     29  C   UNL     1       9.624   5.239   1.257  0.00  0.00    +0.000 A 
BRANCH  29  30
ATOM     30  C   UNL     1      10.002   4.177   2.244  0.00  0.00    +0.000 C 
ATOM     31  N   UNL     1       9.505   2.917   2.065  0.00  0.00    +0.000 N 
ATOM     32  O   UNL     1      10.752   4.409   3.185  0.00  0.00    +0.000 OA
ATOM     33  H   UNL     1       8.788   2.732   1.374  0.00  0.00    +0.000 HD
ATOM     34  H   UNL     1       9.704   2.219   2.768  0.00  0.00    +0.000 HD
ENDBRANCH  29  30
ENDBRANCH  23  24
ENDBRANCH  22  23
ENDBRANCH   5  22
TORSDOF 10
