REMARK  Name = 
REMARK  6 active torsions:
REMARK  status: ('A' for Active; 'I' for Inactive)
REMARK    1  A    between atoms: C_2  and  C_17
REMARK    2  A    between atoms: N_3  and  C_4
REMARK    3  A    between atoms: C_4  and  C_5
REMARK    4  A    between atoms: C_5  and  C_6
REMARK    5  A    between atoms: N_19  and  C_20
REMARK    6  A    between atoms: C_28  and  O_29
REMARK                            x       y       z     vdW  Elec       q    Type
REMARK                         _______ _______ _______ _____ _____    ______ ____
ROOT
ATOM      1  O   UNL     1       1.033   0.199   0.083  0.00  0.00    +0.000 OA
ATOM      2  C   UNL     1       2.259   0.136   0.063  0.00  0.00    +0.000 C 
ATOM      3  N   UNL     1       2.996  -0.244   1.171  0.00  0.00    +0.000 N 
ATOM      4  H   UNL     1       4.007  -0.224   1.070  0.00  0.00    +0.000 HD
ENDROOT
BRANCH   2   5
ATOM      5  C   UNL     1       3.074   0.470  -1.119  0.00  0.00    +0.000 A 
ATOM      6  N   UNL     1       4.425   0.423  -1.103  0.00  0.00    +0.000 NA
ATOM      7  N   UNL     1       4.809   0.846  -2.341  0.00  0.00    +0.000 N 
ATOM      8  C   UNL     1       3.728   1.125  -3.146  0.00  0.00    +0.000 A 
ATOM      9  C   UNL     1       2.616   0.877  -2.391  0.00  0.00    +0.000 A 
BRANCH   7  10
ATOM     10  C   UNL     1       6.188   0.954  -2.685  0.00  0.00    +0.000 A 
ATOM     11  C   UNL     1       6.590   1.492  -3.920  0.00  0.00    +0.000 A 
ATOM     12  C   UNL     1       7.949   1.584  -4.242  0.00  0.00    +0.000 A 
ATOM     13  C   UNL     1       8.910   1.133  -3.341  0.00  0.00    +0.000 A 
ATOM     14  C   UNL     1       8.508   0.602  -2.120  0.00  0.00    +0.000 A 
ATOM     15  F   UNL     1       9.436   0.165  -1.259  0.00  0.00    +0.000 F 
ATOM     16  C   UNL     1       7.163   0.514  -1.780  0.00  0.00    +0.000 A 
ENDBRANCH   7  10
BRANCH   9  17
ATOM     17  O   UNL     1       1.359   1.020  -2.832  0.00  0.00    +0.000 OA
ATOM     18  H   UNL     1       1.340   1.297  -3.763  0.00  0.00    +0.000 HD
ENDBRANCH   9  17
ENDBRANCH   2   5
BRANCH   3  19
ATOM     19  C   UNL     1       2.344  -0.525   2.433  0.00  0.00    +0.000 C 
BRANCH  19  20
ATOM     20  C   UNL     1       3.312  -0.921   3.546  0.00  0.00    +0.000 C 
BRANCH  20  21
ATOM     21  C   UNL     1       2.602  -1.239   4.830  0.00  0.00    +0.000 A 
ATOM     22  C   UNL     1       2.130  -2.478   5.219  0.00  0.00    +0.000 A 
ATOM     23  N   UNL     1       1.535  -2.352   6.445  0.00  0.00    +0.000 N 
ATOM     24  C   UNL     1       1.609  -1.048   6.877  0.00  0.00    +0.000 A 
ATOM     25  C   UNL     1       1.143  -0.456   8.057  0.00  0.00    +0.000 A 
ATOM     26  C   UNL     1       1.365   0.912   8.220  0.00  0.00    +0.000 A 
ATOM     27  F   UNL     1       0.934   1.509   9.340  0.00  0.00    +0.000 F 
ATOM     28  C   UNL     1       2.017   1.671   7.260  0.00  0.00    +0.000 A 
ATOM     29  C   UNL     1       2.469   1.059   6.093  0.00  0.00    +0.000 A 
ATOM     30  F   UNL     1       3.096   1.803   5.171  0.00  0.00    +0.000 F 
ATOM     31  C   UNL     1       2.273  -0.323   5.882  0.00  0.00    +0.000 A 
ATOM     32  H   UNL     1       1.100  -3.105   6.962  0.00  0.00    +0.000 HD
ENDBRANCH  20  21
ENDBRANCH  19  20
ENDBRANCH   3  19
TORSDOF 6
