REMARK  Name = 
REMARK  6 active torsions:
REMARK  status: ('A' for Active; 'I' for Inactive)
REMARK    1  A    between atoms: C_1  and  C_2
REMARK    2  A    between atoms: N_4  and  C_5
REMARK    3  A    between atoms: C_8  and  O_9
REMARK    4  A    between atoms: O_9  and  C_10
REMARK    5  A    between atoms: C_13  and  C_14
REMARK    6  A    between atoms: N_16  and  C_17
REMARK                            x       y       z     vdW  Elec       q    Type
REMARK                         _______ _______ _______ _____ _____    ______ ____
ROOT
ATOM      1  C   UNL     1       9.702  -1.041   0.091  0.00  0.00    +0.000 A 
ATOM      2  C   UNL     1       9.516  -2.287   0.704  0.00  0.00    +0.000 A 
ATOM      3  C   UNL     1      10.340  -2.691   1.771  0.00  0.00    +0.000 A 
ATOM      4  C   UNL     1      11.366  -1.852   2.211  0.00  0.00    +0.000 A 
ATOM      5  C   UNL     1      11.563  -0.620   1.566  0.00  0.00    +0.000 A 
ATOM      6  C   UNL     1      10.754  -0.225   0.505  0.00  0.00    +0.000 A 
ENDROOT
BRANCH   4   7
ATOM      7  C   UNL     1      12.357  -2.204   3.271  0.00  0.00    +0.000 C 
ATOM      8  O   UNL     1      13.469  -1.697   3.149  0.00  0.00    +0.000 OA
ATOM      9  N   UNL     1      11.935  -2.988   4.344  0.00  0.00    +0.000 N 
ATOM     10  H   UNL     1      10.942  -3.122   4.438  0.00  0.00    +0.000 HD
BRANCH   9  11
ATOM     11  C   UNL     1      12.754  -3.228   5.504  0.00  0.00    +0.000 A 
ATOM     12  C   UNL     1      14.147  -3.089   5.431  0.00  0.00    +0.000 A 
ATOM     13  C   UNL     1      14.947  -3.085   6.572  0.00  0.00    +0.000 A 
ATOM     14  C   UNL     1      14.355  -3.197   7.821  0.00  0.00    +0.000 A 
ATOM     15  C   UNL     1      12.978  -3.418   7.926  0.00  0.00    +0.000 A 
ATOM     16  C   UNL     1      12.370  -3.542   9.172  0.00  0.00    +0.000 A 
ATOM     17  N   UNL     1      11.068  -3.852   9.335  0.00  0.00    +0.000 NA
ATOM     18  N   UNL     1      10.305  -4.067   8.240  0.00  0.00    +0.000 NA
ATOM     19  C   UNL     1      10.842  -3.889   7.010  0.00  0.00    +0.000 A 
ATOM     20  C   UNL     1      12.170  -3.518   6.772  0.00  0.00    +0.000 A 
ENDBRANCH   9  11
ENDBRANCH   4   7
BRANCH   1  21
ATOM     21  O   UNL     1       8.879  -0.704  -0.963  0.00  0.00    +0.000 OA
BRANCH  21  25
ATOM     22  C   UNL     1       7.739   3.267  -1.369  0.00  0.00    +0.000 A 
ATOM     23  C   UNL     1       7.932   2.473  -2.499  0.00  0.00    +0.000 A 
ATOM     24  C   UNL     1       8.317   1.136  -2.357  0.00  0.00    +0.000 A 
ATOM     25  C   UNL     1       8.510   0.635  -1.079  0.00  0.00    +0.000 A 
ATOM     26  N   UNL     1       8.337   1.375   0.040  0.00  0.00    +0.000 NA
ATOM     27  C   UNL     1       7.979   2.668  -0.134  0.00  0.00    +0.000 A 
BRANCH  22  31
ATOM     28  C   UNL     1       6.413   6.704  -2.184  0.00  0.00    +0.000 C 
ATOM     29  C   UNL     1       6.773   5.273  -2.493  0.00  0.00    +0.000 C 
ATOM     30  O   UNL     1       6.580   4.803  -3.608  0.00  0.00    +0.000 OA
ATOM     31  N   UNL     1       7.314   4.614  -1.403  0.00  0.00    +0.000 N 
ATOM     32  H   UNL     1       7.299   5.106  -0.518  0.00  0.00    +0.000 HD
ENDBRANCH  22  31
ENDBRANCH  21  25
ENDBRANCH   1  21
TORSDOF 5
