REMARK  Name = 
REMARK  6 active torsions:
REMARK  status: ('A' for Active; 'I' for Inactive)
REMARK    1  A    between atoms: C_1  and  O_2
REMARK    2  A    between atoms: O_2  and  C_3
REMARK    3  A    between atoms: C_5  and  C_6
REMARK    4  A    between atoms: N_8  and  C_9
REMARK    5  A    between atoms: C_10  and  C_11
REMARK    6  A    between atoms: N_15  and  C_16
REMARK                            x       y       z     vdW  Elec       q    Type
REMARK                         _______ _______ _______ _____ _____    ______ ____
ROOT
ATOM      1  C   UNL     1       3.333   4.933  -0.646  0.00  0.00    +0.000 C 
ATOM      2  O   UNL     1       4.180   5.687  -1.115  0.00  0.00    +0.000 OA
ATOM      3  N   UNL     1       2.109   5.377  -0.150  0.00  0.00    +0.000 N 
ATOM      4  H   UNL     1       1.693   4.777   0.558  0.00  0.00    +0.000 HD
ENDROOT
BRANCH   1   7
ATOM      5  C   UNL     1       5.244   1.641  -0.822  0.00  0.00    +0.000 A 
ATOM      6  C   UNL     1       4.923   3.000  -0.895  0.00  0.00    +0.000 A 
ATOM      7  C   UNL     1       3.648   3.485  -0.518  0.00  0.00    +0.000 A 
ATOM      8  C   UNL     1       2.737   2.531  -0.066  0.00  0.00    +0.000 A 
ATOM      9  O   UNL     1       1.456   2.756   0.362  0.00  0.00    +0.000 OA
ATOM     10  C   UNL     1       0.920   1.552   0.687  0.00  0.00    +0.000 A 
ATOM     11  C   UNL     1       1.841   0.547   0.496  0.00  0.00    +0.000 A 
ATOM     12  C   UNL     1       3.019   1.170   0.016  0.00  0.00    +0.000 A 
ATOM     13  C   UNL     1       4.295   0.716  -0.365  0.00  0.00    +0.000 A 
BRANCH   5  15
ATOM     14  C   UNL     1       7.427   1.926  -1.740  0.00  0.00    +0.000 C 
ATOM     15  O   UNL     1       6.447   1.077  -1.154  0.00  0.00    +0.000 OA
ENDBRANCH   5  15
ENDBRANCH   1   7
BRANCH   3  16
ATOM     16  C   UNL     1       1.656   6.688  -0.237  0.00  0.00    +0.000 A 
ATOM     17  C   UNL     1       1.618   7.431  -1.365  0.00  0.00    +0.000 A 
ATOM     18  C   UNL     1       1.235   8.863  -1.336  0.00  0.00    +0.000 A 
ATOM     19  O   UNL     1       1.175   9.487  -2.396  0.00  0.00    +0.000 OA
ATOM     20  N   UNL     1       0.931   9.390  -0.065  0.00  0.00    +0.000 N 
ATOM     21  C   UNL     1       0.904   8.578   1.062  0.00  0.00    +0.000 A 
ATOM     22  C   UNL     1       1.219   7.279   1.007  0.00  0.00    +0.000 A 
BRANCH  20  23
ATOM     23  C   UNL     1       0.571  10.771   0.014  0.00  0.00    +0.000 A 
ATOM     24  C   UNL     1      -0.580  11.158   0.711  0.00  0.00    +0.000 A 
ATOM     25  C   UNL     1      -0.992  12.491   0.699  0.00  0.00    +0.000 A 
ATOM     26  C   UNL     1      -0.234  13.452   0.032  0.00  0.00    +0.000 A 
ATOM     27  C   UNL     1       0.939  13.085  -0.624  0.00  0.00    +0.000 A 
ATOM     28  C   UNL     1       1.335  11.747  -0.641  0.00  0.00    +0.000 A 
ENDBRANCH  20  23
BRANCH  17  29
ATOM     29  C   UNL     1       2.057   6.844  -2.697  0.00  0.00    +0.000 C 
ATOM     30  N   UNL     1       2.420   6.357  -3.802  0.00  0.00    +0.000 NA
ENDBRANCH  17  29
ENDBRANCH   3  16
TORSDOF 5
