REMARK  Name = 
REMARK  8 active torsions:
REMARK  status: ('A' for Active; 'I' for Inactive)
REMARK    1  A    between atoms: C_2  and  C_3
REMARK    2  A    between atoms: C_2  and  O_11
REMARK    3  A    between atoms: C_3  and  C_4
REMARK    4  A    between atoms: C_4  and  C_5
REMARK    5  A    between atoms: O_11  and  C_12
REMARK    6  A    between atoms: C_12  and  C_13
REMARK    7  A    between atoms: C_13  and  C_15
REMARK    8  A    between atoms: C_16  and  C_17
REMARK                            x       y       z     vdW  Elec       q    Type
REMARK                         _______ _______ _______ _____ _____    ______ ____
ROOT
ATOM      1  C   UNL     1       6.183   2.167  -1.824  0.00  0.00    +0.000 A 
ATOM      2  C   UNL     1       6.818   3.416  -1.770  0.00  0.00    +0.000 A 
ATOM      3  N   UNL     1       8.159   3.185  -1.992  0.00  0.00    +0.000 N 
ATOM      4  C   UNL     1       8.416   1.858  -2.215  0.00  0.00    +0.000 A 
ATOM      5  C   UNL     1       9.637   1.218  -2.474  0.00  0.00    +0.000 A 
ATOM      6  C   UNL     1       9.623  -0.163  -2.671  0.00  0.00    +0.000 A 
ATOM      7  C   UNL     1       8.432  -0.874  -2.603  0.00  0.00    +0.000 A 
ATOM      8  C   UNL     1       7.226  -0.218  -2.328  0.00  0.00    +0.000 A 
ATOM      9  C   UNL     1       7.198   1.184  -2.136  0.00  0.00    +0.000 A 
ATOM     10  H   UNL     1       8.868   3.905  -2.015  0.00  0.00    +0.000 HD
ENDROOT
BRANCH   2  11
ATOM     11  C   UNL     1       6.312   4.789  -1.587  0.00  0.00    +0.000 A 
ATOM     12  C   UNL     1       7.085   5.766  -0.933  0.00  0.00    +0.000 A 
ATOM     13  C   UNL     1       6.613   7.076  -0.787  0.00  0.00    +0.000 A 
ATOM     14  C   UNL     1       5.360   7.412  -1.281  0.00  0.00    +0.000 A 
ATOM     15  F   UNL     1       4.904   8.662  -1.133  0.00  0.00    +0.000 F 
ATOM     16  C   UNL     1       4.577   6.469  -1.930  0.00  0.00    +0.000 A 
ATOM     17  C   UNL     1       5.059   5.167  -2.094  0.00  0.00    +0.000 A 
ENDBRANCH   2  11
BRANCH   1  18
ATOM     18  C   UNL     1       4.749   1.936  -1.569  0.00  0.00    +0.000 C 
ATOM     19  O   UNL     1       4.128   2.613  -0.747  0.00  0.00    +0.000 OA
BRANCH  18  20
ATOM     20  C   UNL     1       4.036   0.825  -2.345  0.00  0.00    +0.000 C 
BRANCH  20  21
ATOM     21  O   UNL     1       2.633   0.729  -2.074  0.00  0.00    +0.000 OA
BRANCH  21  23
ATOM     22  O   UNL     1       2.256   2.447  -3.539  0.00  0.00    +0.000 OA
ATOM     23  C   UNL     1       1.849   1.618  -2.738  0.00  0.00    +0.000 C 
BRANCH  23  24
ATOM     24  C   UNL     1       0.409   1.441  -2.326  0.00  0.00    +0.000 C 
BRANCH  24  25
ATOM     25  C   UNL     1      -0.525   1.787  -3.480  0.00  0.00    +0.000 C 
BRANCH  25  26
ATOM     26  C   UNL     1      -1.967   1.631  -3.090  0.00  0.00    +0.000 A 
ATOM     27  C   UNL     1      -2.698   2.708  -2.593  0.00  0.00    +0.000 A 
ATOM     28  N   UNL     1      -3.998   2.612  -2.227  0.00  0.00    +0.000 NA
ATOM     29  C   UNL     1      -4.550   1.388  -2.377  0.00  0.00    +0.000 A 
ATOM     30  C   UNL     1      -3.831   0.309  -2.861  0.00  0.00    +0.000 A 
ATOM     31  N   UNL     1      -2.529   0.403  -3.223  0.00  0.00    +0.000 NA
ENDBRANCH  25  26
ENDBRANCH  24  25
ENDBRANCH  23  24
ENDBRANCH  21  23
ENDBRANCH  20  21
ENDBRANCH  18  20
ENDBRANCH   1  18
TORSDOF 8
