REMARK  Name = 
REMARK  6 active torsions:
REMARK  status: ('A' for Active; 'I' for Inactive)
REMARK    1  A    between atoms: C_2  and  O_3
REMARK    2  A    between atoms: C_2  and  C_16
REMARK    3  A    between atoms: O_3  and  C_4
REMARK    4  A    between atoms: C_4  and  C_5
REMARK    5  A    between atoms: N_9  and  C_10
REMARK    6  A    between atoms: C_18  and  C_19
REMARK                            x       y       z     vdW  Elec       q    Type
REMARK                         _______ _______ _______ _____ _____    ______ ____
ROOT
ATOM      1  O   UNL     1       1.106  -0.002   0.003  0.00  0.00    +0.000 OA
ATOM      2  C   UNL     1       2.326   0.058   0.048  0.00  0.00    +0.000 C 
ENDROOT
BRANCH   2   3
ATOM      3  C   UNL     1       3.154  -0.851   0.892  0.00  0.00    +0.000 A 
ATOM      4  C   UNL     1       2.481  -1.823   1.654  0.00  0.00    +0.000 A 
ATOM      5  C   UNL     1       3.174  -2.829   2.355  0.00  0.00    +0.000 A 
ATOM      6  C   UNL     1       4.579  -2.814   2.276  0.00  0.00    +0.000 A 
ATOM      7  C   UNL     1       5.243  -1.827   1.559  0.00  0.00    +0.000 A 
ATOM      8  F   UNL     1       6.582  -1.851   1.495  0.00  0.00    +0.000 F 
ATOM      9  C   UNL     1       4.550  -0.831   0.882  0.00  0.00    +0.000 A 
BRANCH   5  10
ATOM     10  C   UNL     1       2.470  -3.874   3.125  0.00  0.00    +0.000 A 
ATOM     11  C   UNL     1       1.199  -4.339   2.781  0.00  0.00    +0.000 A 
ATOM     12  C   UNL     1       0.592  -5.317   3.562  0.00  0.00    +0.000 A 
ATOM     13  C   UNL     1       1.261  -5.813   4.671  0.00  0.00    +0.000 A 
ATOM     14  C   UNL     1       2.520  -5.310   4.947  0.00  0.00    +0.000 A 
ATOM     15  N   UNL     1       3.135  -4.365   4.202  0.00  0.00    +0.000 NA
ENDBRANCH   5  10
ENDBRANCH   2   3
BRANCH   2  16
ATOM     16  O   UNL     1       3.108   0.830  -0.736  0.00  0.00    +0.000 OA
BRANCH  16  17
ATOM     17  C   UNL     1       2.499   1.236  -1.978  0.00  0.00    +0.000 C 
BRANCH  17  18
ATOM     18  C   UNL     1       2.816   0.175  -2.981  0.00  0.00    +0.000 A 
ATOM     19  N   UNL     1       3.522  -0.924  -2.753  0.00  0.00    +0.000 NA
ATOM     20  C   UNL     1       3.232  -1.711  -3.818  0.00  0.00    +0.000 A 
ATOM     21  N   UNL     1       2.401  -1.177  -4.713  0.00  0.00    +0.000 NA
ATOM     22  N   UNL     1       2.229   0.080  -4.233  0.00  0.00    +0.000 N 
BRANCH  22  23
ATOM     23  C   UNL     1       1.533   1.057  -4.987  0.00  0.00    +0.000 A 
ATOM     24  C   UNL     1       0.516   0.653  -5.862  0.00  0.00    +0.000 A 
ATOM     25  C   UNL     1      -0.195   1.609  -6.591  0.00  0.00    +0.000 A 
ATOM     26  C   UNL     1       0.132   2.960  -6.479  0.00  0.00    +0.000 A 
ATOM     27  C   UNL     1       1.171   3.360  -5.641  0.00  0.00    +0.000 A 
ATOM     28  C   UNL     1       1.871   2.413  -4.892  0.00  0.00    +0.000 A 
ENDBRANCH  22  23
ENDBRANCH  17  18
ENDBRANCH  16  17
ENDBRANCH   2  16
TORSDOF 6
