REMARK  Name = 
REMARK  7 active torsions:
REMARK  status: ('A' for Active; 'I' for Inactive)
REMARK    1  A    between atoms: C_1  and  N_2
REMARK    2  A    between atoms: C_3  and  C_5
REMARK    3  A    between atoms: C_8  and  C_9
REMARK    4  A    between atoms: N_13  and  C_14
REMARK    5  A    between atoms: C_20  and  O_21
REMARK    6  A    between atoms: O_21  and  C_22
REMARK    7  A    between atoms: C_22  and  C_23
REMARK                            x       y       z     vdW  Elec       q    Type
REMARK                         _______ _______ _______ _____ _____    ______ ____
ROOT
ATOM      1  C   UNL     1       1.031   0.220   0.238  0.00  0.00    +0.000 C 
ATOM      2  N   UNL     1       2.467   0.043   0.130  0.00  0.00    +0.000 N 
ATOM      3  C   UNL     1       3.155  -0.814   0.985  0.00  0.00    +0.000 C 
ATOM      4  O   UNL     1       2.554  -1.498   1.821  0.00  0.00    +0.000 OA
ATOM      5  C   UNL     1       3.075   0.859  -0.818  0.00  0.00    +0.000 A 
ATOM      6  N   UNL     1       3.528   0.314  -1.958  0.00  0.00    +0.000 NA
ATOM      7  C   UNL     1       4.250   1.126  -2.763  0.00  0.00    +0.000 A 
ATOM      8  C   UNL     1       4.575   2.429  -2.451  0.00  0.00    +0.000 A 
ATOM      9  C   UNL     1       4.086   2.867  -1.241  0.00  0.00    +0.000 A 
ATOM     10  N   UNL     1       3.300   2.129  -0.437  0.00  0.00    +0.000 NA
ENDROOT
BRANCH   3  11
ATOM     11  C   UNL     1       4.654  -0.982   0.940  0.00  0.00    +0.000 A 
ATOM     12  C   UNL     1       5.563  -0.010   0.524  0.00  0.00    +0.000 A 
ATOM     13  C   UNL     1       6.929  -0.283   0.412  0.00  0.00    +0.000 A 
ATOM     14  C   UNL     1       7.457  -1.505   0.830  0.00  0.00    +0.000 A 
ATOM     15  C   UNL     1       6.567  -2.433   1.381  0.00  0.00    +0.000 A 
ATOM     16  C   UNL     1       5.184  -2.188   1.409  0.00  0.00    +0.000 A 
BRANCH  14  17
ATOM     17  C   UNL     1       8.905  -1.727   0.718  0.00  0.00    +0.000 A 
ATOM     18  C   UNL     1       9.929  -0.789   0.717  0.00  0.00    +0.000 A 
ATOM     19  C   UNL     1      11.118  -1.512   0.549  0.00  0.00    +0.000 A 
ATOM     20  N   UNL     1      10.896  -2.818   0.442  0.00  0.00    +0.000 NA
ATOM     21  N   UNL     1       9.553  -2.932   0.524  0.00  0.00    +0.000 N 
ATOM     22  C   UNL     1       8.979  -4.246   0.362  0.00  0.00    +0.000 C 
ENDBRANCH  14  17
ENDBRANCH   3  11
BRANCH   8  23
ATOM     23  O   UNL     1       5.332   3.141  -3.326  0.00  0.00    +0.000 OA
BRANCH  23  24
ATOM     24  C   UNL     1       5.337   4.553  -3.097  0.00  0.00    +0.000 C 
BRANCH  24  25
ATOM     25  C   UNL     1       5.668   5.266  -4.377  0.00  0.00    +0.000 A 
ATOM     26  C   UNL     1       4.698   6.056  -5.012  0.00  0.00    +0.000 A 
ATOM     27  C   UNL     1       5.001   6.739  -6.185  0.00  0.00    +0.000 A 
ATOM     28  C   UNL     1       6.275   6.638  -6.740  0.00  0.00    +0.000 A 
ATOM     29  C   UNL     1       7.243   5.849  -6.121  0.00  0.00    +0.000 A 
ATOM     30  C   UNL     1       6.944   5.163  -4.945  0.00  0.00    +0.000 A 
ENDBRANCH  24  25
ENDBRANCH  23  24
ENDBRANCH   8  23
TORSDOF 5
