REMARK  Name = 
REMARK  7 active torsions:
REMARK  status: ('A' for Active; 'I' for Inactive)
REMARK    1  A    between atoms: C_2  and  C_3
REMARK    2  A    between atoms: C_6  and  C_7
REMARK    3  A    between atoms: N_9  and  C_10
REMARK    4  A    between atoms: C_10  and  C_11
REMARK    5  A    between atoms: C_10  and  C_20
REMARK    6  A    between atoms: C_11  and  C_13
REMARK    7  A    between atoms: C_13  and  C_14
REMARK                            x       y       z     vdW  Elec       q    Type
REMARK                         _______ _______ _______ _____ _____    ______ ____
ROOT
ATOM      1  C   UNL     1       7.346  -5.898  -0.065  0.00  0.00    +0.000 C 
ENDROOT
BRANCH   1   2
ATOM      2  C   UNL     1       8.748  -6.469   0.095  0.00  0.00    +0.000 A 
ATOM      3  C   UNL     1       9.030  -7.378   1.130  0.00  0.00    +0.000 A 
ATOM      4  C   UNL     1      10.319  -7.891   1.299  0.00  0.00    +0.000 A 
ATOM      5  C   UNL     1      11.342  -7.512   0.435  0.00  0.00    +0.000 A 
ATOM      6  C   UNL     1      11.074  -6.633  -0.611  0.00  0.00    +0.000 A 
ATOM      7  C   UNL     1       9.786  -6.119  -0.785  0.00  0.00    +0.000 A 
ENDBRANCH   1   2
BRANCH   1  10
ATOM      8  C   UNL     1       7.360  -3.692   1.115  0.00  0.00    +0.000 C 
ATOM      9  O   UNL     1       7.230  -4.223   2.213  0.00  0.00    +0.000 OA
ATOM     10  N   UNL     1       7.367  -4.435  -0.048  0.00  0.00    +0.000 N 
ATOM     11  H   UNL     1       7.562  -3.982  -0.928  0.00  0.00    +0.000 HD
BRANCH   8  15
ATOM     12  C   UNL     1       7.243  -0.241   4.058  0.00  0.00    +0.000 A 
ATOM     13  C   UNL     1       7.245  -1.365   3.308  0.00  0.00    +0.000 A 
ATOM     14  N   UNL     1       7.448  -1.281   1.924  0.00  0.00    +0.000 N 
ATOM     15  C   UNL     1       7.495  -2.264   0.930  0.00  0.00    +0.000 A 
ATOM     16  C   UNL     1       7.691  -1.538  -0.240  0.00  0.00    +0.000 A 
ATOM     17  N   UNL     1       7.778  -0.192  -0.012  0.00  0.00    +0.000 NA
ATOM     18  C   UNL     1       7.644  -0.054   1.282  0.00  0.00    +0.000 A 
ATOM     19  C   UNL     1       7.667   1.124   2.084  0.00  0.00    +0.000 A 
ATOM     20  C   UNL     1       7.476   1.042   3.412  0.00  0.00    +0.000 A 
BRANCH  12  22
ATOM     21  N   UNL     1       6.857  -0.376   6.809  0.00  0.00    +0.000 NA
ATOM     22  C   UNL     1       7.032  -0.315   5.562  0.00  0.00    +0.000 C 
ENDBRANCH  12  22
ENDBRANCH   8  15
ENDBRANCH   1  10
BRANCH   1  23
ATOM     23  C   UNL     1       6.635  -6.389  -1.347  0.00  0.00    +0.000 C 
ATOM     24  O   UNL     1       7.096  -7.277  -2.071  0.00  0.00    +0.000 OA
BRANCH  23  25
ATOM     25  C   UNL     1       5.263  -5.796  -1.649  0.00  0.00    +0.000 C 
BRANCH  25  26
ATOM     26  C   UNL     1       5.266  -4.927  -2.884  0.00  0.00    +0.000 A 
ATOM     27  C   UNL     1       5.597  -5.472  -4.135  0.00  0.00    +0.000 A 
ATOM     28  C   UNL     1       5.670  -4.664  -5.269  0.00  0.00    +0.000 A 
ATOM     29  C   UNL     1       5.391  -3.304  -5.172  0.00  0.00    +0.000 A 
ATOM     30  C   UNL     1       5.014  -2.757  -3.946  0.00  0.00    +0.000 A 
ATOM     31  C   UNL     1       4.947  -3.564  -2.807  0.00  0.00    +0.000 A 
ENDBRANCH  25  26
ENDBRANCH  23  25
ENDBRANCH   1  23
TORSDOF 7
