REMARK  Name = 
REMARK  7 active torsions:
REMARK  status: ('A' for Active; 'I' for Inactive)
REMARK    1  A    between atoms: C_1  and  N_2
REMARK    2  A    between atoms: C_6  and  C_7
REMARK    3  A    between atoms: N_9  and  C_10
REMARK    4  A    between atoms: C_10  and  C_11
REMARK    5  A    between atoms: C_14  and  N_15
REMARK    6  A    between atoms: C_16  and  C_18
REMARK    7  A    between atoms: C_23  and  O_24
REMARK                            x       y       z     vdW  Elec       q    Type
REMARK                         _______ _______ _______ _____ _____    ______ ____
ROOT
ATOM      1  C   UNL     1      10.462  -2.787   0.110  0.00  0.00    +0.000 A 
ATOM      2  C   UNL     1       9.923  -4.063  -0.062  0.00  0.00    +0.000 A 
ATOM      3  C   UNL     1      10.742  -5.193  -0.017  0.00  0.00    +0.000 A 
ATOM      4  C   UNL     1      12.117  -5.083   0.206  0.00  0.00    +0.000 A 
ATOM      5  C   UNL     1      12.658  -3.805   0.388  0.00  0.00    +0.000 A 
ATOM      6  C   UNL     1      11.838  -2.667   0.344  0.00  0.00    +0.000 A 
ENDROOT
BRANCH   4   7
ATOM      7  N   UNL     1      12.985  -6.196   0.248  0.00  0.00    +0.000 N 
ATOM      8  C   UNL     1      12.631  -7.525   0.093  0.00  0.00    +0.000 C 
ATOM      9  O   UNL     1      11.491  -7.941  -0.079  0.00  0.00    +0.000 OA
ATOM     10  H   UNL     1      13.975  -6.015   0.400  0.00  0.00    +0.000 HD
BRANCH   8  11
ATOM     11  C   UNL     1      13.730  -8.544   0.140  0.00  0.00    +0.000 A 
ATOM     12  C   UNL     1      13.345  -9.886  -0.058  0.00  0.00    +0.000 A 
ATOM     13  C   UNL     1      14.281 -10.918  -0.030  0.00  0.00    +0.000 A 
ATOM     14  C   UNL     1      15.620 -10.626   0.199  0.00  0.00    +0.000 A 
ATOM     15  C   UNL     1      16.024  -9.303   0.395  0.00  0.00    +0.000 A 
ATOM     16  C   UNL     1      15.084  -8.266   0.363  0.00  0.00    +0.000 A 
BRANCH  16  17
ATOM     17  O   UNL     1      15.515  -6.978   0.557  0.00  0.00    +0.000 OA
ATOM     18  H   UNL     1      16.480  -6.994   0.695  0.00  0.00    +0.000 HD
ENDBRANCH  16  17
ENDBRANCH   8  11
ENDBRANCH   4   7
BRANCH   1  19
ATOM     19  C   UNL     1       9.559  -1.585   0.066  0.00  0.00    +0.000 C 
BRANCH  19  22
ATOM     20  C   UNL     1       8.105  -0.249   1.506  0.00  0.00    +0.000 C 
ATOM     21  O   UNL     1       7.746   0.444   0.560  0.00  0.00    +0.000 OA
ATOM     22  N   UNL     1       8.987  -1.301   1.364  0.00  0.00    +0.000 N 
ATOM     23  H   UNL     1       9.408  -1.733   2.175  0.00  0.00    +0.000 HD
BRANCH  20  29
ATOM     24  C   UNL     1       6.005   3.469   5.913  0.00  0.00    +0.000 C 
ATOM     25  N   UNL     1       6.542   2.877   4.710  0.00  0.00    +0.000 N 
ATOM     26  C   UNL     1       6.862   3.557   3.565  0.00  0.00    +0.000 A 
ATOM     27  C   UNL     1       7.323   2.638   2.647  0.00  0.00    +0.000 A 
ATOM     28  C   UNL     1       7.286   1.349   3.256  0.00  0.00    +0.000 A 
ATOM     29  C   UNL     1       7.614   0.030   2.879  0.00  0.00    +0.000 A 
ATOM     30  C   UNL     1       7.412  -0.990   3.815  0.00  0.00    +0.000 A 
ATOM     31  C   UNL     1       6.913  -0.656   5.066  0.00  0.00    +0.000 A 
ATOM     32  N   UNL     1       6.598   0.589   5.485  0.00  0.00    +0.000 NA
ATOM     33  C   UNL     1       6.798   1.538   4.548  0.00  0.00    +0.000 A 
ENDBRANCH  20  29
ENDBRANCH  19  22
ENDBRANCH   1  19
TORSDOF 6
