REMARK  Name = 
REMARK  7 active torsions:
REMARK  status: ('A' for Active; 'I' for Inactive)
REMARK    1  A    between atoms: C_1  and  C_2
REMARK    2  A    between atoms: C_6  and  C_7
REMARK    3  A    between atoms: C_7  and  N_8
REMARK    4  A    between atoms: C_9  and  C_11
REMARK    5  A    between atoms: C_14  and  N_15
REMARK    6  A    between atoms: N_15  and  C_16
REMARK    7  A    between atoms: N_15  and  C_17
REMARK                            x       y       z     vdW  Elec       q    Type
REMARK                         _______ _______ _______ _____ _____    ______ ____
ROOT
ATOM      1  N   UNL     1       5.660   0.403   0.209  0.00  0.00    +0.000 N 
ATOM      2  C   UNL     1       6.949   0.850   0.419  0.00  0.00    +0.000 C 
ATOM      3  O   UNL     1       7.242   2.017   0.637  0.00  0.00    +0.000 OA
ATOM      4  H   UNL     1       5.470  -0.589   0.236  0.00  0.00    +0.000 HD
ENDROOT
BRANCH   2   5
ATOM      5  C   UNL     1       8.008  -0.190   0.381  0.00  0.00    +0.000 A 
ATOM      6  C   UNL     1       7.924  -1.317  -0.428  0.00  0.00    +0.000 A 
ATOM      7  C   UNL     1       8.963  -2.249  -0.407  0.00  0.00    +0.000 A 
ATOM      8  C   UNL     1      10.081  -2.055   0.417  0.00  0.00    +0.000 A 
ATOM      9  N   UNL     1      10.161  -0.956   1.203  0.00  0.00    +0.000 NA
ATOM     10  C   UNL     1       9.148  -0.043   1.155  0.00  0.00    +0.000 A 
BRANCH   8  11
ATOM     11  N   UNL     1      11.091  -3.042   0.440  0.00  0.00    +0.000 N 
ATOM     12  C   UNL     1      11.883  -3.118   1.669  0.00  0.00    +0.000 C 
BRANCH  11  13
ATOM     13  C   UNL     1      11.604  -3.768  -0.661  0.00  0.00    +0.000 A 
ATOM     14  C   UNL     1      11.642  -3.209  -1.951  0.00  0.00    +0.000 A 
ATOM     15  C   UNL     1      12.119  -3.935  -3.047  0.00  0.00    +0.000 A 
ATOM     16  C   UNL     1      12.575  -5.238  -2.874  0.00  0.00    +0.000 A 
ATOM     17  C   UNL     1      12.566  -5.808  -1.605  0.00  0.00    +0.000 A 
ATOM     18  C   UNL     1      12.088  -5.078  -0.513  0.00  0.00    +0.000 A 
ENDBRANCH  11  13
ENDBRANCH   8  11
ENDBRANCH   2   5
BRANCH   1  19
ATOM     19  C   UNL     1       4.520   1.296   0.190  0.00  0.00    +0.000 C 
BRANCH  19  25
ATOM     20  C   UNL     1       3.994   4.652   6.924  0.00  0.00    +0.000 C 
ATOM     21  C   UNL     1       3.611   3.638   5.892  0.00  0.00    +0.000 A 
ATOM     22  C   UNL     1       4.130   3.587   4.652  0.00  0.00    +0.000 A 
ATOM     23  C   UNL     1       3.714   2.549   3.706  0.00  0.00    +0.000 A 
ATOM     24  C   UNL     1       4.284   2.432   2.433  0.00  0.00    +0.000 A 
ATOM     25  C   UNL     1       3.869   1.423   1.547  0.00  0.00    +0.000 A 
ATOM     26  C   UNL     1       2.860   0.533   1.953  0.00  0.00    +0.000 A 
ATOM     27  C   UNL     1       2.288   0.643   3.223  0.00  0.00    +0.000 A 
ATOM     28  C   UNL     1       2.725   1.639   4.094  0.00  0.00    +0.000 A 
ATOM     29  N   UNL     1       2.184   1.721   5.382  0.00  0.00    +0.000 N 
ATOM     30  C   UNL     1       2.581   2.639   6.315  0.00  0.00    +0.000 A 
ATOM     31  O   UNL     1       2.104   2.642   7.447  0.00  0.00    +0.000 OA
ATOM     32  H   UNL     1       1.489   1.058   5.690  0.00  0.00    +0.000 HD
ENDBRANCH  19  25
ENDBRANCH   1  19
TORSDOF 5
