REMARK  Name = 
REMARK  7 active torsions:
REMARK  status: ('A' for Active; 'I' for Inactive)
REMARK    1  A    between atoms: C_1  and  O_2
REMARK    2  A    between atoms: O_2  and  C_3
REMARK    3  A    between atoms: C_6  and  N_7
REMARK    4  A    between atoms: C_8  and  C_10
REMARK    5  A    between atoms: C_13  and  C_14
REMARK    6  A    between atoms: C_22  and  C_23
REMARK    7  A    between atoms: C_23  and  C_25
REMARK                            x       y       z     vdW  Elec       q    Type
REMARK                         _______ _______ _______ _____ _____    ______ ____
ROOT
ATOM      1  C   UNL     1       3.099  -1.155   0.025  0.00  0.00    +0.000 A 
ATOM      2  C   UNL     1       2.712  -2.132  -0.895  0.00  0.00    +0.000 A 
ATOM      3  C   UNL     1       3.391  -3.348  -0.984  0.00  0.00    +0.000 A 
ATOM      4  C   UNL     1       4.495  -3.616  -0.180  0.00  0.00    +0.000 A 
ATOM      5  C   UNL     1       4.918  -2.627   0.718  0.00  0.00    +0.000 A 
ATOM      6  C   UNL     1       4.213  -1.407   0.851  0.00  0.00    +0.000 A 
ENDROOT
BRANCH   4   7
ATOM      7  N   UNL     1       5.205  -4.835  -0.233  0.00  0.00    +0.000 N 
ATOM      8  C   UNL     1       4.933  -5.925  -1.053  0.00  0.00    +0.000 C 
ATOM      9  O   UNL     1       4.010  -6.005  -1.855  0.00  0.00    +0.000 OA
ATOM     10  H   UNL     1       6.008  -4.950   0.380  0.00  0.00    +0.000 HD
BRANCH   8  11
ATOM     11  C   UNL     1       5.864  -7.018  -0.900  0.00  0.00    +0.000 A 
ATOM     12  N   UNL     1       6.841  -7.088  -0.020  0.00  0.00    +0.000 NA
ATOM     13  N   UNL     1       7.511  -8.273  -0.241  0.00  0.00    +0.000 NA
ATOM     14  C   UNL     1       6.934  -8.900  -1.253  0.00  0.00    +0.000 A 
ATOM     15  N   UNL     1       5.873  -8.146  -1.673  0.00  0.00    +0.000 N 
ATOM     16  H   UNL     1       5.246  -8.369  -2.435  0.00  0.00    +0.000 HD
BRANCH  14  17
ATOM     17  C   UNL     1       7.314 -10.159  -1.876  0.00  0.00    +0.000 A 
ATOM     18  C   UNL     1       8.430 -10.867  -1.448  0.00  0.00    +0.000 A 
ATOM     19  C   UNL     1       8.751 -12.059  -2.088  0.00  0.00    +0.000 A 
ATOM     20  C   UNL     1       7.950 -12.507  -3.132  0.00  0.00    +0.000 A 
ATOM     21  C   UNL     1       6.857 -11.736  -3.497  0.00  0.00    +0.000 A 
ATOM     22  N   UNL     1       6.516 -10.571  -2.897  0.00  0.00    +0.000 NA
ENDBRANCH  14  17
ENDBRANCH   8  11
ENDBRANCH   4   7
BRANCH   6  23
ATOM     23  C   UNL     1       4.681  -0.383   1.842  0.00  0.00    +0.000 C 
ATOM     24  O   UNL     1       4.618   0.814   1.574  0.00  0.00    +0.000 OA
BRANCH  23  25
ATOM     25  C   UNL     1       5.281  -0.765   3.156  0.00  0.00    +0.000 A 
ATOM     26  C   UNL     1       4.944  -1.947   3.828  0.00  0.00    +0.000 A 
ATOM     27  C   UNL     1       5.548  -2.257   5.051  0.00  0.00    +0.000 A 
ATOM     28  C   UNL     1       6.469  -1.379   5.622  0.00  0.00    +0.000 A 
ATOM     29  C   UNL     1       6.787  -0.187   4.976  0.00  0.00    +0.000 A 
ATOM     30  C   UNL     1       6.194   0.120   3.750  0.00  0.00    +0.000 A 
ENDBRANCH  23  25
ENDBRANCH   6  23
BRANCH   1  32
ATOM     31  C   UNL     1       1.141   0.138  -0.418  0.00  0.00    +0.000 C 
ATOM     32  O   UNL     1       2.443   0.041   0.147  0.00  0.00    +0.000 OA
ENDBRANCH   1  32
TORSDOF 6
