REMARK  Name = 
REMARK  5 active torsions:
REMARK  status: ('A' for Active; 'I' for Inactive)
REMARK    1  A    between atoms: C_2  and  C_20
REMARK    2  A    between atoms: N_3  and  C_4
REMARK    3  A    between atoms: C_4  and  C_5
REMARK    4  A    between atoms: C_8  and  N_9
REMARK    5  A    between atoms: C_10  and  C_12
REMARK                            x       y       z     vdW  Elec       q    Type
REMARK                         _______ _______ _______ _____ _____    ______ ____
ROOT
ATOM      1  C   UNL     1       2.438  -1.548  -1.747  0.00  0.00    +0.000 C 
ENDROOT
BRANCH   1   2
ATOM      2  C   UNL     1       3.352  -2.326  -2.646  0.00  0.00    +0.000 A 
ATOM      3  C   UNL     1       4.361  -1.654  -3.338  0.00  0.00    +0.000 A 
ATOM      4  C   UNL     1       5.249  -2.353  -4.154  0.00  0.00    +0.000 A 
ATOM      5  C   UNL     1       5.153  -3.738  -4.306  0.00  0.00    +0.000 A 
ATOM      6  C   UNL     1       4.135  -4.413  -3.621  0.00  0.00    +0.000 A 
ATOM      7  C   UNL     1       3.237  -3.713  -2.801  0.00  0.00    +0.000 A 
BRANCH   5   8
ATOM      8  N   UNL     1       6.035  -4.494  -5.122  0.00  0.00    +0.000 N 
ATOM      9  C   UNL     1       7.106  -3.985  -5.842  0.00  0.00    +0.000 C 
ATOM     10  O   UNL     1       7.475  -2.817  -5.859  0.00  0.00    +0.000 OA
ATOM     11  H   UNL     1       5.883  -5.494  -5.127  0.00  0.00    +0.000 HD
BRANCH   9  12
ATOM     12  C   UNL     1       7.893  -4.938  -6.658  0.00  0.00    +0.000 A 
ATOM     13  C   UNL     1       7.406  -6.139  -7.173  0.00  0.00    +0.000 A 
ATOM     14  C   UNL     1       8.234  -6.916  -7.987  0.00  0.00    +0.000 A 
ATOM     15  C   UNL     1       9.519  -6.466  -8.254  0.00  0.00    +0.000 A 
ATOM     16  N   UNL     1      10.022  -5.311  -7.773  0.00  0.00    +0.000 NA
ATOM     17  C   UNL     1       9.195  -4.571  -6.994  0.00  0.00    +0.000 A 
ENDBRANCH   9  12
ENDBRANCH   5   8
ENDBRANCH   1   2
BRANCH   1  20
ATOM     18  O   UNL     1       0.607  -0.015  -0.507  0.00  0.00    +0.000 OA
ATOM     19  C   UNL     1       0.415  -0.230  -1.703  0.00  0.00    +0.000 C 
ATOM     20  N   UNL     1       1.302  -0.977  -2.442  0.00  0.00    +0.000 N 
ATOM     21  H   UNL     1       1.220  -1.113  -3.440  0.00  0.00    +0.000 HD
BRANCH  19  22
ATOM     22  C   UNL     1      -0.838   0.295  -2.334  0.00  0.00    +0.000 A 
ATOM     23  C   UNL     1      -1.733   0.933  -1.453  0.00  0.00    +0.000 A 
ATOM     24  C   UNL     1      -3.003   1.325  -1.867  0.00  0.00    +0.000 A 
ATOM     25  C   UNL     1      -3.348   1.144  -3.197  0.00  0.00    +0.000 A 
ATOM     26  C   UNL     1      -4.690   1.467  -3.668  0.00  0.00    +0.000 A 
ATOM     27  N   UNL     1      -4.990   1.610  -4.920  0.00  0.00    +0.000 NA
ATOM     28  N   UNL     1      -3.988   1.386  -5.823  0.00  0.00    +0.000 N 
ATOM     29  C   UNL     1      -2.777   0.782  -5.545  0.00  0.00    +0.000 A 
ATOM     30  O   UNL     1      -1.994   0.426  -6.419  0.00  0.00    +0.000 OA
ATOM     31  C   UNL     1      -2.426   0.659  -4.118  0.00  0.00    +0.000 A 
ATOM     32  C   UNL     1      -1.175   0.177  -3.687  0.00  0.00    +0.000 A 
ATOM     33  H   UNL     1      -4.221   1.557  -6.796  0.00  0.00    +0.000 HD
ENDBRANCH  19  22
ENDBRANCH   1  20
TORSDOF 5
