REMARK  Name = 
REMARK  6 active torsions:
REMARK  status: ('A' for Active; 'I' for Inactive)
REMARK    1  A    between atoms: C_2  and  C_20
REMARK    2  A    between atoms: N_3  and  C_4
REMARK    3  A    between atoms: C_4  and  C_5
REMARK    4  A    between atoms: C_8  and  C_9
REMARK    5  A    between atoms: C_9  and  O_10
REMARK    6  A    between atoms: O_10  and  C_11
REMARK                            x       y       z     vdW  Elec       q    Type
REMARK                         _______ _______ _______ _____ _____    ______ ____
ROOT
ATOM      1  C   UNL     1       2.191  -1.631   1.759  0.00  0.00    +0.000 C 
ENDROOT
BRANCH   1   2
ATOM      2  C   UNL     1       3.104  -2.421   2.660  0.00  0.00    +0.000 A 
ATOM      3  C   UNL     1       4.009  -1.772   3.510  0.00  0.00    +0.000 A 
ATOM      4  C   UNL     1       4.810  -2.503   4.396  0.00  0.00    +0.000 A 
ATOM      5  C   UNL     1       4.737  -3.902   4.437  0.00  0.00    +0.000 A 
ATOM      6  C   UNL     1       3.837  -4.551   3.581  0.00  0.00    +0.000 A 
ATOM      7  C   UNL     1       3.038  -3.820   2.694  0.00  0.00    +0.000 A 
BRANCH   5   8
ATOM      8  C   UNL     1       5.600  -4.698   5.392  0.00  0.00    +0.000 C 
BRANCH   8   9
ATOM      9  O   UNL     1       4.920  -4.854   6.639  0.00  0.00    +0.000 OA
BRANCH   9  10
ATOM     10  C   UNL     1       5.583  -5.533   7.627  0.00  0.00    +0.000 A 
ATOM     11  C   UNL     1       6.834  -6.137   7.512  0.00  0.00    +0.000 A 
ATOM     12  C   UNL     1       7.388  -6.789   8.613  0.00  0.00    +0.000 A 
ATOM     13  F   UNL     1       8.592  -7.366   8.495  0.00  0.00    +0.000 F 
ATOM     14  C   UNL     1       6.721  -6.854   9.831  0.00  0.00    +0.000 A 
ATOM     15  C   UNL     1       5.469  -6.258   9.950  0.00  0.00    +0.000 A 
ATOM     16  C   UNL     1       4.904  -5.603   8.850  0.00  0.00    +0.000 A 
ENDBRANCH   9  10
ENDBRANCH   8   9
ENDBRANCH   5   8
ENDBRANCH   1   2
BRANCH   1  19
ATOM     17  O   UNL     1       0.908  -0.215  -0.236  0.00  0.00    +0.000 OA
ATOM     18  C   UNL     1       2.038  -0.633  -0.458  0.00  0.00    +0.000 C 
ATOM     19  N   UNL     1       2.766  -1.368   0.458  0.00  0.00    +0.000 N 
ATOM     20  H   UNL     1       3.756  -1.525   0.330  0.00  0.00    +0.000 HD
BRANCH  18  21
ATOM     21  C   UNL     1       2.688  -0.325  -1.759  0.00  0.00    +0.000 A 
ATOM     22  C   UNL     1       2.318   0.870  -2.409  0.00  0.00    +0.000 A 
ATOM     23  C   UNL     1       2.888   1.159  -3.657  0.00  0.00    +0.000 A 
ATOM     24  C   UNL     1       3.783   0.263  -4.218  0.00  0.00    +0.000 A 
ATOM     25  N   UNL     1       4.116   0.844  -5.405  0.00  0.00    +0.000 N 
ATOM     26  N   UNL     1       3.489   2.021  -5.572  0.00  0.00    +0.000 NA
ATOM     27  N   UNL     1       2.727   2.224  -4.502  0.00  0.00    +0.000 NA
ATOM     28  C   UNL     1       4.148  -0.923  -3.599  0.00  0.00    +0.000 A 
ATOM     29  F   UNL     1       5.000  -1.774  -4.180  0.00  0.00    +0.000 F 
ATOM     30  C   UNL     1       3.591  -1.216  -2.354  0.00  0.00    +0.000 A 
ATOM     31  H   UNL     1       4.740   0.511  -6.131  0.00  0.00    +0.000 HD
ENDBRANCH  18  21
ENDBRANCH   1  19
TORSDOF 6
