REMARK  Name = 
REMARK  3 active torsions:
REMARK  status: ('A' for Active; 'I' for Inactive)
REMARK    1  A    between atoms: C_2  and  C_18
REMARK    2  A    between atoms: N_3  and  C_4
REMARK    3  A    between atoms: C_7  and  N_8
REMARK                            x       y       z     vdW  Elec       q    Type
REMARK                         _______ _______ _______ _____ _____    ______ ____
ROOT
ATOM      1  O   UNL     1       4.803   0.591  -2.371  0.00  0.00    +0.000 OA
ATOM      2  C   UNL     1       4.151   0.250  -1.390  0.00  0.00    +0.000 C 
ATOM      3  N   UNL     1       2.950   0.794  -0.972  0.00  0.00    +0.000 N 
ATOM      4  H   UNL     1       2.597   0.488  -0.062  0.00  0.00    +0.000 HD
ENDROOT
BRANCH   2   5
ATOM      5  C   UNL     1       4.732  -0.782  -0.488  0.00  0.00    +0.000 A 
ATOM      6  N   UNL     1       3.952  -1.230   0.527  0.00  0.00    +0.000 NA
ATOM      7  C   UNL     1       4.545  -1.990   1.472  0.00  0.00    +0.000 A 
ATOM      8  C   UNL     1       3.821  -2.474   2.549  0.00  0.00    +0.000 A 
ATOM      9  N   UNL     1       4.335  -3.118   3.628  0.00  0.00    +0.000 NA
ATOM     10  C   UNL     1       5.665  -3.306   3.633  0.00  0.00    +0.000 A 
ATOM     11  C   UNL     1       6.483  -2.949   2.578  0.00  0.00    +0.000 A 
ATOM     12  C   UNL     1       5.918  -2.300   1.460  0.00  0.00    +0.000 A 
ATOM     13  C   UNL     1       6.649  -1.902   0.322  0.00  0.00    +0.000 A 
ATOM     14 CL   UNL     1       8.317  -2.310   0.109  0.00  0.00    +0.000 Cl
ATOM     15  C   UNL     1       6.055  -1.138  -0.667  0.00  0.00    +0.000 A 
ENDBRANCH   2   5
BRANCH   3  16
ATOM     16  C   UNL     1       2.244   1.829  -1.627  0.00  0.00    +0.000 A 
ATOM     17  C   UNL     1       2.550   2.238  -2.918  0.00  0.00    +0.000 A 
ATOM     18  C   UNL     1       1.837   3.265  -3.541  0.00  0.00    +0.000 A 
ATOM     19  C   UNL     1       0.789   3.941  -2.904  0.00  0.00    +0.000 A 
ATOM     20  C   UNL     1       0.474   3.517  -1.598  0.00  0.00    +0.000 A 
ATOM     21  C   UNL     1       1.186   2.477  -0.984  0.00  0.00    +0.000 A 
ATOM     22  F   UNL     1       0.849   2.114   0.266  0.00  0.00    +0.000 F 
BRANCH  19  23
ATOM     23  N   UNL     1       0.036   4.971  -3.604  0.00  0.00    +0.000 N 
ATOM     24  C   UNL     1      -1.260   5.313  -3.209  0.00  0.00    +0.000 A 
ATOM     25  C   UNL     1      -2.022   6.175  -3.898  0.00  0.00    +0.000 A 
ATOM     26  C   UNL     1      -1.536   6.761  -5.112  0.00  0.00    +0.000 A 
ATOM     27  C   UNL     1      -0.290   6.509  -5.519  0.00  0.00    +0.000 A 
ATOM     28  C   UNL     1       0.612   5.629  -4.725  0.00  0.00    +0.000 A 
ATOM     29  O   UNL     1       1.778   5.567  -5.112  0.00  0.00    +0.000 OA
ENDBRANCH  19  23
ENDBRANCH   3  16
TORSDOF 3
