REMARK  Name = 
REMARK  5 active torsions:
REMARK  status: ('A' for Active; 'I' for Inactive)
REMARK    1  A    between atoms: C_1  and  C_2
REMARK    2  A    between atoms: C_2  and  C_3
REMARK    3  A    between atoms: C_13  and  C_14
REMARK    4  A    between atoms: N_16  and  C_17
REMARK    5  A    between atoms: N_21  and  C_22
REMARK                            x       y       z     vdW  Elec       q    Type
REMARK                         _______ _______ _______ _____ _____    ______ ____
ROOT
ATOM      1  C   UNL     1       2.834  -2.860  -0.586  0.00  0.00    +0.000 C 
ATOM      2  O   UNL     1       3.246  -3.969  -0.891  0.00  0.00    +0.000 OA
ATOM      3  N   UNL     1       2.047  -2.579   0.527  0.00  0.00    +0.000 N 
ATOM      4  H   UNL     1       1.585  -1.677   0.551  0.00  0.00    +0.000 HD
ENDROOT
BRANCH   1  15
ATOM      5  C   UNL     1       3.139  -1.761  -2.849  0.00  0.00    +0.000 A 
ATOM      6  N   UNL     1       3.396  -0.666  -3.620  0.00  0.00    +0.000 NA
ATOM      7  C   UNL     1       3.730   0.494  -3.035  0.00  0.00    +0.000 A 
ATOM      8  C   UNL     1       4.021   1.594  -3.821  0.00  0.00    +0.000 A 
ATOM      9  C   UNL     1       4.428   2.792  -3.245  0.00  0.00    +0.000 A 
ATOM     10  F   UNL     1       4.720   3.838  -4.031  0.00  0.00    +0.000 F 
ATOM     11  C   UNL     1       4.548   2.922  -1.869  0.00  0.00    +0.000 A 
ATOM     12  C   UNL     1       4.234   1.837  -1.056  0.00  0.00    +0.000 A 
ATOM     13  C   UNL     1       3.820   0.626  -1.633  0.00  0.00    +0.000 A 
ATOM     14  C   UNL     1       3.500  -0.486  -0.848  0.00  0.00    +0.000 A 
ATOM     15  C   UNL     1       3.138  -1.694  -1.453  0.00  0.00    +0.000 A 
BRANCH   5  17
ATOM     16  C   UNL     1       4.273  -3.722  -3.900  0.00  0.00    +0.000 C 
ATOM     17  C   UNL     1       2.938  -3.035  -3.632  0.00  0.00    +0.000 C 
ENDBRANCH   5  17
ENDBRANCH   1  15
BRANCH   3  18
ATOM     18  C   UNL     1       1.690  -3.487   1.504  0.00  0.00    +0.000 A 
ATOM     19  C   UNL     1       2.288  -4.651   1.753  0.00  0.00    +0.000 A 
ATOM     20  C   UNL     1       1.800  -5.586   2.789  0.00  0.00    +0.000 A 
ATOM     21  O   UNL     1       2.436  -6.630   2.928  0.00  0.00    +0.000 OA
ATOM     22  N   UNL     1       0.630  -5.205   3.459  0.00  0.00    +0.000 N 
ATOM     23  N   UNL     1       0.009  -3.982   3.253  0.00  0.00    +0.000 NA
ATOM     24  C   UNL     1       0.533  -3.192   2.375  0.00  0.00    +0.000 A 
BRANCH  22  25
ATOM     25  C   UNL     1      -0.044  -6.064   4.389  0.00  0.00    +0.000 A 
ATOM     26  C   UNL     1       0.619  -7.104   5.058  0.00  0.00    +0.000 A 
ATOM     27  C   UNL     1      -0.067  -7.981   5.904  0.00  0.00    +0.000 A 
ATOM     28  C   UNL     1      -1.435  -7.835   6.097  0.00  0.00    +0.000 A 
ATOM     29  C   UNL     1      -2.113  -6.795   5.467  0.00  0.00    +0.000 A 
ATOM     30  C   UNL     1      -1.420  -5.907   4.635  0.00  0.00    +0.000 A 
ENDBRANCH  22  25
ENDBRANCH   3  18
TORSDOF 4
