REMARK  Name = 
REMARK  4 active torsions:
REMARK  status: ('A' for Active; 'I' for Inactive)
REMARK    1  A    between atoms: N_3  and  C_4
REMARK    2  A    between atoms: C_7  and  C_8
REMARK    3  A    between atoms: N_15  and  C_16
REMARK    4  A    between atoms: N_20  and  C_21
REMARK                            x       y       z     vdW  Elec       q    Type
REMARK                         _______ _______ _______ _____ _____    ______ ____
ROOT
ATOM      1  O   UNL     1       0.976   0.159   0.283  0.00  0.00    +0.000 OA
ATOM      2  C   UNL     1       2.173   0.061   0.034  0.00  0.00    +0.000 C 
ATOM      3  N   UNL     1       2.744  -0.754  -0.913  0.00  0.00    +0.000 N 
ATOM      4  N   UNL     1       3.042   0.742   0.857  0.00  0.00    +0.000 N 
ATOM      5  H   UNL     1       3.713  -0.988  -0.781  0.00  0.00    +0.000 HD
ATOM      6  H   UNL     1       2.558   1.083   1.682  0.00  0.00    +0.000 HD
ENDROOT
BRANCH   4   7
ATOM      7  C   UNL     1       4.407   0.858   0.802  0.00  0.00    +0.000 A 
ATOM      8  C   UNL     1       5.102   0.838  -0.346  0.00  0.00    +0.000 A 
ATOM      9  C   UNL     1       6.576   0.718  -0.342  0.00  0.00    +0.000 A 
ATOM     10  O   UNL     1       7.134   0.601  -1.433  0.00  0.00    +0.000 OA
ATOM     11  N   UNL     1       7.179   0.648   0.917  0.00  0.00    +0.000 N 
ATOM     12  C   UNL     1       6.438   0.815   2.079  0.00  0.00    +0.000 A 
ATOM     13  C   UNL     1       5.107   0.960   2.054  0.00  0.00    +0.000 A 
BRANCH  11  14
ATOM     14  C   UNL     1       8.573   0.374   0.988  0.00  0.00    +0.000 A 
ATOM     15  C   UNL     1       9.494   1.157   0.285  0.00  0.00    +0.000 A 
ATOM     16  C   UNL     1      10.862   0.931   0.440  0.00  0.00    +0.000 A 
ATOM     17  C   UNL     1      11.313  -0.103   1.261  0.00  0.00    +0.000 A 
ATOM     18  C   UNL     1      10.398  -0.918   1.926  0.00  0.00    +0.000 A 
ATOM     19  C   UNL     1       9.031  -0.672   1.801  0.00  0.00    +0.000 A 
ENDBRANCH  11  14
ENDBRANCH   4   7
BRANCH   3  20
ATOM     20  C   UNL     1       2.074  -1.567  -1.837  0.00  0.00    +0.000 A 
ATOM     21  C   UNL     1       0.717  -1.420  -2.104  0.00  0.00    +0.000 A 
ATOM     22  C   UNL     1       0.067  -2.313  -2.945  0.00  0.00    +0.000 A 
ATOM     23  C   UNL     1       0.762  -3.372  -3.541  0.00  0.00    +0.000 A 
ATOM     24  C   UNL     1       2.140  -3.474  -3.337  0.00  0.00    +0.000 A 
ATOM     25  C   UNL     1       2.801  -2.570  -2.493  0.00  0.00    +0.000 A 
BRANCH  23  26
ATOM     26  C   UNL     1       0.039  -4.352  -4.344  0.00  0.00    +0.000 A 
ATOM     27  N   UNL     1       0.515  -5.089  -5.330  0.00  0.00    +0.000 NA
ATOM     28  C   UNL     1      -0.542  -5.839  -5.785  0.00  0.00    +0.000 A 
ATOM     29  C   UNL     1      -1.674  -5.585  -5.044  0.00  0.00    +0.000 A 
ATOM     30  N   UNL     1      -1.289  -4.648  -4.135  0.00  0.00    +0.000 N 
ATOM     31  H   UNL     1      -1.868  -4.236  -3.417  0.00  0.00    +0.000 HD
ENDBRANCH  23  26
ENDBRANCH   3  20
TORSDOF 4
