REMARK  Name = 
REMARK  3 active torsions:
REMARK  status: ('A' for Active; 'I' for Inactive)
REMARK    1  A    between atoms: C_5  and  C_7
REMARK    2  A    between atoms: C_7  and  C_10
REMARK    3  A    between atoms: N_23  and  C_24
REMARK                            x       y       z     vdW  Elec       q    Type
REMARK                         _______ _______ _______ _____ _____    ______ ____
ROOT
ATOM      1  O   UNL     1      -3.270   0.623   0.048  0.00  0.00    +0.000 OA
ATOM      2  C   UNL     1      -2.096   0.243   0.007  0.00  0.00    +0.000 C 
ATOM      3  C   UNL     1      -1.751  -1.195   0.362  0.00  0.00    +0.000 C 
ATOM      4  N   UNL     1      -0.518  -1.694  -0.265  0.00  0.00    +0.000 N 
ATOM      5  C   UNL     1      -0.410  -2.902  -0.981  0.00  0.00    +0.000 C 
ATOM      6  O   UNL     1       0.634  -3.220  -1.570  0.00  0.00    +0.000 OA
ATOM      7  C   UNL     1       0.589  -0.793  -0.141  0.00  0.00    +0.000 A 
ATOM      8  C   UNL     1       1.912  -1.254  -0.048  0.00  0.00    +0.000 A 
ATOM      9  C   UNL     1       2.978  -0.361   0.084  0.00  0.00    +0.000 A 
ATOM     10  C   UNL     1       2.737   1.005   0.124  0.00  0.00    +0.000 A 
ATOM     11  C   UNL     1       1.430   1.477   0.031  0.00  0.00    +0.000 A 
ATOM     12  C   UNL     1       0.341   0.593  -0.114  0.00  0.00    +0.000 A 
ATOM     13  N   UNL     1      -1.003   1.077  -0.215  0.00  0.00    +0.000 N 
ENDROOT
BRANCH  13  14
ATOM     14  C   UNL     1      -1.214   2.431  -0.600  0.00  0.00    +0.000 A 
ATOM     15  C   UNL     1      -1.972   3.289   0.202  0.00  0.00    +0.000 A 
ATOM     16  C   UNL     1      -2.135   4.628  -0.165  0.00  0.00    +0.000 A 
ATOM     17  C   UNL     1      -1.575   5.103  -1.350  0.00  0.00    +0.000 A 
ATOM     18  C   UNL     1      -0.856   4.242  -2.177  0.00  0.00    +0.000 A 
ATOM     19  C   UNL     1      -0.672   2.912  -1.802  0.00  0.00    +0.000 A 
ENDBRANCH  13  14
BRANCH   5  20
ATOM     20  C   UNL     1      -1.653  -3.829  -1.124  0.00  0.00    +0.000 C 
ATOM     21  F   UNL     1      -1.248  -5.140  -1.242  0.00  0.00    +0.000 F 
ATOM     22  F   UNL     1      -2.398  -3.853   0.031  0.00  0.00    +0.000 F 
BRANCH  20  23
ATOM     23  C   UNL     1      -2.455  -3.376  -2.338  0.00  0.00    +0.000 A 
ATOM     24  N   UNL     1      -3.420  -2.420  -2.172  0.00  0.00    +0.000 NA
ATOM     25  C   UNL     1      -4.108  -2.019  -3.268  0.00  0.00    +0.000 A 
ATOM     26  C   UNL     1      -3.882  -2.520  -4.538  0.00  0.00    +0.000 A 
ATOM     27  C   UNL     1      -2.889  -3.479  -4.700  0.00  0.00    +0.000 A 
ATOM     28  C   UNL     1      -2.166  -3.905  -3.590  0.00  0.00    +0.000 A 
ATOM     29  F   UNL     1      -1.199  -4.815  -3.757  0.00  0.00    +0.000 F 
ENDBRANCH  20  23
ENDBRANCH   5  20
TORSDOF 3
