REMARK  Name = 
REMARK  7 active torsions:
REMARK  status: ('A' for Active; 'I' for Inactive)
REMARK    1  A    between atoms: C_1  and  C_2
REMARK    2  A    between atoms: N_4  and  C_5
REMARK    3  A    between atoms: C_10  and  C_11
REMARK    4  A    between atoms: C_11  and  N_12
REMARK    5  A    between atoms: C_13  and  C_15
REMARK    6  A    between atoms: C_18  and  C_19
REMARK    7  A    between atoms: C_22  and  C_23
REMARK                            x       y       z     vdW  Elec       q    Type
REMARK                         _______ _______ _______ _____ _____    ______ ____
ROOT
ATOM      1  N   UNL     1       4.043   1.168   2.521  0.00  0.00    +0.000 N 
ATOM      2  C   UNL     1       3.777   0.637   3.764  0.00  0.00    +0.000 C 
ATOM      3  O   UNL     1       4.201   1.113   4.812  0.00  0.00    +0.000 OA
ATOM      4  H   UNL     1       3.521   0.793   1.737  0.00  0.00    +0.000 HD
ENDROOT
BRANCH   2   5
ATOM      5  C   UNL     1       2.944  -0.572   3.737  0.00  0.00    +0.000 A 
ATOM      6  N   UNL     1       2.525  -1.123   2.584  0.00  0.00    +0.000 NA
ATOM      7  O   UNL     1       1.804  -2.246   2.942  0.00  0.00    +0.000 OA
ATOM      8  C   UNL     1       1.771  -2.377   4.301  0.00  0.00    +0.000 A 
ATOM      9  C   UNL     1       2.484  -1.333   4.845  0.00  0.00    +0.000 A 
BRANCH   8  10
ATOM     10  C   UNL     1       1.022  -3.521   4.822  0.00  0.00    +0.000 A 
ATOM     11  C   UNL     1       0.401  -4.439   3.957  0.00  0.00    +0.000 A 
ATOM     12  C   UNL     1      -0.342  -5.521   4.455  0.00  0.00    +0.000 A 
ATOM     13  C   UNL     1      -0.479  -5.711   5.833  0.00  0.00    +0.000 A 
ATOM     14  C   UNL     1       0.142  -4.816   6.706  0.00  0.00    +0.000 A 
ATOM     15  C   UNL     1       0.880  -3.741   6.198  0.00  0.00    +0.000 A 
ATOM     16  F   UNL     1       1.451  -2.911   7.084  0.00  0.00    +0.000 F 
BRANCH  13  17
ATOM     17  C   UNL     1      -1.252  -6.808   6.344  0.00  0.00    +0.000 C 
ATOM     18  N   UNL     1      -1.882  -7.696   6.749  0.00  0.00    +0.000 NA
ENDBRANCH  13  17
ENDBRANCH   8  10
ENDBRANCH   2   5
BRANCH   1  19
ATOM     19  C   UNL     1       4.851   2.359   2.325  0.00  0.00    +0.000 C 
BRANCH  19  25
ATOM     20  C   UNL     1       5.870   3.466   0.224  0.00  0.00    +0.000 A 
ATOM     21  C   UNL     1       6.503   3.340  -1.029  0.00  0.00    +0.000 A 
ATOM     22  C   UNL     1       6.948   2.096  -1.476  0.00  0.00    +0.000 A 
ATOM     23  C   UNL     1       6.765   0.971  -0.682  0.00  0.00    +0.000 A 
ATOM     24  C   UNL     1       6.113   1.082   0.548  0.00  0.00    +0.000 A 
ATOM     25  C   UNL     1       5.621   2.320   1.015  0.00  0.00    +0.000 A 
BRANCH  20  29
ATOM     26  C   UNL     1       5.336   7.128   3.335  0.00  0.00    +0.000 C 
ATOM     27  C   UNL     1       5.328   6.408   2.039  0.00  0.00    +0.000 A 
ATOM     28  N   UNL     1       5.579   5.096   1.991  0.00  0.00    +0.000 NA
ATOM     29  N   UNL     1       5.546   4.776   0.675  0.00  0.00    +0.000 N 
ATOM     30  C   UNL     1       5.241   5.877  -0.098  0.00  0.00    +0.000 A 
ATOM     31  C   UNL     1       5.065   6.935   0.760  0.00  0.00    +0.000 A 
ENDBRANCH  20  29
ENDBRANCH  19  25
ENDBRANCH   1  19
TORSDOF 6
