REMARK  Name = 
REMARK  6 active torsions:
REMARK  status: ('A' for Active; 'I' for Inactive)
REMARK    1  A    between atoms: C_1  and  C_2
REMARK    2  A    between atoms: C_3  and  C_4
REMARK    3  A    between atoms: C_4  and  C_5
REMARK    4  A    between atoms: N_7  and  C_8
REMARK    5  A    between atoms: C_8  and  C_9
REMARK    6  A    between atoms: C_12  and  C_13
REMARK                            x       y       z     vdW  Elec       q    Type
REMARK                         _______ _______ _______ _____ _____    ______ ____
ROOT
ATOM      1  C   UNL     1      -0.288  -1.495   1.186  0.00  0.00    +0.000 C 
ATOM      2  O   UNL     1       0.083  -0.918   0.170  0.00  0.00    +0.000 OA
ATOM      3  N   UNL     1      -0.979  -2.698   1.161  0.00  0.00    +0.000 N 
ATOM      4  H   UNL     1      -0.849  -3.295   1.981  0.00  0.00    +0.000 HD
ENDROOT
BRANCH   1   5
ATOM      5  C   UNL     1      -0.051  -0.909   2.580  0.00  0.00    +0.000 C 
BRANCH   5   8
ATOM      6  C   UNL     1       2.234   1.012   3.468  0.00  0.00    +0.000 C 
ATOM      7  C   UNL     1       2.284  -0.492   3.562  0.00  0.00    +0.000 A 
ATOM      8  C   UNL     1       1.272  -1.297   3.177  0.00  0.00    +0.000 A 
ATOM      9  C   UNL     1       1.438  -2.739   3.472  0.00  0.00    +0.000 A 
ATOM     10  O   UNL     1       0.550  -3.555   3.244  0.00  0.00    +0.000 OA
ATOM     11  N   UNL     1       2.612  -3.109   4.046  0.00  0.00    +0.000 N 
ATOM     12  C   UNL     1       3.568  -2.208   4.388  0.00  0.00    +0.000 A 
ATOM     13  N   UNL     1       4.681  -2.689   4.989  0.00  0.00    +0.000 N 
ATOM     14  N   UNL     1       3.443  -0.946   4.152  0.00  0.00    +0.000 NA
ATOM     15  H   UNL     1       2.706  -4.078   4.292  0.00  0.00    +0.000 HD
ATOM     16  H   UNL     1       4.987  -3.621   4.744  0.00  0.00    +0.000 HD
ATOM     17  H   UNL     1       5.430  -2.005   4.984  0.00  0.00    +0.000 HD
ENDBRANCH   5   8
ENDBRANCH   1   5
BRANCH   3  18
ATOM     18  C   UNL     1      -1.229  -3.346  -0.107  0.00  0.00    +0.000 C 
BRANCH  18  19
ATOM     19  C   UNL     1      -1.977  -4.655   0.021  0.00  0.00    +0.000 A 
ATOM     20  C   UNL     1      -3.366  -4.647   0.091  0.00  0.00    +0.000 A 
ATOM     21  C   UNL     1      -4.062  -5.867   0.121  0.00  0.00    +0.000 A 
ATOM     22  C   UNL     1      -3.424  -7.119   0.047  0.00  0.00    +0.000 A 
ATOM     23  C   UNL     1      -2.025  -7.094   0.064  0.00  0.00    +0.000 A 
ATOM     24  C   UNL     1      -1.309  -5.862   0.028  0.00  0.00    +0.000 A 
BRANCH  22  25
ATOM     25  C   UNL     1      -4.233  -8.355  -0.078  0.00  0.00    +0.000 A 
ATOM     26  C   UNL     1      -5.482  -8.281  -0.726  0.00  0.00    +0.000 A 
ATOM     27  C   UNL     1      -6.371  -9.347  -0.738  0.00  0.00    +0.000 A 
ATOM     28  C   UNL     1      -5.959 -10.583  -0.255  0.00  0.00    +0.000 A 
ATOM     29  C   UNL     1      -6.825 -11.666  -0.305  0.00  0.00    +0.000 A 
ATOM     30  C   UNL     1      -6.321 -12.933  -0.512  0.00  0.00    +0.000 A 
ATOM     31  C   UNL     1      -5.009 -13.167  -0.136  0.00  0.00    +0.000 A 
ATOM     32  C   UNL     1      -4.216 -12.112   0.343  0.00  0.00    +0.000 A 
ATOM     33  C   UNL     1      -4.642 -10.777   0.180  0.00  0.00    +0.000 A 
ATOM     34  C   UNL     1      -3.826  -9.630   0.371  0.00  0.00    +0.000 A 
ENDBRANCH  22  25
ENDBRANCH  18  19
ENDBRANCH   3  18
TORSDOF 5
