REMARK  Name = 
REMARK  4 active torsions:
REMARK  status: ('A' for Active; 'I' for Inactive)
REMARK    1  A    between atoms: C_2  and  C_17
REMARK    2  A    between atoms: N_3  and  C_4
REMARK    3  A    between atoms: C_4  and  C_5
REMARK    4  A    between atoms: C_8  and  C_9
REMARK                            x       y       z     vdW  Elec       q    Type
REMARK                         _______ _______ _______ _____ _____    ______ ____
ROOT
ATOM      1  O   UNL     1       3.076  -2.014   1.492  0.00  0.00    +0.000 OA
ATOM      2  C   UNL     1       3.308  -1.034   0.790  0.00  0.00    +0.000 C 
ATOM      3  N   UNL     1       2.957  -0.952  -0.538  0.00  0.00    +0.000 N 
ATOM      4  H   UNL     1       3.340  -0.219  -1.118  0.00  0.00    +0.000 HD
ENDROOT
BRANCH   2   5
ATOM      5  C   UNL     1       3.998   0.134   1.380  0.00  0.00    +0.000 A 
ATOM      6  C   UNL     1       4.794  -0.063   2.495  0.00  0.00    +0.000 A 
ATOM      7  N   UNL     1       5.385   0.940   3.190  0.00  0.00    +0.000 NA
ATOM      8  C   UNL     1       5.171   2.214   2.796  0.00  0.00    +0.000 A 
ATOM      9  C   UNL     1       5.686   3.290   3.525  0.00  0.00    +0.000 A 
ATOM     10  F   UNL     1       6.395   3.059   4.642  0.00  0.00    +0.000 F 
ATOM     11  C   UNL     1       5.470   4.620   3.160  0.00  0.00    +0.000 A 
ATOM     12  C   UNL     1       4.741   4.902   2.012  0.00  0.00    +0.000 A 
ATOM     13  C   UNL     1       4.220   3.850   1.268  0.00  0.00    +0.000 A 
ATOM     14  F   UNL     1       3.515   4.139   0.163  0.00  0.00    +0.000 F 
ATOM     15  C   UNL     1       4.404   2.509   1.649  0.00  0.00    +0.000 A 
ATOM     16  C   UNL     1       3.815   1.444   0.940  0.00  0.00    +0.000 A 
ENDBRANCH   2   5
BRANCH   3  17
ATOM     17  C   UNL     1       2.256  -2.035  -1.192  0.00  0.00    +0.000 C 
BRANCH  17  18
ATOM     18  C   UNL     1       3.198  -3.033  -1.797  0.00  0.00    +0.000 A 
ATOM     19  C   UNL     1       3.643  -4.143  -1.080  0.00  0.00    +0.000 A 
ATOM     20  C   UNL     1       4.502  -5.061  -1.683  0.00  0.00    +0.000 A 
ATOM     21  C   UNL     1       4.917  -4.851  -2.998  0.00  0.00    +0.000 A 
ATOM     22  N   UNL     1       4.505  -3.764  -3.701  0.00  0.00    +0.000 NA
ATOM     23  C   UNL     1       3.671  -2.889  -3.091  0.00  0.00    +0.000 A 
BRANCH  21  24
ATOM     24  C   UNL     1       5.792  -5.793  -3.728  0.00  0.00    +0.000 A 
ATOM     25  C   UNL     1       5.724  -5.895  -5.126  0.00  0.00    +0.000 A 
ATOM     26  C   UNL     1       6.531  -6.807  -5.788  0.00  0.00    +0.000 A 
ATOM     27  N   UNL     1       7.406  -7.622  -5.166  0.00  0.00    +0.000 NA
ATOM     28  C   UNL     1       7.481  -7.509  -3.825  0.00  0.00    +0.000 A 
ATOM     29  C   UNL     1       6.713  -6.627  -3.078  0.00  0.00    +0.000 A 
ENDBRANCH  21  24
ENDBRANCH  17  18
ENDBRANCH   3  17
TORSDOF 4
