REMARK  Name = 
REMARK  3 active torsions:
REMARK  status: ('A' for Active; 'I' for Inactive)
REMARK    1  A    between atoms: C_2  and  C_3
REMARK    2  A    between atoms: C_6  and  O_7
REMARK    3  A    between atoms: N_16  and  C_17
REMARK                            x       y       z     vdW  Elec       q    Type
REMARK                         _______ _______ _______ _____ _____    ______ ____
ROOT
ATOM      1  O   UNL     1       1.575   0.671  -0.604  0.00  0.00    +0.000 OA
ATOM      2  C   UNL     1       2.541   0.074  -0.119  0.00  0.00    +0.000 C 
ATOM      3  N   UNL     1       3.195  -0.942  -0.845  0.00  0.00    +0.000 N 
ATOM      4  C   UNL     1       2.680  -1.216  -2.192  0.00  0.00    +0.000 C 
ATOM      5  C   UNL     1       2.450  -2.688  -2.486  0.00  0.00    +0.000 C 
ATOM      6  O   UNL     1       1.651  -3.019  -3.362  0.00  0.00    +0.000 OA
ATOM      7  N   UNL     1       3.299  -3.568  -1.813  0.00  0.00    +0.000 N 
ATOM      8  C   UNL     1       4.324  -3.097  -0.925  0.00  0.00    +0.000 A 
ATOM      9  C   UNL     1       5.367  -3.941  -0.492  0.00  0.00    +0.000 A 
ATOM     10  C   UNL     1       6.345  -3.488   0.388  0.00  0.00    +0.000 A 
ATOM     11  C   UNL     1       6.352  -2.158   0.776  0.00  0.00    +0.000 A 
ATOM     12  C   UNL     1       5.371  -1.285   0.299  0.00  0.00    +0.000 A 
ATOM     13  C   UNL     1       4.310  -1.753  -0.485  0.00  0.00    +0.000 A 
ENDROOT
BRANCH   2  14
ATOM     14  C   UNL     1       2.911   0.488   1.265  0.00  0.00    +0.000 A 
ATOM     15  C   UNL     1       2.758   1.840   1.608  0.00  0.00    +0.000 A 
ATOM     16  F   UNL     1       2.216   2.728   0.759  0.00  0.00    +0.000 F 
ATOM     17  C   UNL     1       3.186   2.322   2.843  0.00  0.00    +0.000 A 
ATOM     18  C   UNL     1       3.811   1.464   3.735  0.00  0.00    +0.000 A 
ATOM     19  F   UNL     1       4.318   1.924   4.886  0.00  0.00    +0.000 F 
ATOM     20  C   UNL     1       3.906   0.107   3.447  0.00  0.00    +0.000 A 
ATOM     21  C   UNL     1       3.391  -0.392   2.244  0.00  0.00    +0.000 A 
BRANCH  17  22
ATOM     22  O   UNL     1       3.003   3.638   3.171  0.00  0.00    +0.000 OA
ATOM     23  H   UNL     1       2.447   4.038   2.475  0.00  0.00    +0.000 HD
ENDBRANCH  17  22
ENDBRANCH   2  14
BRANCH   7  24
ATOM     24  C   UNL     1       3.190  -4.965  -2.051  0.00  0.00    +0.000 A 
ATOM     25  C   UNL     1       3.339  -5.485  -3.342  0.00  0.00    +0.000 A 
ATOM     26  C   UNL     1       3.309  -6.865  -3.549  0.00  0.00    +0.000 A 
ATOM     27  C   UNL     1       3.094  -7.729  -2.475  0.00  0.00    +0.000 A 
ATOM     28  C   UNL     1       2.894  -7.217  -1.195  0.00  0.00    +0.000 A 
ATOM     29  C   UNL     1       2.941  -5.840  -0.983  0.00  0.00    +0.000 A 
ENDBRANCH   7  24
TORSDOF 3
