REMARK  Name = 
REMARK  4 active torsions:
REMARK  status: ('A' for Active; 'I' for Inactive)
REMARK    1  A    between atoms: C_2  and  C_17
REMARK    2  A    between atoms: C_6  and  O_7
REMARK    3  A    between atoms: C_10  and  C_11
REMARK    4  A    between atoms: N_19  and  C_20
REMARK                            x       y       z     vdW  Elec       q    Type
REMARK                         _______ _______ _______ _____ _____    ______ ____
ROOT
ATOM      1  O   UNL     1       0.884   0.038  -0.280  0.00  0.00    +0.000 OA
ATOM      2  C   UNL     1       2.100   0.063  -0.111  0.00  0.00    +0.000 C 
ATOM      3  N   UNL     1       2.796   1.128   0.424  0.00  0.00    +0.000 N 
ATOM      4  C   UNL     1       2.103   2.269   0.869  0.00  0.00    +0.000 A 
ATOM      5  N   UNL     1       1.373   2.913  -0.076  0.00  0.00    +0.000 NA
ATOM      6  C   UNL     1       0.774   4.046   0.297  0.00  0.00    +0.000 A 
ATOM      7  C   UNL     1       0.835   4.598   1.551  0.00  0.00    +0.000 A 
ATOM      8  C   UNL     1       1.575   3.915   2.512  0.00  0.00    +0.000 A 
ATOM      9  C   UNL     1       2.256   2.720   2.200  0.00  0.00    +0.000 A 
ATOM     10  H   UNL     1       3.705   0.973   0.834  0.00  0.00    +0.000 HD
ENDROOT
BRANCH   2  11
ATOM     11  C   UNL     1       2.912  -1.168  -0.381  0.00  0.00    +0.000 A 
ATOM     12  C   UNL     1       2.355  -2.043  -1.236  0.00  0.00    +0.000 A 
ATOM     13  N   UNL     1       2.956  -3.252  -1.586  0.00  0.00    +0.000 N 
ATOM     14  C   UNL     1       4.207  -3.616  -1.049  0.00  0.00    +0.000 A 
ATOM     15  O   UNL     1       4.828  -4.651  -1.276  0.00  0.00    +0.000 OA
ATOM     16  C   UNL     1       4.788  -2.658  -0.065  0.00  0.00    +0.000 A 
ATOM     17  C   UNL     1       4.168  -1.512   0.248  0.00  0.00    +0.000 A 
BRANCH  13  18
ATOM     18  C   UNL     1       2.283  -4.137  -2.492  0.00  0.00    +0.000 A 
ATOM     19  C   UNL     1       2.974  -4.779  -3.525  0.00  0.00    +0.000 A 
ATOM     20  C   UNL     1       2.272  -5.559  -4.442  0.00  0.00    +0.000 A 
ATOM     21  F   UNL     1       2.930  -6.125  -5.466  0.00  0.00    +0.000 F 
ATOM     22  C   UNL     1       0.900  -5.745  -4.335  0.00  0.00    +0.000 A 
ATOM     23  C   UNL     1       0.207  -5.139  -3.289  0.00  0.00    +0.000 A 
ATOM     24  C   UNL     1       0.891  -4.330  -2.383  0.00  0.00    +0.000 A 
ENDBRANCH  13  18
ENDBRANCH   2  11
BRANCH   9  25
ATOM     25  C   UNL     1       2.999   1.993   3.269  0.00  0.00    +0.000 A 
ATOM     26  C   UNL     1       3.001   0.588   3.367  0.00  0.00    +0.000 A 
ATOM     27  C   UNL     1       3.717  -0.085   4.363  0.00  0.00    +0.000 A 
ATOM     28  C   UNL     1       4.401   0.636   5.334  0.00  0.00    +0.000 A 
ATOM     29  C   UNL     1       4.375   2.025   5.300  0.00  0.00    +0.000 A 
ATOM     30  C   UNL     1       3.699   2.692   4.272  0.00  0.00    +0.000 A 
ENDBRANCH   9  25
BRANCH   6  31
ATOM     31  O   UNL     1       0.078   4.655  -0.692  0.00  0.00    +0.000 OA
ATOM     32  H   UNL     1       0.212   4.010  -1.410  0.00  0.00    +0.000 HD
ENDBRANCH   6  31
TORSDOF 4
