REMARK  Name = 
REMARK  7 active torsions:
REMARK  status: ('A' for Active; 'I' for Inactive)
REMARK    1  A    between atoms: C_1  and  C_2
REMARK    2  A    between atoms: N_10  and  C_11
REMARK    3  A    between atoms: C_11  and  C_12
REMARK    4  A    between atoms: C_12  and  N_13
REMARK    5  A    between atoms: C_14  and  C_16
REMARK    6  A    between atoms: C_23  and  C_24
REMARK    7  A    between atoms: C_24  and  C_26
REMARK                            x       y       z     vdW  Elec       q    Type
REMARK                         _______ _______ _______ _____ _____    ______ ____
ROOT
ATOM      1  N   UNL     1       4.751  -5.122   0.293  0.00  0.00    +0.000 N 
ATOM      2  C   UNL     1       4.032  -6.283   0.524  0.00  0.00    +0.000 C 
ATOM      3  O   UNL     1       2.845  -6.304   0.802  0.00  0.00    +0.000 OA
ATOM      4  H   UNL     1       5.681  -5.174  -0.104  0.00  0.00    +0.000 HD
ENDROOT
BRANCH   2   5
ATOM      5  C   UNL     1       4.803  -7.548   0.455  0.00  0.00    +0.000 A 
ATOM      6  C   UNL     1       6.122  -7.517   0.948  0.00  0.00    +0.000 A 
ATOM      7  C   UNL     1       6.867  -8.686   1.025  0.00  0.00    +0.000 A 
ATOM      8  F   UNL     1       8.118  -8.634   1.499  0.00  0.00    +0.000 F 
ATOM      9  C   UNL     1       6.312  -9.896   0.638  0.00  0.00    +0.000 A 
ATOM     10  F   UNL     1       7.027 -11.023   0.736  0.00  0.00    +0.000 F 
ATOM     11  C   UNL     1       5.009  -9.947   0.154  0.00  0.00    +0.000 A 
ATOM     12  C   UNL     1       4.239  -8.771   0.042  0.00  0.00    +0.000 A 
BRANCH  12  13
ATOM     13  C   UNL     1       2.852  -8.967  -0.484  0.00  0.00    +0.000 C 
ATOM     14  O   UNL     1       2.277 -10.014  -0.183  0.00  0.00    +0.000 OA
BRANCH  13  15
ATOM     15  C   UNL     1       2.181  -8.043  -1.431  0.00  0.00    +0.000 A 
ATOM     16  C   UNL     1       0.781  -8.034  -1.472  0.00  0.00    +0.000 A 
ATOM     17  C   UNL     1       0.105  -7.218  -2.381  0.00  0.00    +0.000 A 
ATOM     18  C   UNL     1       0.827  -6.409  -3.255  0.00  0.00    +0.000 A 
ATOM     19  C   UNL     1       2.221  -6.409  -3.218  0.00  0.00    +0.000 A 
ATOM     20  C   UNL     1       2.901  -7.234  -2.319  0.00  0.00    +0.000 A 
ENDBRANCH  13  15
ENDBRANCH  12  13
ENDBRANCH   2   5
BRANCH   1  21
ATOM     21  C   UNL     1       4.136  -3.809   0.364  0.00  0.00    +0.000 C 
BRANCH  21  22
ATOM     22  C   UNL     1       3.444  -3.518   1.706  0.00  0.00    +0.000 C 
BRANCH  22  32
ATOM     23  C   UNL     1       3.344   1.368   2.810  0.00  0.00    +0.000 C 
ATOM     24  C   UNL     1       2.652   0.183   2.201  0.00  0.00    +0.000 A 
ATOM     25  N   UNL     1       1.443   0.303   1.746  0.00  0.00    +0.000 NA
ATOM     26  C   UNL     1       0.802  -0.846   1.258  0.00  0.00    +0.000 A 
ATOM     27  C   UNL     1      -0.517  -0.702   0.813  0.00  0.00    +0.000 A 
ATOM     28  C   UNL     1      -1.252  -1.805   0.383  0.00  0.00    +0.000 A 
ATOM     29  C   UNL     1      -0.662  -3.064   0.375  0.00  0.00    +0.000 A 
ATOM     30  C   UNL     1       0.664  -3.219   0.787  0.00  0.00    +0.000 A 
ATOM     31  C   UNL     1       1.407  -2.118   1.244  0.00  0.00    +0.000 A 
ATOM     32  N   UNL     1       2.747  -2.238   1.715  0.00  0.00    +0.000 N 
ATOM     33  C   UNL     1       3.431  -1.122   2.179  0.00  0.00    +0.000 A 
ATOM     34  O   UNL     1       4.596  -1.120   2.560  0.00  0.00    +0.000 OA
ENDBRANCH  22  32
ENDBRANCH  21  22
ENDBRANCH   1  21
TORSDOF 6
