REMARK  Name = 
REMARK  4 active torsions:
REMARK  status: ('A' for Active; 'I' for Inactive)
REMARK    1  A    between atoms: C_2  and  C_3
REMARK    2  A    between atoms: C_2  and  C_9
REMARK    3  A    between atoms: C_11  and  N_12
REMARK    4  A    between atoms: C_13  and  C_15
REMARK                            x       y       z     vdW  Elec       q    Type
REMARK                         _______ _______ _______ _____ _____    ______ ____
ROOT
ATOM      1  N   UNL     1       2.878  -3.342  -3.433  0.00  0.00    +0.000 N 
ATOM      2  C   UNL     1       1.818  -2.926  -4.226  0.00  0.00    +0.000 C 
ATOM      3  O   UNL     1       1.056  -1.998  -3.968  0.00  0.00    +0.000 OA
ATOM      4  H   UNL     1       3.477  -4.081  -3.789  0.00  0.00    +0.000 HD
ENDROOT
BRANCH   2   5
ATOM      5  C   UNL     1       1.566  -3.642  -5.506  0.00  0.00    +0.000 A 
ATOM      6  C   UNL     1       2.420  -4.619  -6.020  0.00  0.00    +0.000 A 
ATOM      7  F   UNL     1       3.543  -4.986  -5.384  0.00  0.00    +0.000 F 
ATOM      8  C   UNL     1       2.076  -5.203  -7.219  0.00  0.00    +0.000 A 
ATOM      9  C   UNL     1       0.920  -4.843  -7.910  0.00  0.00    +0.000 A 
ATOM     10  C   UNL     1       0.053  -3.887  -7.446  0.00  0.00    +0.000 A 
ATOM     11  C   UNL     1       0.389  -3.284  -6.229  0.00  0.00    +0.000 A 
ATOM     12  N   UNL     1       0.855  -5.604  -9.069  0.00  0.00    +0.000 N 
ATOM     13  C   UNL     1       1.974  -6.448  -9.117  0.00  0.00    +0.000 A 
ATOM     14  O   UNL     1       2.238  -7.254  -9.990  0.00  0.00    +0.000 OA
ATOM     15  N   UNL     1       2.722  -6.189  -7.962  0.00  0.00    +0.000 N 
ATOM     16  H   UNL     1       0.139  -5.580  -9.778  0.00  0.00    +0.000 HD
ATOM     17  H   UNL     1       3.585  -6.659  -7.736  0.00  0.00    +0.000 HD
ENDBRANCH   2   5
BRANCH   1  20
ATOM     18  C   UNL     1       2.986  -1.113  -0.416  0.00  0.00    +0.000 A 
ATOM     19  C   UNL     1       2.524  -1.758  -1.572  0.00  0.00    +0.000 A 
ATOM     20  C   UNL     1       3.251  -2.778  -2.187  0.00  0.00    +0.000 A 
ATOM     21  C   UNL     1       4.408  -3.239  -1.553  0.00  0.00    +0.000 A 
ATOM     22  C   UNL     1       4.829  -2.665  -0.344  0.00  0.00    +0.000 A 
ATOM     23  C   UNL     1       4.124  -1.598   0.215  0.00  0.00    +0.000 A 
ATOM     24  F   UNL     1       4.594  -1.040   1.337  0.00  0.00    +0.000 F 
BRANCH  18  26
ATOM     25  O   UNL     1       2.157   0.290   1.290  0.00  0.00    +0.000 OA
ATOM     26  C   UNL     1       2.260   0.085   0.087  0.00  0.00    +0.000 C 
BRANCH  26  27
ATOM     27  C   UNL     1       1.599   1.011  -0.886  0.00  0.00    +0.000 A 
ATOM     28  C   UNL     1       2.134   1.234  -2.165  0.00  0.00    +0.000 A 
ATOM     29  C   UNL     1       1.416   1.966  -3.111  0.00  0.00    +0.000 A 
ATOM     30  C   UNL     1       0.184   2.520  -2.772  0.00  0.00    +0.000 A 
ATOM     31  C   UNL     1      -0.322   2.359  -1.481  0.00  0.00    +0.000 A 
ATOM     32  C   UNL     1       0.383   1.606  -0.537  0.00  0.00    +0.000 A 
ENDBRANCH  26  27
ENDBRANCH  18  26
ENDBRANCH   1  20
TORSDOF 4
