REMARK  Name = 
REMARK  6 active torsions:
REMARK  status: ('A' for Active; 'I' for Inactive)
REMARK    1  A    between atoms: C_2  and  C_18
REMARK    2  A    between atoms: N_3  and  C_4
REMARK    3  A    between atoms: C_9  and  O_10
REMARK    4  A    between atoms: O_10  and  C_11
REMARK    5  A    between atoms: C_11  and  C_12
REMARK    6  A    between atoms: N_22  and  C_23
REMARK                            x       y       z     vdW  Elec       q    Type
REMARK                         _______ _______ _______ _____ _____    ______ ____
ROOT
ATOM      1  O   UNL     1       2.772  -0.888   0.650  0.00  0.00    +0.000 OA
ATOM      2  C   UNL     1       2.203   0.086   0.160  0.00  0.00    +0.000 C 
ATOM      3  N   UNL     1       2.936   1.206  -0.188  0.00  0.00    +0.000 N 
ATOM      4  H   UNL     1       3.869   1.254   0.212  0.00  0.00    +0.000 HD
ENDROOT
BRANCH   2   5
ATOM      5  C   UNL     1       0.712   0.094   0.006  0.00  0.00    +0.000 A 
ATOM      6  C   UNL     1       0.021  -1.048  -0.064  0.00  0.00    +0.000 A 
ATOM      7  C   UNL     1      -1.446  -1.062  -0.337  0.00  0.00    +0.000 A 
ATOM      8  O   UNL     1      -1.997  -2.158  -0.363  0.00  0.00    +0.000 OA
ATOM      9  N   UNL     1      -2.022   0.184  -0.623  0.00  0.00    +0.000 N 
ATOM     10  N   UNL     1      -1.367   1.367  -0.381  0.00  0.00    +0.000 NA
ATOM     11  C   UNL     1      -0.134   1.291  -0.018  0.00  0.00    +0.000 A 
BRANCH   9  12
ATOM     12  C   UNL     1      -3.399   0.395  -0.947  0.00  0.00    +0.000 A 
ATOM     13  C   UNL     1      -4.405  -0.499  -0.562  0.00  0.00    +0.000 A 
ATOM     14  C   UNL     1      -5.751  -0.218  -0.822  0.00  0.00    +0.000 A 
ATOM     15  C   UNL     1      -6.111   0.942  -1.504  0.00  0.00    +0.000 A 
ATOM     16  C   UNL     1      -5.127   1.832  -1.919  0.00  0.00    +0.000 A 
ATOM     17  C   UNL     1      -3.785   1.567  -1.631  0.00  0.00    +0.000 A 
ENDBRANCH   9  12
ENDBRANCH   2   5
BRANCH   3  18
ATOM     18  C   UNL     1       2.473   2.320  -0.919  0.00  0.00    +0.000 A 
ATOM     19  C   UNL     1       1.847   2.094  -2.155  0.00  0.00    +0.000 A 
ATOM     20  C   UNL     1       1.109   3.109  -2.764  0.00  0.00    +0.000 A 
ATOM     21  C   UNL     1       0.977   4.340  -2.132  0.00  0.00    +0.000 A 
ATOM     22  C   UNL     1       1.646   4.583  -0.931  0.00  0.00    +0.000 A 
ATOM     23  C   UNL     1       2.460   3.601  -0.344  0.00  0.00    +0.000 A 
BRANCH  23  24
ATOM     24  O   UNL     1       3.132   3.800   0.841  0.00  0.00    +0.000 OA
BRANCH  24  25
ATOM     25  C   UNL     1       3.383   5.183   1.138  0.00  0.00    +0.000 C 
BRANCH  25  26
ATOM     26  C   UNL     1       4.592   5.394   2.001  0.00  0.00    +0.000 A 
ATOM     27  C   UNL     1       5.258   4.375   2.673  0.00  0.00    +0.000 A 
ATOM     28  C   UNL     1       6.410   4.671   3.397  0.00  0.00    +0.000 A 
ATOM     29  C   UNL     1       6.834   5.986   3.444  0.00  0.00    +0.000 A 
ATOM     30  N   UNL     1       6.198   7.012   2.845  0.00  0.00    +0.000 NA
ATOM     31  C   UNL     1       5.089   6.691   2.144  0.00  0.00    +0.000 A 
ENDBRANCH  25  26
ENDBRANCH  24  25
ENDBRANCH  23  24
ENDBRANCH   3  18
TORSDOF 6
