REMARK  Name = 
REMARK  4 active torsions:
REMARK  status: ('A' for Active; 'I' for Inactive)
REMARK    1  A    between atoms: C_2  and  C_24
REMARK    2  A    between atoms: N_3  and  C_4
REMARK    3  A    between atoms: C_8  and  N_9
REMARK    4  A    between atoms: C_10  and  C_12
REMARK                            x       y       z     vdW  Elec       q    Type
REMARK                         _______ _______ _______ _____ _____    ______ ____
ROOT
ATOM      1  C   UNL     1       2.252   1.820   1.602  0.00  0.00    +0.000 A 
ATOM      2  C   UNL     1       1.085   1.450   2.276  0.00  0.00    +0.000 A 
ATOM      3  C   UNL     1       0.514   2.284   3.225  0.00  0.00    +0.000 A 
ATOM      4  C   UNL     1       1.122   3.489   3.546  0.00  0.00    +0.000 A 
ATOM      5  C   UNL     1       2.328   3.868   2.943  0.00  0.00    +0.000 A 
ATOM      6  C   UNL     1       2.881   3.030   1.956  0.00  0.00    +0.000 A 
ENDROOT
BRANCH   1   9
ATOM      7  O   UNL     1       1.003  -0.367   0.130  0.00  0.00    +0.000 OA
ATOM      8  C   UNL     1       2.188  -0.073  -0.010  0.00  0.00    +0.000 C 
ATOM      9  N   UNL     1       2.824   0.994   0.596  0.00  0.00    +0.000 N 
ATOM     10  H   UNL     1       3.731   1.275   0.240  0.00  0.00    +0.000 HD
BRANCH   8  11
ATOM     11  C   UNL     1       3.018  -0.892  -0.958  0.00  0.00    +0.000 A 
ATOM     12  C   UNL     1       2.336  -1.589  -1.890  0.00  0.00    +0.000 A 
ATOM     13  N   UNL     1       2.975  -2.470  -2.724  0.00  0.00    +0.000 N 
ATOM     14  C   UNL     1       4.324  -2.745  -2.653  0.00  0.00    +0.000 A 
ATOM     15  O   UNL     1       4.872  -3.572  -3.377  0.00  0.00    +0.000 OA
ATOM     16  C   UNL     1       5.082  -1.983  -1.632  0.00  0.00    +0.000 A 
ATOM     17  C   UNL     1       4.447  -1.103  -0.830  0.00  0.00    +0.000 A 
ATOM     18  H   UNL     1       2.446  -3.005  -3.400  0.00  0.00    +0.000 HD
ENDBRANCH   8  11
ENDBRANCH   1   9
BRANCH   5  19
ATOM     19  N   UNL     1       3.011   5.064   3.300  0.00  0.00    +0.000 N 
ATOM     20  C   UNL     1       2.649   5.929   4.323  0.00  0.00    +0.000 C 
ATOM     21  O   UNL     1       1.670   5.798   5.057  0.00  0.00    +0.000 OA
ATOM     22  H   UNL     1       3.857   5.276   2.782  0.00  0.00    +0.000 HD
BRANCH  20  23
ATOM     23  C   UNL     1       3.473   7.148   4.552  0.00  0.00    +0.000 A 
ATOM     24  C   UNL     1       3.076   8.003   5.593  0.00  0.00    +0.000 A 
ATOM     25  C   UNL     1       3.628   9.283   5.724  0.00  0.00    +0.000 A 
ATOM     26  C   UNL     1       3.236  10.160   6.734  0.00  0.00    +0.000 A 
ATOM     27  N   UNL     1       3.509  11.480   6.728  0.00  0.00    +0.000 NA
ATOM     28  C   UNL     1       4.253  11.935   5.699  0.00  0.00    +0.000 A 
ATOM     29  C   UNL     1       4.855  11.111   4.758  0.00  0.00    +0.000 A 
ATOM     30  C   UNL     1       4.552   9.742   4.771  0.00  0.00    +0.000 A 
ATOM     31  C   UNL     1       5.081   8.818   3.849  0.00  0.00    +0.000 A 
ATOM     32  C   UNL     1       4.543   7.532   3.750  0.00  0.00    +0.000 A 
ATOM     33  F   UNL     1       5.048   6.694   2.832  0.00  0.00    +0.000 F 
ENDBRANCH  20  23
ENDBRANCH   5  19
TORSDOF 4
