REMARK  Name = 
REMARK  8 active torsions:
REMARK  status: ('A' for Active; 'I' for Inactive)
REMARK    1  A    between atoms: C_1  and  C_2
REMARK    2  A    between atoms: C_3  and  C_4
REMARK    3  A    between atoms: N_6  and  C_7
REMARK    4  A    between atoms: C_10  and  C_11
REMARK    5  A    between atoms: N_13  and  C_14
REMARK    6  A    between atoms: C_14  and  C_15
REMARK    7  A    between atoms: C_19  and  C_20
REMARK    8  A    between atoms: C_27  and  O_28
REMARK                            x       y       z     vdW  Elec       q    Type
REMARK                         _______ _______ _______ _____ _____    ______ ____
ROOT
ATOM      1  C   UNL     1       1.970  -4.526   0.033  0.00  0.00    +0.000 A 
ATOM      2  C   UNL     1       1.188  -5.558  -0.497  0.00  0.00    +0.000 A 
ATOM      3  C   UNL     1       1.664  -6.875  -0.548  0.00  0.00    +0.000 A 
ATOM      4  C   UNL     1       2.940  -7.192  -0.071  0.00  0.00    +0.000 A 
ATOM      5  C   UNL     1       3.744  -6.157   0.419  0.00  0.00    +0.000 A 
ATOM      6  C   UNL     1       3.264  -4.838   0.474  0.00  0.00    +0.000 A 
ENDROOT
BRANCH   1   9
ATOM      7  C   UNL     1       0.205  -2.761   0.037  0.00  0.00    +0.000 C 
ATOM      8  O   UNL     1      -0.755  -3.501  -0.158  0.00  0.00    +0.000 OA
ATOM      9  N   UNL     1       1.524  -3.182   0.142  0.00  0.00    +0.000 N 
ATOM     10  H   UNL     1       2.198  -2.508   0.482  0.00  0.00    +0.000 HD
BRANCH   7  13
ATOM     11  C   UNL     1       1.898   0.113  -0.777  0.00  0.00    +0.000 C 
ATOM     12  C   UNL     1       0.662  -0.214  -0.042  0.00  0.00    +0.000 A 
ATOM     13  C   UNL     1      -0.042  -1.355   0.288  0.00  0.00    +0.000 A 
ATOM     14  C   UNL     1      -1.212  -0.844   0.902  0.00  0.00    +0.000 A 
ATOM     15  N   UNL     1      -1.208   0.484   0.991  0.00  0.00    +0.000 NA
ATOM     16  O   UNL     1      -0.031   0.881   0.390  0.00  0.00    +0.000 OA
ENDBRANCH   7  13
ENDBRANCH   1   9
BRANCH   4  17
ATOM     17  C   UNL     1       3.374  -8.613  -0.168  0.00  0.00    +0.000 C 
ATOM     18  O   UNL     1       2.951  -9.322  -1.074  0.00  0.00    +0.000 OA
ATOM     19  N   UNL     1       4.250  -9.059   0.799  0.00  0.00    +0.000 N 
ATOM     20  H   UNL     1       4.298  -8.550   1.676  0.00  0.00    +0.000 HD
BRANCH  19  21
ATOM     21  C   UNL     1       4.673 -10.448   0.827  0.00  0.00    +0.000 C 
BRANCH  21  22
ATOM     22  C   UNL     1       6.051 -10.559   1.424  0.00  0.00    +0.000 A 
ATOM     23  C   UNL     1       7.178 -10.452   0.601  0.00  0.00    +0.000 A 
ATOM     24  C   UNL     1       8.456 -10.499   1.149  0.00  0.00    +0.000 A 
ATOM     25  C   UNL     1       8.618 -10.618   2.530  0.00  0.00    +0.000 A 
ATOM     26  C   UNL     1       7.511 -10.690   3.396  0.00  0.00    +0.000 A 
ATOM     27  C   UNL     1       6.229 -10.694   2.812  0.00  0.00    +0.000 A 
BRANCH  26  28
ATOM     28  C   UNL     1       7.680 -10.700   4.864  0.00  0.00    +0.000 A 
ATOM     29  C   UNL     1       8.693  -9.970   5.492  0.00  0.00    +0.000 A 
ATOM     30  C   UNL     1       8.784  -9.974   6.880  0.00  0.00    +0.000 A 
ATOM     31  C   UNL     1       7.866 -10.708   7.615  0.00  0.00    +0.000 A 
ATOM     32  C   UNL     1       6.886 -11.402   6.926  0.00  0.00    +0.000 A 
ATOM     33  N   UNL     1       6.769 -11.407   5.575  0.00  0.00    +0.000 NA
ENDBRANCH  26  28
ENDBRANCH  21  22
ENDBRANCH  19  21
ENDBRANCH   4  17
BRANCH   5  34
ATOM     34  O   UNL     1       5.035  -6.344   0.836  0.00  0.00    +0.000 OA
ATOM     35  H   UNL     1       5.359  -7.197   0.487  0.00  0.00    +0.000 HD
ENDBRANCH   5  34
TORSDOF 7
