REMARK  Name = 
REMARK  7 active torsions:
REMARK  status: ('A' for Active; 'I' for Inactive)
REMARK    1  A    between atoms: C_1  and  N_2
REMARK    2  A    between atoms: C_4  and  C_5
REMARK    3  A    between atoms: N_7  and  C_8
REMARK    4  A    between atoms: N_7  and  C_12
REMARK    5  A    between atoms: C_8  and  C_9
REMARK    6  A    between atoms: C_12  and  C_13
REMARK    7  A    between atoms: C_16  and  C_17
REMARK                            x       y       z     vdW  Elec       q    Type
REMARK                         _______ _______ _______ _____ _____    ______ ____
ROOT
ATOM      1  C   UNL     1       5.550   1.517   0.388  0.00  0.00    +0.000 C 
ATOM      2  O   UNL     1       4.547   0.879   0.725  0.00  0.00    +0.000 OA
ATOM      3  N   UNL     1       5.398   2.922   0.137  0.00  0.00    +0.000 N 
ENDROOT
BRANCH   1   7
ATOM      4  C   UNL     1      10.458   0.319  -0.011  0.00  0.00    +0.000 C 
ATOM      5  N   UNL     1       9.015   0.177   0.036  0.00  0.00    +0.000 N 
ATOM      6  C   UNL     1       8.117   1.214  -0.031  0.00  0.00    +0.000 A 
ATOM      7  C   UNL     1       6.834   0.752   0.230  0.00  0.00    +0.000 A 
ATOM      8  C   UNL     1       6.999  -0.719   0.316  0.00  0.00    +0.000 A 
ATOM      9  C   UNL     1       6.129  -1.826   0.498  0.00  0.00    +0.000 A 
ATOM     10  C   UNL     1       6.641  -3.137   0.504  0.00  0.00    +0.000 A 
ATOM     11  F   UNL     1       5.804  -4.172   0.649  0.00  0.00    +0.000 F 
ATOM     12  C   UNL     1       7.996  -3.400   0.355  0.00  0.00    +0.000 A 
ATOM     13  C   UNL     1       8.882  -2.338   0.196  0.00  0.00    +0.000 A 
ATOM     14  C   UNL     1       8.364  -1.022   0.174  0.00  0.00    +0.000 A 
ENDBRANCH   1   7
BRANCH   3  15
ATOM     15  C   UNL     1       4.103   3.558   0.498  0.00  0.00    +0.000 C 
BRANCH  15  16
ATOM     16  C   UNL     1       2.670   3.139   0.112  0.00  0.00    +0.000 C 
ATOM     17  N   UNL     1       2.476   1.894  -0.400  0.00  0.00    +0.000 N 
ATOM     18  O   UNL     1       1.722   3.899   0.312  0.00  0.00    +0.000 OA
ATOM     19  H   UNL     1       3.122   1.693  -1.156  0.00  0.00    +0.000 HD
ATOM     20  H   UNL     1       2.790   1.198   0.282  0.00  0.00    +0.000 HD
ENDBRANCH  15  16
ENDBRANCH   3  15
BRANCH   3  21
ATOM     21  C   UNL     1       6.545   3.864   0.064  0.00  0.00    +0.000 C 
BRANCH  21  22
ATOM     22  C   UNL     1       6.262   5.376   0.104  0.00  0.00    +0.000 A 
ATOM     23  C   UNL     1       6.332   6.105   1.298  0.00  0.00    +0.000 A 
ATOM     24  C   UNL     1       6.045   7.489   1.331  0.00  0.00    +0.000 A 
ATOM     25  C   UNL     1       5.675   8.219   0.184  0.00  0.00    +0.000 A 
ATOM     26  C   UNL     1       5.569   7.466  -0.999  0.00  0.00    +0.000 A 
ATOM     27  C   UNL     1       5.861   6.082  -1.043  0.00  0.00    +0.000 A 
BRANCH  25  28
ATOM     28  C   UNL     1       5.419   9.698   0.240  0.00  0.00    +0.000 A 
ATOM     29  C   UNL     1       6.058  10.508   1.201  0.00  0.00    +0.000 A 
ATOM     30  C   UNL     1       5.812  11.896   1.296  0.00  0.00    +0.000 A 
ATOM     31  C   UNL     1       4.929  12.511   0.414  0.00  0.00    +0.000 A 
ATOM     32  C   UNL     1       4.304  11.745  -0.561  0.00  0.00    +0.000 A 
ATOM     33  C   UNL     1       4.543  10.357  -0.644  0.00  0.00    +0.000 A 
ENDBRANCH  25  28
ENDBRANCH  21  22
ENDBRANCH   3  21
TORSDOF 6
