REMARK  Name = 
REMARK  5 active torsions:
REMARK  status: ('A' for Active; 'I' for Inactive)
REMARK    1  A    between atoms: C_2  and  C_17
REMARK    2  A    between atoms: N_3  and  C_4
REMARK    3  A    between atoms: C_8  and  C_9
REMARK    4  A    between atoms: C_9  and  C_10
REMARK    5  A    between atoms: N_19  and  C_20
REMARK                            x       y       z     vdW  Elec       q    Type
REMARK                         _______ _______ _______ _____ _____    ______ ____
ROOT
ATOM      1  O   UNL     1       1.081  -0.438  -0.642  0.00  0.00    +0.000 OA
ATOM      2  C   UNL     1       2.221  -0.265  -0.218  0.00  0.00    +0.000 C 
ATOM      3  N   UNL     1       2.849  -1.082   0.707  0.00  0.00    +0.000 N 
ATOM      4  H   UNL     1       3.342  -0.570   1.425  0.00  0.00    +0.000 HD
ENDROOT
BRANCH   2   5
ATOM      5  C   UNL     1       2.987   0.954  -0.647  0.00  0.00    +0.000 A 
ATOM      6  C   UNL     1       4.327   0.940  -0.776  0.00  0.00    +0.000 A 
ATOM      7  N   UNL     1       5.039   2.048  -1.244  0.00  0.00    +0.000 N 
ATOM      8  C   UNL     1       4.384   3.232  -1.644  0.00  0.00    +0.000 A 
ATOM      9  O   UNL     1       4.916   4.240  -2.107  0.00  0.00    +0.000 OA
ATOM     10  C   UNL     1       2.901   3.211  -1.551  0.00  0.00    +0.000 A 
ATOM     11  C   UNL     1       2.265   2.135  -1.074  0.00  0.00    +0.000 A 
BRANCH   7  12
ATOM     12  C   UNL     1       6.457   1.990  -1.422  0.00  0.00    +0.000 A 
ATOM     13  C   UNL     1       7.276   3.006  -0.904  0.00  0.00    +0.000 A 
ATOM     14  C   UNL     1       8.653   2.986  -1.131  0.00  0.00    +0.000 A 
ATOM     15  C   UNL     1       9.204   1.968  -1.899  0.00  0.00    +0.000 A 
ATOM     16  F   UNL     1      10.519   1.972  -2.153  0.00  0.00    +0.000 F 
ATOM     17  C   UNL     1       8.409   0.953  -2.419  0.00  0.00    +0.000 A 
ATOM     18  C   UNL     1       7.036   0.949  -2.162  0.00  0.00    +0.000 A 
ENDBRANCH   7  12
ENDBRANCH   2   5
BRANCH   3  19
ATOM     19  C   UNL     1       2.116  -2.162   1.222  0.00  0.00    +0.000 A 
ATOM     20  C   UNL     1       1.910  -3.286   0.424  0.00  0.00    +0.000 A 
ATOM     21  C   UNL     1       1.151  -4.332   0.943  0.00  0.00    +0.000 A 
ATOM     22  C   UNL     1       0.588  -4.202   2.206  0.00  0.00    +0.000 A 
ATOM     23  C   UNL     1       0.867  -3.052   2.946  0.00  0.00    +0.000 A 
ATOM     24  N   UNL     1       1.673  -2.055   2.482  0.00  0.00    +0.000 NA
BRANCH  23  25
ATOM     25  C   UNL     1       0.257  -2.869   4.319  0.00  0.00    +0.000 C 
BRANCH  25  26
ATOM     26  C   UNL     1      -1.096  -2.183   4.357  0.00  0.00    +0.000 A 
ATOM     27  C   UNL     1      -1.254  -0.878   3.891  0.00  0.00    +0.000 A 
ATOM     28  C   UNL     1      -2.480  -0.233   4.067  0.00  0.00    +0.000 A 
ATOM     29  C   UNL     1      -3.518  -0.903   4.699  0.00  0.00    +0.000 A 
ATOM     30  C   UNL     1      -3.292  -2.203   5.119  0.00  0.00    +0.000 A 
ATOM     31  N   UNL     1      -2.114  -2.853   4.968  0.00  0.00    +0.000 NA
ENDBRANCH  25  26
ENDBRANCH  23  25
ENDBRANCH   3  19
TORSDOF 5
