REMARK  Name = 
REMARK  10 active torsions:
REMARK  status: ('A' for Active; 'I' for Inactive)
REMARK    1  A    between atoms: C_1  and  C_2
REMARK    2  A    between atoms: C_2  and  O_3
REMARK    3  A    between atoms: O_3  and  C_4
REMARK    4  A    between atoms: C_7  and  N_8
REMARK    5  A    between atoms: C_11  and  C_12
REMARK    6  A    between atoms: N_14  and  C_15
REMARK    7  A    between atoms: C_15  and  C_16
REMARK    8  A    between atoms: C_18  and  O_19
REMARK    9  A    between atoms: O_19  and  C_20
REMARK   10  A    between atoms: C_30  and  C_31
REMARK                            x       y       z     vdW  Elec       q    Type
REMARK                         _______ _______ _______ _____ _____    ______ ____
ROOT
ATOM      1  C   UNL     1      11.532   2.809  -1.881  0.00  0.00    +0.000 C 
ATOM      2  O   UNL     1      11.388   3.830  -1.217  0.00  0.00    +0.000 OA
ATOM      3  N   UNL     1      12.744   2.449  -2.424  0.00  0.00    +0.000 N 
ATOM      4  H   UNL     1      12.877   1.504  -2.758  0.00  0.00    +0.000 HD
ENDROOT
BRANCH   1   8
ATOM      5  N   UNL     1       8.557   0.701  -1.903  0.00  0.00    +0.000 N 
ATOM      6  N   UNL     1       9.063   0.351  -3.122  0.00  0.00    +0.000 NA
ATOM      7  C   UNL     1      10.181   1.068  -3.241  0.00  0.00    +0.000 A 
ATOM      8  C   UNL     1      10.446   1.875  -2.119  0.00  0.00    +0.000 A 
ATOM      9  C   UNL     1       9.394   1.605  -1.254  0.00  0.00    +0.000 A 
ATOM     10  C   UNL     1       9.143   2.123   0.122  0.00  0.00    +0.000 C 
BRANCH   5  14
ATOM     11  C   UNL     1       5.063  -0.929  -0.379  0.00  0.00    +0.000 A 
ATOM     12  C   UNL     1       5.455  -1.329  -1.642  0.00  0.00    +0.000 A 
ATOM     13  C   UNL     1       6.623  -0.787  -2.179  0.00  0.00    +0.000 A 
ATOM     14  C   UNL     1       7.331   0.141  -1.423  0.00  0.00    +0.000 A 
ATOM     15  N   UNL     1       6.886   0.527  -0.206  0.00  0.00    +0.000 NA
ATOM     16  N   UNL     1       5.751  -0.009   0.322  0.00  0.00    +0.000 NA
BRANCH  11  17
ATOM     17  O   UNL     1       3.917  -1.479   0.155  0.00  0.00    +0.000 OA
BRANCH  17  19
ATOM     18  C   UNL     1       2.563  -1.900   2.092  0.00  0.00    +0.000 C 
ATOM     19  C   UNL     1       3.901  -1.395   1.585  0.00  0.00    +0.000 C 
ENDBRANCH  17  19
ENDBRANCH  11  17
ENDBRANCH   5  14
ENDBRANCH   1   8
BRANCH   3  20
ATOM     20  C   UNL     1      13.937   3.209  -2.112  0.00  0.00    +0.000 C 
BRANCH  20  21
ATOM     21  C   UNL     1      14.614   2.738  -0.843  0.00  0.00    +0.000 A 
ATOM     22  C   UNL     1      14.216   3.241   0.392  0.00  0.00    +0.000 A 
ATOM     23  C   UNL     1      14.929   2.869   1.530  0.00  0.00    +0.000 A 
ATOM     24  C   UNL     1      15.948   1.930   1.421  0.00  0.00    +0.000 A 
ATOM     25  C   UNL     1      16.247   1.441   0.163  0.00  0.00    +0.000 A 
ATOM     26  N   UNL     1      15.613   1.827  -0.968  0.00  0.00    +0.000 NA
BRANCH  23  27
ATOM     27  O   UNL     1      14.655   3.330   2.796  0.00  0.00    +0.000 OA
BRANCH  27  28
ATOM     28  C   UNL     1      14.224   4.625   2.977  0.00  0.00    +0.000 A 
ATOM     29  C   UNL     1      14.657   5.709   2.204  0.00  0.00    +0.000 A 
ATOM     30  C   UNL     1      14.154   6.991   2.446  0.00  0.00    +0.000 A 
ATOM     31  C   UNL     1      13.259   7.198   3.493  0.00  0.00    +0.000 A 
ATOM     32  C   UNL     1      12.879   6.125   4.292  0.00  0.00    +0.000 A 
ATOM     33  F   UNL     1      12.043   6.333   5.317  0.00  0.00    +0.000 F 
ATOM     34  C   UNL     1      13.353   4.841   4.045  0.00  0.00    +0.000 A 
ENDBRANCH  27  28
ENDBRANCH  23  27
ENDBRANCH  20  21
ENDBRANCH   3  20
TORSDOF 8
