REMARK  Name = 
REMARK  7 active torsions:
REMARK  status: ('A' for Active; 'I' for Inactive)
REMARK    1  A    between atoms: C_1  and  C_2
REMARK    2  A    between atoms: C_6  and  N_7
REMARK    3  A    between atoms: C_9  and  C_10
REMARK    4  A    between atoms: N_12  and  C_13
REMARK    5  A    between atoms: C_13  and  C_14
REMARK    6  A    between atoms: C_16  and  O_17
REMARK    7  A    between atoms: O_17  and  C_18
REMARK                            x       y       z     vdW  Elec       q    Type
REMARK                         _______ _______ _______ _____ _____    ______ ____
ROOT
ATOM      1  C   UNL     1      -4.114  -5.038  -1.234  0.00  0.00    +0.000 C 
ATOM      2  O   UNL     1      -4.348  -6.138  -0.750  0.00  0.00    +0.000 OA
ATOM      3  N   UNL     1      -4.650  -4.608  -2.426  0.00  0.00    +0.000 N 
ATOM      4  H   UNL     1      -4.499  -3.644  -2.703  0.00  0.00    +0.000 HD
ENDROOT
BRANCH   1   7
ATOM      5  N   UNL     1      -1.867  -3.050   0.767  0.00  0.00    +0.000 N 
ATOM      6  C   UNL     1      -2.534  -4.235   0.574  0.00  0.00    +0.000 A 
ATOM      7  C   UNL     1      -3.240  -4.066  -0.598  0.00  0.00    +0.000 A 
ATOM      8  N   UNL     1      -2.990  -2.812  -1.088  0.00  0.00    +0.000 NA
ATOM      9  N   UNL     1      -2.161  -2.200  -0.251  0.00  0.00    +0.000 NA
BRANCH   5  15
ATOM     10  C   UNL     1       0.815   0.424   3.072  0.00  0.00    +0.000 C 
ATOM     11  C   UNL     1       0.321  -0.990   2.976  0.00  0.00    +0.000 A 
ATOM     12  C   UNL     1       0.631  -1.922   3.973  0.00  0.00    +0.000 A 
ATOM     13  C   UNL     1       0.134  -3.222   3.903  0.00  0.00    +0.000 A 
ATOM     14  C   UNL     1      -0.691  -3.604   2.844  0.00  0.00    +0.000 A 
ATOM     15  C   UNL     1      -1.009  -2.684   1.835  0.00  0.00    +0.000 A 
ATOM     16  C   UNL     1      -0.488  -1.381   1.898  0.00  0.00    +0.000 A 
ENDBRANCH   5  15
ENDBRANCH   1   7
BRANCH   3  17
ATOM     17  C   UNL     1      -5.599  -5.402  -3.169  0.00  0.00    +0.000 C 
BRANCH  17  18
ATOM     18  C   UNL     1      -7.026  -5.149  -2.738  0.00  0.00    +0.000 A 
ATOM     19  C   UNL     1      -7.567  -5.874  -1.682  0.00  0.00    +0.000 A 
ATOM     20  C   UNL     1      -8.906  -5.685  -1.352  0.00  0.00    +0.000 A 
ATOM     21  C   UNL     1      -9.641  -4.711  -2.015  0.00  0.00    +0.000 A 
ATOM     22  C   UNL     1      -9.015  -4.002  -3.025  0.00  0.00    +0.000 A 
ATOM     23  N   UNL     1      -7.734  -4.206  -3.408  0.00  0.00    +0.000 NA
BRANCH  20  24
ATOM     24  O   UNL     1      -9.556  -6.379  -0.354  0.00  0.00    +0.000 OA
BRANCH  24  25
ATOM     25  C   UNL     1      -9.245  -7.704  -0.136  0.00  0.00    +0.000 A 
ATOM     26  C   UNL     1      -8.850  -8.595  -1.145  0.00  0.00    +0.000 A 
ATOM     27  C   UNL     1      -8.534  -9.919  -0.835  0.00  0.00    +0.000 A 
ATOM     28  C   UNL     1      -8.667 -10.362   0.476  0.00  0.00    +0.000 A 
ATOM     29  F   UNL     1      -8.373 -11.637   0.769  0.00  0.00    +0.000 F 
ATOM     30  C   UNL     1      -9.108  -9.495   1.469  0.00  0.00    +0.000 A 
ATOM     31  F   UNL     1      -9.247  -9.931   2.728  0.00  0.00    +0.000 F 
ATOM     32  C   UNL     1      -9.399  -8.167   1.174  0.00  0.00    +0.000 A 
ENDBRANCH  24  25
ENDBRANCH  20  24
ENDBRANCH  17  18
ENDBRANCH   3  17
TORSDOF 6
