REMARK  Name = 
REMARK  6 active torsions:
REMARK  status: ('A' for Active; 'I' for Inactive)
REMARK    1  A    between atoms: C_1  and  N_2
REMARK    2  A    between atoms: C_9  and  N_10
REMARK    3  A    between atoms: C_11  and  C_13
REMARK    4  A    between atoms: C_16  and  O_17
REMARK    5  A    between atoms: O_17  and  C_18
REMARK    6  A    between atoms: C_21  and  C_22
REMARK                            x       y       z     vdW  Elec       q    Type
REMARK                         _______ _______ _______ _____ _____    ______ ____
ROOT
ATOM      1  N   UNL     1       5.150  -4.800   0.044  0.00  0.00    +0.000 N 
ATOM      2  C   UNL     1       4.571  -6.056  -0.058  0.00  0.00    +0.000 C 
ATOM      3  O   UNL     1       3.385  -6.283  -0.266  0.00  0.00    +0.000 OA
ATOM      4  H   UNL     1       6.157  -4.738  -0.003  0.00  0.00    +0.000 HD
ENDROOT
BRANCH   1  13
ATOM      5  C   UNL     1       3.029   1.317  -0.827  0.00  0.00    +0.000 C 
ATOM      6  N   UNL     1       2.325   0.108  -0.406  0.00  0.00    +0.000 N 
ATOM      7  C   UNL     1       0.970   0.112  -0.128  0.00  0.00    +0.000 A 
ATOM      8  C   UNL     1       0.241  -0.951   0.224  0.00  0.00    +0.000 A 
ATOM      9  C   UNL     1       0.919  -2.256   0.315  0.00  0.00    +0.000 A 
ATOM     10  O   UNL     1       0.279  -3.256   0.620  0.00  0.00    +0.000 OA
ATOM     11  C   UNL     1       2.379  -2.287   0.049  0.00  0.00    +0.000 A 
ATOM     12  C   UNL     1       3.051  -3.510   0.162  0.00  0.00    +0.000 A 
ATOM     13  C   UNL     1       4.428  -3.586  -0.036  0.00  0.00    +0.000 A 
ATOM     14  C   UNL     1       5.126  -2.412  -0.326  0.00  0.00    +0.000 A 
ATOM     15  C   UNL     1       4.444  -1.191  -0.473  0.00  0.00    +0.000 A 
ATOM     16  C   UNL     1       3.054  -1.098  -0.290  0.00  0.00    +0.000 A 
ENDBRANCH   1  13
BRANCH   2  17
ATOM     17  C   UNL     1       5.485  -7.228  -0.016  0.00  0.00    +0.000 A 
ATOM     18  C   UNL     1       6.697  -7.249   0.682  0.00  0.00    +0.000 A 
ATOM     19  C   UNL     1       7.481  -8.413   0.678  0.00  0.00    +0.000 A 
ATOM     20  C   UNL     1       7.054  -9.555  -0.008  0.00  0.00    +0.000 A 
ATOM     21  C   UNL     1       5.852  -9.518  -0.720  0.00  0.00    +0.000 A 
ATOM     22  C   UNL     1       5.063  -8.373  -0.703  0.00  0.00    +0.000 A 
BRANCH  20  23
ATOM     23  O   UNL     1       7.894 -10.652   0.029  0.00  0.00    +0.000 OA
BRANCH  23  24
ATOM     24  C   UNL     1       7.313 -11.907  -0.082  0.00  0.00    +0.000 A 
ATOM     25  C   UNL     1       8.016 -12.883  -0.774  0.00  0.00    +0.000 A 
ATOM     26  C   UNL     1       7.385 -14.102  -1.014  0.00  0.00    +0.000 A 
ATOM     27  C   UNL     1       6.082 -14.301  -0.549  0.00  0.00    +0.000 A 
ATOM     28  C   UNL     1       5.488 -13.292   0.187  0.00  0.00    +0.000 A 
ATOM     29  N   UNL     1       6.087 -12.112   0.451  0.00  0.00    +0.000 NA
BRANCH  27  30
ATOM     30  C   UNL     1       5.358 -15.491  -0.842  0.00  0.00    +0.000 C 
ATOM     31  N   UNL     1       4.753 -16.453  -1.094  0.00  0.00    +0.000 NA
ENDBRANCH  27  30
ENDBRANCH  23  24
ENDBRANCH  20  23
ENDBRANCH   2  17
TORSDOF 5
