REMARK  Name = 
REMARK  3 active torsions:
REMARK  status: ('A' for Active; 'I' for Inactive)
REMARK    1  A    between atoms: C_2  and  C_17
REMARK    2  A    between atoms: N_6  and  C_7
REMARK    3  A    between atoms: C_20  and  C_21
REMARK                            x       y       z     vdW  Elec       q    Type
REMARK                         _______ _______ _______ _____ _____    ______ ____
ROOT
ATOM      1  O   UNL     1       0.887   0.200   0.280  0.00  0.00    +0.000 OA
ATOM      2  C   UNL     1       2.084   0.110   0.042  0.00  0.00    +0.000 C 
ATOM      3  N   UNL     1       2.721   0.338  -1.154  0.00  0.00    +0.000 N 
ATOM      4  C   UNL     1       2.074   0.721  -2.294  0.00  0.00    +0.000 A 
ATOM      5  N   UNL     1       0.820   1.143  -2.406  0.00  0.00    +0.000 NA
ATOM      6  N   UNL     1       0.658   1.264  -3.735  0.00  0.00    +0.000 N 
ATOM      7  C   UNL     1       1.848   0.982  -4.358  0.00  0.00    +0.000 A 
ATOM      8  N   UNL     1       2.763   0.661  -3.470  0.00  0.00    +0.000 NA
ATOM      9  H   UNL     1       3.682   0.070  -1.298  0.00  0.00    +0.000 HD
ENDROOT
BRANCH   6  10
ATOM     10  C   UNL     1      -0.594   1.611  -4.300  0.00  0.00    +0.000 A 
ATOM     11  C   UNL     1      -1.666   1.941  -3.454  0.00  0.00    +0.000 A 
ATOM     12  C   UNL     1      -2.899   2.276  -4.005  0.00  0.00    +0.000 A 
ATOM     13  F   UNL     1      -3.917   2.602  -3.197  0.00  0.00    +0.000 F 
ATOM     14  C   UNL     1      -3.095   2.280  -5.378  0.00  0.00    +0.000 A 
ATOM     15  C   UNL     1      -2.033   1.943  -6.205  0.00  0.00    +0.000 A 
ATOM     16  F   UNL     1      -2.210   1.930  -7.532  0.00  0.00    +0.000 F 
ATOM     17  C   UNL     1      -0.782   1.614  -5.687  0.00  0.00    +0.000 A 
ENDBRANCH   6  10
BRANCH   2  18
ATOM     18  C   UNL     1       2.968  -0.363   1.134  0.00  0.00    +0.000 A 
ATOM     19  C   UNL     1       2.489  -1.360   1.986  0.00  0.00    +0.000 A 
ATOM     20  C   UNL     1       3.266  -1.795   3.062  0.00  0.00    +0.000 A 
ATOM     21  C   UNL     1       4.524  -1.227   3.336  0.00  0.00    +0.000 A 
ATOM     22  C   UNL     1       4.987  -0.228   2.455  0.00  0.00    +0.000 A 
ATOM     23  C   UNL     1       4.224   0.200   1.361  0.00  0.00    +0.000 A 
BRANCH  21  24
ATOM     24  C   UNL     1       5.311  -1.634   4.521  0.00  0.00    +0.000 A 
ATOM     25  C   UNL     1       6.713  -1.632   4.532  0.00  0.00    +0.000 A 
ATOM     26  C   UNL     1       7.419  -1.989   5.682  0.00  0.00    +0.000 A 
ATOM     27  C   UNL     1       6.703  -2.358   6.805  0.00  0.00    +0.000 A 
ATOM     28  N   UNL     1       5.357  -2.389   6.851  0.00  0.00    +0.000 NA
ATOM     29  C   UNL     1       4.703  -2.024   5.720  0.00  0.00    +0.000 A 
ENDBRANCH  21  24
ENDBRANCH   2  18
TORSDOF 3
