REMARK  Name = 
REMARK  6 active torsions:
REMARK  status: ('A' for Active; 'I' for Inactive)
REMARK    1  A    between atoms: C_2  and  C_18
REMARK    2  A    between atoms: N_3  and  C_4
REMARK    3  A    between atoms: C_4  and  C_5
REMARK    4  A    between atoms: C_8  and  C_9
REMARK    5  A    between atoms: C_23  and  O_24
REMARK    6  A    between atoms: O_24  and  C_25
REMARK                            x       y       z     vdW  Elec       q    Type
REMARK                         _______ _______ _______ _____ _____    ______ ____
ROOT
ATOM      1  O   UNL     1       1.091   0.232   0.112  0.00  0.00    +0.000 OA
ATOM      2  C   UNL     1       2.318   0.302   0.152  0.00  0.00    +0.000 C 
ATOM      3  N   UNL     1       3.000   0.271   1.346  0.00  0.00    +0.000 N 
ATOM      4  H   UNL     1       4.009   0.334   1.370  0.00  0.00    +0.000 HD
ENDROOT
BRANCH   2   5
ATOM      5  C   UNL     1       3.065   0.419  -1.135  0.00  0.00    +0.000 A 
ATOM      6  C   UNL     1       2.280   0.478  -2.304  0.00  0.00    +0.000 A 
ATOM      7  C   UNL     1       2.866   0.593  -3.562  0.00  0.00    +0.000 A 
ATOM      8  C   UNL     1       4.240   0.615  -3.631  0.00  0.00    +0.000 A 
ATOM      9  N   UNL     1       5.030   0.543  -2.543  0.00  0.00    +0.000 NA
ATOM     10  C   UNL     1       4.445   0.485  -1.311  0.00  0.00    +0.000 A 
BRANCH  10  11
ATOM     11  O   UNL     1       5.295   0.494  -0.208  0.00  0.00    +0.000 OA
BRANCH  11  12
ATOM     12  C   UNL     1       6.583   0.940  -0.421  0.00  0.00    +0.000 A 
ATOM     13  C   UNL     1       6.881   2.132  -1.085  0.00  0.00    +0.000 A 
ATOM     14  C   UNL     1       8.208   2.483  -1.312  0.00  0.00    +0.000 A 
ATOM     15  C   UNL     1       9.199   1.652  -0.813  0.00  0.00    +0.000 A 
ATOM     16  N   UNL     1       8.951   0.521  -0.113  0.00  0.00    +0.000 NA
ATOM     17  C   UNL     1       7.646   0.190   0.062  0.00  0.00    +0.000 A 
ENDBRANCH  11  12
ENDBRANCH  10  11
ENDBRANCH   2   5
BRANCH   3  18
ATOM     18  C   UNL     1       2.295   0.122   2.609  0.00  0.00    +0.000 C 
BRANCH  18  19
ATOM     19  C   UNL     1       2.540   1.286   3.535  0.00  0.00    +0.000 A 
ATOM     20  C   UNL     1       2.155   2.582   3.163  0.00  0.00    +0.000 A 
ATOM     21  C   UNL     1       2.389   3.668   4.013  0.00  0.00    +0.000 A 
ATOM     22  C   UNL     1       2.999   3.473   5.257  0.00  0.00    +0.000 A 
ATOM     23  C   UNL     1       3.353   2.178   5.649  0.00  0.00    +0.000 A 
ATOM     24  C   UNL     1       3.120   1.092   4.797  0.00  0.00    +0.000 A 
BRANCH  22  25
ATOM     25  C   UNL     1       3.300   4.628   6.121  0.00  0.00    +0.000 A 
ATOM     26  C   UNL     1       2.425   4.969   7.085  0.00  0.00    +0.000 A 
ATOM     27  N   UNL     1       2.664   6.050   7.900  0.00  0.00    +0.000 N 
ATOM     28  C   UNL     1       3.777   6.854   7.808  0.00  0.00    +0.000 A 
ATOM     29  O   UNL     1       3.966   7.816   8.542  0.00  0.00    +0.000 OA
ATOM     30  C   UNL     1       4.750   6.486   6.750  0.00  0.00    +0.000 A 
ATOM     31  C   UNL     1       4.506   5.428   5.963  0.00  0.00    +0.000 A 
ATOM     32  H   UNL     1       1.999   6.303   8.620  0.00  0.00    +0.000 HD
ENDBRANCH  22  25
ENDBRANCH  18  19
ENDBRANCH   3  18
TORSDOF 6
