REMARK  Name = 
REMARK  6 active torsions:
REMARK  status: ('A' for Active; 'I' for Inactive)
REMARK    1  A    between atoms: C_2  and  O_3
REMARK    2  A    between atoms: C_2  and  C_4
REMARK    3  A    between atoms: C_7  and  C_8
REMARK    4  A    between atoms: C_12  and  C_13
REMARK    5  A    between atoms: C_13  and  N_14
REMARK    6  A    between atoms: C_15  and  C_17
REMARK                            x       y       z     vdW  Elec       q    Type
REMARK                         _______ _______ _______ _____ _____    ______ ____
ROOT
ATOM      1  C   UNL     1       6.519  -7.765  -0.769  0.00  0.00    +0.000 C 
ENDROOT
BRANCH   1   6
ATOM      2  C   UNL     1       5.208  -4.398  -2.044  0.00  0.00    +0.000 A 
ATOM      3  C   UNL     1       5.776  -4.389  -3.328  0.00  0.00    +0.000 A 
ATOM      4  C   UNL     1       6.525  -5.471  -3.803  0.00  0.00    +0.000 A 
ATOM      5  C   UNL     1       6.752  -6.581  -2.980  0.00  0.00    +0.000 A 
ATOM      6  C   UNL     1       6.231  -6.612  -1.691  0.00  0.00    +0.000 A 
ATOM      7  C   UNL     1       5.434  -5.541  -1.251  0.00  0.00    +0.000 A 
BRANCH   2  11
ATOM      8  C   UNL     1       2.934  -1.054  -0.501  0.00  0.00    +0.000 A 
ATOM      9  C   UNL     1       2.925  -1.339  -1.861  0.00  0.00    +0.000 A 
ATOM     10  C   UNL     1       3.660  -2.424  -2.366  0.00  0.00    +0.000 A 
ATOM     11  C   UNL     1       4.425  -3.248  -1.521  0.00  0.00    +0.000 A 
ATOM     12  C   UNL     1       4.409  -2.939  -0.147  0.00  0.00    +0.000 A 
ATOM     13  C   UNL     1       3.662  -1.869   0.364  0.00  0.00    +0.000 A 
BRANCH   8  15
ATOM     14  O   UNL     1       1.083   0.445  -0.535  0.00  0.00    +0.000 OA
ATOM     15  C   UNL     1       2.126   0.090  -0.010  0.00  0.00    +0.000 C 
BRANCH  15  16
ATOM     16  O   UNL     1       2.673   0.728   1.044  0.00  0.00    +0.000 OA
ATOM     17  H   UNL     1       3.591   0.470   1.254  0.00  0.00    +0.000 HD
ENDBRANCH  15  16
ENDBRANCH   8  15
ENDBRANCH   2  11
ENDBRANCH   1   6
BRANCH   1  18
ATOM     18  N   UNL     1       5.452  -8.736  -0.772  0.00  0.00    +0.000 N 
ATOM     19  C   UNL     1       5.561  -9.873   0.000  0.00  0.00    +0.000 C 
ATOM     20  O   UNL     1       6.465 -10.059   0.818  0.00  0.00    +0.000 OA
ATOM     21  H   UNL     1       4.833  -8.746  -1.573  0.00  0.00    +0.000 HD
BRANCH  19  22
ATOM     22  C   UNL     1       4.565 -10.930  -0.273  0.00  0.00    +0.000 A 
ATOM     23  C   UNL     1       4.996 -12.268  -0.243  0.00  0.00    +0.000 A 
ATOM     24  C   UNL     1       4.141 -13.283  -0.661  0.00  0.00    +0.000 A 
ATOM     25  C   UNL     1       2.835 -12.946  -0.998  0.00  0.00    +0.000 A 
ATOM     26  C   UNL     1       1.863 -13.972  -1.416  0.00  0.00    +0.000 A 
ATOM     27  O   UNL     1       2.130 -14.848  -2.225  0.00  0.00    +0.000 OA
ATOM     28  C   UNL     1       0.532 -13.830  -0.792  0.00  0.00    +0.000 A 
ATOM     29  C   UNL     1       0.145 -12.564  -0.576  0.00  0.00    +0.000 A 
ATOM     30  N   UNL     1       0.932 -11.463  -0.857  0.00  0.00    +0.000 N 
ATOM     31  C   UNL     1       2.331 -11.644  -0.829  0.00  0.00    +0.000 A 
ATOM     32  C   UNL     1       3.223 -10.613  -0.547  0.00  0.00    +0.000 A 
ATOM     33  H   UNL     1       0.561 -10.548  -0.625  0.00  0.00    +0.000 HD
ENDBRANCH  19  22
ENDBRANCH   1  18
TORSDOF 6
