REMARK  Name = 
REMARK  8 active torsions:
REMARK  status: ('A' for Active; 'I' for Inactive)
REMARK    1  A    between atoms: C_2  and  C_4
REMARK    2  A    between atoms: C_6  and  C_7
REMARK    3  A    between atoms: C_7  and  N_8
REMARK    4  A    between atoms: C_9  and  C_11
REMARK    5  A    between atoms: C_11  and  C_12
REMARK    6  A    between atoms: C_12  and  C_13
REMARK    7  A    between atoms: C_15  and  C_16
REMARK    8  A    between atoms: C_22  and  C_23
REMARK                            x       y       z     vdW  Elec       q    Type
REMARK                         _______ _______ _______ _____ _____    ______ ____
ROOT
ATOM      1  C   UNL     1      -0.444  -6.350  -4.741  0.00  0.00    +0.000 C 
ENDROOT
BRANCH   1   2
ATOM      2  C   UNL     1      -1.599  -5.904  -5.565  0.00  0.00    +0.000 A 
ATOM      3  N   UNL     1      -2.765  -5.446  -5.152  0.00  0.00    +0.000 NA
ATOM      4  C   UNL     1      -3.450  -5.189  -6.319  0.00  0.00    +0.000 A 
ATOM      5  C   UNL     1      -2.632  -5.442  -7.410  0.00  0.00    +0.000 A 
ATOM      6  O   UNL     1      -1.448  -5.939  -6.928  0.00  0.00    +0.000 OA
BRANCH   5   7
ATOM      7  C   UNL     1      -2.760  -5.281  -8.856  0.00  0.00    +0.000 A 
ATOM      8  C   UNL     1      -3.447  -4.169  -9.375  0.00  0.00    +0.000 A 
ATOM      9  C   UNL     1      -3.790  -4.095 -10.724  0.00  0.00    +0.000 A 
ATOM     10  C   UNL     1      -3.384  -5.101 -11.593  0.00  0.00    +0.000 A 
ATOM     11  C   UNL     1      -2.634  -6.174 -11.110  0.00  0.00    +0.000 A 
ATOM     12  C   UNL     1      -2.326  -6.269  -9.747  0.00  0.00    +0.000 A 
ENDBRANCH   5   7
BRANCH   4  13
ATOM     13  C   UNL     1      -4.811  -4.673  -6.364  0.00  0.00    +0.000 A 
ATOM     14  C   UNL     1      -5.255  -3.769  -5.393  0.00  0.00    +0.000 A 
ATOM     15  C   UNL     1      -6.507  -3.157  -5.519  0.00  0.00    +0.000 A 
ATOM     16  C   UNL     1      -7.318  -3.432  -6.621  0.00  0.00    +0.000 A 
ATOM     17  C   UNL     1      -6.905  -4.361  -7.569  0.00  0.00    +0.000 A 
ATOM     18  C   UNL     1      -5.680  -5.008  -7.415  0.00  0.00    +0.000 A 
ENDBRANCH   4  13
ENDBRANCH   1   2
BRANCH   1  19
ATOM     19  C   UNL     1       0.058  -5.211  -3.859  0.00  0.00    +0.000 C 
BRANCH  19  21
ATOM     20  N   UNL     1       1.329  -4.943  -1.812  0.00  0.00    +0.000 N 
ATOM     21  C   UNL     1       1.212  -5.661  -2.982  0.00  0.00    +0.000 C 
ATOM     22  O   UNL     1       1.987  -6.548  -3.308  0.00  0.00    +0.000 OA
ATOM     23  H   UNL     1       0.712  -4.158  -1.648  0.00  0.00    +0.000 HD
BRANCH  20  24
ATOM     24  C   UNL     1       2.390  -5.189  -0.858  0.00  0.00    +0.000 C 
BRANCH  24  27
ATOM     25  C   UNL     1       1.421  -8.399   0.935  0.00  0.00    +0.000 A 
ATOM     26  C   UNL     1       1.722  -7.516  -0.094  0.00  0.00    +0.000 A 
ATOM     27  C   UNL     1       2.006  -6.180   0.216  0.00  0.00    +0.000 A 
ATOM     28  C   UNL     1       1.986  -5.805   1.565  0.00  0.00    +0.000 A 
ATOM     29  C   UNL     1       1.679  -6.760   2.530  0.00  0.00    +0.000 A 
ATOM     30  N   UNL     1       1.387  -8.047   2.252  0.00  0.00    +0.000 NA
BRANCH  25  32
ATOM     31  N   UNL     1       0.763 -10.614   1.689  0.00  0.00    +0.000 N 
ATOM     32  C   UNL     1       1.114  -9.832   0.620  0.00  0.00    +0.000 C 
ATOM     33  O   UNL     1       1.159 -10.291  -0.514  0.00  0.00    +0.000 OA
ATOM     34  H   UNL     1       0.518 -11.581   1.535  0.00  0.00    +0.000 HD
ATOM     35  H   UNL     1       0.693 -10.200   2.612  0.00  0.00    +0.000 HD
ENDBRANCH  25  32
ENDBRANCH  24  27
ENDBRANCH  20  24
ENDBRANCH  19  21
ENDBRANCH   1  19
TORSDOF 8
