REMARK  Name = 
REMARK  5 active torsions:
REMARK  status: ('A' for Active; 'I' for Inactive)
REMARK    1  A    between atoms: C_2  and  C_3
REMARK    2  A    between atoms: C_8  and  C_9
REMARK    3  A    between atoms: C_12  and  C_13
REMARK    4  A    between atoms: N_20  and  C_21
REMARK    5  A    between atoms: C_21  and  C_22
REMARK                            x       y       z     vdW  Elec       q    Type
REMARK                         _______ _______ _______ _____ _____    ______ ____
ROOT
ATOM      1  C   UNL     1      -2.725   6.363  -0.104  0.00  0.00    +0.000 C 
ATOM      2  O   UNL     1      -2.510   7.043  -1.101  0.00  0.00    +0.000 OA
ATOM      3  N   UNL     1      -3.548   6.718   0.948  0.00  0.00    +0.000 N 
ATOM      4  C   UNL     1      -4.117   7.970   0.981  0.00  0.00    +0.000 A 
ATOM      5  N   UNL     1      -4.091   8.764   2.030  0.00  0.00    +0.000 NA
ATOM      6  N   UNL     1      -4.702   9.931   1.647  0.00  0.00    +0.000 NA
ATOM      7  N   UNL     1      -5.182   9.835   0.417  0.00  0.00    +0.000 NA
ATOM      8  N   UNL     1      -4.878   8.581   0.012  0.00  0.00    +0.000 N 
ATOM      9  H   UNL     1      -3.280   6.368   1.861  0.00  0.00    +0.000 HD
ENDROOT
BRANCH   1  13
ATOM     10  C   UNL     1      -0.758   2.511   0.333  0.00  0.00    +0.000 A 
ATOM     11  C   UNL     1      -0.127   3.595  -0.318  0.00  0.00    +0.000 A 
ATOM     12  C   UNL     1      -0.748   4.852  -0.443  0.00  0.00    +0.000 A 
ATOM     13  C   UNL     1      -2.030   5.054   0.069  0.00  0.00    +0.000 A 
ATOM     14  C   UNL     1      -2.672   4.002   0.720  0.00  0.00    +0.000 A 
ATOM     15  C   UNL     1      -2.030   2.767   0.872  0.00  0.00    +0.000 A 
BRANCH  10  21
ATOM     16  C   UNL     1      -0.788  -0.070   0.412  0.00  0.00    +0.000 A 
ATOM     17  C   UNL     1      -0.104  -1.290   0.596  0.00  0.00    +0.000 A 
ATOM     18  C   UNL     1       1.273  -1.313   0.789  0.00  0.00    +0.000 A 
ATOM     19  C   UNL     1       1.976  -0.121   0.805  0.00  0.00    +0.000 A 
ATOM     20  C   UNL     1       1.301   1.103   0.654  0.00  0.00    +0.000 A 
ATOM     21  C   UNL     1      -0.097   1.170   0.460  0.00  0.00    +0.000 A 
BRANCH  16  23
ATOM     22  N   UNL     1      -3.342  -0.285  -0.021  0.00  0.00    +0.000 NA
ATOM     23  C   UNL     1      -2.196  -0.176   0.155  0.00  0.00    +0.000 C 
ENDBRANCH  16  23
ENDBRANCH  10  21
ENDBRANCH   1  13
BRANCH   8  24
ATOM     24  C   UNL     1      -5.574   8.009  -1.126  0.00  0.00    +0.000 C 
BRANCH  24  25
ATOM     25  C   UNL     1      -6.861   7.304  -0.729  0.00  0.00    +0.000 A 
ATOM     26  C   UNL     1      -7.895   7.988  -0.062  0.00  0.00    +0.000 A 
ATOM     27  C   UNL     1      -9.076   7.331   0.296  0.00  0.00    +0.000 A 
ATOM     28  C   UNL     1      -9.237   5.989  -0.026  0.00  0.00    +0.000 A 
ATOM     29  F   UNL     1     -10.367   5.357   0.318  0.00  0.00    +0.000 F 
ATOM     30  C   UNL     1      -8.243   5.298  -0.705  0.00  0.00    +0.000 A 
ATOM     31  C   UNL     1      -7.058   5.952  -1.060  0.00  0.00    +0.000 A 
ENDBRANCH  24  25
ENDBRANCH   8  24
TORSDOF 5
