REMARK  Name = 
REMARK  6 active torsions:
REMARK  status: ('A' for Active; 'I' for Inactive)
REMARK    1  A    between atoms: N_1  and  C_2
REMARK    2  A    between atoms: C_4  and  C_5
REMARK    3  A    between atoms: N_7  and  C_8
REMARK    4  A    between atoms: C_10  and  C_11
REMARK    5  A    between atoms: C_14  and  O_15
REMARK    6  A    between atoms: N_22  and  C_23
REMARK                            x       y       z     vdW  Elec       q    Type
REMARK                         _______ _______ _______ _____ _____    ______ ____
ROOT
ATOM      1  C   UNL     1       5.776   1.269  -0.093  0.00  0.00    +0.000 C 
ATOM      2  O   UNL     1       6.727   0.596  -0.477  0.00  0.00    +0.000 OA
ATOM      3  N   UNL     1       5.781   2.633   0.155  0.00  0.00    +0.000 N 
ATOM      4  H   UNL     1       4.919   2.990   0.558  0.00  0.00    +0.000 HD
ENDROOT
BRANCH   3   5
ATOM      5  C   UNL     1       6.868   3.515  -0.012  0.00  0.00    +0.000 A 
ATOM      6  C   UNL     1       8.038   3.151  -0.687  0.00  0.00    +0.000 A 
ATOM      7  C   UNL     1       9.126   4.029  -0.861  0.00  0.00    +0.000 A 
ATOM      8  C   UNL     1       9.015   5.304  -0.289  0.00  0.00    +0.000 A 
ATOM      9  C   UNL     1       7.852   5.688   0.389  0.00  0.00    +0.000 A 
ATOM     10  C   UNL     1       6.776   4.803   0.511  0.00  0.00    +0.000 A 
BRANCH   7  11
ATOM     11  C   UNL     1      10.318   3.584  -1.617  0.00  0.00    +0.000 A 
ATOM     12  C   UNL     1      10.209   2.716  -2.717  0.00  0.00    +0.000 A 
ATOM     13  C   UNL     1      11.342   2.239  -3.370  0.00  0.00    +0.000 A 
ATOM     14  C   UNL     1      12.576   2.663  -2.917  0.00  0.00    +0.000 A 
ATOM     15  N   UNL     1      12.744   3.521  -1.898  0.00  0.00    +0.000 NA
ATOM     16  C   UNL     1      11.618   3.952  -1.274  0.00  0.00    +0.000 A 
BRANCH  14  17
ATOM     17  O   UNL     1      13.727   2.211  -3.489  0.00  0.00    +0.000 OA
ATOM     18  H   UNL     1      13.493   1.491  -4.093  0.00  0.00    +0.000 HD
ENDBRANCH  14  17
ENDBRANCH   7  11
ENDBRANCH   3   5
BRANCH   1  21
ATOM     19  C   UNL     1       2.951  -0.940   0.564  0.00  0.00    +0.000 A 
ATOM     20  C   UNL     1       4.255  -0.772   0.176  0.00  0.00    +0.000 A 
ATOM     21  C   UNL     1       4.490   0.623   0.204  0.00  0.00    +0.000 A 
ATOM     22  N   UNL     1       3.379   1.307   0.537  0.00  0.00    +0.000 NA
ATOM     23  N   UNL     1       2.472   0.338   0.864  0.00  0.00    +0.000 N 
BRANCH  23  24
ATOM     24  C   UNL     1       1.234   0.699   1.461  0.00  0.00    +0.000 A 
ATOM     25  C   UNL     1       0.664   1.946   1.167  0.00  0.00    +0.000 A 
ATOM     26  C   UNL     1      -0.559   2.300   1.740  0.00  0.00    +0.000 A 
ATOM     27  C   UNL     1      -1.181   1.429   2.628  0.00  0.00    +0.000 A 
ATOM     28  F   UNL     1      -2.348   1.777   3.186  0.00  0.00    +0.000 F 
ATOM     29  C   UNL     1      -0.609   0.205   2.953  0.00  0.00    +0.000 A 
ATOM     30  C   UNL     1       0.600  -0.168   2.365  0.00  0.00    +0.000 A 
ENDBRANCH  23  24
BRANCH  19  31
ATOM     31  N   UNL     1       2.231  -2.090   0.616  0.00  0.00    +0.000 N 
ATOM     32  H   UNL     1       2.605  -2.928   0.173  0.00  0.00    +0.000 HD
ATOM     33  H   UNL     1       1.214  -2.061   0.566  0.00  0.00    +0.000 HD
ENDBRANCH  19  31
ENDBRANCH   1  21
TORSDOF 6
