REMARK  Name = 
REMARK  4 active torsions:
REMARK  status: ('A' for Active; 'I' for Inactive)
REMARK    1  A    between atoms: N_3  and  C_4
REMARK    2  A    between atoms: C_4  and  C_5
REMARK    3  A    between atoms: C_8  and  C_9
REMARK    4  A    between atoms: C_24  and  C_25
REMARK                            x       y       z     vdW  Elec       q    Type
REMARK                         _______ _______ _______ _____ _____    ______ ____
ROOT
ATOM      1  O   UNL     1       1.162   0.130  -0.076  0.00  0.00    +0.000 OA
ATOM      2  C   UNL     1       2.389   0.207  -0.046  0.00  0.00    +0.000 C 
ATOM      3  N   UNL     1       3.051   1.284   0.467  0.00  0.00    +0.000 N 
ATOM      4  N   UNL     1       3.127  -0.734  -0.692  0.00  0.00    +0.000 N 
ATOM      5  C   UNL     1       4.517  -0.889  -0.728  0.00  0.00    +0.000 A 
ATOM      6  N   UNL     1       5.158  -0.857   0.459  0.00  0.00    +0.000 NA
ATOM      7  C   UNL     1       6.446  -1.220   0.449  0.00  0.00    +0.000 A 
ATOM      8  N   UNL     1       7.152  -1.557  -0.633  0.00  0.00    +0.000 NA
ATOM      9  C   UNL     1       6.488  -1.487  -1.805  0.00  0.00    +0.000 A 
ATOM     10  C   UNL     1       5.147  -1.149  -1.950  0.00  0.00    +0.000 A 
ATOM     11  H   UNL     1       4.038   1.365   0.267  0.00  0.00    +0.000 HD
ATOM     12  H   UNL     1       2.579  -1.294  -1.332  0.00  0.00    +0.000 HD
ENDROOT
BRANCH  10  13
ATOM     13  C   UNL     1       4.565  -0.894  -3.295  0.00  0.00    +0.000 A 
ATOM     14  C   UNL     1       5.000  -1.588  -4.440  0.00  0.00    +0.000 A 
ATOM     15  C   UNL     1       4.590  -1.209  -5.725  0.00  0.00    +0.000 A 
ATOM     16  C   UNL     1       3.707  -0.148  -5.897  0.00  0.00    +0.000 A 
ATOM     17  C   UNL     1       3.219   0.523  -4.785  0.00  0.00    +0.000 A 
ATOM     18  C   UNL     1       3.652   0.161  -3.508  0.00  0.00    +0.000 A 
ENDBRANCH  10  13
BRANCH   3  19
ATOM     19  C   UNL     1       2.329   2.475   0.855  0.00  0.00    +0.000 C 
BRANCH  19  20
ATOM     20  C   UNL     1       3.058   3.278   1.903  0.00  0.00    +0.000 A 
ATOM     21  C   UNL     1       3.396   4.625   1.694  0.00  0.00    +0.000 A 
ATOM     22  C   UNL     1       3.991   5.376   2.722  0.00  0.00    +0.000 A 
ATOM     23  C   UNL     1       4.244   4.788   3.965  0.00  0.00    +0.000 A 
ATOM     24  C   UNL     1       3.928   3.446   4.171  0.00  0.00    +0.000 A 
ATOM     25  C   UNL     1       3.338   2.697   3.145  0.00  0.00    +0.000 A 
BRANCH  23  26
ATOM     26  C   UNL     1       4.851   5.571   5.065  0.00  0.00    +0.000 A 
ATOM     27  C   UNL     1       4.035   6.202   5.932  0.00  0.00    +0.000 A 
ATOM     28  N   UNL     1       4.549   6.920   6.987  0.00  0.00    +0.000 N 
ATOM     29  C   UNL     1       5.891   7.051   7.247  0.00  0.00    +0.000 A 
ATOM     30  O   UNL     1       6.329   7.687   8.197  0.00  0.00    +0.000 OA
ATOM     31  C   UNL     1       6.800   6.365   6.292  0.00  0.00    +0.000 A 
ATOM     32  C   UNL     1       6.283   5.673   5.266  0.00  0.00    +0.000 A 
ATOM     33  H   UNL     1       3.929   7.382   7.640  0.00  0.00    +0.000 HD
ENDBRANCH  23  26
ENDBRANCH  19  20
ENDBRANCH   3  19
TORSDOF 4
