REMARK  Name = 
REMARK  5 active torsions:
REMARK  status: ('A' for Active; 'I' for Inactive)
REMARK    1  A    between atoms: C_2  and  C_15
REMARK    2  A    between atoms: N_3  and  C_4
REMARK    3  A    between atoms: C_4  and  C_5
REMARK    4  A    between atoms: C_18  and  N_19
REMARK    5  A    between atoms: C_20  and  C_22
REMARK                            x       y       z     vdW  Elec       q    Type
REMARK                         _______ _______ _______ _____ _____    ______ ____
ROOT
ATOM      1  C   UNL     1       3.136  -0.388  -1.107  0.00  0.00    +0.000 A 
ATOM      2  C   UNL     1       2.678   0.154  -2.306  0.00  0.00    +0.000 A 
ATOM      3  C   UNL     1       3.339  -0.118  -3.506  0.00  0.00    +0.000 A 
ATOM      4  C   UNL     1       4.459  -0.953  -3.547  0.00  0.00    +0.000 A 
ATOM      5  C   UNL     1       4.925  -1.490  -2.335  0.00  0.00    +0.000 A 
ATOM      6  C   UNL     1       4.267  -1.212  -1.120  0.00  0.00    +0.000 A 
ENDROOT
BRANCH   1   8
ATOM      7  O   UNL     1       1.143   0.090   0.044  0.00  0.00    +0.000 OA
ATOM      8  C   UNL     1       2.359  -0.086   0.122  0.00  0.00    +0.000 C 
ATOM      9  N   UNL     1       3.064   0.017   1.298  0.00  0.00    +0.000 N 
ATOM     10  H   UNL     1       4.071   0.110   1.270  0.00  0.00    +0.000 HD
BRANCH   9  11
ATOM     11  C   UNL     1       2.371   0.377   2.517  0.00  0.00    +0.000 C 
BRANCH  11  12
ATOM     12  C   UNL     1       2.326   1.868   2.732  0.00  0.00    +0.000 A 
ATOM     13  C   UNL     1       1.273   2.638   2.227  0.00  0.00    +0.000 A 
ATOM     14  C   UNL     1       1.244   4.016   2.444  0.00  0.00    +0.000 A 
ATOM     15  C   UNL     1       2.274   4.643   3.164  0.00  0.00    +0.000 A 
ATOM     16  C   UNL     1       2.275   6.024   3.402  0.00  0.00    +0.000 A 
ATOM     17  C   UNL     1       3.312   6.600   4.126  0.00  0.00    +0.000 A 
ATOM     18  C   UNL     1       4.316   5.771   4.587  0.00  0.00    +0.000 A 
ATOM     19  N   UNL     1       4.352   4.436   4.375  0.00  0.00    +0.000 NA
ATOM     20  C   UNL     1       3.346   3.882   3.675  0.00  0.00    +0.000 A 
ATOM     21  C   UNL     1       3.350   2.512   3.446  0.00  0.00    +0.000 A 
ENDBRANCH  11  12
ENDBRANCH   9  11
ENDBRANCH   1   8
BRANCH   4  22
ATOM     22  N   UNL     1       5.128  -1.287  -4.755  0.00  0.00    +0.000 N 
ATOM     23  C   UNL     1       4.776  -0.853  -6.021  0.00  0.00    +0.000 C 
ATOM     24  O   UNL     1       3.828  -0.116  -6.292  0.00  0.00    +0.000 OA
ATOM     25  H   UNL     1       5.942  -1.881  -4.669  0.00  0.00    +0.000 HD
BRANCH  23  26
ATOM     26  C   UNL     1       5.652  -1.315  -7.144  0.00  0.00    +0.000 A 
ATOM     27  C   UNL     1       5.619  -0.561  -8.261  0.00  0.00    +0.000 A 
ATOM     28  N   UNL     1       6.299  -0.943  -9.392  0.00  0.00    +0.000 N 
ATOM     29  C   UNL     1       7.026  -2.101  -9.488  0.00  0.00    +0.000 A 
ATOM     30  O   UNL     1       7.626  -2.433 -10.507  0.00  0.00    +0.000 OA
ATOM     31  C   UNL     1       7.036  -2.958  -8.272  0.00  0.00    +0.000 A 
ATOM     32  C   UNL     1       6.382  -2.568  -7.165  0.00  0.00    +0.000 A 
ATOM     33  H   UNL     1       6.247  -0.373 -10.229  0.00  0.00    +0.000 HD
ENDBRANCH  23  26
ENDBRANCH   4  22
TORSDOF 5
