REMARK  Name = 
REMARK  6 active torsions:
REMARK  status: ('A' for Active; 'I' for Inactive)
REMARK    1  A    between atoms: C_2  and  C_18
REMARK    2  A    between atoms: N_3  and  C_4
REMARK    3  A    between atoms: C_4  and  C_5
REMARK    4  A    between atoms: C_8  and  C_9
REMARK    5  A    between atoms: C_21  and  C_22
REMARK    6  A    between atoms: C_22  and  C_23
REMARK                            x       y       z     vdW  Elec       q    Type
REMARK                         _______ _______ _______ _____ _____    ______ ____
ROOT
ATOM      1  O   UNL     1       1.056   0.164  -0.108  0.00  0.00    +0.000 OA
ATOM      2  C   UNL     1       2.274   0.007  -0.062  0.00  0.00    +0.000 C 
ATOM      3  N   UNL     1       2.989   0.074   1.117  0.00  0.00    +0.000 N 
ATOM      4  H   UNL     1       3.991   0.213   1.064  0.00  0.00    +0.000 HD
ENDROOT
BRANCH   2   5
ATOM      5  C   UNL     1       3.063  -0.247  -1.247  0.00  0.00    +0.000 A 
ATOM      6  C   UNL     1       4.410  -0.550  -1.373  0.00  0.00    +0.000 A 
ATOM      7  C   UNL     1       4.707  -0.664  -2.749  0.00  0.00    +0.000 A 
ATOM      8  C   UNL     1       3.539  -0.469  -3.454  0.00  0.00    +0.000 A 
ATOM      9  N   UNL     1       2.544  -0.237  -2.529  0.00  0.00    +0.000 N 
ATOM     10  H   UNL     1       1.569  -0.058  -2.739  0.00  0.00    +0.000 HD
BRANCH   8  11
ATOM     11  C   UNL     1       3.293  -0.483  -4.934  0.00  0.00    +0.000 C 
BRANCH  11  12
ATOM     12  C   UNL     1       3.446   0.884  -5.565  0.00  0.00    +0.000 A 
ATOM     13  C   UNL     1       4.697   1.320  -6.028  0.00  0.00    +0.000 A 
ATOM     14  C   UNL     1       4.856   2.608  -6.543  0.00  0.00    +0.000 A 
ATOM     15  C   UNL     1       3.764   3.470  -6.615  0.00  0.00    +0.000 A 
ATOM     16  C   UNL     1       2.511   3.041  -6.183  0.00  0.00    +0.000 A 
ATOM     17  C   UNL     1       2.352   1.756  -5.658  0.00  0.00    +0.000 A 
ENDBRANCH  11  12
ENDBRANCH   8  11
ENDBRANCH   2   5
BRANCH   3  18
ATOM     18  C   UNL     1       2.329   0.406   2.354  0.00  0.00    +0.000 C 
BRANCH  18  19
ATOM     19  C   UNL     1       2.993  -0.199   3.566  0.00  0.00    +0.000 A 
ATOM     20  C   UNL     1       3.475   0.615   4.600  0.00  0.00    +0.000 A 
ATOM     21  C   UNL     1       4.018   0.057   5.763  0.00  0.00    +0.000 A 
ATOM     22  C   UNL     1       4.089  -1.336   5.914  0.00  0.00    +0.000 A 
ATOM     23  C   UNL     1       3.604  -2.153   4.887  0.00  0.00    +0.000 A 
ATOM     24  C   UNL     1       3.067  -1.592   3.725  0.00  0.00    +0.000 A 
BRANCH  22  25
ATOM     25  C   UNL     1       4.677  -1.926   7.129  0.00  0.00    +0.000 A 
ATOM     26  C   UNL     1       3.877  -2.177   8.184  0.00  0.00    +0.000 A 
ATOM     27  N   UNL     1       4.378  -2.736   9.334  0.00  0.00    +0.000 N 
ATOM     28  C   UNL     1       5.696  -3.085   9.509  0.00  0.00    +0.000 A 
ATOM     29  O   UNL     1       6.119  -3.587  10.543  0.00  0.00    +0.000 OA
ATOM     30  C   UNL     1       6.592  -2.812   8.357  0.00  0.00    +0.000 A 
ATOM     31  C   UNL     1       6.090  -2.264   7.242  0.00  0.00    +0.000 A 
ATOM     32  H   UNL     1       3.768  -2.917  10.121  0.00  0.00    +0.000 HD
ENDBRANCH  22  25
ENDBRANCH  18  19
ENDBRANCH   3  18
TORSDOF 6
