REMARK  Name = 
REMARK  5 active torsions:
REMARK  status: ('A' for Active; 'I' for Inactive)
REMARK    1  A    between atoms: C_2  and  C_18
REMARK    2  A    between atoms: N_3  and  C_4
REMARK    3  A    between atoms: C_9  and  O_10
REMARK    4  A    between atoms: O_10  and  C_11
REMARK    5  A    between atoms: C_11  and  C_12
REMARK                            x       y       z     vdW  Elec       q    Type
REMARK                         _______ _______ _______ _____ _____    ______ ____
ROOT
ATOM      1  O   UNL     1       3.901  -1.410  -0.751  0.00  0.00    +0.000 OA
ATOM      2  C   UNL     1       3.145  -0.652  -1.383  0.00  0.00    +0.000 C 
ATOM      3  N   UNL     1       2.994   0.673  -0.947  0.00  0.00    +0.000 N 
ATOM      4  H   UNL     1       3.828   0.943  -0.432  0.00  0.00    +0.000 HD
ENDROOT
BRANCH   2   5
ATOM      5  C   UNL     1       2.522  -1.149  -2.656  0.00  0.00    +0.000 A 
ATOM      6  C   UNL     1       3.229  -2.096  -3.424  0.00  0.00    +0.000 A 
ATOM      7  C   UNL     1       2.930  -2.253  -4.789  0.00  0.00    +0.000 A 
ATOM      8  C   UNL     1       1.924  -1.476  -5.375  0.00  0.00    +0.000 A 
ATOM      9  N   UNL     1       1.763  -1.470  -6.771  0.00  0.00    +0.000 N 
ATOM     10  C   UNL     1       2.550  -2.184  -7.628  0.00  0.00    +0.000 A 
ATOM     11  O   UNL     1       2.472  -2.104  -8.857  0.00  0.00    +0.000 OA
ATOM     12  C   UNL     1       3.528  -3.119  -6.985  0.00  0.00    +0.000 A 
ATOM     13  C   UNL     1       3.693  -3.147  -5.659  0.00  0.00    +0.000 A 
ATOM     14  C   UNL     1       1.133  -0.667  -4.579  0.00  0.00    +0.000 A 
ATOM     15  F   UNL     1       0.176   0.099  -5.126  0.00  0.00    +0.000 F 
ATOM     16  C   UNL     1       1.390  -0.548  -3.218  0.00  0.00    +0.000 A 
ATOM     17  H   UNL     1       1.085  -0.836  -7.186  0.00  0.00    +0.000 HD
ENDBRANCH   2   5
BRANCH   3  18
ATOM     18  C   UNL     1       2.440   1.734  -1.726  0.00  0.00    +0.000 A 
ATOM     19  C   UNL     1       2.875   1.917  -3.047  0.00  0.00    +0.000 A 
ATOM     20  N   UNL     1       2.238   2.666  -3.974  0.00  0.00    +0.000 NA
ATOM     21  C   UNL     1       1.146   3.329  -3.562  0.00  0.00    +0.000 A 
ATOM     22  C   UNL     1       0.675   3.292  -2.265  0.00  0.00    +0.000 A 
ATOM     23  C   UNL     1       1.302   2.471  -1.320  0.00  0.00    +0.000 A 
BRANCH  23  24
ATOM     24  O   UNL     1       0.779   2.327  -0.048  0.00  0.00    +0.000 OA
BRANCH  24  25
ATOM     25  C   UNL     1      -0.597   2.762   0.087  0.00  0.00    +0.000 C 
BRANCH  25  26
ATOM     26  C   UNL     1      -1.282   2.261   1.335  0.00  0.00    +0.000 A 
ATOM     27  C   UNL     1      -2.397   2.950   1.839  0.00  0.00    +0.000 A 
ATOM     28  C   UNL     1      -3.122   2.439   2.916  0.00  0.00    +0.000 A 
ATOM     29  C   UNL     1      -2.746   1.228   3.489  0.00  0.00    +0.000 A 
ATOM     30  C   UNL     1      -1.640   0.535   2.990  0.00  0.00    +0.000 A 
ATOM     31  C   UNL     1      -0.916   1.046   1.916  0.00  0.00    +0.000 A 
ENDBRANCH  25  26
ENDBRANCH  24  25
ENDBRANCH  23  24
ENDBRANCH   3  18
TORSDOF 5
