REMARK  Name = 
REMARK  7 active torsions:
REMARK  status: ('A' for Active; 'I' for Inactive)
REMARK    1  A    between atoms: C_2  and  C_18
REMARK    2  A    between atoms: N_3  and  C_4
REMARK    3  A    between atoms: C_5  and  C_6
REMARK    4  A    between atoms: N_9  and  C_10
REMARK    5  A    between atoms: C_21  and  C_22
REMARK    6  A    between atoms: C_22  and  O_23
REMARK    7  A    between atoms: O_23  and  C_24
REMARK                            x       y       z     vdW  Elec       q    Type
REMARK                         _______ _______ _______ _____ _____    ______ ____
ROOT
ATOM      1  O   UNL     1       0.940   0.339  -0.278  0.00  0.00    +0.000 OA
ATOM      2  C   UNL     1       2.153   0.207  -0.124  0.00  0.00    +0.000 C 
ATOM      3  N   UNL     1       2.926  -0.750  -0.750  0.00  0.00    +0.000 N 
ATOM      4  H   UNL     1       3.790  -0.983  -0.263  0.00  0.00    +0.000 HD
ENDROOT
BRANCH   2   5
ATOM      5  C   UNL     1       2.908   1.019   0.833  0.00  0.00    +0.000 A 
ATOM      6  N   UNL     1       4.251   0.964   0.907  0.00  0.00    +0.000 NA
ATOM      7  O   UNL     1       4.620   1.912   1.846  0.00  0.00    +0.000 OA
ATOM      8  C   UNL     1       3.507   2.510   2.348  0.00  0.00    +0.000 A 
ATOM      9  C   UNL     1       2.395   1.950   1.769  0.00  0.00    +0.000 A 
BRANCH   8  10
ATOM     10  C   UNL     1       3.715   3.613   3.314  0.00  0.00    +0.000 C 
BRANCH  10  11
ATOM     11  O   UNL     1       3.775   3.028   4.613  0.00  0.00    +0.000 OA
BRANCH  11  12
ATOM     12  C   UNL     1       3.912   3.895   5.667  0.00  0.00    +0.000 A 
ATOM     13  C   UNL     1       4.010   3.274   6.916  0.00  0.00    +0.000 A 
ATOM     14  C   UNL     1       4.143   4.033   8.083  0.00  0.00    +0.000 A 
ATOM     15  C   UNL     1       4.179   5.425   8.011  0.00  0.00    +0.000 A 
ATOM     16  C   UNL     1       4.084   6.054   6.772  0.00  0.00    +0.000 A 
ATOM     17  C   UNL     1       3.954   5.292   5.612  0.00  0.00    +0.000 A 
ATOM     18  F   UNL     1       3.867   5.951   4.448  0.00  0.00    +0.000 F 
ENDBRANCH  11  12
ENDBRANCH  10  11
ENDBRANCH   8  10
ENDBRANCH   2   5
BRANCH   3  19
ATOM     19  C   UNL     1       2.375  -1.704  -1.588  0.00  0.00    +0.000 A 
ATOM     20  C   UNL     1       2.565  -3.063  -1.448  0.00  0.00    +0.000 A 
ATOM     21  N   UNL     1       1.875  -3.660  -2.492  0.00  0.00    +0.000 N 
ATOM     22  N   UNL     1       1.357  -2.724  -3.333  0.00  0.00    +0.000 NA
ATOM     23  C   UNL     1       1.570  -1.556  -2.720  0.00  0.00    +0.000 A 
BRANCH  21  24
ATOM     24  C   UNL     1       1.610  -5.036  -2.760  0.00  0.00    +0.000 A 
ATOM     25  C   UNL     1       1.510  -5.983  -1.741  0.00  0.00    +0.000 A 
ATOM     26  C   UNL     1       1.218  -7.292  -2.084  0.00  0.00    +0.000 A 
ATOM     27  N   UNL     1       1.031  -7.716  -3.355  0.00  0.00    +0.000 NA
ATOM     28  C   UNL     1       1.113  -6.778  -4.321  0.00  0.00    +0.000 A 
ATOM     29  C   UNL     1       1.390  -5.440  -4.081  0.00  0.00    +0.000 A 
ENDBRANCH  21  24
BRANCH  20  30
ATOM     30  C   UNL     1       3.313  -3.787  -0.409  0.00  0.00    +0.000 C 
ATOM     31  F   UNL     1       4.244  -4.614  -0.943  0.00  0.00    +0.000 F 
ATOM     32  F   UNL     1       4.001  -2.920   0.391  0.00  0.00    +0.000 F 
ENDBRANCH  20  30
ENDBRANCH   3  19
TORSDOF 7
