REMARK  Name = 
REMARK  4 active torsions:
REMARK  status: ('A' for Active; 'I' for Inactive)
REMARK    1  A    between atoms: C_2  and  C_16
REMARK    2  A    between atoms: N_3  and  C_4
REMARK    3  A    between atoms: C_19  and  O_20
REMARK    4  A    between atoms: O_20  and  C_21
REMARK                            x       y       z     vdW  Elec       q    Type
REMARK                         _______ _______ _______ _____ _____    ______ ____
ROOT
ATOM      1  O   UNL     1       0.912   0.087  -0.037  0.00  0.00    +0.000 OA
ATOM      2  C   UNL     1       2.129   0.156  -0.200  0.00  0.00    +0.000 C 
ATOM      3  N   UNL     1       2.838  -0.555  -1.151  0.00  0.00    +0.000 N 
ATOM      4  H   UNL     1       3.758  -0.882  -0.884  0.00  0.00    +0.000 HD
ENDROOT
BRANCH   3   5
ATOM      5  C   UNL     1       2.154  -1.378  -2.056  0.00  0.00    +0.000 A 
ATOM      6  C   UNL     1       1.050  -0.883  -2.753  0.00  0.00    +0.000 A 
ATOM      7  C   UNL     1       0.345  -1.731  -3.598  0.00  0.00    +0.000 A 
ATOM      8  C   UNL     1       0.743  -3.058  -3.678  0.00  0.00    +0.000 A 
ATOM      9  C   UNL     1       0.000  -4.047  -4.466  0.00  0.00    +0.000 A 
ATOM     10  O   UNL     1      -0.958  -3.732  -5.161  0.00  0.00    +0.000 OA
ATOM     11  N   UNL     1       0.437  -5.346  -4.361  0.00  0.00    +0.000 N 
ATOM     12  C   UNL     1       1.484  -5.776  -3.597  0.00  0.00    +0.000 A 
ATOM     13  O   UNL     1       1.767  -6.966  -3.505  0.00  0.00    +0.000 OA
ATOM     14  N   UNL     1       2.193  -4.817  -2.944  0.00  0.00    +0.000 N 
ATOM     15  C   UNL     1       1.854  -3.470  -2.953  0.00  0.00    +0.000 A 
ATOM     16  N   UNL     1       2.606  -2.643  -2.191  0.00  0.00    +0.000 NA
ATOM     17  H   UNL     1      -0.087  -6.050  -4.853  0.00  0.00    +0.000 HD
ATOM     18  H   UNL     1       2.963  -5.105  -2.356  0.00  0.00    +0.000 HD
ENDBRANCH   3   5
BRANCH   2  19
ATOM     19  C   UNL     1       2.902   1.018   0.716  0.00  0.00    +0.000 A 
ATOM     20  C   UNL     1       2.500   1.077   2.055  0.00  0.00    +0.000 A 
ATOM     21  C   UNL     1       3.072   2.012   2.917  0.00  0.00    +0.000 A 
ATOM     22  C   UNL     1       4.088   2.857   2.461  0.00  0.00    +0.000 A 
ATOM     23  C   UNL     1       4.476   2.808   1.117  0.00  0.00    +0.000 A 
ATOM     24  C   UNL     1       3.890   1.885   0.241  0.00  0.00    +0.000 A 
BRANCH  22  25
ATOM     25  O   UNL     1       4.719   3.807   3.239  0.00  0.00    +0.000 OA
BRANCH  25  26
ATOM     26  C   UNL     1       4.847   3.601   4.592  0.00  0.00    +0.000 A 
ATOM     27  C   UNL     1       4.702   4.723   5.411  0.00  0.00    +0.000 A 
ATOM     28  C   UNL     1       4.783   4.593   6.803  0.00  0.00    +0.000 A 
ATOM     29  C   UNL     1       5.007   3.342   7.379  0.00  0.00    +0.000 A 
ATOM     30  C   UNL     1       5.194   2.227   6.562  0.00  0.00    +0.000 A 
ATOM     31  C   UNL     1       5.149   2.368   5.180  0.00  0.00    +0.000 A 
ATOM     32  F   UNL     1       5.386   1.284   4.428  0.00  0.00    +0.000 F 
ENDBRANCH  25  26
ENDBRANCH  22  25
ENDBRANCH   2  19
TORSDOF 4
