REMARK  Name = 
REMARK  7 active torsions:
REMARK  status: ('A' for Active; 'I' for Inactive)
REMARK    1  A    between atoms: C_2  and  C_3
REMARK    2  A    between atoms: C_3  and  O_4
REMARK    3  A    between atoms: O_4  and  C_5
REMARK    4  A    between atoms: C_9  and  O_10
REMARK    5  A    between atoms: O_10  and  C_11
REMARK    6  A    between atoms: N_18  and  C_19
REMARK    7  A    between atoms: N_23  and  C_24
REMARK                            x       y       z     vdW  Elec       q    Type
REMARK                         _______ _______ _______ _____ _____    ______ ____
ROOT
ATOM      1  O   UNL     1       1.005   0.171  -0.141  0.00  0.00    +0.000 OA
ATOM      2  C   UNL     1       2.228   0.130  -0.040  0.00  0.00    +0.000 C 
ATOM      3  N   UNL     1       3.069   0.820  -0.892  0.00  0.00    +0.000 N 
ATOM      4  H   UNL     1       4.034   0.944  -0.599  0.00  0.00    +0.000 HD
ENDROOT
BRANCH   3   5
ATOM      5  C   UNL     1       2.547   1.662  -1.973  0.00  0.00    +0.000 C 
ATOM      6  C   UNL     1       3.549   1.745  -3.120  0.00  0.00    +0.000 C 
ATOM      7  C   UNL     1       4.403   2.934  -2.739  0.00  0.00    +0.000 C 
ATOM      8  O   UNL     1       5.468   3.206  -3.275  0.00  0.00    +0.000 OA
ATOM      9  N   UNL     1       3.694   3.677  -1.797  0.00  0.00    +0.000 N 
ATOM     10  C   UNL     1       2.380   3.128  -1.565  0.00  0.00    +0.000 C 
BRANCH   9  11
ATOM     11  C   UNL     1       4.087   4.970  -1.381  0.00  0.00    +0.000 A 
ATOM     12  C   UNL     1       3.209   6.059  -1.430  0.00  0.00    +0.000 A 
ATOM     13  F   UNL     1       1.974   5.918  -1.933  0.00  0.00    +0.000 F 
ATOM     14  C   UNL     1       3.611   7.334  -1.030  0.00  0.00    +0.000 A 
ATOM     15  C   UNL     1       4.896   7.535  -0.529  0.00  0.00    +0.000 A 
ATOM     16  C   UNL     1       5.778   6.458  -0.452  0.00  0.00    +0.000 A 
ATOM     17  C   UNL     1       5.378   5.195  -0.890  0.00  0.00    +0.000 A 
ATOM     18  F   UNL     1       6.234   4.173  -0.736  0.00  0.00    +0.000 F 
ENDBRANCH   9  11
ENDBRANCH   3   5
BRANCH   2  19
ATOM     19  C   UNL     1       2.947  -0.733   0.997  0.00  0.00    +0.000 C 
BRANCH  19  20
ATOM     20  O   UNL     1       3.236   0.029   2.161  0.00  0.00    +0.000 OA
BRANCH  20  21
ATOM     21  C   UNL     1       3.879  -0.630   3.178  0.00  0.00    +0.000 A 
ATOM     22  C   UNL     1       4.249  -1.978   3.170  0.00  0.00    +0.000 A 
ATOM     23  C   UNL     1       4.902  -2.538   4.271  0.00  0.00    +0.000 A 
ATOM     24  C   UNL     1       5.199  -1.752   5.380  0.00  0.00    +0.000 A 
ATOM     25  C   UNL     1       4.881  -0.393   5.377  0.00  0.00    +0.000 A 
ATOM     26  C   UNL     1       4.185   0.155   4.296  0.00  0.00    +0.000 A 
BRANCH  25  27
ATOM     27  O   UNL     1       5.172   0.446   6.433  0.00  0.00    +0.000 OA
BRANCH  27  28
ATOM     28  C   UNL     1       6.426   0.326   7.027  0.00  0.00    +0.000 A 
ATOM     29  C   UNL     1       6.544   0.789   8.329  0.00  0.00    +0.000 A 
ATOM     30  C   UNL     1       7.774   0.654   8.969  0.00  0.00    +0.000 A 
ATOM     31  C   UNL     1       8.838   0.072   8.286  0.00  0.00    +0.000 A 
ATOM     32  C   UNL     1       8.634  -0.335   6.979  0.00  0.00    +0.000 A 
ATOM     33  N   UNL     1       7.458  -0.208   6.332  0.00  0.00    +0.000 NA
ENDBRANCH  27  28
ENDBRANCH  25  27
ENDBRANCH  20  21
ENDBRANCH  19  20
ENDBRANCH   2  19
TORSDOF 7
