REMARK  Name = 
REMARK  4 active torsions:
REMARK  status: ('A' for Active; 'I' for Inactive)
REMARK    1  A    between atoms: C_2  and  C_17
REMARK    2  A    between atoms: N_3  and  C_4
REMARK    3  A    between atoms: C_6  and  C_7
REMARK    4  A    between atoms: C_26  and  C_27
REMARK                            x       y       z     vdW  Elec       q    Type
REMARK                         _______ _______ _______ _____ _____    ______ ____
ROOT
ATOM      1  O   UNL     1       0.961  -0.022  -0.232  0.00  0.00    +0.000 OA
ATOM      2  C   UNL     1       2.128  -0.025   0.099  0.00  0.00    +0.000 C 
ATOM      3  N   UNL     1       2.786  -1.033   0.800  0.00  0.00    +0.000 N 
ATOM      4  H   UNL     1       3.691  -0.854   1.222  0.00  0.00    +0.000 HD
ENDROOT
BRANCH   2   5
ATOM      5  C   UNL     1       2.934   1.187  -0.130  0.00  0.00    +0.000 A 
ATOM      6  C   UNL     1       4.242   1.007  -0.520  0.00  0.00    +0.000 A 
ATOM      7  C   UNL     1       5.102   2.070  -0.399  0.00  0.00    +0.000 A 
ATOM      8  C   UNL     1       6.426   1.851  -0.707  0.00  0.00    +0.000 A 
ATOM      9  C   UNL     1       7.250   2.169   0.339  0.00  0.00    +0.000 A 
ATOM     10  C   UNL     1       6.982   3.344   1.038  0.00  0.00    +0.000 A 
ATOM     11  C   UNL     1       5.715   3.942   0.895  0.00  0.00    +0.000 A 
ATOM     12  C   UNL     1       4.685   3.232   0.266  0.00  0.00    +0.000 A 
ATOM     13  N   UNL     1       3.362   3.483   0.422  0.00  0.00    +0.000 NA
ATOM     14  C   UNL     1       2.473   2.464   0.172  0.00  0.00    +0.000 A 
BRANCH  14  15
ATOM     15  C   UNL     1       0.977   2.755   0.191  0.00  0.00    +0.000 C 
ATOM     16  F   UNL     1       0.682   4.063   0.461  0.00  0.00    +0.000 F 
ATOM     17  F   UNL     1       0.386   2.511  -1.015  0.00  0.00    +0.000 F 
ENDBRANCH  14  15
ENDBRANCH   2   5
BRANCH   3  18
ATOM     18  C   UNL     1       2.187  -2.211   1.209  0.00  0.00    +0.000 A 
ATOM     19  C   UNL     1       1.141  -2.761   0.574  0.00  0.00    +0.000 A 
ATOM     20  C   UNL     1       0.542  -4.014   1.010  0.00  0.00    +0.000 A 
ATOM     21  C   UNL     1       1.057  -4.637   2.068  0.00  0.00    +0.000 A 
ATOM     22  N   UNL     1       2.113  -4.108   2.764  0.00  0.00    +0.000 N 
ATOM     23  C   UNL     1       2.720  -2.904   2.434  0.00  0.00    +0.000 A 
ATOM     24  O   UNL     1       3.623  -2.416   3.108  0.00  0.00    +0.000 OA
ATOM     25  H   UNL     1       2.472  -4.576   3.580  0.00  0.00    +0.000 HD
BRANCH  20  26
ATOM     26  C   UNL     1      -0.605  -4.590   0.300  0.00  0.00    +0.000 A 
ATOM     27  C   UNL     1      -1.908  -4.274   0.686  0.00  0.00    +0.000 A 
ATOM     28  C   UNL     1      -2.954  -4.853  -0.010  0.00  0.00    +0.000 A 
ATOM     29  N   UNL     1      -2.786  -5.701  -1.047  0.00  0.00    +0.000 NA
ATOM     30  C   UNL     1      -1.515  -5.969  -1.417  0.00  0.00    +0.000 A 
ATOM     31  C   UNL     1      -0.402  -5.441  -0.786  0.00  0.00    +0.000 A 
ENDBRANCH  20  26
ENDBRANCH   3  18
TORSDOF 4
