REMARK  Name = 
REMARK  5 active torsions:
REMARK  status: ('A' for Active; 'I' for Inactive)
REMARK    1  A    between atoms: C_1  and  C_2
REMARK    2  A    between atoms: C_6  and  C_7
REMARK    3  A    between atoms: N_9  and  C_10
REMARK    4  A    between atoms: C_10  and  C_11
REMARK    5  A    between atoms: C_14  and  C_15
REMARK                            x       y       z     vdW  Elec       q    Type
REMARK                         _______ _______ _______ _____ _____    ______ ____
ROOT
ATOM      1  C   UNL     1      -3.336  -2.864  -1.092  0.00  0.00    +0.000 C 
ATOM      2  O   UNL     1      -3.737  -3.212  -2.197  0.00  0.00    +0.000 OA
ATOM      3  N   UNL     1      -3.873  -3.319   0.091  0.00  0.00    +0.000 N 
ATOM      4  H   UNL     1      -3.396  -3.144   0.965  0.00  0.00    +0.000 HD
ENDROOT
BRANCH   1  10
ATOM      5  C   UNL     1       0.172   2.627   2.364  0.00  0.00    +0.000 C 
ATOM      6  C   UNL     1       0.036   1.634   1.246  0.00  0.00    +0.000 A 
ATOM      7  N   UNL     1      -0.939   0.785   1.224  0.00  0.00    +0.000 NA
ATOM      8  C   UNL     1      -1.013  -0.107   0.140  0.00  0.00    +0.000 A 
ATOM      9  C   UNL     1      -2.074  -1.018   0.092  0.00  0.00    +0.000 A 
ATOM     10  C   UNL     1      -2.195  -1.912  -0.983  0.00  0.00    +0.000 A 
ATOM     11  C   UNL     1      -1.251  -1.884  -2.020  0.00  0.00    +0.000 A 
ATOM     12  C   UNL     1      -0.183  -0.985  -1.976  0.00  0.00    +0.000 A 
ATOM     13  C   UNL     1      -0.075  -0.104  -0.897  0.00  0.00    +0.000 A 
ATOM     14  C   UNL     1       1.022   0.875  -0.816  0.00  0.00    +0.000 A 
ATOM     15  O   UNL     1       1.899   0.947  -1.670  0.00  0.00    +0.000 OA
ATOM     16  N   UNL     1       1.000   1.702   0.277  0.00  0.00    +0.000 N 
ATOM     17  H   UNL     1       1.748   2.378   0.333  0.00  0.00    +0.000 HD
ENDBRANCH   1  10
BRANCH   3  18
ATOM     18  C   UNL     1      -4.990  -4.237   0.122  0.00  0.00    +0.000 C 
BRANCH  18  19
ATOM     19  C   UNL     1      -4.552  -5.671   0.199  0.00  0.00    +0.000 A 
ATOM     20  C   UNL     1      -4.369  -6.439  -0.955  0.00  0.00    +0.000 A 
ATOM     21  C   UNL     1      -3.983  -7.782  -0.859  0.00  0.00    +0.000 A 
ATOM     22  C   UNL     1      -3.770  -8.405   0.386  0.00  0.00    +0.000 A 
ATOM     23  C   UNL     1      -3.940  -7.613   1.533  0.00  0.00    +0.000 A 
ATOM     24  C   UNL     1      -4.317  -6.274   1.433  0.00  0.00    +0.000 A 
ATOM     25  F   UNL     1      -4.471  -5.564   2.560  0.00  0.00    +0.000 F 
BRANCH  22  26
ATOM     26  C   UNL     1      -3.411  -9.838   0.484  0.00  0.00    +0.000 A 
ATOM     27  C   UNL     1      -2.586 -10.324   1.516  0.00  0.00    +0.000 A 
ATOM     28  C   UNL     1      -2.293 -11.687   1.635  0.00  0.00    +0.000 A 
ATOM     29  C   UNL     1      -2.809 -12.594   0.716  0.00  0.00    +0.000 A 
ATOM     30  C   UNL     1      -3.610 -12.140  -0.326  0.00  0.00    +0.000 A 
ATOM     31  C   UNL     1      -3.906 -10.779  -0.438  0.00  0.00    +0.000 A 
ENDBRANCH  22  26
ENDBRANCH  18  19
ENDBRANCH   3  18
TORSDOF 4
