REMARK  Name = 
REMARK  4 active torsions:
REMARK  status: ('A' for Active; 'I' for Inactive)
REMARK    1  A    between atoms: C_2  and  C_17
REMARK    2  A    between atoms: N_3  and  C_4
REMARK    3  A    between atoms: C_7  and  C_8
REMARK    4  A    between atoms: C_22  and  C_23
REMARK                            x       y       z     vdW  Elec       q    Type
REMARK                         _______ _______ _______ _____ _____    ______ ____
ROOT
ATOM      1  O   UNL     1       1.135  -0.545  -0.592  0.00  0.00    +0.000 OA
ATOM      2  C   UNL     1       2.232  -0.251  -0.141  0.00  0.00    +0.000 C 
ATOM      3  N   UNL     1       2.834  -0.819   0.973  0.00  0.00    +0.000 N 
ATOM      4  H   UNL     1       3.616  -0.323   1.385  0.00  0.00    +0.000 HD
ENDROOT
BRANCH   3   5
ATOM      5  C   UNL     1       2.182  -1.779   1.771  0.00  0.00    +0.000 A 
ATOM      6  C   UNL     1       1.311  -2.737   1.296  0.00  0.00    +0.000 A 
ATOM      7  N   UNL     1       0.626  -3.585   2.093  0.00  0.00    +0.000 NA
ATOM      8  C   UNL     1       0.802  -3.447   3.422  0.00  0.00    +0.000 A 
ATOM      9  N   UNL     1       1.672  -2.582   3.985  0.00  0.00    +0.000 NA
ATOM     10  C   UNL     1       2.353  -1.780   3.140  0.00  0.00    +0.000 A 
BRANCH   8  11
ATOM     11  C   UNL     1      -0.060  -4.247   4.312  0.00  0.00    +0.000 A 
ATOM     12  C   UNL     1      -0.969  -5.187   3.793  0.00  0.00    +0.000 A 
ATOM     13  C   UNL     1      -1.800  -5.918   4.637  0.00  0.00    +0.000 A 
ATOM     14  F   UNL     1      -2.656  -6.804   4.112  0.00  0.00    +0.000 F 
ATOM     15  C   UNL     1      -1.761  -5.741   6.013  0.00  0.00    +0.000 A 
ATOM     16  C   UNL     1      -0.875  -4.817   6.555  0.00  0.00    +0.000 A 
ATOM     17  C   UNL     1      -0.034  -4.080   5.712  0.00  0.00    +0.000 A 
ENDBRANCH   8  11
ENDBRANCH   3   5
BRANCH   2  18
ATOM     18  C   UNL     1       3.009   0.845  -0.751  0.00  0.00    +0.000 A 
ATOM     19  C   UNL     1       4.306   0.538  -1.190  0.00  0.00    +0.000 A 
ATOM     20  C   UNL     1       5.062   1.518  -1.826  0.00  0.00    +0.000 A 
ATOM     21  C   UNL     1       4.494   2.758  -2.006  0.00  0.00    +0.000 A 
ATOM     22  N   UNL     1       3.250   3.081  -1.585  0.00  0.00    +0.000 NA
ATOM     23  C   UNL     1       2.492   2.135  -0.955  0.00  0.00    +0.000 A 
BRANCH  23  24
ATOM     24  C   UNL     1       1.175   2.654  -0.502  0.00  0.00    +0.000 A 
ATOM     25  C   UNL     1       0.500   3.625  -1.265  0.00  0.00    +0.000 A 
ATOM     26  C   UNL     1      -0.707   4.143  -0.818  0.00  0.00    +0.000 A 
ATOM     27  N   UNL     1      -1.299   3.770   0.333  0.00  0.00    +0.000 NA
ATOM     28  C   UNL     1      -0.651   2.842   1.063  0.00  0.00    +0.000 A 
ATOM     29  C   UNL     1       0.568   2.278   0.704  0.00  0.00    +0.000 A 
ENDBRANCH  23  24
ENDBRANCH   2  18
TORSDOF 4
