REMARK  Name = 
REMARK  3 active torsions:
REMARK  status: ('A' for Active; 'I' for Inactive)
REMARK    1  A    between atoms: C_2  and  C_19
REMARK    2  A    between atoms: C_9  and  O_10
REMARK    3  A    between atoms: O_10  and  C_11
REMARK                            x       y       z     vdW  Elec       q    Type
REMARK                         _______ _______ _______ _____ _____    ______ ____
ROOT
ATOM      1  O   UNL     1       0.876   0.047  -0.166  0.00  0.00    +0.000 OA
ATOM      2  C   UNL     1       2.087   0.102   0.043  0.00  0.00    +0.000 C 
ATOM      3  N   UNL     1       2.811  -0.664   0.938  0.00  0.00    +0.000 N 
ATOM      4  C   UNL     1       2.209  -1.625   1.765  0.00  0.00    +0.000 A 
ATOM      5  N   UNL     1       0.885  -1.822   1.656  0.00  0.00    +0.000 NA
ATOM      6  C   UNL     1       0.263  -2.709   2.429  0.00  0.00    +0.000 A 
ATOM      7  C   UNL     1      -1.099  -2.881   2.256  0.00  0.00    +0.000 A 
ATOM      8  C   UNL     1      -1.828  -3.789   3.026  0.00  0.00    +0.000 A 
ATOM      9  C   UNL     1      -1.191  -4.510   4.029  0.00  0.00    +0.000 A 
ATOM     10  C   UNL     1       0.196  -4.374   4.186  0.00  0.00    +0.000 A 
ATOM     11  C   UNL     1       0.935  -3.472   3.391  0.00  0.00    +0.000 A 
ATOM     12  C   UNL     1       2.325  -3.275   3.497  0.00  0.00    +0.000 A 
ATOM     13  C   UNL     1       2.970  -2.343   2.674  0.00  0.00    +0.000 A 
ATOM     14  H   UNL     1       3.806  -0.497   0.995  0.00  0.00    +0.000 HD
ENDROOT
BRANCH   2  15
ATOM     15  C   UNL     1       2.915   1.097  -0.732  0.00  0.00    +0.000 A 
ATOM     16  C   UNL     1       2.191   1.943  -1.472  0.00  0.00    +0.000 A 
ATOM     17  C   UNL     1       2.879   2.916  -2.314  0.00  0.00    +0.000 A 
ATOM     18  O   UNL     1       2.210   3.714  -2.970  0.00  0.00    +0.000 OA
ATOM     19  N   UNL     1       4.260   2.837  -2.303  0.00  0.00    +0.000 N 
ATOM     20  C   UNL     1       4.979   3.689  -3.131  0.00  0.00    +0.000 A 
ATOM     21  C   UNL     1       6.314   3.668  -3.179  0.00  0.00    +0.000 A 
ATOM     22  C   UNL     1       7.040   2.747  -2.345  0.00  0.00    +0.000 A 
ATOM     23  C   UNL     1       6.394   1.917  -1.520  0.00  0.00    +0.000 A 
ATOM     24  C   UNL     1       4.902   1.918  -1.472  0.00  0.00    +0.000 A 
ATOM     25  N   UNL     1       4.293   1.078  -0.684  0.00  0.00    +0.000 NA
ENDBRANCH   2  15
BRANCH   9  26
ATOM     26  O   UNL     1      -1.786  -5.399   4.868  0.00  0.00    +0.000 OA
BRANCH  26  27
ATOM     27  C   UNL     1      -3.152  -5.225   5.231  0.00  0.00    +0.000 C 
ATOM     28  F   UNL     1      -3.695  -4.056   4.832  0.00  0.00    +0.000 F 
ATOM     29  F   UNL     1      -3.883  -6.240   4.722  0.00  0.00    +0.000 F 
ATOM     30  F   UNL     1      -3.242  -5.278   6.579  0.00  0.00    +0.000 F 
ENDBRANCH  26  27
ENDBRANCH   9  26
TORSDOF 3
