REMARK  Name = 
REMARK  8 active torsions:
REMARK  status: ('A' for Active; 'I' for Inactive)
REMARK    1  A    between atoms: C_2  and  C_3
REMARK    2  A    between atoms: C_3  and  C_4
REMARK    3  A    between atoms: C_4  and  C_5
REMARK    4  A    between atoms: N_9  and  C_10
REMARK    5  A    between atoms: N_16  and  C_17
REMARK    6  A    between atoms: C_17  and  C_18
REMARK    7  A    between atoms: C_20  and  O_21
REMARK    8  A    between atoms: O_21  and  C_22
REMARK                            x       y       z     vdW  Elec       q    Type
REMARK                         _______ _______ _______ _____ _____    ______ ____
ROOT
ATOM      1  O   UNL     1       2.797   0.886  -0.539  0.00  0.00    +0.000 OA
ATOM      2  C   UNL     1       2.299  -0.060   0.061  0.00  0.00    +0.000 C 
ATOM      3  N   UNL     1       3.015  -1.050   0.674  0.00  0.00    +0.000 N 
ATOM      4  H   UNL     1       2.540  -1.871   1.026  0.00  0.00    +0.000 HD
ENDROOT
BRANCH   2   5
ATOM      5  C   UNL     1       0.800  -0.221   0.210  0.00  0.00    +0.000 C 
BRANCH   5   6
ATOM      6  C   UNL     1       0.135  -0.337  -1.155  0.00  0.00    +0.000 C 
BRANCH   6   7
ATOM      7  C   UNL     1       0.487  -1.594  -1.890  0.00  0.00    +0.000 A 
ATOM      8  N   UNL     1       1.343  -2.506  -1.461  0.00  0.00    +0.000 NA
ATOM      9  N   UNL     1       1.330  -3.560  -2.329  0.00  0.00    +0.000 NA
ATOM     10  C   UNL     1       0.454  -3.285  -3.264  0.00  0.00    +0.000 A 
ATOM     11  N   UNL     1      -0.120  -2.055  -3.053  0.00  0.00    +0.000 N 
BRANCH  11  12
ATOM     12  C   UNL     1      -1.154  -1.470  -3.833  0.00  0.00    +0.000 A 
ATOM     13  C   UNL     1      -2.052  -2.298  -4.524  0.00  0.00    +0.000 A 
ATOM     14  C   UNL     1      -3.139  -1.741  -5.202  0.00  0.00    +0.000 A 
ATOM     15  C   UNL     1      -3.327  -0.361  -5.216  0.00  0.00    +0.000 A 
ATOM     16  C   UNL     1      -2.410   0.469  -4.580  0.00  0.00    +0.000 A 
ATOM     17  C   UNL     1      -1.321  -0.082  -3.901  0.00  0.00    +0.000 A 
ENDBRANCH  11  12
ENDBRANCH   6   7
ENDBRANCH   5   6
ENDBRANCH   2   5
BRANCH   3  18
ATOM     18  C   UNL     1       4.457  -1.121   0.632  0.00  0.00    +0.000 C 
BRANCH  18  19
ATOM     19  C   UNL     1       5.024  -0.996   2.025  0.00  0.00    +0.000 A 
ATOM     20  C   UNL     1       5.308   0.263   2.545  0.00  0.00    +0.000 A 
ATOM     21  C   UNL     1       5.835   0.348   3.830  0.00  0.00    +0.000 A 
ATOM     22  C   UNL     1       5.976  -0.806   4.591  0.00  0.00    +0.000 A 
ATOM     23  C   UNL     1       5.631  -2.013   4.013  0.00  0.00    +0.000 A 
ATOM     24  N   UNL     1       5.170  -2.135   2.750  0.00  0.00    +0.000 NA
BRANCH  21  25
ATOM     25  O   UNL     1       6.171   1.529   4.452  0.00  0.00    +0.000 OA
BRANCH  25  26
ATOM     26  C   UNL     1       6.694   2.565   3.711  0.00  0.00    +0.000 A 
ATOM     27  C   UNL     1       7.560   2.397   2.628  0.00  0.00    +0.000 A 
ATOM     28  C   UNL     1       8.027   3.518   1.951  0.00  0.00    +0.000 A 
ATOM     29  F   UNL     1       8.822   3.357   0.885  0.00  0.00    +0.000 F 
ATOM     30  C   UNL     1       7.684   4.802   2.359  0.00  0.00    +0.000 A 
ATOM     31  C   UNL     1       6.861   4.973   3.471  0.00  0.00    +0.000 A 
ATOM     32  C   UNL     1       6.369   3.853   4.147  0.00  0.00    +0.000 A 
ENDBRANCH  25  26
ENDBRANCH  21  25
ENDBRANCH  18  19
ENDBRANCH   3  18
TORSDOF 8
