REMARK  Name = 
REMARK  5 active torsions:
REMARK  status: ('A' for Active; 'I' for Inactive)
REMARK    1  A    between atoms: C_2  and  C_3
REMARK    2  A    between atoms: C_3  and  C_4
REMARK    3  A    between atoms: C_8  and  O_9
REMARK    4  A    between atoms: O_9  and  C_10
REMARK    5  A    between atoms: C_21  and  C_22
REMARK                            x       y       z     vdW  Elec       q    Type
REMARK                         _______ _______ _______ _____ _____    ______ ____
ROOT
ATOM      1  O   UNL     1       2.022   0.276  -1.106  0.00  0.00    +0.000 OA
ATOM      2  C   UNL     1       2.393  -0.047   0.028  0.00  0.00    +0.000 C 
ATOM      3  N   UNL     1       2.297  -1.358   0.390  0.00  0.00    +0.000 N 
ATOM      4  C   UNL     1       2.467  -1.915   1.642  0.00  0.00    +0.000 A 
ATOM      5  N   UNL     1       2.514  -1.127   2.714  0.00  0.00    +0.000 NA
ATOM      6  C   UNL     1       2.665  -1.716   3.916  0.00  0.00    +0.000 A 
ATOM      7  C   UNL     1       2.812  -3.072   4.103  0.00  0.00    +0.000 A 
ATOM      8  C   UNL     1       2.754  -3.790   2.924  0.00  0.00    +0.000 A 
ATOM      9  N   UNL     1       2.556  -3.248   1.694  0.00  0.00    +0.000 NA
ATOM     10  H   UNL     1       2.030  -2.008  -0.332  0.00  0.00    +0.000 HD
ENDROOT
BRANCH   7  11
ATOM     11  C   UNL     1       3.008  -3.658   5.420  0.00  0.00    +0.000 A 
ATOM     12  N   UNL     1       2.971  -2.825   6.480  0.00  0.00    +0.000 NA
ATOM     13  C   UNL     1       3.146  -3.381   7.691  0.00  0.00    +0.000 A 
ATOM     14  C   UNL     1       3.364  -4.725   7.878  0.00  0.00    +0.000 A 
ATOM     15  C   UNL     1       3.391  -5.488   6.734  0.00  0.00    +0.000 A 
ATOM     16  N   UNL     1       3.220  -4.984   5.496  0.00  0.00    +0.000 NA
ENDBRANCH   7  11
BRANCH   2  17
ATOM     17  C   UNL     1       3.044   0.979   0.950  0.00  0.00    +0.000 C 
BRANCH  17  18
ATOM     18  C   UNL     1       2.113   1.763   1.847  0.00  0.00    +0.000 A 
ATOM     19  C   UNL     1       2.514   2.074   3.158  0.00  0.00    +0.000 A 
ATOM     20  C   UNL     1       1.682   2.804   4.007  0.00  0.00    +0.000 A 
ATOM     21  C   UNL     1       0.448   3.258   3.548  0.00  0.00    +0.000 A 
ATOM     22  C   UNL     1       0.073   3.034   2.222  0.00  0.00    +0.000 A 
ATOM     23  C   UNL     1       0.887   2.260   1.388  0.00  0.00    +0.000 A 
BRANCH  22  24
ATOM     24  O   UNL     1      -1.104   3.478   1.663  0.00  0.00    +0.000 OA
BRANCH  24  25
ATOM     25  C   UNL     1      -1.632   4.696   2.026  0.00  0.00    +0.000 A 
ATOM     26  C   UNL     1      -0.888   5.800   2.454  0.00  0.00    +0.000 A 
ATOM     27  C   UNL     1      -1.535   6.979   2.828  0.00  0.00    +0.000 A 
ATOM     28  C   UNL     1      -2.921   7.079   2.720  0.00  0.00    +0.000 A 
ATOM     29  C   UNL     1      -3.661   6.004   2.229  0.00  0.00    +0.000 A 
ATOM     30  C   UNL     1      -3.017   4.816   1.883  0.00  0.00    +0.000 A 
ENDBRANCH  24  25
ENDBRANCH  22  24
ENDBRANCH  17  18
ENDBRANCH   2  17
TORSDOF 5
