REMARK  Name = 
REMARK  6 active torsions:
REMARK  status: ('A' for Active; 'I' for Inactive)
REMARK    1  A    between atoms: N_4  and  C_5
REMARK    2  A    between atoms: C_5  and  C_6
REMARK    3  A    between atoms: N_8  and  C_9
REMARK    4  A    between atoms: C_9  and  C_10
REMARK    5  A    between atoms: C_15  and  C_16
REMARK    6  A    between atoms: C_23  and  C_24
REMARK                            x       y       z     vdW  Elec       q    Type
REMARK                         _______ _______ _______ _____ _____    ______ ____
ROOT
ATOM      1  C   UNL     1       6.899   1.034  -0.529  0.00  0.00    +0.000 C 
ATOM      2  O   UNL     1       6.968   0.094  -1.325  0.00  0.00    +0.000 OA
ATOM      3  N   UNL     1       8.013   1.536   0.109  0.00  0.00    +0.000 N 
ATOM      4  H   UNL     1       7.973   2.493   0.454  0.00  0.00    +0.000 HD
ENDROOT
BRANCH   1   5
ATOM      5  C   UNL     1       5.564   1.583  -0.089  0.00  0.00    +0.000 C 
BRANCH   5   9
ATOM      6  N   UNL     1       6.718   6.080  -0.928  0.00  0.00    +0.000 N 
ATOM      7  C   UNL     1       6.002   5.026  -0.545  0.00  0.00    +0.000 A 
ATOM      8  N   UNL     1       6.441   3.780  -0.609  0.00  0.00    +0.000 NA
ATOM      9  N   UNL     1       5.410   3.027  -0.168  0.00  0.00    +0.000 N 
ATOM     10  C   UNL     1       4.312   3.781   0.212  0.00  0.00    +0.000 A 
ATOM     11  C   UNL     1       4.705   5.090  -0.023  0.00  0.00    +0.000 A 
ATOM     12  H   UNL     1       7.693   5.934  -1.167  0.00  0.00    +0.000 HD
ATOM     13  H   UNL     1       6.463   7.030  -0.697  0.00  0.00    +0.000 HD
BRANCH  10  14
ATOM     14  C   UNL     1       3.022   3.305   0.731  0.00  0.00    +0.000 A 
ATOM     15  C   UNL     1       2.357   4.061   1.710  0.00  0.00    +0.000 A 
ATOM     16  C   UNL     1       1.069   3.723   2.134  0.00  0.00    +0.000 A 
ATOM     17  C   UNL     1       0.432   2.608   1.601  0.00  0.00    +0.000 A 
ATOM     18  C   UNL     1       1.085   1.830   0.650  0.00  0.00    +0.000 A 
ATOM     19  C   UNL     1       2.366   2.183   0.211  0.00  0.00    +0.000 A 
ENDBRANCH  10  14
ENDBRANCH   5   9
ENDBRANCH   1   5
BRANCH   3  20
ATOM     20  C   UNL     1       9.308   1.049  -0.299  0.00  0.00    +0.000 C 
BRANCH  20  21
ATOM     21  C   UNL     1      10.487   1.547   0.509  0.00  0.00    +0.000 A 
ATOM     22  N   UNL     1      10.171   2.410   1.527  0.00  0.00    +0.000 NA
ATOM     23  C   UNL     1      11.172   2.894   2.285  0.00  0.00    +0.000 A 
ATOM     24  C   UNL     1      12.495   2.563   2.091  0.00  0.00    +0.000 A 
ATOM     25  C   UNL     1      12.808   1.685   1.055  0.00  0.00    +0.000 A 
ATOM     26  C   UNL     1      11.814   1.142   0.213  0.00  0.00    +0.000 A 
BRANCH  26  27
ATOM     27  C   UNL     1      12.215   0.248  -0.922  0.00  0.00    +0.000 A 
ATOM     28  C   UNL     1      11.456  -0.866  -1.334  0.00  0.00    +0.000 A 
ATOM     29  C   UNL     1      11.786  -1.624  -2.463  0.00  0.00    +0.000 A 
ATOM     30  C   UNL     1      12.950  -1.345  -3.153  0.00  0.00    +0.000 A 
ATOM     31  F   UNL     1      13.283  -2.084  -4.218  0.00  0.00    +0.000 F 
ATOM     32  C   UNL     1      13.779  -0.316  -2.738  0.00  0.00    +0.000 A 
ATOM     33  C   UNL     1      13.403   0.483  -1.648  0.00  0.00    +0.000 A 
ENDBRANCH  26  27
ENDBRANCH  20  21
ENDBRANCH   3  20
TORSDOF 6
