REMARK  Name = 
REMARK  6 active torsions:
REMARK  status: ('A' for Active; 'I' for Inactive)
REMARK    1  A    between atoms: C_2  and  C_19
REMARK    2  A    between atoms: N_3  and  C_4
REMARK    3  A    between atoms: C_4  and  C_5
REMARK    4  A    between atoms: C_4  and  C_13
REMARK    5  A    between atoms: C_5  and  C_7
REMARK    6  A    between atoms: N_23  and  C_24
REMARK                            x       y       z     vdW  Elec       q    Type
REMARK                         _______ _______ _______ _____ _____    ______ ____
ROOT
ATOM      1  O   UNL     1       3.035   0.450  -2.406  0.00  0.00    +0.000 OA
ATOM      2  C   UNL     1       3.269   0.230  -1.221  0.00  0.00    +0.000 C 
ATOM      3  N   UNL     1       2.897   1.121  -0.242  0.00  0.00    +0.000 N 
ATOM      4  H   UNL     1       3.163   0.973   0.723  0.00  0.00    +0.000 HD
ENDROOT
BRANCH   2   5
ATOM      5  C   UNL     1       3.886  -0.986  -0.737  0.00  0.00    +0.000 A 
ATOM      6  C   UNL     1       3.729  -1.600   0.498  0.00  0.00    +0.000 A 
ATOM      7  C   UNL     1       4.341  -2.851   0.381  0.00  0.00    +0.000 A 
ATOM      8  N   UNL     1       4.840  -3.053  -0.833  0.00  0.00    +0.000 NA
ATOM      9  N   UNL     1       4.672  -1.865  -1.484  0.00  0.00    +0.000 N 
BRANCH   9  10
ATOM     10  C   UNL     1       5.369  -1.674  -2.709  0.00  0.00    +0.000 A 
ATOM     11  C   UNL     1       5.689  -2.791  -3.491  0.00  0.00    +0.000 A 
ATOM     12  C   UNL     1       6.424  -2.594  -4.648  0.00  0.00    +0.000 A 
ATOM     13  N   UNL     1       6.876  -1.388  -5.050  0.00  0.00    +0.000 NA
ATOM     14  C   UNL     1       6.569  -0.331  -4.266  0.00  0.00    +0.000 A 
ATOM     15  C   UNL     1       5.820  -0.416  -3.103  0.00  0.00    +0.000 A 
ENDBRANCH   9  10
ENDBRANCH   2   5
BRANCH   3  16
ATOM     16  C   UNL     1       2.184   2.360  -0.539  0.00  0.00    +0.000 C 
BRANCH  16  17
ATOM     17  C   UNL     1       3.143   3.487  -0.896  0.00  0.00    +0.000 A 
ATOM     18  C   UNL     1       3.018   4.141  -2.133  0.00  0.00    +0.000 A 
ATOM     19  C   UNL     1       3.832   5.230  -2.452  0.00  0.00    +0.000 A 
ATOM     20  C   UNL     1       4.792   5.674  -1.547  0.00  0.00    +0.000 A 
ATOM     21  C   UNL     1       4.957   5.012  -0.333  0.00  0.00    +0.000 A 
ATOM     22  C   UNL     1       4.144   3.922  -0.011  0.00  0.00    +0.000 A 
ENDBRANCH  16  17
BRANCH  16  23
ATOM     23  C   UNL     1       1.339   2.703   0.706  0.00  0.00    +0.000 C 
ATOM     24  O   UNL     1       1.833   2.724   1.840  0.00  0.00    +0.000 OA
BRANCH  23  25
ATOM     25  C   UNL     1      -0.125   2.987   0.568  0.00  0.00    +0.000 A 
ATOM     26  C   UNL     1      -0.906   2.411  -0.441  0.00  0.00    +0.000 A 
ATOM     27  C   UNL     1      -2.277   2.676  -0.509  0.00  0.00    +0.000 A 
ATOM     28  C   UNL     1      -2.883   3.504   0.436  0.00  0.00    +0.000 A 
ATOM     29  C   UNL     1      -2.119   4.061   1.460  0.00  0.00    +0.000 A 
ATOM     30  C   UNL     1      -0.745   3.802   1.528  0.00  0.00    +0.000 A 
ENDBRANCH  23  25
ENDBRANCH  16  23
ENDBRANCH   3  16
TORSDOF 6
