REMARK  Name = 
REMARK  7 active torsions:
REMARK  status: ('A' for Active; 'I' for Inactive)
REMARK    1  A    between atoms: C_1  and  O_2
REMARK    2  A    between atoms: O_2  and  C_3
REMARK    3  A    between atoms: C_6  and  N_7
REMARK    4  A    between atoms: C_8  and  C_10
REMARK    5  A    between atoms: C_21  and  O_22
REMARK    6  A    between atoms: O_22  and  C_23
REMARK    7  A    between atoms: C_23  and  C_24
REMARK                            x       y       z     vdW  Elec       q    Type
REMARK                         _______ _______ _______ _____ _____    ______ ____
ROOT
ATOM      1  C   UNL     1       3.099   0.643   1.153  0.00  0.00    +0.000 A 
ATOM      2  C   UNL     1       2.678   0.484   2.468  0.00  0.00    +0.000 A 
ATOM      3  C   UNL     1       3.490   0.932   3.519  0.00  0.00    +0.000 A 
ATOM      4  C   UNL     1       4.715   1.568   3.254  0.00  0.00    +0.000 A 
ATOM      5  C   UNL     1       5.186   1.645   1.936  0.00  0.00    +0.000 A 
ATOM      6  C   UNL     1       4.340   1.226   0.899  0.00  0.00    +0.000 A 
ENDROOT
BRANCH   4   7
ATOM      7  N   UNL     1       5.343   2.201   4.338  0.00  0.00    +0.000 N 
ATOM      8  C   UNL     1       5.497   3.566   4.562  0.00  0.00    +0.000 C 
ATOM      9  O   UNL     1       5.870   3.892   5.690  0.00  0.00    +0.000 OA
ATOM     10  H   UNL     1       5.322   1.730   5.231  0.00  0.00    +0.000 HD
BRANCH   8  11
ATOM     11  C   UNL     1       5.106   4.606   3.539  0.00  0.00    +0.000 A 
ATOM     12  C   UNL     1       4.026   4.419   2.761  0.00  0.00    +0.000 A 
ATOM     13  N   UNL     1       3.632   5.297   1.789  0.00  0.00    +0.000 N 
ATOM     14  C   UNL     1       4.214   6.516   1.581  0.00  0.00    +0.000 A 
ATOM     15  O   UNL     1       3.855   7.269   0.687  0.00  0.00    +0.000 OA
ATOM     16  C   UNL     1       5.266   6.890   2.540  0.00  0.00    +0.000 A 
ATOM     17  C   UNL     1       5.760   8.197   2.551  0.00  0.00    +0.000 A 
ATOM     18  C   UNL     1       6.707   8.544   3.502  0.00  0.00    +0.000 A 
ATOM     19  C   UNL     1       7.134   7.564   4.381  0.00  0.00    +0.000 A 
ATOM     20  N   UNL     1       6.680   6.287   4.376  0.00  0.00    +0.000 NA
ATOM     21  C   UNL     1       5.725   5.955   3.472  0.00  0.00    +0.000 A 
ATOM     22  H   UNL     1       2.886   5.043   1.151  0.00  0.00    +0.000 HD
ENDBRANCH   8  11
ENDBRANCH   4   7
BRANCH   1  24
ATOM     23  C   UNL     1       1.205  -0.420   0.179  0.00  0.00    +0.000 C 
ATOM     24  O   UNL     1       2.427   0.282   0.021  0.00  0.00    +0.000 OA
ENDBRANCH   1  24
BRANCH   5  25
ATOM     25  O   UNL     1       6.463   2.116   1.710  0.00  0.00    +0.000 OA
BRANCH  25  26
ATOM     26  C   UNL     1       7.013   1.638   0.474  0.00  0.00    +0.000 C 
BRANCH  26  27
ATOM     27  C   UNL     1       8.514   1.690   0.388  0.00  0.00    +0.000 A 
ATOM     28  C   UNL     1       9.182   0.655  -0.291  0.00  0.00    +0.000 A 
ATOM     29  C   UNL     1      10.557   0.711  -0.501  0.00  0.00    +0.000 A 
ATOM     30  C   UNL     1      11.279   1.807  -0.044  0.00  0.00    +0.000 A 
ATOM     31  C   UNL     1      10.629   2.841   0.630  0.00  0.00    +0.000 A 
ATOM     32  C   UNL     1       9.249   2.786   0.847  0.00  0.00    +0.000 A 
ENDBRANCH  26  27
ENDBRANCH  25  26
ENDBRANCH   5  25
TORSDOF 6
