REMARK  Name = 
REMARK  4 active torsions:
REMARK  status: ('A' for Active; 'I' for Inactive)
REMARK    1  A    between atoms: C_2  and  C_4
REMARK    2  A    between atoms: C_5  and  N_6
REMARK    3  A    between atoms: C_7  and  C_9
REMARK    4  A    between atoms: C_11  and  C_12
REMARK                            x       y       z     vdW  Elec       q    Type
REMARK                         _______ _______ _______ _____ _____    ______ ____
ROOT
ATOM      1  N   UNL     1       5.197   0.775   1.610  0.00  0.00    +0.000 N 
ATOM      2  C   UNL     1       6.345   1.145   2.286  0.00  0.00    +0.000 C 
ATOM      3  O   UNL     1       6.959   0.424   3.066  0.00  0.00    +0.000 OA
ATOM      4  H   UNL     1       5.030   1.283   0.742  0.00  0.00    +0.000 HD
ENDROOT
BRANCH   1   6
ATOM      5  C   UNL     1       4.196  -1.167   0.557  0.00  0.00    +0.000 A 
ATOM      6  C   UNL     1       4.626  -0.487   1.685  0.00  0.00    +0.000 A 
ATOM      7  C   UNL     1       4.316  -1.314   2.803  0.00  0.00    +0.000 A 
ATOM      8  C   UNL     1       4.403  -1.215   4.207  0.00  0.00    +0.000 A 
ATOM      9  C   UNL     1       3.913  -2.270   4.995  0.00  0.00    +0.000 A 
ATOM     10  C   UNL     1       3.358  -3.411   4.411  0.00  0.00    +0.000 A 
ATOM     11  C   UNL     1       3.259  -3.531   3.022  0.00  0.00    +0.000 A 
ATOM     12  C   UNL     1       3.733  -2.459   2.266  0.00  0.00    +0.000 A 
ATOM     13  O   UNL     1       3.671  -2.377   0.907  0.00  0.00    +0.000 OA
BRANCH   5  15
ATOM     14  N   UNL     1       3.829  -1.726  -1.723  0.00  0.00    +0.000 N 
ATOM     15  C   UNL     1       4.296  -0.802  -0.839  0.00  0.00    +0.000 C 
ATOM     16  O   UNL     1       4.786   0.254  -1.233  0.00  0.00    +0.000 OA
ATOM     17  H   UNL     1       3.915  -1.536  -2.711  0.00  0.00    +0.000 HD
ATOM     18  H   UNL     1       3.445  -2.604  -1.402  0.00  0.00    +0.000 HD
ENDBRANCH   5  15
ENDBRANCH   1   6
BRANCH   2  19
ATOM     19  C   UNL     1       6.804   2.466   1.915  0.00  0.00    +0.000 A 
ATOM     20  C   UNL     1       7.953   3.172   2.188  0.00  0.00    +0.000 A 
ATOM     21  C   UNL     1       7.765   4.441   1.570  0.00  0.00    +0.000 A 
ATOM     22  N   UNL     1       6.588   4.464   0.927  0.00  0.00    +0.000 NA
ATOM     23  O   UNL     1       5.995   3.245   1.145  0.00  0.00    +0.000 OA
BRANCH  21  24
ATOM     24  C   UNL     1       8.652   5.596   1.562  0.00  0.00    +0.000 A 
ATOM     25  C   UNL     1      10.040   5.440   1.592  0.00  0.00    +0.000 A 
ATOM     26  F   UNL     1      10.592   4.218   1.621  0.00  0.00    +0.000 F 
ATOM     27  C   UNL     1      10.898   6.540   1.583  0.00  0.00    +0.000 A 
ATOM     28  C   UNL     1      10.363   7.818   1.533  0.00  0.00    +0.000 A 
ATOM     29  F   UNL     1      11.184   8.876   1.524  0.00  0.00    +0.000 F 
ATOM     30  C   UNL     1       8.994   8.014   1.508  0.00  0.00    +0.000 A 
ATOM     31  C   UNL     1       8.149   6.905   1.522  0.00  0.00    +0.000 A 
ATOM     32  F   UNL     1       6.828   7.138   1.526  0.00  0.00    +0.000 F 
ENDBRANCH  21  24
ENDBRANCH   2  19
TORSDOF 4
