REMARK  Name = 
REMARK  6 active torsions:
REMARK  status: ('A' for Active; 'I' for Inactive)
REMARK    1  A    between atoms: C_2  and  C_20
REMARK    2  A    between atoms: N_3  and  C_4
REMARK    3  A    between atoms: C_9  and  C_10
REMARK    4  A    between atoms: N_12  and  C_13
REMARK    5  A    between atoms: C_13  and  C_14
REMARK    6  A    between atoms: C_24  and  C_25
REMARK                            x       y       z     vdW  Elec       q    Type
REMARK                         _______ _______ _______ _____ _____    ______ ____
ROOT
ATOM      1  C   UNL     1       2.236  -2.442   0.493  0.00  0.00    +0.000 A 
ATOM      2  C   UNL     1       1.134  -2.777  -0.308  0.00  0.00    +0.000 A 
ATOM      3  C   UNL     1       0.536  -4.035  -0.202  0.00  0.00    +0.000 A 
ATOM      4  C   UNL     1       1.021  -4.962   0.717  0.00  0.00    +0.000 A 
ATOM      5  C   UNL     1       2.095  -4.626   1.540  0.00  0.00    +0.000 A 
ATOM      6  C   UNL     1       2.706  -3.366   1.442  0.00  0.00    +0.000 A 
ENDROOT
BRANCH   1   9
ATOM      7  O   UNL     1       1.047   0.133   0.591  0.00  0.00    +0.000 OA
ATOM      8  C   UNL     1       2.230  -0.006   0.309  0.00  0.00    +0.000 C 
ATOM      9  N   UNL     1       2.902  -1.217   0.247  0.00  0.00    +0.000 N 
ATOM     10  H   UNL     1       3.904  -1.202   0.417  0.00  0.00    +0.000 HD
BRANCH   8  11
ATOM     11  C   UNL     1       3.070   1.203   0.139  0.00  0.00    +0.000 A 
ATOM     12  C   UNL     1       2.772   2.344   0.887  0.00  0.00    +0.000 A 
ATOM     13  C   UNL     1       3.537   3.475   0.672  0.00  0.00    +0.000 A 
ATOM     14  N   UNL     1       4.534   3.539  -0.235  0.00  0.00    +0.000 NA
ATOM     15  C   UNL     1       4.787   2.424  -0.972  0.00  0.00    +0.000 A 
ATOM     16  C   UNL     1       4.097   1.233  -0.800  0.00  0.00    +0.000 A 
BRANCH  15  17
ATOM     17  C   UNL     1       5.810   2.543  -2.013  0.00  0.00    +0.000 A 
ATOM     18  N   UNL     1       6.180   1.504  -2.780  0.00  0.00    +0.000 NA
ATOM     19  N   UNL     1       7.085   2.010  -3.635  0.00  0.00    +0.000 N 
ATOM     20  C   UNL     1       7.334   3.342  -3.440  0.00  0.00    +0.000 A 
ATOM     21  C   UNL     1       6.520   3.725  -2.395  0.00  0.00    +0.000 A 
ATOM     22  H   UNL     1       7.505   1.401  -4.317  0.00  0.00    +0.000 HD
ENDBRANCH  15  17
ENDBRANCH   8  11
ENDBRANCH   1   9
BRANCH   6  23
ATOM     23  C   UNL     1       3.788  -3.078   2.425  0.00  0.00    +0.000 C 
ATOM     24  O   UNL     1       4.513  -3.982   2.819  0.00  0.00    +0.000 OA
ATOM     25  N   UNL     1       3.886  -1.776   2.878  0.00  0.00    +0.000 N 
ATOM     26  H   UNL     1       3.075  -1.180   2.766  0.00  0.00    +0.000 HD
BRANCH  25  27
ATOM     27  C   UNL     1       4.846  -1.411   3.898  0.00  0.00    +0.000 C 
BRANCH  27  28
ATOM     28  C   UNL     1       4.249  -1.466   5.279  0.00  0.00    +0.000 A 
ATOM     29  C   UNL     1       4.281  -2.662   6.011  0.00  0.00    +0.000 A 
ATOM     30  C   UNL     1       3.736  -2.725   7.294  0.00  0.00    +0.000 A 
ATOM     31  C   UNL     1       3.149  -1.594   7.857  0.00  0.00    +0.000 A 
ATOM     32  C   UNL     1       3.099  -0.402   7.135  0.00  0.00    +0.000 A 
ATOM     33  C   UNL     1       3.641  -0.339   5.849  0.00  0.00    +0.000 A 
ENDBRANCH  27  28
ENDBRANCH  25  27
ENDBRANCH   6  23
TORSDOF 6
