REMARK  Name = 
REMARK  6 active torsions:
REMARK  status: ('A' for Active; 'I' for Inactive)
REMARK    1  A    between atoms: C_2  and  N_3
REMARK    2  A    between atoms: C_2  and  C_18
REMARK    3  A    between atoms: S_4  and  C_6
REMARK    4  A    between atoms: S_4  and  C_12
REMARK    5  A    between atoms: C_18  and  C_19
REMARK    6  A    between atoms: C_18  and  N_25
REMARK                            x       y       z     vdW  Elec       q    Type
REMARK                         _______ _______ _______ _____ _____    ______ ____
ROOT
ATOM      1  N   UNL     1       2.936   0.013   1.293  0.00  0.00    +0.000 NA
ATOM      2  S   UNL     1       2.142   0.194   2.600  0.00  0.00    +0.000 S 
ATOM      3  O   UNL     1       1.303   1.338   2.902  0.00  0.00    +0.000 OA
ENDROOT
BRANCH   2   4
ATOM      4  C   UNL     1       3.330   0.160   3.936  0.00  0.00    +0.000 A 
ATOM      5  C   UNL     1       4.695   0.071   3.675  0.00  0.00    +0.000 A 
ATOM      6  C   UNL     1       5.550   0.053   4.761  0.00  0.00    +0.000 A 
ATOM      7  N   UNL     1       5.136   0.119   6.045  0.00  0.00    +0.000 NA
ATOM      8  C   UNL     1       3.806   0.226   6.260  0.00  0.00    +0.000 A 
ATOM      9  C   UNL     1       2.865   0.253   5.248  0.00  0.00    +0.000 A 
ENDBRANCH   2   4
BRANCH   2  10
ATOM     10  C   UNL     1       1.141  -1.275   2.796  0.00  0.00    +0.000 A 
ATOM     11  C   UNL     1       1.760  -2.523   2.916  0.00  0.00    +0.000 A 
ATOM     12  C   UNL     1       0.975  -3.659   3.120  0.00  0.00    +0.000 A 
ATOM     13  C   UNL     1      -0.415  -3.547   3.197  0.00  0.00    +0.000 A 
ATOM     14  C   UNL     1      -1.028  -2.301   3.057  0.00  0.00    +0.000 A 
ATOM     15  C   UNL     1      -0.252  -1.159   2.854  0.00  0.00    +0.000 A 
ENDBRANCH   2  10
BRANCH   1  17
ATOM     16  O   UNL     1       1.073   0.201  -0.064  0.00  0.00    +0.000 OA
ATOM     17  C   UNL     1       2.286   0.000   0.037  0.00  0.00    +0.000 C 
BRANCH  17  18
ATOM     18  C   UNL     1       3.110  -0.176  -1.245  0.00  0.00    +0.000 C 
BRANCH  18  19
ATOM     19  C   UNL     1       3.604   1.142  -1.839  0.00  0.00    +0.000 A 
ATOM     20  C   UNL     1       4.387   2.048  -1.104  0.00  0.00    +0.000 A 
ATOM     21  C   UNL     1       4.765   3.277  -1.649  0.00  0.00    +0.000 A 
ATOM     22  C   UNL     1       4.340   3.636  -2.925  0.00  0.00    +0.000 A 
ATOM     23  C   UNL     1       3.572   2.749  -3.674  0.00  0.00    +0.000 A 
ATOM     24  C   UNL     1       3.222   1.504  -3.144  0.00  0.00    +0.000 A 
ENDBRANCH  18  19
BRANCH  18  25
ATOM     25  N   UNL     1       4.140  -1.213  -1.097  0.00  0.00    +0.000 N 
ATOM     26  C   UNL     1       5.451  -1.102  -0.710  0.00  0.00    +0.000 A 
ATOM     27  C   UNL     1       5.979  -2.372  -0.725  0.00  0.00    +0.000 A 
ATOM     28  C   UNL     1       4.918  -3.191  -1.144  0.00  0.00    +0.000 A 
ATOM     29  N   UNL     1       3.801  -2.499  -1.373  0.00  0.00    +0.000 NA
ENDBRANCH  18  25
ENDBRANCH  17  18
ENDBRANCH   1  17
TORSDOF 6
