REMARK  Name = 
REMARK  6 active torsions:
REMARK  status: ('A' for Active; 'I' for Inactive)
REMARK    1  A    between atoms: C_1  and  O_2
REMARK    2  A    between atoms: O_2  and  C_3
REMARK    3  A    between atoms: C_6  and  N_7
REMARK    4  A    between atoms: C_8  and  C_10
REMARK    5  A    between atoms: C_22  and  C_23
REMARK    6  A    between atoms: C_23  and  C_25
REMARK                            x       y       z     vdW  Elec       q    Type
REMARK                         _______ _______ _______ _____ _____    ______ ____
ROOT
ATOM      1  C   UNL     1       3.038  -0.652   0.841  0.00  0.00    +0.000 A 
ATOM      2  C   UNL     1       2.669  -1.913   1.303  0.00  0.00    +0.000 A 
ATOM      3  C   UNL     1       3.418  -2.564   2.284  0.00  0.00    +0.000 A 
ATOM      4  C   UNL     1       4.574  -1.994   2.815  0.00  0.00    +0.000 A 
ATOM      5  C   UNL     1       4.934  -0.712   2.381  0.00  0.00    +0.000 A 
ATOM      6  C   UNL     1       4.150  -0.021   1.427  0.00  0.00    +0.000 A 
ENDROOT
BRANCH   4   7
ATOM      7  N   UNL     1       5.395  -2.661   3.762  0.00  0.00    +0.000 N 
ATOM      8  C   UNL     1       5.159  -3.929   4.276  0.00  0.00    +0.000 C 
ATOM      9  O   UNL     1       4.209  -4.659   4.005  0.00  0.00    +0.000 OA
ATOM     10  H   UNL     1       6.247  -2.175   4.014  0.00  0.00    +0.000 HD
BRANCH   8  11
ATOM     11  C   UNL     1       6.136  -4.497   5.233  0.00  0.00    +0.000 A 
ATOM     12  C   UNL     1       6.940  -3.730   6.066  0.00  0.00    +0.000 A 
ATOM     13  N   UNL     1       7.793  -4.258   6.981  0.00  0.00    +0.000 NA
ATOM     14  C   UNL     1       7.824  -5.617   7.085  0.00  0.00    +0.000 A 
ATOM     15  C   UNL     1       8.724  -6.235   8.087  0.00  0.00    +0.000 A 
ATOM     16  O   UNL     1       9.454  -5.573   8.816  0.00  0.00    +0.000 OA
ATOM     17  N   UNL     1       8.694  -7.615   8.151  0.00  0.00    +0.000 N 
ATOM     18  N   UNL     1       7.916  -8.442   7.392  0.00  0.00    +0.000 NA
ATOM     19  C   UNL     1       7.133  -7.887   6.518  0.00  0.00    +0.000 A 
ATOM     20  C   UNL     1       7.046  -6.449   6.310  0.00  0.00    +0.000 A 
ATOM     21  C   UNL     1       6.191  -5.893   5.367  0.00  0.00    +0.000 A 
ATOM     22  H   UNL     1       9.301  -8.061   8.830  0.00  0.00    +0.000 HD
ENDBRANCH   8  11
ENDBRANCH   4   7
BRANCH   1  24
ATOM     23  C   UNL     1       1.296  -0.691  -0.789  0.00  0.00    +0.000 C 
ATOM     24  O   UNL     1       2.381  -0.005  -0.171  0.00  0.00    +0.000 OA
ENDBRANCH   1  24
BRANCH   6  25
ATOM     25  C   UNL     1       4.574   1.364   1.068  0.00  0.00    +0.000 C 
ATOM     26  O   UNL     1       5.779   1.615   1.030  0.00  0.00    +0.000 OA
BRANCH  25  27
ATOM     27  C   UNL     1       3.597   2.465   0.815  0.00  0.00    +0.000 A 
ATOM     28  C   UNL     1       3.977   3.527  -0.018  0.00  0.00    +0.000 A 
ATOM     29  C   UNL     1       3.089   4.577  -0.273  0.00  0.00    +0.000 A 
ATOM     30  C   UNL     1       1.820   4.574   0.304  0.00  0.00    +0.000 A 
ATOM     31  C   UNL     1       1.441   3.531   1.148  0.00  0.00    +0.000 A 
ATOM     32  C   UNL     1       2.331   2.488   1.417  0.00  0.00    +0.000 A 
ENDBRANCH  25  27
ENDBRANCH   6  25
TORSDOF 5
