REMARK  Name = 
REMARK  8 active torsions:
REMARK  status: ('A' for Active; 'I' for Inactive)
REMARK    1  A    between atoms: C_2  and  C_4
REMARK    2  A    between atoms: C_4  and  N_5
REMARK    3  A    between atoms: N_5  and  C_6
REMARK    4  A    between atoms: N_5  and  C_18
REMARK    5  A    between atoms: C_6  and  C_7
REMARK    6  A    between atoms: C_7  and  C_9
REMARK    7  A    between atoms: C_18  and  C_19
REMARK    8  A    between atoms: C_22  and  C_23
REMARK                            x       y       z     vdW  Elec       q    Type
REMARK                         _______ _______ _______ _____ _____    ______ ____
ROOT
ATOM      1  N   UNL     1       4.458   0.682   0.703  0.00  0.00    +0.000 NA
ENDROOT
BRANCH   1   2
ATOM      2  C   UNL     1       4.745   1.027  -0.724  0.00  0.00    +0.000 C 
BRANCH   2   3
ATOM      3  C   UNL     1       6.216   0.832  -1.097  0.00  0.00    +0.000 C 
ATOM      4  O   UNL     1       6.888   1.813  -1.427  0.00  0.00    +0.000 OA
BRANCH   3   5
ATOM      5  C   UNL     1       6.817  -0.506  -1.024  0.00  0.00    +0.000 A 
ATOM      6  C   UNL     1       6.149  -1.710  -0.875  0.00  0.00    +0.000 A 
ATOM      7  N   UNL     1       7.077  -2.714  -0.785  0.00  0.00    +0.000 N 
ATOM      8  C   UNL     1       8.347  -2.198  -0.873  0.00  0.00    +0.000 A 
ATOM      9  C   UNL     1       9.590  -2.838  -0.796  0.00  0.00    +0.000 A 
ATOM     10  C   UNL     1      10.736  -2.046  -0.918  0.00  0.00    +0.000 A 
ATOM     11  C   UNL     1      10.640  -0.672  -1.126  0.00  0.00    +0.000 A 
ATOM     12  C   UNL     1       9.390  -0.052  -1.203  0.00  0.00    +0.000 A 
ATOM     13  C   UNL     1       8.215  -0.821  -1.060  0.00  0.00    +0.000 A 
ATOM     14  H   UNL     1       6.869  -3.695  -0.658  0.00  0.00    +0.000 HD
ENDBRANCH   3   5
ENDBRANCH   2   3
ENDBRANCH   1   2
BRANCH   1  15
ATOM     15  C   UNL     1       5.266   1.563   1.588  0.00  0.00    +0.000 C 
BRANCH  15  16
ATOM     16  C   UNL     1       5.079   1.283   3.065  0.00  0.00    +0.000 A 
ATOM     17  C   UNL     1       5.365   0.025   3.606  0.00  0.00    +0.000 A 
ATOM     18  C   UNL     1       5.151  -0.231   4.968  0.00  0.00    +0.000 A 
ATOM     19  C   UNL     1       4.671   0.764   5.839  0.00  0.00    +0.000 A 
ATOM     20  C   UNL     1       4.421   2.030   5.279  0.00  0.00    +0.000 A 
ATOM     21  C   UNL     1       4.612   2.286   3.917  0.00  0.00    +0.000 A 
BRANCH  19  22
ATOM     22  C   UNL     1       4.444   0.510   7.285  0.00  0.00    +0.000 A 
ATOM     23  C   UNL     1       5.226  -0.408   8.011  0.00  0.00    +0.000 A 
ATOM     24  C   UNL     1       5.030  -0.615   9.382  0.00  0.00    +0.000 A 
ATOM     25  C   UNL     1       4.052   0.101  10.064  0.00  0.00    +0.000 A 
ATOM     26  C   UNL     1       3.257   1.007   9.374  0.00  0.00    +0.000 A 
ATOM     27  C   UNL     1       3.444   1.197   8.002  0.00  0.00    +0.000 A 
ENDBRANCH  19  22
ENDBRANCH  15  16
ENDBRANCH   1  15
BRANCH   1  28
ATOM     28  C   UNL     1       3.011   0.905   0.984  0.00  0.00    +0.000 C 
BRANCH  28  30
ATOM     29  N   UNL     1       2.339  -1.329   0.234  0.00  0.00    +0.000 N 
ATOM     30  C   UNL     1       2.110   0.014   0.132  0.00  0.00    +0.000 C 
ATOM     31  O   UNL     1       1.213   0.446  -0.586  0.00  0.00    +0.000 OA
ATOM     32  H   UNL     1       1.793  -1.940  -0.356  0.00  0.00    +0.000 HD
ATOM     33  H   UNL     1       3.220  -1.651   0.617  0.00  0.00    +0.000 HD
ENDBRANCH  28  30
ENDBRANCH   1  28
TORSDOF 8
