REMARK  Name = 
REMARK  6 active torsions:
REMARK  status: ('A' for Active; 'I' for Inactive)
REMARK    1  A    between atoms: C_2  and  C_3
REMARK    2  A    between atoms: C_3  and  N_4
REMARK    3  A    between atoms: C_6  and  C_7
REMARK    4  A    between atoms: N_9  and  C_10
REMARK    5  A    between atoms: C_11  and  C_12
REMARK    6  A    between atoms: N_16  and  C_17
REMARK                            x       y       z     vdW  Elec       q    Type
REMARK                         _______ _______ _______ _____ _____    ______ ____
ROOT
ATOM      1  C   UNL     1       4.481   2.697   4.182  0.00  0.00    +0.000 C 
ATOM      2  O   UNL     1       4.975   2.499   5.294  0.00  0.00    +0.000 OA
ATOM      3  N   UNL     1       4.150   3.993   3.763  0.00  0.00    +0.000 N 
ATOM      4  H   UNL     1       3.338   4.033   3.160  0.00  0.00    +0.000 HD
ENDROOT
BRANCH   1   7
ATOM      5  N   UNL     1       3.404   0.323   1.574  0.00  0.00    +0.000 N 
ATOM      6  C   UNL     1       3.605   1.620   2.007  0.00  0.00    +0.000 A 
ATOM      7  C   UNL     1       4.142   1.585   3.288  0.00  0.00    +0.000 A 
ATOM      8  C   UNL     1       4.327   0.185   3.598  0.00  0.00    +0.000 A 
ATOM      9  C   UNL     1       4.853  -0.505   4.716  0.00  0.00    +0.000 A 
ATOM     10  C   UNL     1       4.854  -1.903   4.746  0.00  0.00    +0.000 A 
ATOM     11  C   UNL     1       4.334  -2.628   3.683  0.00  0.00    +0.000 A 
ATOM     12  C   UNL     1       3.820  -1.979   2.557  0.00  0.00    +0.000 A 
ATOM     13  C   UNL     1       3.837  -0.573   2.530  0.00  0.00    +0.000 A 
BRANCH   5  14
ATOM     14  C   UNL     1       2.712  -0.062   0.344  0.00  0.00    +0.000 C 
BRANCH  14  16
ATOM     15  N   UNL     1      -0.005  -0.285   0.895  0.00  0.00    +0.000 NA
ATOM     16  C   UNL     1       1.227  -0.184   0.645  0.00  0.00    +0.000 C 
ENDBRANCH  14  16
ENDBRANCH   5  14
ENDBRANCH   1   7
BRANCH   3  17
ATOM     17  C   UNL     1       4.468   5.121   4.527  0.00  0.00    +0.000 A 
ATOM     18  C   UNL     1       5.700   5.395   5.018  0.00  0.00    +0.000 A 
ATOM     19  C   UNL     1       5.939   6.509   5.963  0.00  0.00    +0.000 A 
ATOM     20  O   UNL     1       7.087   6.737   6.343  0.00  0.00    +0.000 OA
ATOM     21  N   UNL     1       4.798   7.251   6.324  0.00  0.00    +0.000 N 
ATOM     22  C   UNL     1       3.561   6.998   5.741  0.00  0.00    +0.000 A 
ATOM     23  C   UNL     1       3.377   6.008   4.858  0.00  0.00    +0.000 A 
BRANCH  21  24
ATOM     24  C   UNL     1       4.973   8.326   7.250  0.00  0.00    +0.000 A 
ATOM     25  C   UNL     1       4.467   9.595   6.950  0.00  0.00    +0.000 A 
ATOM     26  C   UNL     1       4.726  10.673   7.799  0.00  0.00    +0.000 A 
ATOM     27  C   UNL     1       5.454  10.480   8.973  0.00  0.00    +0.000 A 
ATOM     28  C   UNL     1       5.927   9.212   9.301  0.00  0.00    +0.000 A 
ATOM     29  C   UNL     1       5.697   8.141   8.437  0.00  0.00    +0.000 A 
ENDBRANCH  21  24
BRANCH  18  30
ATOM     30  C   UNL     1       6.863   4.476   4.684  0.00  0.00    +0.000 C 
ATOM     31  N   UNL     1       7.828   3.713   4.406  0.00  0.00    +0.000 NA
ENDBRANCH  18  30
ENDBRANCH   3  17
TORSDOF 6
