REMARK  Name = 
REMARK  9 active torsions:
REMARK  status: ('A' for Active; 'I' for Inactive)
REMARK    1  A    between atoms: C_2  and  C_3
REMARK    2  A    between atoms: C_3  and  O_4
REMARK    3  A    between atoms: O_4  and  C_5
REMARK    4  A    between atoms: C_9  and  O_10
REMARK    5  A    between atoms: O_10  and  C_11
REMARK    6  A    between atoms: N_18  and  C_19
REMARK    7  A    between atoms: C_19  and  C_20
REMARK    8  A    between atoms: C_20  and  C_21
REMARK    9  A    between atoms: C_23  and  C_24
REMARK                            x       y       z     vdW  Elec       q    Type
REMARK                         _______ _______ _______ _____ _____    ______ ____
ROOT
ATOM      1  O   UNL     1       0.955   0.085   0.025  0.00  0.00    +0.000 OA
ATOM      2  C   UNL     1       2.180   0.005  -0.013  0.00  0.00    +0.000 C 
ATOM      3  N   UNL     1       3.011   0.819   0.724  0.00  0.00    +0.000 N 
ATOM      4  H   UNL     1       4.016   0.669   0.693  0.00  0.00    +0.000 HD
ENDROOT
BRANCH   2   5
ATOM      5  C   UNL     1       2.911  -1.034  -0.864  0.00  0.00    +0.000 C 
BRANCH   5   6
ATOM      6  O   UNL     1       3.198  -0.523  -2.162  0.00  0.00    +0.000 OA
BRANCH   6   7
ATOM      7  C   UNL     1       3.794  -1.397  -3.038  0.00  0.00    +0.000 A 
ATOM      8  C   UNL     1       4.265  -2.671  -2.706  0.00  0.00    +0.000 A 
ATOM      9  C   UNL     1       4.897  -3.462  -3.666  0.00  0.00    +0.000 A 
ATOM     10  C   UNL     1       5.046  -2.995  -4.968  0.00  0.00    +0.000 A 
ATOM     11  C   UNL     1       4.518  -1.753  -5.329  0.00  0.00    +0.000 A 
ATOM     12  C   UNL     1       3.928  -0.940  -4.354  0.00  0.00    +0.000 A 
BRANCH  11  13
ATOM     13  O   UNL     1       4.604  -1.255  -6.612  0.00  0.00    +0.000 OA
BRANCH  13  14
ATOM     14  C   UNL     1       4.343  -2.132  -7.664  0.00  0.00    +0.000 A 
ATOM     15  C   UNL     1       4.892  -1.814  -8.897  0.00  0.00    +0.000 A 
ATOM     16  C   UNL     1       4.665  -2.683  -9.965  0.00  0.00    +0.000 A 
ATOM     17  C   UNL     1       3.900  -3.828  -9.764  0.00  0.00    +0.000 A 
ATOM     18  C   UNL     1       3.378  -4.052  -8.501  0.00  0.00    +0.000 A 
ATOM     19  N   UNL     1       3.571  -3.224  -7.455  0.00  0.00    +0.000 NA
ENDBRANCH  13  14
ENDBRANCH  11  13
ENDBRANCH   6   7
ENDBRANCH   5   6
ENDBRANCH   2   5
BRANCH   3  20
ATOM     20  C   UNL     1       2.532   1.838   1.642  0.00  0.00    +0.000 C 
BRANCH  20  21
ATOM     21  C   UNL     1       2.985   1.590   3.082  0.00  0.00    +0.000 C 
BRANCH  21  22
ATOM     22  C   UNL     1       4.482   1.609   3.209  0.00  0.00    +0.000 A 
ATOM     23  N   UNL     1       5.291   0.781   2.576  0.00  0.00    +0.000 NA
ATOM     24  C   UNL     1       6.607   1.020   2.948  0.00  0.00    +0.000 A 
ATOM     25  C   UNL     1       6.774   2.077   3.821  0.00  0.00    +0.000 A 
ATOM     26  S   UNL     1       5.252   2.752   4.230  0.00  0.00    +0.000 S 
BRANCH  24  27
ATOM     27  C   UNL     1       7.702   0.218   2.416  0.00  0.00    +0.000 A 
ATOM     28  C   UNL     1       7.583  -0.374   1.156  0.00  0.00    +0.000 A 
ATOM     29  C   UNL     1       8.645  -1.121   0.672  0.00  0.00    +0.000 A 
ATOM     30  N   UNL     1       9.792  -1.323   1.353  0.00  0.00    +0.000 NA
ATOM     31  C   UNL     1       9.880  -0.758   2.574  0.00  0.00    +0.000 A 
ATOM     32  C   UNL     1       8.877   0.010   3.142  0.00  0.00    +0.000 A 
ENDBRANCH  24  27
ENDBRANCH  21  22
ENDBRANCH  20  21
ENDBRANCH   3  20
TORSDOF 9
