REMARK  Name = 
REMARK  4 active torsions:
REMARK  status: ('A' for Active; 'I' for Inactive)
REMARK    1  A    between atoms: C_2  and  C_3
REMARK    2  A    between atoms: C_5  and  C_6
REMARK    3  A    between atoms: C_13  and  N_14
REMARK    4  A    between atoms: C_15  and  C_17
REMARK                            x       y       z     vdW  Elec       q    Type
REMARK                         _______ _______ _______ _____ _____    ______ ____
ROOT
ATOM      1  N   UNL     1       2.400   2.332   0.147  0.00  0.00    +0.000 N 
ATOM      2  C   UNL     1       3.765   2.407  -0.115  0.00  0.00    +0.000 C 
ATOM      3  O   UNL     1       4.584   1.505  -0.190  0.00  0.00    +0.000 OA
ATOM      4  H   UNL     1       1.905   3.219   0.062  0.00  0.00    +0.000 HD
ENDROOT
BRANCH   2   5
ATOM      5  C   UNL     1       4.173   3.769  -0.619  0.00  0.00    +0.000 A 
ATOM      6  N   UNL     1       3.263   4.717  -0.551  0.00  0.00    +0.000 NA
ATOM      7  N   UNL     1       3.336   5.668  -1.566  0.00  0.00    +0.000 N 
ATOM      8  C   UNL     1       3.681   5.064  -2.821  0.00  0.00    +0.000 A 
ATOM      9  C   UNL     1       2.777   4.994  -3.871  0.00  0.00    +0.000 A 
ATOM     10  C   UNL     1       3.097   4.227  -4.998  0.00  0.00    +0.000 A 
ATOM     11  C   UNL     1       4.329   3.560  -5.095  0.00  0.00    +0.000 A 
ATOM     12  C   UNL     1       5.226   3.585  -4.031  0.00  0.00    +0.000 A 
ATOM     13  C   UNL     1       4.853   4.294  -2.897  0.00  0.00    +0.000 A 
ATOM     14  C   UNL     1       5.352   3.932  -1.570  0.00  0.00    +0.000 A 
ATOM     15  O   UNL     1       6.513   3.767  -1.261  0.00  0.00    +0.000 OA
ATOM     16  H   UNL     1       4.052   6.377  -1.349  0.00  0.00    +0.000 HD
ENDBRANCH   2   5
BRANCH   1  21
ATOM     17  C   UNL     1      -0.524   0.057  -0.007  0.00  0.00    +0.000 A 
ATOM     18  C   UNL     1       0.109  -1.195  -0.006  0.00  0.00    +0.000 A 
ATOM     19  C   UNL     1       1.505  -1.302   0.104  0.00  0.00    +0.000 A 
ATOM     20  C   UNL     1       2.232  -0.109   0.229  0.00  0.00    +0.000 A 
ATOM     21  C   UNL     1       1.636   1.149   0.173  0.00  0.00    +0.000 A 
ATOM     22  C   UNL     1       0.245   1.232   0.079  0.00  0.00    +0.000 A 
BRANCH  19  23
ATOM     23  C   UNL     1       2.228  -2.594   0.091  0.00  0.00    +0.000 A 
ATOM     24  C   UNL     1       3.517  -2.695  -0.474  0.00  0.00    +0.000 A 
ATOM     25  C   UNL     1       4.251  -3.881  -0.429  0.00  0.00    +0.000 A 
ATOM     26  C   UNL     1       3.700  -5.010   0.165  0.00  0.00    +0.000 A 
ATOM     27  C   UNL     1       2.419  -4.948   0.707  0.00  0.00    +0.000 A 
ATOM     28  C   UNL     1       1.692  -3.752   0.674  0.00  0.00    +0.000 A 
ENDBRANCH  19  23
BRANCH  17  30
ATOM     29  N   UNL     1      -3.114   0.210  -0.174  0.00  0.00    +0.000 NA
ATOM     30  C   UNL     1      -1.954   0.142  -0.101  0.00  0.00    +0.000 C 
ENDBRANCH  17  30
ENDBRANCH   1  21
TORSDOF 4
