REMARK  Name = 
REMARK  6 active torsions:
REMARK  status: ('A' for Active; 'I' for Inactive)
REMARK    1  A    between atoms: C_1  and  S_2
REMARK    2  A    between atoms: S_2  and  C_5
REMARK    3  A    between atoms: C_8  and  C_9
REMARK    4  A    between atoms: C_17  and  O_18
REMARK    5  A    between atoms: O_18  and  C_19
REMARK    6  A    between atoms: C_19  and  C_20
REMARK                            x       y       z     vdW  Elec       q    Type
REMARK                         _______ _______ _______ _____ _____    ______ ____
ROOT
ATOM      1  C   UNL     1       4.078  -5.265  -2.598  0.00  0.00    +0.000 A 
ATOM      2  C   UNL     1       3.121  -5.989  -3.186  0.00  0.00    +0.000 A 
ATOM      3  C   UNL     1       3.469  -7.294  -3.763  0.00  0.00    +0.000 A 
ATOM      4  O   UNL     1       2.578  -7.962  -4.285  0.00  0.00    +0.000 OA
ATOM      5  N   UNL     1       4.801  -7.666  -3.660  0.00  0.00    +0.000 N 
ATOM      6  C   UNL     1       5.180  -8.910  -4.147  0.00  0.00    +0.000 A 
ATOM      7  C   UNL     1       6.443  -9.339  -4.082  0.00  0.00    +0.000 A 
ATOM      8  C   UNL     1       7.455  -8.492  -3.516  0.00  0.00    +0.000 A 
ATOM      9  C   UNL     1       7.175  -7.270  -3.040  0.00  0.00    +0.000 A 
ATOM     10  C   UNL     1       5.725  -6.802  -3.068  0.00  0.00    +0.000 A 
ATOM     11  N   UNL     1       5.391  -5.654  -2.558  0.00  0.00    +0.000 NA
ENDROOT
BRANCH   1  15
ATOM     12  C   UNL     1       3.180  -1.494  -0.735  0.00  0.00    +0.000 A 
ATOM     13  C   UNL     1       4.380  -1.661  -1.428  0.00  0.00    +0.000 A 
ATOM     14  C   UNL     1       4.660  -2.892  -2.034  0.00  0.00    +0.000 A 
ATOM     15  C   UNL     1       3.745  -3.961  -1.966  0.00  0.00    +0.000 A 
ATOM     16  C   UNL     1       2.554  -3.755  -1.252  0.00  0.00    +0.000 A 
ATOM     17  F   UNL     1       1.659  -4.745  -1.117  0.00  0.00    +0.000 F 
ATOM     18  C   UNL     1       2.259  -2.535  -0.649  0.00  0.00    +0.000 A 
BRANCH  12  20
ATOM     19  C   UNL     1       3.412  -0.039   1.633  0.00  0.00    +0.000 C 
ATOM     20  S   UNL     1       2.778   0.080  -0.018  0.00  0.00    +0.000 S 
ATOM     21  O   UNL     1       1.332   0.160   0.058  0.00  0.00    +0.000 OA
ATOM     22  O   UNL     1       3.542   1.087  -0.728  0.00  0.00    +0.000 OA
ENDBRANCH  12  20
ENDBRANCH   1  15
BRANCH   9  23
ATOM     23  O   UNL     1       8.223  -6.517  -2.525  0.00  0.00    +0.000 OA
BRANCH  23  24
ATOM     24  C   UNL     1       8.101  -5.099  -2.638  0.00  0.00    +0.000 C 
BRANCH  24  25
ATOM     25  C   UNL     1       9.459  -4.433  -2.668  0.00  0.00    +0.000 A 
ATOM     26  C   UNL     1       9.619  -3.232  -3.380  0.00  0.00    +0.000 A 
ATOM     27  C   UNL     1      10.844  -2.564  -3.387  0.00  0.00    +0.000 A 
ATOM     28  C   UNL     1      11.922  -3.082  -2.673  0.00  0.00    +0.000 A 
ATOM     29  C   UNL     1      11.775  -4.266  -1.952  0.00  0.00    +0.000 A 
ATOM     30  C   UNL     1      10.549  -4.935  -1.944  0.00  0.00    +0.000 A 
ENDBRANCH  24  25
ENDBRANCH  23  24
ENDBRANCH   9  23
TORSDOF 5
