REMARK  Name = 
REMARK  7 active torsions:
REMARK  status: ('A' for Active; 'I' for Inactive)
REMARK    1  A    between atoms: C_2  and  C_3
REMARK    2  A    between atoms: C_3  and  C_4
REMARK    3  A    between atoms: C_4  and  O_5
REMARK    4  A    between atoms: C_4  and  C_6
REMARK    5  A    between atoms: C_6  and  C_7
REMARK    6  A    between atoms: N_13  and  C_14
REMARK    7  A    between atoms: N_20  and  C_21
REMARK                            x       y       z     vdW  Elec       q    Type
REMARK                         _______ _______ _______ _____ _____    ______ ____
ROOT
ATOM      1  C   UNL     1       4.782  -1.131  -0.895  0.00  0.00    +0.000 A 
ATOM      2  C   UNL     1       4.684  -1.131   0.499  0.00  0.00    +0.000 A 
ATOM      3  C   UNL     1       5.760  -0.760   1.283  0.00  0.00    +0.000 A 
ATOM      4  C   UNL     1       6.983  -0.493   0.691  0.00  0.00    +0.000 A 
ATOM      5  N   UNL     1       7.931   0.221   1.414  0.00  0.00    +0.000 NA
ATOM      6  C   UNL     1       9.157   0.020   1.074  0.00  0.00    +0.000 A 
ATOM      7  N   UNL     1       9.545  -0.876   0.124  0.00  0.00    +0.000 N 
ATOM      8  C   UNL     1       8.655  -1.184  -0.934  0.00  0.00    +0.000 A 
ATOM      9  O   UNL     1       8.961  -1.723  -1.995  0.00  0.00    +0.000 OA
ATOM     10  C   UNL     1       7.202  -0.877  -0.629  0.00  0.00    +0.000 A 
ATOM     11  C   UNL     1       6.080  -1.089  -1.471  0.00  0.00    +0.000 A 
ENDROOT
BRANCH   7  12
ATOM     12  C   UNL     1      10.588  -1.782   0.553  0.00  0.00    +0.000 A 
ATOM     13  C   UNL     1      11.467  -2.438  -0.300  0.00  0.00    +0.000 A 
ATOM     14  C   UNL     1      12.358  -3.397   0.217  0.00  0.00    +0.000 A 
ATOM     15  C   UNL     1      12.358  -3.731   1.574  0.00  0.00    +0.000 A 
ATOM     16  C   UNL     1      11.514  -3.061   2.445  0.00  0.00    +0.000 A 
ATOM     17  C   UNL     1      10.660  -2.085   1.942  0.00  0.00    +0.000 A 
ENDBRANCH   7  12
BRANCH   1  20
ATOM     18  O   UNL     1       2.215  -2.337  -0.325  0.00  0.00    +0.000 OA
ATOM     19  C   UNL     1       2.341  -1.468  -1.195  0.00  0.00    +0.000 C 
ATOM     20  N   UNL     1       3.579  -1.046  -1.664  0.00  0.00    +0.000 N 
ATOM     21  H   UNL     1       3.605  -0.531  -2.543  0.00  0.00    +0.000 HD
BRANCH  19  22
ATOM     22  C   UNL     1       1.061  -0.941  -1.845  0.00  0.00    +0.000 C 
BRANCH  22  23
ATOM     23  C   UNL     1       1.061   0.449  -2.478  0.00  0.00    +0.000 C 
BRANCH  23  24
ATOM     24  O   UNL     1       1.998   0.416  -3.559  0.00  0.00    +0.000 OA
ATOM     25  H   UNL     1       1.524   0.096  -4.350  0.00  0.00    +0.000 HD
ENDBRANCH  23  24
BRANCH  23  26
ATOM     26  C   UNL     1      -0.368   0.813  -2.990  0.00  0.00    +0.000 C 
BRANCH  26  27
ATOM     27  C   UNL     1      -0.581   2.137  -3.709  0.00  0.00    +0.000 A 
ATOM     28  C   UNL     1       0.427   3.104  -3.834  0.00  0.00    +0.000 A 
ATOM     29  C   UNL     1       0.190   4.298  -4.523  0.00  0.00    +0.000 A 
ATOM     30  C   UNL     1      -1.060   4.546  -5.102  0.00  0.00    +0.000 A 
ATOM     31  C   UNL     1      -2.073   3.608  -4.975  0.00  0.00    +0.000 A 
ATOM     32  C   UNL     1      -1.839   2.409  -4.278  0.00  0.00    +0.000 A 
ENDBRANCH  26  27
ENDBRANCH  23  26
ENDBRANCH  22  23
ENDBRANCH  19  22
ENDBRANCH   1  20
TORSDOF 7
