REMARK  Name = 
REMARK  6 active torsions:
REMARK  status: ('A' for Active; 'I' for Inactive)
REMARK    1  A    between atoms: C_1  and  O_2
REMARK    2  A    between atoms: O_2  and  C_3
REMARK    3  A    between atoms: C_7  and  C_8
REMARK    4  A    between atoms: C_11  and  C_12
REMARK    5  A    between atoms: N_14  and  C_15
REMARK    6  A    between atoms: N_17  and  C_18
REMARK                            x       y       z     vdW  Elec       q    Type
REMARK                         _______ _______ _______ _____ _____    ______ ____
ROOT
ATOM      1  C   UNL     1       9.963  -4.258  -0.459  0.00  0.00    +0.000 C 
ATOM      2  O   UNL     1      10.946  -3.634  -0.850  0.00  0.00    +0.000 OA
ATOM      3  N   UNL     1       9.997  -5.455   0.250  0.00  0.00    +0.000 N 
ATOM      4  H   UNL     1       9.116  -5.928   0.421  0.00  0.00    +0.000 HD
ENDROOT
BRANCH   1   8
ATOM      5  C   UNL     1       6.154  -2.673  -1.361  0.00  0.00    +0.000 A 
ATOM      6  C   UNL     1       7.347  -2.147  -1.830  0.00  0.00    +0.000 A 
ATOM      7  N   UNL     1       8.562  -2.647  -1.569  0.00  0.00    +0.000 NA
ATOM      8  C   UNL     1       8.596  -3.738  -0.783  0.00  0.00    +0.000 A 
ATOM      9  N   UNL     1       7.521  -4.370  -0.263  0.00  0.00    +0.000 NA
ATOM     10  C   UNL     1       6.323  -3.804  -0.569  0.00  0.00    +0.000 A 
BRANCH   5  15
ATOM     11  C   UNL     1       2.678  -1.187  -0.963  0.00  0.00    +0.000 A 
ATOM     12  C   UNL     1       2.526  -0.536  -2.187  0.00  0.00    +0.000 A 
ATOM     13  C   UNL     1       3.514  -0.646  -3.161  0.00  0.00    +0.000 A 
ATOM     14  C   UNL     1       4.663  -1.392  -2.905  0.00  0.00    +0.000 A 
ATOM     15  C   UNL     1       4.868  -2.027  -1.665  0.00  0.00    +0.000 A 
ATOM     16  C   UNL     1       3.837  -1.935  -0.715  0.00  0.00    +0.000 A 
BRANCH  11  18
ATOM     17  C   UNL     1       0.670  -0.280  -0.083  0.00  0.00    +0.000 C 
ATOM     18  O   UNL     1       1.780  -1.158   0.069  0.00  0.00    +0.000 OA
ENDBRANCH  11  18
ENDBRANCH   5  15
ENDBRANCH   1   8
BRANCH   3  19
ATOM     19  C   UNL     1      11.179  -6.063   0.635  0.00  0.00    +0.000 A 
ATOM     20  C   UNL     1      12.432  -5.507   0.616  0.00  0.00    +0.000 A 
ATOM     21  N   UNL     1      13.333  -6.448   1.041  0.00  0.00    +0.000 N 
ATOM     22  N   UNL     1      12.696  -7.617   1.349  0.00  0.00    +0.000 NA
ATOM     23  C   UNL     1      11.402  -7.360   1.130  0.00  0.00    +0.000 A 
BRANCH  21  24
ATOM     24  C   UNL     1      14.742  -6.315   1.159  0.00  0.00    +0.000 A 
ATOM     25  C   UNL     1      15.525  -7.449   1.424  0.00  0.00    +0.000 A 
ATOM     26  C   UNL     1      16.916  -7.339   1.523  0.00  0.00    +0.000 A 
ATOM     27  C   UNL     1      17.538  -6.101   1.369  0.00  0.00    +0.000 A 
ATOM     28  C   UNL     1      16.767  -4.970   1.114  0.00  0.00    +0.000 A 
ATOM     29  C   UNL     1      15.383  -5.076   1.010  0.00  0.00    +0.000 A 
ATOM     30  F   UNL     1      14.708  -3.939   0.800  0.00  0.00    +0.000 F 
ENDBRANCH  21  24
ENDBRANCH   3  19
TORSDOF 5
