REMARK  Name = 
REMARK  9 active torsions:
REMARK  status: ('A' for Active; 'I' for Inactive)
REMARK    1  A    between atoms: C_2  and  C_3
REMARK    2  A    between atoms: C_2  and  O_18
REMARK    3  A    between atoms: C_3  and  O_4
REMARK    4  A    between atoms: O_4  and  C_5
REMARK    5  A    between atoms: C_9  and  O_10
REMARK    6  A    between atoms: O_10  and  C_11
REMARK    7  A    between atoms: O_18  and  C_19
REMARK    8  A    between atoms: C_19  and  C_20
REMARK    9  A    between atoms: C_22  and  C_23
REMARK                            x       y       z     vdW  Elec       q    Type
REMARK                         _______ _______ _______ _____ _____    ______ ____
ROOT
ATOM      1  O   UNL     1       2.018  -1.205  -0.213  0.00  0.00    +0.000 OA
ATOM      2  C   UNL     1       2.226  -0.014  -0.018  0.00  0.00    +0.000 C 
ENDROOT
BRANCH   2   3
ATOM      3  O   UNL     1       1.792   0.996  -0.819  0.00  0.00    +0.000 OA
BRANCH   3   4
ATOM      4  C   UNL     1       1.039   0.612  -1.974  0.00  0.00    +0.000 C 
BRANCH   4   5
ATOM      5  C   UNL     1      -0.272   1.294  -1.869  0.00  0.00    +0.000 A 
ATOM      6  C   UNL     1      -0.904   2.221  -2.666  0.00  0.00    +0.000 A 
ATOM      7  C   UNL     1      -2.146   2.496  -2.030  0.00  0.00    +0.000 A 
ATOM      8  N   UNL     1      -2.264   1.773  -0.903  0.00  0.00    +0.000 NA
ATOM      9  N   UNL     1      -1.137   1.052  -0.839  0.00  0.00    +0.000 N 
ATOM     10  H   UNL     1      -1.014   0.418  -0.056  0.00  0.00    +0.000 HD
BRANCH   7  11
ATOM     11  C   UNL     1      -3.191   3.418  -2.465  0.00  0.00    +0.000 A 
ATOM     12  C   UNL     1      -3.411   3.664  -3.822  0.00  0.00    +0.000 A 
ATOM     13  C   UNL     1      -4.411   4.555  -4.176  0.00  0.00    +0.000 A 
ATOM     14  N   UNL     1      -5.185   5.211  -3.287  0.00  0.00    +0.000 NA
ATOM     15  C   UNL     1      -4.957   4.955  -1.981  0.00  0.00    +0.000 A 
ATOM     16  C   UNL     1      -3.988   4.078  -1.526  0.00  0.00    +0.000 A 
ENDBRANCH   7  11
ENDBRANCH   4   5
ENDBRANCH   3   4
ENDBRANCH   2   3
BRANCH   2  17
ATOM     17  C   UNL     1       2.997   0.534   1.168  0.00  0.00    +0.000 C 
BRANCH  17  18
ATOM     18  O   UNL     1       2.102   0.841   2.231  0.00  0.00    +0.000 OA
BRANCH  18  19
ATOM     19  C   UNL     1       2.669   1.281   3.400  0.00  0.00    +0.000 A 
ATOM     20  C   UNL     1       4.039   1.441   3.626  0.00  0.00    +0.000 A 
ATOM     21  C   UNL     1       4.501   1.871   4.871  0.00  0.00    +0.000 A 
ATOM     22  C   UNL     1       3.599   2.158   5.892  0.00  0.00    +0.000 A 
ATOM     23  C   UNL     1       2.226   2.064   5.660  0.00  0.00    +0.000 A 
ATOM     24  C   UNL     1       1.766   1.590   4.426  0.00  0.00    +0.000 A 
BRANCH  23  25
ATOM     25  O   UNL     1       1.276   2.352   6.618  0.00  0.00    +0.000 OA
BRANCH  25  26
ATOM     26  C   UNL     1       1.500   3.441   7.458  0.00  0.00    +0.000 A 
ATOM     27  C   UNL     1       0.858   3.424   8.687  0.00  0.00    +0.000 A 
ATOM     28  C   UNL     1       1.081   4.483   9.565  0.00  0.00    +0.000 A 
ATOM     29  C   UNL     1       1.928   5.519   9.183  0.00  0.00    +0.000 A 
ATOM     30  C   UNL     1       2.503   5.463   7.925  0.00  0.00    +0.000 A 
ATOM     31  N   UNL     1       2.297   4.457   7.051  0.00  0.00    +0.000 NA
ENDBRANCH  25  26
ENDBRANCH  23  25
ENDBRANCH  18  19
ENDBRANCH  17  18
ENDBRANCH   2  17
TORSDOF 9
