REMARK  Name = 
REMARK  5 active torsions:
REMARK  status: ('A' for Active; 'I' for Inactive)
REMARK    1  A    between atoms: C_2  and  C_17
REMARK    2  A    between atoms: N_3  and  C_4
REMARK    3  A    between atoms: C_10  and  C_11
REMARK    4  A    between atoms: C_21  and  O_22
REMARK    5  A    between atoms: O_22  and  C_23
REMARK                            x       y       z     vdW  Elec       q    Type
REMARK                         _______ _______ _______ _____ _____    ______ ____
ROOT
ATOM      1  O   UNL     1       0.935   0.156   0.126  0.00  0.00    +0.000 OA
ATOM      2  C   UNL     1       2.159   0.103   0.078  0.00  0.00    +0.000 C 
ATOM      3  N   UNL     1       2.896  -1.050  -0.159  0.00  0.00    +0.000 N 
ATOM      4  H   UNL     1       3.873  -0.909  -0.418  0.00  0.00    +0.000 HD
ENDROOT
BRANCH   3   5
ATOM      5  C   UNL     1       2.275  -2.296  -0.400  0.00  0.00    +0.000 A 
ATOM      6  C   UNL     1       1.295  -2.745   0.497  0.00  0.00    +0.000 A 
ATOM      7  C   UNL     1       0.688  -3.983   0.310  0.00  0.00    +0.000 A 
ATOM      8  F   UNL     1      -0.219  -4.414   1.196  0.00  0.00    +0.000 F 
ATOM      9  C   UNL     1       1.017  -4.782  -0.775  0.00  0.00    +0.000 A 
ATOM     10  C   UNL     1       1.991  -4.348  -1.675  0.00  0.00    +0.000 A 
ATOM     11  C   UNL     1       2.640  -3.112  -1.486  0.00  0.00    +0.000 A 
BRANCH  11  12
ATOM     12  C   UNL     1       3.613  -2.711  -2.518  0.00  0.00    +0.000 A 
ATOM     13  N   UNL     1       4.313  -3.537  -3.244  0.00  0.00    +0.000 NA
ATOM     14  N   UNL     1       5.044  -2.716  -4.062  0.00  0.00    +0.000 N 
ATOM     15  C   UNL     1       4.735  -1.385  -3.822  0.00  0.00    +0.000 A 
ATOM     16  O   UNL     1       5.165  -0.406  -4.401  0.00  0.00    +0.000 OA
ATOM     17  N   UNL     1       3.823  -1.402  -2.814  0.00  0.00    +0.000 N 
ATOM     18  H   UNL     1       5.670  -3.063  -4.774  0.00  0.00    +0.000 HD
ATOM     19  H   UNL     1       3.354  -0.585  -2.466  0.00  0.00    +0.000 HD
ENDBRANCH  11  12
ENDBRANCH   3   5
BRANCH   2  20
ATOM     20  C   UNL     1       2.968   1.355   0.179  0.00  0.00    +0.000 A 
ATOM     21  C   UNL     1       2.327   2.564   0.424  0.00  0.00    +0.000 A 
ATOM     22  C   UNL     1       3.104   3.712   0.521  0.00  0.00    +0.000 A 
ATOM     23  C   UNL     1       4.484   3.610   0.385  0.00  0.00    +0.000 A 
ATOM     24  C   UNL     1       5.035   2.355   0.158  0.00  0.00    +0.000 A 
ATOM     25  N   UNL     1       4.308   1.221   0.015  0.00  0.00    +0.000 NA
BRANCH  24  26
ATOM     26  O   UNL     1       6.420   2.297   0.071  0.00  0.00    +0.000 OA
BRANCH  26  27
ATOM     27  C   UNL     1       7.035   1.167   0.560  0.00  0.00    +0.000 A 
ATOM     28  C   UNL     1       8.155   0.710  -0.136  0.00  0.00    +0.000 A 
ATOM     29  C   UNL     1       8.832  -0.427   0.306  0.00  0.00    +0.000 A 
ATOM     30  C   UNL     1       8.398  -1.101   1.448  0.00  0.00    +0.000 A 
ATOM     31  C   UNL     1       7.302  -0.624   2.165  0.00  0.00    +0.000 A 
ATOM     32  C   UNL     1       6.632   0.520   1.733  0.00  0.00    +0.000 A 
ENDBRANCH  26  27
ENDBRANCH  24  26
ENDBRANCH   2  20
TORSDOF 5
