REMARK  Name = 
REMARK  4 active torsions:
REMARK  status: ('A' for Active; 'I' for Inactive)
REMARK    1  A    between atoms: C_2  and  C_18
REMARK    2  A    between atoms: N_3  and  C_4
REMARK    3  A    between atoms: C_7  and  O_8
REMARK    4  A    between atoms: O_8  and  C_9
REMARK                            x       y       z     vdW  Elec       q    Type
REMARK                         _______ _______ _______ _____ _____    ______ ____
ROOT
ATOM      1  O   UNL     1       1.258   0.584  -0.697  0.00  0.00    +0.000 OA
ATOM      2  C   UNL     1       2.349   0.157  -0.339  0.00  0.00    +0.000 C 
ATOM      3  N   UNL     1       2.839  -1.123  -0.527  0.00  0.00    +0.000 N 
ATOM      4  H   UNL     1       3.672  -1.394  -0.018  0.00  0.00    +0.000 HD
ENDROOT
BRANCH   2   5
ATOM      5  C   UNL     1       3.212   1.059   0.459  0.00  0.00    +0.000 A 
ATOM      6  C   UNL     1       2.589   2.018   1.275  0.00  0.00    +0.000 A 
ATOM      7  C   UNL     1       3.352   2.874   2.070  0.00  0.00    +0.000 A 
ATOM      8  C   UNL     1       4.739   2.755   2.040  0.00  0.00    +0.000 A 
ATOM      9  C   UNL     1       5.588   3.602   2.874  0.00  0.00    +0.000 A 
ATOM     10  N   UNL     1       6.880   3.517   2.910  0.00  0.00    +0.000 NA
ATOM     11  N   UNL     1       7.474   2.581   2.108  0.00  0.00    +0.000 N 
ATOM     12  C   UNL     1       6.829   1.718   1.253  0.00  0.00    +0.000 A 
ATOM     13  O   UNL     1       7.415   0.904   0.556  0.00  0.00    +0.000 OA
ATOM     14  C   UNL     1       5.362   1.819   1.223  0.00  0.00    +0.000 A 
ATOM     15  C   UNL     1       4.606   0.972   0.413  0.00  0.00    +0.000 A 
ATOM     16  H   UNL     1       8.488   2.522   2.159  0.00  0.00    +0.000 HD
ENDBRANCH   2   5
BRANCH   3  17
ATOM     17  C   UNL     1       2.146  -2.165  -1.176  0.00  0.00    +0.000 A 
ATOM     18  C   UNL     1       1.031  -1.962  -1.986  0.00  0.00    +0.000 A 
ATOM     19  C   UNL     1       0.361  -3.052  -2.533  0.00  0.00    +0.000 A 
ATOM     20  C   UNL     1       0.850  -4.317  -2.266  0.00  0.00    +0.000 A 
ATOM     21  N   UNL     1       1.935  -4.557  -1.493  0.00  0.00    +0.000 NA
ATOM     22  C   UNL     1       2.568  -3.478  -0.988  0.00  0.00    +0.000 A 
BRANCH  20  23
ATOM     23  O   UNL     1       0.162  -5.382  -2.828  0.00  0.00    +0.000 OA
BRANCH  23  24
ATOM     24  C   UNL     1       0.895  -6.494  -3.174  0.00  0.00    +0.000 A 
ATOM     25  C   UNL     1       2.188  -6.429  -3.701  0.00  0.00    +0.000 A 
ATOM     26  C   UNL     1       2.848  -7.602  -4.034  0.00  0.00    +0.000 A 
ATOM     27  F   UNL     1       4.100  -7.539  -4.504  0.00  0.00    +0.000 F 
ATOM     28  C   UNL     1       2.229  -8.838  -3.889  0.00  0.00    +0.000 A 
ATOM     29  C   UNL     1       0.925  -8.903  -3.397  0.00  0.00    +0.000 A 
ATOM     30  C   UNL     1       0.257  -7.729  -3.041  0.00  0.00    +0.000 A 
ENDBRANCH  23  24
ENDBRANCH  20  23
ENDBRANCH   3  17
TORSDOF 4
