REMARK  Name = 
REMARK  7 active torsions:
REMARK  status: ('A' for Active; 'I' for Inactive)
REMARK    1  A    between atoms: C_1  and  O_2
REMARK    2  A    between atoms: O_2  and  C_3
REMARK    3  A    between atoms: C_7  and  C_8
REMARK    4  A    between atoms: N_10  and  C_11
REMARK    5  A    between atoms: C_11  and  C_12
REMARK    6  A    between atoms: C_17  and  O_18
REMARK    7  A    between atoms: O_18  and  C_19
REMARK                            x       y       z     vdW  Elec       q    Type
REMARK                         _______ _______ _______ _____ _____    ______ ____
ROOT
ATOM      1  C   UNL     1       6.242   5.333  -0.083  0.00  0.00    +0.000 C 
ATOM      2  O   UNL     1       6.381   4.844  -1.203  0.00  0.00    +0.000 OA
ATOM      3  N   UNL     1       6.997   6.396   0.351  0.00  0.00    +0.000 N 
ATOM      4  H   UNL     1       6.958   6.716   1.306  0.00  0.00    +0.000 HD
ENDROOT
BRANCH   1   9
ATOM      5  C   UNL     1       3.584   0.798   0.746  0.00  0.00    +0.000 A 
ATOM      6  C   UNL     1       4.714   1.109  -0.007  0.00  0.00    +0.000 A 
ATOM      7  C   UNL     1       5.269   2.395   0.028  0.00  0.00    +0.000 A 
ATOM      8  C   UNL     1       4.706   3.399   0.826  0.00  0.00    +0.000 A 
ATOM      9  C   UNL     1       5.218   4.792   0.878  0.00  0.00    +0.000 A 
ATOM     10  C   UNL     1       4.628   5.656   1.725  0.00  0.00    +0.000 A 
ATOM     11  C   UNL     1       3.520   5.264   2.616  0.00  0.00    +0.000 A 
ATOM     12  O   UNL     1       3.045   6.064   3.413  0.00  0.00    +0.000 OA
ATOM     13  N   UNL     1       3.047   3.994   2.488  0.00  0.00    +0.000 N 
ATOM     14  C   UNL     1       3.599   3.049   1.616  0.00  0.00    +0.000 A 
ATOM     15  C   UNL     1       3.035   1.767   1.581  0.00  0.00    +0.000 A 
ATOM     16  H   UNL     1       2.272   3.748   3.090  0.00  0.00    +0.000 HD
BRANCH   5  18
ATOM     17  C   UNL     1       1.737  -0.673   0.830  0.00  0.00    +0.000 C 
ATOM     18  O   UNL     1       3.135  -0.489   0.633  0.00  0.00    +0.000 OA
ENDBRANCH   5  18
ENDBRANCH   1   9
BRANCH   3  19
ATOM     19  C   UNL     1       7.970   7.034  -0.508  0.00  0.00    +0.000 C 
BRANCH  19  20
ATOM     20  C   UNL     1       9.363   6.486  -0.338  0.00  0.00    +0.000 A 
ATOM     21  C   UNL     1       9.916   5.726  -1.386  0.00  0.00    +0.000 A 
ATOM     22  C   UNL     1      11.237   5.281  -1.334  0.00  0.00    +0.000 A 
ATOM     23  C   UNL     1      12.016   5.554  -0.216  0.00  0.00    +0.000 A 
ATOM     24  C   UNL     1      11.468   6.255   0.856  0.00  0.00    +0.000 A 
ATOM     25  C   UNL     1      10.155   6.751   0.793  0.00  0.00    +0.000 A 
BRANCH  25  26
ATOM     26  O   UNL     1       9.597   7.447   1.852  0.00  0.00    +0.000 OA
BRANCH  26  27
ATOM     27  C   UNL     1      10.422   8.348   2.518  0.00  0.00    +0.000 A 
ATOM     28  C   UNL     1      10.268   8.469   3.893  0.00  0.00    +0.000 A 
ATOM     29  C   UNL     1      11.095   9.363   4.572  0.00  0.00    +0.000 A 
ATOM     30  C   UNL     1      12.039  10.096   3.859  0.00  0.00    +0.000 A 
ATOM     31  C   UNL     1      12.111   9.913   2.488  0.00  0.00    +0.000 A 
ATOM     32  N   UNL     1      11.312   9.072   1.801  0.00  0.00    +0.000 NA
ENDBRANCH  26  27
ENDBRANCH  25  26
ENDBRANCH  19  20
ENDBRANCH   3  19
TORSDOF 6
