REMARK  Name = 
REMARK  4 active torsions:
REMARK  status: ('A' for Active; 'I' for Inactive)
REMARK    1  A    between atoms: C_2  and  C_18
REMARK    2  A    between atoms: N_3  and  C_4
REMARK    3  A    between atoms: N_6  and  C_7
REMARK    4  A    between atoms: C_7  and  C_8
REMARK                            x       y       z     vdW  Elec       q    Type
REMARK                         _______ _______ _______ _____ _____    ______ ____
ROOT
ATOM      1  O   UNL     1       3.628   2.642  -0.143  0.00  0.00    +0.000 OA
ATOM      2  C   UNL     1       3.602   1.426  -0.242  0.00  0.00    +0.000 C 
ATOM      3  N   UNL     1       2.939   0.737  -1.220  0.00  0.00    +0.000 N 
ATOM      4  H   UNL     1       3.368  -0.137  -1.510  0.00  0.00    +0.000 HD
ENDROOT
BRANCH   2   5
ATOM      5  C   UNL     1       4.171   0.377   0.644  0.00  0.00    +0.000 A 
ATOM      6  C   UNL     1       4.250   0.790   2.305  0.00  0.00    +0.000 A 
ATOM      7  C   UNL     1       5.385   0.597   2.967  0.00  0.00    +0.000 A 
ATOM      8  N   UNL     1       5.838   0.114   1.934  0.00  0.00    +0.000 NA
ATOM      9  C   UNL     1       6.339  -0.395   0.879  0.00  0.00    +0.000 A 
ATOM     10  C   UNL     1       7.624  -0.651   1.133  0.00  0.00    +0.000 A 
ATOM     11  C   UNL     1       8.469  -0.817   0.106  0.00  0.00    +0.000 A 
ATOM     12  C   UNL     1       7.900  -0.937  -1.141  0.00  0.00    +0.000 A 
ATOM     13  F   UNL     1       8.754  -1.276  -2.116  0.00  0.00    +0.000 F 
ATOM     14  C   UNL     1       6.468  -0.753  -1.337  0.00  0.00    +0.000 A 
ATOM     15  C   UNL     1       5.503  -0.269  -0.171  0.00  0.00    +0.000 A 
ENDBRANCH   2   5
BRANCH   3  16
ATOM     16  C   UNL     1       2.246   1.408  -2.163  0.00  0.00    +0.000 A 
ATOM     17  C   UNL     1       1.233   2.221  -1.859  0.00  0.00    +0.000 A 
ATOM     18  N   UNL     1       0.372   2.696  -2.825  0.00  0.00    +0.000 N 
ATOM     19  C   UNL     1       0.616   2.423  -4.163  0.00  0.00    +0.000 A 
ATOM     20  O   UNL     1      -0.164   2.672  -5.075  0.00  0.00    +0.000 OA
ATOM     21  C   UNL     1       1.930   1.790  -4.477  0.00  0.00    +0.000 A 
ATOM     22  C   UNL     1       2.662   1.239  -3.507  0.00  0.00    +0.000 A 
BRANCH  18  23
ATOM     23  C   UNL     1      -0.940   3.261  -2.479  0.00  0.00    +0.000 C 
BRANCH  23  24
ATOM     24  C   UNL     1      -0.938   4.748  -2.224  0.00  0.00    +0.000 A 
ATOM     25  C   UNL     1      -1.159   5.641  -3.288  0.00  0.00    +0.000 A 
ATOM     26  C   UNL     1      -0.776   6.970  -3.170  0.00  0.00    +0.000 A 
ATOM     27  C   UNL     1      -0.450   7.468  -1.917  0.00  0.00    +0.000 A 
ATOM     28  C   UNL     1      -0.475   6.628  -0.804  0.00  0.00    +0.000 A 
ATOM     29  C   UNL     1      -0.596   5.252  -0.970  0.00  0.00    +0.000 A 
ENDBRANCH  23  24
ENDBRANCH  18  23
ENDBRANCH   3  16
TORSDOF 4
