REMARK  Name = 
REMARK  5 active torsions:
REMARK  status: ('A' for Active; 'I' for Inactive)
REMARK    1  A    between atoms: N_3  and  C_4
REMARK    2  A    between atoms: C_7  and  C_8
REMARK    3  A    between atoms: C_22  and  O_23
REMARK    4  A    between atoms: O_23  and  C_24
REMARK    5  A    between atoms: C_24  and  C_25
REMARK                            x       y       z     vdW  Elec       q    Type
REMARK                         _______ _______ _______ _____ _____    ______ ____
ROOT
ATOM      1  O   UNL     1       2.497  -0.811   0.807  0.00  0.00    +0.000 OA
ATOM      2  C   UNL     1       2.186  -0.044  -0.100  0.00  0.00    +0.000 C 
ATOM      3  N   UNL     1       0.853   0.225  -0.334  0.00  0.00    +0.000 N 
ATOM      4  N   UNL     1       3.062   0.652  -0.875  0.00  0.00    +0.000 N 
ATOM      5  C   UNL     1       4.434   0.434  -0.868  0.00  0.00    +0.000 A 
ATOM      6  N   UNL     1       5.110   1.461  -0.304  0.00  0.00    +0.000 NA
ATOM      7  C   UNL     1       6.451   1.406  -0.349  0.00  0.00    +0.000 A 
ATOM      8  C   UNL     1       7.151   0.393  -0.977  0.00  0.00    +0.000 A 
ATOM      9  C   UNL     1       6.434  -0.620  -1.619  0.00  0.00    +0.000 A 
ATOM     10  C   UNL     1       5.038  -0.594  -1.606  0.00  0.00    +0.000 A 
ATOM     11  H   UNL     1       0.256  -0.247   0.336  0.00  0.00    +0.000 HD
ATOM     12  H   UNL     1       2.908   1.632  -0.684  0.00  0.00    +0.000 HD
ENDROOT
BRANCH   3  13
ATOM     13  C   UNL     1       0.224   0.868  -1.425  0.00  0.00    +0.000 A 
ATOM     14  C   UNL     1       0.906   1.528  -2.446  0.00  0.00    +0.000 A 
ATOM     15  C   UNL     1       0.236   2.093  -3.524  0.00  0.00    +0.000 A 
ATOM     16  C   UNL     1      -1.147   2.003  -3.632  0.00  0.00    +0.000 A 
ATOM     17  C   UNL     1      -1.853   1.360  -2.607  0.00  0.00    +0.000 A 
ATOM     18  C   UNL     1      -1.173   0.801  -1.511  0.00  0.00    +0.000 A 
BRANCH  16  19
ATOM     19  C   UNL     1      -1.781   2.631  -4.782  0.00  0.00    +0.000 A 
ATOM     20  C   UNL     1      -1.270   2.815  -6.012  0.00  0.00    +0.000 A 
ATOM     21  N   UNL     1      -2.155   3.553  -6.750  0.00  0.00    +0.000 N 
ATOM     22  C   UNL     1      -3.271   3.846  -5.957  0.00  0.00    +0.000 A 
ATOM     23  O   UNL     1      -4.239   4.511  -6.265  0.00  0.00    +0.000 OA
ATOM     24  N   UNL     1      -3.011   3.231  -4.733  0.00  0.00    +0.000 N 
ATOM     25  H   UNL     1      -2.023   3.903  -7.686  0.00  0.00    +0.000 HD
ATOM     26  H   UNL     1      -3.612   3.316  -3.930  0.00  0.00    +0.000 HD
ENDBRANCH  16  19
ENDBRANCH   3  13
BRANCH  10  27
ATOM     27  O   UNL     1       4.247  -1.459  -2.320  0.00  0.00    +0.000 OA
BRANCH  27  28
ATOM     28  C   UNL     1       4.793  -1.964  -3.550  0.00  0.00    +0.000 C 
BRANCH  28  29
ATOM     29  C   UNL     1       3.735  -2.153  -4.626  0.00  0.00    +0.000 A 
ATOM     30  C   UNL     1       2.388  -1.830  -4.419  0.00  0.00    +0.000 A 
ATOM     31  C   UNL     1       1.456  -1.958  -5.454  0.00  0.00    +0.000 A 
ATOM     32  C   UNL     1       1.856  -2.412  -6.709  0.00  0.00    +0.000 A 
ATOM     33  C   UNL     1       3.188  -2.756  -6.927  0.00  0.00    +0.000 A 
ATOM     34  C   UNL     1       4.120  -2.631  -5.892  0.00  0.00    +0.000 A 
ENDBRANCH  28  29
ENDBRANCH  27  28
ENDBRANCH  10  27
TORSDOF 5
