REMARK  Name = 
REMARK  4 active torsions:
REMARK  status: ('A' for Active; 'I' for Inactive)
REMARK    1  A    between atoms: C_2  and  C_17
REMARK    2  A    between atoms: N_3  and  C_4
REMARK    3  A    between atoms: C_4  and  C_5
REMARK    4  A    between atoms: C_8  and  C_9
REMARK                            x       y       z     vdW  Elec       q    Type
REMARK                         _______ _______ _______ _____ _____    ______ ____
ROOT
ATOM      1  O   UNL     1       1.540   0.458  -0.395  0.00  0.00    +0.000 OA
ATOM      2  C   UNL     1       2.688   0.859  -0.211  0.00  0.00    +0.000 C 
ATOM      3  N   UNL     1       3.142   1.159   1.044  0.00  0.00    +0.000 N 
ATOM      4  H   UNL     1       4.117   1.371   1.223  0.00  0.00    +0.000 HD
ENDROOT
BRANCH   2   5
ATOM      5  C   UNL     1       3.667   0.930  -1.373  0.00  0.00    +0.000 A 
ATOM      6  C   UNL     1       4.991   0.997  -1.097  0.00  0.00    +0.000 A 
ATOM      7  N   UNL     1       5.806  -0.107  -0.887  0.00  0.00    +0.000 N 
ATOM      8  C   UNL     1       5.242  -1.392  -0.971  0.00  0.00    +0.000 A 
ATOM      9  C   UNL     1       3.979  -1.525  -1.591  0.00  0.00    +0.000 A 
ATOM     10  C   UNL     1       3.220  -2.683  -1.516  0.00  0.00    +0.000 A 
ATOM     11  C   UNL     1       3.740  -3.734  -0.777  0.00  0.00    +0.000 A 
ATOM     12  F   UNL     1       2.987  -4.824  -0.577  0.00  0.00    +0.000 F 
ATOM     13  C   UNL     1       5.011  -3.644  -0.196  0.00  0.00    +0.000 A 
ATOM     14  F   UNL     1       5.478  -4.666   0.535  0.00  0.00    +0.000 F 
ATOM     15  C   UNL     1       5.775  -2.485  -0.296  0.00  0.00    +0.000 A 
ATOM     16  C   UNL     1       3.461  -0.294  -2.225  0.00  0.00    +0.000 A 
ATOM     17  O   UNL     1       2.963  -0.274  -3.339  0.00  0.00    +0.000 OA
ATOM     18  H   UNL     1       6.813  -0.008  -0.968  0.00  0.00    +0.000 HD
ENDBRANCH   2   5
BRANCH   3  19
ATOM     19  C   UNL     1       2.317   0.848   2.202  0.00  0.00    +0.000 C 
BRANCH  19  20
ATOM     20  C   UNL     1       3.033   1.196   3.457  0.00  0.00    +0.000 A 
ATOM     21  N   UNL     1       2.493   1.037   4.667  0.00  0.00    +0.000 NA
ATOM     22  O   UNL     1       3.483   1.513   5.527  0.00  0.00    +0.000 OA
ATOM     23  C   UNL     1       4.534   1.902   4.742  0.00  0.00    +0.000 A 
ATOM     24  N   UNL     1       4.315   1.711   3.461  0.00  0.00    +0.000 NA
BRANCH  23  25
ATOM     25  C   UNL     1       5.690   2.479   5.412  0.00  0.00    +0.000 A 
ATOM     26  C   UNL     1       5.723   2.674   6.803  0.00  0.00    +0.000 A 
ATOM     27  C   UNL     1       6.831   3.268   7.412  0.00  0.00    +0.000 A 
ATOM     28  C   UNL     1       7.911   3.667   6.634  0.00  0.00    +0.000 A 
ATOM     29  F   UNL     1       8.965   4.250   7.217  0.00  0.00    +0.000 F 
ATOM     30  C   UNL     1       7.909   3.476   5.258  0.00  0.00    +0.000 A 
ATOM     31  C   UNL     1       6.801   2.881   4.648  0.00  0.00    +0.000 A 
ENDBRANCH  23  25
ENDBRANCH  19  20
ENDBRANCH   3  19
TORSDOF 4
