REMARK  Name = 
REMARK  7 active torsions:
REMARK  status: ('A' for Active; 'I' for Inactive)
REMARK    1  A    between atoms: C_2  and  C_3
REMARK    2  A    between atoms: C_6  and  C_7
REMARK    3  A    between atoms: N_9  and  C_10
REMARK    4  A    between atoms: C_10  and  C_11
REMARK    5  A    between atoms: C_10  and  C_19
REMARK    6  A    between atoms: C_11  and  O_12
REMARK    7  A    between atoms: O_12  and  C_13
REMARK                            x       y       z     vdW  Elec       q    Type
REMARK                         _______ _______ _______ _____ _____    ______ ____
ROOT
ATOM      1  C   UNL     1       7.343  -5.944   0.071  0.00  0.00    +0.000 C 
ENDROOT
BRANCH   1   2
ATOM      2  C   UNL     1       8.732  -6.577   0.086  0.00  0.00    +0.000 A 
ATOM      3  C   UNL     1       9.085  -7.481   1.102  0.00  0.00    +0.000 A 
ATOM      4  C   UNL     1      10.354  -8.067   1.122  0.00  0.00    +0.000 A 
ATOM      5  C   UNL     1      11.272  -7.754   0.128  0.00  0.00    +0.000 A 
ATOM      6  F   UNL     1      12.492  -8.308   0.155  0.00  0.00    +0.000 F 
ATOM      7  C   UNL     1      10.944  -6.874  -0.894  0.00  0.00    +0.000 A 
ATOM      8  C   UNL     1       9.678  -6.285  -0.916  0.00  0.00    +0.000 A 
ENDBRANCH   1   2
BRANCH   1  11
ATOM      9  C   UNL     1       7.609  -3.764   1.251  0.00  0.00    +0.000 C 
ATOM     10  O   UNL     1       7.642  -4.312   2.349  0.00  0.00    +0.000 OA
ATOM     11  N   UNL     1       7.440  -4.486   0.090  0.00  0.00    +0.000 N 
ATOM     12  H   UNL     1       7.337  -4.011  -0.791  0.00  0.00    +0.000 HD
BRANCH   9  16
ATOM     13  C   UNL     1       7.988  -0.427   4.258  0.00  0.00    +0.000 A 
ATOM     14  C   UNL     1       7.818  -1.515   3.479  0.00  0.00    +0.000 A 
ATOM     15  N   UNL     1       7.866  -1.386   2.087  0.00  0.00    +0.000 N 
ATOM     16  C   UNL     1       7.749  -2.333   1.073  0.00  0.00    +0.000 A 
ATOM     17  C   UNL     1       7.824  -1.583  -0.091  0.00  0.00    +0.000 A 
ATOM     18  N   UNL     1       8.021  -0.254   0.156  0.00  0.00    +0.000 NA
ATOM     19  C   UNL     1       8.064  -0.152   1.463  0.00  0.00    +0.000 A 
ATOM     20  C   UNL     1       8.274   0.988   2.291  0.00  0.00    +0.000 A 
ATOM     21  C   UNL     1       8.241   0.863   3.632  0.00  0.00    +0.000 A 
BRANCH  13  23
ATOM     22  N   UNL     1       7.921  -0.647   7.029  0.00  0.00    +0.000 NA
ATOM     23  C   UNL     1       7.951  -0.547   5.772  0.00  0.00    +0.000 C 
ENDBRANCH  13  23
ENDBRANCH   9  16
ENDBRANCH   1  11
BRANCH   1  24
ATOM     24  C   UNL     1       6.566  -6.445  -1.168  0.00  0.00    +0.000 C 
BRANCH  24  25
ATOM     25  O   UNL     1       5.237  -5.912  -1.174  0.00  0.00    +0.000 OA
BRANCH  25  26
ATOM     26  C   UNL     1       4.444  -6.293  -2.225  0.00  0.00    +0.000 A 
ATOM     27  C   UNL     1       4.838  -7.106  -3.292  0.00  0.00    +0.000 A 
ATOM     28  C   UNL     1       3.931  -7.435  -4.303  0.00  0.00    +0.000 A 
ATOM     29  C   UNL     1       2.626  -6.954  -4.256  0.00  0.00    +0.000 A 
ATOM     30  C   UNL     1       2.227  -6.138  -3.200  0.00  0.00    +0.000 A 
ATOM     31  C   UNL     1       3.135  -5.808  -2.190  0.00  0.00    +0.000 A 
ENDBRANCH  25  26
ENDBRANCH  24  25
ENDBRANCH   1  24
TORSDOF 7
