REMARK  Name = 
REMARK  5 active torsions:
REMARK  status: ('A' for Active; 'I' for Inactive)
REMARK    1  A    between atoms: C_2  and  C_19
REMARK    2  A    between atoms: N_3  and  C_4
REMARK    3  A    between atoms: C_4  and  C_5
REMARK    4  A    between atoms: C_7  and  O_8
REMARK    5  A    between atoms: O_8  and  C_9
REMARK                            x       y       z     vdW  Elec       q    Type
REMARK                         _______ _______ _______ _____ _____    ______ ____
ROOT
ATOM      1  O   UNL     1       2.817   2.286  -0.942  0.00  0.00    +0.000 OA
ATOM      2  C   UNL     1       3.171   1.188  -0.525  0.00  0.00    +0.000 C 
ATOM      3  N   UNL     1       2.921   0.743   0.751  0.00  0.00    +0.000 N 
ATOM      4  H   UNL     1       3.308  -0.154   1.028  0.00  0.00    +0.000 HD
ENDROOT
BRANCH   2   5
ATOM      5  C   UNL     1       3.934   0.240  -1.400  0.00  0.00    +0.000 A 
ATOM      6  C   UNL     1       4.260   0.643  -2.691  0.00  0.00    +0.000 A 
ATOM      7  C   UNL     1       4.993  -0.225  -3.487  0.00  0.00    +0.000 A 
ATOM      8  C   UNL     1       5.376  -1.460  -2.972  0.00  0.00    +0.000 A 
ATOM      9  C   UNL     1       5.003  -1.797  -1.668  0.00  0.00    +0.000 A 
ATOM     10  N   UNL     1       5.396  -3.074  -1.161  0.00  0.00    +0.000 N 
ATOM     11  C   UNL     1       5.085  -3.598   0.076  0.00  0.00    +0.000 A 
ATOM     12  C   UNL     1       5.663  -4.843   0.145  0.00  0.00    +0.000 A 
ATOM     13  C   UNL     1       6.312  -4.998  -1.089  0.00  0.00    +0.000 A 
ATOM     14  N   UNL     1       6.153  -3.943  -1.890  0.00  0.00    +0.000 NA
ATOM     15  N   UNL     1       4.281  -0.964  -0.863  0.00  0.00    +0.000 NA
ENDBRANCH   2   5
BRANCH   3  16
ATOM     16  C   UNL     1       2.266   1.573   1.736  0.00  0.00    +0.000 C 
BRANCH  16  17
ATOM     17  C   UNL     1       3.218   2.471   2.497  0.00  0.00    +0.000 A 
ATOM     18  C   UNL     1       3.606   3.693   1.953  0.00  0.00    +0.000 A 
ATOM     19  C   UNL     1       4.313   4.590   2.751  0.00  0.00    +0.000 A 
ATOM     20  C   UNL     1       4.735   4.193   4.012  0.00  0.00    +0.000 A 
ATOM     21  C   UNL     1       4.369   2.932   4.451  0.00  0.00    +0.000 A 
ATOM     22  N   UNL     1       3.609   2.075   3.734  0.00  0.00    +0.000 NA
BRANCH  19  23
ATOM     23  O   UNL     1       4.659   5.867   2.365  0.00  0.00    +0.000 OA
BRANCH  23  24
ATOM     24  C   UNL     1       3.817   6.582   1.539  0.00  0.00    +0.000 A 
ATOM     25  C   UNL     1       2.425   6.460   1.532  0.00  0.00    +0.000 A 
ATOM     26  C   UNL     1       1.680   7.178   0.604  0.00  0.00    +0.000 A 
ATOM     27  F   UNL     1       0.353   6.998   0.549  0.00  0.00    +0.000 F 
ATOM     28  C   UNL     1       2.287   8.068  -0.272  0.00  0.00    +0.000 A 
ATOM     29  C   UNL     1       3.666   8.256  -0.212  0.00  0.00    +0.000 A 
ATOM     30  C   UNL     1       4.431   7.513   0.694  0.00  0.00    +0.000 A 
ENDBRANCH  23  24
ENDBRANCH  19  23
ENDBRANCH  16  17
ENDBRANCH   3  16
TORSDOF 5
