REMARK  Name = 
REMARK  7 active torsions:
REMARK  status: ('A' for Active; 'I' for Inactive)
REMARK    1  A    between atoms: C_1  and  O_2
REMARK    2  A    between atoms: O_2  and  C_3
REMARK    3  A    between atoms: C_6  and  C_7
REMARK    4  A    between atoms: C_7  and  N_8
REMARK    5  A    between atoms: C_12  and  C_13
REMARK    6  A    between atoms: N_15  and  C_16
REMARK    7  A    between atoms: N_18  and  C_19
REMARK                            x       y       z     vdW  Elec       q    Type
REMARK                         _______ _______ _______ _____ _____    ______ ____
ROOT
ATOM      1  C   UNL     1       4.110  -7.371  -0.878  0.00  0.00    +0.000 C 
ATOM      2  O   UNL     1       4.572  -7.004   0.196  0.00  0.00    +0.000 OA
ATOM      3  N   UNL     1       3.513  -8.627  -1.069  0.00  0.00    +0.000 N 
ATOM      4  H   UNL     1       3.333  -8.848  -2.044  0.00  0.00    +0.000 HD
ENDROOT
BRANCH   3   5
ATOM      5  C   UNL     1       3.340  -9.602  -0.110  0.00  0.00    +0.000 A 
ATOM      6  C   UNL     1       3.333  -9.361   1.212  0.00  0.00    +0.000 A 
ATOM      7  N   UNL     1       3.259 -10.361   2.176  0.00  0.00    +0.000 N 
ATOM      8  C   UNL     1       3.214 -11.715   1.809  0.00  0.00    +0.000 A 
ATOM      9  O   UNL     1       3.254 -12.682   2.567  0.00  0.00    +0.000 OA
ATOM     10  C   UNL     1       3.143 -11.979   0.342  0.00  0.00    +0.000 A 
ATOM     11  C   UNL     1       3.178 -10.974  -0.547  0.00  0.00    +0.000 A 
BRANCH   7  12
ATOM     12  C   UNL     1       3.339 -10.017   3.562  0.00  0.00    +0.000 A 
ATOM     13  C   UNL     1       4.299  -9.092   4.001  0.00  0.00    +0.000 A 
ATOM     14  C   UNL     1       4.379  -8.735   5.347  0.00  0.00    +0.000 A 
ATOM     15  C   UNL     1       3.477  -9.272   6.262  0.00  0.00    +0.000 A 
ATOM     16  C   UNL     1       2.508 -10.180   5.836  0.00  0.00    +0.000 A 
ATOM     17  C   UNL     1       2.449 -10.565   4.494  0.00  0.00    +0.000 A 
ENDBRANCH   7  12
ENDBRANCH   3   5
BRANCH   1  22
ATOM     18  N   UNL     1       4.844  -5.356  -2.241  0.00  0.00    +0.000 N 
ATOM     19  C   UNL     1       4.784  -5.024  -3.572  0.00  0.00    +0.000 A 
ATOM     20  C   UNL     1       4.015  -5.997  -4.156  0.00  0.00    +0.000 A 
ATOM     21  N   UNL     1       3.693  -6.972  -3.247  0.00  0.00    +0.000 NA
ATOM     22  C   UNL     1       4.214  -6.579  -2.096  0.00  0.00    +0.000 A 
BRANCH  18  23
ATOM     23  C   UNL     1       5.487  -4.526  -1.231  0.00  0.00    +0.000 C 
BRANCH  23  27
ATOM     24  C   UNL     1       2.600  -1.699   0.331  0.00  0.00    +0.000 A 
ATOM     25  C   UNL     1       2.854  -2.896   1.000  0.00  0.00    +0.000 A 
ATOM     26  C   UNL     1       3.806  -3.793   0.509  0.00  0.00    +0.000 A 
ATOM     27  C   UNL     1       4.519  -3.516  -0.664  0.00  0.00    +0.000 A 
ATOM     28  C   UNL     1       4.275  -2.300  -1.320  0.00  0.00    +0.000 A 
ATOM     29  C   UNL     1       3.324  -1.402  -0.824  0.00  0.00    +0.000 A 
BRANCH  24  31
ATOM     30  C   UNL     1       0.884  -1.059   1.840  0.00  0.00    +0.000 C 
ATOM     31  O   UNL     1       1.681  -0.756   0.700  0.00  0.00    +0.000 OA
ENDBRANCH  24  31
ENDBRANCH  23  27
ENDBRANCH  18  23
ENDBRANCH   1  22
TORSDOF 6
