REMARK  Name = 
REMARK  7 active torsions:
REMARK  status: ('A' for Active; 'I' for Inactive)
REMARK    1  A    between atoms: C_1  and  O_2
REMARK    2  A    between atoms: O_2  and  C_3
REMARK    3  A    between atoms: C_6  and  N_7
REMARK    4  A    between atoms: C_10  and  C_11
REMARK    5  A    between atoms: N_13  and  C_14
REMARK    6  A    between atoms: C_14  and  C_15
REMARK    7  A    between atoms: C_18  and  C_19
REMARK                            x       y       z     vdW  Elec       q    Type
REMARK                         _______ _______ _______ _____ _____    ______ ____
ROOT
ATOM      1  C   UNL     1       6.455  -7.760  -1.710  0.00  0.00    +0.000 C 
ATOM      2  O   UNL     1       7.159  -8.481  -2.411  0.00  0.00    +0.000 OA
ATOM      3  N   UNL     1       5.921  -8.159  -0.507  0.00  0.00    +0.000 N 
ATOM      4  H   UNL     1       5.310  -7.500  -0.036  0.00  0.00    +0.000 HD
ENDROOT
BRANCH   1   8
ATOM      5  N   UNL     1       5.198  -4.441  -2.119  0.00  0.00    +0.000 N 
ATOM      6  C   UNL     1       5.935  -4.518  -3.280  0.00  0.00    +0.000 A 
ATOM      7  C   UNL     1       6.522  -5.755  -3.304  0.00  0.00    +0.000 A 
ATOM      8  C   UNL     1       6.104  -6.389  -2.111  0.00  0.00    +0.000 A 
ATOM      9  N   UNL     1       5.319  -5.579  -1.376  0.00  0.00    +0.000 NA
BRANCH   5  13
ATOM     10  C   UNL     1       2.690  -1.256  -0.884  0.00  0.00    +0.000 A 
ATOM     11  C   UNL     1       3.332  -1.205  -2.120  0.00  0.00    +0.000 A 
ATOM     12  C   UNL     1       4.173  -2.247  -2.524  0.00  0.00    +0.000 A 
ATOM     13  C   UNL     1       4.373  -3.361  -1.697  0.00  0.00    +0.000 A 
ATOM     14  C   UNL     1       3.731  -3.410  -0.453  0.00  0.00    +0.000 A 
ATOM     15  C   UNL     1       2.897  -2.360  -0.053  0.00  0.00    +0.000 A 
BRANCH  10  17
ATOM     16  C   UNL     1       1.653   0.855  -1.198  0.00  0.00    +0.000 C 
ATOM     17  O   UNL     1       1.843  -0.302  -0.390  0.00  0.00    +0.000 OA
ENDBRANCH  10  17
ENDBRANCH   5  13
ENDBRANCH   1   8
BRANCH   3  18
ATOM     18  C   UNL     1       6.075  -9.507  -0.016  0.00  0.00    +0.000 C 
BRANCH  18  19
ATOM     19  C   UNL     1       6.736  -9.595   1.339  0.00  0.00    +0.000 A 
ATOM     20  C   UNL     1       6.426 -10.674   2.182  0.00  0.00    +0.000 A 
ATOM     21  C   UNL     1       7.067 -10.831   3.415  0.00  0.00    +0.000 A 
ATOM     22  C   UNL     1       8.042  -9.917   3.825  0.00  0.00    +0.000 A 
ATOM     23  C   UNL     1       8.370  -8.848   2.984  0.00  0.00    +0.000 A 
ATOM     24  C   UNL     1       7.730  -8.694   1.748  0.00  0.00    +0.000 A 
BRANCH  22  25
ATOM     25  C   UNL     1       8.707 -10.075   5.128  0.00  0.00    +0.000 A 
ATOM     26  C   UNL     1       9.843 -10.795   5.194  0.00  0.00    +0.000 A 
ATOM     27  N   UNL     1      10.495 -10.975   6.389  0.00  0.00    +0.000 N 
ATOM     28  C   UNL     1      10.066 -10.458   7.587  0.00  0.00    +0.000 A 
ATOM     29  O   UNL     1      10.662 -10.634   8.643  0.00  0.00    +0.000 OA
ATOM     30  C   UNL     1       8.815  -9.661   7.530  0.00  0.00    +0.000 A 
ATOM     31  C   UNL     1       8.189  -9.492   6.357  0.00  0.00    +0.000 A 
ATOM     32  H   UNL     1      11.349 -11.520   6.427  0.00  0.00    +0.000 HD
ENDBRANCH  22  25
ENDBRANCH  18  19
ENDBRANCH   3  18
TORSDOF 6
