REMARK  Name = 
REMARK  8 active torsions:
REMARK  status: ('A' for Active; 'I' for Inactive)
REMARK    1  A    between atoms: C_2  and  C_20
REMARK    2  A    between atoms: N_3  and  C_4
REMARK    3  A    between atoms: C_4  and  C_5
REMARK    4  A    between atoms: C_10  and  C_11
REMARK    5  A    between atoms: C_11  and  O_12
REMARK    6  A    between atoms: O_12  and  C_13
REMARK    7  A    between atoms: N_22  and  C_23
REMARK    8  A    between atoms: C_23  and  C_24
REMARK                            x       y       z     vdW  Elec       q    Type
REMARK                         _______ _______ _______ _____ _____    ______ ____
ROOT
ATOM      1  O   UNL     1       1.164   1.397   0.068  0.00  0.00    +0.000 OA
ATOM      2  C   UNL     1       2.284   0.888   0.031  0.00  0.00    +0.000 C 
ATOM      3  N   UNL     1       2.903   0.358   1.137  0.00  0.00    +0.000 N 
ATOM      4  H   UNL     1       3.761  -0.167   1.014  0.00  0.00    +0.000 HD
ENDROOT
BRANCH   2   5
ATOM      5  C   UNL     1       3.073   0.857  -1.187  0.00  0.00    +0.000 A 
ATOM      6  C   UNL     1       2.722   1.417  -2.399  0.00  0.00    +0.000 A 
ATOM      7  N   UNL     1       3.805   1.195  -3.197  0.00  0.00    +0.000 N 
ATOM      8  N   UNL     1       4.771   0.530  -2.535  0.00  0.00    +0.000 NA
ATOM      9  N   UNL     1       4.330   0.312  -1.299  0.00  0.00    +0.000 NA
BRANCH   7  10
ATOM     10  C   UNL     1       4.017   1.675  -4.549  0.00  0.00    +0.000 C 
BRANCH  10  11
ATOM     11  C   UNL     1       3.447   0.724  -5.559  0.00  0.00    +0.000 A 
ATOM     12  C   UNL     1       2.140   0.855  -6.042  0.00  0.00    +0.000 A 
ATOM     13  C   UNL     1       1.640  -0.084  -6.940  0.00  0.00    +0.000 A 
ATOM     14  C   UNL     1       2.468  -1.123  -7.331  0.00  0.00    +0.000 A 
ATOM     15  N   UNL     1       3.736  -1.274  -6.897  0.00  0.00    +0.000 NA
ATOM     16  C   UNL     1       4.195  -0.357  -6.017  0.00  0.00    +0.000 A 
ENDBRANCH  10  11
ENDBRANCH   7  10
ENDBRANCH   2   5
BRANCH   3  17
ATOM     17  C   UNL     1       2.271   0.423   2.434  0.00  0.00    +0.000 C 
BRANCH  17  18
ATOM     18  C   UNL     1       3.271   0.409   3.566  0.00  0.00    +0.000 A 
ATOM     19  C   UNL     1       3.237  -0.679   4.461  0.00  0.00    +0.000 A 
ATOM     20  C   UNL     1       4.114  -0.754   5.543  0.00  0.00    +0.000 A 
ATOM     21  C   UNL     1       5.040   0.259   5.751  0.00  0.00    +0.000 A 
ATOM     22  C   UNL     1       5.080   1.353   4.887  0.00  0.00    +0.000 A 
ATOM     23  C   UNL     1       4.205   1.449   3.787  0.00  0.00    +0.000 A 
BRANCH  23  24
ATOM     24  C   UNL     1       4.300   2.695   2.926  0.00  0.00    +0.000 C 
BRANCH  24  25
ATOM     25  O   UNL     1       3.571   3.755   3.546  0.00  0.00    +0.000 OA
BRANCH  25  26
ATOM     26  C   UNL     1       3.449   4.931   2.849  0.00  0.00    +0.000 A 
ATOM     27  C   UNL     1       4.146   5.234   1.672  0.00  0.00    +0.000 A 
ATOM     28  C   UNL     1       3.932   6.447   1.007  0.00  0.00    +0.000 A 
ATOM     29  C   UNL     1       3.016   7.371   1.504  0.00  0.00    +0.000 A 
ATOM     30  C   UNL     1       2.338   7.097   2.690  0.00  0.00    +0.000 A 
ATOM     31  C   UNL     1       2.564   5.893   3.366  0.00  0.00    +0.000 A 
ATOM     32 CL   UNL     1       1.731   5.640   4.861  0.00  0.00    +0.000 Cl
ENDBRANCH  25  26
ENDBRANCH  24  25
ENDBRANCH  23  24
ENDBRANCH  17  18
ENDBRANCH   3  17
TORSDOF 8
