REMARK  Name = 
REMARK  6 active torsions:
REMARK  status: ('A' for Active; 'I' for Inactive)
REMARK    1  A    between atoms: C_1  and  O_2
REMARK    2  A    between atoms: O_2  and  C_3
REMARK    3  A    between atoms: C_7  and  O_8
REMARK    4  A    between atoms: O_8  and  C_9
REMARK    5  A    between atoms: C_12  and  N_13
REMARK    6  A    between atoms: C_14  and  C_16
REMARK                            x       y       z     vdW  Elec       q    Type
REMARK                         _______ _______ _______ _____ _____    ______ ____
ROOT
ATOM      1  N   UNL     1       9.794  -0.627  -6.785  0.00  0.00    +0.000 N 
ATOM      2  C   UNL     1      10.174   0.577  -7.332  0.00  0.00    +0.000 C 
ATOM      3  O   UNL     1       9.799   1.685  -6.955  0.00  0.00    +0.000 OA
ATOM      4  H   UNL     1      10.155  -1.462  -7.248  0.00  0.00    +0.000 HD
ENDROOT
BRANCH   2   5
ATOM      5  C   UNL     1      11.121   0.482  -8.496  0.00  0.00    +0.000 A 
ATOM      6  C   UNL     1      11.460   1.643  -9.088  0.00  0.00    +0.000 A 
ATOM      7  N   UNL     1      12.351   1.702 -10.129  0.00  0.00    +0.000 N 
ATOM      8  C   UNL     1      13.001   0.609 -10.653  0.00  0.00    +0.000 A 
ATOM      9  O   UNL     1      13.805   0.709 -11.567  0.00  0.00    +0.000 OA
ATOM     10  C   UNL     1      12.670  -0.694 -10.045  0.00  0.00    +0.000 A 
ATOM     11  C   UNL     1      13.280  -1.869 -10.485  0.00  0.00    +0.000 A 
ATOM     12  C   UNL     1      12.931  -3.075  -9.886  0.00  0.00    +0.000 A 
ATOM     13  C   UNL     1      11.979  -3.059  -8.881  0.00  0.00    +0.000 A 
ATOM     14  N   UNL     1      11.371  -1.934  -8.434  0.00  0.00    +0.000 NA
ATOM     15  C   UNL     1      11.735  -0.754  -9.013  0.00  0.00    +0.000 A 
ATOM     16  H   UNL     1      12.584   2.600 -10.543  0.00  0.00    +0.000 HD
ENDBRANCH   2   5
BRANCH   1  20
ATOM     17  C   UNL     1       7.116  -1.368  -3.612  0.00  0.00    +0.000 A 
ATOM     18  C   UNL     1       7.570  -0.070  -3.840  0.00  0.00    +0.000 A 
ATOM     19  C   UNL     1       8.446   0.195  -4.893  0.00  0.00    +0.000 A 
ATOM     20  C   UNL     1       8.942  -0.840  -5.683  0.00  0.00    +0.000 A 
ATOM     21  C   UNL     1       8.583  -2.158  -5.369  0.00  0.00    +0.000 A 
ATOM     22  C   UNL     1       7.667  -2.421  -4.341  0.00  0.00    +0.000 A 
BRANCH  17  23
ATOM     23  O   UNL     1       6.152  -1.685  -2.678  0.00  0.00    +0.000 OA
BRANCH  23  28
ATOM     24  C   UNL     1       3.648   0.179  -0.771  0.00  0.00    +0.000 A 
ATOM     25  C   UNL     1       3.167   1.074  -1.730  0.00  0.00    +0.000 A 
ATOM     26  C   UNL     1       3.634   1.013  -3.043  0.00  0.00    +0.000 A 
ATOM     27  C   UNL     1       4.590   0.065  -3.401  0.00  0.00    +0.000 A 
ATOM     28  C   UNL     1       5.140  -0.778  -2.430  0.00  0.00    +0.000 A 
ATOM     29  C   UNL     1       4.637  -0.744  -1.127  0.00  0.00    +0.000 A 
BRANCH  24  31
ATOM     30  C   UNL     1       2.238   1.046   0.932  0.00  0.00    +0.000 C 
ATOM     31  O   UNL     1       3.240   0.117   0.534  0.00  0.00    +0.000 OA
ENDBRANCH  24  31
ENDBRANCH  23  28
ENDBRANCH  17  23
ENDBRANCH   1  20
TORSDOF 5
