REMARK  Name = 
REMARK  9 active torsions:
REMARK  status: ('A' for Active; 'I' for Inactive)
REMARK    1  A    between atoms: C_2  and  C_3
REMARK    2  A    between atoms: C_2  and  O_18
REMARK    3  A    between atoms: C_3  and  O_4
REMARK    4  A    between atoms: O_4  and  C_5
REMARK    5  A    between atoms: C_9  and  O_10
REMARK    6  A    between atoms: O_10  and  C_11
REMARK    7  A    between atoms: O_18  and  C_19
REMARK    8  A    between atoms: C_19  and  C_20
REMARK    9  A    between atoms: N_24  and  C_25
REMARK                            x       y       z     vdW  Elec       q    Type
REMARK                         _______ _______ _______ _____ _____    ______ ____
ROOT
ATOM      1  O   UNL     1       2.141   1.102  -0.602  0.00  0.00    +0.000 OA
ATOM      2  C   UNL     1       2.343  -0.000  -0.107  0.00  0.00    +0.000 C 
ENDROOT
BRANCH   2   3
ATOM      3  C   UNL     1       3.026  -1.151  -0.815  0.00  0.00    +0.000 C 
BRANCH   3   4
ATOM      4  O   UNL     1       2.068  -1.976  -1.464  0.00  0.00    +0.000 OA
BRANCH   4   5
ATOM      5  C   UNL     1       2.547  -2.691  -2.530  0.00  0.00    +0.000 A 
ATOM      6  C   UNL     1       3.888  -3.032  -2.728  0.00  0.00    +0.000 A 
ATOM      7  C   UNL     1       4.277  -3.695  -3.893  0.00  0.00    +0.000 A 
ATOM      8  C   UNL     1       3.323  -4.047  -4.845  0.00  0.00    +0.000 A 
ATOM      9  C   UNL     1       1.970  -3.794  -4.607  0.00  0.00    +0.000 A 
ATOM     10  C   UNL     1       1.587  -3.095  -3.461  0.00  0.00    +0.000 A 
BRANCH   9  11
ATOM     11  O   UNL     1       0.971  -4.120  -5.497  0.00  0.00    +0.000 OA
BRANCH  11  12
ATOM     12  C   UNL     1       1.045  -5.349  -6.142  0.00  0.00    +0.000 A 
ATOM     13  C   UNL     1       0.349  -5.464  -7.337  0.00  0.00    +0.000 A 
ATOM     14  C   UNL     1       0.410  -6.674  -8.023  0.00  0.00    +0.000 A 
ATOM     15  C   UNL     1       1.154  -7.722  -7.490  0.00  0.00    +0.000 A 
ATOM     16  C   UNL     1       1.795  -7.521  -6.280  0.00  0.00    +0.000 A 
ATOM     17  N   UNL     1       1.748  -6.367  -5.588  0.00  0.00    +0.000 NA
ENDBRANCH  11  12
ENDBRANCH   9  11
ENDBRANCH   4   5
ENDBRANCH   3   4
ENDBRANCH   2   3
BRANCH   2  18
ATOM     18  O   UNL     1       2.034  -0.350   1.171  0.00  0.00    +0.000 OA
BRANCH  18  19
ATOM     19  C   UNL     1       1.798   0.751   2.057  0.00  0.00    +0.000 C 
BRANCH  19  20
ATOM     20  C   UNL     1       3.114   1.137   2.652  0.00  0.00    +0.000 A 
ATOM     21  N   UNL     1       4.271   0.567   2.358  0.00  0.00    +0.000 NA
ATOM     22  N   UNL     1       5.275   1.308   2.911  0.00  0.00    +0.000 NA
ATOM     23  C   UNL     1       4.718   2.314   3.540  0.00  0.00    +0.000 A 
ATOM     24  N   UNL     1       3.348   2.243   3.458  0.00  0.00    +0.000 N 
BRANCH  24  25
ATOM     25  C   UNL     1       2.428   3.146   4.053  0.00  0.00    +0.000 A 
ATOM     26  C   UNL     1       2.807   4.476   4.287  0.00  0.00    +0.000 A 
ATOM     27  C   UNL     1       1.880   5.387   4.802  0.00  0.00    +0.000 A 
ATOM     28  C   UNL     1       0.586   4.975   5.109  0.00  0.00    +0.000 A 
ATOM     29  C   UNL     1       0.222   3.643   4.932  0.00  0.00    +0.000 A 
ATOM     30  C   UNL     1       1.141   2.729   4.415  0.00  0.00    +0.000 A 
ENDBRANCH  24  25
ENDBRANCH  19  20
ENDBRANCH  18  19
ENDBRANCH   2  18
TORSDOF 9
