REMARK  Name = 
REMARK  9 active torsions:
REMARK  status: ('A' for Active; 'I' for Inactive)
REMARK    1  A    between atoms: C_1  and  C_2
REMARK    2  A    between atoms: C_7  and  C_8
REMARK    3  A    between atoms: C_10  and  C_11
REMARK    4  A    between atoms: C_11  and  N_12
REMARK    5  A    between atoms: C_13  and  C_15
REMARK    6  A    between atoms: C_15  and  O_16
REMARK    7  A    between atoms: O_16  and  C_17
REMARK    8  A    between atoms: C_21  and  O_22
REMARK    9  A    between atoms: O_22  and  C_23
REMARK                            x       y       z     vdW  Elec       q    Type
REMARK                         _______ _______ _______ _____ _____    ______ ____
ROOT
ATOM      1  N   UNL     1       3.752  -4.313   2.577  0.00  0.00    +0.000 N 
ATOM      2  C   UNL     1       4.704  -4.894   3.381  0.00  0.00    +0.000 C 
ATOM      3  O   UNL     1       5.204  -5.987   3.119  0.00  0.00    +0.000 OA
ATOM      4  H   UNL     1       3.426  -3.367   2.750  0.00  0.00    +0.000 HD
ENDROOT
BRANCH   1   5
ATOM      5  C   UNL     1       3.315  -4.962   1.351  0.00  0.00    +0.000 C 
BRANCH   5   8
ATOM      6  C   UNL     1       1.000  -2.530   0.233  0.00  0.00    +0.000 A 
ATOM      7  N   UNL     1       1.905  -2.896   1.117  0.00  0.00    +0.000 NA
ATOM      8  C   UNL     1       2.290  -4.133   0.657  0.00  0.00    +0.000 A 
ATOM      9  N   UNL     1       1.670  -4.531  -0.463  0.00  0.00    +0.000 NA
ATOM     10  O   UNL     1       0.807  -3.466  -0.747  0.00  0.00    +0.000 OA
BRANCH   6  17
ATOM     11  C   UNL     1       2.037   0.028   1.342  0.00  0.00    +0.000 C 
ATOM     12  C   UNL     1       0.671  -0.091   0.715  0.00  0.00    +0.000 A 
ATOM     13  C   UNL     1      -0.149   1.050   0.673  0.00  0.00    +0.000 A 
ATOM     14  C   UNL     1      -1.407   1.006   0.075  0.00  0.00    +0.000 A 
ATOM     15  C   UNL     1      -1.860  -0.176  -0.498  0.00  0.00    +0.000 A 
ATOM     16  C   UNL     1      -1.060  -1.323  -0.459  0.00  0.00    +0.000 A 
ATOM     17  C   UNL     1       0.207  -1.304   0.155  0.00  0.00    +0.000 A 
ENDBRANCH   6  17
ENDBRANCH   5   8
ENDBRANCH   1   5
BRANCH   2  18
ATOM     18  C   UNL     1       5.065  -4.106   4.639  0.00  0.00    +0.000 C 
BRANCH  18  19
ATOM     19  O   UNL     1       6.144  -3.214   4.381  0.00  0.00    +0.000 OA
BRANCH  19  20
ATOM     20  C   UNL     1       6.607  -2.487   5.449  0.00  0.00    +0.000 A 
ATOM     21  C   UNL     1       6.054  -2.489   6.732  0.00  0.00    +0.000 A 
ATOM     22  C   UNL     1       6.578  -1.661   7.727  0.00  0.00    +0.000 A 
ATOM     23  C   UNL     1       7.670  -0.840   7.452  0.00  0.00    +0.000 A 
ATOM     24  C   UNL     1       8.278  -0.885   6.197  0.00  0.00    +0.000 A 
ATOM     25  C   UNL     1       7.724  -1.681   5.189  0.00  0.00    +0.000 A 
BRANCH  24  26
ATOM     26  O   UNL     1       9.374  -0.116   5.863  0.00  0.00    +0.000 OA
BRANCH  26  27
ATOM     27  C   UNL     1      10.372   0.058   6.821  0.00  0.00    +0.000 A 
ATOM     28  C   UNL     1      11.172   1.185   6.687  0.00  0.00    +0.000 A 
ATOM     29  C   UNL     1      12.168   1.403   7.638  0.00  0.00    +0.000 A 
ATOM     30  C   UNL     1      12.332   0.494   8.678  0.00  0.00    +0.000 A 
ATOM     31  C   UNL     1      11.501  -0.613   8.715  0.00  0.00    +0.000 A 
ATOM     32  N   UNL     1      10.537  -0.857   7.804  0.00  0.00    +0.000 NA
ENDBRANCH  26  27
ENDBRANCH  24  26
ENDBRANCH  19  20
ENDBRANCH  18  19
ENDBRANCH   2  18
TORSDOF 8
