REMARK  Name = 
REMARK  7 active torsions:
REMARK  status: ('A' for Active; 'I' for Inactive)
REMARK    1  A    between atoms: C_1  and  N_2
REMARK    2  A    between atoms: N_2  and  C_16
REMARK    3  A    between atoms: C_3  and  C_5
REMARK    4  A    between atoms: N_7  and  C_8
REMARK    5  A    between atoms: C_20  and  C_21
REMARK    6  A    between atoms: C_21  and  O_22
REMARK    7  A    between atoms: C_21  and  C_23
REMARK                            x       y       z     vdW  Elec       q    Type
REMARK                         _______ _______ _______ _____ _____    ______ ____
ROOT
ATOM      1  C   UNL     1       2.768   1.169   0.984  0.00  0.00    +0.000 C 
ATOM      2  N   UNL     1       2.471   0.007   0.142  0.00  0.00    +0.000 N 
ATOM      3  C   UNL     1       1.607   0.079  -0.976  0.00  0.00    +0.000 C 
ATOM      4  O   UNL     1       1.633  -0.737  -1.898  0.00  0.00    +0.000 OA
ENDROOT
BRANCH   2   5
ATOM      5  C   UNL     1       3.223  -1.204   0.410  0.00  0.00    +0.000 A 
ATOM      6  C   UNL     1       2.757  -2.461  -0.001  0.00  0.00    +0.000 A 
ATOM      7  C   UNL     1       3.491  -3.628   0.239  0.00  0.00    +0.000 A 
ATOM      8  C   UNL     1       4.722  -3.564   0.883  0.00  0.00    +0.000 A 
ATOM      9  C   UNL     1       5.221  -2.331   1.317  0.00  0.00    +0.000 A 
ATOM     10  C   UNL     1       4.447  -1.172   1.102  0.00  0.00    +0.000 A 
BRANCH   9  11
ATOM     11  C   UNL     1       6.609  -2.203   1.931  0.00  0.00    +0.000 C 
BRANCH  11  12
ATOM     12  C   UNL     1       7.724  -2.560   0.959  0.00  0.00    +0.000 A 
ATOM     13  C   UNL     1       7.860  -1.848  -0.245  0.00  0.00    +0.000 A 
ATOM     14  C   UNL     1       8.857  -2.182  -1.166  0.00  0.00    +0.000 A 
ATOM     15  C   UNL     1       9.733  -3.227  -0.895  0.00  0.00    +0.000 A 
ATOM     16  C   UNL     1       9.626  -3.929   0.300  0.00  0.00    +0.000 A 
ATOM     17  C   UNL     1       8.632  -3.602   1.222  0.00  0.00    +0.000 A 
ENDBRANCH  11  12
BRANCH  11  18
ATOM     18  O   UNL     1       6.704  -2.978   3.128  0.00  0.00    +0.000 OA
ATOM     19  H   UNL     1       6.024  -3.669   3.086  0.00  0.00    +0.000 HD
ENDBRANCH  11  18
ENDBRANCH   9  11
ENDBRANCH   2   5
BRANCH   3  20
ATOM     20  C   UNL     1       0.664   1.187  -1.096  0.00  0.00    +0.000 A 
ATOM     21  C   UNL     1      -0.020   1.904  -0.136  0.00  0.00    +0.000 A 
ATOM     22  N   UNL     1      -0.815   2.825  -0.788  0.00  0.00    +0.000 N 
ATOM     23  N   UNL     1      -0.722   2.696  -2.138  0.00  0.00    +0.000 NA
ATOM     24  C   UNL     1       0.153   1.704  -2.310  0.00  0.00    +0.000 A 
BRANCH  22  25
ATOM     25  C   UNL     1      -1.644   3.804  -0.165  0.00  0.00    +0.000 A 
ATOM     26  C   UNL     1      -2.469   4.598  -0.959  0.00  0.00    +0.000 A 
ATOM     27  C   UNL     1      -3.281   5.542  -0.338  0.00  0.00    +0.000 A 
ATOM     28  C   UNL     1      -3.237   5.676   1.045  0.00  0.00    +0.000 A 
ATOM     29  C   UNL     1      -2.382   4.853   1.760  0.00  0.00    +0.000 A 
ATOM     30  N   UNL     1      -1.590   3.918   1.192  0.00  0.00    +0.000 NA
ENDBRANCH  22  25
ENDBRANCH   3  20
TORSDOF 6
