REMARK  Name = 
REMARK  4 active torsions:
REMARK  status: ('A' for Active; 'I' for Inactive)
REMARK    1  A    between atoms: N_3  and  C_4
REMARK    2  A    between atoms: C_7  and  C_8
REMARK    3  A    between atoms: N_16  and  C_17
REMARK    4  A    between atoms: N_21  and  C_22
REMARK                            x       y       z     vdW  Elec       q    Type
REMARK                         _______ _______ _______ _____ _____    ______ ____
ROOT
ATOM      1  O   UNL     1       2.621   0.051   1.239  0.00  0.00    +0.000 OA
ATOM      2  C   UNL     1       2.211  -0.072   0.092  0.00  0.00    +0.000 C 
ATOM      3  N   UNL     1       0.873  -0.158  -0.247  0.00  0.00    +0.000 N 
ATOM      4  N   UNL     1       3.031  -0.173  -1.022  0.00  0.00    +0.000 N 
ATOM      5  H   UNL     1       0.662  -0.470  -1.183  0.00  0.00    +0.000 HD
ATOM      6  H   UNL     1       2.579  -0.106  -1.920  0.00  0.00    +0.000 HD
ENDROOT
BRANCH   3   7
ATOM      7  C   UNL     1      -0.199  -0.141   0.671  0.00  0.00    +0.000 A 
ATOM      8  C   UNL     1      -0.079   0.278   1.999  0.00  0.00    +0.000 A 
ATOM      9  C   UNL     1      -1.163   0.194   2.879  0.00  0.00    +0.000 A 
ATOM     10  C   UNL     1      -2.398  -0.303   2.448  0.00  0.00    +0.000 A 
ATOM     11  C   UNL     1      -2.516  -0.679   1.106  0.00  0.00    +0.000 A 
ATOM     12  F   UNL     1      -3.673  -1.152   0.620  0.00  0.00    +0.000 F 
ATOM     13  C   UNL     1      -1.439  -0.593   0.222  0.00  0.00    +0.000 A 
BRANCH  10  14
ATOM     14  C   UNL     1      -3.490  -0.415   3.398  0.00  0.00    +0.000 A 
ATOM     15  N   UNL     1      -3.550  -0.042   4.663  0.00  0.00    +0.000 NA
ATOM     16  N   UNL     1      -4.804  -0.393   5.119  0.00  0.00    +0.000 NA
ATOM     17  C   UNL     1      -5.411  -0.956   4.102  0.00  0.00    +0.000 A 
ATOM     18  O   UNL     1      -4.651  -1.011   2.977  0.00  0.00    +0.000 OA
ENDBRANCH  10  14
ENDBRANCH   3   7
BRANCH   4  19
ATOM     19  C   UNL     1       4.413  -0.193  -1.019  0.00  0.00    +0.000 A 
ATOM     20  C   UNL     1       5.172  -0.194   0.083  0.00  0.00    +0.000 A 
ATOM     21  C   UNL     1       6.650  -0.087   0.029  0.00  0.00    +0.000 A 
ATOM     22  O   UNL     1       7.216  -0.011   1.116  0.00  0.00    +0.000 OA
ATOM     23  N   UNL     1       7.231  -0.021  -1.257  0.00  0.00    +0.000 N 
ATOM     24  C   UNL     1       6.409  -0.135  -2.381  0.00  0.00    +0.000 A 
ATOM     25  C   UNL     1       5.074  -0.223  -2.301  0.00  0.00    +0.000 A 
BRANCH  23  26
ATOM     26  C   UNL     1       8.658   0.215  -1.389  0.00  0.00    +0.000 A 
ATOM     27  C   UNL     1       9.563  -0.054  -0.350  0.00  0.00    +0.000 A 
ATOM     28  C   UNL     1      10.926   0.240  -0.463  0.00  0.00    +0.000 A 
ATOM     29  C   UNL     1      11.424   0.793  -1.635  0.00  0.00    +0.000 A 
ATOM     30  C   UNL     1      10.558   1.050  -2.691  0.00  0.00    +0.000 A 
ATOM     31  C   UNL     1       9.192   0.767  -2.569  0.00  0.00    +0.000 A 
ENDBRANCH  23  26
ENDBRANCH   4  19
TORSDOF 4
