REMARK  Name = 
REMARK  6 active torsions:
REMARK  status: ('A' for Active; 'I' for Inactive)
REMARK    1  A    between atoms: C_2  and  C_18
REMARK    2  A    between atoms: N_3  and  C_4
REMARK    3  A    between atoms: C_4  and  C_5
REMARK    4  A    between atoms: C_5  and  C_8
REMARK    5  A    between atoms: C_21  and  C_22
REMARK    6  A    between atoms: C_27  and  O_28
REMARK                            x       y       z     vdW  Elec       q    Type
REMARK                         _______ _______ _______ _____ _____    ______ ____
ROOT
ATOM      1  O   UNL     1       0.905   0.080  -0.230  0.00  0.00    +0.000 OA
ATOM      2  C   UNL     1       2.119   0.052  -0.033  0.00  0.00    +0.000 C 
ATOM      3  N   UNL     1       2.862   1.191   0.182  0.00  0.00    +0.000 N 
ATOM      4  H   UNL     1       3.874   1.078   0.156  0.00  0.00    +0.000 HD
ENDROOT
BRANCH   2   5
ATOM      5  C   UNL     1       2.875  -1.206  -0.035  0.00  0.00    +0.000 A 
ATOM      6  N   UNL     1       4.206  -1.290   0.148  0.00  0.00    +0.000 NA
ATOM      7  N   UNL     1       4.454  -2.615   0.066  0.00  0.00    +0.000 N 
ATOM      8  C   UNL     1       3.350  -3.394  -0.186  0.00  0.00    +0.000 A 
ATOM      9  C   UNL     1       2.310  -2.488  -0.245  0.00  0.00    +0.000 A 
ATOM     10  H   UNL     1       5.407  -2.954   0.176  0.00  0.00    +0.000 HD
BRANCH   8  11
ATOM     11  C   UNL     1       3.383  -4.850  -0.364  0.00  0.00    +0.000 A 
ATOM     12  C   UNL     1       2.182  -5.543  -0.600  0.00  0.00    +0.000 A 
ATOM     13  C   UNL     1       2.169  -6.923  -0.821  0.00  0.00    +0.000 A 
ATOM     14  C   UNL     1       3.360  -7.639  -0.805  0.00  0.00    +0.000 A 
ATOM     15  C   UNL     1       4.564  -6.981  -0.556  0.00  0.00    +0.000 A 
ATOM     16  C   UNL     1       4.573  -5.599  -0.336  0.00  0.00    +0.000 A 
BRANCH  16  17
ATOM     17  O   UNL     1       5.772  -4.973  -0.096  0.00  0.00    +0.000 OA
ATOM     18  H   UNL     1       6.476  -5.644  -0.124  0.00  0.00    +0.000 HD
ENDBRANCH  16  17
ENDBRANCH   8  11
ENDBRANCH   2   5
BRANCH   3  19
ATOM     19  C   UNL     1       2.257   2.503  -0.022  0.00  0.00    +0.000 C 
BRANCH  19  20
ATOM     20  C   UNL     1       2.941   3.666   0.730  0.00  0.00    +0.000 C 
ATOM     21  F   UNL     1       2.946   3.330   2.064  0.00  0.00    +0.000 F 
ATOM     22  F   UNL     1       4.265   3.695   0.389  0.00  0.00    +0.000 F 
BRANCH  20  23
ATOM     23  C   UNL     1       2.253   5.001   0.504  0.00  0.00    +0.000 A 
ATOM     24  C   UNL     1       1.684   5.688   1.596  0.00  0.00    +0.000 A 
ATOM     25  C   UNL     1       1.045   6.910   1.414  0.00  0.00    +0.000 A 
ATOM     26  C   UNL     1       0.965   7.458   0.138  0.00  0.00    +0.000 A 
ATOM     27  C   UNL     1       1.527   6.785  -0.957  0.00  0.00    +0.000 A 
ATOM     28  C   UNL     1       1.443   7.318  -2.251  0.00  0.00    +0.000 A 
ATOM     29  C   UNL     1       1.999   6.633  -3.322  0.00  0.00    +0.000 A 
ATOM     30  C   UNL     1       2.627   5.434  -3.061  0.00  0.00    +0.000 A 
ATOM     31  N   UNL     1       2.727   4.894  -1.828  0.00  0.00    +0.000 NA
ATOM     32  C   UNL     1       2.186   5.546  -0.781  0.00  0.00    +0.000 A 
ENDBRANCH  20  23
ENDBRANCH  19  20
ENDBRANCH   3  19
TORSDOF 6
