REMARK  Name = 
REMARK  4 active torsions:
REMARK  status: ('A' for Active; 'I' for Inactive)
REMARK    1  A    between atoms: C_2  and  C_19
REMARK    2  A    between atoms: N_3  and  C_4
REMARK    3  A    between atoms: C_7  and  C_8
REMARK    4  A    between atoms: C_11  and  C_12
REMARK                            x       y       z     vdW  Elec       q    Type
REMARK                         _______ _______ _______ _____ _____    ______ ____
ROOT
ATOM      1  O   UNL     1       0.913   0.100   0.149  0.00  0.00    +0.000 OA
ATOM      2  C   UNL     1       2.126  -0.071   0.043  0.00  0.00    +0.000 C 
ATOM      3  N   UNL     1       2.787  -0.534  -1.084  0.00  0.00    +0.000 N 
ATOM      4  H   UNL     1       3.766  -0.773  -0.964  0.00  0.00    +0.000 HD
ENDROOT
BRANCH   2   5
ATOM      5  C   UNL     1       2.966   0.204   1.245  0.00  0.00    +0.000 A 
ATOM      6  C   UNL     1       2.307   0.536   2.432  0.00  0.00    +0.000 A 
ATOM      7  C   UNL     1       3.058   0.834   3.558  0.00  0.00    +0.000 A 
ATOM      8  C   UNL     1       4.443   0.800   3.453  0.00  0.00    +0.000 A 
ATOM      9  C   UNL     1       5.304   1.134   4.607  0.00  0.00    +0.000 A 
ATOM     10  O   UNL     1       4.832   1.421   5.699  0.00  0.00    +0.000 OA
ATOM     11  N   UNL     1       6.661   1.105   4.375  0.00  0.00    +0.000 N 
ATOM     12  C   UNL     1       7.234   0.786   3.172  0.00  0.00    +0.000 A 
ATOM     13  C   UNL     1       6.487   0.462   2.109  0.00  0.00    +0.000 A 
ATOM     14  C   UNL     1       5.030   0.460   2.231  0.00  0.00    +0.000 A 
ATOM     15  N   UNL     1       4.321   0.143   1.113  0.00  0.00    +0.000 NA
ATOM     16  H   UNL     1       7.243   1.346   5.171  0.00  0.00    +0.000 HD
ENDBRANCH   2   5
BRANCH   3  17
ATOM     17  C   UNL     1       2.154  -0.834  -2.312  0.00  0.00    +0.000 A 
ATOM     18  C   UNL     1       0.879  -0.355  -2.625  0.00  0.00    +0.000 A 
ATOM     19  C   UNL     1       0.234  -0.728  -3.803  0.00  0.00    +0.000 A 
ATOM     20  C   UNL     1       0.854  -1.588  -4.712  0.00  0.00    +0.000 A 
ATOM     21  C   UNL     1       2.158  -2.024  -4.435  0.00  0.00    +0.000 A 
ATOM     22  C   UNL     1       2.808  -1.643  -3.247  0.00  0.00    +0.000 A 
BRANCH  20  23
ATOM     23  C   UNL     1       0.125  -2.028  -5.897  0.00  0.00    +0.000 A 
ATOM     24  N   UNL     1       0.738  -2.368  -7.042  0.00  0.00    +0.000 NA
ATOM     25  O   UNL     1      -0.261  -2.725  -7.929  0.00  0.00    +0.000 OA
ATOM     26  C   UNL     1      -1.470  -2.619  -7.320  0.00  0.00    +0.000 A 
ATOM     27  C   UNL     1      -1.282  -2.175  -6.035  0.00  0.00    +0.000 A 
BRANCH  26  28
ATOM     28  C   UNL     1      -2.661  -2.991  -8.103  0.00  0.00    +0.000 C 
ATOM     29  F   UNL     1      -2.372  -3.407  -9.361  0.00  0.00    +0.000 F 
ATOM     30  F   UNL     1      -3.352  -3.998  -7.505  0.00  0.00    +0.000 F 
ATOM     31  F   UNL     1      -3.527  -1.951  -8.220  0.00  0.00    +0.000 F 
ENDBRANCH  26  28
ENDBRANCH  20  23
ENDBRANCH   3  17
TORSDOF 4
