REMARK  Name = 
REMARK  7 active torsions:
REMARK  status: ('A' for Active; 'I' for Inactive)
REMARK    1  A    between atoms: C_1  and  O_2
REMARK    2  A    between atoms: O_2  and  C_3
REMARK    3  A    between atoms: C_6  and  C_7
REMARK    4  A    between atoms: C_14  and  N_15
REMARK    5  A    between atoms: C_16  and  C_18
REMARK    6  A    between atoms: N_22  and  C_23
REMARK    7  A    between atoms: C_26  and  O_27
REMARK                            x       y       z     vdW  Elec       q    Type
REMARK                         _______ _______ _______ _____ _____    ______ ____
ROOT
ATOM      1  N   UNL     1       4.667   1.363  -0.723  0.00  0.00    +0.000 N 
ATOM      2  C   UNL     1       5.864   1.905  -1.182  0.00  0.00    +0.000 C 
ATOM      3  O   UNL     1       6.731   2.370  -0.443  0.00  0.00    +0.000 OA
ATOM      4  H   UNL     1       4.029   0.930  -1.382  0.00  0.00    +0.000 HD
ENDROOT
BRANCH   1  10
ATOM      5  C   UNL     1       3.119   0.549   1.016  0.00  0.00    +0.000 A 
ATOM      6  C   UNL     1       2.763   0.467   2.373  0.00  0.00    +0.000 A 
ATOM      7  C   UNL     1       3.559   1.047   3.364  0.00  0.00    +0.000 A 
ATOM      8  C   UNL     1       4.735   1.724   3.038  0.00  0.00    +0.000 A 
ATOM      9  C   UNL     1       5.037   1.853   1.674  0.00  0.00    +0.000 A 
ATOM     10  C   UNL     1       4.280   1.259   0.652  0.00  0.00    +0.000 A 
BRANCH   8  11
ATOM     11  C   UNL     1       5.636   2.254   4.079  0.00  0.00    +0.000 A 
ATOM     12  C   UNL     1       7.022   2.337   3.903  0.00  0.00    +0.000 A 
ATOM     13  C   UNL     1       7.822   2.794   4.944  0.00  0.00    +0.000 A 
ATOM     14  C   UNL     1       7.221   3.163   6.142  0.00  0.00    +0.000 A 
ATOM     15  C   UNL     1       5.844   3.056   6.241  0.00  0.00    +0.000 A 
ATOM     16  N   UNL     1       5.046   2.610   5.249  0.00  0.00    +0.000 NA
ENDBRANCH   8  11
BRANCH   5  18
ATOM     17  C   UNL     1       1.149  -0.626   0.397  0.00  0.00    +0.000 C 
ATOM     18  O   UNL     1       2.400  -0.053   0.008  0.00  0.00    +0.000 OA
ENDBRANCH   5  18
ENDBRANCH   1  10
BRANCH   2  19
ATOM     19  C   UNL     1       6.094   1.914  -2.608  0.00  0.00    +0.000 A 
ATOM     20  C   UNL     1       5.220   2.196  -3.638  0.00  0.00    +0.000 A 
ATOM     21  N   UNL     1       5.885   2.415  -4.813  0.00  0.00    +0.000 NA
ATOM     22  C   UNL     1       7.157   2.273  -4.517  0.00  0.00    +0.000 A 
ATOM     23  N   UNL     1       7.356   1.891  -3.207  0.00  0.00    +0.000 N 
BRANCH  23  24
ATOM     24  C   UNL     1       8.615   1.537  -2.634  0.00  0.00    +0.000 A 
ATOM     25  C   UNL     1       9.801   2.131  -3.093  0.00  0.00    +0.000 A 
ATOM     26  C   UNL     1      11.028   1.801  -2.501  0.00  0.00    +0.000 A 
ATOM     27  C   UNL     1      11.068   0.867  -1.470  0.00  0.00    +0.000 A 
ATOM     28  C   UNL     1       9.905   0.256  -1.023  0.00  0.00    +0.000 A 
ATOM     29  C   UNL     1       8.680   0.584  -1.606  0.00  0.00    +0.000 A 
BRANCH  27  30
ATOM     30  O   UNL     1      12.238   0.515  -0.867  0.00  0.00    +0.000 OA
ATOM     31  H   UNL     1      12.966   1.000  -1.288  0.00  0.00    +0.000 HD
ENDBRANCH  27  30
ENDBRANCH  23  24
ENDBRANCH   2  19
TORSDOF 6
