REMARK  Name = 
REMARK  5 active torsions:
REMARK  status: ('A' for Active; 'I' for Inactive)
REMARK    1  A    between atoms: C_2  and  C_21
REMARK    2  A    between atoms: N_3  and  C_4
REMARK    3  A    between atoms: C_6  and  C_7
REMARK    4  A    between atoms: C_13  and  C_14
REMARK    5  A    between atoms: C_28  and  O_29
REMARK                            x       y       z     vdW  Elec       q    Type
REMARK                         _______ _______ _______ _____ _____    ______ ____
ROOT
ATOM      1  C   UNL     1       2.281   0.259  -2.495  0.00  0.00    +0.000 A 
ATOM      2  C   UNL     1       1.173   1.094  -2.628  0.00  0.00    +0.000 A 
ATOM      3  C   UNL     1       0.593   1.330  -3.875  0.00  0.00    +0.000 A 
ATOM      4  C   UNL     1       1.133   0.697  -5.002  0.00  0.00    +0.000 A 
ATOM      5  C   UNL     1       2.293  -0.099  -4.925  0.00  0.00    +0.000 A 
ATOM      6  C   UNL     1       2.852  -0.305  -3.647  0.00  0.00    +0.000 A 
ENDROOT
BRANCH   3   7
ATOM      7  C   UNL     1      -0.520   2.260  -3.995  0.00  0.00    +0.000 A 
ATOM      8  N   UNL     1      -1.179   2.534  -5.136  0.00  0.00    +0.000 NA
ATOM      9  N   UNL     1      -2.039   3.461  -4.695  0.00  0.00    +0.000 N 
ATOM     10  N   UNL     1      -1.953   3.782  -3.402  0.00  0.00    +0.000 NA
ATOM     11  N   UNL     1      -0.979   3.015  -2.936  0.00  0.00    +0.000 NA
ATOM     12  H   UNL     1      -2.716   3.904  -5.307  0.00  0.00    +0.000 HD
ENDBRANCH   3   7
BRANCH   5  13
ATOM     13  C   UNL     1       2.917  -0.640  -6.158  0.00  0.00    +0.000 A 
ATOM     14  C   UNL     1       2.870   0.081  -7.362  0.00  0.00    +0.000 A 
ATOM     15  C   UNL     1       3.480  -0.429  -8.498  0.00  0.00    +0.000 A 
ATOM     16  N   UNL     1       4.144  -1.599  -8.526  0.00  0.00    +0.000 NA
ATOM     17  C   UNL     1       4.186  -2.290  -7.368  0.00  0.00    +0.000 A 
ATOM     18  C   UNL     1       3.597  -1.865  -6.185  0.00  0.00    +0.000 A 
ENDBRANCH   5  13
BRANCH   1  21
ATOM     19  O   UNL     1       1.209   0.728   0.205  0.00  0.00    +0.000 OA
ATOM     20  C   UNL     1       2.318   0.249  -0.003  0.00  0.00    +0.000 C 
ATOM     21  N   UNL     1       2.875  -0.016  -1.244  0.00  0.00    +0.000 N 
ATOM     22  H   UNL     1       3.788  -0.458  -1.252  0.00  0.00    +0.000 HD
BRANCH  20  23
ATOM     23  C   UNL     1       3.135  -0.123   1.172  0.00  0.00    +0.000 A 
ATOM     24  C   UNL     1       2.480  -0.598   2.315  0.00  0.00    +0.000 A 
ATOM     25  F   UNL     1       1.155  -0.805   2.323  0.00  0.00    +0.000 F 
ATOM     26  C   UNL     1       3.184  -0.902   3.480  0.00  0.00    +0.000 A 
ATOM     27  C   UNL     1       4.564  -0.731   3.519  0.00  0.00    +0.000 A 
ATOM     28  C   UNL     1       5.220  -0.262   2.386  0.00  0.00    +0.000 A 
ATOM     29  F   UNL     1       6.549  -0.090   2.416  0.00  0.00    +0.000 F 
ATOM     30  C   UNL     1       4.523   0.041   1.215  0.00  0.00    +0.000 A 
BRANCH  30  31
ATOM     31  O   UNL     1       5.223   0.503   0.131  0.00  0.00    +0.000 OA
ATOM     32  H   UNL     1       6.131   0.708   0.434  0.00  0.00    +0.000 HD
ENDBRANCH  30  31
ENDBRANCH  20  23
ENDBRANCH   1  21
TORSDOF 5
