REMARK  Name = 
REMARK  5 active torsions:
REMARK  status: ('A' for Active; 'I' for Inactive)
REMARK    1  A    between atoms: C_2  and  C_23
REMARK    2  A    between atoms: N_3  and  C_4
REMARK    3  A    between atoms: C_6  and  N_7
REMARK    4  A    between atoms: C_8  and  C_10
REMARK    5  A    between atoms: C_16  and  C_17
REMARK                            x       y       z     vdW  Elec       q    Type
REMARK                         _______ _______ _______ _____ _____    ______ ____
ROOT
ATOM      1  C   UNL     1       2.419  -0.640   2.291  0.00  0.00    +0.000 A 
ATOM      2  C   UNL     1       1.391  -1.579   2.187  0.00  0.00    +0.000 A 
ATOM      3  C   UNL     1       0.771  -2.126   3.309  0.00  0.00    +0.000 A 
ATOM      4  C   UNL     1       1.185  -1.708   4.574  0.00  0.00    +0.000 A 
ATOM      5  C   UNL     1       2.259  -0.819   4.698  0.00  0.00    +0.000 A 
ATOM      6  C   UNL     1       2.887  -0.298   3.559  0.00  0.00    +0.000 A 
ENDROOT
BRANCH   1   9
ATOM      7  O   UNL     1       1.182  -0.296  -0.312  0.00  0.00    +0.000 OA
ATOM      8  C   UNL     1       2.346   0.023  -0.088  0.00  0.00    +0.000 C 
ATOM      9  N   UNL     1       2.986  -0.037   1.141  0.00  0.00    +0.000 N 
ATOM     10  H   UNL     1       3.812   0.528   1.273  0.00  0.00    +0.000 HD
BRANCH   8  11
ATOM     11  C   UNL     1       3.161   0.621  -1.194  0.00  0.00    +0.000 A 
ATOM     12  C   UNL     1       2.495   1.124  -2.247  0.00  0.00    +0.000 A 
ATOM     13  C   UNL     1       3.216   1.678  -3.363  0.00  0.00    +0.000 A 
ATOM     14  C   UNL     1       4.556   1.681  -3.370  0.00  0.00    +0.000 A 
ATOM     15  C   UNL     1       5.301   1.104  -2.216  0.00  0.00    +0.000 A 
ATOM     16  O   UNL     1       6.523   1.064  -2.208  0.00  0.00    +0.000 OA
ATOM     17  N   UNL     1       4.537   0.621  -1.180  0.00  0.00    +0.000 N 
ATOM     18  H   UNL     1       5.046   0.149  -0.445  0.00  0.00    +0.000 HD
ENDBRANCH   8  11
ENDBRANCH   1   9
BRANCH   3  19
ATOM     19  N   UNL     1      -0.287  -3.053   3.196  0.00  0.00    +0.000 N 
ATOM     20  C   UNL     1      -0.585  -3.790   2.057  0.00  0.00    +0.000 C 
ATOM     21  O   UNL     1       0.100  -3.872   1.047  0.00  0.00    +0.000 OA
ATOM     22  H   UNL     1      -0.854  -3.175   4.024  0.00  0.00    +0.000 HD
BRANCH  20  23
ATOM     23  C   UNL     1      -1.868  -4.541   2.084  0.00  0.00    +0.000 A 
ATOM     24  C   UNL     1      -2.280  -5.137   3.291  0.00  0.00    +0.000 A 
ATOM     25  C   UNL     1      -3.517  -5.769   3.376  0.00  0.00    +0.000 A 
ATOM     26  C   UNL     1      -4.338  -5.819   2.256  0.00  0.00    +0.000 A 
ATOM     27  C   UNL     1      -3.903  -5.281   1.044  0.00  0.00    +0.000 A 
ATOM     28  F   UNL     1      -4.727  -5.382  -0.007  0.00  0.00    +0.000 F 
ATOM     29  C   UNL     1      -2.662  -4.649   0.923  0.00  0.00    +0.000 A 
BRANCH  29  30
ATOM     30  C   UNL     1      -2.206  -4.161  -0.430  0.00  0.00    +0.000 C 
ATOM     31  F   UNL     1      -1.256  -4.970  -0.978  0.00  0.00    +0.000 F 
ATOM     32  F   UNL     1      -3.202  -4.120  -1.367  0.00  0.00    +0.000 F 
ENDBRANCH  29  30
ENDBRANCH  20  23
ENDBRANCH   3  19
TORSDOF 5
