REMARK  Name = 
REMARK  5 active torsions:
REMARK  status: ('A' for Active; 'I' for Inactive)
REMARK    1  A    between atoms: C_2  and  C_17
REMARK    2  A    between atoms: N_3  and  C_4
REMARK    3  A    between atoms: C_4  and  C_5
REMARK    4  A    between atoms: C_8  and  C_9
REMARK    5  A    between atoms: N_19  and  C_20
REMARK                            x       y       z     vdW  Elec       q    Type
REMARK                         _______ _______ _______ _____ _____    ______ ____
ROOT
ATOM      1  O   UNL     1       0.968   0.226   0.320  0.00  0.00    +0.000 OA
ATOM      2  C   UNL     1       2.178   0.069   0.177  0.00  0.00    +0.000 C 
ATOM      3  N   UNL     1       2.946  -0.591   1.106  0.00  0.00    +0.000 N 
ATOM      4  H   UNL     1       3.902  -0.839   0.873  0.00  0.00    +0.000 HD
ENDROOT
BRANCH   2   5
ATOM      5  C   UNL     1       2.888   0.570  -0.984  0.00  0.00    +0.000 A 
ATOM      6  C   UNL     1       2.321   1.285  -2.013  0.00  0.00    +0.000 A 
ATOM      7  N   UNL     1       3.339   1.548  -2.895  0.00  0.00    +0.000 N 
ATOM      8  N   UNL     1       4.484   1.005  -2.404  0.00  0.00    +0.000 NA
ATOM      9  N   UNL     1       4.220   0.414  -1.242  0.00  0.00    +0.000 NA
BRANCH   7  10
ATOM     10  C   UNL     1       3.277   2.238  -4.128  0.00  0.00    +0.000 A 
ATOM     11  C   UNL     1       2.096   2.856  -4.553  0.00  0.00    +0.000 A 
ATOM     12  F   UNL     1       0.989   2.873  -3.799  0.00  0.00    +0.000 F 
ATOM     13  C   UNL     1       2.016   3.508  -5.785  0.00  0.00    +0.000 A 
ATOM     14  C   UNL     1       3.126   3.558  -6.620  0.00  0.00    +0.000 A 
ATOM     15  C   UNL     1       4.315   2.962  -6.208  0.00  0.00    +0.000 A 
ATOM     16  C   UNL     1       4.389   2.310  -4.970  0.00  0.00    +0.000 A 
ATOM     17  F   UNL     1       5.564   1.753  -4.648  0.00  0.00    +0.000 F 
ENDBRANCH   7  10
ENDBRANCH   2   5
BRANCH   3  18
ATOM     18  C   UNL     1       2.290  -1.207   2.231  0.00  0.00    +0.000 C 
BRANCH  18  19
ATOM     19  C   UNL     1       3.276  -1.830   3.145  0.00  0.00    +0.000 A 
ATOM     20  N   UNL     1       4.059  -2.835   2.733  0.00  0.00    +0.000 NA
ATOM     21  O   UNL     1       4.793  -3.212   3.844  0.00  0.00    +0.000 OA
ATOM     22  C   UNL     1       4.452  -2.436   4.913  0.00  0.00    +0.000 A 
ATOM     23  C   UNL     1       3.504  -1.527   4.506  0.00  0.00    +0.000 A 
BRANCH  22  24
ATOM     24  C   UNL     1       5.104  -2.740   6.181  0.00  0.00    +0.000 A 
ATOM     25  C   UNL     1       6.058  -3.767   6.285  0.00  0.00    +0.000 A 
ATOM     26  C   UNL     1       6.648  -4.073   7.514  0.00  0.00    +0.000 A 
ATOM     27  C   UNL     1       6.289  -3.354   8.645  0.00  0.00    +0.000 A 
ATOM     28  F   UNL     1       6.844  -3.656   9.825  0.00  0.00    +0.000 F 
ATOM     29  C   UNL     1       5.357  -2.328   8.570  0.00  0.00    +0.000 A 
ATOM     30  C   UNL     1       4.768  -2.020   7.341  0.00  0.00    +0.000 A 
ENDBRANCH  22  24
ENDBRANCH  18  19
ENDBRANCH   3  18
TORSDOF 5
