REMARK  Name = 
REMARK  6 active torsions:
REMARK  status: ('A' for Active; 'I' for Inactive)
REMARK    1  A    between atoms: C_2  and  C_14
REMARK    2  A    between atoms: N_3  and  C_4
REMARK    3  A    between atoms: C_4  and  C_5
REMARK    4  A    between atoms: C_18  and  O_19
REMARK    5  A    between atoms: O_19  and  C_20
REMARK    6  A    between atoms: C_20  and  C_21
REMARK                            x       y       z     vdW  Elec       q    Type
REMARK                         _______ _______ _______ _____ _____    ______ ____
ROOT
ATOM      1  C   UNL     1       3.024  -1.290  -0.114  0.00  0.00    +0.000 A 
ATOM      2  C   UNL     1       2.600  -2.162  -1.039  0.00  0.00    +0.000 A 
ATOM      3  C   UNL     1       3.354  -3.414  -1.250  0.00  0.00    +0.000 A 
ATOM      4  O   UNL     1       3.013  -4.172  -2.138  0.00  0.00    +0.000 OA
ATOM      5  C   UNL     1       4.516  -3.667  -0.331  0.00  0.00    +0.000 A 
ATOM      6  C   UNL     1       4.803  -2.698   0.547  0.00  0.00    +0.000 A 
ATOM      7  O   UNL     1       4.145  -1.495   0.670  0.00  0.00    +0.000 OA
ENDROOT
BRANCH   1   9
ATOM      8  O   UNL     1       1.220   0.186  -0.608  0.00  0.00    +0.000 OA
ATOM      9  C   UNL     1       2.231  -0.037   0.057  0.00  0.00    +0.000 C 
ATOM     10  N   UNL     1       2.745   0.825   0.990  0.00  0.00    +0.000 N 
ATOM     11  H   UNL     1       3.663   0.624   1.364  0.00  0.00    +0.000 HD
BRANCH  10  12
ATOM     12  C   UNL     1       2.136   2.115   1.232  0.00  0.00    +0.000 C 
BRANCH  12  13
ATOM     13  C   UNL     1       1.660   2.321   2.654  0.00  0.00    +0.000 A 
ATOM     14  C   UNL     1       0.340   1.960   2.992  0.00  0.00    +0.000 A 
ATOM     15  C   UNL     1      -0.186   2.161   4.281  0.00  0.00    +0.000 A 
ATOM     16  C   UNL     1       0.630   2.760   5.254  0.00  0.00    +0.000 A 
ATOM     17  C   UNL     1       0.485   3.148   6.614  0.00  0.00    +0.000 A 
ATOM     18  C   UNL     1       1.688   3.702   6.990  0.00  0.00    +0.000 A 
ATOM     19  O   UNL     1       2.572   3.669   5.960  0.00  0.00    +0.000 OA
ATOM     20  C   UNL     1       1.927   3.100   4.903  0.00  0.00    +0.000 A 
ATOM     21  C   UNL     1       2.487   2.889   3.640  0.00  0.00    +0.000 A 
ENDBRANCH  12  13
ENDBRANCH  10  12
ENDBRANCH   1   9
BRANCH   5  22
ATOM     22  O   UNL     1       5.277  -4.824  -0.326  0.00  0.00    +0.000 OA
BRANCH  22  23
ATOM     23  C   UNL     1       5.420  -5.515  -1.569  0.00  0.00    +0.000 C 
BRANCH  23  24
ATOM     24  C   UNL     1       6.760  -6.221  -1.578  0.00  0.00    +0.000 A 
ATOM     25  C   UNL     1       6.885  -7.540  -1.108  0.00  0.00    +0.000 A 
ATOM     26  C   UNL     1       8.127  -8.177  -1.107  0.00  0.00    +0.000 A 
ATOM     27  C   UNL     1       9.247  -7.498  -1.570  0.00  0.00    +0.000 A 
ATOM     28  F   UNL     1      10.439  -8.110  -1.571  0.00  0.00    +0.000 F 
ATOM     29  C   UNL     1       9.150  -6.191  -2.031  0.00  0.00    +0.000 A 
ATOM     30  C   UNL     1       7.909  -5.551  -2.033  0.00  0.00    +0.000 A 
ENDBRANCH  23  24
ENDBRANCH  22  23
ENDBRANCH   5  22
TORSDOF 6
