REMARK  Name = 
REMARK  4 active torsions:
REMARK  status: ('A' for Active; 'I' for Inactive)
REMARK    1  A    between atoms: C_2  and  C_3
REMARK    2  A    between atoms: C_2  and  C_11
REMARK    3  A    between atoms: C_3  and  C_4
REMARK    4  A    between atoms: C_14  and  C_15
REMARK                            x       y       z     vdW  Elec       q    Type
REMARK                         _______ _______ _______ _____ _____    ______ ____
ROOT
ATOM      1  C   UNL     1       2.991  -1.419   0.397  0.00  0.00    +0.000 A 
ATOM      2  C   UNL     1       2.348  -2.592  -0.019  0.00  0.00    +0.000 A 
ATOM      3  C   UNL     1       2.827  -3.862   0.358  0.00  0.00    +0.000 A 
ATOM      4  C   UNL     1       3.971  -4.002   1.157  0.00  0.00    +0.000 A 
ATOM      5  C   UNL     1       4.643  -2.797   1.475  0.00  0.00    +0.000 A 
ATOM      6  C   UNL     1       4.164  -1.533   1.126  0.00  0.00    +0.000 A 
ENDROOT
BRANCH   4   7
ATOM      7  C   UNL     1       4.508  -5.314   1.622  0.00  0.00    +0.000 A 
ATOM      8  C   UNL     1       4.006  -6.573   1.295  0.00  0.00    +0.000 A 
ATOM      9  N   UNL     1       4.566  -7.767   1.659  0.00  0.00    +0.000 NA
ATOM     10  C   UNL     1       5.766  -7.755   2.296  0.00  0.00    +0.000 A 
ATOM     11  C   UNL     1       6.507  -8.898   2.625  0.00  0.00    +0.000 A 
ATOM     12  F   UNL     1       5.981 -10.118   2.430  0.00  0.00    +0.000 F 
ATOM     13  C   UNL     1       7.812  -8.830   3.135  0.00  0.00    +0.000 A 
ATOM     14  C   UNL     1       8.411  -7.597   3.352  0.00  0.00    +0.000 A 
ATOM     15  C   UNL     1       7.664  -6.449   3.146  0.00  0.00    +0.000 A 
ATOM     16  C   UNL     1       6.359  -6.535   2.642  0.00  0.00    +0.000 A 
ATOM     17  C   UNL     1       5.655  -5.359   2.419  0.00  0.00    +0.000 A 
ENDBRANCH   4   7
BRANCH   1  19
ATOM     18  O   UNL     1       1.388  -0.051  -0.650  0.00  0.00    +0.000 OA
ATOM     19  C   UNL     1       2.392  -0.094   0.060  0.00  0.00    +0.000 C 
BRANCH  19  20
ATOM     20  C   UNL     1       3.001   1.178   0.604  0.00  0.00    +0.000 C 
BRANCH  20  21
ATOM     21  C   UNL     1       4.276   1.608  -0.079  0.00  0.00    +0.000 A 
ATOM     22  N   UNL     1       5.341   1.747   0.651  0.00  0.00    +0.000 NA
ATOM     23  N   UNL     1       6.474   2.156   0.010  0.00  0.00    +0.000 N 
ATOM     24  C   UNL     1       6.586   2.449  -1.325  0.00  0.00    +0.000 A 
ATOM     25  O   UNL     1       7.630   2.836  -1.861  0.00  0.00    +0.000 OA
ATOM     26  C   UNL     1       5.354   2.268  -2.127  0.00  0.00    +0.000 A 
ATOM     27  C   UNL     1       4.228   1.860  -1.538  0.00  0.00    +0.000 A 
ATOM     28  H   UNL     1       7.303   2.284   0.584  0.00  0.00    +0.000 HD
ENDBRANCH  20  21
ENDBRANCH  19  20
ENDBRANCH   1  19
TORSDOF 4
