REMARK  Name = 
REMARK  8 active torsions:
REMARK  status: ('A' for Active; 'I' for Inactive)
REMARK    1  A    between atoms: C_2  and  C_3
REMARK    2  A    between atoms: C_3  and  C_4
REMARK    3  A    between atoms: C_8  and  O_9
REMARK    4  A    between atoms: O_9  and  C_10
REMARK    5  A    between atoms: C_10  and  C_11
REMARK    6  A    between atoms: N_18  and  C_19
REMARK    7  A    between atoms: C_19  and  C_20
REMARK    8  A    between atoms: C_21  and  C_22
REMARK                            x       y       z     vdW  Elec       q    Type
REMARK                         _______ _______ _______ _____ _____    ______ ____
ROOT
ATOM      1  O   UNL     1       1.393   0.508   0.817  0.00  0.00    +0.000 OA
ATOM      2  C   UNL     1       2.149   0.116  -0.067  0.00  0.00    +0.000 C 
ATOM      3  N   UNL     1       2.481   0.870  -1.164  0.00  0.00    +0.000 N 
ATOM      4  H   UNL     1       3.075   0.509  -1.900  0.00  0.00    +0.000 HD
ENDROOT
BRANCH   3   5
ATOM      5  C   UNL     1       1.908   2.170  -1.365  0.00  0.00    +0.000 C 
BRANCH   5   6
ATOM      6  C   UNL     1       1.764   2.446  -2.817  0.00  0.00    +0.000 A 
ATOM      7  C   UNL     1       1.342   3.618  -3.420  0.00  0.00    +0.000 A 
ATOM      8  O   UNL     1       1.388   3.418  -4.775  0.00  0.00    +0.000 OA
ATOM      9  C   UNL     1       1.835   2.141  -4.912  0.00  0.00    +0.000 A 
ATOM     10  N   UNL     1       2.094   1.513  -3.787  0.00  0.00    +0.000 NA
BRANCH   7  11
ATOM     11  C   UNL     1       0.925   4.933  -2.949  0.00  0.00    +0.000 A 
ATOM     12  C   UNL     1       1.087   6.068  -3.753  0.00  0.00    +0.000 A 
ATOM     13  C   UNL     1       0.776   7.340  -3.262  0.00  0.00    +0.000 A 
ATOM     14  C   UNL     1       0.298   7.494  -1.963  0.00  0.00    +0.000 A 
ATOM     15  C   UNL     1       0.104   6.376  -1.162  0.00  0.00    +0.000 A 
ATOM     16  C   UNL     1       0.406   5.106  -1.656  0.00  0.00    +0.000 A 
ENDBRANCH   7  11
ENDBRANCH   5   6
ENDBRANCH   3   5
BRANCH   2  17
ATOM     17  C   UNL     1       2.834  -1.228  -0.031  0.00  0.00    +0.000 C 
BRANCH  17  18
ATOM     18  C   UNL     1       1.891  -2.400   0.025  0.00  0.00    +0.000 A 
ATOM     19  C   UNL     1       0.966  -2.663  -0.992  0.00  0.00    +0.000 A 
ATOM     20  C   UNL     1       0.176  -3.815  -0.944  0.00  0.00    +0.000 A 
ATOM     21  C   UNL     1       0.334  -4.728   0.105  0.00  0.00    +0.000 A 
ATOM     22  C   UNL     1       1.275  -4.489   1.105  0.00  0.00    +0.000 A 
ATOM     23  C   UNL     1       2.008  -3.303   1.087  0.00  0.00    +0.000 A 
BRANCH  22  24
ATOM     24  O   UNL     1       1.430  -5.471   2.049  0.00  0.00    +0.000 OA
BRANCH  24  25
ATOM     25  C   UNL     1       2.710  -5.461   2.688  0.00  0.00    +0.000 C 
BRANCH  25  26
ATOM     26  C   UNL     1       2.978  -6.794   3.313  0.00  0.00    +0.000 A 
ATOM     27  C   UNL     1       2.204  -7.276   4.371  0.00  0.00    +0.000 A 
ATOM     28  C   UNL     1       2.509  -8.506   4.938  0.00  0.00    +0.000 A 
ATOM     29  C   UNL     1       3.583  -9.216   4.425  0.00  0.00    +0.000 A 
ATOM     30  N   UNL     1       4.353  -8.783   3.406  0.00  0.00    +0.000 NA
ATOM     31  C   UNL     1       4.033  -7.587   2.872  0.00  0.00    +0.000 A 
ENDBRANCH  25  26
ENDBRANCH  24  25
ENDBRANCH  22  24
ENDBRANCH  17  18
ENDBRANCH   2  17
TORSDOF 8
