REMARK  Name = 
REMARK  9 active torsions:
REMARK  status: ('A' for Active; 'I' for Inactive)
REMARK    1  A    between atoms: C_2  and  C_18
REMARK    2  A    between atoms: N_3  and  C_4
REMARK    3  A    between atoms: C_4  and  C_5
REMARK    4  A    between atoms: C_10  and  O_11
REMARK    5  A    between atoms: O_11  and  C_12
REMARK    6  A    between atoms: C_18  and  O_19
REMARK    7  A    between atoms: C_18  and  C_20
REMARK    8  A    between atoms: C_24  and  O_25
REMARK    9  A    between atoms: O_25  and  C_26
REMARK                            x       y       z     vdW  Elec       q    Type
REMARK                         _______ _______ _______ _____ _____    ______ ____
ROOT
ATOM      1  O   UNL     1       3.003  -0.647   0.777  0.00  0.00    +0.000 OA
ATOM      2  C   UNL     1       3.243   0.188  -0.096  0.00  0.00    +0.000 C 
ATOM      3  N   UNL     1       2.928   1.531   0.031  0.00  0.00    +0.000 N 
ATOM      4  H   UNL     1       3.189   2.176  -0.702  0.00  0.00    +0.000 HD
ENDROOT
BRANCH   3   5
ATOM      5  C   UNL     1       2.275   2.102   1.197  0.00  0.00    +0.000 C 
BRANCH   5   6
ATOM      6  C   UNL     1       3.192   2.816   2.163  0.00  0.00    +0.000 A 
ATOM      7  C   UNL     1       3.781   2.071   3.206  0.00  0.00    +0.000 A 
ATOM      8  C   UNL     1       4.527   2.693   4.210  0.00  0.00    +0.000 A 
ATOM      9  C   UNL     1       4.700   4.070   4.207  0.00  0.00    +0.000 A 
ATOM     10  C   UNL     1       4.160   4.822   3.170  0.00  0.00    +0.000 A 
ATOM     11  C   UNL     1       3.476   4.192   2.108  0.00  0.00    +0.000 A 
BRANCH  11  12
ATOM     12  O   UNL     1       3.073   4.959   1.029  0.00  0.00    +0.000 OA
BRANCH  12  13
ATOM     13  C   UNL     1       4.085   5.732   0.448  0.00  0.00    +0.000 A 
ATOM     14  C   UNL     1       3.723   6.925  -0.161  0.00  0.00    +0.000 A 
ATOM     15  C   UNL     1       4.727   7.695  -0.750  0.00  0.00    +0.000 A 
ATOM     16  C   UNL     1       6.049   7.260  -0.697  0.00  0.00    +0.000 A 
ATOM     17  C   UNL     1       6.316   6.064  -0.054  0.00  0.00    +0.000 A 
ATOM     18  N   UNL     1       5.363   5.283   0.494  0.00  0.00    +0.000 NA
ENDBRANCH  12  13
ENDBRANCH  11  12
ENDBRANCH   5   6
ENDBRANCH   3   5
BRANCH   2  19
ATOM     19  C   UNL     1       4.021  -0.185  -1.382  0.00  0.00    +0.000 C 
BRANCH  19  20
ATOM     20  C   UNL     1       3.287  -0.929  -2.491  0.00  0.00    +0.000 A 
ATOM     21  C   UNL     1       3.783  -0.783  -3.800  0.00  0.00    +0.000 A 
ATOM     22  C   UNL     1       3.308  -1.571  -4.848  0.00  0.00    +0.000 A 
ATOM     23  C   UNL     1       2.309  -2.515  -4.620  0.00  0.00    +0.000 A 
ATOM     24  C   UNL     1       1.737  -2.633  -3.354  0.00  0.00    +0.000 A 
ATOM     25  C   UNL     1       2.253  -1.860  -2.288  0.00  0.00    +0.000 A 
BRANCH  24  26
ATOM     26  O   UNL     1       0.708  -3.463  -3.017  0.00  0.00    +0.000 OA
BRANCH  26  27
ATOM     27  C   UNL     1      -0.059  -4.122  -4.019  0.00  0.00    +0.000 C 
ATOM     28  F   UNL     1      -0.081  -3.481  -5.207  0.00  0.00    +0.000 F 
ATOM     29  F   UNL     1       0.402  -5.378  -4.205  0.00  0.00    +0.000 F 
ATOM     30  F   UNL     1      -1.339  -4.207  -3.588  0.00  0.00    +0.000 F 
ENDBRANCH  26  27
ENDBRANCH  24  26
ENDBRANCH  19  20
BRANCH  19  31
ATOM     31  O   UNL     1       5.153  -0.992  -1.045  0.00  0.00    +0.000 OA
ATOM     32  H   UNL     1       4.810  -1.681  -0.445  0.00  0.00    +0.000 HD
ENDBRANCH  19  31
ENDBRANCH   2  19
TORSDOF 9
