REMARK  Name = 
REMARK  4 active torsions:
REMARK  status: ('A' for Active; 'I' for Inactive)
REMARK    1  A    between atoms: C_2  and  C_3
REMARK    2  A    between atoms: C_3  and  C_4
REMARK    3  A    between atoms: C_7  and  C_8
REMARK    4  A    between atoms: N_21  and  C_22
REMARK                            x       y       z     vdW  Elec       q    Type
REMARK                         _______ _______ _______ _____ _____    ______ ____
ROOT
ATOM      1  O   UNL     1       1.048   0.250  -0.014  0.00  0.00    +0.000 OA
ATOM      2  C   UNL     1       2.273   0.068   0.004  0.00  0.00    +0.000 C 
ATOM      3  N   UNL     1       3.051   1.115   0.387  0.00  0.00    +0.000 N 
ATOM      4  C   UNL     1       4.421   1.133   0.480  0.00  0.00    +0.000 A 
ATOM      5  N   UNL     1       5.276   0.371  -0.164  0.00  0.00    +0.000 NA
ATOM      6  C   UNL     1       6.483   0.918   0.124  0.00  0.00    +0.000 A 
ATOM      7  N   UNL     1       6.452   1.991   0.915  0.00  0.00    +0.000 NA
ATOM      8  N   UNL     1       5.136   2.049   1.252  0.00  0.00    +0.000 N 
ATOM      9  H   UNL     1       2.519   1.901   0.737  0.00  0.00    +0.000 HD
ENDROOT
BRANCH   8  10
ATOM     10  C   UNL     1       4.693   2.885   2.304  0.00  0.00    +0.000 A 
ATOM     11  C   UNL     1       5.435   4.025   2.644  0.00  0.00    +0.000 A 
ATOM     12  C   UNL     1       4.991   4.850   3.680  0.00  0.00    +0.000 A 
ATOM     13  C   UNL     1       3.834   4.524   4.383  0.00  0.00    +0.000 A 
ATOM     14  F   UNL     1       3.418   5.315   5.378  0.00  0.00    +0.000 F 
ATOM     15  C   UNL     1       3.111   3.383   4.078  0.00  0.00    +0.000 A 
ATOM     16  C   UNL     1       3.550   2.566   3.047  0.00  0.00    +0.000 A 
ATOM     17  F   UNL     1       2.875   1.428   2.847  0.00  0.00    +0.000 F 
ENDBRANCH   8  10
BRANCH   2  18
ATOM     18  C   UNL     1       2.859  -1.298  -0.292  0.00  0.00    +0.000 C 
BRANCH  18  19
ATOM     19  C   UNL     1       2.554  -1.713  -1.674  0.00  0.00    +0.000 A 
ATOM     20  C   UNL     1       1.343  -2.027  -2.240  0.00  0.00    +0.000 A 
ATOM     21  O   UNL     1       1.556  -2.357  -3.538  0.00  0.00    +0.000 OA
ATOM     22  C   UNL     1       2.917  -2.226  -3.701  0.00  0.00    +0.000 A 
ATOM     23  N   UNL     1       3.551  -1.857  -2.613  0.00  0.00    +0.000 NA
BRANCH  22  24
ATOM     24  C   UNL     1       3.442  -2.512  -5.034  0.00  0.00    +0.000 A 
ATOM     25  C   UNL     1       2.587  -2.854  -6.093  0.00  0.00    +0.000 A 
ATOM     26  C   UNL     1       3.101  -3.122  -7.362  0.00  0.00    +0.000 A 
ATOM     27  C   UNL     1       4.472  -3.047  -7.576  0.00  0.00    +0.000 A 
ATOM     28  F   UNL     1       4.964  -3.307  -8.793  0.00  0.00    +0.000 F 
ATOM     29  C   UNL     1       5.338  -2.706  -6.543  0.00  0.00    +0.000 A 
ATOM     30  C   UNL     1       4.824  -2.435  -5.272  0.00  0.00    +0.000 A 
ENDBRANCH  22  24
ENDBRANCH  18  19
ENDBRANCH   2  18
TORSDOF 4
