REMARK  Name = 
REMARK  7 active torsions:
REMARK  status: ('A' for Active; 'I' for Inactive)
REMARK    1  A    between atoms: C_1  and  O_2
REMARK    2  A    between atoms: O_2  and  C_3
REMARK    3  A    between atoms: C_7  and  C_8
REMARK    4  A    between atoms: C_13  and  N_14
REMARK    5  A    between atoms: C_15  and  C_17
REMARK    6  A    between atoms: N_23  and  C_24
REMARK    7  A    between atoms: C_25  and  C_26
REMARK                            x       y       z     vdW  Elec       q    Type
REMARK                         _______ _______ _______ _____ _____    ______ ____
ROOT
ATOM      1  N   UNL     1       5.804   4.143  -0.227  0.00  0.00    +0.000 N 
ATOM      2  C   UNL     1       4.705   4.607   0.489  0.00  0.00    +0.000 C 
ATOM      3  O   UNL     1       4.409   4.284   1.636  0.00  0.00    +0.000 OA
ATOM      4  H   UNL     1       5.760   4.240  -1.236  0.00  0.00    +0.000 HD
ENDROOT
BRANCH   2   5
ATOM      5  C   UNL     1       3.809   5.535  -0.265  0.00  0.00    +0.000 A 
ATOM      6  C   UNL     1       2.614   5.968   0.308  0.00  0.00    +0.000 A 
ATOM      7  C   UNL     1       1.835   6.885  -0.396  0.00  0.00    +0.000 A 
ATOM      8  C   UNL     1       2.279   7.329  -1.641  0.00  0.00    +0.000 A 
ATOM      9  C   UNL     1       1.518   8.309  -2.445  0.00  0.00    +0.000 A 
ATOM     10  O   UNL     1       0.466   8.743  -1.986  0.00  0.00    +0.000 OA
ATOM     11  N   UNL     1       2.054   8.663  -3.697  0.00  0.00    +0.000 N 
ATOM     12  C   UNL     1       1.276   9.592  -4.509  0.00  0.00    +0.000 C 
ATOM     13  C   UNL     1       3.264   8.148  -4.166  0.00  0.00    +0.000 A 
ATOM     14  C   UNL     1       3.825   8.545  -5.505  0.00  0.00    +0.000 C 
ATOM     15  C   UNL     1       3.964   7.273  -3.428  0.00  0.00    +0.000 A 
ATOM     16  C   UNL     1       3.473   6.831  -2.134  0.00  0.00    +0.000 A 
ATOM     17  N   UNL     1       4.249   5.932  -1.488  0.00  0.00    +0.000 NA
ENDBRANCH   2   5
BRANCH   1  23
ATOM     18  C   UNL     1       7.175   2.070  -0.290  0.00  0.00    +0.000 A 
ATOM     19  C   UNL     1       8.072   1.262   0.455  0.00  0.00    +0.000 A 
ATOM     20  C   UNL     1       8.607   1.655   1.686  0.00  0.00    +0.000 A 
ATOM     21  C   UNL     1       8.239   2.869   2.238  0.00  0.00    +0.000 A 
ATOM     22  C   UNL     1       7.294   3.649   1.585  0.00  0.00    +0.000 A 
ATOM     23  C   UNL     1       6.746   3.260   0.345  0.00  0.00    +0.000 A 
BRANCH  18  28
ATOM     24  C   UNL     1       7.262   0.322  -3.700  0.00  0.00    +0.000 A 
ATOM     25  C   UNL     1       6.008   0.620  -4.216  0.00  0.00    +0.000 A 
ATOM     26  C   UNL     1       5.111   1.366  -3.452  0.00  0.00    +0.000 A 
ATOM     27  C   UNL     1       5.462   1.815  -2.172  0.00  0.00    +0.000 A 
ATOM     28  C   UNL     1       6.739   1.586  -1.637  0.00  0.00    +0.000 A 
ATOM     29  C   UNL     1       7.619   0.824  -2.441  0.00  0.00    +0.000 A 
BRANCH  24  31
ATOM     30  C   UNL     1       7.917  -0.994  -5.573  0.00  0.00    +0.000 C 
ATOM     31  O   UNL     1       8.223  -0.447  -4.297  0.00  0.00    +0.000 OA
ENDBRANCH  24  31
ENDBRANCH  18  28
ENDBRANCH   1  23
TORSDOF 4
