REMARK  Name = 
REMARK  5 active torsions:
REMARK  status: ('A' for Active; 'I' for Inactive)
REMARK    1  A    between atoms: N_3  and  C_4
REMARK    2  A    between atoms: C_7  and  C_8
REMARK    3  A    between atoms: N_16  and  C_17
REMARK    4  A    between atoms: C_17  and  C_18
REMARK    5  A    between atoms: C_17  and  C_24
REMARK                            x       y       z     vdW  Elec       q    Type
REMARK                         _______ _______ _______ _____ _____    ______ ____
ROOT
ATOM      1  O   UNL     1       2.835   0.112  -0.994  0.00  0.00    +0.000 OA
ATOM      2  C   UNL     1       2.269  -0.081   0.074  0.00  0.00    +0.000 C 
ATOM      3  N   UNL     1       0.907  -0.187   0.254  0.00  0.00    +0.000 N 
ATOM      4  N   UNL     1       2.958  -0.244   1.249  0.00  0.00    +0.000 N 
ATOM      5  H   UNL     1       0.571  -0.200   1.204  0.00  0.00    +0.000 HD
ATOM      6  H   UNL     1       2.465  -0.108   2.118  0.00  0.00    +0.000 HD
ENDROOT
BRANCH   3   7
ATOM      7  C   UNL     1      -0.062  -0.100  -0.770  0.00  0.00    +0.000 A 
ATOM      8  C   UNL     1       0.194  -0.163  -2.123  0.00  0.00    +0.000 A 
ATOM      9  N   UNL     1      -0.751  -0.024  -3.080  0.00  0.00    +0.000 NA
ATOM     10  C   UNL     1      -2.020   0.203  -2.668  0.00  0.00    +0.000 A 
ATOM     11  N   UNL     1      -2.383   0.237  -1.362  0.00  0.00    +0.000 NA
ATOM     12  C   UNL     1      -1.396   0.070  -0.454  0.00  0.00    +0.000 A 
BRANCH  10  13
ATOM     13  C   UNL     1      -3.053   0.479  -3.707  0.00  0.00    +0.000 A 
ATOM     14  N   UNL     1      -2.893  -0.078  -4.933  0.00  0.00    +0.000 NA
ATOM     15  C   UNL     1      -3.815   0.223  -5.864  0.00  0.00    +0.000 A 
ATOM     16  C   UNL     1      -4.880   1.059  -5.634  0.00  0.00    +0.000 A 
ATOM     17  C   UNL     1      -4.963   1.580  -4.366  0.00  0.00    +0.000 A 
ATOM     18  N   UNL     1      -4.079   1.307  -3.389  0.00  0.00    +0.000 NA
ENDBRANCH  10  13
ENDBRANCH   3   7
BRANCH   4  19
ATOM     19  C   UNL     1       4.411  -0.135   1.312  0.00  0.00    +0.000 C 
BRANCH  19  20
ATOM     20  C   UNL     1       5.022  -1.192   2.246  0.00  0.00    +0.000 A 
ATOM     21  C   UNL     1       4.240  -2.170   2.891  0.00  0.00    +0.000 A 
ATOM     22  C   UNL     1       4.822  -3.104   3.749  0.00  0.00    +0.000 A 
ATOM     23  C   UNL     1       6.193  -3.083   3.960  0.00  0.00    +0.000 A 
ATOM     24  F   UNL     1       6.746  -3.977   4.789  0.00  0.00    +0.000 F 
ATOM     25  C   UNL     1       6.996  -2.149   3.321  0.00  0.00    +0.000 A 
ATOM     26  C   UNL     1       6.416  -1.213   2.460  0.00  0.00    +0.000 A 
ENDBRANCH  19  20
BRANCH  19  27
ATOM     27  C   UNL     1       4.779   1.301   1.681  0.00  0.00    +0.000 A 
ATOM     28  C   UNL     1       4.870   1.730   3.013  0.00  0.00    +0.000 A 
ATOM     29  C   UNL     1       5.208   3.049   3.274  0.00  0.00    +0.000 A 
ATOM     30  N   UNL     1       5.439   3.968   2.314  0.00  0.00    +0.000 NA
ATOM     31  C   UNL     1       5.322   3.552   1.035  0.00  0.00    +0.000 A 
ATOM     32  C   UNL     1       5.002   2.251   0.675  0.00  0.00    +0.000 A 
ENDBRANCH  19  27
ENDBRANCH   4  19
TORSDOF 5
