REMARK  Name = 
REMARK  6 active torsions:
REMARK  status: ('A' for Active; 'I' for Inactive)
REMARK    1  A    between atoms: C_1  and  O_2
REMARK    2  A    between atoms: O_2  and  C_3
REMARK    3  A    between atoms: C_3  and  C_5
REMARK    4  A    between atoms: N_7  and  C_8
REMARK    5  A    between atoms: C_11  and  N_12
REMARK    6  A    between atoms: C_13  and  C_15
REMARK                            x       y       z     vdW  Elec       q    Type
REMARK                         _______ _______ _______ _____ _____    ______ ____
ROOT
ATOM      1  C   UNL     1       7.713  -0.760   0.960  0.00  0.00    +0.000 A 
ATOM      2  C   UNL     1       8.631   0.211   0.557  0.00  0.00    +0.000 A 
ATOM      3  C   UNL     1       9.675   0.573   1.401  0.00  0.00    +0.000 A 
ATOM      4  C   UNL     1       9.847  -0.040   2.638  0.00  0.00    +0.000 A 
ATOM      5  C   UNL     1       8.951  -1.052   3.023  0.00  0.00    +0.000 A 
ATOM      6  C   UNL     1       7.881  -1.406   2.190  0.00  0.00    +0.000 A 
ENDROOT
BRANCH   1   9
ATOM      7  C   UNL     1       5.418  -1.177  -1.611  0.00  0.00    +0.000 A 
ATOM      8  N   UNL     1       6.431  -0.468  -1.075  0.00  0.00    +0.000 NA
ATOM      9  N   UNL     1       6.633  -1.086   0.110  0.00  0.00    +0.000 N 
ATOM     10  C   UNL     1       5.675  -2.043   0.300  0.00  0.00    +0.000 A 
ATOM     11  N   UNL     1       4.912  -2.142  -0.757  0.00  0.00    +0.000 NA
BRANCH   7  12
ATOM     12  C   UNL     1       4.915  -1.000  -2.984  0.00  0.00    +0.000 C 
ATOM     13  O   UNL     1       3.981  -1.666  -3.450  0.00  0.00    +0.000 OA
BRANCH  12  15
ATOM     14  C   UNL     1       5.157   0.073  -5.052  0.00  0.00    +0.000 C 
ATOM     15  O   UNL     1       5.595  -0.058  -3.699  0.00  0.00    +0.000 OA
ENDBRANCH  12  15
ENDBRANCH   7  12
ENDBRANCH   1   9
BRANCH   4  16
ATOM     16  N   UNL     1      10.900   0.317   3.504  0.00  0.00    +0.000 N 
ATOM     17  C   UNL     1      11.897   1.275   3.264  0.00  0.00    +0.000 C 
ATOM     18  O   UNL     1      12.023   1.976   2.287  0.00  0.00    +0.000 OA
ATOM     19  H   UNL     1      10.995  -0.255   4.336  0.00  0.00    +0.000 HD
BRANCH  17  20
ATOM     20  C   UNL     1      12.923   1.417   4.325  0.00  0.00    +0.000 A 
ATOM     21  C   UNL     1      13.198   0.299   5.079  0.00  0.00    +0.000 A 
ATOM     22  F   UNL     1      12.517  -0.843   4.909  0.00  0.00    +0.000 F 
ATOM     23  C   UNL     1      14.144   0.360   6.075  0.00  0.00    +0.000 A 
ATOM     24  C   UNL     1      14.475  -0.831   6.704  0.00  0.00    +0.000 A 
ATOM     25  C   UNL     1      14.331  -0.742   8.059  0.00  0.00    +0.000 A 
ATOM     26  C   UNL     1      14.804   0.408   8.670  0.00  0.00    +0.000 A 
ATOM     27  C   UNL     1      15.131   1.537   7.877  0.00  0.00    +0.000 A 
ATOM     28  C   UNL     1      14.669   1.558   6.532  0.00  0.00    +0.000 A 
ATOM     29  C   UNL     1      14.547   2.674   5.655  0.00  0.00    +0.000 A 
ATOM     30  C   UNL     1      13.685   2.579   4.537  0.00  0.00    +0.000 A 
ENDBRANCH  17  20
ENDBRANCH   4  16
TORSDOF 5
