REMARK  Name = 
REMARK  7 active torsions:
REMARK  status: ('A' for Active; 'I' for Inactive)
REMARK    1  A    between atoms: C_2  and  C_3
REMARK    2  A    between atoms: C_5  and  C_6
REMARK    3  A    between atoms: C_8  and  C_9
REMARK    4  A    between atoms: N_11  and  C_12
REMARK    5  A    between atoms: C_19  and  C_20
REMARK    6  A    between atoms: C_20  and  O_22
REMARK    7  A    between atoms: C_28  and  O_29
REMARK                            x       y       z     vdW  Elec       q    Type
REMARK                         _______ _______ _______ _____ _____    ______ ____
ROOT
ATOM      1  C   UNL     1       6.567   2.624  -0.462  0.00  0.00    +0.000 A 
ATOM      2  C   UNL     1       6.533   3.678   0.475  0.00  0.00    +0.000 A 
ATOM      3  C   UNL     1       7.110   4.934   0.207  0.00  0.00    +0.000 A 
ATOM      4  C   UNL     1       7.761   5.126  -1.016  0.00  0.00    +0.000 A 
ATOM      5  C   UNL     1       7.853   4.090  -1.939  0.00  0.00    +0.000 A 
ATOM      6  C   UNL     1       7.253   2.862  -1.668  0.00  0.00    +0.000 A 
ENDROOT
BRANCH   1   9
ATOM      7  C   UNL     1       3.903   0.110   0.611  0.00  0.00    +0.000 A 
ATOM      8  C   UNL     1       4.646   1.296   0.489  0.00  0.00    +0.000 A 
ATOM      9  C   UNL     1       5.849   1.344  -0.240  0.00  0.00    +0.000 A 
ATOM     10  C   UNL     1       6.298   0.138  -0.812  0.00  0.00    +0.000 A 
ATOM     11  C   UNL     1       5.559  -1.046  -0.713  0.00  0.00    +0.000 A 
ATOM     12  C   UNL     1       4.359  -1.052  -0.011  0.00  0.00    +0.000 A 
BRANCH   7  14
ATOM     13  N   UNL     1       1.689   0.195   1.959  0.00  0.00    +0.000 NA
ATOM     14  C   UNL     1       2.677   0.129   1.350  0.00  0.00    +0.000 C 
ENDBRANCH   7  14
BRANCH  12  15
ATOM     15  O   UNL     1       3.617  -2.197   0.060  0.00  0.00    +0.000 OA
ATOM     16  H   UNL     1       4.022  -2.882  -0.497  0.00  0.00    +0.000 HD
ENDBRANCH  12  15
ENDBRANCH   1   9
BRANCH   3  17
ATOM     17  C   UNL     1       6.945   6.047   1.151  0.00  0.00    +0.000 A 
ATOM     18  N   UNL     1       5.794   6.175   1.834  0.00  0.00    +0.000 NA
ATOM     19  N   UNL     1       5.887   7.357   2.486  0.00  0.00    +0.000 N 
ATOM     20  C   UNL     1       7.110   7.955   2.277  0.00  0.00    +0.000 A 
ATOM     21  C   UNL     1       7.831   7.134   1.432  0.00  0.00    +0.000 A 
BRANCH  19  22
ATOM     22  C   UNL     1       4.815   7.903   3.255  0.00  0.00    +0.000 A 
ATOM     23  C   UNL     1       3.639   7.170   3.403  0.00  0.00    +0.000 A 
ATOM     24  C   UNL     1       2.590   7.732   4.125  0.00  0.00    +0.000 A 
ATOM     25  C   UNL     1       2.739   9.001   4.674  0.00  0.00    +0.000 A 
ATOM     26  C   UNL     1       3.942   9.660   4.487  0.00  0.00    +0.000 A 
ATOM     27  N   UNL     1       4.984   9.145   3.795  0.00  0.00    +0.000 NA
ENDBRANCH  19  22
BRANCH  21  28
ATOM     28  C   UNL     1       9.189   7.350   0.965  0.00  0.00    +0.000 C 
ATOM     29  O   UNL     1       9.956   6.453   0.650  0.00  0.00    +0.000 OA
BRANCH  28  30
ATOM     30  O   UNL     1       9.556   8.655   0.874  0.00  0.00    +0.000 OA
ATOM     31  H   UNL     1       8.827   9.270   1.073  0.00  0.00    +0.000 HD
ENDBRANCH  28  30
ENDBRANCH  21  28
ENDBRANCH   3  17
TORSDOF 7
