REMARK  Name = 
REMARK  7 active torsions:
REMARK  status: ('A' for Active; 'I' for Inactive)
REMARK    1  A    between atoms: C_2  and  O_3
REMARK    2  A    between atoms: C_2  and  C_4
REMARK    3  A    between atoms: C_8  and  C_9
REMARK    4  A    between atoms: C_14  and  C_15
REMARK    5  A    between atoms: C_15  and  N_16
REMARK    6  A    between atoms: C_17  and  C_19
REMARK    7  A    between atoms: C_21  and  N_22
REMARK                            x       y       z     vdW  Elec       q    Type
REMARK                         _______ _______ _______ _____ _____    ______ ____
ROOT
ATOM      1  C   UNL     1       6.255   2.818  -0.168  0.00  0.00    +0.000 A 
ATOM      2  C   UNL     1       7.412   2.570   0.621  0.00  0.00    +0.000 A 
ATOM      3  C   UNL     1       8.707   2.703   0.124  0.00  0.00    +0.000 A 
ATOM      4  C   UNL     1       8.897   3.102  -1.183  0.00  0.00    +0.000 A 
ATOM      5  C   UNL     1       7.794   3.411  -1.974  0.00  0.00    +0.000 A 
ATOM      6  C   UNL     1       6.466   3.317  -1.491  0.00  0.00    +0.000 A 
ENDROOT
BRANCH   1  11
ATOM      7  C   UNL     1       2.520   2.797   0.730  0.00  0.00    +0.000 A 
ATOM      8  C   UNL     1       2.438   1.713   1.605  0.00  0.00    +0.000 A 
ATOM      9  C   UNL     1       3.589   0.998   1.905  0.00  0.00    +0.000 A 
ATOM     10  C   UNL     1       4.804   1.353   1.305  0.00  0.00    +0.000 A 
ATOM     11  C   UNL     1       4.930   2.468   0.439  0.00  0.00    +0.000 A 
ATOM     12  C   UNL     1       3.760   3.200   0.211  0.00  0.00    +0.000 A 
BRANCH   7  14
ATOM     13  O   UNL     1       0.377   3.702   1.193  0.00  0.00    +0.000 OA
ATOM     14  C   UNL     1       1.286   3.540   0.395  0.00  0.00    +0.000 C 
BRANCH  14  15
ATOM     15  O   UNL     1       1.243   3.987  -0.879  0.00  0.00    +0.000 OA
ATOM     16  H   UNL     1       1.930   3.629  -1.476  0.00  0.00    +0.000 HD
ENDBRANCH  14  15
ENDBRANCH   7  14
ENDBRANCH   1  11
BRANCH   6  17
ATOM     17  C   UNL     1       5.327   3.754  -2.403  0.00  0.00    +0.000 C 
BRANCH  17  18
ATOM     18  N   UNL     1       5.712   4.253  -3.706  0.00  0.00    +0.000 N 
ATOM     19  C   UNL     1       4.871   4.231  -4.798  0.00  0.00    +0.000 C 
ATOM     20  O   UNL     1       3.740   3.759  -4.780  0.00  0.00    +0.000 OA
ATOM     21  H   UNL     1       6.502   4.887  -3.797  0.00  0.00    +0.000 HD
BRANCH  19  22
ATOM     22  C   UNL     1       5.467   4.827  -6.045  0.00  0.00    +0.000 A 
ATOM     23  C   UNL     1       4.755   4.801  -7.239  0.00  0.00    +0.000 A 
ATOM     24  C   UNL     1       5.399   5.261  -8.391  0.00  0.00    +0.000 A 
ATOM     25  C   UNL     1       6.714   5.731  -8.297  0.00  0.00    +0.000 A 
ATOM     26  C   UNL     1       7.326   5.746  -7.055  0.00  0.00    +0.000 A 
ATOM     27  N   UNL     1       6.737   5.309  -5.922  0.00  0.00    +0.000 NA
BRANCH  24  28
ATOM     28  N   UNL     1       4.753   5.247  -9.658  0.00  0.00    +0.000 N 
ATOM     29  C   UNL     1       3.460   4.871  -9.955  0.00  0.00    +0.000 A 
ATOM     30  C   UNL     1       3.292   5.025 -11.310  0.00  0.00    +0.000 A 
ATOM     31  C   UNL     1       4.531   5.494 -11.766  0.00  0.00    +0.000 A 
ATOM     32  N   UNL     1       5.416   5.639 -10.779  0.00  0.00    +0.000 NA
ENDBRANCH  24  28
ENDBRANCH  19  22
ENDBRANCH  17  18
ENDBRANCH   6  17
TORSDOF 7
