REMARK  Name = 
REMARK  7 active torsions:
REMARK  status: ('A' for Active; 'I' for Inactive)
REMARK    1  A    between atoms: C_2  and  C_3
REMARK    2  A    between atoms: C_3  and  C_4
REMARK    3  A    between atoms: C_3  and  C_10
REMARK    4  A    between atoms: C_13  and  N_14
REMARK    5  A    between atoms: C_15  and  C_17
REMARK    6  A    between atoms: C_17  and  C_18
REMARK    7  A    between atoms: C_21  and  C_22
REMARK                            x       y       z     vdW  Elec       q    Type
REMARK                         _______ _______ _______ _____ _____    ______ ____
ROOT
ATOM      1  N   UNL     1       5.548  -3.836  -3.904  0.00  0.00    +0.000 N 
ATOM      2  C   UNL     1       6.442  -3.667  -4.950  0.00  0.00    +0.000 C 
ATOM      3  O   UNL     1       7.061  -2.643  -5.225  0.00  0.00    +0.000 OA
ATOM      4  H   UNL     1       5.132  -4.752  -3.791  0.00  0.00    +0.000 HD
ENDROOT
BRANCH   1   8
ATOM      5  C   UNL     1       4.277  -0.962  -1.066  0.00  0.00    +0.000 A 
ATOM      6  C   UNL     1       5.237  -0.618  -2.020  0.00  0.00    +0.000 A 
ATOM      7  C   UNL     1       5.665  -1.556  -2.959  0.00  0.00    +0.000 A 
ATOM      8  C   UNL     1       5.153  -2.854  -2.971  0.00  0.00    +0.000 A 
ATOM      9  C   UNL     1       4.193  -3.207  -2.018  0.00  0.00    +0.000 A 
ATOM     10  C   UNL     1       3.755  -2.270  -1.077  0.00  0.00    +0.000 A 
BRANCH   5  11
ATOM     11  C   UNL     1       3.819   0.079  -0.049  0.00  0.00    +0.000 C 
BRANCH  11  12
ATOM     12  C   UNL     1       4.128  -0.305   1.413  0.00  0.00    +0.000 A 
ATOM     13  C   UNL     1       5.216  -1.136   1.743  0.00  0.00    +0.000 A 
ATOM     14  C   UNL     1       5.492  -1.476   3.070  0.00  0.00    +0.000 A 
ATOM     15  C   UNL     1       4.704  -0.973   4.100  0.00  0.00    +0.000 A 
ATOM     16  C   UNL     1       3.638  -0.131   3.803  0.00  0.00    +0.000 A 
ATOM     17  C   UNL     1       3.356   0.206   2.476  0.00  0.00    +0.000 A 
ENDBRANCH  11  12
BRANCH  11  19
ATOM     18  N   UNL     1       1.093   0.474  -0.435  0.00  0.00    +0.000 NA
ATOM     19  C   UNL     1       2.329   0.294  -0.260  0.00  0.00    +0.000 C 
ENDBRANCH  11  19
ENDBRANCH   5  11
ENDBRANCH   1   8
BRANCH   2  20
ATOM     20  C   UNL     1       6.634  -4.919  -5.787  0.00  0.00    +0.000 C 
BRANCH  20  21
ATOM     21  C   UNL     1       7.804  -5.757  -5.335  0.00  0.00    +0.000 A 
ATOM     22  C   UNL     1       7.627  -7.109  -5.021  0.00  0.00    +0.000 A 
ATOM     23  C   UNL     1       8.722  -7.902  -4.670  0.00  0.00    +0.000 A 
ATOM     24  C   UNL     1      10.013  -7.360  -4.611  0.00  0.00    +0.000 A 
ATOM     25  C   UNL     1      10.189  -6.005  -4.918  0.00  0.00    +0.000 A 
ATOM     26  C   UNL     1       9.095  -5.214  -5.282  0.00  0.00    +0.000 A 
BRANCH  24  27
ATOM     27  C   UNL     1      11.133  -8.217  -4.252  0.00  0.00    +0.000 A 
ATOM     28  N   UNL     1      11.255  -9.516  -4.453  0.00  0.00    +0.000 NA
ATOM     29  N   UNL     1      12.471  -9.880  -3.927  0.00  0.00    +0.000 NA
ATOM     30  N   UNL     1      13.085  -8.838  -3.387  0.00  0.00    +0.000 NA
ATOM     31  N   UNL     1      12.254  -7.808  -3.584  0.00  0.00    +0.000 N 
ATOM     32  H   UNL     1      12.493  -6.894  -3.224  0.00  0.00    +0.000 HD
ENDBRANCH  24  27
ENDBRANCH  20  21
ENDBRANCH   2  20
TORSDOF 7
