REMARK  Name = 
REMARK  5 active torsions:
REMARK  status: ('A' for Active; 'I' for Inactive)
REMARK    1  A    between atoms: C_1  and  N_2
REMARK    2  A    between atoms: C_3  and  C_4
REMARK    3  A    between atoms: N_6  and  C_7
REMARK    4  A    between atoms: C_12  and  C_13
REMARK    5  A    between atoms: N_15  and  C_16
REMARK                            x       y       z     vdW  Elec       q    Type
REMARK                         _______ _______ _______ _____ _____    ______ ____
ROOT
ATOM      1  C   UNL     1       2.150  -4.978   0.035  0.00  0.00    +0.000 A 
ATOM      2  C   UNL     1       1.408  -5.799  -0.823  0.00  0.00    +0.000 A 
ATOM      3  C   UNL     1       1.556  -7.183  -0.811  0.00  0.00    +0.000 A 
ATOM      4  C   UNL     1       2.466  -7.764   0.054  0.00  0.00    +0.000 A 
ATOM      5  F   UNL     1       2.556  -9.103   0.051  0.00  0.00    +0.000 F 
ATOM      6  C   UNL     1       3.261  -6.981   0.900  0.00  0.00    +0.000 A 
ATOM      7  C   UNL     1       3.116  -5.578   0.863  0.00  0.00    +0.000 A 
ENDROOT
BRANCH   6   8
ATOM      8  C   UNL     1       4.177  -7.607   1.831  0.00  0.00    +0.000 A 
ATOM      9  C   UNL     1       4.011  -8.845   2.407  0.00  0.00    +0.000 A 
ATOM     10  N   UNL     1       5.120  -9.030   3.191  0.00  0.00    +0.000 N 
ATOM     11  N   UNL     1       5.894  -7.916   3.140  0.00  0.00    +0.000 NA
ATOM     12  N   UNL     1       5.325  -7.045   2.311  0.00  0.00    +0.000 NA
BRANCH  10  13
ATOM     13  C   UNL     1       5.466 -10.174   3.953  0.00  0.00    +0.000 A 
ATOM     14  C   UNL     1       4.666 -11.324   3.932  0.00  0.00    +0.000 A 
ATOM     15  C   UNL     1       5.027 -12.447   4.680  0.00  0.00    +0.000 A 
ATOM     16  C   UNL     1       6.188 -12.431   5.451  0.00  0.00    +0.000 A 
ATOM     17  C   UNL     1       6.992 -11.293   5.479  0.00  0.00    +0.000 A 
ATOM     18  C   UNL     1       6.636 -10.161   4.731  0.00  0.00    +0.000 A 
ENDBRANCH  10  13
ENDBRANCH   6   8
BRANCH   1  21
ATOM     19  C   UNL     1       0.873  -2.883  -0.451  0.00  0.00    +0.000 C 
ATOM     20  O   UNL     1       0.032  -3.388  -1.190  0.00  0.00    +0.000 OA
ATOM     21  N   UNL     1       1.927  -3.576   0.140  0.00  0.00    +0.000 N 
ATOM     22  H   UNL     1       2.527  -3.077   0.785  0.00  0.00    +0.000 HD
BRANCH  19  25
ATOM     23  C   UNL     1      -1.758  -1.432  -0.143  0.00  0.00    +0.000 C 
ATOM     24  N   UNL     1      -0.474  -0.750  -0.049  0.00  0.00    +0.000 N 
ATOM     25  C   UNL     1       0.768  -1.404  -0.134  0.00  0.00    +0.000 A 
ATOM     26  C   UNL     1       1.905  -0.684  -0.069  0.00  0.00    +0.000 A 
ATOM     27  C   UNL     1       1.867   0.746   0.103  0.00  0.00    +0.000 A 
ATOM     28  C   UNL     1       0.700   1.393   0.164  0.00  0.00    +0.000 A 
ATOM     29  C   UNL     1      -0.573   0.638   0.085  0.00  0.00    +0.000 A 
ATOM     30  O   UNL     1      -1.630   1.263   0.140  0.00  0.00    +0.000 OA
ENDBRANCH  19  25
ENDBRANCH   1  21
TORSDOF 4
