REMARK  Name = 
REMARK  6 active torsions:
REMARK  status: ('A' for Active; 'I' for Inactive)
REMARK    1  A    between atoms: C_2  and  C_15
REMARK    2  A    between atoms: N_3  and  C_4
REMARK    3  A    between atoms: C_4  and  C_5
REMARK    4  A    between atoms: C_5  and  C_6
REMARK    5  A    between atoms: N_19  and  C_20
REMARK    6  A    between atoms: C_20  and  C_21
REMARK                            x       y       z     vdW  Elec       q    Type
REMARK                         _______ _______ _______ _____ _____    ______ ____
ROOT
ATOM      1  O   UNL     1       2.627  -1.482   0.344  0.00  0.00    +0.000 OA
ATOM      2  C   UNL     1       2.250  -0.412  -0.126  0.00  0.00    +0.000 C 
ATOM      3  N   UNL     1       1.163   0.267   0.364  0.00  0.00    +0.000 N 
ATOM      4  H   UNL     1       0.852   1.105  -0.134  0.00  0.00    +0.000 HD
ENDROOT
BRANCH   2   5
ATOM      5  C   UNL     1       2.968   0.242  -1.259  0.00  0.00    +0.000 A 
ATOM      6  C   UNL     1       4.069  -0.377  -1.732  0.00  0.00    +0.000 A 
ATOM      7  C   UNL     1       4.861   0.201  -2.783  0.00  0.00    +0.000 A 
ATOM      8  C   UNL     1       4.570   1.425  -3.239  0.00  0.00    +0.000 A 
ATOM      9  N   UNL     1       3.468   2.121  -2.772  0.00  0.00    +0.000 N 
ATOM     10  C   UNL     1       2.577   1.563  -1.851  0.00  0.00    +0.000 A 
ATOM     11  O   UNL     1       1.528   2.113  -1.506  0.00  0.00    +0.000 OA
BRANCH   9  12
ATOM     12  C   UNL     1       3.255   3.503  -3.209  0.00  0.00    +0.000 C 
BRANCH  12  13
ATOM     13  C   UNL     1       4.032   4.481  -2.350  0.00  0.00    +0.000 A 
ATOM     14  C   UNL     1       5.335   4.862  -2.701  0.00  0.00    +0.000 A 
ATOM     15  C   UNL     1       6.077   5.678  -1.852  0.00  0.00    +0.000 A 
ATOM     16  F   UNL     1       7.329   6.012  -2.191  0.00  0.00    +0.000 F 
ATOM     17  C   UNL     1       5.547   6.138  -0.653  0.00  0.00    +0.000 A 
ATOM     18  C   UNL     1       4.244   5.791  -0.305  0.00  0.00    +0.000 A 
ATOM     19  C   UNL     1       3.491   4.965  -1.147  0.00  0.00    +0.000 A 
ENDBRANCH  12  13
ENDBRANCH   9  12
ENDBRANCH   2   5
BRANCH   3  20
ATOM     20  C   UNL     1       0.359  -0.227   1.464  0.00  0.00    +0.000 C 
BRANCH  20  21
ATOM     21  C   UNL     1       1.133  -0.288   2.785  0.00  0.00    +0.000 C 
BRANCH  21  22
ATOM     22  C   UNL     1       0.292  -0.835   3.913  0.00  0.00    +0.000 A 
ATOM     23  C   UNL     1      -0.430   0.036   4.743  0.00  0.00    +0.000 A 
ATOM     24  C   UNL     1      -1.208  -0.444   5.804  0.00  0.00    +0.000 A 
ATOM     25  C   UNL     1      -1.226  -1.825   5.988  0.00  0.00    +0.000 A 
ATOM     26  O   UNL     1      -1.910  -2.482   6.965  0.00  0.00    +0.000 OA
ATOM     27  C   UNL     1      -1.660  -3.808   6.798  0.00  0.00    +0.000 A 
ATOM     28  C   UNL     1      -0.828  -4.012   5.720  0.00  0.00    +0.000 A 
ATOM     29  C   UNL     1      -0.538  -2.728   5.188  0.00  0.00    +0.000 A 
ATOM     30  C   UNL     1       0.235  -2.229   4.124  0.00  0.00    +0.000 A 
ENDBRANCH  21  22
ENDBRANCH  20  21
ENDBRANCH   3  20
TORSDOF 6
