REMARK  Name = 
REMARK  7 active torsions:
REMARK  status: ('A' for Active; 'I' for Inactive)
REMARK    1  A    between atoms: C_1  and  O_2
REMARK    2  A    between atoms: O_2  and  C_3
REMARK    3  A    between atoms: C_8  and  C_9
REMARK    4  A    between atoms: C_12  and  C_13
REMARK    5  A    between atoms: C_13  and  O_14
REMARK    6  A    between atoms: O_14  and  C_15
REMARK    7  A    between atoms: C_15  and  C_17
REMARK                            x       y       z     vdW  Elec       q    Type
REMARK                         _______ _______ _______ _____ _____    ______ ____
ROOT
ATOM      1  O   UNL     1       5.891  -1.538  -5.332  0.00  0.00    +0.000 OA
ENDROOT
BRANCH   1   2
ATOM      2  C   UNL     1       6.033  -0.831  -6.477  0.00  0.00    +0.000 C 
ATOM      3  O   UNL     1       6.622   0.238  -6.573  0.00  0.00    +0.000 OA
BRANCH   2   4
ATOM      4  C   UNL     1       5.395  -1.536  -7.635  0.00  0.00    +0.000 A 
ATOM      5  C   UNL     1       5.095  -0.740  -8.690  0.00  0.00    +0.000 A 
ATOM      6  C   UNL     1       3.969   0.150  -8.305  0.00  0.00    +0.000 A 
ATOM      7  C   UNL     1       4.001   1.527  -8.491  0.00  0.00    +0.000 A 
ATOM      8  C   UNL     1       2.961   2.291  -7.965  0.00  0.00    +0.000 A 
ATOM      9  C   UNL     1       1.886   1.667  -7.324  0.00  0.00    +0.000 A 
ATOM     10  F   UNL     1       0.922   2.425  -6.786  0.00  0.00    +0.000 F 
ATOM     11  C   UNL     1       1.818   0.283  -7.178  0.00  0.00    +0.000 A 
ATOM     12  C   UNL     1       2.891  -0.467  -7.629  0.00  0.00    +0.000 A 
ATOM     13  N   UNL     1       3.009  -1.843  -7.335  0.00  0.00    +0.000 N 
ATOM     14  C   UNL     1       4.250  -2.469  -7.354  0.00  0.00    +0.000 A 
ATOM     15  O   UNL     1       4.406  -3.661  -7.122  0.00  0.00    +0.000 OA
ATOM     16  H   UNL     1       2.230  -2.371  -6.961  0.00  0.00    +0.000 HD
ENDBRANCH   2   4
ENDBRANCH   1   2
BRANCH   1  17
ATOM     17  C   UNL     1       6.422  -0.898  -4.155  0.00  0.00    +0.000 C 
BRANCH  17  21
ATOM     18  C   UNL     1       4.515   1.210  -1.978  0.00  0.00    +0.000 A 
ATOM     19  C   UNL     1       3.590   0.958  -2.970  0.00  0.00    +0.000 A 
ATOM     20  N   UNL     1       4.120   0.149  -3.939  0.00  0.00    +0.000 NA
ATOM     21  C   UNL     1       5.354  -0.066  -3.523  0.00  0.00    +0.000 A 
ATOM     22  O   UNL     1       5.672   0.558  -2.337  0.00  0.00    +0.000 OA
BRANCH  18  28
ATOM     23  C   UNL     1       3.290   2.267  -0.063  0.00  0.00    +0.000 A 
ATOM     24  C   UNL     1       3.282   3.162   1.021  0.00  0.00    +0.000 A 
ATOM     25  C   UNL     1       4.457   3.764   1.444  0.00  0.00    +0.000 A 
ATOM     26  C   UNL     1       5.663   3.461   0.824  0.00  0.00    +0.000 A 
ATOM     27  C   UNL     1       5.687   2.586  -0.266  0.00  0.00    +0.000 A 
ATOM     28  C   UNL     1       4.500   2.004  -0.749  0.00  0.00    +0.000 A 
BRANCH  23  30
ATOM     29  C   UNL     1       0.955   1.788   0.190  0.00  0.00    +0.000 C 
ATOM     30  O   UNL     1       2.175   1.608  -0.514  0.00  0.00    +0.000 OA
ENDBRANCH  23  30
ENDBRANCH  18  28
ENDBRANCH  17  21
ENDBRANCH   1  17
TORSDOF 6
