REMARK  Name = 
REMARK  9 active torsions:
REMARK  status: ('A' for Active; 'I' for Inactive)
REMARK    1  A    between atoms: C_1  and  O_2
REMARK    2  A    between atoms: O_2  and  C_3
REMARK    3  A    between atoms: C_3  and  C_5
REMARK    4  A    between atoms: C_5  and  N_6
REMARK    5  A    between atoms: C_12  and  N_13
REMARK    6  A    between atoms: N_16  and  C_17
REMARK    7  A    between atoms: C_17  and  C_18
REMARK    8  A    between atoms: C_17  and  C_19
REMARK    9  A    between atoms: C_19  and  C_20
REMARK                            x       y       z     vdW  Elec       q    Type
REMARK                         _______ _______ _______ _____ _____    ______ ____
ROOT
ATOM      1  N   UNL     1       5.219   7.634  -3.581  0.00  0.00    +0.000 N 
ATOM      2  C   UNL     1       5.452   8.530  -4.598  0.00  0.00    +0.000 C 
ATOM      3  O   UNL     1       5.938   8.261  -5.695  0.00  0.00    +0.000 OA
ATOM      4  N   UNL     1       5.083   9.818  -4.298  0.00  0.00    +0.000 N 
ATOM      5  H   UNL     1       5.003   8.015  -2.673  0.00  0.00    +0.000 HD
ATOM      6  H   UNL     1       4.639  10.037  -3.420  0.00  0.00    +0.000 HD
ENDROOT
BRANCH   1  13
ATOM      7  N   UNL     1       5.865   1.888  -1.587  0.00  0.00    +0.000 N 
ATOM      8  C   UNL     1       6.193   1.396  -2.825  0.00  0.00    +0.000 A 
ATOM      9  N   UNL     1       6.328   2.112  -3.886  0.00  0.00    +0.000 NA
ATOM     10  C   UNL     1       6.053   3.480  -3.777  0.00  0.00    +0.000 A 
ATOM     11  C   UNL     1       6.021   4.237  -4.938  0.00  0.00    +0.000 A 
ATOM     12  C   UNL     1       5.714   5.596  -4.884  0.00  0.00    +0.000 A 
ATOM     13  C   UNL     1       5.474   6.243  -3.665  0.00  0.00    +0.000 A 
ATOM     14  C   UNL     1       5.479   5.482  -2.494  0.00  0.00    +0.000 A 
ATOM     15  C   UNL     1       5.761   4.106  -2.564  0.00  0.00    +0.000 A 
ATOM     16  C   UNL     1       5.684   3.247  -1.368  0.00  0.00    +0.000 A 
ATOM     17  O   UNL     1       5.431   3.733  -0.269  0.00  0.00    +0.000 OA
BRANCH   7  18
ATOM     18  C   UNL     1       5.533   0.966  -0.512  0.00  0.00    +0.000 C 
BRANCH  18  19
ATOM     19  C   UNL     1       4.031   0.708  -0.561  0.00  0.00    +0.000 C 
ATOM     20  O   UNL     1       3.350   0.728  -1.580  0.00  0.00    +0.000 OA
BRANCH  19  22
ATOM     21  C   UNL     1       2.154   0.165   0.723  0.00  0.00    +0.000 C 
ATOM     22  O   UNL     1       3.564   0.390   0.679  0.00  0.00    +0.000 OA
ENDBRANCH  19  22
ENDBRANCH  18  19
ENDBRANCH   7  18
ENDBRANCH   1  13
BRANCH   4  23
ATOM     23  C   UNL     1       5.195  10.841  -5.337  0.00  0.00    +0.000 C 
ATOM     24  C   UNL     1       3.938  10.855  -6.209  0.00  0.00    +0.000 C 
BRANCH  23  25
ATOM     25  C   UNL     1       5.506  12.233  -4.762  0.00  0.00    +0.000 C 
BRANCH  25  26
ATOM     26  C   UNL     1       6.803  12.282  -3.979  0.00  0.00    +0.000 A 
ATOM     27  C   UNL     1       8.005  11.861  -4.561  0.00  0.00    +0.000 A 
ATOM     28  C   UNL     1       9.196  11.883  -3.834  0.00  0.00    +0.000 A 
ATOM     29  C   UNL     1       9.223  12.375  -2.524  0.00  0.00    +0.000 A 
ATOM     30  C   UNL     1      10.423  12.434  -1.798  0.00  0.00    +0.000 A 
ATOM     31  C   UNL     1      10.454  12.991  -0.520  0.00  0.00    +0.000 A 
ATOM     32  C   UNL     1       9.281  13.472   0.056  0.00  0.00    +0.000 A 
ATOM     33  C   UNL     1       8.073  13.383  -0.639  0.00  0.00    +0.000 A 
ATOM     34  C   UNL     1       8.027  12.842  -1.935  0.00  0.00    +0.000 A 
ATOM     35  C   UNL     1       6.825  12.772  -2.665  0.00  0.00    +0.000 A 
ENDBRANCH  25  26
ENDBRANCH  23  25
ENDBRANCH   4  23
TORSDOF 7
