REMARK  Name = 
REMARK  7 active torsions:
REMARK  status: ('A' for Active; 'I' for Inactive)
REMARK    1  A    between atoms: C_2  and  C_18
REMARK    2  A    between atoms: N_3  and  C_4
REMARK    3  A    between atoms: C_8  and  O_9
REMARK    4  A    between atoms: O_9  and  C_10
REMARK    5  A    between atoms: C_10  and  C_11
REMARK    6  A    between atoms: N_22  and  C_23
REMARK    7  A    between atoms: C_26  and  O_27
REMARK                            x       y       z     vdW  Elec       q    Type
REMARK                         _______ _______ _______ _____ _____    ______ ____
ROOT
ATOM      1  O   UNL     1       1.314   0.864  -0.218  0.00  0.00    +0.000 OA
ATOM      2  C   UNL     1       2.360   0.245  -0.050  0.00  0.00    +0.000 C 
ATOM      3  N   UNL     1       2.864  -0.710  -0.912  0.00  0.00    +0.000 N 
ATOM      4  H   UNL     1       3.679  -1.222  -0.600  0.00  0.00    +0.000 HD
ENDROOT
BRANCH   3   5
ATOM      5  C   UNL     1       2.228  -1.192  -2.078  0.00  0.00    +0.000 A 
ATOM      6  C   UNL     1       1.119  -0.579  -2.665  0.00  0.00    +0.000 A 
ATOM      7  C   UNL     1       0.484  -1.162  -3.762  0.00  0.00    +0.000 A 
ATOM      8  C   UNL     1       0.953  -2.366  -4.280  0.00  0.00    +0.000 A 
ATOM      9  C   UNL     1       2.067  -2.981  -3.709  0.00  0.00    +0.000 A 
ATOM     10  C   UNL     1       2.726  -2.372  -2.637  0.00  0.00    +0.000 A 
BRANCH   9  11
ATOM     11  O   UNL     1       2.426  -4.182  -4.261  0.00  0.00    +0.000 OA
BRANCH  11  12
ATOM     12  C   UNL     1       3.148  -5.054  -3.383  0.00  0.00    +0.000 C 
BRANCH  12  13
ATOM     13  C   UNL     1       3.030  -6.500  -3.801  0.00  0.00    +0.000 A 
ATOM     14  C   UNL     1       1.902  -6.967  -4.471  0.00  0.00    +0.000 A 
ATOM     15  C   UNL     1       1.800  -8.326  -4.750  0.00  0.00    +0.000 A 
ATOM     16  C   UNL     1       2.815  -9.183  -4.346  0.00  0.00    +0.000 A 
ATOM     17  C   UNL     1       3.897  -8.643  -3.673  0.00  0.00    +0.000 A 
ATOM     18  N   UNL     1       4.026  -7.329  -3.389  0.00  0.00    +0.000 NA
ENDBRANCH  12  13
ENDBRANCH  11  12
ENDBRANCH   9  11
ENDBRANCH   3   5
BRANCH   2  19
ATOM     19  C   UNL     1       3.154   0.434   1.135  0.00  0.00    +0.000 A 
ATOM     20  C   UNL     1       4.526   0.574   1.231  0.00  0.00    +0.000 A 
ATOM     21  N   UNL     1       4.907   0.930   2.490  0.00  0.00    +0.000 NA
ATOM     22  C   UNL     1       3.784   1.014   3.168  0.00  0.00    +0.000 A 
ATOM     23  N   UNL     1       2.677   0.664   2.421  0.00  0.00    +0.000 N 
BRANCH  23  24
ATOM     24  C   UNL     1       1.352   0.517   2.931  0.00  0.00    +0.000 A 
ATOM     25  C   UNL     1       0.945   1.244   4.060  0.00  0.00    +0.000 A 
ATOM     26  C   UNL     1      -0.353   1.095   4.566  0.00  0.00    +0.000 A 
ATOM     27  C   UNL     1      -1.235   0.211   3.953  0.00  0.00    +0.000 A 
ATOM     28  C   UNL     1      -0.844  -0.521   2.842  0.00  0.00    +0.000 A 
ATOM     29  C   UNL     1       0.449  -0.375   2.334  0.00  0.00    +0.000 A 
BRANCH  27  30
ATOM     30  O   UNL     1      -2.502   0.026   4.417  0.00  0.00    +0.000 OA
ATOM     31  H   UNL     1      -2.632   0.582   5.203  0.00  0.00    +0.000 HD
ENDBRANCH  27  30
ENDBRANCH  23  24
ENDBRANCH   2  19
TORSDOF 7
