REMARK  Name = 
REMARK  6 active torsions:
REMARK  status: ('A' for Active; 'I' for Inactive)
REMARK    1  A    between atoms: C_2  and  C_16
REMARK    2  A    between atoms: N_3  and  C_4
REMARK    3  A    between atoms: C_7  and  N_8
REMARK    4  A    between atoms: C_21  and  N_22
REMARK    5  A    between atoms: N_22  and  C_23
REMARK    6  A    between atoms: C_23  and  C_24
REMARK                            x       y       z     vdW  Elec       q    Type
REMARK                         _______ _______ _______ _____ _____    ______ ____
ROOT
ATOM      1  O   UNL     1       0.954  -0.320   0.038  0.00  0.00    +0.000 OA
ATOM      2  C   UNL     1       2.142  -0.025   0.145  0.00  0.00    +0.000 C 
ATOM      3  N   UNL     1       2.769   1.038  -0.475  0.00  0.00    +0.000 N 
ATOM      4  H   UNL     1       3.767   1.126  -0.306  0.00  0.00    +0.000 HD
ENDROOT
BRANCH   3   5
ATOM      5  C   UNL     1       2.179   1.946  -1.389  0.00  0.00    +0.000 A 
ATOM      6  C   UNL     1       0.829   1.929  -1.757  0.00  0.00    +0.000 A 
ATOM      7  C   UNL     1       0.321   2.827  -2.712  0.00  0.00    +0.000 A 
ATOM      8  C   UNL     1       1.155   3.752  -3.343  0.00  0.00    +0.000 A 
ATOM      9  C   UNL     1       2.502   3.788  -2.941  0.00  0.00    +0.000 A 
ATOM     10  C   UNL     1       3.006   2.905  -1.974  0.00  0.00    +0.000 A 
BRANCH   8  11
ATOM     11  N   UNL     1       0.696   4.625  -4.353  0.00  0.00    +0.000 N 
ATOM     12  C   UNL     1      -0.567   5.053  -4.652  0.00  0.00    +0.000 A 
ATOM     13  C   UNL     1      -0.689   5.448  -5.922  0.00  0.00    +0.000 A 
ATOM     14  C   UNL     1       0.613   5.100  -6.535  0.00  0.00    +0.000 A 
ATOM     15  O   UNL     1       0.841   5.102  -7.731  0.00  0.00    +0.000 OA
ATOM     16  N   UNL     1       1.454   4.690  -5.516  0.00  0.00    +0.000 N 
ATOM     17  H   UNL     1       2.143   3.975  -5.715  0.00  0.00    +0.000 HD
ENDBRANCH   8  11
ENDBRANCH   3   5
BRANCH   2  18
ATOM     18  C   UNL     1       2.990  -0.921   0.990  0.00  0.00    +0.000 A 
ATOM     19  C   UNL     1       2.579  -2.268   0.994  0.00  0.00    +0.000 A 
ATOM     20  C   UNL     1       3.249  -3.174   1.785  0.00  0.00    +0.000 A 
ATOM     21  N   UNL     1       4.277  -2.830   2.574  0.00  0.00    +0.000 NA
ATOM     22  C   UNL     1       4.669  -1.531   2.537  0.00  0.00    +0.000 A 
ATOM     23  C   UNL     1       4.101  -0.514   1.755  0.00  0.00    +0.000 A 
BRANCH  23  24
ATOM     24  N   UNL     1       4.624   0.782   1.690  0.00  0.00    +0.000 N 
ATOM     25  H   UNL     1       3.937   1.521   1.841  0.00  0.00    +0.000 HD
BRANCH  24  26
ATOM     26  C   UNL     1       5.967   1.104   2.184  0.00  0.00    +0.000 C 
BRANCH  26  27
ATOM     27  C   UNL     1       5.990   1.918   3.458  0.00  0.00    +0.000 A 
ATOM     28  C   UNL     1       5.070   1.740   4.501  0.00  0.00    +0.000 A 
ATOM     29  C   UNL     1       5.176   2.481   5.680  0.00  0.00    +0.000 A 
ATOM     30  C   UNL     1       6.213   3.400   5.847  0.00  0.00    +0.000 A 
ATOM     31  C   UNL     1       7.151   3.571   4.833  0.00  0.00    +0.000 A 
ATOM     32  C   UNL     1       7.044   2.833   3.653  0.00  0.00    +0.000 A 
ENDBRANCH  26  27
ENDBRANCH  24  26
ENDBRANCH  23  24
ENDBRANCH   2  18
TORSDOF 6
