REMARK  Name = 
REMARK  8 active torsions:
REMARK  status: ('A' for Active; 'I' for Inactive)
REMARK    1  A    between atoms: C_1  and  O_2
REMARK    2  A    between atoms: O_2  and  C_3
REMARK    3  A    between atoms: C_7  and  C_8
REMARK    4  A    between atoms: C_11  and  C_12
REMARK    5  A    between atoms: N_14  and  C_15
REMARK    6  A    between atoms: C_15  and  C_16
REMARK    7  A    between atoms: C_19  and  C_20
REMARK    8  A    between atoms: C_27  and  O_28
REMARK                            x       y       z     vdW  Elec       q    Type
REMARK                         _______ _______ _______ _____ _____    ______ ____
ROOT
ATOM      1  C   UNL     1      10.161  -4.211   1.553  0.00  0.00    +0.000 C 
ATOM      2  O   UNL     1      10.186  -4.865   2.586  0.00  0.00    +0.000 OA
ATOM      3  N   UNL     1      11.305  -3.808   0.898  0.00  0.00    +0.000 N 
ATOM      4  H   UNL     1      11.225  -3.386  -0.021  0.00  0.00    +0.000 HD
ENDROOT
BRANCH   1   8
ATOM      5  C   UNL     1       6.383  -2.937   0.009  0.00  0.00    +0.000 A 
ATOM      6  C   UNL     1       6.431  -3.765   1.132  0.00  0.00    +0.000 A 
ATOM      7  C   UNL     1       7.671  -4.194   1.616  0.00  0.00    +0.000 A 
ATOM      8  C   UNL     1       8.848  -3.807   0.972  0.00  0.00    +0.000 A 
ATOM      9  C   UNL     1       8.703  -2.982  -0.129  0.00  0.00    +0.000 A 
ATOM     10  N   UNL     1       7.525  -2.530  -0.617  0.00  0.00    +0.000 NA
BRANCH   5  15
ATOM     11  C   UNL     1       2.797  -1.637  -0.323  0.00  0.00    +0.000 A 
ATOM     12  C   UNL     1       2.713  -1.434  -1.697  0.00  0.00    +0.000 A 
ATOM     13  C   UNL     1       3.804  -1.743  -2.509  0.00  0.00    +0.000 A 
ATOM     14  C   UNL     1       4.987  -2.230  -1.950  0.00  0.00    +0.000 A 
ATOM     15  C   UNL     1       5.112  -2.440  -0.566  0.00  0.00    +0.000 A 
ATOM     16  C   UNL     1       3.986  -2.142   0.230  0.00  0.00    +0.000 A 
BRANCH  11  18
ATOM     17  C   UNL     1       0.626  -0.752   0.084  0.00  0.00    +0.000 C 
ATOM     18  O   UNL     1       1.803  -1.380   0.584  0.00  0.00    +0.000 OA
ENDBRANCH  11  18
ENDBRANCH   5  15
BRANCH   9  19
ATOM     19  O   UNL     1       9.800  -2.473  -0.767  0.00  0.00    +0.000 OA
ATOM     20  H   UNL     1       9.584  -1.526  -0.812  0.00  0.00    +0.000 HD
ENDBRANCH   9  19
ENDBRANCH   1   8
BRANCH   3  21
ATOM     21  C   UNL     1      12.621  -4.118   1.405  0.00  0.00    +0.000 C 
BRANCH  21  22
ATOM     22  C   UNL     1      13.619  -3.051   1.034  0.00  0.00    +0.000 A 
ATOM     23  C   UNL     1      13.812  -1.938   1.865  0.00  0.00    +0.000 A 
ATOM     24  C   UNL     1      14.739  -0.947   1.521  0.00  0.00    +0.000 A 
ATOM     25  C   UNL     1      15.472  -1.032   0.330  0.00  0.00    +0.000 A 
ATOM     26  C   UNL     1      15.282  -2.150  -0.494  0.00  0.00    +0.000 A 
ATOM     27  C   UNL     1      14.361  -3.145  -0.149  0.00  0.00    +0.000 A 
BRANCH  25  28
ATOM     28  C   UNL     1      16.409   0.035  -0.029  0.00  0.00    +0.000 A 
ATOM     29  N   UNL     1      17.065   0.823   0.804  0.00  0.00    +0.000 NA
ATOM     30  C   UNL     1      17.813   1.668   0.025  0.00  0.00    +0.000 A 
ATOM     31  C   UNL     1      17.596   1.422  -1.307  0.00  0.00    +0.000 A 
ATOM     32  N   UNL     1      16.702   0.389  -1.329  0.00  0.00    +0.000 N 
ATOM     33  H   UNL     1      16.301  -0.036  -2.152  0.00  0.00    +0.000 HD
ENDBRANCH  25  28
ENDBRANCH  21  22
ENDBRANCH   3  21
TORSDOF 7
