REMARK  Name = 
REMARK  5 active torsions:
REMARK  status: ('A' for Active; 'I' for Inactive)
REMARK    1  A    between atoms: C_2  and  C_3
REMARK    2  A    between atoms: C_6  and  N_7
REMARK    3  A    between atoms: N_14  and  C_15
REMARK    4  A    between atoms: C_15  and  C_16
REMARK    5  A    between atoms: C_20  and  C_21
REMARK                            x       y       z     vdW  Elec       q    Type
REMARK                         _______ _______ _______ _____ _____    ______ ____
ROOT
ATOM      1  N   UNL     1      10.017   0.223   1.276  0.00  0.00    +0.000 N 
ATOM      2  C   UNL     1       9.432  -0.061   0.068  0.00  0.00    +0.000 A 
ATOM      3  N   UNL     1       8.126   0.088   0.148  0.00  0.00    +0.000 NA
ATOM      4  C   UNL     1       7.950   0.520   1.427  0.00  0.00    +0.000 A 
ATOM      5  N   UNL     1       6.717   0.903   1.863  0.00  0.00    +0.000 N 
ATOM      6  C   UNL     1       6.422   1.557   3.022  0.00  0.00    +0.000 C 
ATOM      7  O   UNL     1       5.255   1.832   3.289  0.00  0.00    +0.000 OA
ATOM      8  N   UNL     1       7.471   1.935   3.802  0.00  0.00    +0.000 N 
ATOM      9  N   UNL     1       9.061   0.570   2.157  0.00  0.00    +0.000 NA
ATOM     10  H   UNL     1       5.950   0.738   1.230  0.00  0.00    +0.000 HD
ATOM     11  H   UNL     1       8.390   1.613   3.518  0.00  0.00    +0.000 HD
ENDROOT
BRANCH   1  15
ATOM     12  C   UNL     1      14.056   0.462   2.449  0.00  0.00    +0.000 A 
ATOM     13  C   UNL     1      13.733   0.173   1.116  0.00  0.00    +0.000 A 
ATOM     14  C   UNL     1      12.397   0.063   0.715  0.00  0.00    +0.000 A 
ATOM     15  C   UNL     1      11.380   0.260   1.653  0.00  0.00    +0.000 A 
ATOM     16  C   UNL     1      11.706   0.540   2.993  0.00  0.00    +0.000 A 
ATOM     17  C   UNL     1      13.040   0.639   3.388  0.00  0.00    +0.000 A 
BRANCH  12  19
ATOM     18  N   UNL     1      16.537   0.684   3.169  0.00  0.00    +0.000 NA
ATOM     19  C   UNL     1      15.430   0.586   2.846  0.00  0.00    +0.000 C 
ENDBRANCH  12  19
ENDBRANCH   1  15
BRANCH   8  20
ATOM     20  C   UNL     1       7.358   2.699   5.018  0.00  0.00    +0.000 C 
BRANCH  20  21
ATOM     21  C   UNL     1       7.896   1.919   6.190  0.00  0.00    +0.000 A 
ATOM     22  C   UNL     1       7.037   1.105   6.935  0.00  0.00    +0.000 A 
ATOM     23  C   UNL     1       7.524   0.367   8.009  0.00  0.00    +0.000 A 
ATOM     24  C   UNL     1       8.885   0.400   8.319  0.00  0.00    +0.000 A 
ATOM     25  C   UNL     1       9.794   1.155   7.554  0.00  0.00    +0.000 A 
ATOM     26  C   UNL     1       9.265   1.942   6.512  0.00  0.00    +0.000 A 
BRANCH  25  27
ATOM     27  C   UNL     1      11.253   1.073   7.777  0.00  0.00    +0.000 A 
ATOM     28  C   UNL     1      11.868  -0.108   8.201  0.00  0.00    +0.000 A 
ATOM     29  C   UNL     1      13.255  -0.162   8.310  0.00  0.00    +0.000 A 
ATOM     30  C   UNL     1      14.002   0.966   8.004  0.00  0.00    +0.000 A 
ATOM     31  C   UNL     1      13.326   2.103   7.601  0.00  0.00    +0.000 A 
ATOM     32  N   UNL     1      11.981   2.177   7.467  0.00  0.00    +0.000 NA
ENDBRANCH  25  27
ENDBRANCH  20  21
ENDBRANCH   8  20
TORSDOF 5
