REMARK  Name = 
REMARK  9 active torsions:
REMARK  status: ('A' for Active; 'I' for Inactive)
REMARK    1  A    between atoms: C_1  and  N_2
REMARK    2  A    between atoms: C_6  and  C_7
REMARK    3  A    between atoms: C_7  and  O_8
REMARK    4  A    between atoms: O_8  and  C_9
REMARK    5  A    between atoms: C_12  and  C_13
REMARK    6  A    between atoms: C_15  and  C_16
REMARK    7  A    between atoms: C_16  and  C_17
REMARK    8  A    between atoms: N_19  and  C_20
REMARK    9  A    between atoms: C_20  and  C_21
REMARK                            x       y       z     vdW  Elec       q    Type
REMARK                         _______ _______ _______ _____ _____    ______ ____
ROOT
ATOM      1  C   UNL     1       4.586   7.484   0.399  0.00  0.00    +0.000 A 
ATOM      2  N   UNL     1       4.960   8.079   1.510  0.00  0.00    +0.000 NA
ATOM      3  C   UNL     1       5.629   9.179   1.042  0.00  0.00    +0.000 A 
ATOM      4  N   UNL     1       5.661   9.297  -0.293  0.00  0.00    +0.000 NA
ATOM      5  O   UNL     1       4.959   8.169  -0.725  0.00  0.00    +0.000 OA
ENDROOT
BRANCH   1   9
ATOM      6  C   UNL     1       2.460   3.813  -0.111  0.00  0.00    +0.000 A 
ATOM      7  C   UNL     1       2.716   4.312   1.166  0.00  0.00    +0.000 A 
ATOM      8  C   UNL     1       3.410   5.515   1.325  0.00  0.00    +0.000 A 
ATOM      9  C   UNL     1       3.870   6.231   0.210  0.00  0.00    +0.000 A 
ATOM     10  C   UNL     1       3.643   5.699  -1.066  0.00  0.00    +0.000 A 
ATOM     11  C   UNL     1       2.956   4.493  -1.224  0.00  0.00    +0.000 A 
BRANCH   6  12
ATOM     12  O   UNL     1       1.717   2.664  -0.163  0.00  0.00    +0.000 OA
BRANCH  12  13
ATOM     13  C   UNL     1       1.049   2.446  -1.410  0.00  0.00    +0.000 C 
BRANCH  13  19
ATOM     14  C   UNL     1      -1.279   2.636   0.603  0.00  0.00    +0.000 C 
ATOM     15  N   UNL     1      -1.058   1.547  -0.319  0.00  0.00    +0.000 N 
ATOM     16  C   UNL     1      -1.885   0.472  -0.487  0.00  0.00    +0.000 A 
ATOM     17  C   UNL     1      -1.300  -0.279  -1.477  0.00  0.00    +0.000 A 
ATOM     18  N   UNL     1      -0.150   0.315  -1.917  0.00  0.00    +0.000 NA
ATOM     19  C   UNL     1      -0.014   1.420  -1.207  0.00  0.00    +0.000 A 
ENDBRANCH  13  19
ENDBRANCH  12  13
ENDBRANCH   6  12
ENDBRANCH   1   9
BRANCH   3  20
ATOM     20  C   UNL     1       6.279  10.156   1.935  0.00  0.00    +0.000 C 
BRANCH  20  21
ATOM     21  C   UNL     1       7.697   9.740   2.255  0.00  0.00    +0.000 C 
ATOM     22  O   UNL     1       8.050   9.475   3.402  0.00  0.00    +0.000 OA
ATOM     23  N   UNL     1       8.576   9.757   1.192  0.00  0.00    +0.000 N 
ATOM     24  H   UNL     1       8.200   9.767   0.249  0.00  0.00    +0.000 HD
BRANCH  23  25
ATOM     25  C   UNL     1       9.948   9.338   1.370  0.00  0.00    +0.000 C 
BRANCH  25  26
ATOM     26  C   UNL     1      10.847  10.003   0.362  0.00  0.00    +0.000 A 
ATOM     27  C   UNL     1      11.213   9.350  -0.827  0.00  0.00    +0.000 A 
ATOM     28  C   UNL     1      12.042   9.985  -1.756  0.00  0.00    +0.000 A 
ATOM     29  C   UNL     1      12.500  11.274  -1.503  0.00  0.00    +0.000 A 
ATOM     30  F   UNL     1      13.294  11.877  -2.399  0.00  0.00    +0.000 F 
ATOM     31  C   UNL     1      12.136  11.931  -0.336  0.00  0.00    +0.000 A 
ATOM     32  F   UNL     1      12.576  13.174  -0.094  0.00  0.00    +0.000 F 
ATOM     33  C   UNL     1      11.312  11.307   0.595  0.00  0.00    +0.000 A 
ENDBRANCH  25  26
ENDBRANCH  23  25
ENDBRANCH  20  21
ENDBRANCH   3  20
TORSDOF 8
