REMARK  Name = 
REMARK  6 active torsions:
REMARK  status: ('A' for Active; 'I' for Inactive)
REMARK    1  A    between atoms: C_2  and  C_16
REMARK    2  A    between atoms: N_3  and  C_4
REMARK    3  A    between atoms: N_6  and  C_7
REMARK    4  A    between atoms: C_7  and  C_8
REMARK    5  A    between atoms: C_21  and  O_22
REMARK    6  A    between atoms: O_22  and  C_23
REMARK                            x       y       z     vdW  Elec       q    Type
REMARK                         _______ _______ _______ _____ _____    ______ ____
ROOT
ATOM      1  O   UNL     1       0.930  -0.136   0.070  0.00  0.00    +0.000 OA
ATOM      2  C   UNL     1       2.109   0.151  -0.135  0.00  0.00    +0.000 C 
ATOM      3  N   UNL     1       2.679   1.367   0.189  0.00  0.00    +0.000 N 
ATOM      4  H   UNL     1       3.662   1.518  -0.005  0.00  0.00    +0.000 HD
ENDROOT
BRANCH   2   5
ATOM      5  C   UNL     1       2.963  -0.888  -0.804  0.00  0.00    +0.000 A 
ATOM      6  C   UNL     1       2.277  -2.057  -1.191  0.00  0.00    +0.000 A 
ATOM      7  C   UNL     1       2.952  -3.069  -1.846  0.00  0.00    +0.000 A 
ATOM      8  N   UNL     1       4.246  -2.983  -2.188  0.00  0.00    +0.000 NA
ATOM      9  C   UNL     1       4.895  -1.856  -1.818  0.00  0.00    +0.000 A 
ATOM     10  C   UNL     1       4.335  -0.811  -1.069  0.00  0.00    +0.000 A 
BRANCH  10  11
ATOM     11  O   UNL     1       5.106   0.241  -0.614  0.00  0.00    +0.000 OA
BRANCH  11  12
ATOM     12  C   UNL     1       6.422  -0.045  -0.276  0.00  0.00    +0.000 A 
ATOM     13  C   UNL     1       7.418   0.832  -0.718  0.00  0.00    +0.000 A 
ATOM     14  C   UNL     1       8.766   0.528  -0.483  0.00  0.00    +0.000 A 
ATOM     15  C   UNL     1       9.104  -0.644   0.189  0.00  0.00    +0.000 A 
ATOM     16  F   UNL     1      10.393  -0.953   0.374  0.00  0.00    +0.000 F 
ATOM     17  C   UNL     1       8.120  -1.498   0.669  0.00  0.00    +0.000 A 
ATOM     18  C   UNL     1       6.775  -1.183   0.466  0.00  0.00    +0.000 A 
ENDBRANCH  11  12
ENDBRANCH  10  11
ENDBRANCH   2   5
BRANCH   3  19
ATOM     19  C   UNL     1       1.996   2.413   0.803  0.00  0.00    +0.000 A 
ATOM     20  C   UNL     1       0.673   2.486   1.183  0.00  0.00    +0.000 A 
ATOM     21  N   UNL     1       0.509   3.687   1.819  0.00  0.00    +0.000 N 
ATOM     22  N   UNL     1       1.627   4.452   1.793  0.00  0.00    +0.000 NA
ATOM     23  C   UNL     1       2.527   3.661   1.191  0.00  0.00    +0.000 A 
BRANCH  21  24
ATOM     24  C   UNL     1      -0.695   4.172   2.482  0.00  0.00    +0.000 C 
BRANCH  24  25
ATOM     25  C   UNL     1      -0.750   3.727   3.924  0.00  0.00    +0.000 A 
ATOM     26  C   UNL     1       0.258   4.079   4.823  0.00  0.00    +0.000 A 
ATOM     27  C   UNL     1       0.185   3.627   6.137  0.00  0.00    +0.000 A 
ATOM     28  C   UNL     1      -0.898   2.854   6.532  0.00  0.00    +0.000 A 
ATOM     29  C   UNL     1      -1.874   2.573   5.592  0.00  0.00    +0.000 A 
ATOM     30  N   UNL     1      -1.828   2.991   4.306  0.00  0.00    +0.000 NA
ENDBRANCH  24  25
ENDBRANCH  21  24
ENDBRANCH   3  19
TORSDOF 6
