REMARK  Name = 
REMARK  6 active torsions:
REMARK  status: ('A' for Active; 'I' for Inactive)
REMARK    1  A    between atoms: C_2  and  C_12
REMARK    2  A    between atoms: N_3  and  C_4
REMARK    3  A    between atoms: C_4  and  C_5
REMARK    4  A    between atoms: C_17  and  C_18
REMARK    5  A    between atoms: C_26  and  O_27
REMARK    6  A    between atoms: O_27  and  C_28
REMARK                            x       y       z     vdW  Elec       q    Type
REMARK                         _______ _______ _______ _____ _____    ______ ____
ROOT
ATOM      1  C   UNL     1       2.929  -1.035   0.686  0.00  0.00    +0.000 A 
ATOM      2  N   UNL     1       2.507  -2.344   0.769  0.00  0.00    +0.000 NA
ATOM      3  C   UNL     1       3.032  -3.076   1.779  0.00  0.00    +0.000 A 
ATOM      4  C   UNL     1       3.969  -2.565   2.653  0.00  0.00    +0.000 A 
ATOM      5  N   UNL     1       4.425  -1.301   2.551  0.00  0.00    +0.000 NA
ATOM      6  C   UNL     1       3.878  -0.519   1.562  0.00  0.00    +0.000 A 
ENDROOT
BRANCH   6   7
ATOM      7  C   UNL     1       4.431   0.875   1.502  0.00  0.00    +0.000 C 
ATOM      8  O   UNL     1       4.769   1.334   0.415  0.00  0.00    +0.000 OA
ATOM      9  N   UNL     1       4.626   1.561   2.721  0.00  0.00    +0.000 N 
ATOM     10  C   UNL     1       5.212   2.902   2.702  0.00  0.00    +0.000 C 
ATOM     11  C   UNL     1       5.817   3.333   4.047  0.00  0.00    +0.000 C 
ATOM     12  C   UNL     1       4.833   3.139   5.171  0.00  0.00    +0.000 A 
ATOM     13  C   UNL     1       4.848   3.932   6.322  0.00  0.00    +0.000 A 
ATOM     14  C   UNL     1       3.939   3.685   7.358  0.00  0.00    +0.000 A 
ATOM     15  C   UNL     1       3.005   2.654   7.255  0.00  0.00    +0.000 A 
ATOM     16  C   UNL     1       3.023   1.833   6.132  0.00  0.00    +0.000 A 
ATOM     17  C   UNL     1       3.927   2.076   5.087  0.00  0.00    +0.000 A 
ATOM     18  C   UNL     1       3.986   1.099   3.948  0.00  0.00    +0.000 C 
BRANCH  15  19
ATOM     19  O   UNL     1       2.155   2.503   8.315  0.00  0.00    +0.000 OA
BRANCH  19  20
ATOM     20  C   UNL     1       0.899   1.922   7.993  0.00  0.00    +0.000 C 
ATOM     21  F   UNL     1       1.026   0.571   7.993  0.00  0.00    +0.000 F 
ATOM     22  F   UNL     1       0.038   2.231   8.995  0.00  0.00    +0.000 F 
ENDBRANCH  19  20
ENDBRANCH  15  19
ENDBRANCH   6   7
BRANCH   1  24
ATOM     23  O   UNL     1       2.005   0.983  -0.141  0.00  0.00    +0.000 OA
ATOM     24  C   UNL     1       2.186  -0.214  -0.313  0.00  0.00    +0.000 C 
ATOM     25  N   UNL     1       1.657  -0.925  -1.380  0.00  0.00    +0.000 N 
ATOM     26  H   UNL     1       1.799  -1.930  -1.390  0.00  0.00    +0.000 HD
BRANCH  25  27
ATOM     27  C   UNL     1       0.977  -0.294  -2.486  0.00  0.00    +0.000 C 
BRANCH  27  28
ATOM     28  C   UNL     1      -0.414  -0.849  -2.706  0.00  0.00    +0.000 A 
ATOM     29  C   UNL     1      -1.512  -0.272  -2.053  0.00  0.00    +0.000 A 
ATOM     30  C   UNL     1      -2.807  -0.743  -2.288  0.00  0.00    +0.000 A 
ATOM     31  C   UNL     1      -3.004  -1.799  -3.165  0.00  0.00    +0.000 A 
ATOM     32  F   UNL     1      -4.246  -2.246  -3.398  0.00  0.00    +0.000 F 
ATOM     33  C   UNL     1      -1.928  -2.400  -3.811  0.00  0.00    +0.000 A 
ATOM     34  C   UNL     1      -0.631  -1.928  -3.578  0.00  0.00    +0.000 A 
ENDBRANCH  27  28
ENDBRANCH  25  27
ENDBRANCH   1  24
TORSDOF 6
