REMARK  Name = 
REMARK  4 active torsions:
REMARK  status: ('A' for Active; 'I' for Inactive)
REMARK    1  A    between atoms: C_2  and  C_3
REMARK    2  A    between atoms: C_9  and  C_10
REMARK    3  A    between atoms: N_12  and  C_13
REMARK    4  A    between atoms: C_16  and  N_17
REMARK                            x       y       z     vdW  Elec       q    Type
REMARK                         _______ _______ _______ _____ _____    ______ ____
ROOT
ATOM      1  C   UNL     1       8.584   1.381  -0.557  0.00  0.00    +0.000 C 
ATOM      2  O   UNL     1       9.634   1.324  -1.187  0.00  0.00    +0.000 OA
ATOM      3  N   UNL     1       8.096   2.514   0.074  0.00  0.00    +0.000 N 
ATOM      4  H   UNL     1       7.330   2.454   0.731  0.00  0.00    +0.000 HD
ENDROOT
BRANCH   1  11
ATOM      5  C   UNL     1       7.856  -2.294  -0.948  0.00  0.00    +0.000 A 
ATOM      6  C   UNL     1       6.611  -2.415  -0.351  0.00  0.00    +0.000 A 
ATOM      7  F   UNL     1       6.009  -3.610  -0.279  0.00  0.00    +0.000 F 
ATOM      8  C   UNL     1       5.978  -1.292   0.179  0.00  0.00    +0.000 A 
ATOM      9  F   UNL     1       4.772  -1.418   0.748  0.00  0.00    +0.000 F 
ATOM     10  C   UNL     1       6.572  -0.029   0.134  0.00  0.00    +0.000 A 
ATOM     11  C   UNL     1       7.832   0.102  -0.447  0.00  0.00    +0.000 A 
ATOM     12  C   UNL     1       8.461  -1.037  -0.997  0.00  0.00    +0.000 A 
BRANCH   5  14
ATOM     13  N   UNL     1       9.089  -4.332  -1.962  0.00  0.00    +0.000 NA
ATOM     14  C   UNL     1       8.520  -3.431  -1.504  0.00  0.00    +0.000 C 
ENDBRANCH   5  14
ENDBRANCH   1  11
BRANCH   3  15
ATOM     15  C   UNL     1       8.724   3.787  -0.001  0.00  0.00    +0.000 A 
ATOM     16  C   UNL     1       9.713   4.080  -0.945  0.00  0.00    +0.000 A 
ATOM     17  C   UNL     1      10.353   5.313  -0.950  0.00  0.00    +0.000 A 
ATOM     18  C   UNL     1       9.979   6.306  -0.045  0.00  0.00    +0.000 A 
ATOM     19  C   UNL     1       8.956   6.049   0.874  0.00  0.00    +0.000 A 
ATOM     20  C   UNL     1       8.347   4.793   0.894  0.00  0.00    +0.000 A 
ATOM     21  F   UNL     1       7.406   4.540   1.818  0.00  0.00    +0.000 F 
BRANCH  18  22
ATOM     22  N   UNL     1      10.647   7.563  -0.091  0.00  0.00    +0.000 N 
ATOM     23  C   UNL     1      12.038   7.615  -0.114  0.00  0.00    +0.000 A 
ATOM     24  C   UNL     1      12.698   8.771  -0.227  0.00  0.00    +0.000 A 
ATOM     25  C   UNL     1      11.968  10.003  -0.355  0.00  0.00    +0.000 A 
ATOM     26  C   UNL     1      10.630  10.002  -0.355  0.00  0.00    +0.000 A 
ATOM     27  C   UNL     1       9.870   8.726  -0.221  0.00  0.00    +0.000 A 
ATOM     28  O   UNL     1       8.643   8.773  -0.282  0.00  0.00    +0.000 OA
ENDBRANCH  18  22
ENDBRANCH   3  15
TORSDOF 4
