REMARK  Name = 
REMARK  6 active torsions:
REMARK  status: ('A' for Active; 'I' for Inactive)
REMARK    1  A    between atoms: C_1  and  N_2
REMARK    2  A    between atoms: N_2  and  C_3
REMARK    3  A    between atoms: N_2  and  C_23
REMARK    4  A    between atoms: C_3  and  C_4
REMARK    5  A    between atoms: C_8  and  C_9
REMARK    6  A    between atoms: C_12  and  C_13
REMARK                            x       y       z     vdW  Elec       q    Type
REMARK                         _______ _______ _______ _____ _____    ______ ____
ROOT
ATOM      1  C   UNL     1       2.285   1.611   1.778  0.00  0.00    +0.000 A 
ATOM      2  C   UNL     1       1.389   0.973   2.638  0.00  0.00    +0.000 A 
ATOM      3  C   UNL     1       0.623   1.720   3.527  0.00  0.00    +0.000 A 
ATOM      4  C   UNL     1       0.770   3.109   3.581  0.00  0.00    +0.000 A 
ATOM      5  C   UNL     1       1.694   3.780   2.762  0.00  0.00    +0.000 A 
ATOM      6  C   UNL     1       2.426   3.007   1.845  0.00  0.00    +0.000 A 
ENDROOT
BRANCH   5   7
ATOM      7  C   UNL     1       1.933   5.230   2.890  0.00  0.00    +0.000 A 
ATOM      8  C   UNL     1       2.259   6.038   1.793  0.00  0.00    +0.000 A 
ATOM      9  C   UNL     1       2.522   7.396   1.965  0.00  0.00    +0.000 A 
ATOM     10  C   UNL     1       2.445   7.931   3.244  0.00  0.00    +0.000 A 
ATOM     11  N   UNL     1       2.134   7.193   4.336  0.00  0.00    +0.000 NA
ATOM     12  C   UNL     1       1.895   5.875   4.129  0.00  0.00    +0.000 A 
BRANCH  10  13
ATOM     13  C   UNL     1       2.714   9.385   3.461  0.00  0.00    +0.000 A 
ATOM     14  N   UNL     1       2.972  10.150   2.443  0.00  0.00    +0.000 NA
ATOM     15  C   UNL     1       3.221  11.480   2.656  0.00  0.00    +0.000 A 
ATOM     16  O   UNL     1       3.462  12.264   1.743  0.00  0.00    +0.000 OA
ATOM     17  N   UNL     1       3.198  11.941   3.949  0.00  0.00    +0.000 N 
ATOM     18  C   UNL     1       2.929  11.158   5.030  0.00  0.00    +0.000 A 
ATOM     19  C   UNL     1       2.669   9.861   4.868  0.00  0.00    +0.000 A 
ATOM     20  H   UNL     1       3.393  12.929   4.051  0.00  0.00    +0.000 HD
ENDBRANCH  10  13
ENDBRANCH   5   7
BRANCH   1  21
ATOM     21  C   UNL     1       3.135   0.814   0.817  0.00  0.00    +0.000 C 
BRANCH  21  23
ATOM     22  C   UNL     1       4.973   0.875   2.600  0.00  0.00    +0.000 C 
ATOM     23  N   UNL     1       4.451   0.400   1.321  0.00  0.00    +0.000 N 
BRANCH  23  24
ATOM     24  C   UNL     1       5.214  -0.495   0.561  0.00  0.00    +0.000 A 
ATOM     25  C   UNL     1       6.410  -1.055   1.044  0.00  0.00    +0.000 A 
ATOM     26  C   UNL     1       7.154  -1.986   0.305  0.00  0.00    +0.000 A 
ATOM     27  C   UNL     1       6.724  -2.381  -0.954  0.00  0.00    +0.000 A 
ATOM     28  C   UNL     1       5.562  -1.832  -1.476  0.00  0.00    +0.000 A 
ATOM     29  C   UNL     1       4.827  -0.902  -0.730  0.00  0.00    +0.000 A 
ENDBRANCH  23  24
ENDBRANCH  21  23
ENDBRANCH   1  21
TORSDOF 5
