REMARK  Name = 
REMARK  7 active torsions:
REMARK  status: ('A' for Active; 'I' for Inactive)
REMARK    1  A    between atoms: C_1  and  N_2
REMARK    2  A    between atoms: N_2  and  C_3
REMARK    3  A    between atoms: C_3  and  C_4
REMARK    4  A    between atoms: N_6  and  C_7
REMARK    5  A    between atoms: C_12  and  C_13
REMARK    6  A    between atoms: C_21  and  C_23
REMARK    7  A    between atoms: C_23  and  C_24
REMARK                            x       y       z     vdW  Elec       q    Type
REMARK                         _______ _______ _______ _____ _____    ______ ____
ROOT
ATOM      1  C   UNL     1       2.125  -0.259  -2.336  0.00  0.00    +0.000 A 
ATOM      2  C   UNL     1       1.559  -1.412  -2.835  0.00  0.00    +0.000 A 
ATOM      3  N   UNL     1       0.819  -1.000  -3.922  0.00  0.00    +0.000 N 
ATOM      4  N   UNL     1       0.836   0.351  -3.987  0.00  0.00    +0.000 NA
ATOM      5  N   UNL     1       1.648   0.808  -3.044  0.00  0.00    +0.000 NA
ENDROOT
BRANCH   3   6
ATOM      6  C   UNL     1       0.110  -1.816  -4.838  0.00  0.00    +0.000 A 
ATOM      7  C   UNL     1      -0.526  -2.956  -4.292  0.00  0.00    +0.000 A 
ATOM      8  C   UNL     1      -1.333  -3.768  -5.080  0.00  0.00    +0.000 A 
ATOM      9  C   UNL     1      -1.503  -3.463  -6.420  0.00  0.00    +0.000 A 
ATOM     10  C   UNL     1      -0.834  -2.368  -6.979  0.00  0.00    +0.000 A 
ATOM     11  C   UNL     1       0.007  -1.512  -6.224  0.00  0.00    +0.000 A 
BRANCH  11  12
ATOM     12  C   UNL     1       0.787  -0.457  -6.954  0.00  0.00    +0.000 A 
ATOM     13  C   UNL     1       0.268   0.196  -8.091  0.00  0.00    +0.000 A 
ATOM     14  C   UNL     1       0.997   1.171  -8.786  0.00  0.00    +0.000 A 
ATOM     15  C   UNL     1       2.254   1.557  -8.336  0.00  0.00    +0.000 A 
ATOM     16  C   UNL     1       2.803   0.926  -7.230  0.00  0.00    +0.000 A 
ATOM     17  C   UNL     1       2.098  -0.097  -6.585  0.00  0.00    +0.000 A 
ENDBRANCH  11  12
ENDBRANCH   3   6
BRANCH   1  18
ATOM     18  C   UNL     1       3.077  -0.067  -1.216  0.00  0.00    +0.000 C 
BRANCH  18  20
ATOM     19  C   UNL     1       4.979  -0.433  -2.896  0.00  0.00    +0.000 C 
ATOM     20  N   UNL     1       4.496  -0.310  -1.524  0.00  0.00    +0.000 N 
ATOM     21  C   UNL     1       5.487  -0.252  -0.540  0.00  0.00    +0.000 C 
ATOM     22  O   UNL     1       6.680  -0.390  -0.824  0.00  0.00    +0.000 OA
BRANCH  21  23
ATOM     23  C   UNL     1       5.080   0.004   0.901  0.00  0.00    +0.000 C 
BRANCH  23  24
ATOM     24  C   UNL     1       4.664  -1.243   1.627  0.00  0.00    +0.000 A 
ATOM     25  N   UNL     1       3.380  -1.300   2.077  0.00  0.00    +0.000 NA
ATOM     26  C   UNL     1       3.008  -2.409   2.759  0.00  0.00    +0.000 A 
ATOM     27  C   UNL     1       3.850  -3.481   3.011  0.00  0.00    +0.000 A 
ATOM     28  C   UNL     1       5.155  -3.413   2.540  0.00  0.00    +0.000 A 
ATOM     29  C   UNL     1       5.568  -2.280   1.852  0.00  0.00    +0.000 A 
ATOM     30  F   UNL     1       6.832  -2.202   1.424  0.00  0.00    +0.000 F 
ENDBRANCH  23  24
ENDBRANCH  21  23
ENDBRANCH  18  20
ENDBRANCH   1  18
TORSDOF 6
