REMARK  Name = 
REMARK  6 active torsions:
REMARK  status: ('A' for Active; 'I' for Inactive)
REMARK    1  A    between atoms: C_2  and  C_17
REMARK    2  A    between atoms: N_3  and  C_4
REMARK    3  A    between atoms: C_4  and  C_5
REMARK    4  A    between atoms: C_9  and  C_10
REMARK    5  A    between atoms: N_19  and  C_20
REMARK    6  A    between atoms: C_20  and  C_21
REMARK                            x       y       z     vdW  Elec       q    Type
REMARK                         _______ _______ _______ _____ _____    ______ ____
ROOT
ATOM      1  O   UNL     1       0.862  -0.008   0.223  0.00  0.00    +0.000 OA
ATOM      2  C   UNL     1       2.072  -0.067   0.024  0.00  0.00    +0.000 C 
ATOM      3  N   UNL     1       2.809  -1.226   0.122  0.00  0.00    +0.000 N 
ATOM      4  H   UNL     1       3.812  -1.117   0.010  0.00  0.00    +0.000 HD
ENDROOT
BRANCH   2   5
ATOM      5  C   UNL     1       2.875   1.106  -0.354  0.00  0.00    +0.000 A 
ATOM      6  N   UNL     1       4.194   1.017  -0.632  0.00  0.00    +0.000 NA
ATOM      7  N   UNL     1       4.556   2.289  -0.917  0.00  0.00    +0.000 N 
ATOM      8  C   UNL     1       3.513   3.170  -0.878  0.00  0.00    +0.000 A 
ATOM      9  C   UNL     1       2.414   2.440  -0.498  0.00  0.00    +0.000 A 
BRANCH   7  10
ATOM     10  C   UNL     1       5.938   2.598  -1.270  0.00  0.00    +0.000 C 
BRANCH  10  11
ATOM     11  C   UNL     1       6.744   3.023  -0.066  0.00  0.00    +0.000 A 
ATOM     12  C   UNL     1       6.907   2.156   1.026  0.00  0.00    +0.000 A 
ATOM     13  C   UNL     1       7.637   2.552   2.148  0.00  0.00    +0.000 A 
ATOM     14  C   UNL     1       8.226   3.813   2.184  0.00  0.00    +0.000 A 
ATOM     15  C   UNL     1       8.094   4.675   1.098  0.00  0.00    +0.000 A 
ATOM     16  C   UNL     1       7.358   4.285  -0.023  0.00  0.00    +0.000 A 
ENDBRANCH  10  11
ENDBRANCH   7  10
ENDBRANCH   2   5
BRANCH   3  17
ATOM     17  C   UNL     1       2.241  -2.489   0.508  0.00  0.00    +0.000 C 
BRANCH  17  18
ATOM     18  C   UNL     1       2.304  -2.696   1.999  0.00  0.00    +0.000 A 
ATOM     19  C   UNL     1       3.337  -3.435   2.584  0.00  0.00    +0.000 A 
ATOM     20  C   UNL     1       3.382  -3.599   3.966  0.00  0.00    +0.000 A 
ATOM     21  C   UNL     1       2.411  -3.005   4.778  0.00  0.00    +0.000 A 
ATOM     22  C   UNL     1       1.379  -2.222   4.231  0.00  0.00    +0.000 A 
ATOM     23  C   UNL     1       1.338  -2.101   2.831  0.00  0.00    +0.000 A 
BRANCH  22  24
ATOM     24  C   UNL     1       0.404  -1.511   5.088  0.00  0.00    +0.000 A 
ATOM     25  C   UNL     1      -0.928  -1.304   4.708  0.00  0.00    +0.000 A 
ATOM     26  C   UNL     1      -1.798  -0.577   5.523  0.00  0.00    +0.000 A 
ATOM     27  C   UNL     1      -1.315  -0.080   6.720  0.00  0.00    +0.000 A 
ATOM     28  N   UNL     1      -0.049  -0.256   7.142  0.00  0.00    +0.000 NA
ATOM     29  C   UNL     1       0.772  -0.954   6.317  0.00  0.00    +0.000 A 
ENDBRANCH  22  24
ENDBRANCH  17  18
ENDBRANCH   3  17
TORSDOF 6
