REMARK  Name = 
REMARK  7 active torsions:
REMARK  status: ('A' for Active; 'I' for Inactive)
REMARK    1  A    between atoms: C_2  and  C_19
REMARK    2  A    between atoms: N_3  and  C_4
REMARK    3  A    between atoms: C_4  and  C_5
REMARK    4  A    between atoms: C_8  and  C_9
REMARK    5  A    between atoms: C_9  and  O_10
REMARK    6  A    between atoms: O_10  and  C_11
REMARK    7  A    between atoms: N_21  and  C_22
REMARK                            x       y       z     vdW  Elec       q    Type
REMARK                         _______ _______ _______ _____ _____    ______ ____
ROOT
ATOM      1  O   UNL     1       1.054   0.309  -0.144  0.00  0.00    +0.000 OA
ATOM      2  C   UNL     1       2.279   0.233  -0.068  0.00  0.00    +0.000 C 
ATOM      3  N   UNL     1       2.970   0.600   1.054  0.00  0.00    +0.000 N 
ATOM      4  H   UNL     1       3.974   0.511   1.128  0.00  0.00    +0.000 HD
ENDROOT
BRANCH   2   5
ATOM      5  C   UNL     1       3.109  -0.326  -1.182  0.00  0.00    +0.000 A 
ATOM      6  C   UNL     1       2.475  -1.114  -2.067  0.00  0.00    +0.000 A 
ATOM      7  N   UNL     1       3.123  -1.689  -3.159  0.00  0.00    +0.000 N 
ATOM      8  C   UNL     1       4.495  -1.468  -3.386  0.00  0.00    +0.000 A 
ATOM      9  O   UNL     1       5.176  -1.957  -4.285  0.00  0.00    +0.000 OA
ATOM     10  C   UNL     1       5.182  -0.589  -2.398  0.00  0.00    +0.000 A 
ATOM     11  C   UNL     1       4.516  -0.050  -1.370  0.00  0.00    +0.000 A 
BRANCH   7  12
ATOM     12  C   UNL     1       2.410  -2.558  -4.045  0.00  0.00    +0.000 A 
ATOM     13  C   UNL     1       1.575  -3.557  -3.528  0.00  0.00    +0.000 A 
ATOM     14  C   UNL     1       0.909  -4.417  -4.394  0.00  0.00    +0.000 A 
ATOM     15  F   UNL     1       0.157  -5.404  -3.888  0.00  0.00    +0.000 F 
ATOM     16  C   UNL     1       1.020  -4.280  -5.772  0.00  0.00    +0.000 A 
ATOM     17  C   UNL     1       1.826  -3.274  -6.297  0.00  0.00    +0.000 A 
ATOM     18  C   UNL     1       2.532  -2.427  -5.436  0.00  0.00    +0.000 A 
ENDBRANCH   7  12
ENDBRANCH   2   5
BRANCH   3  19
ATOM     19  C   UNL     1       2.274   1.105   2.215  0.00  0.00    +0.000 C 
BRANCH  19  20
ATOM     20  C   UNL     1       3.241   1.417   3.303  0.00  0.00    +0.000 A 
ATOM     21  N   UNL     1       4.470   1.888   3.034  0.00  0.00    +0.000 NA
ATOM     22  O   UNL     1       5.081   2.067   4.265  0.00  0.00    +0.000 OA
ATOM     23  C   UNL     1       4.222   1.704   5.254  0.00  0.00    +0.000 A 
ATOM     24  C   UNL     1       3.042   1.280   4.695  0.00  0.00    +0.000 A 
BRANCH  23  25
ATOM     25  C   UNL     1       4.701   1.841   6.646  0.00  0.00    +0.000 C 
BRANCH  25  26
ATOM     26  O   UNL     1       5.285   0.587   6.991  0.00  0.00    +0.000 OA
BRANCH  26  27
ATOM     27  C   UNL     1       5.753   0.452   8.270  0.00  0.00    +0.000 A 
ATOM     28  C   UNL     1       6.369  -0.776   8.530  0.00  0.00    +0.000 A 
ATOM     29  C   UNL     1       6.883  -1.063   9.798  0.00  0.00    +0.000 A 
ATOM     30  C   UNL     1       6.782  -0.119  10.818  0.00  0.00    +0.000 A 
ATOM     31  C   UNL     1       6.173   1.107  10.571  0.00  0.00    +0.000 A 
ATOM     32  C   UNL     1       5.666   1.389   9.304  0.00  0.00    +0.000 A 
ATOM     33  F   UNL     1       5.089   2.585   9.120  0.00  0.00    +0.000 F 
ENDBRANCH  26  27
ENDBRANCH  25  26
ENDBRANCH  23  25
ENDBRANCH  19  20
ENDBRANCH   3  19
TORSDOF 7
