REMARK  Name = 
REMARK  8 active torsions:
REMARK  status: ('A' for Active; 'I' for Inactive)
REMARK    1  A    between atoms: C_1  and  C_2
REMARK    2  A    between atoms: C_3  and  C_4
REMARK    3  A    between atoms: N_6  and  C_7
REMARK    4  A    between atoms: N_6  and  C_11
REMARK    5  A    between atoms: C_7  and  C_8
REMARK    6  A    between atoms: C_11  and  C_12
REMARK    7  A    between atoms: C_15  and  C_16
REMARK    8  A    between atoms: N_26  and  C_27
REMARK                            x       y       z     vdW  Elec       q    Type
REMARK                         _______ _______ _______ _____ _____    ______ ____
ROOT
ATOM      1  C   UNL     1       2.648   2.439  -0.677  0.00  0.00    +0.000 C 
ATOM      2  O   UNL     1       2.986   1.264  -0.866  0.00  0.00    +0.000 OA
ATOM      3  N   UNL     1       3.575   3.364  -0.135  0.00  0.00    +0.000 N 
ENDROOT
BRANCH   1   6
ATOM      4  C   UNL     1       0.667   1.253  -2.984  0.00  0.00    +0.000 C 
ATOM      5  C   UNL     1       0.463   2.412  -2.074  0.00  0.00    +0.000 A 
ATOM      6  C   UNL     1       1.294   2.901  -1.055  0.00  0.00    +0.000 A 
ATOM      7  C   UNL     1       0.487   3.892  -0.463  0.00  0.00    +0.000 A 
ATOM      8  N   UNL     1      -0.563   4.232  -1.199  0.00  0.00    +0.000 NA
ATOM      9  N   UNL     1      -0.639   3.275  -2.151  0.00  0.00    +0.000 N 
BRANCH   9  10
ATOM     10  C   UNL     1      -1.774   3.291  -3.024  0.00  0.00    +0.000 A 
ATOM     11  C   UNL     1      -2.471   4.503  -3.216  0.00  0.00    +0.000 A 
ATOM     12  C   UNL     1      -3.583   4.559  -4.063  0.00  0.00    +0.000 A 
ATOM     13  C   UNL     1      -4.014   3.405  -4.701  0.00  0.00    +0.000 A 
ATOM     14  F   UNL     1      -5.080   3.449  -5.509  0.00  0.00    +0.000 F 
ATOM     15  C   UNL     1      -3.359   2.197  -4.500  0.00  0.00    +0.000 A 
ATOM     16  C   UNL     1      -2.241   2.138  -3.662  0.00  0.00    +0.000 A 
ENDBRANCH   9  10
ENDBRANCH   1   6
BRANCH   3  17
ATOM     17  C   UNL     1       5.002   2.986  -0.048  0.00  0.00    +0.000 C 
BRANCH  17  18
ATOM     18  C   UNL     1       5.533   1.915   0.907  0.00  0.00    +0.000 C 
ATOM     19  N   UNL     1       4.765   0.821   1.138  0.00  0.00    +0.000 N 
ATOM     20  O   UNL     1       6.689   1.947   1.346  0.00  0.00    +0.000 OA
ATOM     21  H   UNL     1       4.033   0.598   0.468  0.00  0.00    +0.000 HD
ATOM     22  H   UNL     1       5.238   0.043   1.582  0.00  0.00    +0.000 HD
ENDBRANCH  17  18
ENDBRANCH   3  17
BRANCH   3  23
ATOM     23  C   UNL     1       3.368   4.812  -0.208  0.00  0.00    +0.000 C 
BRANCH  23  24
ATOM     24  C   UNL     1       2.884   5.449   1.074  0.00  0.00    +0.000 A 
ATOM     25  C   UNL     1       3.131   4.943   2.357  0.00  0.00    +0.000 A 
ATOM     26  C   UNL     1       2.634   5.600   3.504  0.00  0.00    +0.000 A 
ATOM     27  C   UNL     1       1.894   6.791   3.408  0.00  0.00    +0.000 A 
ATOM     28  C   UNL     1       1.699   7.296   2.108  0.00  0.00    +0.000 A 
ATOM     29  C   UNL     1       2.166   6.642   0.970  0.00  0.00    +0.000 A 
BRANCH  27  30
ATOM     30  C   UNL     1       1.345   7.539   4.575  0.00  0.00    +0.000 A 
ATOM     31  C   UNL     1       1.909   7.488   5.862  0.00  0.00    +0.000 A 
ATOM     32  C   UNL     1       1.435   8.309   6.899  0.00  0.00    +0.000 A 
ATOM     33  C   UNL     1       0.391   9.203   6.674  0.00  0.00    +0.000 A 
ATOM     34  C   UNL     1      -0.214   9.244   5.428  0.00  0.00    +0.000 A 
ATOM     35  C   UNL     1       0.241   8.405   4.410  0.00  0.00    +0.000 A 
ENDBRANCH  27  30
ENDBRANCH  23  24
ENDBRANCH   3  23
TORSDOF 7
