REMARK  Name = 
REMARK  5 active torsions:
REMARK  status: ('A' for Active; 'I' for Inactive)
REMARK    1  A    between atoms: C_2  and  C_17
REMARK    2  A    between atoms: N_3  and  C_4
REMARK    3  A    between atoms: C_7  and  O_8
REMARK    4  A    between atoms: O_8  and  C_9
REMARK    5  A    between atoms: N_19  and  C_20
REMARK                            x       y       z     vdW  Elec       q    Type
REMARK                         _______ _______ _______ _____ _____    ______ ____
ROOT
ATOM      1  O   UNL     1       0.966   0.159   0.037  0.00  0.00    +0.000 OA
ATOM      2  C   UNL     1       2.173  -0.029   0.159  0.00  0.00    +0.000 C 
ATOM      3  N   UNL     1       2.861  -1.218  -0.025  0.00  0.00    +0.000 N 
ATOM      4  H   UNL     1       3.798  -1.272   0.358  0.00  0.00    +0.000 HD
ENDROOT
BRANCH   2   5
ATOM      5  C   UNL     1       2.977   1.140   0.662  0.00  0.00    +0.000 A 
ATOM      6  N   UNL     1       3.936   0.901   1.518  0.00  0.00    +0.000 NA
ATOM      7  N   UNL     1       4.575   1.998   2.067  0.00  0.00    +0.000 N 
ATOM      8  C   UNL     1       4.097   3.284   1.901  0.00  0.00    +0.000 A 
ATOM      9  C   UNL     1       3.139   3.643   1.047  0.00  0.00    +0.000 A 
ATOM     10  C   UNL     1       2.616   2.548   0.229  0.00  0.00    +0.000 A 
ATOM     11  O   UNL     1       1.944   2.767  -0.766  0.00  0.00    +0.000 OA
BRANCH   7  12
ATOM     12  C   UNL     1       5.762   1.698   2.814  0.00  0.00    +0.000 A 
ATOM     13  C   UNL     1       5.931   0.436   3.413  0.00  0.00    +0.000 A 
ATOM     14  C   UNL     1       7.114   0.096   4.080  0.00  0.00    +0.000 A 
ATOM     15  C   UNL     1       8.159   1.013   4.164  0.00  0.00    +0.000 A 
ATOM     16  C   UNL     1       8.009   2.278   3.607  0.00  0.00    +0.000 A 
ATOM     17  C   UNL     1       6.826   2.612   2.948  0.00  0.00    +0.000 A 
ATOM     18  F   UNL     1       6.761   3.835   2.398  0.00  0.00    +0.000 F 
ENDBRANCH   7  12
ENDBRANCH   2   5
BRANCH   3  19
ATOM     19  C   UNL     1       2.250  -2.408  -0.493  0.00  0.00    +0.000 A 
ATOM     20  C   UNL     1       1.039  -2.383  -1.190  0.00  0.00    +0.000 A 
ATOM     21  C   UNL     1       0.400  -3.562  -1.566  0.00  0.00    +0.000 A 
ATOM     22  C   UNL     1       0.991  -4.796  -1.314  0.00  0.00    +0.000 A 
ATOM     23  C   UNL     1       2.213  -4.836  -0.637  0.00  0.00    +0.000 A 
ATOM     24  C   UNL     1       2.851  -3.647  -0.241  0.00  0.00    +0.000 A 
BRANCH  22  25
ATOM     25  O   UNL     1       0.397  -5.997  -1.635  0.00  0.00    +0.000 OA
BRANCH  25  26
ATOM     26  C   UNL     1      -0.363  -6.060  -2.800  0.00  0.00    +0.000 A 
ATOM     27  C   UNL     1      -1.401  -6.981  -2.831  0.00  0.00    +0.000 A 
ATOM     28  C   UNL     1      -2.178  -7.061  -3.985  0.00  0.00    +0.000 A 
ATOM     29  C   UNL     1      -1.896  -6.221  -5.059  0.00  0.00    +0.000 A 
ATOM     30  C   UNL     1      -0.831  -5.345  -4.941  0.00  0.00    +0.000 A 
ATOM     31  N   UNL     1      -0.048  -5.263  -3.848  0.00  0.00    +0.000 NA
ENDBRANCH  25  26
ENDBRANCH  22  25
ENDBRANCH   3  19
TORSDOF 5
