REMARK  Name = 
REMARK  5 active torsions:
REMARK  status: ('A' for Active; 'I' for Inactive)
REMARK    1  A    between atoms: C_2  and  C_3
REMARK    2  A    between atoms: C_4  and  N_5
REMARK    3  A    between atoms: C_6  and  C_8
REMARK    4  A    between atoms: C_10  and  C_11
REMARK    5  A    between atoms: N_22  and  C_23
REMARK                            x       y       z     vdW  Elec       q    Type
REMARK                         _______ _______ _______ _____ _____    ______ ____
ROOT
ATOM      1  N   UNL     1       3.904   2.414   0.441  0.00  0.00    +0.000 N 
ATOM      2  C   UNL     1       4.531   3.636   0.675  0.00  0.00    +0.000 C 
ATOM      3  O   UNL     1       5.748   3.774   0.752  0.00  0.00    +0.000 OA
ATOM      4  H   UNL     1       2.891   2.458   0.384  0.00  0.00    +0.000 HD
ENDROOT
BRANCH   1   6
ATOM      5  C   UNL     1       3.832   0.008   0.086  0.00  0.00    +0.000 A 
ATOM      6  C   UNL     1       4.524   1.159   0.278  0.00  0.00    +0.000 A 
ATOM      7  C   UNL     1       5.973   1.050   0.360  0.00  0.00    +0.000 A 
ATOM      8  C   UNL     1       6.590  -0.130   0.307  0.00  0.00    +0.000 A 
ATOM      9  N   UNL     1       5.898  -1.314   0.168  0.00  0.00    +0.000 N 
ATOM     10  C   UNL     1       4.500  -1.326   0.045  0.00  0.00    +0.000 A 
ATOM     11  O   UNL     1       3.808  -2.330  -0.114  0.00  0.00    +0.000 OA
BRANCH   9  12
ATOM     12  C   UNL     1       6.604  -2.548   0.096  0.00  0.00    +0.000 A 
ATOM     13  C   UNL     1       7.705  -2.670  -0.763  0.00  0.00    +0.000 A 
ATOM     14  C   UNL     1       8.353  -3.895  -0.898  0.00  0.00    +0.000 A 
ATOM     15  C   UNL     1       7.937  -4.991  -0.144  0.00  0.00    +0.000 A 
ATOM     16  C   UNL     1       6.874  -4.864   0.749  0.00  0.00    +0.000 A 
ATOM     17  C   UNL     1       6.202  -3.649   0.860  0.00  0.00    +0.000 A 
ENDBRANCH   9  12
BRANCH   5  19
ATOM     18  N   UNL     1       1.051   0.008   0.086  0.00  0.00    +0.000 NA
ATOM     19  C   UNL     1       2.312   0.008   0.086  0.00  0.00    +0.000 C 
ENDBRANCH   5  19
ENDBRANCH   1   6
BRANCH   2  20
ATOM     20  C   UNL     1       3.702   4.807   0.816  0.00  0.00    +0.000 A 
ATOM     21  C   UNL     1       4.110   6.098   1.048  0.00  0.00    +0.000 A 
ATOM     22  C   UNL     1       2.962   6.896   0.864  0.00  0.00    +0.000 A 
ATOM     23  N   UNL     1       1.879   6.109   0.716  0.00  0.00    +0.000 NA
ATOM     24  O   UNL     1       2.353   4.798   0.662  0.00  0.00    +0.000 OA
BRANCH  22  25
ATOM     25  C   UNL     1       2.931   8.351   0.741  0.00  0.00    +0.000 A 
ATOM     26  C   UNL     1       1.826   9.106   1.151  0.00  0.00    +0.000 A 
ATOM     27  C   UNL     1       1.798  10.491   0.934  0.00  0.00    +0.000 A 
ATOM     28  C   UNL     1       2.868  11.132   0.309  0.00  0.00    +0.000 A 
ATOM     29  C   UNL     1       3.984  10.397  -0.078  0.00  0.00    +0.000 A 
ATOM     30  C   UNL     1       4.010   9.024   0.144  0.00  0.00    +0.000 A 
ATOM     31  F   UNL     1       5.099   8.352  -0.264  0.00  0.00    +0.000 F 
ENDBRANCH  22  25
ENDBRANCH   2  20
TORSDOF 5
