REMARK  Name = 
REMARK  4 active torsions:
REMARK  status: ('A' for Active; 'I' for Inactive)
REMARK    1  A    between atoms: C_2  and  C_17
REMARK    2  A    between atoms: C_6  and  O_7
REMARK    3  A    between atoms: C_10  and  C_11
REMARK    4  A    between atoms: N_19  and  C_20
REMARK                            x       y       z     vdW  Elec       q    Type
REMARK                         _______ _______ _______ _____ _____    ______ ____
ROOT
ATOM      1  O   UNL     1       0.921   0.167   0.217  0.00  0.00    +0.000 OA
ATOM      2  C   UNL     1       2.124  -0.027   0.138  0.00  0.00    +0.000 C 
ATOM      3  N   UNL     1       2.838  -0.337  -1.005  0.00  0.00    +0.000 N 
ATOM      4  C   UNL     1       2.159  -0.558  -2.216  0.00  0.00    +0.000 A 
ATOM      5  N   UNL     1       1.257  -1.571  -2.194  0.00  0.00    +0.000 NA
ATOM      6  C   UNL     1       0.673  -1.884  -3.356  0.00  0.00    +0.000 A 
ATOM      7  C   UNL     1       0.909  -1.258  -4.554  0.00  0.00    +0.000 A 
ATOM      8  C   UNL     1       1.817  -0.206  -4.553  0.00  0.00    +0.000 A 
ATOM      9  C   UNL     1       2.494   0.177  -3.374  0.00  0.00    +0.000 A 
ATOM     10  H   UNL     1       3.783   0.021  -1.036  0.00  0.00    +0.000 HD
ENDROOT
BRANCH   2  11
ATOM     11  C   UNL     1       3.001   0.208   1.357  0.00  0.00    +0.000 A 
ATOM     12  N   UNL     1       4.215   0.665   1.151  0.00  0.00    +0.000 NA
ATOM     13  N   UNL     1       5.032   0.821   2.257  0.00  0.00    +0.000 N 
ATOM     14  C   UNL     1       4.682   0.311   3.495  0.00  0.00    +0.000 A 
ATOM     15  C   UNL     1       3.482  -0.163   3.818  0.00  0.00    +0.000 A 
ATOM     16  C   UNL     1       2.489  -0.113   2.749  0.00  0.00    +0.000 A 
ATOM     17  O   UNL     1       1.315  -0.350   2.981  0.00  0.00    +0.000 OA
BRANCH  13  18
ATOM     18  C   UNL     1       6.299   1.460   2.035  0.00  0.00    +0.000 A 
ATOM     19  C   UNL     1       6.998   2.091   3.090  0.00  0.00    +0.000 A 
ATOM     20  C   UNL     1       8.257   2.666   2.896  0.00  0.00    +0.000 A 
ATOM     21  C   UNL     1       8.835   2.628   1.638  0.00  0.00    +0.000 A 
ATOM     22  F   UNL     1      10.050   3.159   1.454  0.00  0.00    +0.000 F 
ATOM     23  C   UNL     1       8.166   2.046   0.569  0.00  0.00    +0.000 A 
ATOM     24  C   UNL     1       6.902   1.476   0.764  0.00  0.00    +0.000 A 
ENDBRANCH  13  18
ENDBRANCH   2  11
BRANCH   9  25
ATOM     25  C   UNL     1       3.414   1.348  -3.399  0.00  0.00    +0.000 A 
ATOM     26  C   UNL     1       3.485   2.274  -2.339  0.00  0.00    +0.000 A 
ATOM     27  C   UNL     1       4.362   3.363  -2.366  0.00  0.00    +0.000 A 
ATOM     28  C   UNL     1       5.150   3.591  -3.486  0.00  0.00    +0.000 A 
ATOM     29  C   UNL     1       5.070   2.725  -4.570  0.00  0.00    +0.000 A 
ATOM     30  C   UNL     1       4.226   1.611  -4.519  0.00  0.00    +0.000 A 
ENDBRANCH   9  25
BRANCH   6  31
ATOM     31  O   UNL     1      -0.202  -2.917  -3.283  0.00  0.00    +0.000 OA
ATOM     32  H   UNL     1      -0.165  -3.100  -2.326  0.00  0.00    +0.000 HD
ENDBRANCH   6  31
TORSDOF 4
