REMARK  Name = 
REMARK  5 active torsions:
REMARK  status: ('A' for Active; 'I' for Inactive)
REMARK    1  A    between atoms: C_2  and  C_4
REMARK    2  A    between atoms: C_4  and  N_5
REMARK    3  A    between atoms: C_4  and  C_21
REMARK    4  A    between atoms: C_6  and  C_8
REMARK    5  A    between atoms: C_10  and  C_11
REMARK                            x       y       z     vdW  Elec       q    Type
REMARK                         _______ _______ _______ _____ _____    ______ ____
ROOT
ATOM      1  N   UNL     1       2.801  -1.987   1.320  0.00  0.00    +0.000 N 
ATOM      2  C   UNL     1       1.698  -2.322   2.081  0.00  0.00    +0.000 C 
ATOM      3  O   UNL     1       1.071  -1.502   2.747  0.00  0.00    +0.000 OA
ATOM      4  H   UNL     1       3.119  -2.683   0.653  0.00  0.00    +0.000 HD
ENDROOT
BRANCH   2   5
ATOM      5  C   UNL     1       1.297  -3.766   2.047  0.00  0.00    +0.000 A 
ATOM      6  N   UNL     1       2.050  -4.596   1.274  0.00  0.00    +0.000 NA
ATOM      7  C   UNL     1       1.701  -5.911   1.243  0.00  0.00    +0.000 A 
ATOM      8  C   UNL     1       0.630  -6.405   1.993  0.00  0.00    +0.000 A 
ATOM      9  C   UNL     1      -0.125  -5.534   2.776  0.00  0.00    +0.000 A 
ATOM     10  C   UNL     1       0.209  -4.187   2.802  0.00  0.00    +0.000 A 
BRANCH   7  11
ATOM     11  C   UNL     1       2.518  -6.775   0.362  0.00  0.00    +0.000 A 
ATOM     12  C   UNL     1       3.884  -6.503   0.150  0.00  0.00    +0.000 A 
ATOM     13  C   UNL     1       4.661  -7.299  -0.697  0.00  0.00    +0.000 A 
ATOM     14  C   UNL     1       4.080  -8.380  -1.345  0.00  0.00    +0.000 A 
ATOM     15  F   UNL     1       4.820  -9.138  -2.164  0.00  0.00    +0.000 F 
ATOM     16  C   UNL     1       2.739  -8.681  -1.159  0.00  0.00    +0.000 A 
ATOM     17  C   UNL     1       1.964  -7.883  -0.312  0.00  0.00    +0.000 A 
ENDBRANCH   7  11
ENDBRANCH   2   5
BRANCH   1  18
ATOM     18  C   UNL     1       3.184  -0.598   1.141  0.00  0.00    +0.000 C 
BRANCH  18  19
ATOM     19  C   UNL     1       4.692  -0.458   0.990  0.00  0.00    +0.000 A 
ATOM     20  C   UNL     1       5.326  -0.457  -0.260  0.00  0.00    +0.000 A 
ATOM     21  C   UNL     1       6.704  -0.241  -0.362  0.00  0.00    +0.000 A 
ATOM     22  C   UNL     1       7.489  -0.039   0.783  0.00  0.00    +0.000 A 
ATOM     23  C   UNL     1       8.867   0.214   0.692  0.00  0.00    +0.000 A 
ATOM     24  C   UNL     1       9.634   0.417   1.841  0.00  0.00    +0.000 A 
ATOM     25  C   UNL     1       9.033   0.359   3.095  0.00  0.00    +0.000 A 
ATOM     26  C   UNL     1       7.664   0.106   3.200  0.00  0.00    +0.000 A 
ATOM     27  C   UNL     1       6.875  -0.087   2.054  0.00  0.00    +0.000 A 
ATOM     28  C   UNL     1       5.488  -0.306   2.141  0.00  0.00    +0.000 A 
ENDBRANCH  18  19
BRANCH  18  30
ATOM     29  N   UNL     1       2.215   1.391   0.029  0.00  0.00    +0.000 N 
ATOM     30  C   UNL     1       2.409   0.035  -0.044  0.00  0.00    +0.000 C 
ATOM     31  O   UNL     1       2.038  -0.584  -1.040  0.00  0.00    +0.000 OA
ATOM     32  H   UNL     1       1.690   1.828  -0.716  0.00  0.00    +0.000 HD
ATOM     33  H   UNL     1       2.377   1.916   0.878  0.00  0.00    +0.000 HD
ENDBRANCH  18  30
ENDBRANCH   1  18
TORSDOF 5
