REMARK  Name = 
REMARK  3 active torsions:
REMARK  status: ('A' for Active; 'I' for Inactive)
REMARK    1  A    between atoms: C_2  and  C_17
REMARK    2  A    between atoms: N_6  and  C_7
REMARK    3  A    between atoms: C_19  and  C_20
REMARK                            x       y       z     vdW  Elec       q    Type
REMARK                         _______ _______ _______ _____ _____    ______ ____
ROOT
ATOM      1  O   UNL     1       0.994  -0.117  -0.209  0.00  0.00    +0.000 OA
ATOM      2  C   UNL     1       2.216  -0.159  -0.069  0.00  0.00    +0.000 C 
ATOM      3  N   UNL     1       2.925  -1.096   0.647  0.00  0.00    +0.000 N 
ATOM      4  C   UNL     1       2.308  -2.140   1.280  0.00  0.00    +0.000 A 
ATOM      5  N   UNL     1       1.054  -2.526   1.076  0.00  0.00    +0.000 NA
ATOM      6  N   UNL     1       0.852  -3.455   2.019  0.00  0.00    +0.000 N 
ATOM      7  C   UNL     1       2.028  -3.660   2.696  0.00  0.00    +0.000 A 
ATOM      8  N   UNL     1       2.971  -2.867   2.226  0.00  0.00    +0.000 NA
ATOM      9  H   UNL     1       3.912  -0.966   0.824  0.00  0.00    +0.000 HD
ENDROOT
BRANCH   6  10
ATOM     10  C   UNL     1      -0.431  -4.031   2.199  0.00  0.00    +0.000 A 
ATOM     11  C   UNL     1      -0.687  -4.938   3.236  0.00  0.00    +0.000 A 
ATOM     12  C   UNL     1      -1.975  -5.466   3.391  0.00  0.00    +0.000 A 
ATOM     13  C   UNL     1      -2.990  -5.099   2.512  0.00  0.00    +0.000 A 
ATOM     14  F   UNL     1      -4.216  -5.616   2.672  0.00  0.00    +0.000 F 
ATOM     15  C   UNL     1      -2.738  -4.204   1.481  0.00  0.00    +0.000 A 
ATOM     16  F   UNL     1      -3.716  -3.857   0.634  0.00  0.00    +0.000 F 
ATOM     17  C   UNL     1      -1.469  -3.661   1.321  0.00  0.00    +0.000 A 
ENDBRANCH   6  10
BRANCH   2  18
ATOM     18  C   UNL     1       3.011   0.934  -0.694  0.00  0.00    +0.000 A 
ATOM     19  N   UNL     1       4.361   0.851  -0.639  0.00  0.00    +0.000 NA
ATOM     20  C   UNL     1       5.017   1.844  -1.276  0.00  0.00    +0.000 A 
ATOM     21  N   UNL     1       4.419   2.877  -1.908  0.00  0.00    +0.000 NA
ATOM     22  C   UNL     1       3.079   2.911  -1.916  0.00  0.00    +0.000 A 
ATOM     23  C   UNL     1       2.314   1.952  -1.317  0.00  0.00    +0.000 A 
BRANCH  20  24
ATOM     24  C   UNL     1       6.492   1.796  -1.328  0.00  0.00    +0.000 A 
ATOM     25  C   UNL     1       7.220   0.734  -0.757  0.00  0.00    +0.000 A 
ATOM     26  C   UNL     1       8.616   0.690  -0.829  0.00  0.00    +0.000 A 
ATOM     27  C   UNL     1       9.305   1.709  -1.471  0.00  0.00    +0.000 A 
ATOM     28  F   UNL     1      10.642   1.663  -1.541  0.00  0.00    +0.000 F 
ATOM     29  C   UNL     1       8.626   2.773  -2.044  0.00  0.00    +0.000 A 
ATOM     30  C   UNL     1       7.232   2.814  -1.972  0.00  0.00    +0.000 A 
ENDBRANCH  20  24
ENDBRANCH   2  18
TORSDOF 3
