REMARK  Name = 
REMARK  6 active torsions:
REMARK  status: ('A' for Active; 'I' for Inactive)
REMARK    1  A    between atoms: C_1  and  N_2
REMARK    2  A    between atoms: C_3  and  C_4
REMARK    3  A    between atoms: C_4  and  N_5
REMARK    4  A    between atoms: C_6  and  C_8
REMARK    5  A    between atoms: C_10  and  C_11
REMARK    6  A    between atoms: N_24  and  C_25
REMARK                            x       y       z     vdW  Elec       q    Type
REMARK                         _______ _______ _______ _____ _____    ______ ____
ROOT
ATOM      1  N   UNL     1       3.901   3.401  -0.175  0.00  0.00    +0.000 N 
ATOM      2  C   UNL     1       3.958   4.362  -1.160  0.00  0.00    +0.000 C 
ATOM      3  O   UNL     1       3.128   4.468  -2.055  0.00  0.00    +0.000 OA
ATOM      4  H   UNL     1       4.535   3.433   0.611  0.00  0.00    +0.000 HD
ENDROOT
BRANCH   2   5
ATOM      5  C   UNL     1       5.086   5.328  -1.095  0.00  0.00    +0.000 A 
ATOM      6  C   UNL     1       6.308   5.014  -0.482  0.00  0.00    +0.000 A 
ATOM      7  C   UNL     1       7.363   5.950  -0.426  0.00  0.00    +0.000 A 
ATOM      8  C   UNL     1       7.140   7.210  -1.005  0.00  0.00    +0.000 A 
ATOM      9  C   UNL     1       5.936   7.506  -1.634  0.00  0.00    +0.000 A 
ATOM     10  F   UNL     1       5.763   8.713  -2.187  0.00  0.00    +0.000 F 
ATOM     11  C   UNL     1       4.909   6.575  -1.693  0.00  0.00    +0.000 A 
BRANCH   7  12
ATOM     12  C   UNL     1       8.641   5.601   0.229  0.00  0.00    +0.000 A 
ATOM     13  C   UNL     1       9.863   6.168  -0.142  0.00  0.00    +0.000 A 
ATOM     14  C   UNL     1      11.024   5.786   0.524  0.00  0.00    +0.000 A 
ATOM     15  C   UNL     1      10.946   4.847   1.542  0.00  0.00    +0.000 A 
ATOM     16  C   UNL     1       9.705   4.325   1.853  0.00  0.00    +0.000 A 
ATOM     17  N   UNL     1       8.558   4.676   1.220  0.00  0.00    +0.000 NA
ENDBRANCH   7  12
ENDBRANCH   2   5
BRANCH   1  18
ATOM     18  C   UNL     1       2.811   2.457  -0.109  0.00  0.00    +0.000 C 
BRANCH  18  21
ATOM     19  C   UNL     1       4.064   1.027  -2.569  0.00  0.00    +0.000 C 
ATOM     20  N   UNL     1       4.114   0.529  -1.193  0.00  0.00    +0.000 N 
ATOM     21  C   UNL     1       3.326   1.047  -0.155  0.00  0.00    +0.000 A 
ATOM     22  C   UNL     1       2.992   0.105   0.744  0.00  0.00    +0.000 A 
ATOM     23  C   UNL     1       3.471  -1.181   0.189  0.00  0.00    +0.000 A 
ATOM     24  O   UNL     1       3.327  -2.248   0.763  0.00  0.00    +0.000 OA
ATOM     25  N   UNL     1       4.086  -0.878  -1.022  0.00  0.00    +0.000 N 
BRANCH  25  26
ATOM     26  C   UNL     1       4.811  -1.776  -1.823  0.00  0.00    +0.000 A 
ATOM     27  C   UNL     1       4.242  -3.006  -2.179  0.00  0.00    +0.000 A 
ATOM     28  C   UNL     1       4.929  -3.881  -3.026  0.00  0.00    +0.000 A 
ATOM     29  C   UNL     1       6.204  -3.550  -3.482  0.00  0.00    +0.000 A 
ATOM     30  C   UNL     1       6.787  -2.341  -3.105  0.00  0.00    +0.000 A 
ATOM     31  C   UNL     1       6.085  -1.450  -2.290  0.00  0.00    +0.000 A 
ENDBRANCH  25  26
ENDBRANCH  18  21
ENDBRANCH   1  18
TORSDOF 5
