REMARK  Name = 
REMARK  7 active torsions:
REMARK  status: ('A' for Active; 'I' for Inactive)
REMARK    1  A    between atoms: C_1  and  O_2
REMARK    2  A    between atoms: O_2  and  C_3
REMARK    3  A    between atoms: C_6  and  C_7
REMARK    4  A    between atoms: C_14  and  C_15
REMARK    5  A    between atoms: C_18  and  C_19
REMARK    6  A    between atoms: C_19  and  C_21
REMARK    7  A    between atoms: C_21  and  C_22
REMARK                            x       y       z     vdW  Elec       q    Type
REMARK                         _______ _______ _______ _____ _____    ______ ____
ROOT
ATOM      1  C   UNL     1       4.603   0.542  -1.830  0.00  0.00    +0.000 A 
ATOM      2  C   UNL     1       3.719   0.426  -2.921  0.00  0.00    +0.000 A 
ATOM      3  C   UNL     1       3.989  -0.416  -4.006  0.00  0.00    +0.000 A 
ATOM      4  C   UNL     1       5.178  -1.143  -4.043  0.00  0.00    +0.000 A 
ATOM      5  C   UNL     1       6.092  -1.021  -3.001  0.00  0.00    +0.000 A 
ATOM      6  C   UNL     1       5.787  -0.216  -1.900  0.00  0.00    +0.000 A 
ENDROOT
BRANCH   1  12
ATOM      7  C   UNL     1       5.249   2.012   0.170  0.00  0.00    +0.000 A 
ATOM      8  C   UNL     1       4.863   2.699   1.326  0.00  0.00    +0.000 A 
ATOM      9  C   UNL     1       3.518   2.817   1.672  0.00  0.00    +0.000 A 
ATOM     10  C   UNL     1       2.510   2.251   0.884  0.00  0.00    +0.000 A 
ATOM     11  C   UNL     1       2.917   1.543  -0.260  0.00  0.00    +0.000 A 
ATOM     12  C   UNL     1       4.273   1.385  -0.641  0.00  0.00    +0.000 A 
BRANCH  10  13
ATOM     13  C   UNL     1       1.084   2.359   1.263  0.00  0.00    +0.000 A 
ATOM     14  C   UNL     1       0.060   2.440   0.308  0.00  0.00    +0.000 A 
ATOM     15  C   UNL     1      -1.258   2.526   0.730  0.00  0.00    +0.000 A 
ATOM     16  N   UNL     1      -1.637   2.545   2.022  0.00  0.00    +0.000 NA
ATOM     17  C   UNL     1      -0.646   2.472   2.937  0.00  0.00    +0.000 A 
ATOM     18  C   UNL     1       0.696   2.372   2.611  0.00  0.00    +0.000 A 
ENDBRANCH  10  13
BRANCH   7  20
ATOM     19  C   UNL     1       7.553   2.544   0.565  0.00  0.00    +0.000 C 
ATOM     20  O   UNL     1       6.556   1.931  -0.238  0.00  0.00    +0.000 OA
ENDBRANCH   7  20
ENDBRANCH   1  12
BRANCH   4  21
ATOM     21  C   UNL     1       5.503  -2.070  -5.154  0.00  0.00    +0.000 C 
ATOM     22  O   UNL     1       6.673  -2.222  -5.501  0.00  0.00    +0.000 OA
BRANCH  21  23
ATOM     23  C   UNL     1       4.379  -2.822  -5.817  0.00  0.00    +0.000 C 
BRANCH  23  24
ATOM     24  C   UNL     1       3.790  -2.108  -7.003  0.00  0.00    +0.000 A 
ATOM     25  N   UNL     1       2.530  -1.792  -6.960  0.00  0.00    +0.000 NA
ATOM     26  N   UNL     1       2.024  -1.143  -8.048  0.00  0.00    +0.000 N 
ATOM     27  C   UNL     1       2.724  -0.800  -9.177  0.00  0.00    +0.000 A 
ATOM     28  O   UNL     1       2.218  -0.215 -10.126  0.00  0.00    +0.000 OA
ATOM     29  C   UNL     1       4.149  -1.174  -9.190  0.00  0.00    +0.000 A 
ATOM     30  C   UNL     1       4.684  -1.810  -8.146  0.00  0.00    +0.000 A 
ATOM     31  H   UNL     1       1.039  -0.900  -8.020  0.00  0.00    +0.000 HD
ENDBRANCH  23  24
ENDBRANCH  21  23
ENDBRANCH   4  21
TORSDOF 6
