REMARK  Name = 
REMARK  3 active torsions:
REMARK  status: ('A' for Active; 'I' for Inactive)
REMARK    1  A    between atoms: C_2  and  C_15
REMARK    2  A    between atoms: N_3  and  C_4
REMARK    3  A    between atoms: C_17  and  C_18
REMARK                            x       y       z     vdW  Elec       q    Type
REMARK                         _______ _______ _______ _____ _____    ______ ____
ROOT
ATOM      1  O   UNL     1       0.986   0.197   0.078  0.00  0.00    +0.000 OA
ATOM      2  C   UNL     1       2.205   0.015   0.045  0.00  0.00    +0.000 C 
ATOM      3  N   UNL     1       2.831  -0.959  -0.720  0.00  0.00    +0.000 N 
ATOM      4  H   UNL     1       3.834  -1.074  -0.636  0.00  0.00    +0.000 HD
ENDROOT
BRANCH   3   5
ATOM      5  C   UNL     1       2.152  -1.868  -1.508  0.00  0.00    +0.000 A 
ATOM      6  C   UNL     1       2.790  -2.822  -2.207  0.00  0.00    +0.000 A 
ATOM      7  C   UNL     1       2.007  -3.796  -2.989  0.00  0.00    +0.000 A 
ATOM      8  C   UNL     1       2.616  -4.835  -3.700  0.00  0.00    +0.000 A 
ATOM      9  C   UNL     1       1.835  -5.767  -4.397  0.00  0.00    +0.000 A 
ATOM     10  C   UNL     1       0.443  -5.667  -4.399  0.00  0.00    +0.000 A 
ATOM     11  C   UNL     1      -0.176  -4.631  -3.708  0.00  0.00    +0.000 A 
ATOM     12  C   UNL     1       0.606  -3.707  -3.008  0.00  0.00    +0.000 A 
ATOM     13  C   UNL     1      -0.049  -2.620  -2.251  0.00  0.00    +0.000 A 
ATOM     14  O   UNL     1      -1.267  -2.486  -2.244  0.00  0.00    +0.000 OA
ATOM     15  N   UNL     1       0.787  -1.790  -1.557  0.00  0.00    +0.000 N 
ATOM     16  H   UNL     1       0.338  -1.053  -1.014  0.00  0.00    +0.000 HD
ENDBRANCH   3   5
BRANCH   2  17
ATOM     17  C   UNL     1       3.041   0.871   0.913  0.00  0.00    +0.000 A 
ATOM     18  C   UNL     1       2.475   1.276   2.137  0.00  0.00    +0.000 A 
ATOM     19  C   UNL     1       3.138   2.155   3.009  0.00  0.00    +0.000 A 
ATOM     20  C   UNL     1       4.407   2.605   2.611  0.00  0.00    +0.000 A 
ATOM     21  C   UNL     1       4.960   2.209   1.392  0.00  0.00    +0.000 A 
ATOM     22  F   UNL     1       6.157   2.689   1.029  0.00  0.00    +0.000 F 
ATOM     23  C   UNL     1       4.291   1.346   0.532  0.00  0.00    +0.000 A 
BRANCH  19  24
ATOM     24  C   UNL     1       2.528   2.594   4.282  0.00  0.00    +0.000 A 
ATOM     25  C   UNL     1       1.147   2.705   4.464  0.00  0.00    +0.000 A 
ATOM     26  C   UNL     1       0.647   3.116   5.698  0.00  0.00    +0.000 A 
ATOM     27  C   UNL     1       1.533   3.411   6.723  0.00  0.00    +0.000 A 
ATOM     28  C   UNL     1       2.887   3.285   6.468  0.00  0.00    +0.000 A 
ATOM     29  N   UNL     1       3.398   2.890   5.280  0.00  0.00    +0.000 NA
ENDBRANCH  19  24
ENDBRANCH   2  17
TORSDOF 3
