REMARK  Name = 
REMARK  5 active torsions:
REMARK  status: ('A' for Active; 'I' for Inactive)
REMARK    1  A    between atoms: C_1  and  C_2
REMARK    2  A    between atoms: N_4  and  C_5
REMARK    3  A    between atoms: C_13  and  C_14
REMARK    4  A    between atoms: N_16  and  C_17
REMARK    5  A    between atoms: N_21  and  C_22
REMARK                            x       y       z     vdW  Elec       q    Type
REMARK                         _______ _______ _______ _____ _____    ______ ____
ROOT
ATOM      1  C   UNL     1       2.837  -2.503  -0.167  0.00  0.00    +0.000 C 
ATOM      2  O   UNL     1       1.629  -2.640  -0.342  0.00  0.00    +0.000 OA
ATOM      3  N   UNL     1       3.714  -3.565   0.014  0.00  0.00    +0.000 N 
ATOM      4  H   UNL     1       4.627  -3.352   0.385  0.00  0.00    +0.000 HD
ENDROOT
BRANCH   3   5
ATOM      5  C   UNL     1       3.304  -4.884   0.019  0.00  0.00    +0.000 A 
ATOM      6  C   UNL     1       2.216  -5.317  -0.634  0.00  0.00    +0.000 A 
ATOM      7  C   UNL     1       1.671  -6.673  -0.443  0.00  0.00    +0.000 A 
ATOM      8  O   UNL     1       0.634  -6.916  -1.061  0.00  0.00    +0.000 OA
ATOM      9  N   UNL     1       2.355  -7.503   0.475  0.00  0.00    +0.000 N 
ATOM     10  C   UNL     1       3.550  -7.049   1.044  0.00  0.00    +0.000 A 
ATOM     11  C   UNL     1       4.048  -5.826   0.815  0.00  0.00    +0.000 A 
BRANCH   9  12
ATOM     12  C   UNL     1       1.792  -8.791   0.829  0.00  0.00    +0.000 A 
ATOM     13  C   UNL     1       0.863  -9.448   0.005  0.00  0.00    +0.000 A 
ATOM     14  C   UNL     1       0.281 -10.663   0.370  0.00  0.00    +0.000 A 
ATOM     15  C   UNL     1       0.628 -11.265   1.569  0.00  0.00    +0.000 A 
ATOM     16  C   UNL     1       1.559 -10.653   2.401  0.00  0.00    +0.000 A 
ATOM     17  C   UNL     1       2.136  -9.431   2.034  0.00  0.00    +0.000 A 
ENDBRANCH   9  12
ENDBRANCH   3   5
BRANCH   1  23
ATOM     18  C   UNL     1       1.181   0.187  -0.362  0.00  0.00    +0.000 C 
ATOM     19  C   UNL     1       2.642   0.038  -0.123  0.00  0.00    +0.000 A 
ATOM     20  N   UNL     1       3.412   1.113   0.058  0.00  0.00    +0.000 NA
ATOM     21  N   UNL     1       4.672   0.633   0.143  0.00  0.00    +0.000 N 
ATOM     22  C   UNL     1       4.694  -0.748   0.083  0.00  0.00    +0.000 A 
ATOM     23  C   UNL     1       3.389  -1.168  -0.064  0.00  0.00    +0.000 A 
BRANCH  21  24
ATOM     24  C   UNL     1       5.778   1.518   0.249  0.00  0.00    +0.000 A 
ATOM     25  C   UNL     1       5.552   2.903   0.352  0.00  0.00    +0.000 A 
ATOM     26  C   UNL     1       6.633   3.783   0.425  0.00  0.00    +0.000 A 
ATOM     27  C   UNL     1       7.929   3.283   0.385  0.00  0.00    +0.000 A 
ATOM     28  F   UNL     1       8.966   4.126   0.437  0.00  0.00    +0.000 F 
ATOM     29  C   UNL     1       8.167   1.917   0.288  0.00  0.00    +0.000 A 
ATOM     30  C   UNL     1       7.092   1.029   0.230  0.00  0.00    +0.000 A 
ENDBRANCH  21  24
ENDBRANCH   1  23
TORSDOF 4
