REMARK  Name = 
REMARK  6 active torsions:
REMARK  status: ('A' for Active; 'I' for Inactive)
REMARK    1  A    between atoms: C_2  and  C_17
REMARK    2  A    between atoms: N_3  and  C_4
REMARK    3  A    between atoms: C_6  and  C_7
REMARK    4  A    between atoms: C_7  and  C_8
REMARK    5  A    between atoms: N_19  and  C_20
REMARK    6  A    between atoms: C_28  and  O_29
REMARK                            x       y       z     vdW  Elec       q    Type
REMARK                         _______ _______ _______ _____ _____    ______ ____
ROOT
ATOM      1  O   UNL     1       1.023  -0.061  -0.383  0.00  0.00    +0.000 OA
ATOM      2  C   UNL     1       2.177  -0.052   0.038  0.00  0.00    +0.000 C 
ATOM      3  N   UNL     1       2.811  -1.136   0.612  0.00  0.00    +0.000 N 
ATOM      4  H   UNL     1       3.592  -0.913   1.215  0.00  0.00    +0.000 HD
ENDROOT
BRANCH   3   5
ATOM      5  C   UNL     1       2.179  -2.350   0.854  0.00  0.00    +0.000 A 
ATOM      6  C   UNL     1       1.411  -2.972  -0.126  0.00  0.00    +0.000 A 
ATOM      7  C   UNL     1       0.816  -4.205   0.157  0.00  0.00    +0.000 A 
ATOM      8  C   UNL     1       0.962  -4.726   1.444  0.00  0.00    +0.000 A 
ATOM      9  C   UNL     1       1.752  -4.037   2.350  0.00  0.00    +0.000 A 
ATOM     10  N   UNL     1       2.403  -2.888   2.068  0.00  0.00    +0.000 NA
BRANCH   7  11
ATOM     11  C   UNL     1       0.104  -4.985  -0.923  0.00  0.00    +0.000 C 
BRANCH  11  12
ATOM     12  C   UNL     1       1.018  -5.953  -1.639  0.00  0.00    +0.000 A 
ATOM     13  C   UNL     1       1.162  -7.275  -1.187  0.00  0.00    +0.000 A 
ATOM     14  C   UNL     1       2.048  -8.151  -1.817  0.00  0.00    +0.000 A 
ATOM     15  C   UNL     1       2.801  -7.719  -2.906  0.00  0.00    +0.000 A 
ATOM     16  C   UNL     1       2.671  -6.410  -3.364  0.00  0.00    +0.000 A 
ATOM     17  C   UNL     1       1.784  -5.532  -2.737  0.00  0.00    +0.000 A 
ENDBRANCH  11  12
ENDBRANCH   7  11
ENDBRANCH   3   5
BRANCH   2  18
ATOM     18  C   UNL     1       3.016   1.158   0.041  0.00  0.00    +0.000 A 
ATOM     19  N   UNL     1       4.330   1.101   0.342  0.00  0.00    +0.000 NA
ATOM     20  N   UNL     1       4.778   2.381   0.245  0.00  0.00    +0.000 N 
ATOM     21  C   UNL     1       3.769   3.249  -0.107  0.00  0.00    +0.000 A 
ATOM     22  C   UNL     1       2.640   2.489  -0.237  0.00  0.00    +0.000 A 
BRANCH  20  23
ATOM     23  C   UNL     1       6.138   2.690   0.527  0.00  0.00    +0.000 A 
ATOM     24  C   UNL     1       6.588   4.019   0.582  0.00  0.00    +0.000 A 
ATOM     25  C   UNL     1       7.919   4.296   0.912  0.00  0.00    +0.000 A 
ATOM     26  C   UNL     1       8.806   3.255   1.175  0.00  0.00    +0.000 A 
ATOM     27  C   UNL     1       8.361   1.941   1.101  0.00  0.00    +0.000 A 
ATOM     28  F   UNL     1       9.217   0.942   1.349  0.00  0.00    +0.000 F 
ATOM     29  C   UNL     1       7.040   1.647   0.782  0.00  0.00    +0.000 A 
ENDBRANCH  20  23
BRANCH  22  30
ATOM     30  O   UNL     1       1.431   2.974  -0.555  0.00  0.00    +0.000 OA
ATOM     31  H   UNL     1       1.458   3.938  -0.680  0.00  0.00    +0.000 HD
ENDBRANCH  22  30
ENDBRANCH   2  18
TORSDOF 6
