REMARK  Name = 
REMARK  7 active torsions:
REMARK  status: ('A' for Active; 'I' for Inactive)
REMARK    1  A    between atoms: C_5  and  N_6
REMARK    2  A    between atoms: C_9  and  C_10
REMARK    3  A    between atoms: C_10  and  N_11
REMARK    4  A    between atoms: N_11  and  C_12
REMARK    5  A    between atoms: C_12  and  C_13
REMARK    6  A    between atoms: C_12  and  C_23
REMARK    7  A    between atoms: C_17  and  C_18
REMARK                            x       y       z     vdW  Elec       q    Type
REMARK                         _______ _______ _______ _____ _____    ______ ____
ROOT
ATOM      1  C   UNL     1      -6.701  -2.050  -3.568  0.00  0.00    +0.000 C 
ENDROOT
BRANCH   1   2
ATOM      2  C   UNL     1      -6.921  -3.468  -4.030  0.00  0.00    +0.000 A 
ATOM      3  N   UNL     1      -6.009  -4.394  -4.261  0.00  0.00    +0.000 NA
ATOM      4  N   UNL     1      -6.652  -5.541  -4.657  0.00  0.00    +0.000 NA
ATOM      5  C   UNL     1      -7.939  -5.289  -4.671  0.00  0.00    +0.000 A 
ATOM      6  N   UNL     1      -8.157  -4.001  -4.295  0.00  0.00    +0.000 N 
ATOM      7  H   UNL     1      -9.049  -3.532  -4.229  0.00  0.00    +0.000 HD
ENDBRANCH   1   2
BRANCH   1   8
ATOM      8  C   UNL     1      -6.541  -1.088  -4.748  0.00  0.00    +0.000 A 
ATOM      9  C   UNL     1      -7.078   0.208  -4.693  0.00  0.00    +0.000 A 
ATOM     10  C   UNL     1      -6.855   1.116  -5.733  0.00  0.00    +0.000 A 
ATOM     11  C   UNL     1      -6.083   0.749  -6.836  0.00  0.00    +0.000 A 
ATOM     12  C   UNL     1      -5.526  -0.533  -6.913  0.00  0.00    +0.000 A 
ATOM     13  C   UNL     1      -5.767  -1.440  -5.869  0.00  0.00    +0.000 A 
BRANCH  12  14
ATOM     14  C   UNL     1      -4.654  -0.954  -8.070  0.00  0.00    +0.000 C 
ATOM     15  F   UNL     1      -4.420   0.044  -8.969  0.00  0.00    +0.000 F 
ATOM     16  F   UNL     1      -3.427  -1.387  -7.669  0.00  0.00    +0.000 F 
ATOM     17  F   UNL     1      -5.198  -1.978  -8.786  0.00  0.00    +0.000 F 
ENDBRANCH  12  14
ENDBRANCH   1   8
BRANCH   1  18
ATOM     18  N   UNL     1      -5.529  -1.899  -2.689  0.00  0.00    +0.000 NA
ATOM     19  H   UNL     1      -4.701  -2.184  -3.218  0.00  0.00    +0.000 HD
BRANCH  18  20
ATOM     20  C   UNL     1      -5.584  -2.760  -1.504  0.00  0.00    +0.000 C 
BRANCH  20  24
ATOM     21  N   UNL     1      -2.387  -2.787   0.130  0.00  0.00    +0.000 N 
ATOM     22  C   UNL     1      -2.965  -1.782   0.873  0.00  0.00    +0.000 A 
ATOM     23  C   UNL     1      -4.234  -1.584   0.384  0.00  0.00    +0.000 A 
ATOM     24  C   UNL     1      -4.364  -2.514  -0.664  0.00  0.00    +0.000 A 
ATOM     25  N   UNL     1      -3.236  -3.219  -0.843  0.00  0.00    +0.000 NA
BRANCH  21  30
ATOM     26  F   UNL     1       2.632  -5.121   0.694  0.00  0.00    +0.000 F 
ATOM     27  C   UNL     1       1.424  -4.556   0.559  0.00  0.00    +0.000 A 
ATOM     28  C   UNL     1       0.611  -4.917  -0.508  0.00  0.00    +0.000 A 
ATOM     29  C   UNL     1      -0.653  -4.333  -0.648  0.00  0.00    +0.000 A 
ATOM     30  C   UNL     1      -1.097  -3.375   0.284  0.00  0.00    +0.000 A 
ATOM     31  C   UNL     1      -0.254  -3.037   1.349  0.00  0.00    +0.000 A 
ATOM     32  F   UNL     1      -0.618  -2.158   2.294  0.00  0.00    +0.000 F 
ATOM     33  C   UNL     1       1.001  -3.622   1.491  0.00  0.00    +0.000 A 
ENDBRANCH  21  30
ENDBRANCH  20  24
ENDBRANCH  18  20
ENDBRANCH   1  18
TORSDOF 7
