REMARK  Name = 
REMARK  5 active torsions:
REMARK  status: ('A' for Active; 'I' for Inactive)
REMARK    1  A    between atoms: C_2  and  C_18
REMARK    2  A    between atoms: N_3  and  C_4
REMARK    3  A    between atoms: C_5  and  C_6
REMARK    4  A    between atoms: N_9  and  C_10
REMARK    5  A    between atoms: N_20  and  C_21
REMARK                            x       y       z     vdW  Elec       q    Type
REMARK                         _______ _______ _______ _____ _____    ______ ____
ROOT
ATOM      1  O   UNL     1       1.068  -0.208   0.693  0.00  0.00    +0.000 OA
ATOM      2  C   UNL     1       2.180  -0.007   0.212  0.00  0.00    +0.000 C 
ATOM      3  N   UNL     1       2.794   1.227   0.131  0.00  0.00    +0.000 N 
ATOM      4  H   UNL     1       3.543   1.292  -0.556  0.00  0.00    +0.000 HD
ENDROOT
BRANCH   3   5
ATOM      5  C   UNL     1       2.187   2.384   0.575  0.00  0.00    +0.000 A 
ATOM      6  C   UNL     1       2.187   3.580  -0.108  0.00  0.00    +0.000 A 
ATOM      7  N   UNL     1       1.427   4.457   0.650  0.00  0.00    +0.000 N 
ATOM      8  N   UNL     1       1.122   3.917   1.863  0.00  0.00    +0.000 NA
ATOM      9  C   UNL     1       1.478   2.636   1.760  0.00  0.00    +0.000 A 
BRANCH   7  10
ATOM     10  C   UNL     1       0.897   5.737   0.326  0.00  0.00    +0.000 A 
ATOM     11  C   UNL     1       0.519   6.066  -0.974  0.00  0.00    +0.000 A 
ATOM     12  C   UNL     1      -0.028   7.320  -1.196  0.00  0.00    +0.000 A 
ATOM     13  N   UNL     1      -0.215   8.242  -0.230  0.00  0.00    +0.000 NA
ATOM     14  C   UNL     1       0.133   7.887   1.025  0.00  0.00    +0.000 A 
ATOM     15  C   UNL     1       0.672   6.657   1.356  0.00  0.00    +0.000 A 
ENDBRANCH   7  10
BRANCH   6  16
ATOM     16  C   UNL     1       2.818   3.923  -1.391  0.00  0.00    +0.000 C 
ATOM     17  F   UNL     1       3.598   5.026  -1.284  0.00  0.00    +0.000 F 
ATOM     18  F   UNL     1       3.646   2.920  -1.806  0.00  0.00    +0.000 F 
ENDBRANCH   6  16
ENDBRANCH   3   5
BRANCH   2  19
ATOM     19  C   UNL     1       2.951  -1.072  -0.451  0.00  0.00    +0.000 A 
ATOM     20  N   UNL     1       4.225  -0.900  -0.858  0.00  0.00    +0.000 NA
ATOM     21  N   UNL     1       4.591  -2.098  -1.407  0.00  0.00    +0.000 N 
ATOM     22  C   UNL     1       3.546  -2.993  -1.369  0.00  0.00    +0.000 A 
ATOM     23  C   UNL     1       2.485  -2.364  -0.770  0.00  0.00    +0.000 A 
BRANCH  21  24
ATOM     24  C   UNL     1       5.903  -2.280  -1.936  0.00  0.00    +0.000 A 
ATOM     25  C   UNL     1       6.856  -1.254  -1.789  0.00  0.00    +0.000 A 
ATOM     26  C   UNL     1       8.142  -1.412  -2.319  0.00  0.00    +0.000 A 
ATOM     27  C   UNL     1       8.476  -2.582  -2.989  0.00  0.00    +0.000 A 
ATOM     28  F   UNL     1       9.702  -2.727  -3.496  0.00  0.00    +0.000 F 
ATOM     29  C   UNL     1       7.552  -3.605  -3.136  0.00  0.00    +0.000 A 
ATOM     30  C   UNL     1       6.271  -3.453  -2.608  0.00  0.00    +0.000 A 
ATOM     31  F   UNL     1       5.417  -4.465  -2.795  0.00  0.00    +0.000 F 
ENDBRANCH  21  24
ENDBRANCH   2  19
TORSDOF 5
