REMARK  Name = 
REMARK  5 active torsions:
REMARK  status: ('A' for Active; 'I' for Inactive)
REMARK    1  A    between atoms: C_2  and  C_3
REMARK    2  A    between atoms: C_4  and  N_5
REMARK    3  A    between atoms: C_6  and  C_8
REMARK    4  A    between atoms: C_11  and  C_12
REMARK    5  A    between atoms: N_21  and  C_22
REMARK                            x       y       z     vdW  Elec       q    Type
REMARK                         _______ _______ _______ _____ _____    ______ ____
ROOT
ATOM      1  C   UNL     1       3.726   0.068   0.048  0.00  0.00    +0.000 A 
ATOM      2  C   UNL     1       4.398   1.235   0.253  0.00  0.00    +0.000 A 
ATOM      3  C   UNL     1       5.847   1.135   0.323  0.00  0.00    +0.000 A 
ATOM      4  C   UNL     1       6.479  -0.038   0.245  0.00  0.00    +0.000 A 
ATOM      5  N   UNL     1       5.799  -1.232   0.100  0.00  0.00    +0.000 N 
ATOM      6  C   UNL     1       4.401  -1.254  -0.021  0.00  0.00    +0.000 A 
ATOM      7  O   UNL     1       3.716  -2.261  -0.198  0.00  0.00    +0.000 OA
ENDROOT
BRANCH   5   8
ATOM      8  C   UNL     1       6.509  -2.465   0.025  0.00  0.00    +0.000 A 
ATOM      9  C   UNL     1       7.614  -2.589  -0.827  0.00  0.00    +0.000 A 
ATOM     10  C   UNL     1       8.251  -3.820  -0.970  0.00  0.00    +0.000 A 
ATOM     11  C   UNL     1       7.820  -4.920  -0.230  0.00  0.00    +0.000 A 
ATOM     12  C   UNL     1       6.754  -4.790   0.658  0.00  0.00    +0.000 A 
ATOM     13  C   UNL     1       6.093  -3.569   0.777  0.00  0.00    +0.000 A 
ENDBRANCH   5   8
BRANCH   2  14
ATOM     14  N   UNL     1       3.765   2.490   0.423  0.00  0.00    +0.000 N 
ATOM     15  C   UNL     1       4.372   3.727   0.688  0.00  0.00    +0.000 C 
ATOM     16  O   UNL     1       5.592   3.859   0.806  0.00  0.00    +0.000 OA
ATOM     17  H   UNL     1       2.748   2.536   0.382  0.00  0.00    +0.000 HD
BRANCH  15  18
ATOM     18  C   UNL     1       3.536   4.910   0.833  0.00  0.00    +0.000 A 
ATOM     19  C   UNL     1       3.958   6.184   1.183  0.00  0.00    +0.000 A 
ATOM     20  C   UNL     1       2.848   7.039   1.081  0.00  0.00    +0.000 A 
ATOM     21  C   UNL     1       1.787   6.256   0.673  0.00  0.00    +0.000 A 
ATOM     22  O   UNL     1       2.187   4.936   0.560  0.00  0.00    +0.000 OA
BRANCH  21  23
ATOM     23  C   UNL     1       0.433   6.621   0.267  0.00  0.00    +0.000 A 
ATOM     24  C   UNL     1      -0.579   5.697   0.059  0.00  0.00    +0.000 A 
ATOM     25  C   UNL     1      -1.789   6.145  -0.466  0.00  0.00    +0.000 A 
ATOM     26  C   UNL     1      -1.958   7.495  -0.757  0.00  0.00    +0.000 A 
ATOM     27  C   UNL     1      -0.913   8.356  -0.479  0.00  0.00    +0.000 A 
ATOM     28  N   UNL     1       0.271   7.951   0.029  0.00  0.00    +0.000 NA
ENDBRANCH  21  23
ENDBRANCH  15  18
ENDBRANCH   2  14
BRANCH   1  30
ATOM     29  N   UNL     1       0.945   0.068   0.048  0.00  0.00    +0.000 NA
ATOM     30  C   UNL     1       2.206   0.068   0.048  0.00  0.00    +0.000 C 
ENDBRANCH   1  30
TORSDOF 5
