REMARK  Name = 
REMARK  8 active torsions:
REMARK  status: ('A' for Active; 'I' for Inactive)
REMARK    1  A    between atoms: C_2  and  C_19
REMARK    2  A    between atoms: N_3  and  C_4
REMARK    3  A    between atoms: C_4  and  C_5
REMARK    4  A    between atoms: C_4  and  C_11
REMARK    5  A    between atoms: C_11  and  O_12
REMARK    6  A    between atoms: C_11  and  C_13
REMARK    7  A    between atoms: N_21  and  C_22
REMARK    8  A    between atoms: C_25  and  O_26
REMARK                            x       y       z     vdW  Elec       q    Type
REMARK                         _______ _______ _______ _____ _____    ______ ____
ROOT
ATOM      1  O   UNL     1       3.259   4.130   1.380  0.00  0.00    +0.000 OA
ATOM      2  C   UNL     1       2.075   3.831   1.234  0.00  0.00    +0.000 C 
ATOM      3  N   UNL     1       1.605   3.070   0.194  0.00  0.00    +0.000 N 
ATOM      4  H   UNL     1       0.601   2.920   0.175  0.00  0.00    +0.000 HD
ENDROOT
BRANCH   2   5
ATOM      5  C   UNL     1       1.034   4.318   2.153  0.00  0.00    +0.000 A 
ATOM      6  N   UNL     1      -0.285   4.109   1.957  0.00  0.00    +0.000 NA
ATOM      7  N   UNL     1      -0.899   4.875   2.905  0.00  0.00    +0.000 N 
ATOM      8  C   UNL     1       0.016   5.441   3.764  0.00  0.00    +0.000 A 
ATOM      9  C   UNL     1       1.262   5.094   3.311  0.00  0.00    +0.000 A 
BRANCH   7  10
ATOM     10  C   UNL     1      -2.310   5.073   2.898  0.00  0.00    +0.000 A 
ATOM     11  C   UNL     1      -3.110   4.379   1.977  0.00  0.00    +0.000 A 
ATOM     12  C   UNL     1      -4.489   4.613   1.924  0.00  0.00    +0.000 A 
ATOM     13  C   UNL     1      -5.061   5.544   2.785  0.00  0.00    +0.000 A 
ATOM     14  C   UNL     1      -4.284   6.229   3.709  0.00  0.00    +0.000 A 
ATOM     15  C   UNL     1      -2.910   5.991   3.775  0.00  0.00    +0.000 A 
BRANCH  13  16
ATOM     16  O   UNL     1      -6.394   5.824   2.752  0.00  0.00    +0.000 OA
ATOM     17  H   UNL     1      -6.804   5.303   2.041  0.00  0.00    +0.000 HD
ENDBRANCH  13  16
ENDBRANCH   7  10
ENDBRANCH   2   5
BRANCH   3  18
ATOM     18  C   UNL     1       2.460   2.511  -0.846  0.00  0.00    +0.000 C 
BRANCH  18  19
ATOM     19  C   UNL     1       3.322   1.371  -0.292  0.00  0.00    +0.000 A 
ATOM     20  C   UNL     1       4.673   1.558   0.058  0.00  0.00    +0.000 A 
ATOM     21  C   UNL     1       5.468   0.492   0.472  0.00  0.00    +0.000 A 
ATOM     22  C   UNL     1       4.921  -0.777   0.583  0.00  0.00    +0.000 A 
ATOM     23  C   UNL     1       3.572  -0.979   0.290  0.00  0.00    +0.000 A 
ATOM     24  C   UNL     1       2.777   0.085  -0.142  0.00  0.00    +0.000 A 
ENDBRANCH  18  19
BRANCH  18  25
ATOM     25  C   UNL     1       3.295   3.558  -1.670  0.00  0.00    +0.000 C 
BRANCH  25  26
ATOM     26  C   UNL     1       2.529   4.740  -2.235  0.00  0.00    +0.000 A 
ATOM     27  C   UNL     1       2.919   6.045  -1.885  0.00  0.00    +0.000 A 
ATOM     28  C   UNL     1       2.335   7.151  -2.500  0.00  0.00    +0.000 A 
ATOM     29  C   UNL     1       1.357   6.967  -3.473  0.00  0.00    +0.000 A 
ATOM     30  C   UNL     1       0.940   5.680  -3.809  0.00  0.00    +0.000 A 
ATOM     31  C   UNL     1       1.512   4.571  -3.185  0.00  0.00    +0.000 A 
ENDBRANCH  25  26
BRANCH  25  32
ATOM     32  O   UNL     1       3.939   2.880  -2.771  0.00  0.00    +0.000 OA
ATOM     33  H   UNL     1       3.533   3.173  -3.602  0.00  0.00    +0.000 HD
ENDBRANCH  25  32
ENDBRANCH  18  25
ENDBRANCH   3  18
TORSDOF 8
