REMARK  Name = 
REMARK  6 active torsions:
REMARK  status: ('A' for Active; 'I' for Inactive)
REMARK    1  A    between atoms: C_2  and  C_14
REMARK    2  A    between atoms: N_3  and  C_4
REMARK    3  A    between atoms: C_4  and  C_5
REMARK    4  A    between atoms: C_5  and  C_6
REMARK    5  A    between atoms: C_19  and  C_20
REMARK    6  A    between atoms: C_20  and  C_22
REMARK                            x       y       z     vdW  Elec       q    Type
REMARK                         _______ _______ _______ _____ _____    ______ ____
ROOT
ATOM      1  C   UNL     1       3.005  -1.097   0.723  0.00  0.00    +0.000 A 
ATOM      2  C   UNL     1       2.593  -2.445   0.668  0.00  0.00    +0.000 A 
ATOM      3  C   UNL     1       3.152  -3.414   1.502  0.00  0.00    +0.000 A 
ATOM      4  C   UNL     1       4.153  -3.060   2.394  0.00  0.00    +0.000 A 
ATOM      5  C   UNL     1       4.579  -1.735   2.459  0.00  0.00    +0.000 A 
ATOM      6  C   UNL     1       4.016  -0.729   1.640  0.00  0.00    +0.000 A 
ENDROOT
BRANCH   1   8
ATOM      7  O   UNL     1       3.059   0.690  -0.829  0.00  0.00    +0.000 OA
ATOM      8  C   UNL     1       2.389  -0.171  -0.275  0.00  0.00    +0.000 C 
ATOM      9  N   UNL     1       1.035  -0.348  -0.514  0.00  0.00    +0.000 N 
ATOM     10  H   UNL     1       0.523  -1.071  -0.025  0.00  0.00    +0.000 HD
BRANCH   9  11
ATOM     11  C   UNL     1       0.270   0.525  -1.395  0.00  0.00    +0.000 C 
BRANCH  11  12
ATOM     12  C   UNL     1       0.340   0.107  -2.870  0.00  0.00    +0.000 C 
BRANCH  12  13
ATOM     13  C   UNL     1      -0.449   1.010  -3.786  0.00  0.00    +0.000 A 
ATOM     14  C   UNL     1       0.170   1.735  -4.806  0.00  0.00    +0.000 A 
ATOM     15  F   UNL     1       1.492   1.645  -5.002  0.00  0.00    +0.000 F 
ATOM     16  C   UNL     1      -0.592   2.547  -5.636  0.00  0.00    +0.000 A 
ATOM     17  N   UNL     1      -1.935   2.686  -5.533  0.00  0.00    +0.000 NA
ATOM     18  C   UNL     1      -2.527   1.970  -4.545  0.00  0.00    +0.000 A 
ATOM     19  C   UNL     1      -1.834   1.139  -3.676  0.00  0.00    +0.000 A 
ATOM     20  F   UNL     1      -2.507   0.453  -2.741  0.00  0.00    +0.000 F 
ENDBRANCH  12  13
ENDBRANCH  11  12
ENDBRANCH   9  11
ENDBRANCH   1   8
BRANCH   6  21
ATOM     21  C   UNL     1       4.628   0.620   1.841  0.00  0.00    +0.000 C 
ATOM     22  O   UNL     1       5.789   0.680   2.249  0.00  0.00    +0.000 OA
BRANCH  21  23
ATOM     23  C   UNL     1       3.932   1.908   1.629  0.00  0.00    +0.000 A 
ATOM     24  C   UNL     1       2.555   2.072   1.836  0.00  0.00    +0.000 A 
ATOM     25  C   UNL     1       1.941   3.272   1.467  0.00  0.00    +0.000 A 
ATOM     26  C   UNL     1       2.712   4.314   0.958  0.00  0.00    +0.000 A 
ATOM     27  F   UNL     1       2.110   5.448   0.576  0.00  0.00    +0.000 F 
ATOM     28  C   UNL     1       4.090   4.182   0.844  0.00  0.00    +0.000 A 
ATOM     29  F   UNL     1       4.832   5.199   0.386  0.00  0.00    +0.000 F 
ATOM     30  C   UNL     1       4.708   2.987   1.183  0.00  0.00    +0.000 A 
ENDBRANCH  21  23
ENDBRANCH   6  21
TORSDOF 6
