REMARK  Name = 
REMARK  7 active torsions:
REMARK  status: ('A' for Active; 'I' for Inactive)
REMARK    1  A    between atoms: C_2  and  C_3
REMARK    2  A    between atoms: C_5  and  C_6
REMARK    3  A    between atoms: C_6  and  O_7
REMARK    4  A    between atoms: O_7  and  C_8
REMARK    5  A    between atoms: C_10  and  N_11
REMARK    6  A    between atoms: C_12  and  C_14
REMARK    7  A    between atoms: N_16  and  C_17
REMARK                            x       y       z     vdW  Elec       q    Type
REMARK                         _______ _______ _______ _____ _____    ______ ____
ROOT
ATOM      1  C   UNL     1       1.873  -4.966  -0.164  0.00  0.00    +0.000 A 
ATOM      2  C   UNL     1       2.854  -5.226   0.803  0.00  0.00    +0.000 A 
ATOM      3  C   UNL     1       3.200  -6.544   1.112  0.00  0.00    +0.000 A 
ATOM      4  C   UNL     1       2.587  -7.595   0.421  0.00  0.00    +0.000 A 
ATOM      5  C   UNL     1       1.627  -7.337  -0.556  0.00  0.00    +0.000 A 
ATOM      6  C   UNL     1       1.253  -6.024  -0.832  0.00  0.00    +0.000 A 
ENDROOT
BRANCH   3   7
ATOM      7  N   UNL     1       4.170  -6.806   2.100  0.00  0.00    +0.000 N 
ATOM      8  C   UNL     1       3.966  -7.751   3.095  0.00  0.00    +0.000 C 
ATOM      9  O   UNL     1       2.928  -8.398   3.232  0.00  0.00    +0.000 OA
ATOM     10  H   UNL     1       4.899  -6.127   2.289  0.00  0.00    +0.000 HD
BRANCH   8  11
ATOM     11  C   UNL     1       5.068  -7.897   4.064  0.00  0.00    +0.000 A 
ATOM     12  N   UNL     1       6.294  -7.348   3.926  0.00  0.00    +0.000 NA
ATOM     13  N   UNL     1       7.002  -7.796   5.009  0.00  0.00    +0.000 N 
ATOM     14  C   UNL     1       6.218  -8.568   5.836  0.00  0.00    +0.000 A 
ATOM     15  C   UNL     1       4.978  -8.645   5.263  0.00  0.00    +0.000 A 
BRANCH  13  16
ATOM     16  C   UNL     1       8.364  -7.456   5.214  0.00  0.00    +0.000 A 
ATOM     17  C   UNL     1       9.079  -7.912   6.328  0.00  0.00    +0.000 A 
ATOM     18  C   UNL     1      10.409  -7.526   6.498  0.00  0.00    +0.000 A 
ATOM     19  C   UNL     1      10.980  -6.699   5.547  0.00  0.00    +0.000 A 
ATOM     20  N   UNL     1      10.323  -6.252   4.456  0.00  0.00    +0.000 NA
ATOM     21  C   UNL     1       9.030  -6.640   4.309  0.00  0.00    +0.000 A 
ENDBRANCH  13  16
ENDBRANCH   8  11
ENDBRANCH   3   7
BRANCH   1  22
ATOM     22  O   UNL     1       1.568  -3.645  -0.368  0.00  0.00    +0.000 OA
BRANCH  22  23
ATOM     23  C   UNL     1       1.022  -3.336  -1.655  0.00  0.00    +0.000 C 
BRANCH  23  26
ATOM     24  C   UNL     1       2.438   0.211  -1.750  0.00  0.00    +0.000 A 
ATOM     25  C   UNL     1       2.234  -1.123  -1.390  0.00  0.00    +0.000 A 
ATOM     26  C   UNL     1       1.207  -1.871  -1.980  0.00  0.00    +0.000 A 
ATOM     27  C   UNL     1       0.402  -1.264  -2.950  0.00  0.00    +0.000 A 
ATOM     28  C   UNL     1       0.601   0.069  -3.315  0.00  0.00    +0.000 A 
ATOM     29  C   UNL     1       1.618   0.808  -2.711  0.00  0.00    +0.000 A 
BRANCH  24  31
ATOM     30  N   UNL     1       4.352   1.563  -0.642  0.00  0.00    +0.000 NA
ATOM     31  C   UNL     1       3.494   0.956  -1.141  0.00  0.00    +0.000 C 
ENDBRANCH  24  31
ENDBRANCH  23  26
ENDBRANCH  22  23
ENDBRANCH   1  22
TORSDOF 7
