REMARK  Name = 
REMARK  8 active torsions:
REMARK  status: ('A' for Active; 'I' for Inactive)
REMARK    1  A    between atoms: C_2  and  C_20
REMARK    2  A    between atoms: N_3  and  C_4
REMARK    3  A    between atoms: C_4  and  C_5
REMARK    4  A    between atoms: C_7  and  O_8
REMARK    5  A    between atoms: O_8  and  C_9
REMARK    6  A    between atoms: C_22  and  O_23
REMARK    7  A    between atoms: O_23  and  C_24
REMARK    8  A    between atoms: C_24  and  C_25
REMARK                            x       y       z     vdW  Elec       q    Type
REMARK                         _______ _______ _______ _____ _____    ______ ____
ROOT
ATOM      1  C   UNL     1       2.366   2.275   0.787  0.00  0.00    +0.000 C 
ENDROOT
BRANCH   1   2
ATOM      2  C   UNL     1       3.337   3.387   1.123  0.00  0.00    +0.000 A 
ATOM      3  C   UNL     1       3.753   3.573   2.439  0.00  0.00    +0.000 A 
ATOM      4  C   UNL     1       4.742   4.515   2.707  0.00  0.00    +0.000 A 
ATOM      5  C   UNL     1       5.201   5.330   1.680  0.00  0.00    +0.000 A 
ATOM      6  C   UNL     1       4.705   5.111   0.407  0.00  0.00    +0.000 A 
ATOM      7  N   UNL     1       3.809   4.146   0.101  0.00  0.00    +0.000 NA
BRANCH   4   8
ATOM      8  O   UNL     1       5.281   4.746   3.953  0.00  0.00    +0.000 OA
BRANCH   8   9
ATOM      9  C   UNL     1       5.444   3.703   4.840  0.00  0.00    +0.000 A 
ATOM     10  C   UNL     1       5.701   2.377   4.467  0.00  0.00    +0.000 A 
ATOM     11  C   UNL     1       5.802   1.379   5.440  0.00  0.00    +0.000 A 
ATOM     12  C   UNL     1       5.710   1.721   6.783  0.00  0.00    +0.000 A 
ATOM     13  F   UNL     1       5.807   0.761   7.713  0.00  0.00    +0.000 F 
ATOM     14  C   UNL     1       5.527   3.047   7.158  0.00  0.00    +0.000 A 
ATOM     15  F   UNL     1       5.473   3.377   8.456  0.00  0.00    +0.000 F 
ATOM     16  C   UNL     1       5.394   4.042   6.194  0.00  0.00    +0.000 A 
ENDBRANCH   8   9
ENDBRANCH   4   8
ENDBRANCH   1   2
BRANCH   1  19
ATOM     17  O   UNL     1       3.380   0.390   2.646  0.00  0.00    +0.000 OA
ATOM     18  C   UNL     1       3.470   0.156   1.440  0.00  0.00    +0.000 C 
ATOM     19  N   UNL     1       3.023   1.021   0.467  0.00  0.00    +0.000 N 
ATOM     20  H   UNL     1       3.224   0.802  -0.499  0.00  0.00    +0.000 HD
BRANCH  18  21
ATOM     21  C   UNL     1       4.109  -1.110   0.963  0.00  0.00    +0.000 A 
ATOM     22  N   UNL     1       3.875  -1.471  -0.328  0.00  0.00    +0.000 NA
ATOM     23  C   UNL     1       4.412  -2.651  -0.709  0.00  0.00    +0.000 A 
ATOM     24  C   UNL     1       5.189  -3.462   0.104  0.00  0.00    +0.000 A 
ATOM     25  C   UNL     1       5.447  -3.040   1.403  0.00  0.00    +0.000 A 
ATOM     26  C   UNL     1       4.886  -1.849   1.847  0.00  0.00    +0.000 A 
BRANCH  23  27
ATOM     27  O   UNL     1       4.204  -3.105  -1.993  0.00  0.00    +0.000 OA
BRANCH  27  28
ATOM     28  C   UNL     1       3.857  -2.068  -2.918  0.00  0.00    +0.000 C 
BRANCH  28  29
ATOM     29  C   UNL     1       4.987  -1.069  -3.137  0.00  0.00    +0.000 C 
ATOM     30  F   UNL     1       6.069  -1.711  -3.653  0.00  0.00    +0.000 F 
ATOM     31  F   UNL     1       4.609  -0.150  -4.061  0.00  0.00    +0.000 F 
ENDBRANCH  28  29
ENDBRANCH  27  28
ENDBRANCH  23  27
ENDBRANCH  18  21
ENDBRANCH   1  19
TORSDOF 8
