REMARK  Name = 
REMARK  3 active torsions:
REMARK  status: ('A' for Active; 'I' for Inactive)
REMARK    1  A    between atoms: C_2  and  C_16
REMARK    2  A    between atoms: C_8  and  C_9
REMARK    3  A    between atoms: N_18  and  C_19
REMARK                            x       y       z     vdW  Elec       q    Type
REMARK                         _______ _______ _______ _____ _____    ______ ____
ROOT
ATOM      1  O   UNL     1       0.970   0.212  -0.250  0.00  0.00    +0.000 OA
ATOM      2  C   UNL     1       2.185   0.197  -0.110  0.00  0.00    +0.000 C 
ATOM      3  N   UNL     1       2.906   0.675   0.963  0.00  0.00    +0.000 N 
ATOM      4  C   UNL     1       2.306   1.095   2.140  0.00  0.00    +0.000 A 
ATOM      5  N   UNL     1       1.076   0.718   2.514  0.00  0.00    +0.000 NA
ATOM      6  O   UNL     1       0.825   1.322   3.722  0.00  0.00    +0.000 OA
ATOM      7  C   UNL     1       1.892   2.069   4.078  0.00  0.00    +0.000 A 
ATOM      8  C   UNL     1       2.873   1.978   3.115  0.00  0.00    +0.000 A 
ATOM      9  H   UNL     1       3.903   0.821   0.851  0.00  0.00    +0.000 HD
ENDROOT
BRANCH   8  10
ATOM     10  C   UNL     1       4.084   2.785   3.120  0.00  0.00    +0.000 A 
ATOM     11  C   UNL     1       4.068   4.079   3.672  0.00  0.00    +0.000 A 
ATOM     12  C   UNL     1       5.184   4.915   3.574  0.00  0.00    +0.000 A 
ATOM     13  C   UNL     1       6.335   4.471   2.928  0.00  0.00    +0.000 A 
ATOM     14  C   UNL     1       6.379   3.182   2.403  0.00  0.00    +0.000 A 
ATOM     15  C   UNL     1       5.264   2.351   2.507  0.00  0.00    +0.000 A 
ATOM     16  F   UNL     1       5.349   1.121   1.975  0.00  0.00    +0.000 F 
ENDBRANCH   8  10
BRANCH   2  17
ATOM     17  C   UNL     1       3.017  -0.283  -1.282  0.00  0.00    +0.000 A 
ATOM     18  N   UNL     1       4.219   0.221  -1.433  0.00  0.00    +0.000 NA
ATOM     19  N   UNL     1       4.904  -0.100  -2.595  0.00  0.00    +0.000 N 
ATOM     20  C   UNL     1       4.326  -0.838  -3.610  0.00  0.00    +0.000 A 
ATOM     21  C   UNL     1       3.135  -1.428  -3.550  0.00  0.00    +0.000 A 
ATOM     22  C   UNL     1       2.441  -1.281  -2.271  0.00  0.00    +0.000 A 
ATOM     23  O   UNL     1       1.475  -1.976  -2.003  0.00  0.00    +0.000 OA
BRANCH  19  24
ATOM     24  C   UNL     1       6.202   0.493  -2.717  0.00  0.00    +0.000 A 
ATOM     25  C   UNL     1       7.024   0.630  -1.582  0.00  0.00    +0.000 A 
ATOM     26  C   UNL     1       8.308   1.183  -1.673  0.00  0.00    +0.000 A 
ATOM     27  C   UNL     1       8.795   1.626  -2.900  0.00  0.00    +0.000 A 
ATOM     28  C   UNL     1       8.002   1.510  -4.037  0.00  0.00    +0.000 A 
ATOM     29  C   UNL     1       6.728   0.949  -3.942  0.00  0.00    +0.000 A 
ATOM     30  F   UNL     1       6.000   0.894  -5.069  0.00  0.00    +0.000 F 
ENDBRANCH  19  24
ENDBRANCH   2  17
TORSDOF 3
