REMARK  Name = 
REMARK  5 active torsions:
REMARK  status: ('A' for Active; 'I' for Inactive)
REMARK    1  A    between atoms: C_1  and  O_2
REMARK    2  A    between atoms: O_2  and  C_3
REMARK    3  A    between atoms: C_6  and  C_7
REMARK    4  A    between atoms: C_14  and  N_15
REMARK    5  A    between atoms: C_16  and  C_18
REMARK                            x       y       z     vdW  Elec       q    Type
REMARK                         _______ _______ _______ _____ _____    ______ ____
ROOT
ATOM      1  N   UNL     1       4.502  -0.167  -1.953  0.00  0.00    +0.000 N 
ATOM      2  C   UNL     1       5.750  -0.397  -2.564  0.00  0.00    +0.000 C 
ATOM      3  O   UNL     1       6.706   0.364  -2.585  0.00  0.00    +0.000 OA
ATOM      4  H   UNL     1       3.876  -0.952  -1.857  0.00  0.00    +0.000 HD
ENDROOT
BRANCH   2   5
ATOM      5  C   UNL     1       6.078  -1.729  -3.151  0.00  0.00    +0.000 A 
ATOM      6  C   UNL     1       6.956  -1.945  -4.243  0.00  0.00    +0.000 A 
ATOM      7  C   UNL     1       7.309  -3.266  -4.573  0.00  0.00    +0.000 A 
ATOM      8  C   UNL     1       6.763  -4.334  -3.830  0.00  0.00    +0.000 A 
ATOM      9  N   UNL     1       6.959  -5.613  -4.349  0.00  0.00    +0.000 N 
ATOM     10  C   UNL     1       7.431  -5.626  -5.635  0.00  0.00    +0.000 A 
ATOM     11  O   UNL     1       6.836  -6.018  -6.630  0.00  0.00    +0.000 OA
ATOM     12  C   UNL     1       8.811  -4.923  -5.709  0.00  0.00    +0.000 A 
ATOM     13  C   UNL     1       8.364  -3.667  -5.559  0.00  0.00    +0.000 A 
ATOM     14  C   UNL     1       6.021  -4.118  -2.691  0.00  0.00    +0.000 A 
ATOM     15  F   UNL     1       5.633  -5.140  -1.915  0.00  0.00    +0.000 F 
ATOM     16  C   UNL     1       5.659  -2.822  -2.372  0.00  0.00    +0.000 A 
ATOM     17  H   UNL     1       6.748  -6.457  -3.835  0.00  0.00    +0.000 HD
ENDBRANCH   2   5
BRANCH   1  23
ATOM     18  C   UNL     1       3.031   1.172  -0.344  0.00  0.00    +0.000 A 
ATOM     19  C   UNL     1       2.675   2.423   0.191  0.00  0.00    +0.000 A 
ATOM     20  C   UNL     1       3.393   3.562  -0.109  0.00  0.00    +0.000 A 
ATOM     21  C   UNL     1       4.516   3.489  -0.936  0.00  0.00    +0.000 A 
ATOM     22  C   UNL     1       4.865   2.225  -1.487  0.00  0.00    +0.000 A 
ATOM     23  C   UNL     1       4.124   1.047  -1.246  0.00  0.00    +0.000 A 
BRANCH  21  24
ATOM     24  C   UNL     1       5.264   4.727  -1.218  0.00  0.00    +0.000 A 
ATOM     25  C   UNL     1       5.956   4.933  -2.420  0.00  0.00    +0.000 A 
ATOM     26  C   UNL     1       6.710   6.090  -2.618  0.00  0.00    +0.000 A 
ATOM     27  C   UNL     1       6.755   7.023  -1.598  0.00  0.00    +0.000 A 
ATOM     28  N   UNL     1       6.114   6.873  -0.420  0.00  0.00    +0.000 NA
ATOM     29  C   UNL     1       5.395   5.736  -0.260  0.00  0.00    +0.000 A 
ENDBRANCH  21  24
BRANCH  18  31
ATOM     30  C   UNL     1       1.079   0.382   0.685  0.00  0.00    +0.000 C 
ATOM     31  O   UNL     1       2.394   0.084   0.196  0.00  0.00    +0.000 OA
ENDBRANCH  18  31
ENDBRANCH   1  23
TORSDOF 4
