REMARK  Name = 
REMARK  4 active torsions:
REMARK  status: ('A' for Active; 'I' for Inactive)
REMARK    1  A    between atoms: C_2  and  C_16
REMARK    2  A    between atoms: N_3  and  C_4
REMARK    3  A    between atoms: N_6  and  C_7
REMARK    4  A    between atoms: C_20  and  C_21
REMARK                            x       y       z     vdW  Elec       q    Type
REMARK                         _______ _______ _______ _____ _____    ______ ____
ROOT
ATOM      1  O   UNL     1       0.857  -0.045   0.065  0.00  0.00    +0.000 OA
ATOM      2  C   UNL     1       2.072   0.119   0.051  0.00  0.00    +0.000 C 
ATOM      3  N   UNL     1       2.793   0.770   1.038  0.00  0.00    +0.000 N 
ATOM      4  H   UNL     1       3.767   0.978   0.846  0.00  0.00    +0.000 HD
ENDROOT
BRANCH   3   5
ATOM      5  C   UNL     1       2.228   1.220   2.216  0.00  0.00    +0.000 A 
ATOM      6  C   UNL     1       0.990   0.900   2.716  0.00  0.00    +0.000 A 
ATOM      7  N   UNL     1       0.807   1.601   3.882  0.00  0.00    +0.000 N 
ATOM      8  N   UNL     1       1.916   2.338   4.179  0.00  0.00    +0.000 NA
ATOM      9  C   UNL     1       2.769   2.082   3.183  0.00  0.00    +0.000 A 
BRANCH   7  10
ATOM     10  C   UNL     1      -0.337   1.621   4.722  0.00  0.00    +0.000 A 
ATOM     11  C   UNL     1      -0.374   2.502   5.815  0.00  0.00    +0.000 A 
ATOM     12  C   UNL     1      -1.498   2.546   6.648  0.00  0.00    +0.000 A 
ATOM     13  C   UNL     1      -2.586   1.711   6.409  0.00  0.00    +0.000 A 
ATOM     14  C   UNL     1      -2.554   0.830   5.329  0.00  0.00    +0.000 A 
ATOM     15  C   UNL     1      -1.439   0.789   4.495  0.00  0.00    +0.000 A 
ATOM     16  F   UNL     1      -1.476  -0.097   3.491  0.00  0.00    +0.000 F 
ENDBRANCH   7  10
ENDBRANCH   3   5
BRANCH   2  17
ATOM     17  C   UNL     1       2.887  -0.378  -1.056  0.00  0.00    +0.000 A 
ATOM     18  N   UNL     1       4.101   0.139  -1.324  0.00  0.00    +0.000 NA
ATOM     19  O   UNL     1       4.522  -0.485  -2.484  0.00  0.00    +0.000 OA
ATOM     20  C   UNL     1       3.596  -1.394  -2.876  0.00  0.00    +0.000 A 
ATOM     21  C   UNL     1       2.545  -1.404  -1.991  0.00  0.00    +0.000 A 
BRANCH  21  22
ATOM     22  C   UNL     1       1.368  -2.254  -2.087  0.00  0.00    +0.000 A 
ATOM     23  C   UNL     1       0.757  -2.755  -0.921  0.00  0.00    +0.000 A 
ATOM     24  C   UNL     1      -0.463  -3.432  -0.991  0.00  0.00    +0.000 A 
ATOM     25  C   UNL     1      -1.054  -3.652  -2.227  0.00  0.00    +0.000 A 
ATOM     26  F   UNL     1      -2.237  -4.275  -2.290  0.00  0.00    +0.000 F 
ATOM     27  C   UNL     1      -0.441  -3.230  -3.397  0.00  0.00    +0.000 A 
ATOM     28  C   UNL     1       0.764  -2.534  -3.318  0.00  0.00    +0.000 A 
ATOM     29  F   UNL     1       1.321  -2.110  -4.463  0.00  0.00    +0.000 F 
ENDBRANCH  21  22
ENDBRANCH   2  17
TORSDOF 4
