REMARK  Name = 
REMARK  4 active torsions:
REMARK  status: ('A' for Active; 'I' for Inactive)
REMARK    1  A    between atoms: C_2  and  C_17
REMARK    2  A    between atoms: N_3  and  C_4
REMARK    3  A    between atoms: N_8  and  C_9
REMARK    4  A    between atoms: C_26  and  C_27
REMARK                            x       y       z     vdW  Elec       q    Type
REMARK                         _______ _______ _______ _____ _____    ______ ____
ROOT
ATOM      1  O   UNL     1       0.879  -0.735  -0.130  0.00  0.00    +0.000 OA
ATOM      2  C   UNL     1       1.917  -0.168  -0.451  0.00  0.00    +0.000 C 
ATOM      3  N   UNL     1       2.180   1.196  -0.285  0.00  0.00    +0.000 N 
ATOM      4  H   UNL     1       3.087   1.539  -0.589  0.00  0.00    +0.000 HD
ENDROOT
BRANCH   2   5
ATOM      5  C   UNL     1       3.108  -1.033  -0.814  0.00  0.00    +0.000 A 
ATOM      6  C   UNL     1       3.411  -1.815   0.296  0.00  0.00    +0.000 A 
ATOM      7  C   UNL     1       4.457  -1.379   1.099  0.00  0.00    +0.000 A 
ATOM      8  C   UNL     1       4.511  -1.776   2.441  0.00  0.00    +0.000 A 
ATOM      9  C   UNL     1       5.341  -1.093   3.317  0.00  0.00    +0.000 A 
ATOM     10  C   UNL     1       6.170  -0.080   2.838  0.00  0.00    +0.000 A 
ATOM     11  C   UNL     1       6.188   0.230   1.471  0.00  0.00    +0.000 A 
ATOM     12  C   UNL     1       5.331  -0.394   0.580  0.00  0.00    +0.000 A 
ATOM     13  N   UNL     1       5.278  -0.026  -0.709  0.00  0.00    +0.000 NA
ATOM     14  C   UNL     1       4.180  -0.403  -1.427  0.00  0.00    +0.000 A 
BRANCH  14  15
ATOM     15  C   UNL     1       4.113  -0.104  -2.902  0.00  0.00    +0.000 C 
ATOM     16  F   UNL     1       3.257  -0.921  -3.578  0.00  0.00    +0.000 F 
ATOM     17  F   UNL     1       3.693   1.167  -3.154  0.00  0.00    +0.000 F 
ENDBRANCH  14  15
ENDBRANCH   2   5
BRANCH   3  18
ATOM     18  C   UNL     1       1.454   2.091   0.485  0.00  0.00    +0.000 A 
ATOM     19  C   UNL     1       0.285   1.880   1.085  0.00  0.00    +0.000 A 
ATOM     20  C   UNL     1      -0.370   2.892   1.952  0.00  0.00    +0.000 A 
ATOM     21  O   UNL     1      -1.443   2.558   2.451  0.00  0.00    +0.000 OA
ATOM     22  N   UNL     1       0.306   4.111   2.109  0.00  0.00    +0.000 N 
ATOM     23  N   UNL     1       1.530   4.355   1.502  0.00  0.00    +0.000 NA
ATOM     24  C   UNL     1       2.037   3.424   0.765  0.00  0.00    +0.000 A 
BRANCH  22  25
ATOM     25  C   UNL     1      -0.219   5.242   2.843  0.00  0.00    +0.000 A 
ATOM     26  C   UNL     1      -1.480   5.235   3.460  0.00  0.00    +0.000 A 
ATOM     27  C   UNL     1      -2.003   6.379   4.083  0.00  0.00    +0.000 A 
ATOM     28  C   UNL     1      -1.269   7.559   4.117  0.00  0.00    +0.000 A 
ATOM     29  C   UNL     1       0.001   7.585   3.553  0.00  0.00    +0.000 A 
ATOM     30  C   UNL     1       0.519   6.440   2.933  0.00  0.00    +0.000 A 
ENDBRANCH  22  25
ENDBRANCH   3  18
TORSDOF 4
