REMARK  Name = 
REMARK  6 active torsions:
REMARK  status: ('A' for Active; 'I' for Inactive)
REMARK    1  A    between atoms: C_2  and  C_11
REMARK    2  A    between atoms: N_3  and  C_4
REMARK    3  A    between atoms: C_4  and  C_5
REMARK    4  A    between atoms: C_13  and  N_14
REMARK    5  A    between atoms: C_15  and  C_17
REMARK    6  A    between atoms: C_21  and  C_22
REMARK                            x       y       z     vdW  Elec       q    Type
REMARK                         _______ _______ _______ _____ _____    ______ ____
ROOT
ATOM      1  C   UNL     1       3.092  -1.008  -0.787  0.00  0.00    +0.000 A 
ATOM      2  C   UNL     1       2.729  -1.110  -2.133  0.00  0.00    +0.000 A 
ATOM      3  C   UNL     1       3.427  -1.938  -3.017  0.00  0.00    +0.000 A 
ATOM      4  C   UNL     1       4.509  -2.676  -2.526  0.00  0.00    +0.000 A 
ATOM      5  C   UNL     1       4.895  -2.562  -1.183  0.00  0.00    +0.000 A 
ATOM      6  C   UNL     1       4.195  -1.721  -0.316  0.00  0.00    +0.000 A 
ENDROOT
BRANCH   3   7
ATOM      7  N   UNL     1       3.089  -2.053  -4.384  0.00  0.00    +0.000 N 
ATOM      8  C   UNL     1       2.042  -1.403  -5.024  0.00  0.00    +0.000 C 
ATOM      9  O   UNL     1       1.271  -0.616  -4.486  0.00  0.00    +0.000 OA
ATOM     10  H   UNL     1       3.656  -2.658  -4.971  0.00  0.00    +0.000 HD
BRANCH   8  11
ATOM     11  C   UNL     1       1.877  -1.750  -6.437  0.00  0.00    +0.000 A 
ATOM     12  N   UNL     1       2.918  -2.154  -7.187  0.00  0.00    +0.000 NA
ATOM     13  O   UNL     1       2.427  -2.264  -8.476  0.00  0.00    +0.000 OA
ATOM     14  C   UNL     1       1.100  -1.984  -8.485  0.00  0.00    +0.000 A 
ATOM     15  C   UNL     1       0.676  -1.682  -7.214  0.00  0.00    +0.000 A 
BRANCH  15  16
ATOM     16  C   UNL     1      -0.692  -1.351  -6.838  0.00  0.00    +0.000 A 
ATOM     17  C   UNL     1      -1.188  -1.732  -5.581  0.00  0.00    +0.000 A 
ATOM     18  C   UNL     1      -2.434  -1.288  -5.134  0.00  0.00    +0.000 A 
ATOM     19  C   UNL     1      -3.225  -0.499  -5.962  0.00  0.00    +0.000 A 
ATOM     20  C   UNL     1      -2.779  -0.174  -7.240  0.00  0.00    +0.000 A 
ATOM     21  C   UNL     1      -1.519  -0.598  -7.681  0.00  0.00    +0.000 A 
ENDBRANCH  15  16
ENDBRANCH   8  11
ENDBRANCH   3   7
BRANCH   1  23
ATOM     22  O   UNL     1       2.893   0.421   1.076  0.00  0.00    +0.000 OA
ATOM     23  C   UNL     1       2.328  -0.125   0.136  0.00  0.00    +0.000 C 
ATOM     24  N   UNL     1       0.980   0.002  -0.125  0.00  0.00    +0.000 N 
ATOM     25  H   UNL     1       0.561  -0.430  -0.937  0.00  0.00    +0.000 HD
BRANCH  24  26
ATOM     26  C   UNL     1       0.122   0.880   0.642  0.00  0.00    +0.000 C 
BRANCH  26  27
ATOM     27  C   UNL     1       0.062   2.275   0.065  0.00  0.00    +0.000 A 
ATOM     28  C   UNL     1       0.965   3.244   0.493  0.00  0.00    +0.000 A 
ATOM     29  C   UNL     1       0.896   4.526  -0.049  0.00  0.00    +0.000 A 
ATOM     30  C   UNL     1      -0.069   4.800  -1.015  0.00  0.00    +0.000 A 
ATOM     31  C   UNL     1      -0.920   3.779  -1.397  0.00  0.00    +0.000 A 
ATOM     32  N   UNL     1      -0.881   2.527  -0.879  0.00  0.00    +0.000 NA
ENDBRANCH  26  27
ENDBRANCH  24  26
ENDBRANCH   1  23
TORSDOF 6
