REMARK  Name = 
REMARK  3 active torsions:
REMARK  status: ('A' for Active; 'I' for Inactive)
REMARK    1  A    between atoms: C_2  and  C_18
REMARK    2  A    between atoms: N_3  and  C_4
REMARK    3  A    between atoms: C_6  and  C_7
REMARK                            x       y       z     vdW  Elec       q    Type
REMARK                         _______ _______ _______ _____ _____    ______ ____
ROOT
ATOM      1  O   UNL     1       1.171  -0.155   0.597  0.00  0.00    +0.000 OA
ATOM      2  C   UNL     1       2.290   0.009   0.128  0.00  0.00    +0.000 C 
ATOM      3  N   UNL     1       2.853   1.202  -0.288  0.00  0.00    +0.000 N 
ATOM      4  H   UNL     1       3.703   1.164  -0.836  0.00  0.00    +0.000 HD
ENDROOT
BRANCH   2   5
ATOM      5  C   UNL     1       3.111  -1.200  -0.065  0.00  0.00    +0.000 A 
ATOM      6  C   UNL     1       2.463  -2.389  -0.392  0.00  0.00    +0.000 A 
ATOM      7  N   UNL     1       3.094  -3.579  -0.546  0.00  0.00    +0.000 NA
ATOM      8  C   UNL     1       4.425  -3.596  -0.332  0.00  0.00    +0.000 A 
ATOM      9  N   UNL     1       5.020  -4.854  -0.469  0.00  0.00    +0.000 NA
ATOM     10  C   UNL     1       6.280  -4.937  -0.237  0.00  0.00    +0.000 A 
ATOM     11  N   UNL     1       7.067  -3.880   0.120  0.00  0.00    +0.000 N 
ATOM     12  C   UNL     1       6.575  -2.606   0.255  0.00  0.00    +0.000 A 
ATOM     13  O   UNL     1       7.281  -1.652   0.552  0.00  0.00    +0.000 OA
ATOM     14  C   UNL     1       5.139  -2.454   0.014  0.00  0.00    +0.000 A 
ATOM     15  C   UNL     1       4.486  -1.228   0.147  0.00  0.00    +0.000 A 
ATOM     16  H   UNL     1       8.056  -4.004   0.289  0.00  0.00    +0.000 HD
ENDBRANCH   2   5
BRANCH   3  17
ATOM     17  C   UNL     1       2.254   2.476  -0.157  0.00  0.00    +0.000 A 
ATOM     18  C   UNL     1       1.169   2.718   0.692  0.00  0.00    +0.000 A 
ATOM     19  C   UNL     1       0.592   3.994   0.842  0.00  0.00    +0.000 A 
ATOM     20  C   UNL     1       1.121   5.026   0.051  0.00  0.00    +0.000 A 
ATOM     21  C   UNL     1       2.203   4.802  -0.806  0.00  0.00    +0.000 A 
ATOM     22  C   UNL     1       2.785   3.537  -0.890  0.00  0.00    +0.000 A 
BRANCH  19  23
ATOM     23  C   UNL     1      -0.488   4.225   1.834  0.00  0.00    +0.000 A 
ATOM     24  C   UNL     1      -0.509   3.508   3.052  0.00  0.00    +0.000 A 
ATOM     25  C   UNL     1      -1.493   3.731   4.019  0.00  0.00    +0.000 A 
ATOM     26  C   UNL     1      -2.472   4.684   3.787  0.00  0.00    +0.000 A 
ATOM     27  F   UNL     1      -3.402   4.915   4.722  0.00  0.00    +0.000 F 
ATOM     28  C   UNL     1      -2.496   5.404   2.604  0.00  0.00    +0.000 A 
ATOM     29  C   UNL     1      -1.517   5.165   1.640  0.00  0.00    +0.000 A 
ATOM     30  F   UNL     1      -1.592   5.870   0.500  0.00  0.00    +0.000 F 
ENDBRANCH  19  23
ENDBRANCH   3  17
TORSDOF 3
