REMARK  Name = 
REMARK  3 active torsions:
REMARK  status: ('A' for Active; 'I' for Inactive)
REMARK    1  A    between atoms: C_2  and  C_17
REMARK    2  A    between atoms: N_3  and  C_4
REMARK    3  A    between atoms: C_6  and  C_7
REMARK                            x       y       z     vdW  Elec       q    Type
REMARK                         _______ _______ _______ _____ _____    ______ ____
ROOT
ATOM      1  O   UNL     1       5.280   1.730   0.762  0.00  0.00    +0.000 OA
ATOM      2  C   UNL     1       4.473   0.825   0.557  0.00  0.00    +0.000 C 
ATOM      3  N   UNL     1       3.132   0.873   0.887  0.00  0.00    +0.000 N 
ATOM      4  H   UNL     1       2.607  -0.001   0.846  0.00  0.00    +0.000 HD
ENDROOT
BRANCH   2   5
ATOM      5  C   UNL     1       4.968  -0.436  -0.067  0.00  0.00    +0.000 A 
ATOM      6  N   UNL     1       4.057  -1.384  -0.415  0.00  0.00    +0.000 NA
ATOM      7  C   UNL     1       4.520  -2.461  -1.084  0.00  0.00    +0.000 A 
ATOM      8  C   UNL     1       3.666  -3.513  -1.382  0.00  0.00    +0.000 A 
ATOM      9  C   UNL     1       4.123  -4.635  -2.074  0.00  0.00    +0.000 A 
ATOM     10  F   UNL     1       3.301  -5.677  -2.250  0.00  0.00    +0.000 F 
ATOM     11  C   UNL     1       5.416  -4.705  -2.562  0.00  0.00    +0.000 A 
ATOM     12  C   UNL     1       6.285  -3.675  -2.255  0.00  0.00    +0.000 A 
ATOM     13  F   UNL     1       7.548  -3.741  -2.704  0.00  0.00    +0.000 F 
ATOM     14  C   UNL     1       5.874  -2.586  -1.475  0.00  0.00    +0.000 A 
ATOM     15  C   UNL     1       6.787  -1.624  -1.038  0.00  0.00    +0.000 A 
ATOM     16  C   UNL     1       6.332  -0.543  -0.304  0.00  0.00    +0.000 A 
ENDBRANCH   2   5
BRANCH   3  17
ATOM     17  C   UNL     1       2.494   1.956   1.461  0.00  0.00    +0.000 A 
ATOM     18  C   UNL     1       2.937   3.227   1.417  0.00  0.00    +0.000 A 
ATOM     19  C   UNL     1       2.261   4.319   2.091  0.00  0.00    +0.000 A 
ATOM     20  C   UNL     1       1.147   4.053   2.795  0.00  0.00    +0.000 A 
ATOM     21  N   UNL     1       0.645   2.779   2.848  0.00  0.00    +0.000 N 
ATOM     22  C   UNL     1       1.207   1.699   2.196  0.00  0.00    +0.000 A 
ATOM     23  O   UNL     1       0.703   0.578   2.229  0.00  0.00    +0.000 OA
ATOM     24  H   UNL     1      -0.202   2.581   3.368  0.00  0.00    +0.000 HD
BRANCH  19  25
ATOM     25  C   UNL     1       2.763   5.699   2.026  0.00  0.00    +0.000 A 
ATOM     26  C   UNL     1       3.685   6.170   2.961  0.00  0.00    +0.000 A 
ATOM     27  C   UNL     1       4.152   7.467   2.821  0.00  0.00    +0.000 A 
ATOM     28  N   UNL     1       3.770   8.301   1.830  0.00  0.00    +0.000 NA
ATOM     29  C   UNL     1       2.889   7.815   0.930  0.00  0.00    +0.000 A 
ATOM     30  C   UNL     1       2.363   6.536   0.983  0.00  0.00    +0.000 A 
ENDBRANCH  19  25
ENDBRANCH   3  17
TORSDOF 3
