REMARK  Name = 
REMARK  6 active torsions:
REMARK  status: ('A' for Active; 'I' for Inactive)
REMARK    1  A    between atoms: C_2  and  O_3
REMARK    2  A    between atoms: C_2  and  C_18
REMARK    3  A    between atoms: O_3  and  C_4
REMARK    4  A    between atoms: C_4  and  C_5
REMARK    5  A    between atoms: C_7  and  C_8
REMARK    6  A    between atoms: C_8  and  C_9
REMARK                            x       y       z     vdW  Elec       q    Type
REMARK                         _______ _______ _______ _____ _____    ______ ____
ROOT
ATOM      1  O   UNL     1       3.269   1.080   0.473  0.00  0.00    +0.000 OA
ENDROOT
BRANCH   1   3
ATOM      2  O   UNL     1       2.755   3.215  -0.217  0.00  0.00    +0.000 OA
ATOM      3  C   UNL     1       2.495   2.027  -0.114  0.00  0.00    +0.000 C 
BRANCH   3   4
ATOM      4  C   UNL     1       1.335   1.380  -0.782  0.00  0.00    +0.000 A 
ATOM      5  C   UNL     1       0.438   2.179  -1.474  0.00  0.00    +0.000 A 
ATOM      6  C   UNL     1      -0.405   1.559  -2.388  0.00  0.00    +0.000 A 
ATOM      7  C   UNL     1      -0.356   0.165  -2.541  0.00  0.00    +0.000 A 
ATOM      8  C   UNL     1      -1.136  -0.504  -3.494  0.00  0.00    +0.000 A 
ATOM      9  C   UNL     1      -1.076  -1.890  -3.575  0.00  0.00    +0.000 A 
ATOM     10  F   UNL     1      -1.826  -2.527  -4.482  0.00  0.00    +0.000 F 
ATOM     11  C   UNL     1      -0.250  -2.608  -2.722  0.00  0.00    +0.000 A 
ATOM     12  F   UNL     1      -0.202  -3.945  -2.797  0.00  0.00    +0.000 F 
ATOM     13  C   UNL     1       0.550  -1.950  -1.802  0.00  0.00    +0.000 A 
ATOM     14  C   UNL     1       0.523  -0.571  -1.710  0.00  0.00    +0.000 A 
ATOM     15  N   UNL     1       1.351   0.023  -0.853  0.00  0.00    +0.000 NA
ENDBRANCH   3   4
ENDBRANCH   1   3
BRANCH   1  16
ATOM     16  C   UNL     1       4.563   1.529   0.892  0.00  0.00    +0.000 C 
BRANCH  16  17
ATOM     17  C   UNL     1       4.438   2.303   2.145  0.00  0.00    +0.000 A 
ATOM     18  N   UNL     1       3.362   2.663   2.807  0.00  0.00    +0.000 NA
ATOM     19  C   UNL     1       3.890   3.233   3.933  0.00  0.00    +0.000 A 
ATOM     20  N   UNL     1       5.230   3.241   3.990  0.00  0.00    +0.000 NA
ATOM     21  O   UNL     1       5.601   2.632   2.781  0.00  0.00    +0.000 OA
BRANCH  19  22
ATOM     22  C   UNL     1       3.022   3.593   5.074  0.00  0.00    +0.000 C 
BRANCH  22  23
ATOM     23  C   UNL     1       2.851   5.087   5.072  0.00  0.00    +0.000 A 
ATOM     24  C   UNL     1       1.808   5.695   4.354  0.00  0.00    +0.000 A 
ATOM     25  C   UNL     1       1.624   7.072   4.429  0.00  0.00    +0.000 A 
ATOM     26  F   UNL     1       0.611   7.641   3.762  0.00  0.00    +0.000 F 
ATOM     27  C   UNL     1       2.465   7.867   5.199  0.00  0.00    +0.000 A 
ATOM     28  C   UNL     1       3.519   7.277   5.895  0.00  0.00    +0.000 A 
ATOM     29  C   UNL     1       3.712   5.893   5.833  0.00  0.00    +0.000 A 
ENDBRANCH  22  23
ENDBRANCH  19  22
ENDBRANCH  16  17
ENDBRANCH   1  16
TORSDOF 6
