REMARK  Name = 
REMARK  6 active torsions:
REMARK  status: ('A' for Active; 'I' for Inactive)
REMARK    1  A    between atoms: C_2  and  C_3
REMARK    2  A    between atoms: C_3  and  N_4
REMARK    3  A    between atoms: N_4  and  C_18
REMARK    4  A    between atoms: C_5  and  C_7
REMARK    5  A    between atoms: C_10  and  C_11
REMARK    6  A    between atoms: N_24  and  C_25
REMARK                            x       y       z     vdW  Elec       q    Type
REMARK                         _______ _______ _______ _____ _____    ______ ____
ROOT
ATOM      1  N   UNL     1       1.894   1.518  -1.965  0.00  0.00    +0.000 N 
ATOM      2  C   UNL     1       0.546   1.668  -1.553  0.00  0.00    +0.000 C 
ATOM      3  O   UNL     1       0.148   1.234  -0.476  0.00  0.00    +0.000 OA
ENDROOT
BRANCH   2   4
ATOM      4  C   UNL     1      -0.362   2.342  -2.476  0.00  0.00    +0.000 A 
ATOM      5  N   UNL     1      -0.224   2.416  -3.785  0.00  0.00    +0.000 NA
ATOM      6  N   UNL     1      -1.278   3.130  -4.295  0.00  0.00    +0.000 NA
ATOM      7  C   UNL     1      -2.085   3.462  -3.307  0.00  0.00    +0.000 A 
ATOM      8  N   UNL     1      -1.520   2.996  -2.137  0.00  0.00    +0.000 N 
ATOM      9  H   UNL     1      -1.884   3.108  -1.205  0.00  0.00    +0.000 HD
BRANCH   7  10
ATOM     10  C   UNL     1      -3.376   4.142  -3.418  0.00  0.00    +0.000 A 
ATOM     11  C   UNL     1      -3.866   4.501  -4.688  0.00  0.00    +0.000 A 
ATOM     12  C   UNL     1      -5.128   5.084  -4.835  0.00  0.00    +0.000 A 
ATOM     13  C   UNL     1      -5.916   5.330  -3.714  0.00  0.00    +0.000 A 
ATOM     14  C   UNL     1      -5.433   5.006  -2.448  0.00  0.00    +0.000 A 
ATOM     15  C   UNL     1      -4.174   4.422  -2.301  0.00  0.00    +0.000 A 
ENDBRANCH   7  10
ENDBRANCH   2   4
BRANCH   1  16
ATOM     16  C   UNL     1       2.472   2.449  -2.880  0.00  0.00    +0.000 A 
ATOM     17  C   UNL     1       2.408   3.833  -2.647  0.00  0.00    +0.000 A 
ATOM     18  C   UNL     1       2.932   4.726  -3.584  0.00  0.00    +0.000 A 
ATOM     19  C   UNL     1       3.525   4.242  -4.749  0.00  0.00    +0.000 A 
ATOM     20  C   UNL     1       3.602   2.867  -4.974  0.00  0.00    +0.000 A 
ATOM     21  C   UNL     1       3.087   1.968  -4.037  0.00  0.00    +0.000 A 
ENDBRANCH   1  16
BRANCH   1  22
ATOM     22  C   UNL     1       2.868   0.898  -1.044  0.00  0.00    +0.000 C 
BRANCH  22  24
ATOM     23  O   UNL     1       4.257  -1.034  -0.748  0.00  0.00    +0.000 OA
ATOM     24  C   UNL     1       3.205  -0.590  -1.211  0.00  0.00    +0.000 C 
ATOM     25  N   UNL     1       2.242  -1.364  -1.836  0.00  0.00    +0.000 N 
ATOM     26  H   UNL     1       1.717  -0.867  -2.545  0.00  0.00    +0.000 HD
BRANCH  25  27
ATOM     27  C   UNL     1       2.458  -2.744  -2.062  0.00  0.00    +0.000 A 
ATOM     28  C   UNL     1       2.852  -3.628  -1.054  0.00  0.00    +0.000 A 
ATOM     29  C   UNL     1       3.171  -4.954  -1.370  0.00  0.00    +0.000 A 
ATOM     30  C   UNL     1       3.100  -5.393  -2.691  0.00  0.00    +0.000 A 
ATOM     31  C   UNL     1       2.663  -4.522  -3.688  0.00  0.00    +0.000 A 
ATOM     32  C   UNL     1       2.313  -3.206  -3.369  0.00  0.00    +0.000 A 
ENDBRANCH  25  27
ENDBRANCH  22  24
ENDBRANCH   1  22
TORSDOF 6
