REMARK  Name = 
REMARK  6 active torsions:
REMARK  status: ('A' for Active; 'I' for Inactive)
REMARK    1  A    between atoms: C_1  and  O_2
REMARK    2  A    between atoms: O_2  and  C_3
REMARK    3  A    between atoms: C_3  and  C_5
REMARK    4  A    between atoms: C_10  and  N_11
REMARK    5  A    between atoms: C_12  and  C_14
REMARK    6  A    between atoms: N_16  and  C_17
REMARK                            x       y       z     vdW  Elec       q    Type
REMARK                         _______ _______ _______ _____ _____    ______ ____
ROOT
ATOM      1  N   UNL     1       9.165   0.677  -3.189  0.00  0.00    +0.000 N 
ATOM      2  C   UNL     1       9.013   2.031  -2.963  0.00  0.00    +0.000 C 
ATOM      3  O   UNL     1       8.444   2.553  -2.014  0.00  0.00    +0.000 OA
ATOM      4  H   UNL     1       9.562   0.392  -4.076  0.00  0.00    +0.000 HD
ENDROOT
BRANCH   1  10
ATOM      5  C   UNL     1       8.829  -2.861  -2.127  0.00  0.00    +0.000 A 
ATOM      6  C   UNL     1       8.235  -2.755  -0.867  0.00  0.00    +0.000 A 
ATOM      7  C   UNL     1       7.925  -1.499  -0.352  0.00  0.00    +0.000 A 
ATOM      8  C   UNL     1       8.213  -0.343  -1.087  0.00  0.00    +0.000 A 
ATOM      9  F   UNL     1       7.897   0.817  -0.501  0.00  0.00    +0.000 F 
ATOM     10  C   UNL     1       8.807  -0.417  -2.349  0.00  0.00    +0.000 A 
ATOM     11  C   UNL     1       9.113  -1.697  -2.851  0.00  0.00    +0.000 A 
ATOM     12  F   UNL     1       9.730  -1.767  -4.043  0.00  0.00    +0.000 F 
BRANCH   5  13
ATOM     13  C   UNL     1       9.166  -4.215  -2.618  0.00  0.00    +0.000 C 
ATOM     14  O   UNL     1       9.380  -5.153  -1.869  0.00  0.00    +0.000 OA
BRANCH  13  16
ATOM     15  C   UNL     1       9.394  -5.558  -4.512  0.00  0.00    +0.000 C 
ATOM     16  O   UNL     1       9.120  -4.265  -3.971  0.00  0.00    +0.000 OA
ENDBRANCH  13  16
ENDBRANCH   5  13
ENDBRANCH   1  10
BRANCH   2  17
ATOM     17  C   UNL     1       9.601   2.906  -4.043  0.00  0.00    +0.000 A 
ATOM     18  C   UNL     1       9.102   4.151  -4.171  0.00  0.00    +0.000 A 
ATOM     19  N   UNL     1       9.608   5.073  -5.091  0.00  0.00    +0.000 N 
ATOM     20  C   UNL     1      10.674   4.730  -5.945  0.00  0.00    +0.000 A 
ATOM     21  O   UNL     1      11.162   5.430  -6.830  0.00  0.00    +0.000 OA
ATOM     22  C   UNL     1      11.225   3.358  -5.780  0.00  0.00    +0.000 A 
ATOM     23  C   UNL     1      10.717   2.513  -4.876  0.00  0.00    +0.000 A 
BRANCH  19  24
ATOM     24  C   UNL     1       9.015   6.370  -5.245  0.00  0.00    +0.000 A 
ATOM     25  C   UNL     1       7.620   6.509  -5.317  0.00  0.00    +0.000 A 
ATOM     26  C   UNL     1       7.048   7.754  -5.597  0.00  0.00    +0.000 A 
ATOM     27  C   UNL     1       7.865   8.867  -5.757  0.00  0.00    +0.000 A 
ATOM     28  F   UNL     1       7.315  10.054  -6.046  0.00  0.00    +0.000 F 
ATOM     29  C   UNL     1       9.243   8.763  -5.634  0.00  0.00    +0.000 A 
ATOM     30  C   UNL     1       9.817   7.514  -5.388  0.00  0.00    +0.000 A 
ENDBRANCH  19  24
ENDBRANCH   2  17
TORSDOF 5
