REMARK  Name = 
REMARK  5 active torsions:
REMARK  status: ('A' for Active; 'I' for Inactive)
REMARK    1  A    between atoms: C_2  and  C_19
REMARK    2  A    between atoms: N_3  and  C_4
REMARK    3  A    between atoms: C_10  and  O_11
REMARK    4  A    between atoms: O_11  and  C_12
REMARK    5  A    between atoms: C_12  and  C_13
REMARK                            x       y       z     vdW  Elec       q    Type
REMARK                         _______ _______ _______ _____ _____    ______ ____
ROOT
ATOM      1  O   UNL     1       4.115   1.337  -0.008  0.00  0.00    +0.000 OA
ATOM      2  C   UNL     1       3.822   0.887  -1.117  0.00  0.00    +0.000 C 
ATOM      3  N   UNL     1       2.920  -0.174  -1.169  0.00  0.00    +0.000 N 
ATOM      4  H   UNL     1       2.433  -0.193  -0.277  0.00  0.00    +0.000 HD
ENDROOT
BRANCH   2   5
ATOM      5  C   UNL     1       4.402   1.476  -2.374  0.00  0.00    +0.000 A 
ATOM      6  C   UNL     1       3.577   1.827  -3.379  0.00  0.00    +0.000 A 
ATOM      7  N   UNL     1       4.014   2.238  -4.606  0.00  0.00    +0.000 N 
ATOM      8  C   UNL     1       5.330   2.432  -4.918  0.00  0.00    +0.000 A 
ATOM      9  O   UNL     1       5.694   2.713  -6.056  0.00  0.00    +0.000 OA
ATOM     10  C   UNL     1       6.269   2.334  -3.790  0.00  0.00    +0.000 A 
ATOM     11  C   UNL     1       7.578   2.784  -3.943  0.00  0.00    +0.000 A 
ATOM     12  C   UNL     1       8.415   2.786  -2.839  0.00  0.00    +0.000 A 
ATOM     13  C   UNL     1       7.905   2.324  -1.635  0.00  0.00    +0.000 A 
ATOM     14  N   UNL     1       6.643   1.853  -1.469  0.00  0.00    +0.000 NA
ATOM     15  C   UNL     1       5.819   1.871  -2.544  0.00  0.00    +0.000 A 
ATOM     16  H   UNL     1       3.353   2.347  -5.366  0.00  0.00    +0.000 HD
ENDBRANCH   2   5
BRANCH   3  17
ATOM     17  C   UNL     1       2.120  -0.501  -2.293  0.00  0.00    +0.000 A 
ATOM     18  C   UNL     1       0.914   0.191  -2.496  0.00  0.00    +0.000 A 
ATOM     19  F   UNL     1       0.498   1.086  -1.587  0.00  0.00    +0.000 F 
ATOM     20  C   UNL     1       0.237   0.119  -3.712  0.00  0.00    +0.000 A 
ATOM     21  C   UNL     1       0.734  -0.690  -4.727  0.00  0.00    +0.000 A 
ATOM     22  C   UNL     1       1.879  -1.455  -4.503  0.00  0.00    +0.000 A 
ATOM     23  C   UNL     1       2.560  -1.402  -3.273  0.00  0.00    +0.000 A 
BRANCH  23  24
ATOM     24  O   UNL     1       3.639  -2.207  -2.978  0.00  0.00    +0.000 OA
BRANCH  24  25
ATOM     25  C   UNL     1       3.656  -3.429  -3.728  0.00  0.00    +0.000 C 
BRANCH  25  26
ATOM     26  C   UNL     1       4.430  -4.540  -3.066  0.00  0.00    +0.000 A 
ATOM     27  C   UNL     1       3.962  -5.859  -3.199  0.00  0.00    +0.000 A 
ATOM     28  C   UNL     1       4.690  -6.930  -2.688  0.00  0.00    +0.000 A 
ATOM     29  C   UNL     1       5.900  -6.695  -2.043  0.00  0.00    +0.000 A 
ATOM     30  C   UNL     1       6.378  -5.391  -1.906  0.00  0.00    +0.000 A 
ATOM     31  C   UNL     1       5.648  -4.315  -2.417  0.00  0.00    +0.000 A 
ENDBRANCH  25  26
ENDBRANCH  24  25
ENDBRANCH  23  24
ENDBRANCH   3  17
TORSDOF 5
