REMARK  Name = 
REMARK  8 active torsions:
REMARK  status: ('A' for Active; 'I' for Inactive)
REMARK    1  A    between atoms: C_1  and  C_2
REMARK    2  A    between atoms: C_5  and  CA_6
REMARK    3  A    between atoms: CA_6  and  C_7
REMARK    4  A    between atoms: CA_6  and  N_9
REMARK    5  A    between atoms: C_7  and  O_8
REMARK    6  A    between atoms: C_10  and  C_12
REMARK    7  A    between atoms: C_19  and  C_20
REMARK    8  A    between atoms: C_20  and  C_22
REMARK                            x       y       z     vdW  Elec       q    Type
REMARK                         _______ _______ _______ _____ _____    ______ ____
ROOT
ATOM      1  C   UNL     1      -6.172   1.152   1.050  0.00  0.00    +0.000 A 
ATOM      2  C   UNL     1      -5.730   0.349   2.126  0.00  0.00    +0.000 A 
ATOM      3  C   UNL     1      -6.632  -0.376   2.901  0.00  0.00    +0.000 A 
ATOM      4  F   UNL     1      -6.170  -1.157   3.885  0.00  0.00    +0.000 F 
ATOM      5  C   UNL     1      -7.988  -0.287   2.658  0.00  0.00    +0.000 A 
ATOM      6  F   UNL     1      -8.857  -1.000   3.385  0.00  0.00    +0.000 F 
ATOM      7  C   UNL     1      -8.463   0.562   1.671  0.00  0.00    +0.000 A 
ATOM      8  C   UNL     1      -7.567   1.287   0.847  0.00  0.00    +0.000 A 
ENDROOT
BRANCH   1  10
ATOM      9  N   UNL     1      -3.847   1.230   0.206  0.00  0.00    +0.000 N 
ATOM     10  C   UNL     1      -5.117   1.784   0.165  0.00  0.00    +0.000 C 
ATOM     11  O   UNL     1      -5.367   2.707  -0.596  0.00  0.00    +0.000 OA
ATOM     12  H   UNL     1      -3.631   0.394   0.727  0.00  0.00    +0.000 HD
BRANCH   9  13
ATOM     13  CA  UNL     1      -2.709   1.805  -0.519  0.00  0.00    +0.000 C 
BRANCH  13  18
ATOM     14  C   UNL     1       0.433   5.308   2.960  0.00  0.00    +0.000 C 
ATOM     15  C   UNL     1      -0.307   4.377   2.046  0.00  0.00    +0.000 A 
ATOM     16  C   UNL     1      -0.429   4.641   0.677  0.00  0.00    +0.000 A 
ATOM     17  C   UNL     1      -1.190   3.802  -0.144  0.00  0.00    +0.000 A 
ATOM     18  C   UNL     1      -1.851   2.682   0.387  0.00  0.00    +0.000 A 
ATOM     19  C   UNL     1      -1.683   2.400   1.751  0.00  0.00    +0.000 A 
ATOM     20  C   UNL     1      -0.927   3.240   2.572  0.00  0.00    +0.000 A 
ENDBRANCH  13  18
BRANCH  13  21
ATOM     21  C   UNL     1      -1.868   0.680  -1.164  0.00  0.00    +0.000 C 
BRANCH  21  22
ATOM     22  O   UNL     1      -1.328  -0.214  -0.184  0.00  0.00    +0.000 OA
ATOM     23  H   UNL     1      -0.545   0.233   0.190  0.00  0.00    +0.000 HD
ENDBRANCH  21  22
ENDBRANCH  13  21
ENDBRANCH   9  13
ENDBRANCH   1  10
BRANCH   8  24
ATOM     24  C   UNL     1      -8.220   2.266  -0.082  0.00  0.00    +0.000 C 
ATOM     25  O   UNL     1      -7.819   3.425  -0.092  0.00  0.00    +0.000 OA
BRANCH  24  26
ATOM     26  C   UNL     1      -9.505   1.955  -0.791  0.00  0.00    +0.000 A 
ATOM     27  C   UNL     1      -9.894   0.655  -1.145  0.00  0.00    +0.000 A 
ATOM     28  C   UNL     1     -11.168   0.427  -1.684  0.00  0.00    +0.000 A 
ATOM     29  C   UNL     1     -12.042   1.494  -1.899  0.00  0.00    +0.000 A 
ATOM     30  C   UNL     1     -11.648   2.791  -1.586  0.00  0.00    +0.000 A 
ATOM     31  C   UNL     1     -10.383   3.021  -1.037  0.00  0.00    +0.000 A 
ENDBRANCH  24  26
ENDBRANCH   8  24
TORSDOF 7
