REMARK  Name = 
REMARK  7 active torsions:
REMARK  status: ('A' for Active; 'I' for Inactive)
REMARK    1  A    between atoms: C_2  and  O_3
REMARK    2  A    between atoms: C_2  and  C_21
REMARK    3  A    between atoms: O_3  and  C_4
REMARK    4  A    between atoms: C_4  and  C_5
REMARK    5  A    between atoms: C_7  and  O_8
REMARK    6  A    between atoms: O_8  and  C_9
REMARK    7  A    between atoms: C_9  and  C_10
REMARK                            x       y       z     vdW  Elec       q    Type
REMARK                         _______ _______ _______ _____ _____    ______ ____
ROOT
ATOM      1  C   UNL     1       4.817   1.878   1.754  0.00  0.00    +0.000 A 
ATOM      2  C   UNL     1       4.692   3.227   1.401  0.00  0.00    +0.000 A 
ATOM      3  C   UNL     1       4.894   4.220   2.357  0.00  0.00    +0.000 A 
ATOM      4  C   UNL     1       5.229   3.863   3.660  0.00  0.00    +0.000 A 
ATOM      5  C   UNL     1       5.386   2.532   4.013  0.00  0.00    +0.000 A 
ATOM      6  C   UNL     1       5.178   1.530   3.064  0.00  0.00    +0.000 A 
ENDROOT
BRANCH   1   7
ATOM      7  C   UNL     1       4.462   0.831   0.726  0.00  0.00    +0.000 C 
BRANCH   7   8
ATOM      8  O   UNL     1       3.054   1.006   0.413  0.00  0.00    +0.000 OA
BRANCH   8  10
ATOM      9  O   UNL     1       3.487   1.414  -1.795  0.00  0.00    +0.000 OA
ATOM     10  C   UNL     1       2.714   1.338  -0.873  0.00  0.00    +0.000 C 
BRANCH  10  11
ATOM     11  C   UNL     1       1.245   1.583  -1.052  0.00  0.00    +0.000 A 
ATOM     12  C   UNL     1       0.752   1.518  -2.312  0.00  0.00    +0.000 A 
ATOM     13  C   UNL     1      -0.669   1.697  -2.597  0.00  0.00    +0.000 A 
ATOM     14  C   UNL     1      -1.511   1.891  -1.568  0.00  0.00    +0.000 A 
ATOM     15  N   UNL     1      -1.010   1.976  -0.270  0.00  0.00    +0.000 N 
ATOM     16  N   UNL     1      -1.688   2.163   0.890  0.00  0.00    +0.000 NA
ATOM     17  N   UNL     1      -0.809   2.305   1.875  0.00  0.00    +0.000 NA
ATOM     18  C   UNL     1       0.442   2.178   1.354  0.00  0.00    +0.000 A 
ATOM     19  C   UNL     1       0.354   1.888   0.014  0.00  0.00    +0.000 A 
ENDBRANCH  10  11
ENDBRANCH   8  10
ENDBRANCH   7   8
ENDBRANCH   1   7
BRANCH   3  20
ATOM     20  O   UNL     1       4.731   5.543   2.031  0.00  0.00    +0.000 OA
BRANCH  20  21
ATOM     21  C   UNL     1       5.551   6.419   2.830  0.00  0.00    +0.000 C 
BRANCH  21  22
ATOM     22  C   UNL     1       5.836   7.638   2.017  0.00  0.00    +0.000 A 
ATOM     23  C   UNL     1       6.506   7.525   0.792  0.00  0.00    +0.000 A 
ATOM     24  C   UNL     1       6.719   8.660   0.019  0.00  0.00    +0.000 A 
ATOM     25  C   UNL     1       6.265   9.895   0.475  0.00  0.00    +0.000 A 
ATOM     26  F   UNL     1       6.463  10.982  -0.280  0.00  0.00    +0.000 F 
ATOM     27  C   UNL     1       5.613  10.023   1.693  0.00  0.00    +0.000 A 
ATOM     28  C   UNL     1       5.410   8.890   2.462  0.00  0.00    +0.000 A 
ATOM     29  F   UNL     1       4.790   9.008   3.644  0.00  0.00    +0.000 F 
ENDBRANCH  21  22
ENDBRANCH  20  21
ENDBRANCH   3  20
TORSDOF 7
