REMARK  Name = 
REMARK  7 active torsions:
REMARK  status: ('A' for Active; 'I' for Inactive)
REMARK    1  A    between atoms: C_2  and  C_14
REMARK    2  A    between atoms: N_3  and  C_4
REMARK    3  A    between atoms: C_4  and  C_5
REMARK    4  A    between atoms: C_5  and  C_6
REMARK    5  A    between atoms: C_8  and  C_9
REMARK    6  A    between atoms: C_15  and  C_16
REMARK    7  A    between atoms: C_22  and  C_23
REMARK                            x       y       z     vdW  Elec       q    Type
REMARK                         _______ _______ _______ _____ _____    ______ ____
ROOT
ATOM      1  C   UNL     1       3.103  -1.247   0.175  0.00  0.00    +0.000 A 
ATOM      2  C   UNL     1       4.105  -1.317   1.083  0.00  0.00    +0.000 A 
ATOM      3  C   UNL     1       4.803  -2.666   1.238  0.00  0.00    +0.000 A 
ATOM      4  N   UNL     1       4.497  -3.707   0.522  0.00  0.00    +0.000 NA
ATOM      5  N   UNL     1       3.508  -3.584  -0.386  0.00  0.00    +0.000 N 
ATOM      6  C   UNL     1       2.786  -2.450  -0.637  0.00  0.00    +0.000 A 
ATOM      7  O   UNL     1       1.929  -2.442  -1.526  0.00  0.00    +0.000 OA
ATOM      8  H   UNL     1       3.287  -4.409  -0.937  0.00  0.00    +0.000 HD
ENDROOT
BRANCH   3   9
ATOM      9  C   UNL     1       5.923  -2.858   2.237  0.00  0.00    +0.000 A 
ATOM     10  C   UNL     1       5.941  -2.258   3.499  0.00  0.00    +0.000 A 
ATOM     11  C   UNL     1       7.025  -2.390   4.367  0.00  0.00    +0.000 A 
ATOM     12  C   UNL     1       8.069  -3.239   4.035  0.00  0.00    +0.000 A 
ATOM     13  C   UNL     1       8.025  -3.943   2.833  0.00  0.00    +0.000 A 
ATOM     14  C   UNL     1       6.968  -3.742   1.932  0.00  0.00    +0.000 A 
ENDBRANCH   3   9
BRANCH   2  15
ATOM     15  C   UNL     1       4.538  -0.141   1.871  0.00  0.00    +0.000 A 
ATOM     16  C   UNL     1       3.890   0.160   3.081  0.00  0.00    +0.000 A 
ATOM     17  C   UNL     1       4.424   1.110   3.951  0.00  0.00    +0.000 A 
ATOM     18  C   UNL     1       5.565   1.820   3.585  0.00  0.00    +0.000 A 
ATOM     19  C   UNL     1       6.155   1.601   2.339  0.00  0.00    +0.000 A 
ATOM     20  C   UNL     1       5.647   0.621   1.481  0.00  0.00    +0.000 A 
ENDBRANCH   2  15
BRANCH   1  22
ATOM     21  O   UNL     1       2.221   0.904   0.807  0.00  0.00    +0.000 OA
ATOM     22  C   UNL     1       2.310   0.020  -0.037  0.00  0.00    +0.000 C 
ATOM     23  N   UNL     1       1.677   0.147  -1.242  0.00  0.00    +0.000 N 
ATOM     24  H   UNL     1       1.675  -0.641  -1.894  0.00  0.00    +0.000 HD
BRANCH  23  25
ATOM     25  C   UNL     1       0.885   1.323  -1.575  0.00  0.00    +0.000 C 
BRANCH  25  26
ATOM     26  C   UNL     1       1.746   2.412  -2.205  0.00  0.00    +0.000 C 
BRANCH  26  27
ATOM     27  C   UNL     1       0.944   3.610  -2.534  0.00  0.00    +0.000 A 
ATOM     28  N   UNL     1       0.293   3.902  -3.636  0.00  0.00    +0.000 NA
ATOM     29  C   UNL     1      -0.221   5.152  -3.352  0.00  0.00    +0.000 A 
ATOM     30  N   UNL     1       0.092   5.611  -2.127  0.00  0.00    +0.000 NA
ATOM     31  O   UNL     1       0.867   4.585  -1.584  0.00  0.00    +0.000 OA
BRANCH  29  32
ATOM     32  C   UNL     1      -1.049   5.939  -4.310  0.00  0.00    +0.000 C 
ATOM     33  F   UNL     1      -0.379   6.190  -5.471  0.00  0.00    +0.000 F 
ATOM     34  F   UNL     1      -2.182   5.270  -4.666  0.00  0.00    +0.000 F 
ENDBRANCH  29  32
ENDBRANCH  26  27
ENDBRANCH  25  26
ENDBRANCH  23  25
ENDBRANCH   1  22
TORSDOF 7
