REMARK  Name = 
REMARK  3 active torsions:
REMARK  status: ('A' for Active; 'I' for Inactive)
REMARK    1  A    between atoms: C_2  and  C_15
REMARK    2  A    between atoms: N_6  and  C_7
REMARK    3  A    between atoms: N_21  and  C_22
REMARK                            x       y       z     vdW  Elec       q    Type
REMARK                         _______ _______ _______ _____ _____    ______ ____
ROOT
ATOM      1  C   UNL     1       3.016   0.916   0.909  0.00  0.00    +0.000 A 
ATOM      2  C   UNL     1       2.672   1.081   2.263  0.00  0.00    +0.000 A 
ATOM      3  C   UNL     1       3.454   1.891   3.086  0.00  0.00    +0.000 A 
ATOM      4  C   UNL     1       4.568   2.483   2.534  0.00  0.00    +0.000 A 
ATOM      5  N   UNL     1       4.948   2.309   1.251  0.00  0.00    +0.000 NA
ATOM      6  C   UNL     1       4.190   1.523   0.436  0.00  0.00    +0.000 A 
ATOM      7  N   UNL     1       4.606   1.436  -0.915  0.00  0.00    +0.000 N 
ATOM      8  H   UNL     1       4.069   0.714  -1.417  0.00  0.00    +0.000 HD
ENDROOT
BRANCH   1  10
ATOM      9  O   UNL     1       2.758  -0.554  -0.875  0.00  0.00    +0.000 OA
ATOM     10  C   UNL     1       2.184   0.044   0.028  0.00  0.00    +0.000 C 
ATOM     11  N   UNL     1       0.832   0.027   0.323  0.00  0.00    +0.000 N 
ATOM     12  C   UNL     1      -0.120  -0.708  -0.356  0.00  0.00    +0.000 A 
ATOM     13  N   UNL     1       0.126  -1.544  -1.359  0.00  0.00    +0.000 NA
ATOM     14  N   UNL     1      -1.076  -2.035  -1.741  0.00  0.00    +0.000 N 
ATOM     15  C   UNL     1      -2.091  -1.511  -0.974  0.00  0.00    +0.000 A 
ATOM     16  C   UNL     1      -1.502  -0.664  -0.064  0.00  0.00    +0.000 A 
ATOM     17  H   UNL     1       0.467   0.639   1.036  0.00  0.00    +0.000 HD
BRANCH  14  18
ATOM     18  C   UNL     1      -1.169  -2.975  -2.802  0.00  0.00    +0.000 A 
ATOM     19  C   UNL     1      -0.004  -3.384  -3.458  0.00  0.00    +0.000 A 
ATOM     20  C   UNL     1      -0.116  -4.301  -4.485  0.00  0.00    +0.000 A 
ATOM     21  N   UNL     1      -1.292  -4.830  -4.892  0.00  0.00    +0.000 NA
ATOM     22  C   UNL     1      -2.400  -4.418  -4.246  0.00  0.00    +0.000 A 
ATOM     23  C   UNL     1      -2.398  -3.503  -3.205  0.00  0.00    +0.000 A 
ENDBRANCH  14  18
ENDBRANCH   1  10
BRANCH   7  24
ATOM     24  C   UNL     1       5.960   1.403  -1.347  0.00  0.00    +0.000 A 
ATOM     25  C   UNL     1       6.301   1.829  -2.638  0.00  0.00    +0.000 A 
ATOM     26  F   UNL     1       5.362   2.359  -3.438  0.00  0.00    +0.000 F 
ATOM     27  C   UNL     1       7.612   1.726  -3.102  0.00  0.00    +0.000 A 
ATOM     28  F   UNL     1       7.927   2.157  -4.332  0.00  0.00    +0.000 F 
ATOM     29  C   UNL     1       8.609   1.170  -2.308  0.00  0.00    +0.000 A 
ATOM     30  C   UNL     1       8.292   0.729  -1.026  0.00  0.00    +0.000 A 
ATOM     31  C   UNL     1       6.979   0.843  -0.553  0.00  0.00    +0.000 A 
ENDBRANCH   7  24
TORSDOF 3
