REMARK  Name = 
REMARK  3 active torsions:
REMARK  status: ('A' for Active; 'I' for Inactive)
REMARK    1  A    between atoms: C_2  and  C_17
REMARK    2  A    between atoms: N_3  and  C_4
REMARK    3  A    between atoms: C_8  and  N_9
REMARK                            x       y       z     vdW  Elec       q    Type
REMARK                         _______ _______ _______ _____ _____    ______ ____
ROOT
ATOM      1  O   UNL     1       1.035  -0.136  -0.273  0.00  0.00    +0.000 OA
ATOM      2  C   UNL     1       2.248   0.008  -0.147  0.00  0.00    +0.000 C 
ATOM      3  N   UNL     1       2.875   1.085   0.455  0.00  0.00    +0.000 N 
ATOM      4  H   UNL     1       3.852   1.246   0.244  0.00  0.00    +0.000 HD
ENDROOT
BRANCH   2   5
ATOM      5  C   UNL     1       3.114  -1.043  -0.727  0.00  0.00    +0.000 A 
ATOM      6  C   UNL     1       4.361  -1.369  -0.174  0.00  0.00    +0.000 A 
ATOM      7  C   UNL     1       5.056  -2.484  -0.654  0.00  0.00    +0.000 A 
ATOM      8  C   UNL     1       4.511  -3.246  -1.700  0.00  0.00    +0.000 A 
ATOM      9  N   UNL     1       5.184  -4.392  -2.145  0.00  0.00    +0.000 N 
ATOM     10  C   UNL     1       6.340  -4.851  -1.581  0.00  0.00    +0.000 A 
ATOM     11  O   UNL     1       6.895  -5.878  -1.956  0.00  0.00    +0.000 OA
ATOM     12  C   UNL     1       6.907  -4.043  -0.472  0.00  0.00    +0.000 A 
ATOM     13  C   UNL     1       6.312  -2.919  -0.046  0.00  0.00    +0.000 A 
ATOM     14  C   UNL     1       3.288  -2.894  -2.262  0.00  0.00    +0.000 A 
ATOM     15  F   UNL     1       2.761  -3.635  -3.248  0.00  0.00    +0.000 F 
ATOM     16  C   UNL     1       2.582  -1.807  -1.777  0.00  0.00    +0.000 A 
ATOM     17  H   UNL     1       4.781  -4.950  -2.889  0.00  0.00    +0.000 HD
ENDBRANCH   2   5
BRANCH   3  18
ATOM     18  C   UNL     1       2.180   2.122   1.121  0.00  0.00    +0.000 A 
ATOM     19  C   UNL     1       0.880   1.957   1.603  0.00  0.00    +0.000 A 
ATOM     20  C   UNL     1       0.187   3.026   2.164  0.00  0.00    +0.000 A 
ATOM     21  F   UNL     1      -1.082   2.806   2.532  0.00  0.00    +0.000 F 
ATOM     22  C   UNL     1       0.769   4.286   2.250  0.00  0.00    +0.000 A 
ATOM     23  C   UNL     1       2.091   4.432   1.824  0.00  0.00    +0.000 A 
ATOM     24  F   UNL     1       2.736   5.601   1.945  0.00  0.00    +0.000 F 
ATOM     25  C   UNL     1       2.807   3.356   1.289  0.00  0.00    +0.000 A 
BRANCH  22  26
ATOM     26  N   UNL     1       0.026   5.388   2.731  0.00  0.00    +0.000 N 
ATOM     27  C   UNL     1      -1.060   5.357   3.578  0.00  0.00    +0.000 A 
ATOM     28  C   UNL     1      -1.452   6.663   3.741  0.00  0.00    +0.000 A 
ATOM     29  N   UNL     1      -0.662   7.501   3.009  0.00  0.00    +0.000 NA
ATOM     30  C   UNL     1       0.211   6.715   2.417  0.00  0.00    +0.000 A 
ENDBRANCH  22  26
ENDBRANCH   3  18
TORSDOF 3
