REMARK  Name = 
REMARK  5 active torsions:
REMARK  status: ('A' for Active; 'I' for Inactive)
REMARK    1  A    between atoms: C_2  and  C_18
REMARK    2  A    between atoms: N_3  and  C_4
REMARK    3  A    between atoms: C_4  and  C_5
REMARK    4  A    between atoms: C_5  and  C_7
REMARK    5  A    between atoms: C_20  and  C_21
REMARK                            x       y       z     vdW  Elec       q    Type
REMARK                         _______ _______ _______ _____ _____    ______ ____
ROOT
ATOM      1  O   UNL     1       0.966  -0.273  -0.118  0.00  0.00    +0.000 OA
ATOM      2  C   UNL     1       2.187  -0.149  -0.111  0.00  0.00    +0.000 C 
ATOM      3  N   UNL     1       2.857   0.525  -1.099  0.00  0.00    +0.000 N 
ATOM      4  H   UNL     1       3.866   0.614  -1.074  0.00  0.00    +0.000 HD
ENDROOT
BRANCH   2   5
ATOM      5  C   UNL     1       3.026  -0.701   0.930  0.00  0.00    +0.000 A 
ATOM      6  C   UNL     1       4.383  -0.567   1.181  0.00  0.00    +0.000 A 
ATOM      7  C   UNL     1       4.716  -1.307   2.352  0.00  0.00    +0.000 A 
ATOM      8  C   UNL     1       3.536  -1.886   2.781  0.00  0.00    +0.000 A 
ATOM      9  N   UNL     1       2.530  -1.509   1.931  0.00  0.00    +0.000 N 
ATOM     10  H   UNL     1       1.556  -1.774   2.011  0.00  0.00    +0.000 HD
BRANCH   7  11
ATOM     11  C   UNL     1       6.004  -1.454   3.026  0.00  0.00    +0.000 A 
ATOM     12  C   UNL     1       7.138  -0.803   2.543  0.00  0.00    +0.000 A 
ATOM     13  C   UNL     1       8.345  -0.951   3.221  0.00  0.00    +0.000 A 
ATOM     14  C   UNL     1       8.390  -1.744   4.360  0.00  0.00    +0.000 A 
ATOM     15  C   UNL     1       7.222  -2.361   4.770  0.00  0.00    +0.000 A 
ATOM     16  N   UNL     1       6.035  -2.235   4.134  0.00  0.00    +0.000 NA
ENDBRANCH   7  11
ENDBRANCH   2   5
BRANCH   3  17
ATOM     17  C   UNL     1       2.174   1.193  -2.187  0.00  0.00    +0.000 C 
BRANCH  17  18
ATOM     18  C   UNL     1       3.204   1.938  -3.038  0.00  0.00    +0.000 C 
ATOM     19  O   UNL     1       4.389   1.976  -2.701  0.00  0.00    +0.000 OA
BRANCH  18  20
ATOM     20  C   UNL     1       2.732   2.643  -4.280  0.00  0.00    +0.000 A 
ATOM     21  C   UNL     1       1.423   3.159  -4.282  0.00  0.00    +0.000 A 
ATOM     22  C   UNL     1       0.947   3.876  -5.376  0.00  0.00    +0.000 A 
ATOM     23  C   UNL     1       1.773   4.088  -6.469  0.00  0.00    +0.000 A 
ATOM     24  F   UNL     1       1.285   4.796  -7.500  0.00  0.00    +0.000 F 
ATOM     25  C   UNL     1       3.080   3.587  -6.514  0.00  0.00    +0.000 A 
ATOM     26  C   UNL     1       3.881   3.828  -7.646  0.00  0.00    +0.000 A 
ATOM     27  C   UNL     1       5.178   3.333  -7.729  0.00  0.00    +0.000 A 
ATOM     28  C   UNL     1       5.689   2.581  -6.683  0.00  0.00    +0.000 A 
ATOM     29  C   UNL     1       4.906   2.336  -5.549  0.00  0.00    +0.000 A 
ATOM     30  C   UNL     1       3.586   2.839  -5.415  0.00  0.00    +0.000 A 
ENDBRANCH  18  20
ENDBRANCH  17  18
ENDBRANCH   3  17
TORSDOF 5
