REMARK  Name = 
REMARK  4 active torsions:
REMARK  status: ('A' for Active; 'I' for Inactive)
REMARK    1  A    between atoms: C_2  and  C_16
REMARK    2  A    between atoms: N_3  and  C_4
REMARK    3  A    between atoms: C_4  and  C_5
REMARK    4  A    between atoms: C_19  and  C_20
REMARK                            x       y       z     vdW  Elec       q    Type
REMARK                         _______ _______ _______ _____ _____    ______ ____
ROOT
ATOM      1  O   UNL     1       1.088   0.037  -0.071  0.00  0.00    +0.000 OA
ATOM      2  C   UNL     1       2.314   0.025  -0.049  0.00  0.00    +0.000 C 
ATOM      3  N   UNL     1       3.030  -0.421  -1.140  0.00  0.00    +0.000 N 
ATOM      4  H   UNL     1       2.459  -0.597  -1.959  0.00  0.00    +0.000 HD
ENDROOT
BRANCH   2   5
ATOM      5  C   UNL     1       3.036   0.431   1.190  0.00  0.00    +0.000 A 
ATOM      6  C   UNL     1       2.542  -0.008   2.422  0.00  0.00    +0.000 A 
ATOM      7  C   UNL     1       3.255   0.256   3.597  0.00  0.00    +0.000 A 
ATOM      8  C   UNL     1       4.470   0.951   3.537  0.00  0.00    +0.000 A 
ATOM      9  C   UNL     1       4.951   1.406   2.308  0.00  0.00    +0.000 A 
ATOM     10  C   UNL     1       4.205   1.201   1.153  0.00  0.00    +0.000 A 
BRANCH   8  11
ATOM     11  C   UNL     1       5.268   1.291   4.742  0.00  0.00    +0.000 A 
ATOM     12  N   UNL     1       6.565   1.308   4.662  0.00  0.00    +0.000 NA
ATOM     13  N   UNL     1       7.246   1.698   5.780  0.00  0.00    +0.000 N 
ATOM     14  C   UNL     1       6.681   2.107   6.957  0.00  0.00    +0.000 A 
ATOM     15  O   UNL     1       7.334   2.487   7.922  0.00  0.00    +0.000 OA
ATOM     16  C   UNL     1       5.209   2.072   7.011  0.00  0.00    +0.000 A 
ATOM     17  C   UNL     1       4.502   1.670   5.952  0.00  0.00    +0.000 A 
ATOM     18  H   UNL     1       8.258   1.726   5.709  0.00  0.00    +0.000 HD
ENDBRANCH   8  11
ENDBRANCH   2   5
BRANCH   3  19
ATOM     19  C   UNL     1       4.468  -0.440  -1.290  0.00  0.00    +0.000 C 
BRANCH  19  20
ATOM     20  C   UNL     1       4.996  -1.463  -2.237  0.00  0.00    +0.000 A 
ATOM     21  C   UNL     1       5.837  -1.062  -3.279  0.00  0.00    +0.000 A 
ATOM     22  F   UNL     1       6.048   0.250  -3.477  0.00  0.00    +0.000 F 
ATOM     23  C   UNL     1       6.495  -1.991  -4.089  0.00  0.00    +0.000 A 
ATOM     24  C   UNL     1       7.353  -1.583  -5.122  0.00  0.00    +0.000 A 
ATOM     25  C   UNL     1       8.014  -2.526  -5.905  0.00  0.00    +0.000 A 
ATOM     26  C   UNL     1       7.829  -3.884  -5.660  0.00  0.00    +0.000 A 
ATOM     27  C   UNL     1       6.983  -4.303  -4.631  0.00  0.00    +0.000 A 
ATOM     28  C   UNL     1       6.305  -3.368  -3.837  0.00  0.00    +0.000 A 
ATOM     29  C   UNL     1       5.459  -3.772  -2.790  0.00  0.00    +0.000 A 
ATOM     30  C   UNL     1       4.806  -2.827  -1.997  0.00  0.00    +0.000 A 
ENDBRANCH  19  20
ENDBRANCH   3  19
TORSDOF 4
