REMARK  Name = 
REMARK  6 active torsions:
REMARK  status: ('A' for Active; 'I' for Inactive)
REMARK    1  A    between atoms: C_1  and  C_2
REMARK    2  A    between atoms: C_5  and  O_6
REMARK    3  A    between atoms: O_6  and  C_7
REMARK    4  A    between atoms: C_10  and  N_11
REMARK    5  A    between atoms: C_12  and  C_14
REMARK    6  A    between atoms: C_18  and  C_19
REMARK                            x       y       z     vdW  Elec       q    Type
REMARK                         _______ _______ _______ _____ _____    ______ ____
ROOT
ATOM      1  N   UNL     1       9.332  -4.858  -0.402  0.00  0.00    +0.000 N 
ATOM      2  C   UNL     1       9.451  -5.591  -1.563  0.00  0.00    +0.000 C 
ATOM      3  O   UNL     1       9.007  -5.309  -2.670  0.00  0.00    +0.000 OA
ATOM      4  H   UNL     1       9.821  -5.200   0.413  0.00  0.00    +0.000 HD
ENDROOT
BRANCH   1   8
ATOM      5  C   UNL     1       7.338  -1.223   0.319  0.00  0.00    +0.000 A 
ATOM      6  C   UNL     1       7.332  -1.745  -0.972  0.00  0.00    +0.000 A 
ATOM      7  C   UNL     1       7.989  -2.951  -1.245  0.00  0.00    +0.000 A 
ATOM      8  C   UNL     1       8.663  -3.633  -0.231  0.00  0.00    +0.000 A 
ATOM      9  C   UNL     1       8.700  -3.082   1.054  0.00  0.00    +0.000 A 
ATOM     10  C   UNL     1       8.060  -1.873   1.322  0.00  0.00    +0.000 A 
BRANCH   5  11
ATOM     11  O   UNL     1       6.660  -0.041   0.517  0.00  0.00    +0.000 OA
BRANCH  11  16
ATOM     12  C   UNL     1       4.550   0.592   5.643  0.00  0.00    +0.000 C 
ATOM     13  C   UNL     1       5.047   0.495   4.237  0.00  0.00    +0.000 A 
ATOM     14  C   UNL     1       5.512   1.603   3.543  0.00  0.00    +0.000 A 
ATOM     15  C   UNL     1       6.026   1.425   2.264  0.00  0.00    +0.000 A 
ATOM     16  C   UNL     1       6.059   0.143   1.754  0.00  0.00    +0.000 A 
ATOM     17  N   UNL     1       5.552  -0.914   2.426  0.00  0.00    +0.000 NA
ATOM     18  N   UNL     1       5.061  -0.739   3.686  0.00  0.00    +0.000 NA
ENDBRANCH  11  16
ENDBRANCH   5  11
ENDBRANCH   1   8
BRANCH   2  19
ATOM     19  C   UNL     1      10.277  -6.822  -1.433  0.00  0.00    +0.000 A 
ATOM     20  C   UNL     1      10.287  -7.609  -0.275  0.00  0.00    +0.000 A 
ATOM     21  C   UNL     1      11.133  -8.717  -0.198  0.00  0.00    +0.000 A 
ATOM     22  C   UNL     1      11.959  -9.043  -1.276  0.00  0.00    +0.000 A 
ATOM     23  C   UNL     1      11.933  -8.272  -2.447  0.00  0.00    +0.000 A 
ATOM     24  C   UNL     1      11.090  -7.160  -2.519  0.00  0.00    +0.000 A 
BRANCH  23  25
ATOM     25  C   UNL     1      12.888  -8.574  -3.551  0.00  0.00    +0.000 A 
ATOM     26  N   UNL     1      14.038  -9.100  -3.260  0.00  0.00    +0.000 NA
ATOM     27  N   UNL     1      14.921  -9.261  -4.289  0.00  0.00    +0.000 N 
ATOM     28  C   UNL     1      14.729  -8.838  -5.579  0.00  0.00    +0.000 A 
ATOM     29  O   UNL     1      15.595  -8.891  -6.443  0.00  0.00    +0.000 OA
ATOM     30  C   UNL     1      13.383  -8.327  -5.892  0.00  0.00    +0.000 A 
ATOM     31  C   UNL     1      12.466  -8.218  -4.929  0.00  0.00    +0.000 A 
ATOM     32  H   UNL     1      15.841  -9.614  -4.048  0.00  0.00    +0.000 HD
ENDBRANCH  23  25
ENDBRANCH   2  19
TORSDOF 5
