REMARK  Name = 
REMARK  6 active torsions:
REMARK  status: ('A' for Active; 'I' for Inactive)
REMARK    1  A    between atoms: C_1  and  N_2
REMARK    2  A    between atoms: C_4  and  O_5
REMARK    3  A    between atoms: O_5  and  C_6
REMARK    4  A    between atoms: C_9  and  N_10
REMARK    5  A    between atoms: C_11  and  C_13
REMARK    6  A    between atoms: C_14  and  O_15
REMARK                            x       y       z     vdW  Elec       q    Type
REMARK                         _______ _______ _______ _____ _____    ______ ____
ROOT
ATOM      1  N   UNL     1       2.079  -7.392  -1.022  0.00  0.00    +0.000 N 
ATOM      2  C   UNL     1       1.369  -7.935  -2.088  0.00  0.00    +0.000 C 
ATOM      3  O   UNL     1       0.666  -7.292  -2.866  0.00  0.00    +0.000 OA
ATOM      4  H   UNL     1       2.527  -8.043  -0.383  0.00  0.00    +0.000 HD
ENDROOT
BRANCH   2   5
ATOM      5  C   UNL     1       1.467  -9.390  -2.381  0.00  0.00    +0.000 A 
ATOM      6  C   UNL     1       1.882 -10.417  -1.538  0.00  0.00    +0.000 A 
ATOM      7  C   UNL     1       2.043 -11.745  -2.030  0.00  0.00    +0.000 A 
ATOM      8  C   UNL     1       2.652 -12.796  -1.298  0.00  0.00    +0.000 A 
ATOM      9  C   UNL     1       2.863 -14.050  -1.877  0.00  0.00    +0.000 A 
ATOM     10  C   UNL     1       2.411 -14.289  -3.164  0.00  0.00    +0.000 A 
ATOM     11  F   UNL     1       2.625 -15.487  -3.725  0.00  0.00    +0.000 F 
ATOM     12  C   UNL     1       1.775 -13.288  -3.882  0.00  0.00    +0.000 A 
ATOM     13  F   UNL     1       1.340 -13.564  -5.124  0.00  0.00    +0.000 F 
ATOM     14  C   UNL     1       1.622 -12.007  -3.358  0.00  0.00    +0.000 A 
ATOM     15  N   UNL     1       1.118 -11.041  -4.138  0.00  0.00    +0.000 NA
ATOM     16  C   UNL     1       1.088  -9.775  -3.662  0.00  0.00    +0.000 A 
BRANCH   6  17
ATOM     17  O   UNL     1       2.119 -10.139  -0.213  0.00  0.00    +0.000 OA
ATOM     18  H   UNL     1       1.675 -10.841   0.303  0.00  0.00    +0.000 HD
ENDBRANCH   6  17
ENDBRANCH   2   5
BRANCH   1  22
ATOM     19  C   UNL     1       2.376  -3.227  -0.128  0.00  0.00    +0.000 A 
ATOM     20  C   UNL     1       1.806  -3.646  -1.321  0.00  0.00    +0.000 A 
ATOM     21  C   UNL     1       1.704  -5.014  -1.613  0.00  0.00    +0.000 A 
ATOM     22  C   UNL     1       2.193  -5.994  -0.745  0.00  0.00    +0.000 A 
ATOM     23  C   UNL     1       2.837  -5.559   0.420  0.00  0.00    +0.000 A 
ATOM     24  C   UNL     1       2.926  -4.182   0.727  0.00  0.00    +0.000 A 
BRANCH  19  25
ATOM     25  O   UNL     1       2.482  -1.889   0.198  0.00  0.00    +0.000 OA
BRANCH  25  29
ATOM     26  C   UNL     1       0.241   2.211  -1.161  0.00  0.00    +0.000 C 
ATOM     27  N   UNL     1       0.533   0.859  -0.747  0.00  0.00    +0.000 N 
ATOM     28  C   UNL     1       1.744   0.335  -0.386  0.00  0.00    +0.000 A 
ATOM     29  C   UNL     1       1.515  -1.001  -0.151  0.00  0.00    +0.000 A 
ATOM     30  C   UNL     1       0.129  -1.172  -0.338  0.00  0.00    +0.000 A 
ATOM     31  N   UNL     1      -0.474  -0.040  -0.716  0.00  0.00    +0.000 NA
ENDBRANCH  25  29
ENDBRANCH  19  25
ENDBRANCH   1  22
TORSDOF 5
