REMARK  Name = 
REMARK  5 active torsions:
REMARK  status: ('A' for Active; 'I' for Inactive)
REMARK    1  A    between atoms: C_2  and  C_10
REMARK    2  A    between atoms: N_3  and  C_4
REMARK    3  A    between atoms: C_13  and  N_14
REMARK    4  A    between atoms: C_15  and  C_17
REMARK    5  A    between atoms: C_22  and  C_23
REMARK                            x       y       z     vdW  Elec       q    Type
REMARK                         _______ _______ _______ _____ _____    ______ ____
ROOT
ATOM      1  C   UNL     1       3.064   1.256  -0.024  0.00  0.00    +0.000 A 
ATOM      2  C   UNL     1       2.603   2.293   0.787  0.00  0.00    +0.000 A 
ATOM      3  C   UNL     1       3.295   3.498   0.848  0.00  0.00    +0.000 A 
ATOM      4  C   UNL     1       4.453   3.703   0.094  0.00  0.00    +0.000 A 
ATOM      5  C   UNL     1       4.929   2.648  -0.700  0.00  0.00    +0.000 A 
ATOM      6  C   UNL     1       4.237   1.426  -0.764  0.00  0.00    +0.000 A 
ENDROOT
BRANCH   1   8
ATOM      7  O   UNL     1       1.004   0.193  -0.079  0.00  0.00    +0.000 OA
ATOM      8  C   UNL     1       2.220   0.038  -0.099  0.00  0.00    +0.000 C 
ATOM      9  N   UNL     1       2.894  -1.168  -0.106  0.00  0.00    +0.000 N 
ATOM     10  H   UNL     1       3.894  -1.145   0.058  0.00  0.00    +0.000 HD
BRANCH   9  11
ATOM     11  C   UNL     1       2.277  -2.441  -0.101  0.00  0.00    +0.000 A 
ATOM     12  C   UNL     1       0.922  -2.647  -0.364  0.00  0.00    +0.000 A 
ATOM     13  C   UNL     1       0.383  -3.931  -0.281  0.00  0.00    +0.000 A 
ATOM     14  C   UNL     1       1.224  -4.978   0.050  0.00  0.00    +0.000 A 
ATOM     15  N   UNL     1       2.546  -4.830   0.280  0.00  0.00    +0.000 NA
ATOM     16  C   UNL     1       3.038  -3.569   0.196  0.00  0.00    +0.000 A 
ENDBRANCH   9  11
ENDBRANCH   1   8
BRANCH   4  17
ATOM     17  N   UNL     1       5.157   4.936   0.081  0.00  0.00    +0.000 N 
ATOM     18  C   UNL     1       4.714   6.108   0.676  0.00  0.00    +0.000 C 
ATOM     19  O   UNL     1       3.669   6.232   1.305  0.00  0.00    +0.000 OA
ATOM     20  H   UNL     1       6.014   4.958  -0.455  0.00  0.00    +0.000 HD
BRANCH  18  21
ATOM     21  C   UNL     1       5.551   7.333   0.525  0.00  0.00    +0.000 A 
ATOM     22  C   UNL     1       6.154   7.586  -0.721  0.00  0.00    +0.000 A 
ATOM     23  C   UNL     1       6.732   8.828  -0.983  0.00  0.00    +0.000 A 
ATOM     24  C   UNL     1       6.685   9.832  -0.021  0.00  0.00    +0.000 A 
ATOM     25  C   UNL     1       6.121   9.576   1.231  0.00  0.00    +0.000 A 
ATOM     26  C   UNL     1       5.577   8.318   1.546  0.00  0.00    +0.000 A 
BRANCH  26  27
ATOM     27  C   UNL     1       5.100   8.106   2.926  0.00  0.00    +0.000 A 
ATOM     28  C   UNL     1       4.499   8.958   3.837  0.00  0.00    +0.000 A 
ATOM     29  C   UNL     1       4.306   8.195   5.003  0.00  0.00    +0.000 A 
ATOM     30  N   UNL     1       4.775   6.955   4.876  0.00  0.00    +0.000 NA
ATOM     31  N   UNL     1       5.199   6.911   3.603  0.00  0.00    +0.000 N 
ATOM     32  H   UNL     1       5.540   6.025   3.249  0.00  0.00    +0.000 HD
ENDBRANCH  26  27
ENDBRANCH  18  21
ENDBRANCH   4  17
TORSDOF 5
