REMARK  Name = 
REMARK  7 active torsions:
REMARK  status: ('A' for Active; 'I' for Inactive)
REMARK    1  A    between atoms: C_1  and  O_2
REMARK    2  A    between atoms: O_2  and  C_3
REMARK    3  A    between atoms: C_6  and  O_7
REMARK    4  A    between atoms: O_7  and  C_8
REMARK    5  A    between atoms: C_9  and  C_10
REMARK    6  A    between atoms: C_14  and  N_15
REMARK    7  A    between atoms: C_16  and  C_18
REMARK                            x       y       z     vdW  Elec       q    Type
REMARK                         _______ _______ _______ _____ _____    ______ ____
ROOT
ATOM      1  C   UNL     1       6.291  -0.018  -2.921  0.00  0.00    +0.000 A 
ATOM      2  C   UNL     1       6.537  -1.267  -3.493  0.00  0.00    +0.000 A 
ATOM      3  N   UNL     1       7.751  -1.781  -3.799  0.00  0.00    +0.000 NA
ATOM      4  C   UNL     1       8.819  -0.993  -3.539  0.00  0.00    +0.000 A 
ATOM      5  C   UNL     1       8.725   0.275  -3.010  0.00  0.00    +0.000 A 
ATOM      6  C   UNL     1       7.444   0.764  -2.687  0.00  0.00    +0.000 A 
ENDROOT
BRANCH   1  11
ATOM      7  C   UNL     1       3.237   2.264  -2.769  0.00  0.00    +0.000 A 
ATOM      8  C   UNL     1       2.232   1.371  -2.416  0.00  0.00    +0.000 A 
ATOM      9  C   UNL     1       2.547   0.042  -2.135  0.00  0.00    +0.000 A 
ATOM     10  C   UNL     1       3.869  -0.415  -2.217  0.00  0.00    +0.000 A 
ATOM     11  C   UNL     1       4.902   0.455  -2.648  0.00  0.00    +0.000 A 
ATOM     12  C   UNL     1       4.554   1.804  -2.882  0.00  0.00    +0.000 A 
BRANCH   7  14
ATOM     13  C   UNL     1       1.722   4.076  -3.030  0.00  0.00    +0.000 C 
ATOM     14  O   UNL     1       3.062   3.594  -3.040  0.00  0.00    +0.000 OA
ENDBRANCH   7  14
BRANCH  10  15
ATOM     15  O   UNL     1       4.239  -1.693  -1.873  0.00  0.00    +0.000 OA
ATOM     16  C   UNL     1       3.220  -2.629  -1.548  0.00  0.00    +0.000 C 
ENDBRANCH  10  15
ENDBRANCH   1  11
BRANCH   5  17
ATOM     17  N   UNL     1       9.825   1.150  -2.810  0.00  0.00    +0.000 N 
ATOM     18  C   UNL     1      11.166   0.868  -3.046  0.00  0.00    +0.000 C 
ATOM     19  O   UNL     1      11.629  -0.175  -3.471  0.00  0.00    +0.000 OA
ATOM     20  H   UNL     1       9.575   2.090  -2.532  0.00  0.00    +0.000 HD
BRANCH  18  21
ATOM     21  C   UNL     1      12.094   2.014  -2.779  0.00  0.00    +0.000 A 
ATOM     22  C   UNL     1      11.732   3.003  -1.853  0.00  0.00    +0.000 A 
ATOM     23  C   UNL     1      12.468   4.178  -1.749  0.00  0.00    +0.000 A 
ATOM     24  C   UNL     1      13.633   4.272  -2.495  0.00  0.00    +0.000 A 
ATOM     25  C   UNL     1      14.508   5.444  -2.359  0.00  0.00    +0.000 A 
ATOM     26  O   UNL     1      14.107   6.590  -2.486  0.00  0.00    +0.000 OA
ATOM     27  C   UNL     1      15.911   5.087  -2.087  0.00  0.00    +0.000 A 
ATOM     28  C   UNL     1      16.337   4.015  -2.776  0.00  0.00    +0.000 A 
ATOM     29  N   UNL     1      15.517   3.246  -3.586  0.00  0.00    +0.000 N 
ATOM     30  C   UNL     1      14.152   3.196  -3.236  0.00  0.00    +0.000 A 
ATOM     31  C   UNL     1      13.331   2.084  -3.451  0.00  0.00    +0.000 A 
ATOM     32  H   UNL     1      15.928   2.442  -4.048  0.00  0.00    +0.000 HD
ENDBRANCH  18  21
ENDBRANCH   5  17
TORSDOF 5
