REMARK  Name = 
REMARK  6 active torsions:
REMARK  status: ('A' for Active; 'I' for Inactive)
REMARK    1  A    between atoms: C_1  and  C_2
REMARK    2  A    between atoms: C_7  and  C_8
REMARK    3  A    between atoms: N_10  and  C_11
REMARK    4  A    between atoms: C_14  and  O_15
REMARK    5  A    between atoms: O_15  and  C_16
REMARK    6  A    between atoms: C_22  and  C_23
REMARK                            x       y       z     vdW  Elec       q    Type
REMARK                         _______ _______ _______ _____ _____    ______ ____
ROOT
ATOM      1  C   UNL     1       8.661  -3.317  -1.298  0.00  0.00    +0.000 C 
ATOM      2  O   UNL     1       9.140  -4.185  -2.022  0.00  0.00    +0.000 OA
ATOM      3  N   UNL     1       9.359  -2.425  -0.506  0.00  0.00    +0.000 N 
ATOM      4  H   UNL     1       8.793  -1.850   0.115  0.00  0.00    +0.000 HD
ENDROOT
BRANCH   1  11
ATOM      5  C   UNL     1       1.022  -1.843  -0.347  0.00  0.00    +0.000 C 
ATOM      6  C   UNL     1       2.510  -2.010  -0.414  0.00  0.00    +0.000 A 
ATOM      7  N   UNL     1       3.038  -2.966  -1.104  0.00  0.00    +0.000 NA
ATOM      8  C   UNL     1       4.438  -3.051  -1.132  0.00  0.00    +0.000 A 
ATOM      9  C   UNL     1       5.033  -4.049  -1.891  0.00  0.00    +0.000 A 
ATOM     10  C   UNL     1       6.418  -4.139  -1.944  0.00  0.00    +0.000 A 
ATOM     11  C   UNL     1       7.175  -3.219  -1.220  0.00  0.00    +0.000 A 
ATOM     12  N   UNL     1       6.648  -2.232  -0.453  0.00  0.00    +0.000 NA
ATOM     13  C   UNL     1       5.288  -2.179  -0.449  0.00  0.00    +0.000 A 
ATOM     14  C   UNL     1       4.626  -1.106   0.333  0.00  0.00    +0.000 A 
ATOM     15  O   UNL     1       5.251  -0.268   0.976  0.00  0.00    +0.000 OA
ATOM     16  N   UNL     1       3.250  -1.091   0.284  0.00  0.00    +0.000 N 
ATOM     17  H   UNL     1       2.800  -0.354   0.808  0.00  0.00    +0.000 HD
ENDBRANCH   1  11
BRANCH   3  18
ATOM     18  C   UNL     1      10.763  -2.310  -0.454  0.00  0.00    +0.000 A 
ATOM     19  C   UNL     1      11.609  -2.921  -1.379  0.00  0.00    +0.000 A 
ATOM     20  C   UNL     1      12.994  -2.814  -1.262  0.00  0.00    +0.000 A 
ATOM     21  C   UNL     1      13.569  -2.087  -0.218  0.00  0.00    +0.000 A 
ATOM     22  C   UNL     1      12.730  -1.403   0.678  0.00  0.00    +0.000 A 
ATOM     23  C   UNL     1      11.330  -1.538   0.562  0.00  0.00    +0.000 A 
BRANCH  22  24
ATOM     24  C   UNL     1      13.200  -0.547   1.732  0.00  0.00    +0.000 C 
ATOM     25  N   UNL     1      13.502   0.130   2.624  0.00  0.00    +0.000 NA
ENDBRANCH  22  24
BRANCH  21  26
ATOM     26  O   UNL     1      14.945  -2.090  -0.271  0.00  0.00    +0.000 OA
BRANCH  26  27
ATOM     27  C   UNL     1      15.686  -2.079   0.882  0.00  0.00    +0.000 A 
ATOM     28  C   UNL     1      15.304  -2.711   2.067  0.00  0.00    +0.000 A 
ATOM     29  C   UNL     1      16.017  -2.456   3.237  0.00  0.00    +0.000 A 
ATOM     30  C   UNL     1      17.160  -1.658   3.199  0.00  0.00    +0.000 A 
ATOM     31  C   UNL     1      17.620  -1.151   1.984  0.00  0.00    +0.000 A 
ATOM     32  C   UNL     1      16.884  -1.366   0.823  0.00  0.00    +0.000 A 
ENDBRANCH  26  27
ENDBRANCH  21  26
ENDBRANCH   3  18
TORSDOF 5
