REMARK  Name = 
REMARK  6 active torsions:
REMARK  status: ('A' for Active; 'I' for Inactive)
REMARK    1  A    between atoms: C_2  and  C_15
REMARK    2  A    between atoms: N_3  and  C_4
REMARK    3  A    between atoms: C_4  and  C_5
REMARK    4  A    between atoms: C_19  and  O_20
REMARK    5  A    between atoms: O_20  and  C_21
REMARK    6  A    between atoms: C_21  and  C_22
REMARK                            x       y       z     vdW  Elec       q    Type
REMARK                         _______ _______ _______ _____ _____    ______ ____
ROOT
ATOM      1  O   UNL     1       1.136  -0.496  -0.587  0.00  0.00    +0.000 OA
ATOM      2  C   UNL     1       2.163   0.022  -0.160  0.00  0.00    +0.000 C 
ATOM      3  N   UNL     1       2.642   1.228  -0.605  0.00  0.00    +0.000 N 
ATOM      4  H   UNL     1       3.542   1.561  -0.282  0.00  0.00    +0.000 HD
ENDROOT
BRANCH   2   5
ATOM      5  C   UNL     1       3.001  -0.637   0.891  0.00  0.00    +0.000 A 
ATOM      6  C   UNL     1       2.589  -1.820   1.364  0.00  0.00    +0.000 A 
ATOM      7  C   UNL     1       3.399  -2.515   2.386  0.00  0.00    +0.000 A 
ATOM      8  O   UNL     1       3.056  -3.622   2.785  0.00  0.00    +0.000 OA
ATOM      9  C   UNL     1       4.622  -1.804   2.876  0.00  0.00    +0.000 A 
ATOM     10  C   UNL     1       4.900  -0.629   2.300  0.00  0.00    +0.000 A 
ATOM     11  O   UNL     1       4.159  -0.009   1.321  0.00  0.00    +0.000 OA
BRANCH   9  12
ATOM     12  O   UNL     1       5.474  -2.298   3.849  0.00  0.00    +0.000 OA
BRANCH  12  13
ATOM     13  C   UNL     1       4.898  -3.171   4.824  0.00  0.00    +0.000 C 
BRANCH  13  14
ATOM     14  C   UNL     1       5.713  -3.079   6.095  0.00  0.00    +0.000 A 
ATOM     15  C   UNL     1       5.123  -2.631   7.287  0.00  0.00    +0.000 A 
ATOM     16  C   UNL     1       5.864  -2.570   8.469  0.00  0.00    +0.000 A 
ATOM     17  C   UNL     1       7.204  -2.954   8.475  0.00  0.00    +0.000 A 
ATOM     18  C   UNL     1       7.804  -3.393   7.296  0.00  0.00    +0.000 A 
ATOM     19  C   UNL     1       7.065  -3.455   6.112  0.00  0.00    +0.000 A 
ENDBRANCH  13  14
ENDBRANCH  12  13
ENDBRANCH   9  12
ENDBRANCH   2   5
BRANCH   3  20
ATOM     20  C   UNL     1       1.988   1.929  -1.686  0.00  0.00    +0.000 C 
BRANCH  20  21
ATOM     21  C   UNL     1       2.260   3.386  -1.543  0.00  0.00    +0.000 A 
ATOM     22  C   UNL     1       1.484   4.296  -0.848  0.00  0.00    +0.000 A 
ATOM     23  N   UNL     1       2.064   5.530  -0.951  0.00  0.00    +0.000 N 
ATOM     24  C   UNL     1       3.214   5.453  -1.701  0.00  0.00    +0.000 A 
ATOM     25  C   UNL     1       4.127   6.456  -2.054  0.00  0.00    +0.000 A 
ATOM     26  C   UNL     1       5.222   6.083  -2.836  0.00  0.00    +0.000 A 
ATOM     27  C   UNL     1       5.380   4.766  -3.246  0.00  0.00    +0.000 A 
ATOM     28  F   UNL     1       6.441   4.438  -3.995  0.00  0.00    +0.000 F 
ATOM     29  C   UNL     1       4.466   3.773  -2.894  0.00  0.00    +0.000 A 
ATOM     30  C   UNL     1       3.358   4.121  -2.096  0.00  0.00    +0.000 A 
ATOM     31  H   UNL     1       1.705   6.379  -0.534  0.00  0.00    +0.000 HD
ENDBRANCH  20  21
ENDBRANCH   3  20
TORSDOF 6
