REMARK  Name = 
REMARK  5 active torsions:
REMARK  status: ('A' for Active; 'I' for Inactive)
REMARK    1  A    between atoms: C_1  and  C_2
REMARK    2  A    between atoms: N_12  and  C_13
REMARK    3  A    between atoms: C_16  and  C_17
REMARK    4  A    between atoms: C_22  and  O_23
REMARK    5  A    between atoms: O_23  and  C_24
REMARK                            x       y       z     vdW  Elec       q    Type
REMARK                         _______ _______ _______ _____ _____    ______ ____
ROOT
ATOM      1  C   UNL     1       2.297  -2.485  -0.064  0.00  0.00    +0.000 A 
ATOM      2  C   UNL     1       1.320  -2.697  -1.036  0.00  0.00    +0.000 A 
ATOM      3  C   UNL     1       0.498  -3.826  -0.977  0.00  0.00    +0.000 A 
ATOM      4  C   UNL     1       0.597  -4.755   0.075  0.00  0.00    +0.000 A 
ATOM      5  C   UNL     1       1.598  -4.531   1.038  0.00  0.00    +0.000 A 
ATOM      6  C   UNL     1       2.443  -3.416   0.967  0.00  0.00    +0.000 A 
ENDROOT
BRANCH   1  18
ATOM      7  C   UNL     1       5.160  -2.631  -0.428  0.00  0.00    +0.000 C 
ATOM      8  C   UNL     1       4.452  -1.312  -0.197  0.00  0.00    +0.000 A 
ATOM      9  N   UNL     1       5.192  -0.249  -0.163  0.00  0.00    +0.000 NA
ATOM     10  C   UNL     1       4.578   0.993   0.022  0.00  0.00    +0.000 A 
ATOM     11  C   UNL     1       5.379   2.135   0.098  0.00  0.00    +0.000 A 
ATOM     12  C   UNL     1       4.807   3.389   0.332  0.00  0.00    +0.000 A 
ATOM     13  C   UNL     1       3.427   3.512   0.489  0.00  0.00    +0.000 A 
ATOM     14  C   UNL     1       2.616   2.384   0.388  0.00  0.00    +0.000 A 
ATOM     15  C   UNL     1       3.201   1.133   0.147  0.00  0.00    +0.000 A 
ATOM     16  C   UNL     1       2.374  -0.081   0.043  0.00  0.00    +0.000 A 
ATOM     17  O   UNL     1       1.153   0.037   0.099  0.00  0.00    +0.000 OA
ATOM     18  N   UNL     1       3.071  -1.291  -0.080  0.00  0.00    +0.000 N 
ENDBRANCH   1  18
BRANCH   4  19
ATOM     19  C   UNL     1      -0.354  -5.881   0.190  0.00  0.00    +0.000 A 
ATOM     20  C   UNL     1      -0.015  -7.116   0.737  0.00  0.00    +0.000 A 
ATOM     21  N   UNL     1      -0.861  -8.170   0.875  0.00  0.00    +0.000 NA
ATOM     22  C   UNL     1      -2.137  -8.005   0.476  0.00  0.00    +0.000 A 
ATOM     23  N   UNL     1      -2.938  -9.133   0.664  0.00  0.00    +0.000 N 
ATOM     24  C   UNL     1      -2.602  -6.807  -0.062  0.00  0.00    +0.000 A 
ATOM     25  C   UNL     1      -1.687  -5.763  -0.222  0.00  0.00    +0.000 A 
ATOM     26  H   UNL     1      -2.310  -9.840   1.053  0.00  0.00    +0.000 HD
ATOM     27  H   UNL     1      -3.653  -8.917   1.359  0.00  0.00    +0.000 HD
BRANCH  24  28
ATOM     28  O   UNL     1      -3.853  -6.494  -0.512  0.00  0.00    +0.000 OA
BRANCH  28  29
ATOM     29  C   UNL     1      -4.952  -7.199   0.029  0.00  0.00    +0.000 C 
ATOM     30  F   UNL     1      -4.783  -7.394   1.364  0.00  0.00    +0.000 F 
ATOM     31  F   UNL     1      -6.033  -6.384  -0.091  0.00  0.00    +0.000 F 
ENDBRANCH  28  29
ENDBRANCH  24  28
ENDBRANCH   4  19
TORSDOF 4
