REMARK  Name = 
REMARK  7 active torsions:
REMARK  status: ('A' for Active; 'I' for Inactive)
REMARK    1  A    between atoms: C_1  and  O_2
REMARK    2  A    between atoms: O_2  and  C_3
REMARK    3  A    between atoms: C_3  and  C_5
REMARK    4  A    between atoms: C_5  and  O_6
REMARK    5  A    between atoms: C_5  and  C_20
REMARK    6  A    between atoms: O_6  and  C_7
REMARK    7  A    between atoms: C_7  and  C_9
REMARK                            x       y       z     vdW  Elec       q    Type
REMARK                         _______ _______ _______ _____ _____    ______ ____
ROOT
ATOM      1  C   UNL     1       4.588  -0.362   1.212  0.00  0.00    +0.000 C 
ENDROOT
BRANCH   1   2
ATOM      2  C   UNL     1       5.157  -0.889   2.525  0.00  0.00    +0.000 A 
ATOM      3  C   UNL     1       5.457  -2.252   2.650  0.00  0.00    +0.000 A 
ATOM      4  C   UNL     1       5.892  -2.779   3.869  0.00  0.00    +0.000 A 
ATOM      5  C   UNL     1       6.035  -1.959   4.996  0.00  0.00    +0.000 A 
ATOM      6  C   UNL     1       6.441  -2.484   6.234  0.00  0.00    +0.000 A 
ATOM      7  C   UNL     1       6.573  -1.659   7.351  0.00  0.00    +0.000 A 
ATOM      8  C   UNL     1       6.309  -0.298   7.242  0.00  0.00    +0.000 A 
ATOM      9  C   UNL     1       5.903   0.239   6.017  0.00  0.00    +0.000 A 
ATOM     10  C   UNL     1       5.754  -0.579   4.885  0.00  0.00    +0.000 A 
ATOM     11  C   UNL     1       5.317  -0.061   3.650  0.00  0.00    +0.000 A 
ENDBRANCH   1   2
BRANCH   1  12
ATOM     12  C   UNL     1       3.051  -0.391   1.258  0.00  0.00    +0.000 C 
ATOM     13  O   UNL     1       2.336   0.554   1.575  0.00  0.00    +0.000 OA
BRANCH  12  15
ATOM     14  C   UNL     1       1.172  -1.770   0.958  0.00  0.00    +0.000 C 
ATOM     15  O   UNL     1       2.593  -1.636   0.920  0.00  0.00    +0.000 OA
ENDBRANCH  12  15
ENDBRANCH   1  12
BRANCH   1  16
ATOM     16  O   UNL     1       5.095   0.960   0.980  0.00  0.00    +0.000 OA
BRANCH  16  17
ATOM     17  C   UNL     1       4.962   1.397  -0.295  0.00  0.00    +0.000 C 
ATOM     18  O   UNL     1       4.475   0.766  -1.218  0.00  0.00    +0.000 OA
BRANCH  17  19
ATOM     19  C   UNL     1       5.536   2.764  -0.441  0.00  0.00    +0.000 A 
ATOM     20  C   UNL     1       5.497   3.385  -1.701  0.00  0.00    +0.000 A 
ATOM     21  C   UNL     1       6.073   4.650  -1.894  0.00  0.00    +0.000 A 
ATOM     22  C   UNL     1       6.704   5.303  -0.834  0.00  0.00    +0.000 A 
ATOM     23  N   UNL     1       7.310   6.555  -1.003  0.00  0.00    +0.000 N 
ATOM     24  C   UNL     1       7.978   7.160   0.025  0.00  0.00    +0.000 A 
ATOM     25  C   UNL     1       8.066   6.666   1.267  0.00  0.00    +0.000 A 
ATOM     26  C   UNL     1       7.406   5.370   1.553  0.00  0.00    +0.000 A 
ATOM     27  O   UNL     1       7.442   4.889   2.679  0.00  0.00    +0.000 OA
ATOM     28  C   UNL     1       6.723   4.681   0.428  0.00  0.00    +0.000 A 
ATOM     29  C   UNL     1       6.140   3.427   0.631  0.00  0.00    +0.000 A 
ATOM     30  H   UNL     1       7.334   6.980  -1.923  0.00  0.00    +0.000 HD
ENDBRANCH  17  19
ENDBRANCH  16  17
ENDBRANCH   1  16
TORSDOF 6
