REMARK  Name = 
REMARK  4 active torsions:
REMARK  status: ('A' for Active; 'I' for Inactive)
REMARK    1  A    between atoms: C_2  and  N_3
REMARK    2  A    between atoms: C_2  and  C_17
REMARK    3  A    between atoms: N_9  and  C_10
REMARK    4  A    between atoms: C_10  and  C_11
REMARK                            x       y       z     vdW  Elec       q    Type
REMARK                         _______ _______ _______ _____ _____    ______ ____
ROOT
ATOM      1  O   UNL     1       2.585   0.340   1.103  0.00  0.00    +0.000 OA
ATOM      2  C   UNL     1       3.583  -0.002   0.506  0.00  0.00    +0.000 C 
ENDROOT
BRANCH   2   3
ATOM      3  C   UNL     1       4.736   0.971   0.454  0.00  0.00    +0.000 A 
ATOM      4  C   UNL     1       5.958   0.671  -0.178  0.00  0.00    +0.000 A 
ATOM      5  C   UNL     1       6.647   1.704  -0.813  0.00  0.00    +0.000 A 
ATOM      6  C   UNL     1       6.042   2.962  -0.837  0.00  0.00    +0.000 A 
ATOM      7  N   UNL     1       6.096   3.678  -2.053  0.00  0.00    +0.000 N 
ATOM      8  C   UNL     1       6.744   3.151  -3.147  0.00  0.00    +0.000 A 
ATOM      9  O   UNL     1       6.468   3.441  -4.303  0.00  0.00    +0.000 OA
ATOM     10  C   UNL     1       7.857   2.223  -2.821  0.00  0.00    +0.000 A 
ATOM     11  C   UNL     1       7.816   1.524  -1.677  0.00  0.00    +0.000 A 
ATOM     12  C   UNL     1       5.104   3.306   0.122  0.00  0.00    +0.000 A 
ATOM     13  F   UNL     1       4.693   4.574   0.251  0.00  0.00    +0.000 F 
ATOM     14  C   UNL     1       4.443   2.299   0.794  0.00  0.00    +0.000 A 
ATOM     15  H   UNL     1       5.330   4.312  -2.254  0.00  0.00    +0.000 HD
ENDBRANCH   2   3
BRANCH   2  16
ATOM     16  N   UNL     1       3.729  -1.134  -0.241  0.00  0.00    +0.000 NA
ATOM     17  C   UNL     1       2.827  -1.961  -0.692  0.00  0.00    +0.000 A 
ATOM     18  C   UNL     1       3.583  -3.114  -1.348  0.00  0.00    +0.000 A 
ATOM     19  C   UNL     1       2.933  -4.209  -1.767  0.00  0.00    +0.000 A 
ATOM     20  C   UNL     1       1.506  -4.318  -1.633  0.00  0.00    +0.000 A 
ATOM     21  C   UNL     1       0.830  -3.277  -1.147  0.00  0.00    +0.000 A 
ATOM     22  N   UNL     1       1.407  -2.067  -0.708  0.00  0.00    +0.000 N 
BRANCH  22  23
ATOM     23  C   UNL     1       0.455  -1.008  -0.320  0.00  0.00    +0.000 C 
BRANCH  23  24
ATOM     24  C   UNL     1      -0.189  -1.286   1.030  0.00  0.00    +0.000 A 
ATOM     25  C   UNL     1       0.603  -1.659   2.126  0.00  0.00    +0.000 A 
ATOM     26  C   UNL     1       0.040  -1.890   3.377  0.00  0.00    +0.000 A 
ATOM     27  C   UNL     1      -1.332  -1.762   3.556  0.00  0.00    +0.000 A 
ATOM     28  C   UNL     1      -2.142  -1.399   2.481  0.00  0.00    +0.000 A 
ATOM     29  C   UNL     1      -1.575  -1.156   1.225  0.00  0.00    +0.000 A 
ENDBRANCH  23  24
ENDBRANCH  22  23
ENDBRANCH   2  16
TORSDOF 4
