REMARK  Name = 
REMARK  6 active torsions:
REMARK  status: ('A' for Active; 'I' for Inactive)
REMARK    1  A    between atoms: C_2  and  C_3
REMARK    2  A    between atoms: C_4  and  N_5
REMARK    3  A    between atoms: C_6  and  C_8
REMARK    4  A    between atoms: C_8  and  S_9
REMARK    5  A    between atoms: S_9  and  C_10
REMARK    6  A    between atoms: N_20  and  C_21
REMARK                            x       y       z     vdW  Elec       q    Type
REMARK                         _______ _______ _______ _____ _____    ______ ____
ROOT
ATOM      1  C   UNL     1       3.722  -0.062  -0.052  0.00  0.00    +0.000 A 
ATOM      2  C   UNL     1       4.394   1.105   0.129  0.00  0.00    +0.000 A 
ATOM      3  C   UNL     1       5.839   1.028   0.227  0.00  0.00    +0.000 A 
ATOM      4  C   UNL     1       6.478  -0.146   0.174  0.00  0.00    +0.000 A 
ATOM      5  N   UNL     1       5.802  -1.345   0.030  0.00  0.00    +0.000 N 
ATOM      6  C   UNL     1       4.406  -1.377  -0.103  0.00  0.00    +0.000 A 
ATOM      7  O   UNL     1       3.727  -2.389  -0.281  0.00  0.00    +0.000 OA
ENDROOT
BRANCH   5   8
ATOM      8  C   UNL     1       6.514  -2.579  -0.043  0.00  0.00    +0.000 A 
ATOM      9  C   UNL     1       7.606  -2.704  -0.910  0.00  0.00    +0.000 A 
ATOM     10  C   UNL     1       8.237  -3.942  -1.061  0.00  0.00    +0.000 A 
ATOM     11  C   UNL     1       7.807  -5.040  -0.320  0.00  0.00    +0.000 A 
ATOM     12  C   UNL     1       6.753  -4.908   0.583  0.00  0.00    +0.000 A 
ATOM     13  C   UNL     1       6.101  -3.685   0.713  0.00  0.00    +0.000 A 
ENDBRANCH   5   8
BRANCH   2  14
ATOM     14  N   UNL     1       3.740   2.339   0.267  0.00  0.00    +0.000 N 
ATOM     15  C   UNL     1       4.282   3.612   0.425  0.00  0.00    +0.000 C 
ATOM     16  O   UNL     1       5.485   3.872   0.380  0.00  0.00    +0.000 OA
ATOM     17  H   UNL     1       2.721   2.332   0.292  0.00  0.00    +0.000 HD
BRANCH  15  18
ATOM     18  C   UNL     1       3.288   4.771   0.557  0.00  0.00    +0.000 C 
BRANCH  18  19
ATOM     19  S   UNL     1       1.740   4.313   1.400  0.00  0.00    +0.000 S 
BRANCH  19  20
ATOM     20  C   UNL     1       0.835   5.861   1.528  0.00  0.00    +0.000 A 
ATOM     21  C   UNL     1      -0.435   5.792   2.136  0.00  0.00    +0.000 A 
ATOM     22  C   UNL     1      -1.232   6.933   2.288  0.00  0.00    +0.000 A 
ATOM     23  C   UNL     1      -0.767   8.156   1.836  0.00  0.00    +0.000 A 
ATOM     24  F   UNL     1      -1.527   9.251   1.975  0.00  0.00    +0.000 F 
ATOM     25  C   UNL     1       0.482   8.244   1.239  0.00  0.00    +0.000 A 
ATOM     26  F   UNL     1       0.936   9.428   0.804  0.00  0.00    +0.000 F 
ATOM     27  C   UNL     1       1.286   7.109   1.083  0.00  0.00    +0.000 A 
ENDBRANCH  19  20
ENDBRANCH  18  19
ENDBRANCH  15  18
ENDBRANCH   2  14
BRANCH   1  29
ATOM     28  N   UNL     1       0.941  -0.062  -0.052  0.00  0.00    +0.000 NA
ATOM     29  C   UNL     1       2.202  -0.062  -0.052  0.00  0.00    +0.000 C 
ENDBRANCH   1  29
TORSDOF 6
