REMARK  Name = 
REMARK  5 active torsions:
REMARK  status: ('A' for Active; 'I' for Inactive)
REMARK    1  A    between atoms: C_1  and  N_2
REMARK    2  A    between atoms: C_4  and  C_5
REMARK    3  A    between atoms: C_8  and  N_9
REMARK    4  A    between atoms: C_10  and  C_12
REMARK    5  A    between atoms: C_15  and  N_16
REMARK                            x       y       z     vdW  Elec       q    Type
REMARK                         _______ _______ _______ _____ _____    ______ ____
ROOT
ATOM      1  C   UNL     1       7.413   3.859   0.411  0.00  0.00    +0.000 A 
ATOM      2  C   UNL     1       6.739   5.031   0.705  0.00  0.00    +0.000 A 
ATOM      3  C   UNL     1       7.254   6.202   0.191  0.00  0.00    +0.000 A 
ATOM      4  C   UNL     1       8.427   6.196  -0.600  0.00  0.00    +0.000 A 
ATOM      5  C   UNL     1       9.217   5.052  -0.647  0.00  0.00    +0.000 A 
ATOM      6  C   UNL     1       8.687   3.868  -0.173  0.00  0.00    +0.000 A 
ENDROOT
BRANCH   4   7
ATOM      7  N   UNL     1       8.785   7.367  -1.307  0.00  0.00    +0.000 N 
ATOM      8  C   UNL     1      10.095   7.703  -1.512  0.00  0.00    +0.000 A 
ATOM      9  N   UNL     1      10.562   8.875  -1.212  0.00  0.00    +0.000 NA
ATOM     10  C   UNL     1       9.646   9.695  -0.516  0.00  0.00    +0.000 A 
ATOM     11  C   UNL     1      10.094  10.481   0.540  0.00  0.00    +0.000 A 
ATOM     12  C   UNL     1       9.165  11.099   1.387  0.00  0.00    +0.000 A 
ATOM     13  C   UNL     1       7.788  10.992   1.152  0.00  0.00    +0.000 A 
ATOM     14  C   UNL     1       7.327  10.240   0.086  0.00  0.00    +0.000 A 
ATOM     15  C   UNL     1       8.269   9.575  -0.702  0.00  0.00    +0.000 A 
ATOM     16  C   UNL     1       7.847   8.379  -1.426  0.00  0.00    +0.000 A 
ATOM     17  O   UNL     1       6.730   8.277  -1.922  0.00  0.00    +0.000 OA
ENDBRANCH   4   7
BRANCH   1  19
ATOM     18  N   UNL     1       5.414   2.503   0.361  0.00  0.00    +0.000 N 
ATOM     19  C   UNL     1       6.787   2.555   0.599  0.00  0.00    +0.000 C 
ATOM     20  O   UNL     1       7.540   1.626   0.841  0.00  0.00    +0.000 OA
ATOM     21  H   UNL     1       4.876   3.345   0.203  0.00  0.00    +0.000 HD
BRANCH  18  27
ATOM     22  C   UNL     1       1.079   0.140  -0.002  0.00  0.00    +0.000 C 
ATOM     23  N   UNL     1       2.530   0.157   0.093  0.00  0.00    +0.000 N 
ATOM     24  C   UNL     1       3.219  -1.046   0.151  0.00  0.00    +0.000 A 
ATOM     25  C   UNL     1       4.555  -1.056   0.230  0.00  0.00    +0.000 A 
ATOM     26  C   UNL     1       5.297   0.141   0.260  0.00  0.00    +0.000 A 
ATOM     27  C   UNL     1       4.704   1.335   0.267  0.00  0.00    +0.000 A 
ATOM     28  C   UNL     1       3.198   1.393   0.134  0.00  0.00    +0.000 A 
ATOM     29  O   UNL     1       2.627   2.490   0.072  0.00  0.00    +0.000 OA
BRANCH  25  30
ATOM     30  C   UNL     1       5.354  -2.344   0.338  0.00  0.00    +0.000 C 
ATOM     31  N   UNL     1       6.016  -3.413   0.427  0.00  0.00    +0.000 NA
ENDBRANCH  25  30
ENDBRANCH  18  27
ENDBRANCH   1  19
TORSDOF 4
