REMARK  Name = 
REMARK  6 active torsions:
REMARK  status: ('A' for Active; 'I' for Inactive)
REMARK    1  A    between atoms: O_1  and  C_2
REMARK    2  A    between atoms: C_4  and  O_5
REMARK    3  A    between atoms: C_8  and  C_9
REMARK    4  A    between atoms: C_14  and  C_15
REMARK    5  A    between atoms: C_15  and  O_16
REMARK    6  A    between atoms: C_15  and  C_17
REMARK                            x       y       z     vdW  Elec       q    Type
REMARK                         _______ _______ _______ _____ _____    ______ ____
ROOT
ATOM      1  C   UNL     1       8.710  -1.140  -0.320  0.00  0.00    +0.000 A 
ATOM      2  C   UNL     1       9.476  -1.581  -1.412  0.00  0.00    +0.000 A 
ATOM      3  C   UNL     1      10.857  -1.709  -1.309  0.00  0.00    +0.000 A 
ATOM      4  C   UNL     1      11.484  -1.431  -0.100  0.00  0.00    +0.000 A 
ATOM      5  F   UNL     1      12.804  -1.638  -0.006  0.00  0.00    +0.000 F 
ATOM      6  C   UNL     1      10.768  -1.011   1.025  0.00  0.00    +0.000 A 
ATOM      7  C   UNL     1       9.386  -0.807   0.876  0.00  0.00    +0.000 A 
ENDROOT
BRANCH   1  13
ATOM      8  C   UNL     1       2.419  -1.884  -1.211  0.00  0.00    +0.000 A 
ATOM      9  N   UNL     1       2.962  -2.934  -1.840  0.00  0.00    +0.000 NA
ATOM     10  C   UNL     1       4.295  -2.959  -1.783  0.00  0.00    +0.000 A 
ATOM     11  C   UNL     1       5.094  -2.016  -1.141  0.00  0.00    +0.000 A 
ATOM     12  C   UNL     1       6.506  -2.064  -1.083  0.00  0.00    +0.000 A 
ATOM     13  C   UNL     1       7.238  -1.082  -0.393  0.00  0.00    +0.000 A 
ATOM     14  C   UNL     1       6.506  -0.069   0.240  0.00  0.00    +0.000 A 
ATOM     15  C   UNL     1       5.113  -0.023   0.165  0.00  0.00    +0.000 A 
ATOM     16  C   UNL     1       4.388  -0.988  -0.523  0.00  0.00    +0.000 A 
ATOM     17  N   UNL     1       3.053  -0.908  -0.559  0.00  0.00    +0.000 NA
BRANCH  10  18
ATOM     18  O   UNL     1       4.847  -4.028  -2.414  0.00  0.00    +0.000 OA
ATOM     19  H   UNL     1       4.051  -4.494  -2.723  0.00  0.00    +0.000 HD
ENDBRANCH  10  18
BRANCH   8  20
ATOM     20  O   UNL     1       1.069  -1.844  -1.230  0.00  0.00    +0.000 OA
ATOM     21  H   UNL     1       0.887  -2.672  -1.702  0.00  0.00    +0.000 HD
ENDBRANCH   8  20
ENDBRANCH   1  13
BRANCH   6  22
ATOM     22  C   UNL     1      11.426  -0.863   2.392  0.00  0.00    +0.000 C 
BRANCH  22  23
ATOM     23  C   UNL     1      11.960   0.527   2.680  0.00  0.00    +0.000 A 
ATOM     24  C   UNL     1      11.143   1.486   3.301  0.00  0.00    +0.000 A 
ATOM     25  C   UNL     1      11.561   2.814   3.411  0.00  0.00    +0.000 A 
ATOM     26  C   UNL     1      12.817   3.192   2.941  0.00  0.00    +0.000 A 
ATOM     27  C   UNL     1      13.675   2.234   2.408  0.00  0.00    +0.000 A 
ATOM     28  C   UNL     1      13.250   0.911   2.279  0.00  0.00    +0.000 A 
ENDBRANCH  22  23
BRANCH  22  29
ATOM     29  O   UNL     1      12.467  -1.825   2.579  0.00  0.00    +0.000 OA
ATOM     30  H   UNL     1      12.920  -1.918   1.722  0.00  0.00    +0.000 HD
ENDBRANCH  22  29
ENDBRANCH   6  22
TORSDOF 6
