REMARK  Name = 
REMARK  2 active torsions:
REMARK  status: ('A' for Active; 'I' for Inactive)
REMARK    1  A    between atoms: C_2  and  C_18
REMARK    2  A    between atoms: C_9  and  C_10
REMARK                            x       y       z     vdW  Elec       q    Type
REMARK                         _______ _______ _______ _____ _____    ______ ____
ROOT
ATOM      1  O   UNL     1       0.929  -0.106  -0.090  0.00  0.00    +0.000 OA
ATOM      2  C   UNL     1       2.144   0.005   0.062  0.00  0.00    +0.000 C 
ATOM      3  N   UNL     1       2.854  -0.325   1.209  0.00  0.00    +0.000 N 
ATOM      4  C   UNL     1       2.258  -0.850   2.361  0.00  0.00    +0.000 A 
ATOM      5  N   UNL     1       1.018  -1.359   2.282  0.00  0.00    +0.000 NA
ATOM      6  C   UNL     1       0.409  -1.819   3.381  0.00  0.00    +0.000 A 
ATOM      7  C   UNL     1      -0.866  -2.352   3.267  0.00  0.00    +0.000 A 
ATOM      8  C   UNL     1      -1.557  -2.849   4.375  0.00  0.00    +0.000 A 
ATOM      9  C   UNL     1      -0.976  -2.809   5.646  0.00  0.00    +0.000 A 
ATOM     10  C   UNL     1       0.314  -2.266   5.775  0.00  0.00    +0.000 A 
ATOM     11  C   UNL     1       1.014  -1.784   4.647  0.00  0.00    +0.000 A 
ATOM     12  C   UNL     1       2.317  -1.267   4.718  0.00  0.00    +0.000 A 
ATOM     13  C   UNL     1       2.955  -0.815   3.560  0.00  0.00    +0.000 A 
ATOM     14  H   UNL     1       3.832  -0.055   1.225  0.00  0.00    +0.000 HD
ENDROOT
BRANCH   2  15
ATOM     15  C   UNL     1       2.975   0.632  -0.989  0.00  0.00    +0.000 A 
ATOM     16  N   UNL     1       4.310   0.755  -0.881  0.00  0.00    +0.000 NA
ATOM     17  N   UNL     1       4.620   1.548  -1.940  0.00  0.00    +0.000 N 
ATOM     18  C   UNL     1       5.924   2.036  -2.193  0.00  0.00    +0.000 A 
ATOM     19  N   UNL     1       6.091   2.947  -3.203  0.00  0.00    +0.000 NA
ATOM     20  C   UNL     1       7.349   3.406  -3.411  0.00  0.00    +0.000 A 
ATOM     21  C   UNL     1       8.452   2.993  -2.679  0.00  0.00    +0.000 A 
ATOM     22  C   UNL     1       8.259   2.065  -1.662  0.00  0.00    +0.000 A 
ATOM     23  C   UNL     1       6.979   1.592  -1.407  0.00  0.00    +0.000 A 
ATOM     24  F   UNL     1       6.827   0.709  -0.410  0.00  0.00    +0.000 F 
ATOM     25  C   UNL     1       3.487   1.824  -2.661  0.00  0.00    +0.000 A 
ATOM     26  N   UNL     1       2.450   1.241  -2.110  0.00  0.00    +0.000 NA
ENDBRANCH   2  15
BRANCH   9  27
ATOM     27  C   UNL     1      -1.708  -3.349   6.850  0.00  0.00    +0.000 C 
ATOM     28  F   UNL     1      -2.941  -3.851   6.559  0.00  0.00    +0.000 F 
ATOM     29  F   UNL     1      -1.030  -4.360   7.460  0.00  0.00    +0.000 F 
ATOM     30  F   UNL     1      -1.909  -2.402   7.808  0.00  0.00    +0.000 F 
ENDBRANCH   9  27
TORSDOF 2
