REMARK  Name = 
REMARK  6 active torsions:
REMARK  status: ('A' for Active; 'I' for Inactive)
REMARK    1  A    between atoms: C_2  and  C_3
REMARK    2  A    between atoms: C_3  and  N_4
REMARK    3  A    between atoms: C_5  and  C_7
REMARK    4  A    between atoms: N_16  and  C_17
REMARK    5  A    between atoms: C_17  and  C_18
REMARK    6  A    between atoms: C_23  and  C_24
REMARK                            x       y       z     vdW  Elec       q    Type
REMARK                         _______ _______ _______ _____ _____    ______ ____
ROOT
ATOM      1  O   UNL     1       2.702  -0.519  -0.951  0.00  0.00    +0.000 OA
ATOM      2  C   UNL     1       2.129   0.049  -0.023  0.00  0.00    +0.000 C 
ATOM      3  N   UNL     1       2.791   0.736   0.965  0.00  0.00    +0.000 N 
ATOM      4  H   UNL     1       2.284   1.449   1.493  0.00  0.00    +0.000 HD
ENDROOT
BRANCH   2   5
ATOM      5  C   UNL     1       0.604   0.113   0.073  0.00  0.00    +0.000 C 
BRANCH   5   6
ATOM      6  N   UNL     1       0.059   1.201  -0.717  0.00  0.00    +0.000 N 
ATOM      7  C   UNL     1      -0.100   2.448  -0.156  0.00  0.00    +0.000 C 
ATOM      8  O   UNL     1       0.214   2.670   1.012  0.00  0.00    +0.000 OA
ATOM      9  H   UNL     1       0.059   1.103  -1.724  0.00  0.00    +0.000 HD
BRANCH   7  10
ATOM     10  C   UNL     1      -0.662   3.525  -1.018  0.00  0.00    +0.000 A 
ATOM     11  C   UNL     1      -1.553   3.237  -2.070  0.00  0.00    +0.000 A 
ATOM     12  C   UNL     1      -2.118   4.260  -2.834  0.00  0.00    +0.000 A 
ATOM     13  C   UNL     1      -1.819   5.601  -2.578  0.00  0.00    +0.000 A 
ATOM     14  C   UNL     1      -0.937   5.880  -1.530  0.00  0.00    +0.000 A 
ATOM     15  C   UNL     1      -0.352   4.881  -0.742  0.00  0.00    +0.000 A 
ATOM     16  C   UNL     1       0.473   5.552   0.212  0.00  0.00    +0.000 A 
ATOM     17  C   UNL     1       0.365   6.907  -0.004  0.00  0.00    +0.000 A 
ATOM     18  N   UNL     1      -0.486   7.094  -1.058  0.00  0.00    +0.000 N 
ATOM     19  H   UNL     1      -0.755   7.992  -1.435  0.00  0.00    +0.000 HD
ENDBRANCH   7  10
ENDBRANCH   5   6
ENDBRANCH   2   5
BRANCH   3  20
ATOM     20  C   UNL     1       4.231   0.891   0.937  0.00  0.00    +0.000 C 
BRANCH  20  21
ATOM     21  C   UNL     1       4.761   1.791   2.040  0.00  0.00    +0.000 A 
ATOM     22  N   UNL     1       3.776   2.383   2.789  0.00  0.00    +0.000 NA
ATOM     23  C   UNL     1       4.131   3.154   3.831  0.00  0.00    +0.000 A 
ATOM     24  C   UNL     1       5.440   3.381   4.185  0.00  0.00    +0.000 A 
ATOM     25  C   UNL     1       6.441   2.805   3.403  0.00  0.00    +0.000 A 
ATOM     26  C   UNL     1       6.142   1.991   2.286  0.00  0.00    +0.000 A 
BRANCH  26  27
ATOM     27  C   UNL     1       7.260   1.400   1.487  0.00  0.00    +0.000 A 
ATOM     28  C   UNL     1       8.479   1.019   2.090  0.00  0.00    +0.000 A 
ATOM     29  C   UNL     1       9.522   0.439   1.353  0.00  0.00    +0.000 A 
ATOM     30  C   UNL     1       9.351   0.193   0.001  0.00  0.00    +0.000 A 
ATOM     31  F   UNL     1      10.327  -0.397  -0.700  0.00  0.00    +0.000 F 
ATOM     32  C   UNL     1       8.184   0.571  -0.636  0.00  0.00    +0.000 A 
ATOM     33  C   UNL     1       7.177   1.210   0.094  0.00  0.00    +0.000 A 
ENDBRANCH  26  27
ENDBRANCH  20  21
ENDBRANCH   3  20
TORSDOF 6
