REMARK  Name = 
REMARK  6 active torsions:
REMARK  status: ('A' for Active; 'I' for Inactive)
REMARK    1  A    between atoms: C_2  and  C_16
REMARK    2  A    between atoms: N_3  and  C_4
REMARK    3  A    between atoms: C_4  and  C_5
REMARK    4  A    between atoms: C_8  and  C_9
REMARK    5  A    between atoms: C_18  and  C_19
REMARK    6  A    between atoms: C_28  and  O_29
REMARK                            x       y       z     vdW  Elec       q    Type
REMARK                         _______ _______ _______ _____ _____    ______ ____
ROOT
ATOM      1  O   UNL     1       1.147  -0.102  -0.197  0.00  0.00    +0.000 OA
ATOM      2  C   UNL     1       2.361   0.059  -0.116  0.00  0.00    +0.000 C 
ATOM      3  N   UNL     1       2.994   1.144  -0.665  0.00  0.00    +0.000 N 
ATOM      4  H   UNL     1       3.987   1.296  -0.494  0.00  0.00    +0.000 HD
ENDROOT
BRANCH   2   5
ATOM      5  C   UNL     1       3.201  -0.953   0.577  0.00  0.00    +0.000 A 
ATOM      6  C   UNL     1       2.579  -2.096   1.103  0.00  0.00    +0.000 A 
ATOM      7  C   UNL     1       3.319  -3.117   1.723  0.00  0.00    +0.000 A 
ATOM      8  C   UNL     1       4.700  -2.900   1.780  0.00  0.00    +0.000 A 
ATOM      9  N   UNL     1       5.345  -1.800   1.311  0.00  0.00    +0.000 NA
ATOM     10  C   UNL     1       4.573  -0.866   0.730  0.00  0.00    +0.000 A 
BRANCH   7  11
ATOM     11  C   UNL     1       2.680  -4.337   2.267  0.00  0.00    +0.000 A 
ATOM     12  C   UNL     1       1.517  -4.879   1.681  0.00  0.00    +0.000 A 
ATOM     13  C   UNL     1       0.894  -6.020   2.202  0.00  0.00    +0.000 A 
ATOM     14  C   UNL     1       1.424  -6.660   3.318  0.00  0.00    +0.000 A 
ATOM     15  C   UNL     1       2.577  -6.158   3.910  0.00  0.00    +0.000 A 
ATOM     16  C   UNL     1       3.186  -5.014   3.392  0.00  0.00    +0.000 A 
ATOM     17  F   UNL     1       4.282  -4.563   4.022  0.00  0.00    +0.000 F 
ENDBRANCH   7  11
BRANCH  10  18
ATOM     18  O   UNL     1       5.302   0.198   0.308  0.00  0.00    +0.000 OA
ATOM     19  H   UNL     1       6.189  -0.077   0.608  0.00  0.00    +0.000 HD
ENDBRANCH  10  18
ENDBRANCH   2   5
BRANCH   3  20
ATOM     20  C   UNL     1       2.254   2.189  -1.329  0.00  0.00    +0.000 C 
BRANCH  20  21
ATOM     21  C   UNL     1       3.173   3.214  -1.898  0.00  0.00    +0.000 A 
ATOM     22  N   UNL     1       4.326   3.545  -1.293  0.00  0.00    +0.000 NA
ATOM     23  O   UNL     1       4.878   4.553  -2.066  0.00  0.00    +0.000 OA
ATOM     24  C   UNL     1       4.059   4.826  -3.120  0.00  0.00    +0.000 A 
ATOM     25  C   UNL     1       2.975   3.983  -3.066  0.00  0.00    +0.000 A 
BRANCH  24  26
ATOM     26  C   UNL     1       4.450   5.910  -4.004  0.00  0.00    +0.000 A 
ATOM     27  C   UNL     1       5.638   6.619  -3.858  0.00  0.00    +0.000 A 
ATOM     28  C   UNL     1       5.885   7.692  -4.711  0.00  0.00    +0.000 A 
ATOM     29  C   UNL     1       4.948   8.021  -5.683  0.00  0.00    +0.000 A 
ATOM     30  C   UNL     1       3.801   7.251  -5.772  0.00  0.00    +0.000 A 
ATOM     31  N   UNL     1       3.532   6.207  -4.959  0.00  0.00    +0.000 NA
ENDBRANCH  24  26
ENDBRANCH  20  21
ENDBRANCH   3  20
TORSDOF 6
