REMARK  Name = 
REMARK  5 active torsions:
REMARK  status: ('A' for Active; 'I' for Inactive)
REMARK    1  A    between atoms: C_2  and  C_16
REMARK    2  A    between atoms: N_3  and  C_4
REMARK    3  A    between atoms: C_8  and  C_9
REMARK    4  A    between atoms: C_21  and  O_22
REMARK    5  A    between atoms: O_22  and  C_23
REMARK                            x       y       z     vdW  Elec       q    Type
REMARK                         _______ _______ _______ _____ _____    ______ ____
ROOT
ATOM      1  O   UNL     1       0.957  -0.291  -0.179  0.00  0.00    +0.000 OA
ATOM      2  C   UNL     1       2.150  -0.007  -0.118  0.00  0.00    +0.000 C 
ATOM      3  N   UNL     1       2.675   1.264   0.046  0.00  0.00    +0.000 N 
ATOM      4  H   UNL     1       3.683   1.355   0.077  0.00  0.00    +0.000 HD
ENDROOT
BRANCH   3   5
ATOM      5  C   UNL     1       1.939   2.474   0.112  0.00  0.00    +0.000 A 
ATOM      6  C   UNL     1       0.542   2.525   0.120  0.00  0.00    +0.000 A 
ATOM      7  C   UNL     1      -0.134   3.737   0.265  0.00  0.00    +0.000 A 
ATOM      8  C   UNL     1       0.580   4.923   0.382  0.00  0.00    +0.000 A 
ATOM      9  C   UNL     1       1.976   4.902   0.322  0.00  0.00    +0.000 A 
ATOM     10  C   UNL     1       2.653   3.678   0.194  0.00  0.00    +0.000 A 
BRANCH   9  11
ATOM     11  C   UNL     1       2.747   6.148   0.455  0.00  0.00    +0.000 A 
ATOM     12  N   UNL     1       4.002   6.225   0.805  0.00  0.00    +0.000 NA
ATOM     13  N   UNL     1       4.255   7.574   0.823  0.00  0.00    +0.000 N 
ATOM     14  C   UNL     1       3.123   8.291   0.474  0.00  0.00    +0.000 A 
ATOM     15  O   UNL     1       2.990   9.499   0.418  0.00  0.00    +0.000 OA
ATOM     16  N   UNL     1       2.168   7.355   0.222  0.00  0.00    +0.000 N 
ATOM     17  H   UNL     1       5.138   7.967   1.118  0.00  0.00    +0.000 HD
ATOM     18  H   UNL     1       1.236   7.580  -0.074  0.00  0.00    +0.000 HD
ENDBRANCH   9  11
ENDBRANCH   3   5
BRANCH   2  19
ATOM     19  C   UNL     1       3.107  -1.147  -0.222  0.00  0.00    +0.000 A 
ATOM     20  C   UNL     1       2.624  -2.352   0.321  0.00  0.00    +0.000 A 
ATOM     21  C   UNL     1       3.408  -3.488   0.261  0.00  0.00    +0.000 A 
ATOM     22  N   UNL     1       4.629  -3.509  -0.294  0.00  0.00    +0.000 NA
ATOM     23  C   UNL     1       5.075  -2.345  -0.823  0.00  0.00    +0.000 A 
ATOM     24  C   UNL     1       4.363  -1.147  -0.841  0.00  0.00    +0.000 A 
BRANCH  24  25
ATOM     25  O   UNL     1       5.042  -0.103  -1.414  0.00  0.00    +0.000 OA
BRANCH  25  26
ATOM     26  C   UNL     1       4.426   0.760  -2.288  0.00  0.00    +0.000 A 
ATOM     27  C   UNL     1       5.008   2.033  -2.357  0.00  0.00    +0.000 A 
ATOM     28  C   UNL     1       4.374   3.053  -3.062  0.00  0.00    +0.000 A 
ATOM     29  C   UNL     1       3.171   2.787  -3.706  0.00  0.00    +0.000 A 
ATOM     30  F   UNL     1       2.520   3.782  -4.322  0.00  0.00    +0.000 F 
ATOM     31  C   UNL     1       2.625   1.508  -3.706  0.00  0.00    +0.000 A 
ATOM     32  C   UNL     1       3.273   0.476  -3.024  0.00  0.00    +0.000 A 
ENDBRANCH  25  26
ENDBRANCH  24  25
ENDBRANCH   2  19
TORSDOF 5
