REMARK  Name = 
REMARK  4 active torsions:
REMARK  status: ('A' for Active; 'I' for Inactive)
REMARK    1  A    between atoms: C_2  and  C_24
REMARK    2  A    between atoms: N_3  and  C_4
REMARK    3  A    between atoms: C_8  and  N_9
REMARK    4  A    between atoms: C_10  and  C_12
REMARK                            x       y       z     vdW  Elec       q    Type
REMARK                         _______ _______ _______ _____ _____    ______ ____
ROOT
ATOM      1  C   UNL     1       2.110  -1.992   1.378  0.00  0.00    +0.000 A 
ATOM      2  C   UNL     1       0.978  -2.553   0.783  0.00  0.00    +0.000 A 
ATOM      3  C   UNL     1       0.368  -3.672   1.335  0.00  0.00    +0.000 A 
ATOM      4  C   UNL     1       0.916  -4.274   2.462  0.00  0.00    +0.000 A 
ATOM      5  C   UNL     1       2.099  -3.794   3.030  0.00  0.00    +0.000 A 
ATOM      6  C   UNL     1       2.676  -2.625   2.502  0.00  0.00    +0.000 A 
ENDROOT
BRANCH   1   9
ATOM      7  O   UNL     1       1.028  -0.031  -0.515  0.00  0.00    +0.000 OA
ATOM      8  C   UNL     1       2.153   0.064  -0.036  0.00  0.00    +0.000 C 
ATOM      9  N   UNL     1       2.716  -0.814   0.878  0.00  0.00    +0.000 N 
ATOM     10  H   UNL     1       3.587  -0.536   1.308  0.00  0.00    +0.000 HD
BRANCH   8  11
ATOM     11  C   UNL     1       2.971   1.198  -0.390  0.00  0.00    +0.000 A 
ATOM     12  C   UNL     1       4.288   1.545  -0.182  0.00  0.00    +0.000 A 
ATOM     13  C   UNL     1       4.417   2.805  -0.791  0.00  0.00    +0.000 A 
ATOM     14  F   UNL     1       5.534   3.486  -0.795  0.00  0.00    +0.000 F 
ATOM     15  N   UNL     1       3.296   3.244  -1.344  0.00  0.00    +0.000 NA
ATOM     16  N   UNL     1       2.441   2.240  -1.123  0.00  0.00    +0.000 N 
ATOM     17  H   UNL     1       1.487   2.298  -1.468  0.00  0.00    +0.000 HD
ENDBRANCH   8  11
ENDBRANCH   1   9
BRANCH   5  18
ATOM     18  N   UNL     1       2.735  -4.454   4.114  0.00  0.00    +0.000 N 
ATOM     19  C   UNL     1       2.505  -5.776   4.472  0.00  0.00    +0.000 C 
ATOM     20  O   UNL     1       1.750  -6.545   3.880  0.00  0.00    +0.000 OA
ATOM     21  H   UNL     1       3.489  -3.960   4.581  0.00  0.00    +0.000 HD
BRANCH  19  22
ATOM     22  C   UNL     1       3.219  -6.331   5.654  0.00  0.00    +0.000 A 
ATOM     23  C   UNL     1       2.979  -7.678   5.974  0.00  0.00    +0.000 A 
ATOM     24  C   UNL     1       3.461  -8.236   7.166  0.00  0.00    +0.000 A 
ATOM     25  C   UNL     1       3.240  -9.570   7.508  0.00  0.00    +0.000 A 
ATOM     26  N   UNL     1       3.474 -10.084   8.734  0.00  0.00    +0.000 NA
ATOM     27  C   UNL     1       3.990  -9.240   9.650  0.00  0.00    +0.000 A 
ATOM     28  C   UNL     1       4.397  -7.944   9.364  0.00  0.00    +0.000 A 
ATOM     29  C   UNL     1       4.145  -7.425   8.087  0.00  0.00    +0.000 A 
ATOM     30  C   UNL     1       4.508  -6.121   7.697  0.00  0.00    +0.000 A 
ATOM     31  C   UNL     1       4.051  -5.590   6.487  0.00  0.00    +0.000 A 
ATOM     32  F   UNL     1       4.408  -4.337   6.163  0.00  0.00    +0.000 F 
ENDBRANCH  19  22
ENDBRANCH   5  18
TORSDOF 4
