REMARK  Name = 
REMARK  5 active torsions:
REMARK  status: ('A' for Active; 'I' for Inactive)
REMARK    1  A    between atoms: C_1  and  N_2
REMARK    2  A    between atoms: N_2  and  C_25
REMARK    3  A    between atoms: C_3  and  C_5
REMARK    4  A    between atoms: C_9  and  C_10
REMARK    5  A    between atoms: N_15  and  C_16
REMARK                            x       y       z     vdW  Elec       q    Type
REMARK                         _______ _______ _______ _____ _____    ______ ____
ROOT
ATOM      1  C   UNL     1       2.445   2.633  -0.388  0.00  0.00    +0.000 A 
ATOM      2  C   UNL     1       1.499   3.090   0.535  0.00  0.00    +0.000 A 
ATOM      3  C   UNL     1       0.851   4.314   0.342  0.00  0.00    +0.000 A 
ATOM      4  C   UNL     1       1.233   5.148  -0.705  0.00  0.00    +0.000 A 
ATOM      5  C   UNL     1       2.270   4.771  -1.565  0.00  0.00    +0.000 A 
ATOM      6  C   UNL     1       2.858   3.511  -1.413  0.00  0.00    +0.000 A 
ENDROOT
BRANCH   5   7
ATOM      7  C   UNL     1       2.759   5.776  -2.548  0.00  0.00    +0.000 C 
ATOM      8  O   UNL     1       2.599   6.957  -2.256  0.00  0.00    +0.000 OA
ATOM      9  N   UNL     1       3.332   5.278  -3.701  0.00  0.00    +0.000 N 
ATOM     10  C   UNL     1       3.836   6.087  -4.706  0.00  0.00    +0.000 A 
ATOM     11  N   UNL     1       3.882   7.416  -4.664  0.00  0.00    +0.000 NA
ATOM     12  N   UNL     1       4.417   7.755  -5.852  0.00  0.00    +0.000 N 
ATOM     13  N   UNL     1       4.739   6.719  -6.676  0.00  0.00    +0.000 NA
ATOM     14  C   UNL     1       4.381   5.667  -5.936  0.00  0.00    +0.000 A 
ATOM     15  H   UNL     1       3.350   4.285  -3.875  0.00  0.00    +0.000 HD
BRANCH  12  16
ATOM     16  C   UNL     1       4.613   9.103  -6.197  0.00  0.00    +0.000 A 
ATOM     17  C   UNL     1       4.315  10.128  -5.291  0.00  0.00    +0.000 A 
ATOM     18  C   UNL     1       4.524  11.451  -5.665  0.00  0.00    +0.000 A 
ATOM     19  C   UNL     1       5.023  11.700  -6.934  0.00  0.00    +0.000 A 
ATOM     20  N   UNL     1       5.323  10.733  -7.833  0.00  0.00    +0.000 NA
ATOM     21  C   UNL     1       5.114   9.452  -7.446  0.00  0.00    +0.000 A 
ENDBRANCH  12  16
ENDBRANCH   5   7
BRANCH   1  24
ATOM     22  C   UNL     1       1.090   0.057   0.512  0.00  0.00    +0.000 C 
ATOM     23  N   UNL     1       2.507   0.119   0.137  0.00  0.00    +0.000 N 
ATOM     24  C   UNL     1       3.137   1.302  -0.330  0.00  0.00    +0.000 C 
ATOM     25  O   UNL     1       4.275   1.336  -0.810  0.00  0.00    +0.000 OA
BRANCH  23  26
ATOM     26  C   UNL     1       3.231  -1.154   0.186  0.00  0.00    +0.000 A 
ATOM     27  C   UNL     1       4.630  -1.238   0.095  0.00  0.00    +0.000 A 
ATOM     28  C   UNL     1       5.304  -2.469   0.092  0.00  0.00    +0.000 A 
ATOM     29  C   UNL     1       4.597  -3.657   0.197  0.00  0.00    +0.000 A 
ATOM     30  C   UNL     1       3.217  -3.612   0.323  0.00  0.00    +0.000 A 
ATOM     31  C   UNL     1       2.548  -2.380   0.328  0.00  0.00    +0.000 A 
ENDBRANCH  23  26
ENDBRANCH   1  24
TORSDOF 4
