REMARK  Name = 
REMARK  6 active torsions:
REMARK  status: ('A' for Active; 'I' for Inactive)
REMARK    1  A    between atoms: C_2  and  C_3
REMARK    2  A    between atoms: C_3  and  N_4
REMARK    3  A    between atoms: N_4  and  C_18
REMARK    4  A    between atoms: C_5  and  C_7
REMARK    5  A    between atoms: N_11  and  C_12
REMARK    6  A    between atoms: N_24  and  C_25
REMARK                            x       y       z     vdW  Elec       q    Type
REMARK                         _______ _______ _______ _____ _____    ______ ____
ROOT
ATOM      1  N   UNL     1       2.052   2.113   1.071  0.00  0.00    +0.000 N 
ATOM      2  C   UNL     1       0.664   1.811   1.013  0.00  0.00    +0.000 C 
ATOM      3  O   UNL     1      -0.181   2.690   1.215  0.00  0.00    +0.000 OA
ENDROOT
BRANCH   1   4
ATOM      4  C   UNL     1       2.533   3.300   1.755  0.00  0.00    +0.000 A 
ATOM      5  C   UNL     1       1.810   3.893   2.803  0.00  0.00    +0.000 A 
ATOM      6  C   UNL     1       2.332   4.965   3.541  0.00  0.00    +0.000 A 
ATOM      7  C   UNL     1       3.585   5.480   3.235  0.00  0.00    +0.000 A 
ATOM      8  C   UNL     1       4.311   4.929   2.185  0.00  0.00    +0.000 A 
ATOM      9  C   UNL     1       3.792   3.850   1.456  0.00  0.00    +0.000 A 
ENDBRANCH   1   4
BRANCH   2  10
ATOM     10  C   UNL     1       0.214   0.469   0.676  0.00  0.00    +0.000 A 
ATOM     11  C   UNL     1       0.581  -0.346  -0.385  0.00  0.00    +0.000 A 
ATOM     12  C   UNL     1      -0.255  -1.461  -0.340  0.00  0.00    +0.000 A 
ATOM     13  N   UNL     1      -1.149  -1.365   0.631  0.00  0.00    +0.000 NA
ATOM     14  N   UNL     1      -0.871  -0.190   1.267  0.00  0.00    +0.000 N 
BRANCH  14  15
ATOM     15  C   UNL     1      -1.677   0.151   2.393  0.00  0.00    +0.000 A 
ATOM     16  C   UNL     1      -1.233   0.984   3.416  0.00  0.00    +0.000 A 
ATOM     17  C   UNL     1      -2.113   1.274   4.448  0.00  0.00    +0.000 A 
ATOM     18  N   UNL     1      -3.371   0.791   4.533  0.00  0.00    +0.000 NA
ATOM     19  C   UNL     1      -3.769  -0.034   3.544  0.00  0.00    +0.000 A 
ATOM     20  C   UNL     1      -2.967  -0.392   2.476  0.00  0.00    +0.000 A 
ENDBRANCH  14  15
ENDBRANCH   2  10
BRANCH   1  21
ATOM     21  C   UNL     1       3.086   1.130   0.694  0.00  0.00    +0.000 C 
BRANCH  21  23
ATOM     22  O   UNL     1       4.116   0.072  -1.185  0.00  0.00    +0.000 OA
ATOM     23  C   UNL     1       3.417   1.012  -0.801  0.00  0.00    +0.000 C 
ATOM     24  N   UNL     1       2.941   2.017  -1.626  0.00  0.00    +0.000 N 
ATOM     25  H   UNL     1       2.747   2.910  -1.186  0.00  0.00    +0.000 HD
BRANCH  24  26
ATOM     26  C   UNL     1       3.196   2.016  -3.016  0.00  0.00    +0.000 A 
ATOM     27  C   UNL     1       3.053   0.860  -3.795  0.00  0.00    +0.000 A 
ATOM     28  C   UNL     1       3.413   0.867  -5.144  0.00  0.00    +0.000 A 
ATOM     29  C   UNL     1       3.940   2.024  -5.714  0.00  0.00    +0.000 A 
ATOM     30  C   UNL     1       4.045   3.188  -4.952  0.00  0.00    +0.000 A 
ATOM     31  C   UNL     1       3.638   3.195  -3.615  0.00  0.00    +0.000 A 
ENDBRANCH  24  26
ENDBRANCH  21  23
ENDBRANCH   1  21
TORSDOF 6
