REMARK  Name = 
REMARK  6 active torsions:
REMARK  status: ('A' for Active; 'I' for Inactive)
REMARK    1  A    between atoms: C_4  and  C_5
REMARK    2  A    between atoms: N_7  and  C_8
REMARK    3  A    between atoms: C_8  and  C_9
REMARK    4  A    between atoms: C_8  and  C_18
REMARK    5  A    between atoms: C_9  and  C_11
REMARK    6  A    between atoms: C_11  and  C_12
REMARK                            x       y       z     vdW  Elec       q    Type
REMARK                         _______ _______ _______ _____ _____    ______ ____
ROOT
ATOM      1  C   UNL     1       4.224  -2.976  -1.210  0.00  0.00    +0.000 C 
ATOM      2  O   UNL     1       4.619  -3.455  -2.265  0.00  0.00    +0.000 OA
ATOM      3  N   UNL     1       4.343  -3.623   0.003  0.00  0.00    +0.000 N 
ATOM      4  H   UNL     1       4.003  -3.136   0.827  0.00  0.00    +0.000 HD
ENDROOT
BRANCH   1   8
ATOM      5  N   UNL     1       3.511   0.880   1.387  0.00  0.00    +0.000 N 
ATOM      6  C   UNL     1       3.279   0.204   0.210  0.00  0.00    +0.000 A 
ATOM      7  N   UNL     1       3.795  -1.011   0.082  0.00  0.00    +0.000 NA
ATOM      8  C   UNL     1       3.589  -1.615  -1.119  0.00  0.00    +0.000 A 
ATOM      9  C   UNL     1       2.835  -1.071  -2.167  0.00  0.00    +0.000 A 
ATOM     10  C   UNL     1       2.554  -1.663  -3.429  0.00  0.00    +0.000 A 
ATOM     11  C   UNL     1       1.734  -1.022  -4.354  0.00  0.00    +0.000 A 
ATOM     12  C   UNL     1       1.187   0.212  -4.036  0.00  0.00    +0.000 A 
ATOM     13  C   UNL     1       1.478   0.800  -2.803  0.00  0.00    +0.000 A 
ATOM     14  C   UNL     1       2.297   0.181  -1.864  0.00  0.00    +0.000 A 
ATOM     15  N   UNL     1       2.521   0.809  -0.703  0.00  0.00    +0.000 NA
ATOM     16  H   UNL     1       3.687   0.243   2.149  0.00  0.00    +0.000 HD
ATOM     17  H   UNL     1       2.801   1.588   1.526  0.00  0.00    +0.000 HD
ENDBRANCH   1   8
BRANCH   3  18
ATOM     18  C   UNL     1       4.933  -4.947   0.126  0.00  0.00    +0.000 C 
BRANCH  18  19
ATOM     19  C   UNL     1       3.921  -6.054  -0.118  0.00  0.00    +0.000 A 
ATOM     20  C   UNL     1       4.099  -6.932  -1.202  0.00  0.00    +0.000 A 
ATOM     21  C   UNL     1       3.231  -8.007  -1.406  0.00  0.00    +0.000 A 
ATOM     22  C   UNL     1       2.167  -8.217  -0.534  0.00  0.00    +0.000 A 
ATOM     23  C   UNL     1       1.961  -7.342   0.531  0.00  0.00    +0.000 A 
ATOM     24  C   UNL     1       2.827  -6.264   0.735  0.00  0.00    +0.000 A 
ENDBRANCH  18  19
BRANCH  18  25
ATOM     25  C   UNL     1       5.684  -5.071   1.467  0.00  0.00    +0.000 C 
ATOM     26  O   UNL     1       5.545  -6.029   2.233  0.00  0.00    +0.000 OA
BRANCH  25  27
ATOM     27  C   UNL     1       6.735  -4.009   1.750  0.00  0.00    +0.000 C 
BRANCH  27  28
ATOM     28  C   UNL     1       6.455  -3.179   2.978  0.00  0.00    +0.000 A 
ATOM     29  C   UNL     1       6.381  -3.776   4.245  0.00  0.00    +0.000 A 
ATOM     30  C   UNL     1       6.178  -3.001   5.387  0.00  0.00    +0.000 A 
ATOM     31  C   UNL     1       6.055  -1.618   5.278  0.00  0.00    +0.000 A 
ATOM     32  C   UNL     1       6.126  -1.012   4.025  0.00  0.00    +0.000 A 
ATOM     33  C   UNL     1       6.320  -1.786   2.880  0.00  0.00    +0.000 A 
ENDBRANCH  27  28
ENDBRANCH  25  27
ENDBRANCH  18  25
ENDBRANCH   3  18
TORSDOF 6
