REMARK  Name = 
REMARK  6 active torsions:
REMARK  status: ('A' for Active; 'I' for Inactive)
REMARK    1  A    between atoms: C_2  and  C_23
REMARK    2  A    between atoms: N_3  and  C_4
REMARK    3  A    between atoms: C_9  and  N_10
REMARK    4  A    between atoms: C_11  and  C_13
REMARK    5  A    between atoms: C_25  and  C_26
REMARK    6  A    between atoms: C_26  and  O_27
REMARK                            x       y       z     vdW  Elec       q    Type
REMARK                         _______ _______ _______ _____ _____    ______ ____
ROOT
ATOM      1  C   UNL     1       2.565  -0.938   1.945  0.00  0.00    +0.000 A 
ATOM      2  C   UNL     1       1.442  -1.781   2.000  0.00  0.00    +0.000 A 
ATOM      3  C   UNL     1       0.949  -2.214   3.228  0.00  0.00    +0.000 A 
ATOM      4  C   UNL     1       1.550  -1.775   4.401  0.00  0.00    +0.000 A 
ATOM      5  C   UNL     1       2.616  -0.872   4.351  0.00  0.00    +0.000 A 
ATOM      6  C   UNL     1       3.133  -0.425   3.129  0.00  0.00    +0.000 A 
ENDROOT
BRANCH   1   9
ATOM      7  O   UNL     1       5.320  -1.214   1.127  0.00  0.00    +0.000 OA
ATOM      8  C   UNL     1       4.433  -0.890   0.350  0.00  0.00    +0.000 C 
ATOM      9  N   UNL     1       3.092  -0.696   0.654  0.00  0.00    +0.000 N 
ATOM     10  H   UNL     1       2.455  -0.873  -0.113  0.00  0.00    +0.000 HD
BRANCH   8  11
ATOM     11  C   UNL     1       4.757  -0.751  -1.081  0.00  0.00    +0.000 A 
ATOM     12  C   UNL     1       4.124   0.202  -1.879  0.00  0.00    +0.000 A 
ATOM     13  C   UNL     1       4.432   0.282  -3.239  0.00  0.00    +0.000 A 
ATOM     14  C   UNL     1       5.405  -0.588  -3.725  0.00  0.00    +0.000 A 
ATOM     15  N   UNL     1       6.043  -1.514  -2.972  0.00  0.00    +0.000 NA
ATOM     16  C   UNL     1       5.712  -1.572  -1.659  0.00  0.00    +0.000 A 
BRANCH  13  17
ATOM     17  C   UNL     1       3.805   1.317  -4.123  0.00  0.00    +0.000 C 
BRANCH  17  18
ATOM     18  O   UNL     1       2.468   1.587  -3.716  0.00  0.00    +0.000 OA
ATOM     19  H   UNL     1       1.977   0.749  -3.771  0.00  0.00    +0.000 HD
ENDBRANCH  17  18
ENDBRANCH  13  17
ENDBRANCH   8  11
ENDBRANCH   1   9
BRANCH   6  20
ATOM     20  N   UNL     1       4.152   0.559   3.055  0.00  0.00    +0.000 N 
ATOM     21  C   UNL     1       4.980   0.968   4.080  0.00  0.00    +0.000 C 
ATOM     22  O   UNL     1       4.927   0.611   5.257  0.00  0.00    +0.000 OA
ATOM     23  H   UNL     1       4.410   0.884   2.129  0.00  0.00    +0.000 HD
BRANCH  21  24
ATOM     24  C   UNL     1       6.105   1.871   3.675  0.00  0.00    +0.000 A 
ATOM     25  C   UNL     1       7.294   1.768   4.385  0.00  0.00    +0.000 A 
ATOM     26  C   UNL     1       8.360   2.567   4.004  0.00  0.00    +0.000 A 
ATOM     27  C   UNL     1       8.180   3.515   2.996  0.00  0.00    +0.000 A 
ATOM     28  C   UNL     1       9.218   4.400   2.664  0.00  0.00    +0.000 A 
ATOM     29  C   UNL     1       9.005   5.415   1.738  0.00  0.00    +0.000 A 
ATOM     30  C   UNL     1       7.763   5.526   1.123  0.00  0.00    +0.000 A 
ATOM     31  C   UNL     1       6.746   4.607   1.419  0.00  0.00    +0.000 A 
ATOM     32  C   UNL     1       6.919   3.590   2.355  0.00  0.00    +0.000 A 
ATOM     33  N   UNL     1       5.904   2.744   2.647  0.00  0.00    +0.000 NA
ENDBRANCH  21  24
ENDBRANCH   6  20
TORSDOF 6
