REMARK  Name = 
REMARK  5 active torsions:
REMARK  status: ('A' for Active; 'I' for Inactive)
REMARK    1  A    between atoms: C_1  and  C_2
REMARK    2  A    between atoms: C_2  and  N_3
REMARK    3  A    between atoms: C_2  and  C_18
REMARK    4  A    between atoms: C_4  and  C_6
REMARK    5  A    between atoms: C_21  and  C_22
REMARK                            x       y       z     vdW  Elec       q    Type
REMARK                         _______ _______ _______ _____ _____    ______ ____
ROOT
ATOM      1  N   UNL     1       2.871   0.163  -1.469  0.00  0.00    +0.000 N 
ATOM      2  C   UNL     1       3.122  -0.886  -2.318  0.00  0.00    +0.000 C 
ATOM      3  O   UNL     1       3.026  -2.064  -2.006  0.00  0.00    +0.000 OA
ATOM      4  H   UNL     1       3.107   1.101  -1.755  0.00  0.00    +0.000 HD
ENDROOT
BRANCH   2   5
ATOM      5  C   UNL     1       3.555  -0.509  -3.694  0.00  0.00    +0.000 A 
ATOM      6  C   UNL     1       4.410  -1.369  -4.401  0.00  0.00    +0.000 A 
ATOM      7  C   UNL     1       4.811  -1.055  -5.706  0.00  0.00    +0.000 A 
ATOM      8  C   UNL     1       4.346   0.114  -6.306  0.00  0.00    +0.000 A 
ATOM      9  N   UNL     1       4.716   0.433  -7.614  0.00  0.00    +0.000 N 
ATOM     10  C   UNL     1       4.273   1.549  -8.266  0.00  0.00    +0.000 A 
ATOM     11  O   UNL     1       4.607   1.793  -9.420  0.00  0.00    +0.000 OA
ATOM     12  N   UNL     1       3.440   2.374  -7.565  0.00  0.00    +0.000 N 
ATOM     13  C   UNL     1       3.014   2.188  -6.274  0.00  0.00    +0.000 A 
ATOM     14  O   UNL     1       2.284   2.984  -5.698  0.00  0.00    +0.000 OA
ATOM     15  C   UNL     1       3.493   0.965  -5.604  0.00  0.00    +0.000 A 
ATOM     16  C   UNL     1       3.089   0.662  -4.302  0.00  0.00    +0.000 A 
ATOM     17  H   UNL     1       5.327  -0.175  -8.145  0.00  0.00    +0.000 HD
ATOM     18  H   UNL     1       3.116   3.202  -8.042  0.00  0.00    +0.000 HD
ENDBRANCH   2   5
BRANCH   1  20
ATOM     19  C   UNL     1       0.861  -0.068  -0.069  0.00  0.00    +0.000 C 
ATOM     20  C   UNL     1       2.389  -0.013  -0.105  0.00  0.00    +0.000 C 
BRANCH  20  21
ATOM     21  C   UNL     1       2.918   1.118   0.757  0.00  0.00    +0.000 A 
ATOM     22  C   UNL     1       3.743   0.852   1.855  0.00  0.00    +0.000 A 
ATOM     23  C   UNL     1       4.296   1.900   2.605  0.00  0.00    +0.000 A 
ATOM     24  C   UNL     1       4.066   3.246   2.271  0.00  0.00    +0.000 A 
ATOM     25  C   UNL     1       3.213   3.494   1.181  0.00  0.00    +0.000 A 
ATOM     26  C   UNL     1       2.638   2.455   0.447  0.00  0.00    +0.000 A 
BRANCH  24  27
ATOM     27  C   UNL     1       4.721   4.367   2.990  0.00  0.00    +0.000 A 
ATOM     28  C   UNL     1       6.008   4.237   3.543  0.00  0.00    +0.000 A 
ATOM     29  C   UNL     1       6.657   5.321   4.147  0.00  0.00    +0.000 A 
ATOM     30  C   UNL     1       6.035   6.564   4.205  0.00  0.00    +0.000 A 
ATOM     31  C   UNL     1       4.756   6.718   3.684  0.00  0.00    +0.000 A 
ATOM     32  C   UNL     1       4.104   5.629   3.098  0.00  0.00    +0.000 A 
ENDBRANCH  24  27
ENDBRANCH  20  21
ENDBRANCH   1  20
TORSDOF 4
