REMARK  Name = 
REMARK  6 active torsions:
REMARK  status: ('A' for Active; 'I' for Inactive)
REMARK    1  A    between atoms: C_2  and  C_16
REMARK    2  A    between atoms: N_3  and  C_4
REMARK    3  A    between atoms: C_4  and  C_5
REMARK    4  A    between atoms: C_8  and  C_9
REMARK    5  A    between atoms: C_19  and  O_20
REMARK    6  A    between atoms: O_20  and  C_21
REMARK                            x       y       z     vdW  Elec       q    Type
REMARK                         _______ _______ _______ _____ _____    ______ ____
ROOT
ATOM      1  O   UNL     1       1.111   0.119  -0.026  0.00  0.00    +0.000 OA
ATOM      2  C   UNL     1       2.332   0.124   0.079  0.00  0.00    +0.000 C 
ATOM      3  N   UNL     1       3.023   1.134   0.707  0.00  0.00    +0.000 N 
ATOM      4  H   UNL     1       4.009   1.072   0.928  0.00  0.00    +0.000 HD
ENDROOT
BRANCH   2   5
ATOM      5  C   UNL     1       3.123  -1.010  -0.452  0.00  0.00    +0.000 A 
ATOM      6  C   UNL     1       2.509  -2.246  -0.681  0.00  0.00    +0.000 A 
ATOM      7  C   UNL     1       3.251  -3.291  -1.227  0.00  0.00    +0.000 A 
ATOM      8  C   UNL     1       4.585  -3.056  -1.535  0.00  0.00    +0.000 A 
ATOM      9  N   UNL     1       5.221  -1.892  -1.270  0.00  0.00    +0.000 NA
ATOM     10  C   UNL     1       4.465  -0.884  -0.776  0.00  0.00    +0.000 A 
BRANCH   8  11
ATOM     11  O   UNL     1       5.285  -4.085  -2.147  0.00  0.00    +0.000 OA
BRANCH  11  12
ATOM     12  C   UNL     1       6.318  -3.730  -2.987  0.00  0.00    +0.000 A 
ATOM     13  C   UNL     1       7.452  -4.547  -2.963  0.00  0.00    +0.000 A 
ATOM     14  C   UNL     1       8.531  -4.275  -3.810  0.00  0.00    +0.000 A 
ATOM     15  C   UNL     1       8.483  -3.185  -4.682  0.00  0.00    +0.000 A 
ATOM     16  C   UNL     1       7.347  -2.380  -4.723  0.00  0.00    +0.000 A 
ATOM     17  C   UNL     1       6.264  -2.669  -3.897  0.00  0.00    +0.000 A 
ATOM     18  F   UNL     1       5.160  -1.915  -4.023  0.00  0.00    +0.000 F 
ENDBRANCH  11  12
ENDBRANCH   8  11
ENDBRANCH   2   5
BRANCH   3  19
ATOM     19  C   UNL     1       2.301   2.235   1.303  0.00  0.00    +0.000 C 
BRANCH  19  20
ATOM     20  C   UNL     1       3.211   3.166   2.033  0.00  0.00    +0.000 A 
ATOM     21  N   UNL     1       4.540   2.988   2.083  0.00  0.00    +0.000 NA
ATOM     22  O   UNL     1       5.019   4.001   2.905  0.00  0.00    +0.000 OA
ATOM     23  C   UNL     1       3.982   4.771   3.340  0.00  0.00    +0.000 A 
ATOM     24  C   UNL     1       2.817   4.296   2.781  0.00  0.00    +0.000 A 
BRANCH  23  25
ATOM     25  C   UNL     1       4.278   5.832   4.286  0.00  0.00    +0.000 A 
ATOM     26  C   UNL     1       5.565   6.117   4.729  0.00  0.00    +0.000 A 
ATOM     27  C   UNL     1       5.734   7.089   5.713  0.00  0.00    +0.000 A 
ATOM     28  C   UNL     1       4.619   7.750   6.218  0.00  0.00    +0.000 A 
ATOM     29  C   UNL     1       3.376   7.422   5.705  0.00  0.00    +0.000 A 
ATOM     30  N   UNL     1       3.180   6.482   4.755  0.00  0.00    +0.000 NA
ENDBRANCH  23  25
ENDBRANCH  19  20
ENDBRANCH   3  19
TORSDOF 6
