REMARK  Name = 
REMARK  6 active torsions:
REMARK  status: ('A' for Active; 'I' for Inactive)
REMARK    1  A    between atoms: C_1  and  O_2
REMARK    2  A    between atoms: O_2  and  C_3
REMARK    3  A    between atoms: C_3  and  C_5
REMARK    4  A    between atoms: C_11  and  N_12
REMARK    5  A    between atoms: C_13  and  C_15
REMARK    6  A    between atoms: N_17  and  C_18
REMARK                            x       y       z     vdW  Elec       q    Type
REMARK                         _______ _______ _______ _____ _____    ______ ____
ROOT
ATOM      1  N   UNL     1       7.357   0.546   4.158  0.00  0.00    +0.000 N 
ATOM      2  C   UNL     1       6.747   0.879   5.357  0.00  0.00    +0.000 C 
ATOM      3  O   UNL     1       5.539   0.859   5.567  0.00  0.00    +0.000 OA
ATOM      4  H   UNL     1       8.365   0.473   4.149  0.00  0.00    +0.000 HD
ENDROOT
BRANCH   1  11
ATOM      5  C   UNL     1       4.599  -1.250  -0.471  0.00  0.00    +0.000 A 
ATOM      6  N   UNL     1       3.253  -1.046  -0.607  0.00  0.00    +0.000 NA
ATOM      7  C   UNL     1       2.629  -0.378   0.377  0.00  0.00    +0.000 A 
ATOM      8  C   UNL     1       3.274   0.095   1.500  0.00  0.00    +0.000 A 
ATOM      9  C   UNL     1       4.650  -0.116   1.637  0.00  0.00    +0.000 A 
ATOM     10  C   UNL     1       5.313   0.347   2.785  0.00  0.00    +0.000 A 
ATOM     11  C   UNL     1       6.682   0.152   2.979  0.00  0.00    +0.000 A 
ATOM     12  C   UNL     1       7.415  -0.460   1.967  0.00  0.00    +0.000 A 
ATOM     13  C   UNL     1       6.769  -0.934   0.815  0.00  0.00    +0.000 A 
ATOM     14  C   UNL     1       5.367  -0.794   0.631  0.00  0.00    +0.000 A 
BRANCH   5  15
ATOM     15  C   UNL     1       5.232  -2.029  -1.584  0.00  0.00    +0.000 C 
ATOM     16  O   UNL     1       6.208  -2.756  -1.471  0.00  0.00    +0.000 OA
BRANCH  15  18
ATOM     17  C   UNL     1       5.114  -2.450  -3.881  0.00  0.00    +0.000 C 
ATOM     18  O   UNL     1       4.574  -1.775  -2.747  0.00  0.00    +0.000 OA
ENDBRANCH  15  18
ENDBRANCH   5  15
ENDBRANCH   1  11
BRANCH   2  19
ATOM     19  C   UNL     1       7.639   1.253   6.441  0.00  0.00    +0.000 A 
ATOM     20  C   UNL     1       9.017   1.326   6.508  0.00  0.00    +0.000 A 
ATOM     21  N   UNL     1       9.351   1.767   7.777  0.00  0.00    +0.000 N 
ATOM     22  N   UNL     1       8.238   1.941   8.537  0.00  0.00    +0.000 NA
ATOM     23  C   UNL     1       7.225   1.639   7.731  0.00  0.00    +0.000 A 
BRANCH  21  24
ATOM     24  C   UNL     1      10.631   2.039   8.327  0.00  0.00    +0.000 A 
ATOM     25  C   UNL     1      10.726   2.467   9.665  0.00  0.00    +0.000 A 
ATOM     26  C   UNL     1      11.972   2.739  10.236  0.00  0.00    +0.000 A 
ATOM     27  C   UNL     1      13.132   2.590   9.481  0.00  0.00    +0.000 A 
ATOM     28  C   UNL     1      13.046   2.174   8.153  0.00  0.00    +0.000 A 
ATOM     29  C   UNL     1      11.803   1.901   7.583  0.00  0.00    +0.000 A 
ATOM     30  F   UNL     1      11.793   1.514   6.301  0.00  0.00    +0.000 F 
ENDBRANCH  21  24
ENDBRANCH   2  19
TORSDOF 5
