REMARK  Name = 
REMARK  7 active torsions:
REMARK  status: ('A' for Active; 'I' for Inactive)
REMARK    1  A    between atoms: C_1  and  N_2
REMARK    2  A    between atoms: C_3  and  C_4
REMARK    3  A    between atoms: N_6  and  C_7
REMARK    4  A    between atoms: C_12  and  C_13
REMARK    5  A    between atoms: C_13  and  O_14
REMARK    6  A    between atoms: C_20  and  C_21
REMARK    7  A    between atoms: C_21  and  C_23
REMARK                            x       y       z     vdW  Elec       q    Type
REMARK                         _______ _______ _______ _____ _____    ______ ____
ROOT
ATOM      1  C   UNL     1       0.493  -2.560  -0.115  0.00  0.00    +0.000 C 
ATOM      2  O   UNL     1       1.542  -2.914   0.409  0.00  0.00    +0.000 OA
ATOM      3  N   UNL     1      -0.348  -3.387  -0.843  0.00  0.00    +0.000 N 
ATOM      4  H   UNL     1      -1.071  -2.914  -1.367  0.00  0.00    +0.000 HD
ENDROOT
BRANCH   3   5
ATOM      5  C   UNL     1      -0.207  -4.764  -1.107  0.00  0.00    +0.000 A 
ATOM      6  C   UNL     1       0.671  -5.604  -0.415  0.00  0.00    +0.000 A 
ATOM      7  C   UNL     1       0.826  -6.954  -0.769  0.00  0.00    +0.000 A 
ATOM      8  C   UNL     1       0.080  -7.407  -1.853  0.00  0.00    +0.000 A 
ATOM      9  O   UNL     1       0.140  -8.654  -2.401  0.00  0.00    +0.000 OA
ATOM     10  C   UNL     1      -0.720  -8.664  -3.465  0.00  0.00    +0.000 A 
ATOM     11  C   UNL     1      -1.362  -7.449  -3.568  0.00  0.00    +0.000 A 
ATOM     12  C   UNL     1      -0.831  -6.621  -2.546  0.00  0.00    +0.000 A 
ATOM     13  C   UNL     1      -1.002  -5.283  -2.148  0.00  0.00    +0.000 A 
BRANCH  10  14
ATOM     14  C   UNL     1      -0.767  -9.907  -4.268  0.00  0.00    +0.000 C 
BRANCH  14  15
ATOM     15  O   UNL     1      -1.175 -10.966  -3.414  0.00  0.00    +0.000 OA
ATOM     16  H   UNL     1      -0.605 -10.907  -2.626  0.00  0.00    +0.000 HD
ENDBRANCH  14  15
ENDBRANCH  10  14
ENDBRANCH   3   5
BRANCH   1  19
ATOM     17  C   UNL     1       2.215   0.059  -0.017  0.00  0.00    +0.000 C 
ATOM     18  N   UNL     1       0.767  -0.020  -0.020  0.00  0.00    +0.000 N 
ATOM     19  C   UNL     1       0.005  -1.182  -0.078  0.00  0.00    +0.000 A 
ATOM     20  C   UNL     1      -1.323  -0.779  -0.076  0.00  0.00    +0.000 A 
ATOM     21  C   UNL     1      -1.362   0.624  -0.086  0.00  0.00    +0.000 A 
ATOM     22  C   UNL     1      -0.065   1.102  -0.002  0.00  0.00    +0.000 A 
BRANCH  22  23
ATOM     23  C   UNL     1       0.374   2.497   0.069  0.00  0.00    +0.000 C 
ATOM     24  O   UNL     1       1.488   2.874  -0.290  0.00  0.00    +0.000 OA
BRANCH  23  25
ATOM     25  C   UNL     1      -0.588   3.539   0.529  0.00  0.00    +0.000 A 
ATOM     26  C   UNL     1      -0.631   4.775  -0.128  0.00  0.00    +0.000 A 
ATOM     27  C   UNL     1      -1.599   5.724   0.226  0.00  0.00    +0.000 A 
ATOM     28  C   UNL     1      -2.523   5.442   1.235  0.00  0.00    +0.000 A 
ATOM     29  C   UNL     1      -2.449   4.234   1.925  0.00  0.00    +0.000 A 
ATOM     30  C   UNL     1      -1.468   3.304   1.588  0.00  0.00    +0.000 A 
ATOM     31  F   UNL     1      -1.403   2.177   2.312  0.00  0.00    +0.000 F 
ENDBRANCH  23  25
ENDBRANCH  22  23
ENDBRANCH   1  19
TORSDOF 6
