REMARK  Name = 
REMARK  7 active torsions:
REMARK  status: ('A' for Active; 'I' for Inactive)
REMARK    1  A    between atoms: C_1  and  C_2
REMARK    2  A    between atoms: N_4  and  C_5
REMARK    3  A    between atoms: C_8  and  O_9
REMARK    4  A    between atoms: O_9  and  C_10
REMARK    5  A    between atoms: C_16  and  N_17
REMARK    6  A    between atoms: C_18  and  C_20
REMARK    7  A    between atoms: C_24  and  C_25
REMARK                            x       y       z     vdW  Elec       q    Type
REMARK                         _______ _______ _______ _____ _____    ______ ____
ROOT
ATOM      1  C   UNL     1       1.110   0.022   0.086  0.00  0.00    +0.000 C 
ATOM      2  C   UNL     1       2.586  -0.103   0.087  0.00  0.00    +0.000 A 
ATOM      3  N   UNL     1       3.361   0.938   0.420  0.00  0.00    +0.000 NA
ATOM      4  N   UNL     1       4.627   0.499   0.190  0.00  0.00    +0.000 N 
ATOM      5  C   UNL     1       4.653  -0.873  -0.011  0.00  0.00    +0.000 A 
ATOM      6  C   UNL     1       3.347  -1.259  -0.194  0.00  0.00    +0.000 A 
ENDROOT
BRANCH   4   7
ATOM      7  C   UNL     1       5.713   1.411   0.084  0.00  0.00    +0.000 A 
ATOM      8  C   UNL     1       5.635   2.664   0.698  0.00  0.00    +0.000 A 
ATOM      9  C   UNL     1       6.707   3.566   0.610  0.00  0.00    +0.000 A 
ATOM     10  C   UNL     1       7.861   3.219  -0.085  0.00  0.00    +0.000 A 
ATOM     11  C   UNL     1       7.909   1.998  -0.763  0.00  0.00    +0.000 A 
ATOM     12  C   UNL     1       6.844   1.101  -0.681  0.00  0.00    +0.000 A 
BRANCH  10  13
ATOM     13  O   UNL     1       8.974   3.984  -0.241  0.00  0.00    +0.000 OA
BRANCH  13  14
ATOM     14  C   UNL     1       9.349   4.889   0.785  0.00  0.00    +0.000 C 
ATOM     15  F   UNL     1       8.676   4.725   1.942  0.00  0.00    +0.000 F 
ATOM     16  F   UNL     1      10.664   4.706   1.047  0.00  0.00    +0.000 F 
ATOM     17  F   UNL     1       9.179   6.155   0.350  0.00  0.00    +0.000 F 
ENDBRANCH  13  14
ENDBRANCH  10  13
ENDBRANCH   4   7
BRANCH   5  18
ATOM     18  N   UNL     1       5.813  -1.633   0.018  0.00  0.00    +0.000 N 
ATOM     19  C   UNL     1       6.069  -2.534  -0.997  0.00  0.00    +0.000 C 
ATOM     20  O   UNL     1       5.331  -2.746  -1.953  0.00  0.00    +0.000 OA
ATOM     21  H   UNL     1       6.568  -1.300   0.601  0.00  0.00    +0.000 HD
BRANCH  19  22
ATOM     22  C   UNL     1       7.368  -3.255  -0.911  0.00  0.00    +0.000 A 
ATOM     23  C   UNL     1       8.490  -2.766  -0.240  0.00  0.00    +0.000 A 
ATOM     24  C   UNL     1       9.609  -3.580  -0.178  0.00  0.00    +0.000 A 
ATOM     25  N   UNL     1       9.672  -4.812  -0.722  0.00  0.00    +0.000 NA
ATOM     26  C   UNL     1       8.579  -5.258  -1.393  0.00  0.00    +0.000 A 
ATOM     27  C   UNL     1       7.425  -4.503  -1.525  0.00  0.00    +0.000 A 
BRANCH  26  28
ATOM     28  C   UNL     1       8.637  -6.618  -1.939  0.00  0.00    +0.000 A 
ATOM     29  N   UNL     1       7.641  -7.140  -2.678  0.00  0.00    +0.000 NA
ATOM     30  N   UNL     1       8.041  -8.388  -2.956  0.00  0.00    +0.000 N 
ATOM     31  C   UNL     1       9.253  -8.702  -2.421  0.00  0.00    +0.000 A 
ATOM     32  C   UNL     1       9.674  -7.575  -1.763  0.00  0.00    +0.000 A 
ATOM     33  H   UNL     1       7.428  -8.974  -3.513  0.00  0.00    +0.000 HD
ENDBRANCH  26  28
ENDBRANCH  19  22
ENDBRANCH   5  18
TORSDOF 6
