REMARK  Name = 
REMARK  5 active torsions:
REMARK  status: ('A' for Active; 'I' for Inactive)
REMARK    1  A    between atoms: C_2  and  C_17
REMARK    2  A    between atoms: N_3  and  C_4
REMARK    3  A    between atoms: C_4  and  C_5
REMARK    4  A    between atoms: C_8  and  C_9
REMARK    5  A    between atoms: C_26  and  O_27
REMARK                            x       y       z     vdW  Elec       q    Type
REMARK                         _______ _______ _______ _____ _____    ______ ____
ROOT
ATOM      1  O   UNL     1       1.099  -0.023  -0.076  0.00  0.00    +0.000 OA
ATOM      2  C   UNL     1       2.322   0.061  -0.039  0.00  0.00    +0.000 C 
ATOM      3  N   UNL     1       3.060   0.790  -0.937  0.00  0.00    +0.000 N 
ATOM      4  H   UNL     1       4.069   0.720  -0.922  0.00  0.00    +0.000 HD
ENDROOT
BRANCH   2   5
ATOM      5  C   UNL     1       3.144  -0.640   0.999  0.00  0.00    +0.000 A 
ATOM      6  C   UNL     1       2.502  -1.474   1.827  0.00  0.00    +0.000 A 
ATOM      7  C   UNL     1       3.255  -2.193   2.867  0.00  0.00    +0.000 A 
ATOM      8  O   UNL     1       2.650  -2.942   3.621  0.00  0.00    +0.000 OA
ATOM      9  C   UNL     1       4.713  -1.937   2.923  0.00  0.00    +0.000 A 
ATOM     10  C   UNL     1       5.249  -1.021   2.013  0.00  0.00    +0.000 A 
ATOM     11  C   UNL     1       6.612  -0.711   2.039  0.00  0.00    +0.000 A 
ATOM     12  C   UNL     1       7.449  -1.325   2.970  0.00  0.00    +0.000 A 
ATOM     13  C   UNL     1       6.927  -2.256   3.869  0.00  0.00    +0.000 A 
ATOM     14  C   UNL     1       5.564  -2.562   3.845  0.00  0.00    +0.000 A 
ATOM     15  O   UNL     1       4.504  -0.382   1.050  0.00  0.00    +0.000 OA
BRANCH  14  16
ATOM     16  O   UNL     1       5.085  -3.483   4.731  0.00  0.00    +0.000 OA
ATOM     17  H   UNL     1       5.805  -3.851   5.266  0.00  0.00    +0.000 HD
ENDBRANCH  14  16
ENDBRANCH   2   5
BRANCH   3  18
ATOM     18  C   UNL     1       2.438   1.485  -2.042  0.00  0.00    +0.000 C 
BRANCH  18  19
ATOM     19  C   UNL     1       2.334   0.571  -3.205  0.00  0.00    +0.000 A 
ATOM     20  C   UNL     1       1.367  -0.325  -3.606  0.00  0.00    +0.000 A 
ATOM     21  C   UNL     1       1.821  -0.884  -4.822  0.00  0.00    +0.000 A 
ATOM     22  C   UNL     1       3.039  -0.295  -5.107  0.00  0.00    +0.000 A 
ATOM     23  O   UNL     1       3.359   0.586  -4.108  0.00  0.00    +0.000 OA
BRANCH  22  24
ATOM     24  C   UNL     1       3.985  -0.406  -6.217  0.00  0.00    +0.000 A 
ATOM     25  C   UNL     1       5.193   0.304  -6.224  0.00  0.00    +0.000 A 
ATOM     26  C   UNL     1       6.057   0.207  -7.312  0.00  0.00    +0.000 A 
ATOM     27  F   UNL     1       7.205   0.899  -7.305  0.00  0.00    +0.000 F 
ATOM     28  C   UNL     1       5.750  -0.589  -8.408  0.00  0.00    +0.000 A 
ATOM     29  C   UNL     1       4.561  -1.311  -8.414  0.00  0.00    +0.000 A 
ATOM     30  C   UNL     1       3.687  -1.220  -7.324  0.00  0.00    +0.000 A 
ENDBRANCH  22  24
ENDBRANCH  18  19
ENDBRANCH   3  18
TORSDOF 5
