REMARK  Name = 
REMARK  7 active torsions:
REMARK  status: ('A' for Active; 'I' for Inactive)
REMARK    1  A    between atoms: C_1  and  N_2
REMARK    2  A    between atoms: C_5  and  C_6
REMARK    3  A    between atoms: C_7  and  C_8
REMARK    4  A    between atoms: N_10  and  C_11
REMARK    5  A    between atoms: C_14  and  O_15
REMARK    6  A    between atoms: O_15  and  C_16
REMARK    7  A    between atoms: C_21  and  C_22
REMARK                            x       y       z     vdW  Elec       q    Type
REMARK                         _______ _______ _______ _____ _____    ______ ____
ROOT
ATOM      1  C   UNL     1       3.738   0.709  -2.170  0.00  0.00    +0.000 C 
ATOM      2  O   UNL     1       4.889   0.577  -2.563  0.00  0.00    +0.000 OA
ATOM      3  N   UNL     1       2.636   0.055  -2.696  0.00  0.00    +0.000 N 
ATOM      4  H   UNL     1       1.727   0.354  -2.363  0.00  0.00    +0.000 HD
ENDROOT
BRANCH   3   5
ATOM      5  C   UNL     1       2.640  -0.848  -3.781  0.00  0.00    +0.000 A 
ATOM      6  C   UNL     1       3.802  -1.392  -4.341  0.00  0.00    +0.000 A 
ATOM      7  C   UNL     1       3.740  -2.183  -5.495  0.00  0.00    +0.000 A 
ATOM      8  C   UNL     1       2.510  -2.445  -6.093  0.00  0.00    +0.000 A 
ATOM      9  C   UNL     1       1.345  -2.009  -5.460  0.00  0.00    +0.000 A 
ATOM     10  F   UNL     1       0.137  -2.313  -5.956  0.00  0.00    +0.000 F 
ATOM     11  C   UNL     1       1.404  -1.195  -4.331  0.00  0.00    +0.000 A 
BRANCH   8  12
ATOM     12  O   UNL     1       2.537  -3.143  -7.279  0.00  0.00    +0.000 OA
BRANCH  12  13
ATOM     13  C   UNL     1       1.702  -2.747  -8.309  0.00  0.00    +0.000 A 
ATOM     14  C   UNL     1       1.253  -1.426  -8.467  0.00  0.00    +0.000 A 
ATOM     15  C   UNL     1       0.341  -1.102  -9.471  0.00  0.00    +0.000 A 
ATOM     16  C   UNL     1      -0.073  -2.077 -10.374  0.00  0.00    +0.000 A 
ATOM     17  C   UNL     1       0.432  -3.373 -10.278  0.00  0.00    +0.000 A 
ATOM     18  C   UNL     1       1.320  -3.717  -9.247  0.00  0.00    +0.000 A 
BRANCH  18  19
ATOM     19  C   UNL     1       1.823  -5.060  -9.180  0.00  0.00    +0.000 C 
ATOM     20  N   UNL     1       2.219  -6.150  -9.162  0.00  0.00    +0.000 NA
ENDBRANCH  18  19
ENDBRANCH  12  13
ENDBRANCH   8  12
ENDBRANCH   3   5
BRANCH   1  22
ATOM     21  C   UNL     1       3.975   2.848  -0.790  0.00  0.00    +0.000 A 
ATOM     22  C   UNL     1       3.412   1.619  -1.086  0.00  0.00    +0.000 A 
ATOM     23  C   UNL     1       2.489   1.410  -0.029  0.00  0.00    +0.000 A 
ATOM     24  N   UNL     1       2.463   2.411   0.852  0.00  0.00    +0.000 NA
ATOM     25  N   UNL     1       3.408   3.250   0.388  0.00  0.00    +0.000 N 
ATOM     26  H   UNL     1       3.622   4.100   0.901  0.00  0.00    +0.000 HD
BRANCH  21  31
ATOM     27  C   UNL     1       7.273   6.318  -1.404  0.00  0.00    +0.000 C 
ATOM     28  N   UNL     1       6.422   5.210  -1.763  0.00  0.00    +0.000 N 
ATOM     29  C   UNL     1       6.489   4.479  -2.909  0.00  0.00    +0.000 A 
ATOM     30  C   UNL     1       5.561   3.476  -2.766  0.00  0.00    +0.000 A 
ATOM     31  C   UNL     1       4.993   3.672  -1.490  0.00  0.00    +0.000 A 
ATOM     32  N   UNL     1       5.480   4.776  -0.902  0.00  0.00    +0.000 NA
ENDBRANCH  21  31
ENDBRANCH   1  22
TORSDOF 6
