REMARK  Name = 
REMARK  4 active torsions:
REMARK  status: ('A' for Active; 'I' for Inactive)
REMARK    1  A    between atoms: C_2  and  C_4
REMARK    2  A    between atoms: C_8  and  C_9
REMARK    3  A    between atoms: N_11  and  C_12
REMARK    4  A    between atoms: C_16  and  C_17
REMARK                            x       y       z     vdW  Elec       q    Type
REMARK                         _______ _______ _______ _____ _____    ______ ____
ROOT
ATOM      1  C   UNL     1       2.074  -3.892   1.982  0.00  0.00    +0.000 C 
ATOM      2  O   UNL     1       1.774  -4.799   1.210  0.00  0.00    +0.000 OA
ATOM      3  N   UNL     1       1.885  -3.928   3.358  0.00  0.00    +0.000 N 
ATOM      4  H   UNL     1       2.172  -3.114   3.891  0.00  0.00    +0.000 HD
ENDROOT
BRANCH   3   5
ATOM      5  C   UNL     1       1.339  -4.971   4.080  0.00  0.00    +0.000 A 
ATOM      6  C   UNL     1       0.910  -6.130   3.547  0.00  0.00    +0.000 A 
ATOM      7  N   UNL     1       0.384  -7.121   4.359  0.00  0.00    +0.000 N 
ATOM      8  C   UNL     1      -0.073  -8.364   4.009  0.00  0.00    +0.000 A 
ATOM      9  C   UNL     1      -0.458  -8.962   5.188  0.00  0.00    +0.000 A 
ATOM     10  N   UNL     1      -0.268  -8.097   6.252  0.00  0.00    +0.000 NA
ATOM     11  C   UNL     1       0.249  -7.005   5.731  0.00  0.00    +0.000 A 
ATOM     12  C   UNL     1       0.692  -5.784   6.317  0.00  0.00    +0.000 A 
ATOM     13  C   UNL     1       1.216  -4.816   5.536  0.00  0.00    +0.000 A 
BRANCH   9  14
ATOM     14  C   UNL     1      -0.956 -10.321   5.339  0.00  0.00    +0.000 A 
ATOM     15  C   UNL     1      -1.108 -11.189   4.247  0.00  0.00    +0.000 A 
ATOM     16  C   UNL     1      -1.540 -12.505   4.438  0.00  0.00    +0.000 A 
ATOM     17  C   UNL     1      -1.828 -12.966   5.721  0.00  0.00    +0.000 A 
ATOM     18  C   UNL     1      -1.695 -12.110   6.812  0.00  0.00    +0.000 A 
ATOM     19  C   UNL     1      -1.264 -10.796   6.620  0.00  0.00    +0.000 A 
ENDBRANCH   9  14
ENDBRANCH   3   5
BRANCH   1  24
ATOM     20  C   UNL     1       3.718  -0.480   1.488  0.00  0.00    +0.000 A 
ATOM     21  C   UNL     1       3.802  -0.457   0.086  0.00  0.00    +0.000 A 
ATOM     22  C   UNL     1       3.336  -1.530  -0.668  0.00  0.00    +0.000 A 
ATOM     23  C   UNL     1       2.780  -2.632  -0.024  0.00  0.00    +0.000 A 
ATOM     24  C   UNL     1       2.679  -2.672   1.379  0.00  0.00    +0.000 A 
ATOM     25  C   UNL     1       3.150  -1.591   2.125  0.00  0.00    +0.000 A 
ATOM     26  F   UNL     1       3.059  -1.625   3.467  0.00  0.00    +0.000 F 
BRANCH  20  28
ATOM     27  N   UNL     1       4.209   0.674   3.591  0.00  0.00    +0.000 N 
ATOM     28  C   UNL     1       4.254   0.691   2.229  0.00  0.00    +0.000 C 
ATOM     29  O   UNL     1       4.733   1.651   1.638  0.00  0.00    +0.000 OA
ATOM     30  H   UNL     1       4.592   1.472   4.083  0.00  0.00    +0.000 HD
ATOM     31  H   UNL     1       3.841  -0.096   4.133  0.00  0.00    +0.000 HD
ENDBRANCH  20  28
ENDBRANCH   1  24
TORSDOF 4
