REMARK  Name = 
REMARK  7 active torsions:
REMARK  status: ('A' for Active; 'I' for Inactive)
REMARK    1  A    between atoms: C_2  and  O_3
REMARK    2  A    between atoms: C_2  and  C_20
REMARK    3  A    between atoms: O_3  and  C_4
REMARK    4  A    between atoms: C_4  and  C_5
REMARK    5  A    between atoms: C_8  and  C_9
REMARK    6  A    between atoms: C_12  and  C_13
REMARK    7  A    between atoms: C_24  and  N_25
REMARK                            x       y       z     vdW  Elec       q    Type
REMARK                         _______ _______ _______ _____ _____    ______ ____
ROOT
ATOM      1  C   UNL     1       4.389  -0.837  -0.973  0.00  0.00    +0.000 C 
ENDROOT
BRANCH   1   2
ATOM      2  C   UNL     1       4.791  -1.969  -1.849  0.00  0.00    +0.000 A 
ATOM      3  C   UNL     1       5.676  -1.972  -2.900  0.00  0.00    +0.000 A 
ATOM      4  O   UNL     1       5.735  -3.233  -3.404  0.00  0.00    +0.000 OA
ATOM      5  C   UNL     1       4.861  -3.952  -2.629  0.00  0.00    +0.000 A 
ATOM      6  N   UNL     1       4.277  -3.241  -1.681  0.00  0.00    +0.000 NA
BRANCH   5   7
ATOM      7  C   UNL     1       4.701  -5.364  -2.966  0.00  0.00    +0.000 A 
ATOM      8  C   UNL     1       5.428  -5.958  -4.009  0.00  0.00    +0.000 A 
ATOM      9  C   UNL     1       5.248  -7.306  -4.334  0.00  0.00    +0.000 A 
ATOM     10  C   UNL     1       4.334  -8.094  -3.624  0.00  0.00    +0.000 A 
ATOM     11  C   UNL     1       3.612  -7.508  -2.573  0.00  0.00    +0.000 A 
ATOM     12  C   UNL     1       3.795  -6.159  -2.249  0.00  0.00    +0.000 A 
BRANCH  10  13
ATOM     13  C   UNL     1       4.118  -9.546  -3.976  0.00  0.00    +0.000 C 
ATOM     14  F   UNL     1       4.877  -9.970  -5.026  0.00  0.00    +0.000 F 
ATOM     15  F   UNL     1       4.410 -10.383  -2.943  0.00  0.00    +0.000 F 
ATOM     16  F   UNL     1       2.827  -9.811  -4.320  0.00  0.00    +0.000 F 
ENDBRANCH  10  13
ENDBRANCH   5   7
ENDBRANCH   1   2
BRANCH   1  17
ATOM     17  O   UNL     1       2.967  -0.610  -0.980  0.00  0.00    +0.000 OA
BRANCH  17  19
ATOM     18  O   UNL     1       3.203   0.656  -2.877  0.00  0.00    +0.000 OA
ATOM     19  C   UNL     1       2.514   0.135  -2.015  0.00  0.00    +0.000 C 
BRANCH  19  20
ATOM     20  C   UNL     1       1.039   0.253  -1.967  0.00  0.00    +0.000 A 
ATOM     21  C   UNL     1       0.405   1.024  -2.934  0.00  0.00    +0.000 A 
ATOM     22  N   UNL     1      -0.937   1.202  -2.997  0.00  0.00    +0.000 NA
ATOM     23  C   UNL     1      -1.689   0.571  -2.063  0.00  0.00    +0.000 A 
ATOM     24  C   UNL     1      -1.150  -0.230  -1.061  0.00  0.00    +0.000 A 
ATOM     25  C   UNL     1       0.242  -0.382  -1.008  0.00  0.00    +0.000 A 
BRANCH  24  26
ATOM     26  N   UNL     1      -2.005  -0.881  -0.145  0.00  0.00    +0.000 N 
ATOM     27  C   UNL     1      -1.673  -1.692   0.915  0.00  0.00    +0.000 A 
ATOM     28  C   UNL     1      -2.878  -2.091   1.439  0.00  0.00    +0.000 A 
ATOM     29  N   UNL     1      -3.891  -1.528   0.726  0.00  0.00    +0.000 NA
ATOM     30  N   UNL     1      -3.353  -0.784  -0.231  0.00  0.00    +0.000 NA
ENDBRANCH  24  26
ENDBRANCH  19  20
ENDBRANCH  17  19
ENDBRANCH   1  17
TORSDOF 7
