REMARK  Name = 
REMARK  5 active torsions:
REMARK  status: ('A' for Active; 'I' for Inactive)
REMARK    1  A    between atoms: C_2  and  C_3
REMARK    2  A    between atoms: C_8  and  S_9
REMARK    3  A    between atoms: S_9  and  C_10
REMARK    4  A    between atoms: C_13  and  N_14
REMARK    5  A    between atoms: C_15  and  C_17
REMARK                            x       y       z     vdW  Elec       q    Type
REMARK                         _______ _______ _______ _____ _____    ______ ____
ROOT
ATOM      1  C   UNL     1      -2.412   2.543  -0.280  0.00  0.00    +0.000 A 
ATOM      2  C   UNL     1      -2.933   1.956   0.870  0.00  0.00    +0.000 A 
ATOM      3  C   UNL     1      -4.316   1.749   1.000  0.00  0.00    +0.000 A 
ATOM      4  C   UNL     1      -5.208   2.119  -0.013  0.00  0.00    +0.000 A 
ATOM      5  C   UNL     1      -4.686   2.761  -1.140  0.00  0.00    +0.000 A 
ATOM      6  C   UNL     1      -3.304   2.982  -1.262  0.00  0.00    +0.000 A 
ENDROOT
BRANCH   4   7
ATOM      7  N   UNL     1      -6.607   1.866   0.026  0.00  0.00    +0.000 N 
ATOM      8  C   UNL     1      -7.278   1.224   1.049  0.00  0.00    +0.000 C 
ATOM      9  O   UNL     1      -6.775   0.851   2.106  0.00  0.00    +0.000 OA
ATOM     10  H   UNL     1      -7.143   2.207  -0.759  0.00  0.00    +0.000 HD
BRANCH   8  11
ATOM     11  C   UNL     1      -8.751   0.972   0.823  0.00  0.00    +0.000 A 
ATOM     12  C   UNL     1      -9.477   0.749   1.931  0.00  0.00    +0.000 A 
ATOM     13  C   UNL     1     -10.835   0.385   1.807  0.00  0.00    +0.000 A 
ATOM     14  C   UNL     1     -11.810   0.045   2.720  0.00  0.00    +0.000 A 
ATOM     15  C   UNL     1     -12.972  -0.286   1.988  0.00  0.00    +0.000 A 
ATOM     16  C   UNL     1     -12.678  -0.121   0.651  0.00  0.00    +0.000 A 
ATOM     17  N   UNL     1     -11.361   0.289   0.530  0.00  0.00    +0.000 N 
ATOM     18  C   UNL     1     -10.645   0.542  -0.660  0.00  0.00    +0.000 A 
ATOM     19  O   UNL     1     -11.178   0.431  -1.754  0.00  0.00    +0.000 OA
ATOM     20  N   UNL     1      -9.325   0.886  -0.431  0.00  0.00    +0.000 N 
ATOM     21  H   UNL     1      -8.761   0.977  -1.264  0.00  0.00    +0.000 HD
ENDBRANCH   8  11
ENDBRANCH   4   7
BRANCH   1  22
ATOM     22  S   UNL     1      -0.664   2.842  -0.450  0.00  0.00    +0.000 S 
BRANCH  22  28
ATOM     23  C   UNL     1      -0.239   0.716  -2.289  0.00  0.00    +0.000 A 
ATOM     24  C   UNL     1       0.420  -0.465  -2.678  0.00  0.00    +0.000 A 
ATOM     25  C   UNL     1       1.330  -1.088  -1.827  0.00  0.00    +0.000 A 
ATOM     26  C   UNL     1       1.579  -0.542  -0.573  0.00  0.00    +0.000 A 
ATOM     27  C   UNL     1       0.917   0.624  -0.168  0.00  0.00    +0.000 A 
ATOM     28  C   UNL     1      -0.005   1.269  -1.014  0.00  0.00    +0.000 A 
BRANCH  23  30
ATOM     29  N   UNL     1      -1.788   1.801  -4.061  0.00  0.00    +0.000 NA
ATOM     30  C   UNL     1      -1.103   1.332  -3.248  0.00  0.00    +0.000 C 
ENDBRANCH  23  30
ENDBRANCH  22  28
ENDBRANCH   1  22
TORSDOF 5
