REMARK  Name = 
REMARK  7 active torsions:
REMARK  status: ('A' for Active; 'I' for Inactive)
REMARK    1  A    between atoms: C_1  and  C_2
REMARK    2  A    between atoms: C_6  and  C_7
REMARK    3  A    between atoms: N_9  and  C_10
REMARK    4  A    between atoms: N_9  and  C_11
REMARK    5  A    between atoms: C_15  and  C_16
REMARK    6  A    between atoms: C_16  and  O_17
REMARK    7  A    between atoms: C_16  and  C_18
REMARK                            x       y       z     vdW  Elec       q    Type
REMARK                         _______ _______ _______ _____ _____    ______ ____
ROOT
ATOM      1  C   UNL     1      -3.894  -2.062   0.002  0.00  0.00    +0.000 C 
ATOM      2  O   UNL     1      -2.845  -1.446  -0.198  0.00  0.00    +0.000 OA
ATOM      3  N   UNL     1      -3.914  -3.452   0.195  0.00  0.00    +0.000 N 
ATOM      4  C   UNL     1      -2.665  -4.211   0.148  0.00  0.00    +0.000 C 
ENDROOT
BRANCH   1  10
ATOM      5  C   UNL     1     -10.926  -1.313   1.948  0.00  0.00    +0.000 C 
ATOM      6  C   UNL     1      -9.691  -0.773   1.290  0.00  0.00    +0.000 A 
ATOM      7  N   UNL     1      -8.560  -1.379   1.435  0.00  0.00    +0.000 NA
ATOM      8  C   UNL     1      -7.453  -0.874   0.740  0.00  0.00    +0.000 A 
ATOM      9  C   UNL     1      -6.255  -1.579   0.826  0.00  0.00    +0.000 A 
ATOM     10  C   UNL     1      -5.153  -1.247   0.034  0.00  0.00    +0.000 A 
ATOM     11  C   UNL     1      -5.217  -0.073  -0.736  0.00  0.00    +0.000 A 
ATOM     12  C   UNL     1      -6.391   0.690  -0.780  0.00  0.00    +0.000 A 
ATOM     13  C   UNL     1      -7.513   0.260  -0.067  0.00  0.00    +0.000 A 
ATOM     14  C   UNL     1      -8.811   0.958  -0.143  0.00  0.00    +0.000 A 
ATOM     15  O   UNL     1      -8.958   1.990  -0.782  0.00  0.00    +0.000 OA
ATOM     16  N   UNL     1      -9.845   0.361   0.541  0.00  0.00    +0.000 N 
ATOM     17  H   UNL     1     -10.739   0.826   0.483  0.00  0.00    +0.000 HD
ENDBRANCH   1  10
BRANCH   3  18
ATOM     18  C   UNL     1      -5.071  -4.259   0.210  0.00  0.00    +0.000 A 
ATOM     19  C   UNL     1      -5.722  -4.612  -0.970  0.00  0.00    +0.000 A 
ATOM     20  C   UNL     1      -6.817  -5.474  -0.915  0.00  0.00    +0.000 A 
ATOM     21  C   UNL     1      -7.265  -5.973   0.314  0.00  0.00    +0.000 A 
ATOM     22  C   UNL     1      -6.618  -5.619   1.509  0.00  0.00    +0.000 A 
ATOM     23  C   UNL     1      -5.501  -4.776   1.436  0.00  0.00    +0.000 A 
BRANCH  22  24
ATOM     24  C   UNL     1      -7.005  -6.207   2.857  0.00  0.00    +0.000 C 
BRANCH  24  25
ATOM     25  C   UNL     1      -6.607  -7.670   2.962  0.00  0.00    +0.000 A 
ATOM     26  C   UNL     1      -5.261  -8.040   2.791  0.00  0.00    +0.000 A 
ATOM     27  C   UNL     1      -4.883  -9.386   2.803  0.00  0.00    +0.000 A 
ATOM     28  C   UNL     1      -5.840 -10.369   3.016  0.00  0.00    +0.000 A 
ATOM     29  C   UNL     1      -7.171 -10.018   3.217  0.00  0.00    +0.000 A 
ATOM     30  C   UNL     1      -7.556  -8.677   3.195  0.00  0.00    +0.000 A 
ENDBRANCH  24  25
BRANCH  24  31
ATOM     31  O   UNL     1      -8.395  -6.033   3.136  0.00  0.00    +0.000 OA
ATOM     32  H   UNL     1      -8.847  -5.848   2.299  0.00  0.00    +0.000 HD
ENDBRANCH  24  31
ENDBRANCH  22  24
ENDBRANCH   3  18
TORSDOF 5
