REMARK  Name = 
REMARK  5 active torsions:
REMARK  status: ('A' for Active; 'I' for Inactive)
REMARK    1  A    between atoms: C_1  and  N_2
REMARK    2  A    between atoms: C_3  and  C_4
REMARK    3  A    between atoms: C_7  and  C_8
REMARK    4  A    between atoms: N_10  and  C_11
REMARK    5  A    between atoms: C_16  and  C_17
REMARK                            x       y       z     vdW  Elec       q    Type
REMARK                         _______ _______ _______ _____ _____    ______ ____
ROOT
ATOM      1  C   UNL     1       1.062   6.405  -0.114  0.00  0.00    +0.000 C 
ATOM      2  O   UNL     1       0.394   6.635   0.887  0.00  0.00    +0.000 OA
ATOM      3  N   UNL     1       1.256   7.260  -1.188  0.00  0.00    +0.000 N 
ATOM      4  H   UNL     1       1.643   6.866  -2.035  0.00  0.00    +0.000 HD
ENDROOT
BRANCH   3   5
ATOM      5  C   UNL     1       0.805   8.597  -1.267  0.00  0.00    +0.000 A 
ATOM      6  C   UNL     1       0.334   9.301  -0.159  0.00  0.00    +0.000 A 
ATOM      7  C   UNL     1      -0.140  10.599  -0.302  0.00  0.00    +0.000 A 
ATOM      8  C   UNL     1      -0.128  11.206  -1.552  0.00  0.00    +0.000 A 
ATOM      9  F   UNL     1      -0.635  12.446  -1.634  0.00  0.00    +0.000 F 
ATOM     10  C   UNL     1       0.388  10.563  -2.692  0.00  0.00    +0.000 A 
ATOM     11  C   UNL     1       0.852   9.240  -2.517  0.00  0.00    +0.000 A 
BRANCH  10  12
ATOM     12  C   UNL     1       0.462  11.251  -4.005  0.00  0.00    +0.000 A 
ATOM     13  C   UNL     1       0.714  12.629  -4.090  0.00  0.00    +0.000 A 
ATOM     14  C   UNL     1       0.775  13.248  -5.329  0.00  0.00    +0.000 A 
ATOM     15  N   UNL     1       0.625  12.596  -6.497  0.00  0.00    +0.000 NA
ATOM     16  C   UNL     1       0.389  11.272  -6.416  0.00  0.00    +0.000 A 
ATOM     17  C   UNL     1       0.295  10.570  -5.220  0.00  0.00    +0.000 A 
ENDBRANCH  10  12
ENDBRANCH   3   5
BRANCH   1  21
ATOM     18  C   UNL     1       2.760   2.472  -0.369  0.00  0.00    +0.000 A 
ATOM     19  C   UNL     1       1.624   2.716   0.405  0.00  0.00    +0.000 A 
ATOM     20  C   UNL     1       1.074   3.996   0.452  0.00  0.00    +0.000 A 
ATOM     21  C   UNL     1       1.681   5.057  -0.233  0.00  0.00    +0.000 A 
ATOM     22  C   UNL     1       2.865   4.834  -0.944  0.00  0.00    +0.000 A 
ATOM     23  C   UNL     1       3.397   3.542  -1.015  0.00  0.00    +0.000 A 
BRANCH  18  26
ATOM     24  C   UNL     1       1.208  -0.292  -0.572  0.00  0.00    +0.000 C 
ATOM     25  N   UNL     1       2.630  -0.024  -0.518  0.00  0.00    +0.000 N 
ATOM     26  C   UNL     1       3.355   1.128  -0.482  0.00  0.00    +0.000 A 
ATOM     27  N   UNL     1       4.646   0.945  -0.587  0.00  0.00    +0.000 NA
ATOM     28  N   UNL     1       4.786  -0.408  -0.675  0.00  0.00    +0.000 N 
ATOM     29  C   UNL     1       3.550  -1.034  -0.646  0.00  0.00    +0.000 A 
ATOM     30  O   UNL     1       3.343  -2.232  -0.743  0.00  0.00    +0.000 OA
ATOM     31  H   UNL     1       5.679  -0.867  -0.787  0.00  0.00    +0.000 HD
ENDBRANCH  18  26
ENDBRANCH   1  21
TORSDOF 4
