REMARK  Name = 
REMARK  8 active torsions:
REMARK  status: ('A' for Active; 'I' for Inactive)
REMARK    1  A    between atoms: N_3  and  C_4
REMARK    2  A    between atoms: C_4  and  C_5
REMARK    3  A    between atoms: C_9  and  C_10
REMARK    4  A    between atoms: N_17  and  C_18
REMARK    5  A    between atoms: C_18  and  C_19
REMARK    6  A    between atoms: N_23  and  C_24
REMARK    7  A    between atoms: C_24  and  C_25
REMARK    8  A    between atoms: C_25  and  C_26
REMARK                            x       y       z     vdW  Elec       q    Type
REMARK                         _______ _______ _______ _____ _____    ______ ____
ROOT
ATOM      1  O   UNL     1       2.783  -1.059  -0.301  0.00  0.00    +0.000 OA
ATOM      2  C   UNL     1       2.201   0.018  -0.238  0.00  0.00    +0.000 C 
ATOM      3  N   UNL     1       0.840   0.155  -0.252  0.00  0.00    +0.000 N 
ATOM      4  N   UNL     1       2.841   1.226  -0.168  0.00  0.00    +0.000 N 
ATOM      5  H   UNL     1       0.489   1.047  -0.571  0.00  0.00    +0.000 HD
ATOM      6  H   UNL     1       2.317   1.992   0.227  0.00  0.00    +0.000 HD
ENDROOT
BRANCH   3   7
ATOM      7  C   UNL     1      -0.014  -0.992  -0.472  0.00  0.00    +0.000 C 
BRANCH   7   8
ATOM      8  C   UNL     1      -1.367  -0.792   0.158  0.00  0.00    +0.000 A 
ATOM      9  C   UNL     1      -1.598  -1.237   1.466  0.00  0.00    +0.000 A 
ATOM     10  C   UNL     1      -2.838  -1.050   2.067  0.00  0.00    +0.000 A 
ATOM     11  C   UNL     1      -3.849  -0.376   1.379  0.00  0.00    +0.000 A 
ATOM     12  C   UNL     1      -3.643   0.136   0.085  0.00  0.00    +0.000 A 
ATOM     13  C   UNL     1      -2.398  -0.118  -0.524  0.00  0.00    +0.000 A 
BRANCH  12  14
ATOM     14  C   UNL     1      -4.673   0.960  -0.582  0.00  0.00    +0.000 A 
ATOM     15  C   UNL     1      -5.477   1.851   0.136  0.00  0.00    +0.000 A 
ATOM     16  C   UNL     1      -6.419   2.627  -0.535  0.00  0.00    +0.000 A 
ATOM     17  C   UNL     1      -6.537   2.503  -1.910  0.00  0.00    +0.000 A 
ATOM     18  C   UNL     1      -5.704   1.605  -2.557  0.00  0.00    +0.000 A 
ATOM     19  N   UNL     1      -4.774   0.844  -1.931  0.00  0.00    +0.000 NA
ENDBRANCH  12  14
ENDBRANCH   7   8
ENDBRANCH   3   7
BRANCH   4  20
ATOM     20  C   UNL     1       4.277   1.278  -0.042  0.00  0.00    +0.000 C 
BRANCH  20  21
ATOM     21  C   UNL     1       4.748   2.608  -0.502  0.00  0.00    +0.000 A 
ATOM     22  C   UNL     1       5.010   3.753   0.226  0.00  0.00    +0.000 A 
ATOM     23  C   UNL     1       5.503   4.679  -0.704  0.00  0.00    +0.000 A 
ATOM     24  N   UNL     1       5.549   4.179  -1.936  0.00  0.00    +0.000 NA
ATOM     25  N   UNL     1       5.060   2.924  -1.806  0.00  0.00    +0.000 N 
BRANCH  25  26
ATOM     26  C   UNL     1       5.070   2.076  -2.983  0.00  0.00    +0.000 C 
BRANCH  26  27
ATOM     27  C   UNL     1       3.721   1.508  -3.427  0.00  0.00    +0.000 C 
BRANCH  27  28
ATOM     28  C   UNL     1       2.574   2.458  -3.689  0.00  0.00    +0.000 A 
ATOM     29  C   UNL     1       2.756   3.759  -4.174  0.00  0.00    +0.000 A 
ATOM     30  C   UNL     1       1.654   4.558  -4.493  0.00  0.00    +0.000 A 
ATOM     31  C   UNL     1       0.359   4.069  -4.334  0.00  0.00    +0.000 A 
ATOM     32  C   UNL     1       0.162   2.780  -3.848  0.00  0.00    +0.000 A 
ATOM     33  C   UNL     1       1.262   1.980  -3.534  0.00  0.00    +0.000 A 
ENDBRANCH  27  28
ENDBRANCH  26  27
ENDBRANCH  25  26
ENDBRANCH  20  21
ENDBRANCH   4  20
TORSDOF 8
