REMARK  Name = 
REMARK  6 active torsions:
REMARK  status: ('A' for Active; 'I' for Inactive)
REMARK    1  A    between atoms: C_1  and  O_2
REMARK    2  A    between atoms: O_2  and  C_3
REMARK    3  A    between atoms: C_3  and  C_5
REMARK    4  A    between atoms: C_14  and  C_15
REMARK    5  A    between atoms: C_18  and  C_19
REMARK    6  A    between atoms: C_19  and  N_20
REMARK                            x       y       z     vdW  Elec       q    Type
REMARK                         _______ _______ _______ _____ _____    ______ ____
ROOT
ATOM      1  C   UNL     1       6.595  -2.451   0.639  0.00  0.00    +0.000 A 
ATOM      2  C   UNL     1       7.252  -1.399   1.289  0.00  0.00    +0.000 A 
ATOM      3  C   UNL     1       6.712  -0.120   1.276  0.00  0.00    +0.000 A 
ATOM      4  C   UNL     1       5.519   0.156   0.643  0.00  0.00    +0.000 A 
ATOM      5  N   UNL     1       5.132   1.445   0.650  0.00  0.00    +0.000 NA
ATOM      6  C   UNL     1       3.975   1.772   0.050  0.00  0.00    +0.000 A 
ATOM      7  C   UNL     1       3.136   0.848  -0.518  0.00  0.00    +0.000 A 
ATOM      8  C   UNL     1       3.529  -0.487  -0.483  0.00  0.00    +0.000 A 
ATOM      9  C   UNL     1       4.786  -0.898   0.043  0.00  0.00    +0.000 A 
ATOM     10  C   UNL     1       5.335  -2.248   0.009  0.00  0.00    +0.000 A 
ENDROOT
BRANCH  10  11
ATOM     11  C   UNL     1       4.593  -3.375  -0.655  0.00  0.00    +0.000 A 
ATOM     12  C   UNL     1       3.923  -3.199  -1.879  0.00  0.00    +0.000 A 
ATOM     13  C   UNL     1       3.133  -4.202  -2.446  0.00  0.00    +0.000 A 
ATOM     14  C   UNL     1       3.095  -5.480  -1.886  0.00  0.00    +0.000 A 
ATOM     15  C   UNL     1       3.826  -5.712  -0.720  0.00  0.00    +0.000 A 
ATOM     16  C   UNL     1       4.518  -4.665  -0.093  0.00  0.00    +0.000 A 
BRANCH  14  17
ATOM     17  C   UNL     1       2.355  -6.596  -2.590  0.00  0.00    +0.000 C 
BRANCH  17  18
ATOM     18  N   UNL     1       3.159  -7.150  -3.680  0.00  0.00    +0.000 N 
ATOM     19  C   UNL     1       4.053  -8.172  -3.409  0.00  0.00    +0.000 A 
ATOM     20  C   UNL     1       4.911  -8.606  -4.345  0.00  0.00    +0.000 A 
ATOM     21  C   UNL     1       4.935  -7.989  -5.643  0.00  0.00    +0.000 A 
ATOM     22  C   UNL     1       4.077  -7.005  -5.941  0.00  0.00    +0.000 A 
ATOM     23  C   UNL     1       3.092  -6.537  -4.930  0.00  0.00    +0.000 A 
ATOM     24  O   UNL     1       2.304  -5.644  -5.240  0.00  0.00    +0.000 OA
ENDBRANCH  17  18
ENDBRANCH  14  17
ENDBRANCH  10  11
BRANCH   1  25
ATOM     25  C   UNL     1       7.341  -3.737   0.594  0.00  0.00    +0.000 C 
ATOM     26  O   UNL     1       7.532  -4.400  -0.412  0.00  0.00    +0.000 OA
BRANCH  25  28
ATOM     27  C   UNL     1       8.427  -5.303   1.966  0.00  0.00    +0.000 C 
ATOM     28  O   UNL     1       7.747  -4.050   1.853  0.00  0.00    +0.000 OA
ENDBRANCH  25  28
ENDBRANCH   1  25
TORSDOF 5
