REMARK  Name = 
REMARK  5 active torsions:
REMARK  status: ('A' for Active; 'I' for Inactive)
REMARK    1  A    between atoms: C_2  and  C_3
REMARK    2  A    between atoms: C_3  and  O_4
REMARK    3  A    between atoms: O_4  and  C_5
REMARK    4  A    between atoms: C_5  and  C_7
REMARK    5  A    between atoms: N_19  and  C_20
REMARK                            x       y       z     vdW  Elec       q    Type
REMARK                         _______ _______ _______ _____ _____    ______ ____
ROOT
ATOM      1  O   UNL     1       2.080  -2.394  -0.555  0.00  0.00    +0.000 OA
ENDROOT
BRANCH   1   2
ATOM      2  C   UNL     1       1.559  -2.886   0.589  0.00  0.00    +0.000 C 
ATOM      3  O   UNL     1       1.779  -2.461   1.710  0.00  0.00    +0.000 OA
BRANCH   2   4
ATOM      4  C   UNL     1       0.591  -3.965   0.300  0.00  0.00    +0.000 A 
ATOM      5  C   UNL     1      -0.101  -4.513   1.390  0.00  0.00    +0.000 A 
ATOM      6  C   UNL     1      -1.086  -5.472   1.176  0.00  0.00    +0.000 A 
ATOM      7  C   UNL     1      -1.348  -5.906  -0.129  0.00  0.00    +0.000 A 
ATOM      8  N   UNL     1      -2.354  -6.856  -0.345  0.00  0.00    +0.000 N 
ATOM      9  C   UNL     1      -3.144  -7.355   0.653  0.00  0.00    +0.000 A 
ATOM     10  O   UNL     1      -4.048  -8.156   0.441  0.00  0.00    +0.000 OA
ATOM     11  C   UNL     1      -2.862  -6.878   2.029  0.00  0.00    +0.000 A 
ATOM     12  C   UNL     1      -1.879  -6.004   2.281  0.00  0.00    +0.000 A 
ATOM     13  C   UNL     1      -0.638  -5.378  -1.205  0.00  0.00    +0.000 A 
ATOM     14  F   UNL     1      -0.900  -5.793  -2.453  0.00  0.00    +0.000 F 
ATOM     15  C   UNL     1       0.323  -4.399  -1.004  0.00  0.00    +0.000 A 
ATOM     16  H   UNL     1      -2.548  -7.175  -1.288  0.00  0.00    +0.000 HD
ENDBRANCH   2   4
ENDBRANCH   1   2
BRANCH   1  17
ATOM     17  C   UNL     1       2.968  -1.294  -0.373  0.00  0.00    +0.000 C 
BRANCH  17  19
ATOM     18  O   UNL     1       2.503   0.982  -0.968  0.00  0.00    +0.000 OA
ATOM     19  C   UNL     1       2.256   0.053  -0.205  0.00  0.00    +0.000 C 
ATOM     20  N   UNL     1       1.388   0.117   0.873  0.00  0.00    +0.000 N 
ATOM     21  H   UNL     1       1.430  -0.649   1.546  0.00  0.00    +0.000 HD
BRANCH  20  22
ATOM     22  C   UNL     1       0.559   1.210   1.201  0.00  0.00    +0.000 A 
ATOM     23  C   UNL     1       0.278   2.264   0.342  0.00  0.00    +0.000 A 
ATOM     24  N   UNL     1      -0.502   3.327   0.660  0.00  0.00    +0.000 NA
ATOM     25  C   UNL     1      -1.049   3.361   1.884  0.00  0.00    +0.000 A 
ATOM     26  C   UNL     1      -1.850   4.438   2.231  0.00  0.00    +0.000 A 
ATOM     27  C   UNL     1      -2.482   4.510   3.475  0.00  0.00    +0.000 A 
ATOM     28  C   UNL     1      -2.292   3.495   4.405  0.00  0.00    +0.000 A 
ATOM     29  C   UNL     1      -1.471   2.413   4.090  0.00  0.00    +0.000 A 
ATOM     30  C   UNL     1      -0.853   2.330   2.828  0.00  0.00    +0.000 A 
ATOM     31  C   UNL     1      -0.039   1.247   2.459  0.00  0.00    +0.000 A 
ENDBRANCH  20  22
ENDBRANCH  17  19
ENDBRANCH   1  17
TORSDOF 5
