REMARK  Name = 
REMARK  6 active torsions:
REMARK  status: ('A' for Active; 'I' for Inactive)
REMARK    1  A    between atoms: C_2  and  C_4
REMARK    2  A    between atoms: C_4  and  N_5
REMARK    3  A    between atoms: C_4  and  C_23
REMARK    4  A    between atoms: N_8  and  C_9
REMARK    5  A    between atoms: C_9  and  C_10
REMARK    6  A    between atoms: C_13  and  C_14
REMARK                            x       y       z     vdW  Elec       q    Type
REMARK                         _______ _______ _______ _____ _____    ______ ____
ROOT
ATOM      1  N   UNL     1       0.227   0.475  -2.338  0.00  0.00    +0.000 N 
ATOM      2  C   UNL     1       1.319   1.183  -2.720  0.00  0.00    +0.000 C 
ATOM      3  O   UNL     1       2.475   0.845  -2.509  0.00  0.00    +0.000 OA
ATOM      4  N   UNL     1       1.027   2.304  -3.440  0.00  0.00    +0.000 N 
ATOM      5  H   UNL     1      -0.542   1.053  -2.039  0.00  0.00    +0.000 HD
ATOM      6  H   UNL     1       1.825   2.893  -3.648  0.00  0.00    +0.000 HD
ENDROOT
BRANCH   1   7
ATOM      7  C   UNL     1       0.318  -0.802  -1.636  0.00  0.00    +0.000 C 
BRANCH   7   8
ATOM      8  C   UNL     1      -0.934  -0.948  -0.782  0.00  0.00    +0.000 A 
ATOM      9  C   UNL     1      -0.829  -0.968   0.618  0.00  0.00    +0.000 A 
ATOM     10  C   UNL     1      -1.976  -1.014   1.411  0.00  0.00    +0.000 A 
ATOM     11  C   UNL     1      -3.229  -1.031   0.810  0.00  0.00    +0.000 A 
ATOM     12  F   UNL     1      -4.328  -1.062   1.576  0.00  0.00    +0.000 F 
ATOM     13  C   UNL     1      -3.360  -1.008  -0.573  0.00  0.00    +0.000 A 
ATOM     14  C   UNL     1      -2.216  -0.971  -1.370  0.00  0.00    +0.000 A 
ENDBRANCH   7   8
BRANCH   7  16
ATOM     15  N   UNL     1       0.322  -1.709  -3.952  0.00  0.00    +0.000 N 
ATOM     16  C   UNL     1       0.486  -1.990  -2.620  0.00  0.00    +0.000 C 
ATOM     17  O   UNL     1       0.676  -3.150  -2.260  0.00  0.00    +0.000 OA
ATOM     18  H   UNL     1       0.538  -2.453  -4.602  0.00  0.00    +0.000 HD
ATOM     19  H   UNL     1       0.428  -0.752  -4.263  0.00  0.00    +0.000 HD
ENDBRANCH   7  16
ENDBRANCH   1   7
BRANCH   4  20
ATOM     20  C   UNL     1      -0.295   2.748  -3.832  0.00  0.00    +0.000 C 
BRANCH  20  21
ATOM     21  C   UNL     1      -0.308   3.442  -5.154  0.00  0.00    +0.000 A 
ATOM     22  C   UNL     1       0.128   2.800  -6.317  0.00  0.00    +0.000 A 
ATOM     23  C   UNL     1       0.029   3.444  -7.556  0.00  0.00    +0.000 A 
ATOM     24  C   UNL     1      -0.491   4.748  -7.667  0.00  0.00    +0.000 A 
ATOM     25  C   UNL     1      -0.933   5.369  -6.489  0.00  0.00    +0.000 A 
ATOM     26  C   UNL     1      -0.849   4.720  -5.262  0.00  0.00    +0.000 A 
ATOM     27  F   UNL     1      -1.311   5.344  -4.170  0.00  0.00    +0.000 F 
BRANCH  24  28
ATOM     28  C   UNL     1      -0.546   5.455  -8.966  0.00  0.00    +0.000 A 
ATOM     29  C   UNL     1      -1.577   6.364  -9.267  0.00  0.00    +0.000 A 
ATOM     30  C   UNL     1      -1.591   7.081 -10.465  0.00  0.00    +0.000 A 
ATOM     31  C   UNL     1      -0.581   6.890 -11.402  0.00  0.00    +0.000 A 
ATOM     32  C   UNL     1       0.439   5.980 -11.141  0.00  0.00    +0.000 A 
ATOM     33  C   UNL     1       0.457   5.275  -9.936  0.00  0.00    +0.000 A 
ENDBRANCH  24  28
ENDBRANCH  20  21
ENDBRANCH   4  20
TORSDOF 6
