REMARK  Name = 
REMARK  5 active torsions:
REMARK  status: ('A' for Active; 'I' for Inactive)
REMARK    1  A    between atoms: C_2  and  C_11
REMARK    2  A    between atoms: N_3  and  C_4
REMARK    3  A    between atoms: N_16  and  C_17
REMARK    4  A    between atoms: C_17  and  C_18
REMARK    5  A    between atoms: N_20  and  C_21
REMARK                            x       y       z     vdW  Elec       q    Type
REMARK                         _______ _______ _______ _____ _____    ______ ____
ROOT
ATOM      1  C   UNL     1       3.097  -0.803   1.062  0.00  0.00    +0.000 A 
ATOM      2  C   UNL     1       2.645  -2.060   1.447  0.00  0.00    +0.000 A 
ATOM      3  C   UNL     1       3.423  -2.792   2.323  0.00  0.00    +0.000 A 
ATOM      4  C   UNL     1       4.599  -2.225   2.800  0.00  0.00    +0.000 A 
ATOM      5  C   UNL     1       5.004  -0.964   2.352  0.00  0.00    +0.000 A 
ATOM      6  N   UNL     1       6.111  -0.382   2.964  0.00  0.00    +0.000 N 
ATOM      7  N   UNL     1       4.275  -0.251   1.468  0.00  0.00    +0.000 NA
ATOM      8  H   UNL     1       6.751  -1.044   3.387  0.00  0.00    +0.000 HD
ENDROOT
BRANCH   1  10
ATOM      9  O   UNL     1       1.111  -0.421  -0.122  0.00  0.00    +0.000 OA
ATOM     10  C   UNL     1       2.219   0.014   0.167  0.00  0.00    +0.000 C 
ATOM     11  N   UNL     1       2.783   1.195  -0.295  0.00  0.00    +0.000 N 
ATOM     12  H   UNL     1       3.755   1.341  -0.037  0.00  0.00    +0.000 HD
BRANCH  11  13
ATOM     13  C   UNL     1       2.176   2.083  -1.210  0.00  0.00    +0.000 A 
ATOM     14  C   UNL     1       0.802   2.064  -1.489  0.00  0.00    +0.000 A 
ATOM     15  C   UNL     1       0.258   2.899  -2.463  0.00  0.00    +0.000 A 
ATOM     16  C   UNL     1       1.087   3.765  -3.158  0.00  0.00    +0.000 A 
ATOM     17  F   UNL     1       0.574   4.540  -4.121  0.00  0.00    +0.000 F 
ATOM     18  C   UNL     1       2.446   3.834  -2.867  0.00  0.00    +0.000 A 
ATOM     19  C   UNL     1       2.989   3.004  -1.881  0.00  0.00    +0.000 A 
ENDBRANCH  11  13
ENDBRANCH   1  10
BRANCH   6  20
ATOM     20  C   UNL     1       6.868   0.579   2.155  0.00  0.00    +0.000 C 
BRANCH  20  21
ATOM     21  C   UNL     1       8.119   1.096   2.823  0.00  0.00    +0.000 A 
ATOM     22  N   UNL     1       8.777   0.389   3.756  0.00  0.00    +0.000 NA
ATOM     23  N   UNL     1       9.709   1.277   4.188  0.00  0.00    +0.000 N 
ATOM     24  C   UNL     1       9.626   2.418   3.427  0.00  0.00    +0.000 A 
ATOM     25  N   UNL     1       8.642   2.332   2.561  0.00  0.00    +0.000 NA
BRANCH  23  26
ATOM     26  C   UNL     1      10.570   0.994   5.280  0.00  0.00    +0.000 A 
ATOM     27  C   UNL     1      10.490  -0.254   5.919  0.00  0.00    +0.000 A 
ATOM     28  C   UNL     1      11.316  -0.539   7.008  0.00  0.00    +0.000 A 
ATOM     29  C   UNL     1      12.221   0.416   7.468  0.00  0.00    +0.000 A 
ATOM     30  C   UNL     1      12.304   1.657   6.838  0.00  0.00    +0.000 A 
ATOM     31  C   UNL     1      11.484   1.949   5.745  0.00  0.00    +0.000 A 
ENDBRANCH  23  26
ENDBRANCH  20  21
ENDBRANCH   6  20
TORSDOF 5
