REMARK  Name = 
REMARK  3 active torsions:
REMARK  status: ('A' for Active; 'I' for Inactive)
REMARK    1  A    between atoms: C_2  and  C_15
REMARK    2  A    between atoms: N_3  and  C_4
REMARK    3  A    between atoms: N_17  and  C_18
REMARK                            x       y       z     vdW  Elec       q    Type
REMARK                         _______ _______ _______ _____ _____    ______ ____
ROOT
ATOM      1  O   UNL     1       0.950   0.193   0.181  0.00  0.00    +0.000 OA
ATOM      2  C   UNL     1       2.138  -0.000  -0.061  0.00  0.00    +0.000 C 
ATOM      3  N   UNL     1       2.806  -1.194   0.139  0.00  0.00    +0.000 N 
ATOM      4  H   UNL     1       3.818  -1.178   0.138  0.00  0.00    +0.000 HD
ENDROOT
BRANCH   3   5
ATOM      5  C   UNL     1       2.189  -2.398   0.556  0.00  0.00    +0.000 A 
ATOM      6  C   UNL     1       0.806  -2.608   0.468  0.00  0.00    +0.000 A 
ATOM      7  C   UNL     1       0.223  -3.767   0.978  0.00  0.00    +0.000 A 
ATOM      8  C   UNL     1       1.034  -4.727   1.576  0.00  0.00    +0.000 A 
ATOM      9  C   UNL     1       0.450  -5.924   2.204  0.00  0.00    +0.000 A 
ATOM     10  O   UNL     1      -0.754  -6.149   2.195  0.00  0.00    +0.000 OA
ATOM     11  N   UNL     1       1.346  -6.764   2.809  0.00  0.00    +0.000 N 
ATOM     12  C   UNL     1       2.693  -6.543   2.794  0.00  0.00    +0.000 A 
ATOM     13  N   UNL     1       3.259  -5.526   2.239  0.00  0.00    +0.000 NA
ATOM     14  C   UNL     1       2.423  -4.572   1.629  0.00  0.00    +0.000 A 
ATOM     15  C   UNL     1       2.995  -3.410   1.093  0.00  0.00    +0.000 A 
ATOM     16  H   UNL     1       0.956  -7.580   3.258  0.00  0.00    +0.000 HD
ENDBRANCH   3   5
BRANCH   2  17
ATOM     17  C   UNL     1       2.971   1.139  -0.564  0.00  0.00    +0.000 A 
ATOM     18  C   UNL     1       2.498   2.369  -0.296  0.00  0.00    +0.000 A 
ATOM     19  N   UNL     1       3.029   3.535  -0.855  0.00  0.00    +0.000 N 
ATOM     20  C   UNL     1       4.124   3.447  -1.743  0.00  0.00    +0.000 A 
ATOM     21  O   UNL     1       4.713   4.376  -2.293  0.00  0.00    +0.000 OA
ATOM     22  C   UNL     1       4.644   2.073  -2.016  0.00  0.00    +0.000 A 
ATOM     23  C   UNL     1       4.096   0.991  -1.452  0.00  0.00    +0.000 A 
BRANCH  19  24
ATOM     24  C   UNL     1       2.420   4.819  -0.577  0.00  0.00    +0.000 A 
ATOM     25  C   UNL     1       2.422   5.854  -1.528  0.00  0.00    +0.000 A 
ATOM     26  C   UNL     1       1.815   7.088  -1.265  0.00  0.00    +0.000 A 
ATOM     27  C   UNL     1       1.196   7.301  -0.044  0.00  0.00    +0.000 A 
ATOM     28  F   UNL     1       0.623   8.484   0.212  0.00  0.00    +0.000 F 
ATOM     29  C   UNL     1       1.163   6.300   0.915  0.00  0.00    +0.000 A 
ATOM     30  C   UNL     1       1.767   5.065   0.648  0.00  0.00    +0.000 A 
ENDBRANCH  19  24
ENDBRANCH   2  17
TORSDOF 3
