REMARK  Name = 
REMARK  5 active torsions:
REMARK  status: ('A' for Active; 'I' for Inactive)
REMARK    1  A    between atoms: C_1  and  N_2
REMARK    2  A    between atoms: C_7  and  N_8
REMARK    3  A    between atoms: N_11  and  C_12
REMARK    4  A    between atoms: C_14  and  C_15
REMARK    5  A    between atoms: C_18  and  O_19
REMARK                            x       y       z     vdW  Elec       q    Type
REMARK                         _______ _______ _______ _____ _____    ______ ____
ROOT
ATOM      1  N   UNL     1       4.559  -0.256  -0.238  0.00  0.00    +0.000 N 
ATOM      2  C   UNL     1       5.508   0.753  -0.201  0.00  0.00    +0.000 C 
ATOM      3  O   UNL     1       5.250   1.940  -0.009  0.00  0.00    +0.000 OA
ATOM      4  N   UNL     1       6.797   0.277  -0.418  0.00  0.00    +0.000 N 
ATOM      5  H   UNL     1       4.894  -1.179   0.005  0.00  0.00    +0.000 HD
ATOM      6  H   UNL     1       6.844  -0.489  -1.076  0.00  0.00    +0.000 HD
ENDROOT
BRANCH   1  13
ATOM      7  C   UNL     1      -2.915   2.222   0.308  0.00  0.00    +0.000 C 
ATOM      8  N   UNL     1      -1.530   1.915   0.008  0.00  0.00    +0.000 N 
ATOM      9  C   UNL     1      -0.720   2.868  -0.574  0.00  0.00    +0.000 A 
ATOM     10  C   UNL     1       0.585   2.663  -0.798  0.00  0.00    +0.000 A 
ATOM     11  C   UNL     1       1.193   1.394  -0.406  0.00  0.00    +0.000 A 
ATOM     12  C   UNL     1       2.569   1.179  -0.550  0.00  0.00    +0.000 A 
ATOM     13  C   UNL     1       3.161  -0.033  -0.164  0.00  0.00    +0.000 A 
ATOM     14  C   UNL     1       2.339  -1.062   0.309  0.00  0.00    +0.000 A 
ATOM     15  C   UNL     1       0.963  -0.851   0.472  0.00  0.00    +0.000 A 
ATOM     16  C   UNL     1       0.395   0.383   0.134  0.00  0.00    +0.000 A 
ATOM     17  C   UNL     1      -1.049   0.647   0.374  0.00  0.00    +0.000 A 
ATOM     18  O   UNL     1      -1.752  -0.223   0.888  0.00  0.00    +0.000 OA
ENDBRANCH   1  13
BRANCH   4  19
ATOM     19  C   UNL     1       7.882   1.190  -0.440  0.00  0.00    +0.000 A 
ATOM     20  C   UNL     1       8.062   2.122   0.594  0.00  0.00    +0.000 A 
ATOM     21  C   UNL     1       9.058   3.118   0.542  0.00  0.00    +0.000 A 
ATOM     22  C   UNL     1       9.872   3.136  -0.604  0.00  0.00    +0.000 A 
ATOM     23  C   UNL     1       9.726   2.184  -1.621  0.00  0.00    +0.000 A 
ATOM     24  C   UNL     1       8.749   1.194  -1.528  0.00  0.00    +0.000 A 
BRANCH  21  25
ATOM     25  C   UNL     1       9.217   4.111   1.633  0.00  0.00    +0.000 A 
ATOM     26  C   UNL     1       8.142   4.518   2.439  0.00  0.00    +0.000 A 
ATOM     27  C   UNL     1       8.319   5.458   3.456  0.00  0.00    +0.000 A 
ATOM     28  C   UNL     1       9.581   5.990   3.637  0.00  0.00    +0.000 A 
ATOM     29  N   UNL     1      10.649   5.638   2.909  0.00  0.00    +0.000 NA
ATOM     30  C   UNL     1      10.443   4.712   1.938  0.00  0.00    +0.000 A 
BRANCH  28  31
ATOM     31  O   UNL     1       9.816   6.939   4.586  0.00  0.00    +0.000 OA
ATOM     32  H   UNL     1       8.962   7.210   4.951  0.00  0.00    +0.000 HD
ENDBRANCH  28  31
ENDBRANCH  21  25
ENDBRANCH   4  19
TORSDOF 4
