REMARK  Name = 
REMARK  5 active torsions:
REMARK  status: ('A' for Active; 'I' for Inactive)
REMARK    1  A    between atoms: C_2  and  C_16
REMARK    2  A    between atoms: N_3  and  C_4
REMARK    3  A    between atoms: C_4  and  C_5
REMARK    4  A    between atoms: C_8  and  C_9
REMARK    5  A    between atoms: C_18  and  C_19
REMARK                            x       y       z     vdW  Elec       q    Type
REMARK                         _______ _______ _______ _____ _____    ______ ____
ROOT
ATOM      1  O   UNL     1       1.099  -0.087  -0.280  0.00  0.00    +0.000 OA
ATOM      2  C   UNL     1       2.313  -0.029  -0.095  0.00  0.00    +0.000 C 
ATOM      3  N   UNL     1       3.110   0.734  -0.919  0.00  0.00    +0.000 N 
ATOM      4  H   UNL     1       4.121   0.688  -0.847  0.00  0.00    +0.000 HD
ENDROOT
BRANCH   2   5
ATOM      5  C   UNL     1       2.958  -0.756   0.967  0.00  0.00    +0.000 A 
ATOM      6  C   UNL     1       2.427  -1.655   1.858  0.00  0.00    +0.000 A 
ATOM      7  C   UNL     1       3.500  -2.049   2.694  0.00  0.00    +0.000 A 
ATOM      8  N   UNL     1       4.622  -1.406   2.327  0.00  0.00    +0.000 NA
ATOM      9  O   UNL     1       4.282  -0.604   1.245  0.00  0.00    +0.000 OA
BRANCH   7  10
ATOM     10  C   UNL     1       3.448  -3.021   3.783  0.00  0.00    +0.000 A 
ATOM     11  C   UNL     1       2.579  -4.120   3.706  0.00  0.00    +0.000 A 
ATOM     12  F   UNL     1       1.802  -4.304   2.627  0.00  0.00    +0.000 F 
ATOM     13  C   UNL     1       2.487  -5.059   4.729  0.00  0.00    +0.000 A 
ATOM     14  C   UNL     1       3.278  -4.902   5.857  0.00  0.00    +0.000 A 
ATOM     15  F   UNL     1       3.193  -5.798   6.848  0.00  0.00    +0.000 F 
ATOM     16  C   UNL     1       4.145  -3.827   5.975  0.00  0.00    +0.000 A 
ATOM     17  C   UNL     1       4.225  -2.893   4.939  0.00  0.00    +0.000 A 
ATOM     18  F   UNL     1       5.047  -1.847   5.109  0.00  0.00    +0.000 F 
ENDBRANCH   7  10
ENDBRANCH   2   5
BRANCH   3  19
ATOM     19  C   UNL     1       2.490   1.437  -2.025  0.00  0.00    +0.000 C 
BRANCH  19  20
ATOM     20  C   UNL     1       3.469   2.240  -2.789  0.00  0.00    +0.000 A 
ATOM     21  N   UNL     1       4.742   2.010  -3.036  0.00  0.00    +0.000 NA
ATOM     22  N   UNL     1       5.178   3.062  -3.816  0.00  0.00    +0.000 NA
ATOM     23  C   UNL     1       4.144   3.859  -3.999  0.00  0.00    +0.000 A 
ATOM     24  O   UNL     1       3.014   3.396  -3.369  0.00  0.00    +0.000 OA
BRANCH  23  25
ATOM     25  C   UNL     1       4.027   5.086  -4.780  0.00  0.00    +0.000 A 
ATOM     26  C   UNL     1       5.152   5.598  -5.447  0.00  0.00    +0.000 A 
ATOM     27  C   UNL     1       5.050   6.731  -6.260  0.00  0.00    +0.000 A 
ATOM     28  C   UNL     1       3.824   7.372  -6.411  0.00  0.00    +0.000 A 
ATOM     29  C   UNL     1       2.703   6.895  -5.735  0.00  0.00    +0.000 A 
ATOM     30  C   UNL     1       2.804   5.762  -4.922  0.00  0.00    +0.000 A 
ENDBRANCH  23  25
ENDBRANCH  19  20
ENDBRANCH   3  19
TORSDOF 5
