REMARK  Name = 
REMARK  3 active torsions:
REMARK  status: ('A' for Active; 'I' for Inactive)
REMARK    1  A    between atoms: C_2  and  C_3
REMARK    2  A    between atoms: C_3  and  C_4
REMARK    3  A    between atoms: C_18  and  C_19
REMARK                            x       y       z     vdW  Elec       q    Type
REMARK                         _______ _______ _______ _____ _____    ______ ____
ROOT
ATOM      1  O   UNL     1       1.707  -0.026  -1.474  0.00  0.00    +0.000 OA
ATOM      2  C   UNL     1       2.510  -0.052  -0.539  0.00  0.00    +0.000 C 
ATOM      3  N   UNL     1       3.081   1.042   0.061  0.00  0.00    +0.000 N 
ATOM      4  C   UNL     1       2.826   2.363  -0.279  0.00  0.00    +0.000 A 
ATOM      5  N   UNL     1       2.115   2.651  -1.368  0.00  0.00    +0.000 NA
ATOM      6  C   UNL     1       1.831   3.938  -1.639  0.00  0.00    +0.000 A 
ATOM      7  C   UNL     1       2.279   4.956  -0.825  0.00  0.00    +0.000 A 
ATOM      8  C   UNL     1       3.032   4.570   0.262  0.00  0.00    +0.000 A 
ATOM      9  N   UNL     1       3.323   3.287   0.555  0.00  0.00    +0.000 NA
ATOM     10  H   UNL     1       3.567   0.938   0.942  0.00  0.00    +0.000 HD
ENDROOT
BRANCH   6  11
ATOM     11  C   UNL     1       0.996   4.136  -2.836  0.00  0.00    +0.000 A 
ATOM     12  C   UNL     1       0.047   3.162  -3.205  0.00  0.00    +0.000 A 
ATOM     13  C   UNL     1      -0.742   3.319  -4.340  0.00  0.00    +0.000 A 
ATOM     14  F   UNL     1      -1.639   2.377  -4.658  0.00  0.00    +0.000 F 
ATOM     15  C   UNL     1      -0.613   4.436  -5.148  0.00  0.00    +0.000 A 
ATOM     16  C   UNL     1       0.322   5.399  -4.801  0.00  0.00    +0.000 A 
ATOM     17  F   UNL     1       0.470   6.481  -5.576  0.00  0.00    +0.000 F 
ATOM     18  C   UNL     1       1.119   5.266  -3.664  0.00  0.00    +0.000 A 
ENDBRANCH   6  11
BRANCH   2  19
ATOM     19  C   UNL     1       2.995  -1.407  -0.062  0.00  0.00    +0.000 C 
BRANCH  19  20
ATOM     20  C   UNL     1       3.604  -1.506   1.317  0.00  0.00    +0.000 A 
ATOM     21  N   UNL     1       3.217  -0.655   2.221  0.00  0.00    +0.000 NA
ATOM     22  N   UNL     1       3.829  -0.673   3.431  0.00  0.00    +0.000 N 
ATOM     23  C   UNL     1       4.926  -1.429   3.765  0.00  0.00    +0.000 A 
ATOM     24  O   UNL     1       5.507  -1.308   4.837  0.00  0.00    +0.000 OA
ATOM     25  C   UNL     1       5.353  -2.424   2.769  0.00  0.00    +0.000 A 
ATOM     26  C   UNL     1       6.434  -3.271   3.033  0.00  0.00    +0.000 A 
ATOM     27  C   UNL     1       6.767  -4.270   2.120  0.00  0.00    +0.000 A 
ATOM     28  C   UNL     1       6.000  -4.444   0.968  0.00  0.00    +0.000 A 
ATOM     29  C   UNL     1       4.932  -3.584   0.695  0.00  0.00    +0.000 A 
ATOM     30  C   UNL     1       4.635  -2.541   1.581  0.00  0.00    +0.000 A 
ATOM     31  H   UNL     1       3.502  -0.001   4.119  0.00  0.00    +0.000 HD
ENDBRANCH  19  20
ENDBRANCH   2  19
TORSDOF 3
