REMARK  Name = 
REMARK  6 active torsions:
REMARK  status: ('A' for Active; 'I' for Inactive)
REMARK    1  A    between atoms: C_2  and  C_19
REMARK    2  A    between atoms: N_3  and  C_4
REMARK    3  A    between atoms: C_8  and  C_9
REMARK    4  A    between atoms: C_9  and  O_10
REMARK    5  A    between atoms: O_10  and  C_11
REMARK    6  A    between atoms: C_11  and  C_12
REMARK                            x       y       z     vdW  Elec       q    Type
REMARK                         _______ _______ _______ _____ _____    ______ ____
ROOT
ATOM      1  O   UNL     1       0.808   0.030   0.340  0.00  0.00    +0.000 OA
ATOM      2  C   UNL     1       1.974  -0.046  -0.040  0.00  0.00    +0.000 C 
ATOM      3  N   UNL     1       2.688   0.945  -0.713  0.00  0.00    +0.000 N 
ATOM      4  H   UNL     1       3.619   0.745  -1.033  0.00  0.00    +0.000 HD
ENDROOT
BRANCH   2   5
ATOM      5  C   UNL     1       2.733  -1.279   0.287  0.00  0.00    +0.000 A 
ATOM      6  C   UNL     1       3.762  -1.756  -0.535  0.00  0.00    +0.000 A 
ATOM      7  C   UNL     1       4.656  -2.715  -0.044  0.00  0.00    +0.000 A 
ATOM      8  C   UNL     1       4.625  -3.063   1.311  0.00  0.00    +0.000 A 
ATOM      9  C   UNL     1       3.609  -2.554   2.121  0.00  0.00    +0.000 A 
ATOM     10  C   UNL     1       2.578  -1.827   1.556  0.00  0.00    +0.000 A 
ATOM     11  C   UNL     1       1.385  -1.691   2.390  0.00  0.00    +0.000 A 
ATOM     12  N   UNL     1       1.446  -1.616   3.682  0.00  0.00    +0.000 NA
ATOM     13  N   UNL     1       2.696  -1.775   4.221  0.00  0.00    +0.000 N 
ATOM     14  C   UNL     1       3.693  -2.514   3.599  0.00  0.00    +0.000 A 
ATOM     15  O   UNL     1       4.640  -2.994   4.200  0.00  0.00    +0.000 OA
ATOM     16  H   UNL     1       2.760  -1.635   5.223  0.00  0.00    +0.000 HD
ENDBRANCH   2   5
BRANCH   3  17
ATOM     17  C   UNL     1       2.183   2.225  -1.023  0.00  0.00    +0.000 A 
ATOM     18  C   UNL     1       1.069   2.785  -0.382  0.00  0.00    +0.000 A 
ATOM     19  C   UNL     1       0.567   4.017  -0.777  0.00  0.00    +0.000 A 
ATOM     20  C   UNL     1       1.164   4.715  -1.811  0.00  0.00    +0.000 A 
ATOM     21  C   UNL     1       2.308   4.195  -2.444  0.00  0.00    +0.000 A 
ATOM     22  C   UNL     1       2.823   2.961  -2.024  0.00  0.00    +0.000 A 
BRANCH  21  23
ATOM     23  C   UNL     1       2.917   4.930  -3.620  0.00  0.00    +0.000 C 
BRANCH  23  24
ATOM     24  O   UNL     1       2.949   4.119  -4.793  0.00  0.00    +0.000 OA
BRANCH  24  25
ATOM     25  C   UNL     1       1.646   3.787  -5.275  0.00  0.00    +0.000 C 
BRANCH  25  26
ATOM     26  C   UNL     1       1.779   2.967  -6.531  0.00  0.00    +0.000 A 
ATOM     27  C   UNL     1       1.285   1.655  -6.578  0.00  0.00    +0.000 A 
ATOM     28  C   UNL     1       1.380   0.905  -7.751  0.00  0.00    +0.000 A 
ATOM     29  C   UNL     1       1.968   1.459  -8.886  0.00  0.00    +0.000 A 
ATOM     30  C   UNL     1       2.470   2.759  -8.848  0.00  0.00    +0.000 A 
ATOM     31  C   UNL     1       2.377   3.510  -7.676  0.00  0.00    +0.000 A 
ENDBRANCH  25  26
ENDBRANCH  24  25
ENDBRANCH  23  24
ENDBRANCH  21  23
ENDBRANCH   3  17
TORSDOF 6
