REMARK  Name = 
REMARK  5 active torsions:
REMARK  status: ('A' for Active; 'I' for Inactive)
REMARK    1  A    between atoms: C_1  and  O_2
REMARK    2  A    between atoms: O_2  and  C_3
REMARK    3  A    between atoms: C_5  and  N_6
REMARK    4  A    between atoms: C_11  and  C_13
REMARK    5  A    between atoms: C_19  and  N_20
REMARK                            x       y       z     vdW  Elec       q    Type
REMARK                         _______ _______ _______ _____ _____    ______ ____
ROOT
ATOM      1  N   UNL     1       5.866   3.389   0.628  0.00  0.00    +0.000 N 
ATOM      2  C   UNL     1       7.188   3.472   1.011  0.00  0.00    +0.000 A 
ATOM      3  C   UNL     1       7.783   4.398   0.191  0.00  0.00    +0.000 A 
ATOM      4  C   UNL     1       6.759   4.830  -0.675  0.00  0.00    +0.000 A 
ATOM      5  N   UNL     1       6.928   5.823  -1.616  0.00  0.00    +0.000 N 
ATOM      6  C   UNL     1       5.994   6.152  -2.580  0.00  0.00    +0.000 C 
ATOM      7  O   UNL     1       4.944   5.569  -2.813  0.00  0.00    +0.000 OA
ATOM      8  N   UNL     1       5.623   4.182  -0.437  0.00  0.00    +0.000 NA
ATOM      9  H   UNL     1       7.803   6.319  -1.559  0.00  0.00    +0.000 HD
ENDROOT
BRANCH   1  12
ATOM     10  C   UNL     1       2.506   1.896   1.267  0.00  0.00    +0.000 A 
ATOM     11  C   UNL     1       3.543   2.619   0.669  0.00  0.00    +0.000 A 
ATOM     12  C   UNL     1       4.828   2.636   1.238  0.00  0.00    +0.000 A 
ATOM     13  C   UNL     1       5.067   1.928   2.426  0.00  0.00    +0.000 A 
ATOM     14  C   UNL     1       4.037   1.208   3.021  0.00  0.00    +0.000 A 
ATOM     15  C   UNL     1       2.772   1.192   2.447  0.00  0.00    +0.000 A 
ATOM     16  F   UNL     1       1.830   0.454   3.052  0.00  0.00    +0.000 F 
BRANCH  10  18
ATOM     17  C   UNL     1       0.147   1.750   1.397  0.00  0.00    +0.000 C 
ATOM     18  O   UNL     1       1.310   1.924   0.599  0.00  0.00    +0.000 OA
ENDBRANCH  10  18
ENDBRANCH   1  12
BRANCH   6  19
ATOM     19  C   UNL     1       6.365   7.300  -3.465  0.00  0.00    +0.000 A 
ATOM     20  C   UNL     1       7.710   7.386  -3.876  0.00  0.00    +0.000 A 
ATOM     21  C   UNL     1       8.095   8.301  -4.846  0.00  0.00    +0.000 A 
ATOM     22  F   UNL     1       9.374   8.355  -5.221  0.00  0.00    +0.000 F 
ATOM     23  C   UNL     1       7.166   9.126  -5.455  0.00  0.00    +0.000 A 
ATOM     24  C   UNL     1       5.827   9.057  -5.069  0.00  0.00    +0.000 A 
ATOM     25  C   UNL     1       5.410   8.161  -4.060  0.00  0.00    +0.000 A 
BRANCH  25  26
ATOM     26  N   UNL     1       4.036   8.200  -3.673  0.00  0.00    +0.000 N 
ATOM     27  C   UNL     1       3.488   7.963  -2.433  0.00  0.00    +0.000 A 
ATOM     28  C   UNL     1       2.130   8.129  -2.574  0.00  0.00    +0.000 A 
ATOM     29  N   UNL     1       1.821   8.545  -3.837  0.00  0.00    +0.000 NA
ATOM     30  C   UNL     1       2.972   8.575  -4.471  0.00  0.00    +0.000 A 
ENDBRANCH  25  26
ENDBRANCH   6  19
TORSDOF 4
