REMARK  Name = 
REMARK  5 active torsions:
REMARK  status: ('A' for Active; 'I' for Inactive)
REMARK    1  A    between atoms: C_1  and  C_2
REMARK    2  A    between atoms: C_3  and  C_4
REMARK    3  A    between atoms: N_6  and  C_7
REMARK    4  A    between atoms: N_11  and  C_12
REMARK    5  A    between atoms: C_21  and  C_22
REMARK                            x       y       z     vdW  Elec       q    Type
REMARK                         _______ _______ _______ _____ _____    ______ ____
ROOT
ATOM      1  C   UNL     1       0.082  -2.586   0.050  0.00  0.00    +0.000 C 
ATOM      2  O   UNL     1      -0.899  -3.295  -0.163  0.00  0.00    +0.000 OA
ATOM      3  N   UNL     1       1.355  -3.062   0.299  0.00  0.00    +0.000 N 
ATOM      4  H   UNL     1       2.021  -2.375   0.664  0.00  0.00    +0.000 HD
ENDROOT
BRANCH   1   7
ATOM      5  C   UNL     1      -2.617  -0.680   0.084  0.00  0.00    +0.000 C 
ATOM      6  C   UNL     1      -1.170  -0.354   0.112  0.00  0.00    +0.000 A 
ATOM      7  C   UNL     1      -0.017  -1.121   0.108  0.00  0.00    +0.000 A 
ATOM      8  N   UNL     1       1.096  -0.294   0.150  0.00  0.00    +0.000 NA
ATOM      9  C   UNL     1       0.641   0.946   0.186  0.00  0.00    +0.000 A 
ATOM     10  N   UNL     1      -0.732   0.944   0.152  0.00  0.00    +0.000 N 
ATOM     11  H   UNL     1      -1.313   1.770   0.141  0.00  0.00    +0.000 HD
BRANCH   9  12
ATOM     12  C   UNL     1       1.438   2.171   0.240  0.00  0.00    +0.000 A 
ATOM     13  C   UNL     1       2.682   2.222  -0.402  0.00  0.00    +0.000 A 
ATOM     14  C   UNL     1       3.468   3.374  -0.339  0.00  0.00    +0.000 A 
ATOM     15  C   UNL     1       3.021   4.486   0.373  0.00  0.00    +0.000 A 
ATOM     16  C   UNL     1       1.785   4.451   1.014  0.00  0.00    +0.000 A 
ATOM     17  C   UNL     1       0.995   3.300   0.946  0.00  0.00    +0.000 A 
ENDBRANCH   9  12
ENDBRANCH   1   7
BRANCH   3  18
ATOM     18  C   UNL     1       1.768  -4.381   0.293  0.00  0.00    +0.000 A 
ATOM     19  C   UNL     1       1.107  -5.387  -0.297  0.00  0.00    +0.000 A 
ATOM     20  C   UNL     1       1.571  -6.743  -0.220  0.00  0.00    +0.000 A 
ATOM     21  C   UNL     1       2.644  -7.043   0.516  0.00  0.00    +0.000 A 
ATOM     22  N   UNL     1       3.387  -6.065   1.165  0.00  0.00    +0.000 N 
ATOM     23  C   UNL     1       3.053  -4.696   1.044  0.00  0.00    +0.000 A 
ATOM     24  O   UNL     1       3.661  -3.756   1.563  0.00  0.00    +0.000 OA
BRANCH  22  25
ATOM     25  C   UNL     1       4.444  -6.436   2.058  0.00  0.00    +0.000 A 
ATOM     26  C   UNL     1       4.223  -7.431   3.024  0.00  0.00    +0.000 A 
ATOM     27  C   UNL     1       5.190  -7.701   3.995  0.00  0.00    +0.000 A 
ATOM     28  C   UNL     1       6.405  -7.019   3.978  0.00  0.00    +0.000 A 
ATOM     29  C   UNL     1       6.658  -6.076   2.984  0.00  0.00    +0.000 A 
ATOM     30  C   UNL     1       5.678  -5.778   2.035  0.00  0.00    +0.000 A 
ENDBRANCH  22  25
ENDBRANCH   3  18
TORSDOF 4
