REMARK  Name = 
REMARK  7 active torsions:
REMARK  status: ('A' for Active; 'I' for Inactive)
REMARK    1  A    between atoms: C_1  and  C_2
REMARK    2  A    between atoms: C_6  and  C_7
REMARK    3  A    between atoms: N_9  and  C_10
REMARK    4  A    between atoms: C_10  and  C_11
REMARK    5  A    between atoms: C_14  and  N_15
REMARK    6  A    between atoms: C_16  and  C_18
REMARK    7  A    between atoms: C_23  and  O_24
REMARK                            x       y       z     vdW  Elec       q    Type
REMARK                         _______ _______ _______ _____ _____    ______ ____
ROOT
ATOM      1  C   UNL     1       0.440  -5.958   0.008  0.00  0.00    +0.000 A 
ATOM      2  C   UNL     1       0.689  -7.331  -0.076  0.00  0.00    +0.000 A 
ATOM      3  C   UNL     1      -0.357  -8.258  -0.006  0.00  0.00    +0.000 A 
ATOM      4  C   UNL     1      -1.683  -7.846   0.138  0.00  0.00    +0.000 A 
ATOM      5  C   UNL     1      -1.940  -6.471   0.218  0.00  0.00    +0.000 A 
ATOM      6  C   UNL     1      -0.891  -5.536   0.142  0.00  0.00    +0.000 A 
ENDROOT
BRANCH   4   7
ATOM      7  N   UNL     1      -2.775  -8.745   0.210  0.00  0.00    +0.000 N 
ATOM      8  C   UNL     1      -2.730 -10.122   0.071  0.00  0.00    +0.000 C 
ATOM      9  O   UNL     1      -1.716 -10.776  -0.170  0.00  0.00    +0.000 OA
ATOM     10  H   UNL     1      -3.698  -8.347   0.369  0.00  0.00    +0.000 HD
BRANCH   8  11
ATOM     11  C   UNL     1      -4.016 -10.880   0.226  0.00  0.00    +0.000 A 
ATOM     12  C   UNL     1      -3.942 -12.281   0.096  0.00  0.00    +0.000 A 
ATOM     13  C   UNL     1      -5.070 -13.087   0.261  0.00  0.00    +0.000 A 
ATOM     14  C   UNL     1      -6.294 -12.502   0.567  0.00  0.00    +0.000 A 
ATOM     15  C   UNL     1      -6.395 -11.114   0.681  0.00  0.00    +0.000 A 
ATOM     16  C   UNL     1      -5.264 -10.306   0.499  0.00  0.00    +0.000 A 
BRANCH  16  17
ATOM     17  O   UNL     1      -5.410  -8.945   0.587  0.00  0.00    +0.000 OA
ATOM     18  H   UNL     1      -6.360  -8.743   0.656  0.00  0.00    +0.000 HD
ENDBRANCH  16  17
ENDBRANCH   8  11
ENDBRANCH   4   7
BRANCH   1  19
ATOM     19  C   UNL     1       1.586  -4.976  -0.070  0.00  0.00    +0.000 C 
BRANCH  19  22
ATOM     20  C   UNL     1       2.981  -3.858  -1.789  0.00  0.00    +0.000 C 
ATOM     21  O   UNL     1       3.667  -3.240  -0.985  0.00  0.00    +0.000 OA
ATOM     22  N   UNL     1       1.929  -4.682  -1.444  0.00  0.00    +0.000 N 
ATOM     23  H   UNL     1       1.281  -4.989  -2.154  0.00  0.00    +0.000 HD
BRANCH  20  29
ATOM     24  C   UNL     1       5.086  -0.431  -6.510  0.00  0.00    +0.000 C 
ATOM     25  C   UNL     1       4.679  -1.118  -5.257  0.00  0.00    +0.000 A 
ATOM     26  N   UNL     1       4.865  -0.546  -4.061  0.00  0.00    +0.000 NA
ATOM     27  N   UNL     1       4.381  -1.454  -3.187  0.00  0.00    +0.000 N 
ATOM     28  C   UNL     1       3.860  -2.577  -3.777  0.00  0.00    +0.000 A 
ATOM     29  C   UNL     1       3.234  -3.718  -3.250  0.00  0.00    +0.000 A 
ATOM     30  C   UNL     1       2.882  -4.726  -4.166  0.00  0.00    +0.000 A 
ATOM     31  C   UNL     1       3.086  -4.567  -5.537  0.00  0.00    +0.000 A 
ATOM     32  C   UNL     1       3.664  -3.399  -6.040  0.00  0.00    +0.000 A 
ATOM     33  C   UNL     1       4.068  -2.395  -5.142  0.00  0.00    +0.000 A 
ATOM     34  H   UNL     1       4.440  -1.261  -2.192  0.00  0.00    +0.000 HD
ENDBRANCH  20  29
ENDBRANCH  19  22
ENDBRANCH   1  19
TORSDOF 6
