REMARK  Name = 
REMARK  6 active torsions:
REMARK  status: ('A' for Active; 'I' for Inactive)
REMARK    1  A    between atoms: C_2  and  C_12
REMARK    2  A    between atoms: N_3  and  C_4
REMARK    3  A    between atoms: C_4  and  C_5
REMARK    4  A    between atoms: C_7  and  O_8
REMARK    5  A    between atoms: C_17  and  C_18
REMARK    6  A    between atoms: C_21  and  C_22
REMARK                            x       y       z     vdW  Elec       q    Type
REMARK                         _______ _______ _______ _____ _____    ______ ____
ROOT
ATOM      1  C   UNL     1       2.967  -1.079  -0.480  0.00  0.00    +0.000 A 
ATOM      2  C   UNL     1       2.683  -1.465  -1.803  0.00  0.00    +0.000 A 
ATOM      3  C   UNL     1       3.451  -2.437  -2.442  0.00  0.00    +0.000 A 
ATOM      4  C   UNL     1       4.524  -3.018  -1.772  0.00  0.00    +0.000 A 
ATOM      5  C   UNL     1       4.806  -2.645  -0.455  0.00  0.00    +0.000 A 
ATOM      6  C   UNL     1       4.029  -1.687   0.222  0.00  0.00    +0.000 A 
ENDROOT
BRANCH   6   7
ATOM      7  C   UNL     1       4.298  -1.409   1.631  0.00  0.00    +0.000 A 
ATOM      8  N   UNL     1       3.479  -1.132   2.621  0.00  0.00    +0.000 NA
ATOM      9  N   UNL     1       4.256  -1.013   3.759  0.00  0.00    +0.000 NA
ATOM     10  C   UNL     1       5.496  -1.261   3.390  0.00  0.00    +0.000 A 
ATOM     11  O   UNL     1       5.606  -1.534   2.050  0.00  0.00    +0.000 OA
BRANCH  10  12
ATOM     12  C   UNL     1       6.702  -1.373   4.203  0.00  0.00    +0.000 A 
ATOM     13  C   UNL     1       6.637  -1.071   5.575  0.00  0.00    +0.000 A 
ATOM     14  C   UNL     1       7.745  -1.270   6.404  0.00  0.00    +0.000 A 
ATOM     15  C   UNL     1       8.925  -1.763   5.862  0.00  0.00    +0.000 A 
ATOM     16  F   UNL     1       9.976  -1.988   6.660  0.00  0.00    +0.000 F 
ATOM     17  C   UNL     1       9.026  -2.034   4.503  0.00  0.00    +0.000 A 
ATOM     18  C   UNL     1       7.918  -1.834   3.673  0.00  0.00    +0.000 A 
ENDBRANCH  10  12
ENDBRANCH   6   7
BRANCH   1  20
ATOM     19  O   UNL     1       2.776   0.907   0.775  0.00  0.00    +0.000 OA
ATOM     20  C   UNL     1       2.203   0.064   0.094  0.00  0.00    +0.000 C 
ATOM     21  N   UNL     1       0.861   0.132  -0.223  0.00  0.00    +0.000 N 
ATOM     22  H   UNL     1       0.417  -0.622  -0.726  0.00  0.00    +0.000 HD
BRANCH  21  23
ATOM     23  C   UNL     1       0.010   1.174   0.313  0.00  0.00    +0.000 C 
BRANCH  23  24
ATOM     24  C   UNL     1      -0.720   0.735   1.550  0.00  0.00    +0.000 A 
ATOM     25  C   UNL     1      -0.035   0.309   2.694  0.00  0.00    +0.000 A 
ATOM     26  C   UNL     1      -0.750  -0.037   3.832  0.00  0.00    +0.000 A 
ATOM     27  C   UNL     1      -2.130   0.063   3.804  0.00  0.00    +0.000 A 
ATOM     28  N   UNL     1      -2.832   0.467   2.719  0.00  0.00    +0.000 NA
ATOM     29  C   UNL     1      -2.110   0.796   1.623  0.00  0.00    +0.000 A 
BRANCH  26  30
ATOM     30  O   UNL     1      -0.122  -0.459   4.965  0.00  0.00    +0.000 OA
ATOM     31  H   UNL     1       0.835  -0.503   4.781  0.00  0.00    +0.000 HD
ENDBRANCH  26  30
ENDBRANCH  23  24
ENDBRANCH  21  23
ENDBRANCH   1  20
TORSDOF 6
