REMARK  Name = 
REMARK  5 active torsions:
REMARK  status: ('A' for Active; 'I' for Inactive)
REMARK    1  A    between atoms: C_2  and  C_4
REMARK    2  A    between atoms: C_4  and  N_5
REMARK    3  A    between atoms: C_4  and  C_19
REMARK    4  A    between atoms: C_6  and  C_8
REMARK    5  A    between atoms: C_9  and  O_10
REMARK                            x       y       z     vdW  Elec       q    Type
REMARK                         _______ _______ _______ _____ _____    ______ ____
ROOT
ATOM      1  C   UNL     1       3.160   0.669  -0.944  0.00  0.00    +0.000 C 
ENDROOT
BRANCH   1   2
ATOM      2  C   UNL     1       4.675   0.552  -0.836  0.00  0.00    +0.000 A 
ATOM      3  C   UNL     1       5.444   0.529  -2.009  0.00  0.00    +0.000 A 
ATOM      4  C   UNL     1       6.831   0.365  -1.956  0.00  0.00    +0.000 A 
ATOM      5  C   UNL     1       7.493   0.229  -0.726  0.00  0.00    +0.000 A 
ATOM      6  C   UNL     1       8.883   0.030  -0.657  0.00  0.00    +0.000 A 
ATOM      7  C   UNL     1       9.523  -0.116   0.573  0.00  0.00    +0.000 A 
ATOM      8  C   UNL     1       8.783  -0.062   1.751  0.00  0.00    +0.000 A 
ATOM      9  C   UNL     1       7.402   0.141   1.699  0.00  0.00    +0.000 A 
ATOM     10  C   UNL     1       6.741   0.283   0.468  0.00  0.00    +0.000 A 
ATOM     11  C   UNL     1       5.345   0.463   0.397  0.00  0.00    +0.000 A 
ENDBRANCH   1   2
BRANCH   1  13
ATOM     12  N   UNL     1       2.243  -1.374   0.103  0.00  0.00    +0.000 N 
ATOM     13  C   UNL     1       2.414  -0.022   0.221  0.00  0.00    +0.000 C 
ATOM     14  O   UNL     1       2.044   0.567   1.236  0.00  0.00    +0.000 OA
ATOM     15  H   UNL     1       1.739  -1.852   0.839  0.00  0.00    +0.000 HD
ATOM     16  H   UNL     1       2.448  -1.878  -0.749  0.00  0.00    +0.000 HD
ENDBRANCH   1  13
BRANCH   1  17
ATOM     17  N   UNL     1       2.757   2.070  -1.006  0.00  0.00    +0.000 N 
ATOM     18  C   UNL     1       1.691   2.451  -1.808  0.00  0.00    +0.000 C 
ATOM     19  O   UNL     1       1.121   1.659  -2.549  0.00  0.00    +0.000 OA
ATOM     20  H   UNL     1       2.895   2.601  -0.149  0.00  0.00    +0.000 HD
BRANCH  18  21
ATOM     21  C   UNL     1       1.331   3.907  -1.775  0.00  0.00    +0.000 A 
ATOM     22  C   UNL     1       2.358   4.857  -1.610  0.00  0.00    +0.000 A 
ATOM     23  C   UNL     1       2.085   6.218  -1.640  0.00  0.00    +0.000 A 
ATOM     24  C   UNL     1       0.788   6.660  -1.873  0.00  0.00    +0.000 A 
ATOM     25  C   UNL     1      -0.261   5.750  -2.053  0.00  0.00    +0.000 A 
ATOM     26  C   UNL     1      -1.554   6.244  -2.292  0.00  0.00    +0.000 A 
ATOM     27  C   UNL     1      -2.635   5.383  -2.458  0.00  0.00    +0.000 A 
ATOM     28  C   UNL     1      -2.433   4.013  -2.380  0.00  0.00    +0.000 A 
ATOM     29  C   UNL     1      -1.147   3.505  -2.150  0.00  0.00    +0.000 A 
ATOM     30  C   UNL     1      -0.016   4.349  -1.993  0.00  0.00    +0.000 A 
BRANCH  22  31
ATOM     31  O   UNL     1       3.684   4.545  -1.449  0.00  0.00    +0.000 OA
ATOM     32  H   UNL     1       3.820   3.600  -1.657  0.00  0.00    +0.000 HD
ENDBRANCH  22  31
ENDBRANCH  18  21
ENDBRANCH   1  17
TORSDOF 5
