REMARK  Name = 
REMARK  7 active torsions:
REMARK  status: ('A' for Active; 'I' for Inactive)
REMARK    1  A    between atoms: C_1  and  N_2
REMARK    2  A    between atoms: C_4  and  C_5
REMARK    3  A    between atoms: C_5  and  C_7
REMARK    4  A    between atoms: C_18  and  C_19
REMARK    5  A    between atoms: N_21  and  C_22
REMARK    6  A    between atoms: C_22  and  C_23
REMARK    7  A    between atoms: C_25  and  O_26
REMARK                            x       y       z     vdW  Elec       q    Type
REMARK                         _______ _______ _______ _____ _____    ______ ____
ROOT
ATOM      1  C   UNL     1       2.132   0.072  -0.065  0.00  0.00    +0.000 C 
ATOM      2  N   UNL     1       0.682   0.061  -0.074  0.00  0.00    +0.000 N 
ATOM      3  C   UNL     1      -0.064  -1.096  -0.078  0.00  0.00    +0.000 A 
ATOM      4  C   UNL     1      -1.402  -0.762  -0.020  0.00  0.00    +0.000 A 
ATOM      5  C   UNL     1      -1.441   0.659  -0.050  0.00  0.00    +0.000 A 
ATOM      6  C   UNL     1      -0.148   1.169  -0.074  0.00  0.00    +0.000 A 
ENDROOT
BRANCH   6   7
ATOM      7  C   UNL     1       0.286   2.562  -0.071  0.00  0.00    +0.000 C 
ATOM      8  O   UNL     1       1.458   2.911   0.025  0.00  0.00    +0.000 OA
ATOM      9  N   UNL     1      -0.744   3.473  -0.177  0.00  0.00    +0.000 N 
ATOM     10  H   UNL     1      -1.668   3.135  -0.392  0.00  0.00    +0.000 HD
BRANCH   9  11
ATOM     11  C   UNL     1      -0.556   4.903  -0.161  0.00  0.00    +0.000 C 
BRANCH  11  12
ATOM     12  C   UNL     1      -0.481   5.468  -1.548  0.00  0.00    +0.000 A 
ATOM     13  C   UNL     1       0.749   5.592  -2.205  0.00  0.00    +0.000 A 
ATOM     14  C   UNL     1       0.781   6.113  -3.492  0.00  0.00    +0.000 A 
ATOM     15  C   UNL     1      -0.413   6.474  -4.096  0.00  0.00    +0.000 A 
ATOM     16  N   UNL     1      -1.619   6.363  -3.495  0.00  0.00    +0.000 NA
ATOM     17  C   UNL     1      -1.624   5.863  -2.239  0.00  0.00    +0.000 A 
BRANCH  14  18
ATOM     18  O   UNL     1       1.952   6.276  -4.166  0.00  0.00    +0.000 OA
ATOM     19  H   UNL     1       2.683   6.014  -3.580  0.00  0.00    +0.000 HD
ENDBRANCH  14  18
ENDBRANCH  11  12
ENDBRANCH   9  11
ENDBRANCH   6   7
BRANCH   4  20
ATOM     20  C   UNL     1      -2.579  -1.633   0.046  0.00  0.00    +0.000 C 
ATOM     21  O   UNL     1      -3.681  -1.201  -0.282  0.00  0.00    +0.000 OA
BRANCH  20  22
ATOM     22  C   UNL     1      -2.456  -3.017   0.600  0.00  0.00    +0.000 A 
ATOM     23  C   UNL     1      -1.596  -3.211   1.698  0.00  0.00    +0.000 A 
ATOM     24  C   UNL     1      -1.449  -4.465   2.274  0.00  0.00    +0.000 A 
ATOM     25  C   UNL     1      -2.188  -5.536   1.786  0.00  0.00    +0.000 A 
ATOM     26  C   UNL     1      -3.090  -5.369   0.723  0.00  0.00    +0.000 A 
ATOM     27  C   UNL     1      -3.847  -6.469   0.288  0.00  0.00    +0.000 A 
ATOM     28  C   UNL     1      -4.766  -6.345  -0.751  0.00  0.00    +0.000 A 
ATOM     29  C   UNL     1      -4.928  -5.119  -1.377  0.00  0.00    +0.000 A 
ATOM     30  C   UNL     1      -4.174  -4.018  -0.964  0.00  0.00    +0.000 A 
ATOM     31  C   UNL     1      -3.242  -4.101   0.104  0.00  0.00    +0.000 A 
ENDBRANCH  20  22
ENDBRANCH   4  20
TORSDOF 6
