REMARK  Name = 
REMARK  6 active torsions:
REMARK  status: ('A' for Active; 'I' for Inactive)
REMARK    1  A    between atoms: C_2  and  C_3
REMARK    2  A    between atoms: N_5  and  C_6
REMARK    3  A    between atoms: C_9  and  N_10
REMARK    4  A    between atoms: C_11  and  C_13
REMARK    5  A    between atoms: C_14  and  C_15
REMARK    6  A    between atoms: C_15  and  C_17
REMARK                            x       y       z     vdW  Elec       q    Type
REMARK                         _______ _______ _______ _____ _____    ______ ____
ROOT
ATOM      1  N   UNL     1      10.670   3.510   0.392  0.00  0.00    +0.000 N 
ATOM      2  C   UNL     1      11.000   4.436   1.373  0.00  0.00    +0.000 C 
ATOM      3  O   UNL     1      10.332   4.674   2.370  0.00  0.00    +0.000 OA
ATOM      4  H   UNL     1      11.376   3.299  -0.297  0.00  0.00    +0.000 HD
ENDROOT
BRANCH   1   8
ATOM      5  C   UNL     1       7.379   0.858   0.272  0.00  0.00    +0.000 A 
ATOM      6  C   UNL     1       7.377   1.920   1.184  0.00  0.00    +0.000 A 
ATOM      7  C   UNL     1       8.451   2.814   1.230  0.00  0.00    +0.000 A 
ATOM      8  C   UNL     1       9.538   2.667   0.371  0.00  0.00    +0.000 A 
ATOM      9  C   UNL     1       9.525   1.622  -0.562  0.00  0.00    +0.000 A 
ATOM     10  C   UNL     1       8.460   0.713  -0.605  0.00  0.00    +0.000 A 
BRANCH   5  13
ATOM     11  C   UNL     1       4.448  -1.186   0.701  0.00  0.00    +0.000 A 
ATOM     12  C   UNL     1       5.141  -0.035   0.984  0.00  0.00    +0.000 A 
ATOM     13  N   UNL     1       6.309  -0.078   0.252  0.00  0.00    +0.000 N 
ATOM     14  N   UNL     1       6.353  -1.187  -0.537  0.00  0.00    +0.000 NA
ATOM     15  C   UNL     1       5.240  -1.860  -0.235  0.00  0.00    +0.000 A 
BRANCH  11  17
ATOM     16  N   UNL     1       2.177  -1.887   1.712  0.00  0.00    +0.000 NA
ATOM     17  C   UNL     1       3.197  -1.578   1.254  0.00  0.00    +0.000 C 
ENDBRANCH  11  17
ENDBRANCH   5  13
ENDBRANCH   1   8
BRANCH   2  18
ATOM     18  C   UNL     1      12.231   5.144   1.094  0.00  0.00    +0.000 A 
ATOM     19  C   UNL     1      13.155   5.710   1.966  0.00  0.00    +0.000 A 
ATOM     20  N   UNL     1      14.151   6.357   1.244  0.00  0.00    +0.000 NA
ATOM     21  C   UNL     1      13.847   6.194  -0.016  0.00  0.00    +0.000 A 
ATOM     22  N   UNL     1      12.695   5.482  -0.159  0.00  0.00    +0.000 N 
ATOM     23  H   UNL     1      12.238   5.279  -1.036  0.00  0.00    +0.000 HD
BRANCH  19  24
ATOM     24  C   UNL     1      13.180   5.619   3.431  0.00  0.00    +0.000 C 
ATOM     25  O   UNL     1      12.774   4.631   4.039  0.00  0.00    +0.000 OA
BRANCH  24  26
ATOM     26  C   UNL     1      13.804   6.743   4.194  0.00  0.00    +0.000 A 
ATOM     27  C   UNL     1      14.399   6.470   5.434  0.00  0.00    +0.000 A 
ATOM     28  C   UNL     1      15.025   7.491   6.154  0.00  0.00    +0.000 A 
ATOM     29  C   UNL     1      15.047   8.790   5.649  0.00  0.00    +0.000 A 
ATOM     30  C   UNL     1      14.429   9.077   4.433  0.00  0.00    +0.000 A 
ATOM     31  C   UNL     1      13.803   8.059   3.711  0.00  0.00    +0.000 A 
ENDBRANCH  24  26
ENDBRANCH  19  24
ENDBRANCH   2  18
TORSDOF 6
