REMARK  Name = 
REMARK  7 active torsions:
REMARK  status: ('A' for Active; 'I' for Inactive)
REMARK    1  A    between atoms: C_1  and  N_2
REMARK    2  A    between atoms: C_3  and  C_5
REMARK    3  A    between atoms: C_8  and  C_9
REMARK    4  A    between atoms: N_11  and  C_12
REMARK    5  A    between atoms: C_15  and  C_16
REMARK    6  A    between atoms: C_16  and  C_17
REMARK    7  A    between atoms: C_16  and  C_19
REMARK                            x       y       z     vdW  Elec       q    Type
REMARK                         _______ _______ _______ _____ _____    ______ ____
ROOT
ATOM      1  C   UNL     1       8.850   0.139  -1.069  0.00  0.00    +0.000 C 
ATOM      2  O   UNL     1       9.316   1.209  -1.447  0.00  0.00    +0.000 OA
ATOM      3  N   UNL     1       9.569  -0.935  -0.559  0.00  0.00    +0.000 N 
ATOM      4  H   UNL     1       9.117  -1.836  -0.478  0.00  0.00    +0.000 HD
ENDROOT
BRANCH   1   8
ATOM      5  C   UNL     1       4.610  -0.167  -1.628  0.00  0.00    +0.000 A 
ATOM      6  C   UNL     1       5.400   0.585  -2.503  0.00  0.00    +0.000 A 
ATOM      7  C   UNL     1       6.779   0.658  -2.305  0.00  0.00    +0.000 A 
ATOM      8  C   UNL     1       7.389  -0.034  -1.244  0.00  0.00    +0.000 A 
ATOM      9  C   UNL     1       6.606  -0.789  -0.372  0.00  0.00    +0.000 A 
ATOM     10  C   UNL     1       5.228  -0.844  -0.572  0.00  0.00    +0.000 A 
ATOM     11  F   UNL     1       4.508  -1.577   0.292  0.00  0.00    +0.000 F 
BRANCH   5  14
ATOM     12  C   UNL     1       0.967  -1.041  -1.096  0.00  0.00    +0.000 C 
ATOM     13  N   UNL     1       2.396  -0.958  -0.977  0.00  0.00    +0.000 N 
ATOM     14  C   UNL     1       3.143  -0.209  -1.857  0.00  0.00    +0.000 C 
ATOM     15  O   UNL     1       2.652   0.408  -2.796  0.00  0.00    +0.000 OA
ATOM     16  H   UNL     1       2.853  -1.469  -0.230  0.00  0.00    +0.000 HD
ENDBRANCH   5  14
ENDBRANCH   1   8
BRANCH   3  17
ATOM     17  C   UNL     1      10.975  -0.908  -0.378  0.00  0.00    +0.000 A 
ATOM     18  C   UNL     1      11.695   0.284  -0.327  0.00  0.00    +0.000 A 
ATOM     19  C   UNL     1      13.088   0.293  -0.245  0.00  0.00    +0.000 A 
ATOM     20  C   UNL     1      13.805  -0.906  -0.169  0.00  0.00    +0.000 A 
ATOM     21  C   UNL     1      13.069  -2.108  -0.164  0.00  0.00    +0.000 A 
ATOM     22  C   UNL     1      11.671  -2.114  -0.268  0.00  0.00    +0.000 A 
BRANCH  20  23
ATOM     23  C   UNL     1      15.338  -0.902  -0.108  0.00  0.00    +0.000 C 
BRANCH  23  24
ATOM     24  C   UNL     1      16.010  -0.740  -1.477  0.00  0.00    +0.000 A 
ATOM     25  C   UNL     1      16.866   0.355  -1.704  0.00  0.00    +0.000 A 
ATOM     26  C   UNL     1      17.433   0.580  -2.961  0.00  0.00    +0.000 A 
ATOM     27  C   UNL     1      17.197  -0.311  -4.002  0.00  0.00    +0.000 A 
ATOM     28  C   UNL     1      16.389  -1.425  -3.787  0.00  0.00    +0.000 A 
ATOM     29  C   UNL     1      15.789  -1.634  -2.540  0.00  0.00    +0.000 A 
ENDBRANCH  23  24
BRANCH  23  30
ATOM     30  C   UNL     1      15.873  -2.058   0.654  0.00  0.00    +0.000 C 
ATOM     31  N   UNL     1      16.217  -2.987   1.276  0.00  0.00    +0.000 NA
ENDBRANCH  23  30
ENDBRANCH  20  23
ENDBRANCH   3  17
TORSDOF 6
