REMARK  Name = 
REMARK  6 active torsions:
REMARK  status: ('A' for Active; 'I' for Inactive)
REMARK    1  A    between atoms: C_2  and  C_19
REMARK    2  A    between atoms: N_3  and  C_4
REMARK    3  A    between atoms: C_4  and  C_5
REMARK    4  A    between atoms: C_9  and  O_10
REMARK    5  A    between atoms: O_10  and  C_11
REMARK    6  A    between atoms: C_22  and  C_23
REMARK                            x       y       z     vdW  Elec       q    Type
REMARK                         _______ _______ _______ _____ _____    ______ ____
ROOT
ATOM      1  O   UNL     1       3.042  -1.780  -1.641  0.00  0.00    +0.000 OA
ATOM      2  C   UNL     1       3.292  -0.842  -0.896  0.00  0.00    +0.000 C 
ATOM      3  N   UNL     1       2.888   0.457  -1.132  0.00  0.00    +0.000 N 
ATOM      4  H   UNL     1       3.302   1.206  -0.596  0.00  0.00    +0.000 HD
ENDROOT
BRANCH   2   5
ATOM      5  C   UNL     1       4.105  -1.059   0.329  0.00  0.00    +0.000 A 
ATOM      6  C   UNL     1       5.103  -2.040   0.304  0.00  0.00    +0.000 A 
ATOM      7  C   UNL     1       5.889  -2.271   1.439  0.00  0.00    +0.000 A 
ATOM      8  C   UNL     1       5.684  -1.541   2.620  0.00  0.00    +0.000 A 
ATOM      9  C   UNL     1       4.662  -0.577   2.641  0.00  0.00    +0.000 A 
ATOM     10  C   UNL     1       3.877  -0.336   1.506  0.00  0.00    +0.000 A 
BRANCH   8  11
ATOM     11  C   UNL     1       6.531  -1.801   3.779  0.00  0.00    +0.000 A 
ATOM     12  N   UNL     1       7.551  -2.623   3.911  0.00  0.00    +0.000 NA
ATOM     13  C   UNL     1       7.929  -2.405   5.205  0.00  0.00    +0.000 A 
ATOM     14  N   UNL     1       7.204  -1.505   5.873  0.00  0.00    +0.000 NA
ATOM     15  O   UNL     1       6.264  -1.095   4.922  0.00  0.00    +0.000 OA
ENDBRANCH   8  11
ENDBRANCH   2   5
BRANCH   3  16
ATOM     16  C   UNL     1       2.160   0.814  -2.330  0.00  0.00    +0.000 C 
BRANCH  16  17
ATOM     17  C   UNL     1       3.082   1.232  -3.442  0.00  0.00    +0.000 A 
ATOM     18  C   UNL     1       3.592   0.278  -4.330  0.00  0.00    +0.000 A 
ATOM     19  C   UNL     1       4.419   0.696  -5.361  0.00  0.00    +0.000 A 
ATOM     20  N   UNL     1       4.786   1.978  -5.553  0.00  0.00    +0.000 NA
ATOM     21  C   UNL     1       4.358   2.872  -4.634  0.00  0.00    +0.000 A 
ATOM     22  C   UNL     1       3.486   2.561  -3.598  0.00  0.00    +0.000 A 
BRANCH  21  23
ATOM     23  O   UNL     1       4.790   4.190  -4.715  0.00  0.00    +0.000 OA
BRANCH  23  24
ATOM     24  C   UNL     1       6.068   4.409  -5.183  0.00  0.00    +0.000 A 
ATOM     25  C   UNL     1       6.261   5.563  -5.949  0.00  0.00    +0.000 A 
ATOM     26  C   UNL     1       7.534   5.882  -6.431  0.00  0.00    +0.000 A 
ATOM     27  C   UNL     1       8.619   5.050  -6.153  0.00  0.00    +0.000 A 
ATOM     28  C   UNL     1       8.437   3.910  -5.372  0.00  0.00    +0.000 A 
ATOM     29  C   UNL     1       7.172   3.609  -4.871  0.00  0.00    +0.000 A 
ATOM     30  F   UNL     1       7.059   2.554  -4.048  0.00  0.00    +0.000 F 
ENDBRANCH  23  24
ENDBRANCH  21  23
ENDBRANCH  16  17
ENDBRANCH   3  16
TORSDOF 6
