REMARK  Name = 
REMARK  6 active torsions:
REMARK  status: ('A' for Active; 'I' for Inactive)
REMARK    1  A    between atoms: C_2  and  C_3
REMARK    2  A    between atoms: C_8  and  C_9
REMARK    3  A    between atoms: C_9  and  O_11
REMARK    4  A    between atoms: O_11  and  C_12
REMARK    5  A    between atoms: C_12  and  C_13
REMARK    6  A    between atoms: N_22  and  C_23
REMARK                            x       y       z     vdW  Elec       q    Type
REMARK                         _______ _______ _______ _____ _____    ______ ____
ROOT
ATOM      1  C   UNL     1       4.104  -3.479   0.114  0.00  0.00    +0.000 A 
ATOM      2  N   UNL     1       4.991  -4.459   0.049  0.00  0.00    +0.000 NA
ATOM      3  C   UNL     1       6.217  -3.866   0.014  0.00  0.00    +0.000 A 
ATOM      4  C   UNL     1       6.107  -2.478   0.040  0.00  0.00    +0.000 A 
ATOM      5  C   UNL     1       7.269  -1.688   0.091  0.00  0.00    +0.000 A 
ATOM      6  F   UNL     1       7.235  -0.357   0.227  0.00  0.00    +0.000 F 
ATOM      7  C   UNL     1       8.523  -2.298   0.031  0.00  0.00    +0.000 A 
ATOM      8  C   UNL     1       8.634  -3.681  -0.028  0.00  0.00    +0.000 A 
ATOM      9  C   UNL     1       7.484  -4.476  -0.023  0.00  0.00    +0.000 A 
ATOM     10  N   UNL     1       4.734  -2.221   0.080  0.00  0.00    +0.000 N 
ENDROOT
BRANCH  10  11
ATOM     11  C   UNL     1       4.126  -0.921   0.089  0.00  0.00    +0.000 A 
ATOM     12  C   UNL     1       4.728   0.139  -0.606  0.00  0.00    +0.000 A 
ATOM     13  C   UNL     1       4.233   1.443  -0.503  0.00  0.00    +0.000 A 
ATOM     14  C   UNL     1       3.093   1.696   0.250  0.00  0.00    +0.000 A 
ATOM     15  C   UNL     1       2.449   0.645   0.895  0.00  0.00    +0.000 A 
ATOM     16  C   UNL     1       2.968  -0.655   0.828  0.00  0.00    +0.000 A 
ENDBRANCH  10  11
BRANCH   1  17
ATOM     17  C   UNL     1       2.619  -3.700   0.104  0.00  0.00    +0.000 C 
BRANCH  17  18
ATOM     18  O   UNL     1       2.324  -5.115  -0.009  0.00  0.00    +0.000 OA
BRANCH  18  19
ATOM     19  C   UNL     1       2.219  -5.752   1.183  0.00  0.00    +0.000 C 
ATOM     20  O   UNL     1       2.401  -5.251   2.281  0.00  0.00    +0.000 OA
BRANCH  19  26
ATOM     21  C   UNL     1       1.109  -7.828   2.053  0.00  0.00    +0.000 A 
ATOM     22  C   UNL     1       0.881  -9.208   1.956  0.00  0.00    +0.000 A 
ATOM     23  C   UNL     1       1.259  -9.851   0.795  0.00  0.00    +0.000 A 
ATOM     24  N   UNL     1       1.827  -9.216  -0.251  0.00  0.00    +0.000 NA
ATOM     25  C   UNL     1       2.091  -7.888  -0.111  0.00  0.00    +0.000 A 
ATOM     26  C   UNL     1       1.786  -7.160   1.027  0.00  0.00    +0.000 A 
BRANCH  21  28
ATOM     27  N   UNL     1      -0.054  -6.604   4.020  0.00  0.00    +0.000 NA
ATOM     28  C   UNL     1       0.523  -7.134   3.159  0.00  0.00    +0.000 C 
ENDBRANCH  21  28
ENDBRANCH  19  26
ENDBRANCH  18  19
ENDBRANCH  17  18
ENDBRANCH   1  17
TORSDOF 6
