REMARK  Name = 
REMARK  7 active torsions:
REMARK  status: ('A' for Active; 'I' for Inactive)
REMARK    1  A    between atoms: C_1  and  C_2
REMARK    2  A    between atoms: C_4  and  C_5
REMARK    3  A    between atoms: C_5  and  O_7
REMARK    4  A    between atoms: O_7  and  C_8
REMARK    5  A    between atoms: C_8  and  C_9
REMARK    6  A    between atoms: C_12  and  C_13
REMARK    7  A    between atoms: C_17  and  C_18
REMARK                            x       y       z     vdW  Elec       q    Type
REMARK                         _______ _______ _______ _____ _____    ______ ____
ROOT
ATOM      1  C   UNL     1       4.380   6.077  -0.511  0.00  0.00    +0.000 A 
ATOM      2  N   UNL     1       4.769   7.330  -0.655  0.00  0.00    +0.000 NA
ATOM      3  C   UNL     1       3.625   8.049  -0.474  0.00  0.00    +0.000 A 
ATOM      4  C   UNL     1       2.554   7.218  -0.239  0.00  0.00    +0.000 A 
ATOM      5  O   UNL     1       3.031   5.927  -0.266  0.00  0.00    +0.000 OA
ENDROOT
BRANCH   4   6
ATOM      6  C   UNL     1       1.152   7.458   0.074  0.00  0.00    +0.000 A 
ATOM      7  C   UNL     1       0.659   8.771   0.062  0.00  0.00    +0.000 A 
ATOM      8  C   UNL     1      -0.639   9.054   0.475  0.00  0.00    +0.000 A 
ATOM      9  C   UNL     1      -1.462   8.022   0.917  0.00  0.00    +0.000 A 
ATOM     10  C   UNL     1      -1.016   6.688   0.937  0.00  0.00    +0.000 A 
ATOM     11  C   UNL     1       0.292   6.427   0.476  0.00  0.00    +0.000 A 
BRANCH  10  12
ATOM     12  C   UNL     1      -1.873   5.603   1.466  0.00  0.00    +0.000 A 
ATOM     13  C   UNL     1      -1.805   4.296   0.949  0.00  0.00    +0.000 A 
ATOM     14  C   UNL     1      -2.618   3.272   1.442  0.00  0.00    +0.000 A 
ATOM     15  C   UNL     1      -3.519   3.534   2.471  0.00  0.00    +0.000 A 
ATOM     16  C   UNL     1      -3.594   4.811   3.015  0.00  0.00    +0.000 A 
ATOM     17  C   UNL     1      -2.777   5.830   2.521  0.00  0.00    +0.000 A 
ENDBRANCH  10  12
ENDBRANCH   4   6
BRANCH   1  18
ATOM     18  C   UNL     1       5.239   4.867  -0.612  0.00  0.00    +0.000 C 
BRANCH  18  19
ATOM     19  O   UNL     1       4.766   3.827   0.253  0.00  0.00    +0.000 OA
BRANCH  19  20
ATOM     20  C   UNL     1       5.190   3.923   1.523  0.00  0.00    +0.000 C 
ATOM     21  O   UNL     1       5.850   4.823   2.022  0.00  0.00    +0.000 OA
BRANCH  20  25
ATOM     22  C   UNL     1       3.597   2.121   5.961  0.00  0.00    +0.000 C 
ATOM     23  C   UNL     1       3.970   1.993   4.521  0.00  0.00    +0.000 A 
ATOM     24  C   UNL     1       4.455   2.998   3.780  0.00  0.00    +0.000 A 
ATOM     25  C   UNL     1       4.726   2.729   2.350  0.00  0.00    +0.000 A 
ATOM     26  N   UNL     1       4.604   1.569   1.778  0.00  0.00    +0.000 NA
ATOM     27  N   UNL     1       4.160   0.551   2.575  0.00  0.00    +0.000 N 
ATOM     28  C   UNL     1       3.788   0.657   3.893  0.00  0.00    +0.000 A 
ATOM     29  O   UNL     1       3.343  -0.296   4.524  0.00  0.00    +0.000 OA
ATOM     30  H   UNL     1       4.043  -0.356   2.132  0.00  0.00    +0.000 HD
ENDBRANCH  20  25
ENDBRANCH  19  20
ENDBRANCH  18  19
ENDBRANCH   1  18
TORSDOF 6
