REMARK  Name = 
REMARK  6 active torsions:
REMARK  status: ('A' for Active; 'I' for Inactive)
REMARK    1  A    between atoms: C_2  and  C_18
REMARK    2  A    between atoms: N_3  and  C_4
REMARK    3  A    between atoms: C_8  and  C_9
REMARK    4  A    between atoms: C_9  and  O_10
REMARK    5  A    between atoms: O_10  and  C_11
REMARK    6  A    between atoms: C_23  and  C_24
REMARK                            x       y       z     vdW  Elec       q    Type
REMARK                         _______ _______ _______ _____ _____    ______ ____
ROOT
ATOM      1  O   UNL     1       1.343   0.523   0.751  0.00  0.00    +0.000 OA
ATOM      2  C   UNL     1       2.342   0.111   0.185  0.00  0.00    +0.000 C 
ATOM      3  N   UNL     1       2.829   0.546  -1.034  0.00  0.00    +0.000 N 
ATOM      4  H   UNL     1       3.445  -0.060  -1.551  0.00  0.00    +0.000 HD
ENDROOT
BRANCH   3   5
ATOM      5  C   UNL     1       2.170   1.476  -1.837  0.00  0.00    +0.000 A 
ATOM      6  C   UNL     1       1.531   2.582  -1.326  0.00  0.00    +0.000 A 
ATOM      7  C   UNL     1       0.897   3.382  -2.243  0.00  0.00    +0.000 A 
ATOM      8  N   UNL     1       0.838   3.096  -3.556  0.00  0.00    +0.000 NA
ATOM      9  C   UNL     1       1.484   1.985  -3.961  0.00  0.00    +0.000 A 
ATOM     10  N   UNL     1       2.207   1.186  -3.147  0.00  0.00    +0.000 NA
BRANCH   9  11
ATOM     11  C   UNL     1       1.269   1.520  -5.385  0.00  0.00    +0.000 C 
BRANCH  11  12
ATOM     12  O   UNL     1       2.252   2.077  -6.254  0.00  0.00    +0.000 OA
BRANCH  12  13
ATOM     13  C   UNL     1       2.133   1.764  -7.582  0.00  0.00    +0.000 A 
ATOM     14  C   UNL     1       1.190   0.902  -8.147  0.00  0.00    +0.000 A 
ATOM     15  C   UNL     1       1.184   0.673  -9.527  0.00  0.00    +0.000 A 
ATOM     16  C   UNL     1       2.119   1.304 -10.347  0.00  0.00    +0.000 A 
ATOM     17  C   UNL     1       3.061   2.163  -9.788  0.00  0.00    +0.000 A 
ATOM     18  C   UNL     1       3.067   2.389  -8.410  0.00  0.00    +0.000 A 
ENDBRANCH  12  13
ENDBRANCH  11  12
ENDBRANCH   9  11
ENDBRANCH   3   5
BRANCH   2  19
ATOM     19  C   UNL     1       3.133  -0.989   0.786  0.00  0.00    +0.000 A 
ATOM     20  C   UNL     1       4.509  -0.771   0.956  0.00  0.00    +0.000 A 
ATOM     21  C   UNL     1       5.287  -1.730   1.591  0.00  0.00    +0.000 A 
ATOM     22  C   UNL     1       4.659  -2.870   2.045  0.00  0.00    +0.000 A 
ATOM     23  N   UNL     1       3.341  -3.118   1.879  0.00  0.00    +0.000 NA
ATOM     24  C   UNL     1       2.566  -2.188   1.243  0.00  0.00    +0.000 A 
BRANCH  24  25
ATOM     25  C   UNL     1       1.165  -2.638   1.053  0.00  0.00    +0.000 A 
ATOM     26  C   UNL     1       0.534  -3.432   2.028  0.00  0.00    +0.000 A 
ATOM     27  C   UNL     1      -0.756  -3.892   1.815  0.00  0.00    +0.000 A 
ATOM     28  N   UNL     1      -1.475  -3.622   0.707  0.00  0.00    +0.000 NA
ATOM     29  C   UNL     1      -0.865  -2.869  -0.228  0.00  0.00    +0.000 A 
ATOM     30  C   UNL     1       0.428  -2.376  -0.111  0.00  0.00    +0.000 A 
ENDBRANCH  24  25
ENDBRANCH   2  19
TORSDOF 6
