REMARK  Name = 
REMARK  9 active torsions:
REMARK  status: ('A' for Active; 'I' for Inactive)
REMARK    1  A    between atoms: C_2  and  C_3
REMARK    2  A    between atoms: C_4  and  N_5
REMARK    3  A    between atoms: N_6  and  C_7
REMARK    4  A    between atoms: C_10  and  C_11
REMARK    5  A    between atoms: N_13  and  C_14
REMARK    6  A    between atoms: N_13  and  C_18
REMARK    7  A    between atoms: C_14  and  C_15
REMARK    8  A    between atoms: C_18  and  C_19
REMARK    9  A    between atoms: C_22  and  C_23
REMARK                            x       y       z     vdW  Elec       q    Type
REMARK                         _______ _______ _______ _____ _____    ______ ____
ROOT
ATOM      1  C   UNL     1      10.435   4.024  -0.059  0.00  0.00    +0.000 C 
ATOM      2  O   UNL     1      10.634   4.784   0.893  0.00  0.00    +0.000 OA
ATOM      3  N   UNL     1      11.249   4.086  -1.203  0.00  0.00    +0.000 N 
ENDROOT
BRANCH   1   7
ATOM      4  C   UNL     1       6.968   1.470   0.544  0.00  0.00    +0.000 A 
ATOM      5  C   UNL     1       7.336   1.850  -0.744  0.00  0.00    +0.000 A 
ATOM      6  C   UNL     1       8.465   2.645  -0.959  0.00  0.00    +0.000 A 
ATOM      7  C   UNL     1       9.267   3.087   0.093  0.00  0.00    +0.000 A 
ATOM      8  C   UNL     1       8.857   2.746   1.395  0.00  0.00    +0.000 A 
ATOM      9  C   UNL     1       7.714   1.956   1.624  0.00  0.00    +0.000 A 
BRANCH   4  12
ATOM     10  C   UNL     1       4.090  -0.723   0.521  0.00  0.00    +0.000 A 
ATOM     11  C   UNL     1       5.210  -0.259  -0.139  0.00  0.00    +0.000 A 
ATOM     12  N   UNL     1       5.836   0.629   0.759  0.00  0.00    +0.000 N 
ATOM     13  N   UNL     1       5.221   0.610   1.977  0.00  0.00    +0.000 NA
ATOM     14  C   UNL     1       4.146  -0.158   1.800  0.00  0.00    +0.000 A 
BRANCH  11  15
ATOM     15  N   UNL     1       5.689  -0.594  -1.371  0.00  0.00    +0.000 N 
ATOM     16  H   UNL     1       5.269  -1.369  -1.887  0.00  0.00    +0.000 HD
ATOM     17  H   UNL     1       6.688  -0.529  -1.567  0.00  0.00    +0.000 HD
ENDBRANCH  11  15
BRANCH  10  19
ATOM     18  N   UNL     1       2.361  -2.424  -0.373  0.00  0.00    +0.000 NA
ATOM     19  C   UNL     1       3.132  -1.651   0.029  0.00  0.00    +0.000 C 
ENDBRANCH  10  19
ENDBRANCH   4  12
ENDBRANCH   1   7
BRANCH   3  20
ATOM     20  C   UNL     1      12.389   5.022  -1.185  0.00  0.00    +0.000 C 
BRANCH  20  21
ATOM     21  C   UNL     1      13.657   4.374  -0.669  0.00  0.00    +0.000 A 
ATOM     22  C   UNL     1      14.596   3.789  -1.528  0.00  0.00    +0.000 A 
ATOM     23  C   UNL     1      15.703   3.090  -1.018  0.00  0.00    +0.000 A 
ATOM     24  C   UNL     1      15.925   2.971   0.365  0.00  0.00    +0.000 A 
ATOM     25  C   UNL     1      15.010   3.627   1.207  0.00  0.00    +0.000 A 
ATOM     26  C   UNL     1      13.893   4.307   0.705  0.00  0.00    +0.000 A 
BRANCH  24  27
ATOM     27  C   UNL     1      17.058   2.192   0.932  0.00  0.00    +0.000 A 
ATOM     28  C   UNL     1      18.299   2.083   0.278  0.00  0.00    +0.000 A 
ATOM     29  C   UNL     1      19.372   1.390   0.855  0.00  0.00    +0.000 A 
ATOM     30  C   UNL     1      19.233   0.792   2.104  0.00  0.00    +0.000 A 
ATOM     31  C   UNL     1      18.012   0.859   2.763  0.00  0.00    +0.000 A 
ATOM     32  C   UNL     1      16.939   1.538   2.177  0.00  0.00    +0.000 A 
ENDBRANCH  24  27
ENDBRANCH  20  21
ENDBRANCH   3  20
BRANCH   3  33
ATOM     33  C   UNL     1      11.208   3.171  -2.353  0.00  0.00    +0.000 C 
BRANCH  33  34
ATOM     34  C   UNL     1      10.294   3.641  -3.497  0.00  0.00    +0.000 C 
ATOM     35  N   UNL     1       9.607   4.805  -3.294  0.00  0.00    +0.000 N 
ATOM     36  O   UNL     1      10.122   2.986  -4.520  0.00  0.00    +0.000 OA
ATOM     37  H   UNL     1       9.628   5.275  -2.396  0.00  0.00    +0.000 HD
ATOM     38  H   UNL     1       8.886   5.056  -3.958  0.00  0.00    +0.000 HD
ENDBRANCH  33  34
ENDBRANCH   3  33
TORSDOF 9
