REMARK  Name = 
REMARK  9 active torsions:
REMARK  status: ('A' for Active; 'I' for Inactive)
REMARK    1  A    between atoms: C_1  and  N_2
REMARK    2  A    between atoms: C_5  and  C_6
REMARK    3  A    between atoms: C_6  and  N_7
REMARK    4  A    between atoms: C_6  and  C_26
REMARK    5  A    between atoms: C_8  and  C_10
REMARK    6  A    between atoms: C_10  and  C_11
REMARK    7  A    between atoms: C_14  and  O_15
REMARK    8  A    between atoms: O_15  and  C_16
REMARK    9  A    between atoms: C_20  and  C_21
REMARK                            x       y       z     vdW  Elec       q    Type
REMARK                         _______ _______ _______ _____ _____    ______ ____
ROOT
ATOM      1  N   UNL     1       2.399   2.579   1.095  0.00  0.00    +0.000 N 
ATOM      2  C   UNL     1       1.403   3.515   1.219  0.00  0.00    +0.000 C 
ATOM      3  O   UNL     1       0.595   3.769   0.328  0.00  0.00    +0.000 OA
ATOM      4  H   UNL     1       2.984   2.345   1.884  0.00  0.00    +0.000 HD
ENDROOT
BRANCH   1   5
ATOM      5  C   UNL     1       2.524   1.722  -0.067  0.00  0.00    +0.000 C 
BRANCH   5   6
ATOM      6  C   UNL     1       3.903   1.853  -0.705  0.00  0.00    +0.000 A 
ATOM      7  C   UNL     1       3.996   2.365  -2.014  0.00  0.00    +0.000 A 
ATOM      8  C   UNL     1       5.235   2.519  -2.642  0.00  0.00    +0.000 A 
ATOM      9  C   UNL     1       6.396   2.191  -1.956  0.00  0.00    +0.000 A 
ATOM     10  F   UNL     1       7.583   2.344  -2.558  0.00  0.00    +0.000 F 
ATOM     11  C   UNL     1       6.341   1.709  -0.655  0.00  0.00    +0.000 A 
ATOM     12  C   UNL     1       5.099   1.535  -0.030  0.00  0.00    +0.000 A 
ENDBRANCH   5   6
BRANCH   5  17
ATOM     13  C   UNL     1       2.349  -2.289   2.713  0.00  0.00    +0.000 C 
ATOM     14  N   UNL     1       2.233  -1.486   1.520  0.00  0.00    +0.000 N 
ATOM     15  C   UNL     1       1.784  -1.893   0.300  0.00  0.00    +0.000 A 
ATOM     16  C   UNL     1       1.834  -0.782  -0.507  0.00  0.00    +0.000 A 
ATOM     17  C   UNL     1       2.333   0.266   0.316  0.00  0.00    +0.000 A 
ATOM     18  N   UNL     1       2.581  -0.184   1.564  0.00  0.00    +0.000 NA
ENDBRANCH   5  17
ENDBRANCH   1   5
BRANCH   2  19
ATOM     19  C   UNL     1       1.405   4.256   2.547  0.00  0.00    +0.000 C 
BRANCH  19  20
ATOM     20  C   UNL     1       2.296   5.473   2.500  0.00  0.00    +0.000 A 
ATOM     21  C   UNL     1       1.773   6.693   2.060  0.00  0.00    +0.000 A 
ATOM     22  C   UNL     1       2.604   7.802   1.910  0.00  0.00    +0.000 A 
ATOM     23  C   UNL     1       3.954   7.728   2.268  0.00  0.00    +0.000 A 
ATOM     24  C   UNL     1       4.483   6.511   2.699  0.00  0.00    +0.000 A 
ATOM     25  C   UNL     1       3.661   5.386   2.806  0.00  0.00    +0.000 A 
BRANCH  23  26
ATOM     26  O   UNL     1       4.841   8.781   2.172  0.00  0.00    +0.000 OA
BRANCH  26  27
ATOM     27  C   UNL     1       4.388  10.067   2.363  0.00  0.00    +0.000 A 
ATOM     28  C   UNL     1       5.037  11.076   1.658  0.00  0.00    +0.000 A 
ATOM     29  C   UNL     1       4.574  12.374   1.800  0.00  0.00    +0.000 A 
ATOM     30  N   UNL     1       3.527  12.715   2.580  0.00  0.00    +0.000 NA
ATOM     31  C   UNL     1       2.939  11.716   3.281  0.00  0.00    +0.000 A 
ATOM     32  C   UNL     1       3.357  10.398   3.236  0.00  0.00    +0.000 A 
BRANCH  31  33
ATOM     33  C   UNL     1       1.792  12.071   4.060  0.00  0.00    +0.000 C 
ATOM     34  N   UNL     1       0.840  12.300   4.695  0.00  0.00    +0.000 NA
ENDBRANCH  31  33
ENDBRANCH  26  27
ENDBRANCH  23  26
ENDBRANCH  19  20
ENDBRANCH   2  19
TORSDOF 8
