REMARK  Name = 
REMARK  7 active torsions:
REMARK  status: ('A' for Active; 'I' for Inactive)
REMARK    1  A    between atoms: C_1  and  N_2
REMARK    2  A    between atoms: C_5  and  C_6
REMARK    3  A    between atoms: C_6  and  N_7
REMARK    4  A    between atoms: C_6  and  C_26
REMARK    5  A    between atoms: C_8  and  C_10
REMARK    6  A    between atoms: C_13  and  N_14
REMARK    7  A    between atoms: C_15  and  C_17
REMARK                            x       y       z     vdW  Elec       q    Type
REMARK                         _______ _______ _______ _____ _____    ______ ____
ROOT
ATOM      1  N   UNL     1       2.360   2.566   1.144  0.00  0.00    +0.000 N 
ATOM      2  C   UNL     1       1.335   3.478   1.318  0.00  0.00    +0.000 C 
ATOM      3  O   UNL     1       0.445   3.679   0.506  0.00  0.00    +0.000 OA
ATOM      4  H   UNL     1       2.825   2.213   1.965  0.00  0.00    +0.000 HD
ENDROOT
BRANCH   2   5
ATOM      5  C   UNL     1       1.402   4.285   2.576  0.00  0.00    +0.000 A 
ATOM      6  C   UNL     1       2.643   4.517   3.168  0.00  0.00    +0.000 A 
ATOM      7  C   UNL     1       2.751   5.349   4.282  0.00  0.00    +0.000 A 
ATOM      8  C   UNL     1       1.635   5.981   4.833  0.00  0.00    +0.000 A 
ATOM      9  C   UNL     1       0.385   5.748   4.242  0.00  0.00    +0.000 A 
ATOM     10  C   UNL     1       0.268   4.906   3.116  0.00  0.00    +0.000 A 
BRANCH   8  11
ATOM     11  N   UNL     1       1.724   6.856   5.947  0.00  0.00    +0.000 N 
ATOM     12  C   UNL     1       2.893   7.176   6.620  0.00  0.00    +0.000 C 
ATOM     13  O   UNL     1       4.020   6.775   6.339  0.00  0.00    +0.000 OA
ATOM     14  H   UNL     1       0.867   7.296   6.237  0.00  0.00    +0.000 HD
BRANCH  12  15
ATOM     15  C   UNL     1       2.751   8.107   7.786  0.00  0.00    +0.000 A 
ATOM     16  C   UNL     1       3.868   8.772   8.141  0.00  0.00    +0.000 A 
ATOM     17  N   UNL     1       3.896   9.559   9.266  0.00  0.00    +0.000 N 
ATOM     18  C   UNL     1       2.832   9.709  10.118  0.00  0.00    +0.000 A 
ATOM     19  O   UNL     1       2.878  10.394  11.133  0.00  0.00    +0.000 OA
ATOM     20  C   UNL     1       1.598   8.968   9.741  0.00  0.00    +0.000 A 
ATOM     21  C   UNL     1       1.575   8.214   8.629  0.00  0.00    +0.000 A 
ATOM     22  H   UNL     1       4.753  10.030   9.533  0.00  0.00    +0.000 HD
ENDBRANCH  12  15
ENDBRANCH   8  11
ENDBRANCH   2   5
BRANCH   1  23
ATOM     23  C   UNL     1       2.444   1.708  -0.025  0.00  0.00    +0.000 C 
BRANCH  23  24
ATOM     24  C   UNL     1       3.893   1.317  -0.342  0.00  0.00    +0.000 A 
ATOM     25  C   UNL     1       4.471   1.763  -1.552  0.00  0.00    +0.000 A 
ATOM     26  C   UNL     1       5.779   1.428  -1.901  0.00  0.00    +0.000 A 
ATOM     27  C   UNL     1       6.546   0.658  -1.034  0.00  0.00    +0.000 A 
ATOM     28  F   UNL     1       7.804   0.330  -1.372  0.00  0.00    +0.000 F 
ATOM     29  C   UNL     1       6.024   0.227   0.178  0.00  0.00    +0.000 A 
ATOM     30  C   UNL     1       4.703   0.557   0.525  0.00  0.00    +0.000 A 
ENDBRANCH  23  24
BRANCH  23  35
ATOM     31  C   UNL     1       0.315  -1.997   2.313  0.00  0.00    +0.000 C 
ATOM     32  N   UNL     1       0.700  -1.179   1.189  0.00  0.00    +0.000 N 
ATOM     33  C   UNL     1       0.403  -1.388  -0.123  0.00  0.00    +0.000 A 
ATOM     34  C   UNL     1       1.020  -0.371  -0.814  0.00  0.00    +0.000 A 
ATOM     35  C   UNL     1       1.664   0.424   0.178  0.00  0.00    +0.000 A 
ATOM     36  N   UNL     1       1.467  -0.096   1.406  0.00  0.00    +0.000 NA
ENDBRANCH  23  35
ENDBRANCH   1  23
TORSDOF 6
