REMARK  Name = 
REMARK  5 active torsions:
REMARK  status: ('A' for Active; 'I' for Inactive)
REMARK    1  A    between atoms: C_2  and  C_3
REMARK    2  A    between atoms: C_3  and  N_4
REMARK    3  A    between atoms: C_7  and  C_8
REMARK    4  A    between atoms: N_17  and  C_18
REMARK    5  A    between atoms: C_21  and  C_22
REMARK                            x       y       z     vdW  Elec       q    Type
REMARK                         _______ _______ _______ _____ _____    ______ ____
ROOT
ATOM      1  O   UNL     1       0.934   0.337  -0.075  0.00  0.00    +0.000 OA
ATOM      2  C   UNL     1       2.128   0.045  -0.011  0.00  0.00    +0.000 C 
ATOM      3  N   UNL     1       2.925  -0.263  -1.096  0.00  0.00    +0.000 N 
ATOM      4  H   UNL     1       3.782  -0.783  -0.928  0.00  0.00    +0.000 HD
ENDROOT
BRANCH   3   5
ATOM      5  C   UNL     1       2.479  -0.235  -2.434  0.00  0.00    +0.000 A 
ATOM      6  C   UNL     1       2.924  -1.245  -3.299  0.00  0.00    +0.000 A 
ATOM      7  F   UNL     1       3.675  -2.221  -2.755  0.00  0.00    +0.000 F 
ATOM      8  C   UNL     1       2.539  -1.308  -4.652  0.00  0.00    +0.000 A 
ATOM      9  C   UNL     1       1.743  -0.242  -5.120  0.00  0.00    +0.000 A 
ATOM     10  C   UNL     1       1.303   0.781  -4.270  0.00  0.00    +0.000 A 
ATOM     11  C   UNL     1       1.649   0.770  -2.921  0.00  0.00    +0.000 A 
BRANCH   8  12
ATOM     12  C   UNL     1       2.908  -2.446  -5.537  0.00  0.00    +0.000 A 
ATOM     13  C   UNL     1       2.090  -2.837  -6.611  0.00  0.00    +0.000 A 
ATOM     14  C   UNL     1       2.455  -3.920  -7.401  0.00  0.00    +0.000 A 
ATOM     15  N   UNL     1       3.565  -4.655  -7.199  0.00  0.00    +0.000 NA
ATOM     16  C   UNL     1       4.344  -4.284  -6.166  0.00  0.00    +0.000 A 
ATOM     17  C   UNL     1       4.069  -3.206  -5.336  0.00  0.00    +0.000 A 
ENDBRANCH   8  12
ENDBRANCH   3   5
BRANCH   2  18
ATOM     18  C   UNL     1       2.866   0.066   1.325  0.00  0.00    +0.000 C 
BRANCH  18  19
ATOM     19  N   UNL     1       3.079   1.462   1.657  0.00  0.00    +0.000 N 
ATOM     20  C   UNL     1       2.095   2.183   2.281  0.00  0.00    +0.000 A 
ATOM     21  N   UNL     1       2.155   3.448   2.524  0.00  0.00    +0.000 NA
ATOM     22  C   UNL     1       3.279   4.108   2.099  0.00  0.00    +0.000 A 
ATOM     23  C   UNL     1       4.314   3.519   1.489  0.00  0.00    +0.000 A 
ATOM     24  C   UNL     1       4.228   2.077   1.226  0.00  0.00    +0.000 A 
ATOM     25  O   UNL     1       5.138   1.507   0.625  0.00  0.00    +0.000 OA
BRANCH  22  26
ATOM     26  C   UNL     1       3.320   5.570   2.249  0.00  0.00    +0.000 A 
ATOM     27  C   UNL     1       2.806   6.382   1.227  0.00  0.00    +0.000 A 
ATOM     28  C   UNL     1       2.881   7.771   1.323  0.00  0.00    +0.000 A 
ATOM     29  C   UNL     1       3.469   8.359   2.441  0.00  0.00    +0.000 A 
ATOM     30  C   UNL     1       3.973   7.560   3.469  0.00  0.00    +0.000 A 
ATOM     31  C   UNL     1       3.899   6.168   3.375  0.00  0.00    +0.000 A 
ENDBRANCH  22  26
ENDBRANCH  18  19
ENDBRANCH   2  18
TORSDOF 5
