REMARK  Name = 
REMARK  6 active torsions:
REMARK  status: ('A' for Active; 'I' for Inactive)
REMARK    1  A    between atoms: C_2  and  C_20
REMARK    2  A    between atoms: N_3  and  C_4
REMARK    3  A    between atoms: C_4  and  C_5
REMARK    4  A    between atoms: C_7  and  O_8
REMARK    5  A    between atoms: O_8  and  C_9
REMARK    6  A    between atoms: N_24  and  C_25
REMARK                            x       y       z     vdW  Elec       q    Type
REMARK                         _______ _______ _______ _____ _____    ______ ____
ROOT
ATOM      1  O   UNL     1       3.084   1.337   2.170  0.00  0.00    +0.000 OA
ATOM      2  C   UNL     1       3.357   0.656   1.182  0.00  0.00    +0.000 C 
ATOM      3  N   UNL     1       3.067  -0.686   1.135  0.00  0.00    +0.000 N 
ATOM      4  H   UNL     1       3.472  -1.282   0.425  0.00  0.00    +0.000 HD
ENDROOT
BRANCH   2   5
ATOM      5  C   UNL     1       4.040   1.208   0.048  0.00  0.00    +0.000 A 
ATOM      6  C   UNL     1       4.957   2.242   0.059  0.00  0.00    +0.000 A 
ATOM      7  N   UNL     1       5.503   2.401  -1.175  0.00  0.00    +0.000 NA
ATOM      8  N   UNL     1       4.953   1.504  -1.977  0.00  0.00    +0.000 NA
ATOM      9  N   UNL     1       3.977   0.859  -1.291  0.00  0.00    +0.000 N 
BRANCH   9  10
ATOM     10  C   UNL     1       3.100  -0.029  -1.961  0.00  0.00    +0.000 A 
ATOM     11  C   UNL     1       1.799  -0.247  -1.493  0.00  0.00    +0.000 A 
ATOM     12  C   UNL     1       1.010  -1.216  -2.101  0.00  0.00    +0.000 A 
ATOM     13  F   UNL     1      -0.218  -1.452  -1.621  0.00  0.00    +0.000 F 
ATOM     14  C   UNL     1       1.480  -1.953  -3.179  0.00  0.00    +0.000 A 
ATOM     15  C   UNL     1       2.752  -1.695  -3.688  0.00  0.00    +0.000 A 
ATOM     16  C   UNL     1       3.558  -0.721  -3.093  0.00  0.00    +0.000 A 
ENDBRANCH   9  10
ENDBRANCH   2   5
BRANCH   3  17
ATOM     17  C   UNL     1       2.334  -1.362   2.191  0.00  0.00    +0.000 C 
BRANCH  17  18
ATOM     18  C   UNL     1       3.254  -1.941   3.236  0.00  0.00    +0.000 A 
ATOM     19  C   UNL     1       3.645  -1.156   4.314  0.00  0.00    +0.000 A 
ATOM     20  C   UNL     1       4.573  -1.669   5.215  0.00  0.00    +0.000 A 
ATOM     21  C   UNL     1       5.011  -2.978   5.073  0.00  0.00    +0.000 A 
ATOM     22  C   UNL     1       4.557  -3.700   3.983  0.00  0.00    +0.000 A 
ATOM     23  N   UNL     1       3.713  -3.204   3.049  0.00  0.00    +0.000 NA
BRANCH  20  24
ATOM     24  O   UNL     1       5.061  -0.963   6.292  0.00  0.00    +0.000 OA
BRANCH  24  25
ATOM     25  C   UNL     1       5.274   0.394   6.168  0.00  0.00    +0.000 A 
ATOM     26  C   UNL     1       5.711   1.014   4.988  0.00  0.00    +0.000 A 
ATOM     27  C   UNL     1       5.884   2.399   4.946  0.00  0.00    +0.000 A 
ATOM     28  C   UNL     1       5.670   3.150   6.096  0.00  0.00    +0.000 A 
ATOM     29  F   UNL     1       5.848   4.478   6.054  0.00  0.00    +0.000 F 
ATOM     30  C   UNL     1       5.285   2.530   7.279  0.00  0.00    +0.000 A 
ATOM     31  F   UNL     1       5.101   3.257   8.390  0.00  0.00    +0.000 F 
ATOM     32  C   UNL     1       5.086   1.154   7.324  0.00  0.00    +0.000 A 
ENDBRANCH  24  25
ENDBRANCH  20  24
ENDBRANCH  17  18
ENDBRANCH   3  17
TORSDOF 6
