REMARK  Name = 
REMARK  5 active torsions:
REMARK  status: ('A' for Active; 'I' for Inactive)
REMARK    1  A    between atoms: C_2  and  C_17
REMARK    2  A    between atoms: N_3  and  C_4
REMARK    3  A    between atoms: C_8  and  C_9
REMARK    4  A    between atoms: C_9  and  C_10
REMARK    5  A    between atoms: N_19  and  C_20
REMARK                            x       y       z     vdW  Elec       q    Type
REMARK                         _______ _______ _______ _____ _____    ______ ____
ROOT
ATOM      1  O   UNL     1       0.831   0.172  -0.099  0.00  0.00    +0.000 OA
ATOM      2  C   UNL     1       2.040   0.039   0.040  0.00  0.00    +0.000 C 
ATOM      3  N   UNL     1       2.719  -1.080   0.493  0.00  0.00    +0.000 N 
ATOM      4  H   UNL     1       3.721  -1.015   0.654  0.00  0.00    +0.000 HD
ENDROOT
BRANCH   2   5
ATOM      5  C   UNL     1       2.919   1.230  -0.340  0.00  0.00    +0.000 A 
ATOM      6  N   UNL     1       2.306   2.262  -0.858  0.00  0.00    +0.000 NA
ATOM      7  N   UNL     1       3.039   3.355  -1.241  0.00  0.00    +0.000 N 
ATOM      8  C   UNL     1       4.419   3.344  -1.233  0.00  0.00    +0.000 A 
ATOM      9  C   UNL     1       5.171   2.360  -0.739  0.00  0.00    +0.000 A 
ATOM     10  C   UNL     1       4.423   1.232  -0.173  0.00  0.00    +0.000 A 
ATOM     11  O   UNL     1       4.982   0.298   0.391  0.00  0.00    +0.000 OA
BRANCH   7  12
ATOM     12  C   UNL     1       2.249   4.505  -1.578  0.00  0.00    +0.000 A 
ATOM     13  C   UNL     1       0.916   4.349  -2.016  0.00  0.00    +0.000 A 
ATOM     14  C   UNL     1       0.102   5.453  -2.302  0.00  0.00    +0.000 A 
ATOM     15  C   UNL     1       0.597   6.744  -2.151  0.00  0.00    +0.000 A 
ATOM     16  C   UNL     1       1.909   6.929  -1.727  0.00  0.00    +0.000 A 
ATOM     17  C   UNL     1       2.719   5.825  -1.449  0.00  0.00    +0.000 A 
ATOM     18  F   UNL     1       3.958   6.078  -1.000  0.00  0.00    +0.000 F 
ENDBRANCH   7  12
ENDBRANCH   2   5
BRANCH   3  19
ATOM     19  C   UNL     1       2.112  -2.328   0.684  0.00  0.00    +0.000 A 
ATOM     20  C   UNL     1       2.889  -3.396   1.111  0.00  0.00    +0.000 A 
ATOM     21  C   UNL     1       2.296  -4.653   1.230  0.00  0.00    +0.000 A 
ATOM     22  C   UNL     1       0.944  -4.807   0.933  0.00  0.00    +0.000 A 
ATOM     23  C   UNL     1       0.228  -3.690   0.525  0.00  0.00    +0.000 A 
ATOM     24  N   UNL     1       0.808  -2.475   0.400  0.00  0.00    +0.000 NA
BRANCH  23  25
ATOM     25  C   UNL     1      -1.249  -3.763   0.211  0.00  0.00    +0.000 C 
BRANCH  25  26
ATOM     26  C   UNL     1      -2.144  -3.648   1.424  0.00  0.00    +0.000 A 
ATOM     27  C   UNL     1      -2.145  -2.478   2.200  0.00  0.00    +0.000 A 
ATOM     28  C   UNL     1      -2.968  -2.370   3.322  0.00  0.00    +0.000 A 
ATOM     29  C   UNL     1      -3.808  -3.424   3.674  0.00  0.00    +0.000 A 
ATOM     30  C   UNL     1      -3.831  -4.583   2.900  0.00  0.00    +0.000 A 
ATOM     31  C   UNL     1      -3.005  -4.695   1.780  0.00  0.00    +0.000 A 
ENDBRANCH  25  26
ENDBRANCH  23  25
ENDBRANCH   3  19
TORSDOF 5
