REMARK  Name = 
REMARK  6 active torsions:
REMARK  status: ('A' for Active; 'I' for Inactive)
REMARK    1  A    between atoms: C_2  and  C_18
REMARK    2  A    between atoms: N_3  and  C_4
REMARK    3  A    between atoms: C_8  and  C_9
REMARK    4  A    between atoms: C_9  and  O_10
REMARK    5  A    between atoms: O_10  and  C_11
REMARK    6  A    between atoms: C_21  and  N_22
REMARK                            x       y       z     vdW  Elec       q    Type
REMARK                         _______ _______ _______ _____ _____    ______ ____
ROOT
ATOM      1  O   UNL     1       1.152  -0.559  -0.117  0.00  0.00    +0.000 OA
ATOM      2  C   UNL     1       2.344  -0.267  -0.170  0.00  0.00    +0.000 C 
ATOM      3  N   UNL     1       2.981   0.315  -1.250  0.00  0.00    +0.000 N 
ATOM      4  H   UNL     1       3.946   0.052  -1.404  0.00  0.00    +0.000 HD
ENDROOT
BRANCH   2   5
ATOM      5  C   UNL     1       3.210  -0.612   0.987  0.00  0.00    +0.000 A 
ATOM      6  C   UNL     1       2.971  -1.792   1.706  0.00  0.00    +0.000 A 
ATOM      7  C   UNL     1       3.739  -2.104   2.839  0.00  0.00    +0.000 A 
ATOM      8  C   UNL     1       4.714  -1.202   3.284  0.00  0.00    +0.000 A 
ATOM      9  C   UNL     1       4.933  -0.025   2.559  0.00  0.00    +0.000 A 
ATOM     10  F   UNL     1       5.894   0.842   2.918  0.00  0.00    +0.000 F 
ATOM     11  C   UNL     1       4.206   0.267   1.415  0.00  0.00    +0.000 A 
BRANCH   8  12
ATOM     12  N   UNL     1       5.453  -1.466   4.462  0.00  0.00    +0.000 N 
ATOM     13  C   UNL     1       5.756  -2.694   5.003  0.00  0.00    +0.000 A 
ATOM     14  C   UNL     1       6.506  -2.441   6.126  0.00  0.00    +0.000 A 
ATOM     15  N   UNL     1       6.640  -1.096   6.327  0.00  0.00    +0.000 NA
ATOM     16  C   UNL     1       6.006  -0.537   5.320  0.00  0.00    +0.000 A 
ENDBRANCH   8  12
ENDBRANCH   2   5
BRANCH   3  17
ATOM     17  C   UNL     1       2.280   0.597  -2.432  0.00  0.00    +0.000 A 
ATOM     18  C   UNL     1       1.147   1.380  -2.401  0.00  0.00    +0.000 A 
ATOM     19  C   UNL     1       0.538   1.595  -3.610  0.00  0.00    +0.000 A 
ATOM     20  N   UNL     1       0.965   1.046  -4.760  0.00  0.00    +0.000 NA
ATOM     21  C   UNL     1       2.081   0.289  -4.691  0.00  0.00    +0.000 A 
ATOM     22  N   UNL     1       2.798   0.087  -3.562  0.00  0.00    +0.000 NA
BRANCH  21  23
ATOM     23  C   UNL     1       2.495  -0.446  -5.952  0.00  0.00    +0.000 C 
BRANCH  23  24
ATOM     24  O   UNL     1       3.373   0.365  -6.735  0.00  0.00    +0.000 OA
BRANCH  24  25
ATOM     25  C   UNL     1       3.763  -0.141  -7.946  0.00  0.00    +0.000 A 
ATOM     26  C   UNL     1       3.450  -1.404  -8.454  0.00  0.00    +0.000 A 
ATOM     27  C   UNL     1       3.926  -1.793  -9.711  0.00  0.00    +0.000 A 
ATOM     28  C   UNL     1       4.711  -0.924 -10.466  0.00  0.00    +0.000 A 
ATOM     29  C   UNL     1       5.024   0.337  -9.966  0.00  0.00    +0.000 A 
ATOM     30  C   UNL     1       4.552   0.724  -8.709  0.00  0.00    +0.000 A 
ENDBRANCH  24  25
ENDBRANCH  23  24
ENDBRANCH  21  23
ENDBRANCH   3  17
TORSDOF 6
