REMARK  Name = 
REMARK  5 active torsions:
REMARK  status: ('A' for Active; 'I' for Inactive)
REMARK    1  A    between atoms: C_2  and  C_3
REMARK    2  A    between atoms: C_5  and  O_6
REMARK    3  A    between atoms: O_6  and  C_7
REMARK    4  A    between atoms: C_10  and  N_11
REMARK    5  A    between atoms: C_12  and  C_14
REMARK                            x       y       z     vdW  Elec       q    Type
REMARK                         _______ _______ _______ _____ _____    ______ ____
ROOT
ATOM      1  N   UNL     1       0.118   7.478  -0.146  0.00  0.00    +0.000 N 
ATOM      2  C   UNL     1       1.075   7.846  -1.080  0.00  0.00    +0.000 C 
ATOM      3  O   UNL     1       1.474   7.141  -2.003  0.00  0.00    +0.000 OA
ATOM      4  H   UNL     1      -0.144   8.145   0.571  0.00  0.00    +0.000 HD
ENDROOT
BRANCH   2   5
ATOM      5  C   UNL     1       1.698   9.200  -1.001  0.00  0.00    +0.000 A 
ATOM      6  C   UNL     1       1.931   9.912   0.188  0.00  0.00    +0.000 A 
ATOM      7  C   UNL     1       2.640  11.125   0.129  0.00  0.00    +0.000 A 
ATOM      8  C   UNL     1       3.028  11.650  -1.118  0.00  0.00    +0.000 A 
ATOM      9  N   UNL     1       3.516  12.966  -1.198  0.00  0.00    +0.000 N 
ATOM     10  C   UNL     1       3.443  13.787  -0.106  0.00  0.00    +0.000 A 
ATOM     11  O   UNL     1       3.285  14.998  -0.175  0.00  0.00    +0.000 OA
ATOM     12  C   UNL     1       3.588  13.088   1.192  0.00  0.00    +0.000 A 
ATOM     13  C   UNL     1       3.128  11.834   1.321  0.00  0.00    +0.000 A 
ATOM     14  C   UNL     1       2.841  10.918  -2.276  0.00  0.00    +0.000 A 
ATOM     15  F   UNL     1       3.298  11.378  -3.448  0.00  0.00    +0.000 F 
ATOM     16  C   UNL     1       2.189   9.700  -2.222  0.00  0.00    +0.000 A 
ATOM     17  H   UNL     1       3.576  13.402  -2.110  0.00  0.00    +0.000 HD
ENDBRANCH   2   5
BRANCH   1  21
ATOM     18  C   UNL     1      -1.827   3.713   0.133  0.00  0.00    +0.000 A 
ATOM     19  C   UNL     1      -0.996   3.971  -0.950  0.00  0.00    +0.000 A 
ATOM     20  C   UNL     1      -0.366   5.208  -1.070  0.00  0.00    +0.000 A 
ATOM     21  C   UNL     1      -0.562   6.212  -0.124  0.00  0.00    +0.000 A 
ATOM     22  C   UNL     1      -1.450   5.981   0.922  0.00  0.00    +0.000 A 
ATOM     23  C   UNL     1      -2.105   4.742   1.037  0.00  0.00    +0.000 A 
BRANCH  18  24
ATOM     24  O   UNL     1      -2.373   2.451   0.200  0.00  0.00    +0.000 OA
BRANCH  24  27
ATOM     25  C   UNL     1      -2.158   1.451   3.733  0.00  0.00    +0.000 A 
ATOM     26  C   UNL     1      -1.781   2.049   2.540  0.00  0.00    +0.000 A 
ATOM     27  C   UNL     1      -2.618   1.890   1.435  0.00  0.00    +0.000 A 
ATOM     28  C   UNL     1      -3.729   1.073   1.529  0.00  0.00    +0.000 A 
ATOM     29  C   UNL     1      -4.022   0.501   2.757  0.00  0.00    +0.000 A 
ATOM     30  N   UNL     1      -3.268   0.686   3.863  0.00  0.00    +0.000 NA
BRANCH  25  32
ATOM     31  N   UNL     1      -0.728   1.859   5.861  0.00  0.00    +0.000 NA
ATOM     32  C   UNL     1      -1.386   1.657   4.924  0.00  0.00    +0.000 C 
ENDBRANCH  25  32
ENDBRANCH  24  27
ENDBRANCH  18  24
ENDBRANCH   1  21
TORSDOF 5
