REMARK  Name = 
REMARK  5 active torsions:
REMARK  status: ('A' for Active; 'I' for Inactive)
REMARK    1  A    between atoms: C_2  and  C_3
REMARK    2  A    between atoms: C_3  and  N_4
REMARK    3  A    between atoms: C_7  and  C_8
REMARK    4  A    between atoms: N_17  and  C_18
REMARK    5  A    between atoms: N_22  and  C_23
REMARK                            x       y       z     vdW  Elec       q    Type
REMARK                         _______ _______ _______ _____ _____    ______ ____
ROOT
ATOM      1  O   UNL     1       0.995  -0.300   0.154  0.00  0.00    +0.000 OA
ATOM      2  C   UNL     1       2.212  -0.155   0.069  0.00  0.00    +0.000 C 
ATOM      3  N   UNL     1       3.157  -1.185  -0.031  0.00  0.00    +0.000 N 
ATOM      4  H   UNL     1       4.132  -0.909  -0.019  0.00  0.00    +0.000 HD
ENDROOT
BRANCH   3   5
ATOM      5  C   UNL     1       2.926  -2.550  -0.021  0.00  0.00    +0.000 A 
ATOM      6  C   UNL     1       1.719  -3.115   0.064  0.00  0.00    +0.000 A 
ATOM      7  C   UNL     1       1.542  -4.584   0.211  0.00  0.00    +0.000 A 
ATOM      8  O   UNL     1       0.386  -4.958   0.390  0.00  0.00    +0.000 OA
ATOM      9  N   UNL     1       2.714  -5.376   0.189  0.00  0.00    +0.000 N 
ATOM     10  C   UNL     1       3.945  -4.756  -0.012  0.00  0.00    +0.000 A 
ATOM     11  C   UNL     1       4.078  -3.423  -0.116  0.00  0.00    +0.000 A 
BRANCH   9  12
ATOM     12  C   UNL     1       2.617  -6.809   0.428  0.00  0.00    +0.000 A 
ATOM     13  C   UNL     1       1.418  -7.519   0.246  0.00  0.00    +0.000 A 
ATOM     14  C   UNL     1       1.307  -8.879   0.552  0.00  0.00    +0.000 A 
ATOM     15  C   UNL     1       2.408  -9.578   1.027  0.00  0.00    +0.000 A 
ATOM     16  C   UNL     1       3.619  -8.916   1.185  0.00  0.00    +0.000 A 
ATOM     17  C   UNL     1       3.723  -7.549   0.890  0.00  0.00    +0.000 A 
ENDBRANCH   9  12
ENDBRANCH   3   5
BRANCH   2  18
ATOM     18  C   UNL     1       2.850   1.234  -0.073  0.00  0.00    +0.000 C 
BRANCH  18  19
ATOM     19  N   UNL     1       2.087   2.335   0.502  0.00  0.00    +0.000 N 
ATOM     20  C   UNL     1       1.541   3.309  -0.294  0.00  0.00    +0.000 A 
ATOM     21  N   UNL     1       1.065   4.436   0.123  0.00  0.00    +0.000 NA
ATOM     22  C   UNL     1       1.097   4.657   1.476  0.00  0.00    +0.000 A 
ATOM     23  C   UNL     1       1.558   3.773   2.369  0.00  0.00    +0.000 A 
ATOM     24  C   UNL     1       2.142   2.517   1.866  0.00  0.00    +0.000 A 
ATOM     25  O   UNL     1       2.701   1.745   2.640  0.00  0.00    +0.000 OA
BRANCH  22  26
ATOM     26  C   UNL     1       0.612   5.960   1.973  0.00  0.00    +0.000 A 
ATOM     27  C   UNL     1       1.498   7.034   2.142  0.00  0.00    +0.000 A 
ATOM     28  C   UNL     1       1.045   8.255   2.652  0.00  0.00    +0.000 A 
ATOM     29  C   UNL     1      -0.298   8.414   2.990  0.00  0.00    +0.000 A 
ATOM     30  C   UNL     1      -1.191   7.358   2.809  0.00  0.00    +0.000 A 
ATOM     31  C   UNL     1      -0.738   6.134   2.301  0.00  0.00    +0.000 A 
ENDBRANCH  22  26
ENDBRANCH  18  19
ENDBRANCH   2  18
TORSDOF 5
