REMARK  Name = 
REMARK  6 active torsions:
REMARK  status: ('A' for Active; 'I' for Inactive)
REMARK    1  A    between atoms: C_2  and  C_3
REMARK    2  A    between atoms: C_5  and  C_6
REMARK    3  A    between atoms: C_13  and  N_14
REMARK    4  A    between atoms: C_15  and  C_17
REMARK    5  A    between atoms: N_19  and  C_20
REMARK    6  A    between atoms: C_27  and  N_28
REMARK                            x       y       z     vdW  Elec       q    Type
REMARK                         _______ _______ _______ _____ _____    ______ ____
ROOT
ATOM      1  N   UNL     1       2.540   2.399   0.057  0.00  0.00    +0.000 N 
ATOM      2  C   UNL     1       3.924   2.503   0.023  0.00  0.00    +0.000 C 
ATOM      3  O   UNL     1       4.722   1.572  -0.010  0.00  0.00    +0.000 OA
ATOM      4  H   UNL     1       2.059   3.296   0.067  0.00  0.00    +0.000 HD
ENDROOT
BRANCH   1   9
ATOM      5  C   UNL     1      -0.409   0.152   0.054  0.00  0.00    +0.000 A 
ATOM      6  C   UNL     1       0.194  -1.112  -0.016  0.00  0.00    +0.000 A 
ATOM      7  C   UNL     1       1.589  -1.248  -0.044  0.00  0.00    +0.000 A 
ATOM      8  C   UNL     1       2.348  -0.062  -0.004  0.00  0.00    +0.000 A 
ATOM      9  C   UNL     1       1.773   1.214   0.042  0.00  0.00    +0.000 A 
ATOM     10  C   UNL     1       0.382   1.312   0.075  0.00  0.00    +0.000 A 
BRANCH   7  11
ATOM     11  C   UNL     1       2.261  -2.569  -0.102  0.00  0.00    +0.000 A 
ATOM     12  C   UNL     1       3.496  -2.735  -0.751  0.00  0.00    +0.000 A 
ATOM     13  C   UNL     1       4.116  -3.976  -0.747  0.00  0.00    +0.000 A 
ATOM     14  N   UNL     1       3.595  -5.069  -0.160  0.00  0.00    +0.000 NA
ATOM     15  C   UNL     1       2.406  -4.909   0.455  0.00  0.00    +0.000 A 
ATOM     16  C   UNL     1       1.717  -3.704   0.512  0.00  0.00    +0.000 A 
ENDBRANCH   7  11
BRANCH   5  18
ATOM     17  N   UNL     1      -2.996   0.323   0.162  0.00  0.00    +0.000 NA
ATOM     18  C   UNL     1      -1.841   0.252   0.110  0.00  0.00    +0.000 C 
ENDBRANCH   5  18
ENDBRANCH   1   9
BRANCH   2  19
ATOM     19  C   UNL     1       4.412   3.892  -0.014  0.00  0.00    +0.000 A 
ATOM     20  N   UNL     1       3.594   4.958   0.068  0.00  0.00    +0.000 NA
ATOM     21  N   UNL     1       4.404   6.022  -0.214  0.00  0.00    +0.000 N 
ATOM     22  C   UNL     1       5.748   5.651  -0.278  0.00  0.00    +0.000 A 
ATOM     23  C   UNL     1       5.765   4.285  -0.154  0.00  0.00    +0.000 A 
BRANCH  21  24
ATOM     24  C   UNL     1       3.832   7.299  -0.453  0.00  0.00    +0.000 A 
ATOM     25  C   UNL     1       2.659   7.664   0.224  0.00  0.00    +0.000 A 
ATOM     26  C   UNL     1       2.082   8.912  -0.019  0.00  0.00    +0.000 A 
ATOM     27  C   UNL     1       2.655   9.764  -0.959  0.00  0.00    +0.000 A 
ATOM     28  F   UNL     1       2.081  10.946  -1.212  0.00  0.00    +0.000 F 
ATOM     29  C   UNL     1       3.806   9.403  -1.649  0.00  0.00    +0.000 A 
ATOM     30  C   UNL     1       4.405   8.171  -1.392  0.00  0.00    +0.000 A 
ENDBRANCH  21  24
BRANCH  22  31
ATOM     31  N   UNL     1       6.794   6.505  -0.409  0.00  0.00    +0.000 N 
ATOM     32  H   UNL     1       6.688   7.498  -0.207  0.00  0.00    +0.000 HD
ATOM     33  H   UNL     1       7.742   6.178  -0.230  0.00  0.00    +0.000 HD
ENDBRANCH  22  31
ENDBRANCH   2  19
TORSDOF 6
