REMARK  Name = 
REMARK  5 active torsions:
REMARK  status: ('A' for Active; 'I' for Inactive)
REMARK    1  A    between atoms: C_2  and  C_17
REMARK    2  A    between atoms: N_3  and  C_4
REMARK    3  A    between atoms: C_7  and  O_8
REMARK    4  A    between atoms: O_8  and  C_9
REMARK    5  A    between atoms: N_19  and  C_20
REMARK                            x       y       z     vdW  Elec       q    Type
REMARK                         _______ _______ _______ _____ _____    ______ ____
ROOT
ATOM      1  O   UNL     1       1.011   0.057  -0.148  0.00  0.00    +0.000 OA
ATOM      2  C   UNL     1       2.232   0.162  -0.089  0.00  0.00    +0.000 C 
ATOM      3  N   UNL     1       2.927   1.004   0.762  0.00  0.00    +0.000 N 
ATOM      4  H   UNL     1       3.922   1.103   0.588  0.00  0.00    +0.000 HD
ENDROOT
BRANCH   3   5
ATOM      5  C   UNL     1       2.342   1.802   1.769  0.00  0.00    +0.000 A 
ATOM      6  C   UNL     1       1.033   1.601   2.217  0.00  0.00    +0.000 A 
ATOM      7  C   UNL     1       0.470   2.426   3.188  0.00  0.00    +0.000 A 
ATOM      8  C   UNL     1       1.236   3.422   3.787  0.00  0.00    +0.000 A 
ATOM      9  C   UNL     1       2.540   3.643   3.340  0.00  0.00    +0.000 A 
ATOM     10  C   UNL     1       3.097   2.829   2.343  0.00  0.00    +0.000 A 
BRANCH   8  11
ATOM     11  O   UNL     1       0.770   4.255   4.780  0.00  0.00    +0.000 OA
BRANCH  11  12
ATOM     12  C   UNL     1      -0.151   3.781   5.684  0.00  0.00    +0.000 A 
ATOM     13  C   UNL     1      -0.198   2.473   6.168  0.00  0.00    +0.000 A 
ATOM     14  C   UNL     1      -1.201   2.106   7.062  0.00  0.00    +0.000 A 
ATOM     15  C   UNL     1      -2.092   3.078   7.486  0.00  0.00    +0.000 A 
ATOM     16  N   UNL     1      -2.043   4.367   7.083  0.00  0.00    +0.000 NA
ATOM     17  C   UNL     1      -1.071   4.687   6.193  0.00  0.00    +0.000 A 
ENDBRANCH  11  12
ENDBRANCH   8  11
ENDBRANCH   3   5
BRANCH   2  18
ATOM     18  C   UNL     1       3.064  -0.624  -0.983  0.00  0.00    +0.000 A 
ATOM     19  C   UNL     1       2.583  -1.457  -1.966  0.00  0.00    +0.000 A 
ATOM     20  N   UNL     1       3.683  -2.049  -2.527  0.00  0.00    +0.000 N 
ATOM     21  N   UNL     1       4.794  -1.560  -1.911  0.00  0.00    +0.000 NA
ATOM     22  N   UNL     1       4.426  -0.687  -0.976  0.00  0.00    +0.000 NA
BRANCH  20  23
ATOM     23  C   UNL     1       3.730  -3.010  -3.562  0.00  0.00    +0.000 A 
ATOM     24  C   UNL     1       2.574  -3.407  -4.240  0.00  0.00    +0.000 A 
ATOM     25  F   UNL     1       1.368  -2.889  -3.963  0.00  0.00    +0.000 F 
ATOM     26  C   UNL     1       2.617  -4.358  -5.261  0.00  0.00    +0.000 A 
ATOM     27  C   UNL     1       3.829  -4.936  -5.620  0.00  0.00    +0.000 A 
ATOM     28  C   UNL     1       4.991  -4.557  -4.952  0.00  0.00    +0.000 A 
ATOM     29  C   UNL     1       4.940  -3.601  -3.934  0.00  0.00    +0.000 A 
ATOM     30  F   UNL     1       6.095  -3.299  -3.325  0.00  0.00    +0.000 F 
ENDBRANCH  20  23
ENDBRANCH   2  18
TORSDOF 5
