REMARK  Name = 
REMARK  3 active torsions:
REMARK  status: ('A' for Active; 'I' for Inactive)
REMARK    1  A    between atoms: C_2  and  C_18
REMARK    2  A    between atoms: N_3  and  C_4
REMARK    3  A    between atoms: C_11  and  C_12
REMARK                            x       y       z     vdW  Elec       q    Type
REMARK                         _______ _______ _______ _____ _____    ______ ____
ROOT
ATOM      1  O   UNL     1       3.169   0.978  -2.609  0.00  0.00    +0.000 OA
ATOM      2  C   UNL     1       3.165   0.606  -1.438  0.00  0.00    +0.000 C 
ATOM      3  N   UNL     1       2.724  -0.638  -1.004  0.00  0.00    +0.000 N 
ATOM      4  H   UNL     1       3.130  -0.967  -0.132  0.00  0.00    +0.000 HD
ENDROOT
BRANCH   2   5
ATOM      5  C   UNL     1       3.752   1.492  -0.384  0.00  0.00    +0.000 A 
ATOM      6  C   UNL     1       4.158   2.774  -0.751  0.00  0.00    +0.000 A 
ATOM      7  C   UNL     1       4.658   3.623   0.231  0.00  0.00    +0.000 A 
ATOM      8  C   UNL     1       4.736   3.164   1.540  0.00  0.00    +0.000 A 
ATOM      9  C   UNL     1       5.215   4.014   2.627  0.00  0.00    +0.000 A 
ATOM     10  C   UNL     1       5.279   3.522   3.868  0.00  0.00    +0.000 A 
ATOM     11  C   UNL     1       4.872   2.126   4.162  0.00  0.00    +0.000 A 
ATOM     12  O   UNL     1       4.951   1.682   5.303  0.00  0.00    +0.000 OA
ATOM     13  N   UNL     1       4.419   1.379   3.114  0.00  0.00    +0.000 N 
ATOM     14  C   UNL     1       4.326   1.850   1.808  0.00  0.00    +0.000 A 
ATOM     15  N   UNL     1       3.843   0.996   0.880  0.00  0.00    +0.000 NA
ATOM     16  H   UNL     1       4.129   0.431   3.297  0.00  0.00    +0.000 HD
ENDBRANCH   2   5
BRANCH   3  17
ATOM     17  C   UNL     1       2.206  -1.574  -1.933  0.00  0.00    +0.000 A 
ATOM     18  C   UNL     1       1.110  -1.175  -2.732  0.00  0.00    +0.000 A 
ATOM     19  F   UNL     1       0.548   0.032  -2.555  0.00  0.00    +0.000 F 
ATOM     20  C   UNL     1       0.523  -2.030  -3.651  0.00  0.00    +0.000 A 
ATOM     21  C   UNL     1       1.054  -3.295  -3.800  0.00  0.00    +0.000 A 
ATOM     22  F   UNL     1       0.512  -4.138  -4.688  0.00  0.00    +0.000 F 
ATOM     23  C   UNL     1       2.136  -3.717  -3.029  0.00  0.00    +0.000 A 
ATOM     24  C   UNL     1       2.728  -2.886  -2.048  0.00  0.00    +0.000 A 
BRANCH  24  25
ATOM     25  C   UNL     1       3.866  -3.418  -1.246  0.00  0.00    +0.000 A 
ATOM     26  C   UNL     1       4.980  -2.634  -0.893  0.00  0.00    +0.000 A 
ATOM     27  C   UNL     1       6.008  -3.137  -0.088  0.00  0.00    +0.000 A 
ATOM     28  C   UNL     1       5.979  -4.461   0.334  0.00  0.00    +0.000 A 
ATOM     29  C   UNL     1       4.924  -5.280  -0.048  0.00  0.00    +0.000 A 
ATOM     30  C   UNL     1       3.877  -4.760  -0.817  0.00  0.00    +0.000 A 
ENDBRANCH  24  25
ENDBRANCH   3  17
TORSDOF 3
