REMARK  Name = 
REMARK  7 active torsions:
REMARK  status: ('A' for Active; 'I' for Inactive)
REMARK    1  A    between atoms: C_2  and  C_3
REMARK    2  A    between atoms: C_2  and  O_15
REMARK    3  A    between atoms: C_3  and  N_4
REMARK    4  A    between atoms: O_15  and  C_16
REMARK    5  A    between atoms: C_16  and  C_17
REMARK    6  A    between atoms: C_20  and  C_21
REMARK    7  A    between atoms: C_23  and  C_24
REMARK                            x       y       z     vdW  Elec       q    Type
REMARK                         _______ _______ _______ _____ _____    ______ ____
ROOT
ATOM      1  C   UNL     1       4.250  -0.919   0.914  0.00  0.00    +0.000 C 
ENDROOT
BRANCH   1   2
ATOM      2  C   UNL     1       4.757  -1.933   1.875  0.00  0.00    +0.000 A 
ATOM      3  C   UNL     1       5.018  -1.806   3.219  0.00  0.00    +0.000 A 
ATOM      4  O   UNL     1       5.470  -3.004   3.684  0.00  0.00    +0.000 OA
ATOM      5  C   UNL     1       5.461  -3.820   2.582  0.00  0.00    +0.000 A 
ATOM      6  N   UNL     1       5.061  -3.221   1.476  0.00  0.00    +0.000 NA
BRANCH   5   7
ATOM      7  C   UNL     1       5.869  -5.211   2.778  0.00  0.00    +0.000 A 
ATOM      8  C   UNL     1       5.880  -6.089   1.681  0.00  0.00    +0.000 A 
ATOM      9  C   UNL     1       6.218  -7.445   1.832  0.00  0.00    +0.000 A 
ATOM     10  C   UNL     1       6.566  -7.918   3.105  0.00  0.00    +0.000 A 
ATOM     11  C   UNL     1       6.575  -7.056   4.201  0.00  0.00    +0.000 A 
ATOM     12  C   UNL     1       6.228  -5.712   4.037  0.00  0.00    +0.000 A 
BRANCH   9  13
ATOM     13  C   UNL     1       6.194  -8.390   0.655  0.00  0.00    +0.000 C 
ATOM     14  F   UNL     1       5.819  -7.801  -0.515  0.00  0.00    +0.000 F 
ATOM     15  F   UNL     1       7.410  -8.954   0.415  0.00  0.00    +0.000 F 
ATOM     16  F   UNL     1       5.332  -9.428   0.842  0.00  0.00    +0.000 F 
ENDBRANCH   9  13
ENDBRANCH   5   7
ENDBRANCH   1   2
BRANCH   1  17
ATOM     17  O   UNL     1       2.812  -0.914   0.858  0.00  0.00    +0.000 OA
BRANCH  17  19
ATOM     18  O   UNL     1       2.746   1.204   1.734  0.00  0.00    +0.000 OA
ATOM     19  C   UNL     1       2.184   0.207   1.295  0.00  0.00    +0.000 C 
BRANCH  19  20
ATOM     20  C   UNL     1       0.672   0.038   1.237  0.00  0.00    +0.000 C 
BRANCH  20  21
ATOM     21  N   UNL     1       0.129  -0.407   2.512  0.00  0.00    +0.000 N 
ATOM     22  C   UNL     1      -0.015  -1.776   2.696  0.00  0.00    +0.000 A 
ATOM     23  O   UNL     1       0.262  -2.644   1.878  0.00  0.00    +0.000 OA
ATOM     24  C   UNL     1      -0.575  -2.224   4.018  0.00  0.00    +0.000 A 
ATOM     25  N   UNL     1      -0.912  -1.423   4.975  0.00  0.00    +0.000 NA
ATOM     26  C   UNL     1      -0.737  -0.045   4.763  0.00  0.00    +0.000 A 
ATOM     27  C   UNL     1      -1.101   0.810   5.809  0.00  0.00    +0.000 A 
ATOM     28  C   UNL     1      -0.956   2.190   5.685  0.00  0.00    +0.000 A 
ATOM     29  C   UNL     1      -0.440   2.724   4.509  0.00  0.00    +0.000 A 
ATOM     30  C   UNL     1      -0.070   1.882   3.454  0.00  0.00    +0.000 A 
ATOM     31  C   UNL     1      -0.218   0.491   3.564  0.00  0.00    +0.000 A 
ENDBRANCH  20  21
ENDBRANCH  19  20
ENDBRANCH  17  19
ENDBRANCH   1  17
TORSDOF 7
