REMARK  Name = 
REMARK  6 active torsions:
REMARK  status: ('A' for Active; 'I' for Inactive)
REMARK    1  A    between atoms: C_2  and  C_10
REMARK    2  A    between atoms: N_3  and  C_4
REMARK    3  A    between atoms: C_13  and  C_14
REMARK    4  A    between atoms: C_14  and  N_15
REMARK    5  A    between atoms: C_16  and  C_18
REMARK    6  A    between atoms: C_20  and  C_21
REMARK                            x       y       z     vdW  Elec       q    Type
REMARK                         _______ _______ _______ _____ _____    ______ ____
ROOT
ATOM      1  C   UNL     1       5.167   4.013   2.893  0.00  0.00    +0.000 C 
ENDROOT
BRANCH   1   5
ATOM      2  C   UNL     1       3.106   0.871   0.768  0.00  0.00    +0.000 A 
ATOM      3  C   UNL     1       2.719   2.207   0.611  0.00  0.00    +0.000 A 
ATOM      4  C   UNL     1       3.365   3.219   1.323  0.00  0.00    +0.000 A 
ATOM      5  C   UNL     1       4.422   2.910   2.188  0.00  0.00    +0.000 A 
ATOM      6  C   UNL     1       4.783   1.564   2.368  0.00  0.00    +0.000 A 
ATOM      7  C   UNL     1       4.134   0.545   1.658  0.00  0.00    +0.000 A 
BRANCH   2   9
ATOM      8  O   UNL     1       2.153   0.212  -1.241  0.00  0.00    +0.000 OA
ATOM      9  C   UNL     1       2.448  -0.138  -0.103  0.00  0.00    +0.000 C 
ATOM     10  N   UNL     1       2.166  -1.363   0.477  0.00  0.00    +0.000 N 
ATOM     11  H   UNL     1       2.305  -1.451   1.476  0.00  0.00    +0.000 HD
BRANCH  10  12
ATOM     12  C   UNL     1       1.473  -2.420  -0.164  0.00  0.00    +0.000 A 
ATOM     13  C   UNL     1       1.266  -2.489  -1.541  0.00  0.00    +0.000 A 
ATOM     14  C   UNL     1       0.504  -3.522  -2.085  0.00  0.00    +0.000 A 
ATOM     15  C   UNL     1      -0.018  -4.475  -1.230  0.00  0.00    +0.000 A 
ATOM     16  N   UNL     1       0.191  -4.475   0.104  0.00  0.00    +0.000 NA
ATOM     17  C   UNL     1       0.934  -3.453   0.601  0.00  0.00    +0.000 A 
ENDBRANCH  10  12
ENDBRANCH   2   9
ENDBRANCH   1   5
BRANCH   1  18
ATOM     18  N   UNL     1       4.565   4.352   4.155  0.00  0.00    +0.000 N 
ATOM     19  C   UNL     1       5.148   5.286   4.981  0.00  0.00    +0.000 C 
ATOM     20  O   UNL     1       6.199   5.852   4.690  0.00  0.00    +0.000 OA
ATOM     21  H   UNL     1       3.647   3.995   4.376  0.00  0.00    +0.000 HD
BRANCH  19  22
ATOM     22  C   UNL     1       4.439   5.560   6.209  0.00  0.00    +0.000 A 
ATOM     23  C   UNL     1       3.302   5.010   6.777  0.00  0.00    +0.000 A 
ATOM     24  C   UNL     1       3.062   5.649   8.029  0.00  0.00    +0.000 A 
ATOM     25  C   UNL     1       4.073   6.576   8.193  0.00  0.00    +0.000 A 
ATOM     26  N   UNL     1       4.892   6.513   7.097  0.00  0.00    +0.000 N 
ATOM     27  H   UNL     1       5.731   7.061   6.949  0.00  0.00    +0.000 HD
BRANCH  24  28
ATOM     28  C   UNL     1       2.020   5.371   9.007  0.00  0.00    +0.000 A 
ATOM     29  C   UNL     1       1.528   6.358   9.856  0.00  0.00    +0.000 A 
ATOM     30  C   UNL     1       0.548   6.015  10.785  0.00  0.00    +0.000 A 
ATOM     31  C   UNL     1       0.096   4.703  10.842  0.00  0.00    +0.000 A 
ATOM     32  C   UNL     1       0.632   3.786   9.954  0.00  0.00    +0.000 A 
ATOM     33  N   UNL     1       1.572   4.091   9.032  0.00  0.00    +0.000 NA
ENDBRANCH  24  28
ENDBRANCH  19  22
ENDBRANCH   1  18
TORSDOF 6
