REMARK  Name = 
REMARK  5 active torsions:
REMARK  status: ('A' for Active; 'I' for Inactive)
REMARK    1  A    between atoms: C_2  and  C_18
REMARK    2  A    between atoms: N_3  and  C_4
REMARK    3  A    between atoms: C_4  and  C_5
REMARK    4  A    between atoms: C_10  and  C_11
REMARK    5  A    between atoms: C_25  and  O_26
REMARK                            x       y       z     vdW  Elec       q    Type
REMARK                         _______ _______ _______ _____ _____    ______ ____
ROOT
ATOM      1  O   UNL     1       1.120   0.093  -0.085  0.00  0.00    +0.000 OA
ATOM      2  C   UNL     1       2.342   0.069   0.003  0.00  0.00    +0.000 C 
ATOM      3  N   UNL     1       3.086  -1.084  -0.092  0.00  0.00    +0.000 N 
ATOM      4  H   UNL     1       4.099  -1.070  -0.139  0.00  0.00    +0.000 HD
ENDROOT
BRANCH   2   5
ATOM      5  C   UNL     1       3.158   1.293   0.216  0.00  0.00    +0.000 A 
ATOM      6  C   UNL     1       2.507   2.449   0.404  0.00  0.00    +0.000 A 
ATOM      7  C   UNL     1       3.288   3.663   0.684  0.00  0.00    +0.000 A 
ATOM      8  O   UNL     1       2.737   4.740   0.870  0.00  0.00    +0.000 OA
ATOM      9  C   UNL     1       4.748   3.505   0.739  0.00  0.00    +0.000 A 
ATOM     10  C   UNL     1       5.578   4.592   1.033  0.00  0.00    +0.000 A 
ATOM     11  C   UNL     1       6.961   4.411   1.066  0.00  0.00    +0.000 A 
ATOM     12  C   UNL     1       7.496   3.151   0.806  0.00  0.00    +0.000 A 
ATOM     13  C   UNL     1       6.676   2.065   0.520  0.00  0.00    +0.000 A 
ATOM     14  C   UNL     1       5.296   2.248   0.494  0.00  0.00    +0.000 A 
ATOM     15  O   UNL     1       4.533   1.146   0.223  0.00  0.00    +0.000 OA
BRANCH  12  16
ATOM     16  O   UNL     1       8.841   2.932   0.822  0.00  0.00    +0.000 OA
ATOM     17  H   UNL     1       9.296   3.768   1.012  0.00  0.00    +0.000 HD
ENDBRANCH  12  16
ENDBRANCH   2   5
BRANCH   3  18
ATOM     18  C   UNL     1       2.413  -2.311  -0.409  0.00  0.00    +0.000 C 
BRANCH  18  19
ATOM     19  C   UNL     1       3.307  -3.514  -0.627  0.00  0.00    +0.000 A 
ATOM     20  N   UNL     1       4.651  -3.259  -0.592  0.00  0.00    +0.000 NA
ATOM     21  C   UNL     1       5.495  -4.298  -0.753  0.00  0.00    +0.000 A 
ATOM     22  C   UNL     1       5.070  -5.595  -0.957  0.00  0.00    +0.000 A 
ATOM     23  C   UNL     1       3.699  -5.840  -1.013  0.00  0.00    +0.000 A 
ATOM     24  C   UNL     1       2.754  -4.805  -0.856  0.00  0.00    +0.000 A 
BRANCH  24  25
ATOM     25  C   UNL     1       1.289  -5.120  -0.898  0.00  0.00    +0.000 A 
ATOM     26  C   UNL     1       0.785  -6.336  -0.388  0.00  0.00    +0.000 A 
ATOM     27  C   UNL     1      -0.589  -6.619  -0.376  0.00  0.00    +0.000 A 
ATOM     28  C   UNL     1      -1.492  -5.672  -0.831  0.00  0.00    +0.000 A 
ATOM     29  F   UNL     1      -2.806  -5.923  -0.781  0.00  0.00    +0.000 F 
ATOM     30  C   UNL     1      -1.043  -4.478  -1.358  0.00  0.00    +0.000 A 
ATOM     31  C   UNL     1       0.331  -4.239  -1.439  0.00  0.00    +0.000 A 
ENDBRANCH  24  25
ENDBRANCH  18  19
ENDBRANCH   3  18
TORSDOF 5
