REMARK  Name = 
REMARK  5 active torsions:
REMARK  status: ('A' for Active; 'I' for Inactive)
REMARK    1  A    between atoms: C_2  and  C_17
REMARK    2  A    between atoms: N_3  and  C_4
REMARK    3  A    between atoms: C_4  and  C_5
REMARK    4  A    between atoms: C_9  and  C_10
REMARK    5  A    between atoms: C_18  and  C_19
REMARK                            x       y       z     vdW  Elec       q    Type
REMARK                         _______ _______ _______ _____ _____    ______ ____
ROOT
ATOM      1  O   UNL     1       0.956   0.000  -0.010  0.00  0.00    +0.000 OA
ATOM      2  C   UNL     1       2.180  -0.080   0.054  0.00  0.00    +0.000 C 
ATOM      3  N   UNL     1       2.953   1.020   0.346  0.00  0.00    +0.000 N 
ATOM      4  H   UNL     1       3.943   0.901   0.509  0.00  0.00    +0.000 HD
ENDROOT
BRANCH   2   5
ATOM      5  C   UNL     1       2.919  -1.288  -0.244  0.00  0.00    +0.000 A 
ATOM      6  C   UNL     1       2.674  -2.309  -1.158  0.00  0.00    +0.000 A 
ATOM      7  C   UNL     1       3.672  -3.294  -0.909  0.00  0.00    +0.000 A 
ATOM      8  C   UNL     1       4.486  -2.790   0.077  0.00  0.00    +0.000 A 
ATOM      9  O   UNL     1       4.056  -1.564   0.469  0.00  0.00    +0.000 OA
BRANCH   6  10
ATOM     10  C   UNL     1       1.598  -2.308  -2.145  0.00  0.00    +0.000 A 
ATOM     11  C   UNL     1       0.961  -3.508  -2.501  0.00  0.00    +0.000 A 
ATOM     12  C   UNL     1      -0.086  -3.510  -3.430  0.00  0.00    +0.000 A 
ATOM     13  C   UNL     1      -0.503  -2.313  -4.003  0.00  0.00    +0.000 A 
ATOM     14  F   UNL     1      -1.518  -2.318  -4.877  0.00  0.00    +0.000 F 
ATOM     15  C   UNL     1       0.130  -1.126  -3.675  0.00  0.00    +0.000 A 
ATOM     16  F   UNL     1      -0.270   0.031  -4.222  0.00  0.00    +0.000 F 
ATOM     17  C   UNL     1       1.188  -1.120  -2.772  0.00  0.00    +0.000 A 
ENDBRANCH   6  10
ENDBRANCH   2   5
BRANCH   3  18
ATOM     18  C   UNL     1       2.349   2.321   0.532  0.00  0.00    +0.000 C 
BRANCH  18  19
ATOM     19  C   UNL     1       1.893   2.537   1.951  0.00  0.00    +0.000 A 
ATOM     20  C   UNL     1       0.632   2.147   2.358  0.00  0.00    +0.000 A 
ATOM     21  C   UNL     1       0.333   2.352   3.681  0.00  0.00    +0.000 A 
ATOM     22  N   UNL     1       1.191   2.897   4.561  0.00  0.00    +0.000 NA
ATOM     23  C   UNL     1       2.409   3.246   4.084  0.00  0.00    +0.000 A 
ATOM     24  N   UNL     1       2.789   3.079   2.801  0.00  0.00    +0.000 NA
BRANCH  23  25
ATOM     25  C   UNL     1       3.383   3.836   5.037  0.00  0.00    +0.000 A 
ATOM     26  C   UNL     1       3.089   3.963   6.398  0.00  0.00    +0.000 A 
ATOM     27  C   UNL     1       4.036   4.515   7.259  0.00  0.00    +0.000 A 
ATOM     28  C   UNL     1       5.258   4.932   6.749  0.00  0.00    +0.000 A 
ATOM     29  C   UNL     1       5.483   4.780   5.393  0.00  0.00    +0.000 A 
ATOM     30  N   UNL     1       4.586   4.247   4.537  0.00  0.00    +0.000 NA
ENDBRANCH  23  25
ENDBRANCH  18  19
ENDBRANCH   3  18
TORSDOF 5
