REMARK  Name = 
REMARK  7 active torsions:
REMARK  status: ('A' for Active; 'I' for Inactive)
REMARK    1  A    between atoms: C_1  and  C_2
REMARK    2  A    between atoms: C_5  and  C_6
REMARK    3  A    between atoms: N_8  and  C_9
REMARK    4  A    between atoms: C_13  and  N_14
REMARK    5  A    between atoms: N_17  and  C_18
REMARK    6  A    between atoms: C_18  and  C_19
REMARK    7  A    between atoms: N_26  and  C_27
REMARK                            x       y       z     vdW  Elec       q    Type
REMARK                         _______ _______ _______ _____ _____    ______ ____
ROOT
ATOM      1  C   UNL     1       8.245  -1.886  -0.005  0.00  0.00    +0.000 A 
ATOM      2  C   UNL     1       8.078  -3.065  -0.729  0.00  0.00    +0.000 A 
ATOM      3  C   UNL     1       9.164  -3.907  -0.931  0.00  0.00    +0.000 A 
ATOM      4  C   UNL     1      10.398  -3.610  -0.351  0.00  0.00    +0.000 A 
ATOM      5  C   UNL     1      10.579  -2.457   0.420  0.00  0.00    +0.000 A 
ATOM      6  C   UNL     1       9.499  -1.569   0.554  0.00  0.00    +0.000 A 
ENDROOT
BRANCH   5   7
ATOM      7  N   UNL     1      11.820  -2.158   1.050  0.00  0.00    +0.000 N 
ATOM      8  C   UNL     1      12.832  -3.072   1.278  0.00  0.00    +0.000 C 
ATOM      9  O   UNL     1      12.763  -4.280   1.078  0.00  0.00    +0.000 OA
ATOM     10  N   UNL     1      13.996  -2.494   1.742  0.00  0.00    +0.000 N 
ATOM     11  H   UNL     1      11.912  -1.247   1.473  0.00  0.00    +0.000 HD
ATOM     12  H   UNL     1      13.923  -1.636   2.265  0.00  0.00    +0.000 HD
BRANCH  10  13
ATOM     13  C   UNL     1      15.108  -3.369   2.063  0.00  0.00    +0.000 C 
BRANCH  13  14
ATOM     14  C   UNL     1      16.443  -2.679   2.005  0.00  0.00    +0.000 A 
ATOM     15  C   UNL     1      17.307  -2.689   3.104  0.00  0.00    +0.000 A 
ATOM     16  C   UNL     1      18.562  -2.113   2.970  0.00  0.00    +0.000 A 
ATOM     17  N   UNL     1      19.008  -1.538   1.833  0.00  0.00    +0.000 NA
ATOM     18  C   UNL     1      18.165  -1.548   0.779  0.00  0.00    +0.000 A 
ATOM     19  C   UNL     1      16.893  -2.098   0.815  0.00  0.00    +0.000 A 
ENDBRANCH  13  14
ENDBRANCH  10  13
ENDBRANCH   5   7
BRANCH   1  22
ATOM     20  C   UNL     1       7.135   0.298  -0.059  0.00  0.00    +0.000 C 
ATOM     21  O   UNL     1       8.115   0.856  -0.535  0.00  0.00    +0.000 OA
ATOM     22  N   UNL     1       7.109  -1.068   0.176  0.00  0.00    +0.000 N 
ATOM     23  H   UNL     1       6.208  -1.523   0.147  0.00  0.00    +0.000 HD
BRANCH  20  28
ATOM     24  C   UNL     1       3.801   3.845   1.308  0.00  0.00    +0.000 C 
ATOM     25  C   UNL     1       4.424   2.599   0.777  0.00  0.00    +0.000 A 
ATOM     26  N   UNL     1       3.709   1.533   0.469  0.00  0.00    +0.000 NA
ATOM     27  C   UNL     1       4.603   0.558   0.170  0.00  0.00    +0.000 A 
ATOM     28  C   UNL     1       5.909   1.004   0.270  0.00  0.00    +0.000 A 
ATOM     29  N   UNL     1       5.798   2.345   0.666  0.00  0.00    +0.000 N 
BRANCH  29  30
ATOM     30  C   UNL     1       6.865   3.251   0.982  0.00  0.00    +0.000 A 
ATOM     31  C   UNL     1       6.733   4.629   0.770  0.00  0.00    +0.000 A 
ATOM     32  C   UNL     1       7.766   5.507   1.116  0.00  0.00    +0.000 A 
ATOM     33  C   UNL     1       8.960   5.016   1.633  0.00  0.00    +0.000 A 
ATOM     34  C   UNL     1       9.119   3.648   1.816  0.00  0.00    +0.000 A 
ATOM     35  C   UNL     1       8.070   2.775   1.518  0.00  0.00    +0.000 A 
ENDBRANCH  29  30
ENDBRANCH  20  28
ENDBRANCH   1  22
TORSDOF 6
