REMARK  Name = 
REMARK  6 active torsions:
REMARK  status: ('A' for Active; 'I' for Inactive)
REMARK    1  A    between atoms: C_1  and  O_2
REMARK    2  A    between atoms: O_2  and  C_3
REMARK    3  A    between atoms: C_4  and  C_5
REMARK    4  A    between atoms: N_7  and  C_8
REMARK    5  A    between atoms: C_11  and  N_12
REMARK    6  A    between atoms: C_13  and  C_15
REMARK                            x       y       z     vdW  Elec       q    Type
REMARK                         _______ _______ _______ _____ _____    ______ ____
ROOT
ATOM      1  C   UNL     1       4.672  -1.645   0.959  0.00  0.00    +0.000 C 
ATOM      2  O   UNL     1       3.698  -1.624   1.701  0.00  0.00    +0.000 OA
ATOM      3  N   UNL     1       5.984  -1.891   1.337  0.00  0.00    +0.000 N 
ATOM      4  H   UNL     1       6.704  -1.861   0.624  0.00  0.00    +0.000 HD
ENDROOT
BRANCH   1   6
ATOM      5  C   UNL     1       3.621  -0.318  -0.927  0.00  0.00    +0.000 A 
ATOM      6  C   UNL     1       4.428  -1.369  -0.470  0.00  0.00    +0.000 A 
ATOM      7  C   UNL     1       4.846  -2.309  -1.396  0.00  0.00    +0.000 A 
ATOM      8  N   UNL     1       4.517  -2.282  -2.708  0.00  0.00    +0.000 NA
ATOM      9  C   UNL     1       3.678  -1.322  -3.131  0.00  0.00    +0.000 A 
ATOM     10  C   UNL     1       3.263  -1.347  -4.457  0.00  0.00    +0.000 A 
ATOM     11  C   UNL     1       2.372  -0.403  -4.973  0.00  0.00    +0.000 A 
ATOM     12  C   UNL     1       1.883   0.599  -4.149  0.00  0.00    +0.000 A 
ATOM     13  C   UNL     1       2.290   0.652  -2.815  0.00  0.00    +0.000 A 
ATOM     14  C   UNL     1       3.189  -0.306  -2.281  0.00  0.00    +0.000 A 
BRANCH   5  16
ATOM     15  C   UNL     1       4.074   1.286   0.770  0.00  0.00    +0.000 C 
ATOM     16  O   UNL     1       3.141   0.705  -0.140  0.00  0.00    +0.000 OA
ENDBRANCH   5  16
ENDBRANCH   1   6
BRANCH   3  17
ATOM     17  C   UNL     1       6.432  -2.061   2.674  0.00  0.00    +0.000 A 
ATOM     18  C   UNL     1       5.596  -2.106   3.787  0.00  0.00    +0.000 A 
ATOM     19  C   UNL     1       6.133  -2.182   5.079  0.00  0.00    +0.000 A 
ATOM     20  C   UNL     1       7.510  -2.228   5.241  0.00  0.00    +0.000 A 
ATOM     21  N   UNL     1       8.331  -2.236   4.176  0.00  0.00    +0.000 NA
ATOM     22  C   UNL     1       7.792  -2.154   2.935  0.00  0.00    +0.000 A 
BRANCH  20  23
ATOM     23  N   UNL     1       8.023  -2.256   6.553  0.00  0.00    +0.000 N 
ATOM     24  C   UNL     1       9.370  -2.244   6.850  0.00  0.00    +0.000 C 
ATOM     25  O   UNL     1      10.285  -2.188   6.031  0.00  0.00    +0.000 OA
ATOM     26  H   UNL     1       7.353  -2.209   7.303  0.00  0.00    +0.000 HD
BRANCH  24  27
ATOM     27  C   UNL     1       9.765  -2.281   8.290  0.00  0.00    +0.000 A 
ATOM     28  C   UNL     1       8.964  -2.812   9.309  0.00  0.00    +0.000 A 
ATOM     29  C   UNL     1       9.463  -2.893  10.617  0.00  0.00    +0.000 A 
ATOM     30  C   UNL     1      10.753  -2.450  10.913  0.00  0.00    +0.000 A 
ATOM     31  C   UNL     1      11.549  -1.909   9.909  0.00  0.00    +0.000 A 
ATOM     32  C   UNL     1      11.056  -1.824   8.607  0.00  0.00    +0.000 A 
ENDBRANCH  24  27
ENDBRANCH  20  23
ENDBRANCH   3  17
TORSDOF 5
