REMARK  Name = 
REMARK  6 active torsions:
REMARK  status: ('A' for Active; 'I' for Inactive)
REMARK    1  A    between atoms: N_1  and  C_2
REMARK    2  A    between atoms: C_2  and  C_3
REMARK    3  A    between atoms: C_6  and  C_7
REMARK    4  A    between atoms: C_12  and  C_13
REMARK    5  A    between atoms: N_15  and  C_16
REMARK    6  A    between atoms: C_19  and  N_20
REMARK                            x       y       z     vdW  Elec       q    Type
REMARK                         _______ _______ _______ _____ _____    ______ ____
ROOT
ATOM      1  C   UNL     1       2.589   2.205  -5.935  0.00  0.00    +0.000 C 
ATOM      2  O   UNL     1       1.644   1.905  -5.218  0.00  0.00    +0.000 OA
ATOM      3  N   UNL     1       2.921   1.593  -7.140  0.00  0.00    +0.000 N 
ATOM      4  H   UNL     1       3.761   1.908  -7.609  0.00  0.00    +0.000 HD
ENDROOT
BRANCH   1  10
ATOM      5  C   UNL     1       3.946   3.516  -4.175  0.00  0.00    +0.000 A 
ATOM      6  C   UNL     1       4.713   4.686  -3.936  0.00  0.00    +0.000 A 
ATOM      7  C   UNL     1       5.016   5.610  -4.938  0.00  0.00    +0.000 A 
ATOM      8  C   UNL     1       4.587   5.386  -6.235  0.00  0.00    +0.000 A 
ATOM      9  C   UNL     1       3.834   4.251  -6.523  0.00  0.00    +0.000 A 
ATOM     10  C   UNL     1       3.503   3.318  -5.514  0.00  0.00    +0.000 A 
BRANCH   5  14
ATOM     11  C   UNL     1       2.857   0.982  -0.811  0.00  0.00    +0.000 A 
ATOM     12  C   UNL     1       3.123   2.339  -0.629  0.00  0.00    +0.000 A 
ATOM     13  C   UNL     1       3.491   3.142  -1.713  0.00  0.00    +0.000 A 
ATOM     14  C   UNL     1       3.652   2.619  -3.014  0.00  0.00    +0.000 A 
ATOM     15  C   UNL     1       3.504   1.228  -3.142  0.00  0.00    +0.000 A 
ATOM     16  C   UNL     1       3.072   0.428  -2.075  0.00  0.00    +0.000 A 
BRANCH  11  17
ATOM     17  C   UNL     1       2.333   0.149   0.326  0.00  0.00    +0.000 C 
BRANCH  17  18
ATOM     18  N   UNL     1       1.085   0.695   0.848  0.00  0.00    +0.000 NA
ATOM     19  H   UNL     1       0.716   0.074   1.562  0.00  0.00    +0.000 HD
ATOM     20  H   UNL     1       0.399   0.711   0.091  0.00  0.00    +0.000 HD
ENDBRANCH  17  18
ENDBRANCH  11  17
ENDBRANCH   5  14
ENDBRANCH   1  10
BRANCH   3  21
ATOM     21  C   UNL     1       2.282   0.469  -7.714  0.00  0.00    +0.000 A 
ATOM     22  C   UNL     1       1.079  -0.055  -7.252  0.00  0.00    +0.000 A 
ATOM     23  C   UNL     1       0.529  -1.210  -7.823  0.00  0.00    +0.000 A 
ATOM     24  C   UNL     1       1.173  -1.882  -8.864  0.00  0.00    +0.000 A 
ATOM     25  C   UNL     1       2.375  -1.341  -9.338  0.00  0.00    +0.000 A 
ATOM     26  C   UNL     1       2.911  -0.166  -8.788  0.00  0.00    +0.000 A 
BRANCH  24  27
ATOM     27  N   UNL     1       0.631  -3.077  -9.420  0.00  0.00    +0.000 N 
ATOM     28  C   UNL     1       1.273  -3.998 -10.230  0.00  0.00    +0.000 A 
ATOM     29  C   UNL     1       0.420  -4.972 -10.566  0.00  0.00    +0.000 A 
ATOM     30  N   UNL     1      -0.791  -4.715  -9.990  0.00  0.00    +0.000 N 
ATOM     31  C   UNL     1      -0.720  -3.524  -9.243  0.00  0.00    +0.000 A 
ATOM     32  O   UNL     1      -1.659  -3.036  -8.630  0.00  0.00    +0.000 OA
ATOM     33  H   UNL     1      -1.633  -5.261 -10.067  0.00  0.00    +0.000 HD
ENDBRANCH  24  27
ENDBRANCH   3  21
TORSDOF 6
