REMARK  Name = 
REMARK  11 active torsions:
REMARK  status: ('A' for Active; 'I' for Inactive)
REMARK    1  A    between atoms: C_1  and  C_2
REMARK    2  A    between atoms: C_2  and  N_3
REMARK    3  A    between atoms: C_2  and  C_26
REMARK    4  A    between atoms: C_4  and  C_6
REMARK    5  A    between atoms: C_6  and  C_7
REMARK    6  A    between atoms: C_7  and  C_8
REMARK    7  A    between atoms: N_10  and  C_11
REMARK    8  A    between atoms: C_11  and  C_12
REMARK    9  A    between atoms: C_14  and  O_15
REMARK   10  A    between atoms: O_15  and  C_16
REMARK   11  A    between atoms: C_26  and  C_28
REMARK                            x       y       z     vdW  Elec       q    Type
REMARK                         _______ _______ _______ _____ _____    ______ ____
ROOT
ATOM      1  C   UNL     1       3.349   6.355   0.517  0.00  0.00    +0.000 C 
ATOM      2  O   UNL     1       3.108   7.470   0.059  0.00  0.00    +0.000 OA
ATOM      3  N   UNL     1       4.125   6.174   1.633  0.00  0.00    +0.000 N 
ATOM      4  H   UNL     1       4.239   5.267   2.059  0.00  0.00    +0.000 HD
ENDROOT
BRANCH   1   5
ATOM      5  C   UNL     1       2.786   5.114  -0.161  0.00  0.00    +0.000 C 
BRANCH   5   6
ATOM      6  C   UNL     1       3.187   3.785   0.456  0.00  0.00    +0.000 C 
BRANCH   6   8
ATOM      7  N   UNL     1       2.989   2.406  -1.538  0.00  0.00    +0.000 N 
ATOM      8  C   UNL     1       2.568   2.604  -0.248  0.00  0.00    +0.000 C 
ATOM      9  O   UNL     1       1.775   1.862   0.323  0.00  0.00    +0.000 OA
ATOM     10  H   UNL     1       3.666   3.022  -1.979  0.00  0.00    +0.000 HD
BRANCH   7  12
ATOM     11  C   UNL     1       3.555   0.113  -2.163  0.00  0.00    +0.000 C 
ATOM     12  C   UNL     1       2.551   1.249  -2.309  0.00  0.00    +0.000 C 
BRANCH  12  13
ATOM     13  C   UNL     1       2.419   1.651  -3.779  0.00  0.00    +0.000 C 
ATOM     14  O   UNL     1       3.136   2.531  -4.265  0.00  0.00    +0.000 OA
BRANCH  13  15
ATOM     15  C   UNL     1       1.416   0.945  -4.641  0.00  0.00    +0.000 A 
ATOM     16  C   UNL     1       0.625  -0.111  -4.176  0.00  0.00    +0.000 A 
ATOM     17  C   UNL     1      -0.311  -0.719  -5.022  0.00  0.00    +0.000 A 
ATOM     18  C   UNL     1      -0.454  -0.287  -6.338  0.00  0.00    +0.000 A 
ATOM     19  C   UNL     1       0.336   0.756  -6.814  0.00  0.00    +0.000 A 
ATOM     20  C   UNL     1       1.268   1.369  -5.971  0.00  0.00    +0.000 A 
ENDBRANCH  13  15
ENDBRANCH  12  13
ENDBRANCH   7  12
ENDBRANCH   6   8
ENDBRANCH   5   6
ENDBRANCH   1   5
BRANCH   3  21
ATOM     21  C   UNL     1       4.737   7.287   2.349  0.00  0.00    +0.000 C 
BRANCH  21  22
ATOM     22  C   UNL     1       3.909   7.774   3.515  0.00  0.00    +0.000 A 
ATOM     23  C   UNL     1       2.679   8.381   3.292  0.00  0.00    +0.000 A 
ATOM     24  C   UNL     1       1.892   8.735   4.387  0.00  0.00    +0.000 A 
ATOM     25  C   UNL     1       2.410   8.606   5.668  0.00  0.00    +0.000 A 
ATOM     26  C   UNL     1       3.662   8.034   5.804  0.00  0.00    +0.000 A 
ATOM     27  N   UNL     1       4.405   7.587   4.765  0.00  0.00    +0.000 NA
BRANCH  24  28
ATOM     28  O   UNL     1       0.615   9.244   4.285  0.00  0.00    +0.000 OA
BRANCH  28  29
ATOM     29  C   UNL     1      -0.185   8.822   3.244  0.00  0.00    +0.000 A 
ATOM     30  C   UNL     1      -0.177   7.516   2.736  0.00  0.00    +0.000 A 
ATOM     31  C   UNL     1      -0.943   7.191   1.616  0.00  0.00    +0.000 A 
ATOM     32  C   UNL     1      -1.774   8.153   1.047  0.00  0.00    +0.000 A 
ATOM     33  C   UNL     1      -1.844   9.422   1.614  0.00  0.00    +0.000 A 
ATOM     34  F   UNL     1      -2.675  10.332   1.087  0.00  0.00    +0.000 F 
ATOM     35  C   UNL     1      -1.058   9.767   2.708  0.00  0.00    +0.000 A 
ENDBRANCH  28  29
ENDBRANCH  24  28
ENDBRANCH  21  22
ENDBRANCH   3  21
TORSDOF 10
