REMARK  Name = 
REMARK  8 active torsions:
REMARK  status: ('A' for Active; 'I' for Inactive)
REMARK    1  A    between atoms: C_1  and  O_2
REMARK    2  A    between atoms: O_2  and  C_3
REMARK    3  A    between atoms: C_3  and  C_4
REMARK    4  A    between atoms: C_7  and  N_8
REMARK    5  A    between atoms: C_9  and  C_11
REMARK    6  A    between atoms: C_12  and  C_13
REMARK    7  A    between atoms: C_19  and  C_20
REMARK    8  A    between atoms: C_30  and  C_31
REMARK                            x       y       z     vdW  Elec       q    Type
REMARK                         _______ _______ _______ _____ _____    ______ ____
ROOT
ATOM      1  C   UNL     1      10.775   0.025  -0.880  0.00  0.00    +0.000 A 
ATOM      2  C   UNL     1      11.308  -0.773  -1.843  0.00  0.00    +0.000 A 
ATOM      3  C   UNL     1      12.816  -0.730  -2.002  0.00  0.00    +0.000 A 
ATOM      4  N   UNL     1      13.586   0.040  -1.286  0.00  0.00    +0.000 NA
ATOM      5  N   UNL     1      13.003   0.863  -0.389  0.00  0.00    +0.000 N 
ATOM      6  C   UNL     1      11.663   0.975  -0.164  0.00  0.00    +0.000 A 
ATOM      7  O   UNL     1      11.213   1.826   0.603  0.00  0.00    +0.000 OA
ATOM      8  H   UNL     1      13.623   1.485   0.124  0.00  0.00    +0.000 HD
ENDROOT
BRANCH   3   9
ATOM      9  C   UNL     1      13.525  -1.651  -2.968  0.00  0.00    +0.000 A 
ATOM     10  C   UNL     1      13.038  -1.975  -4.238  0.00  0.00    +0.000 A 
ATOM     11  C   UNL     1      13.704  -2.887  -5.061  0.00  0.00    +0.000 A 
ATOM     12  C   UNL     1      14.923  -3.421  -4.662  0.00  0.00    +0.000 A 
ATOM     13  C   UNL     1      15.474  -3.040  -3.441  0.00  0.00    +0.000 A 
ATOM     14  C   UNL     1      14.776  -2.170  -2.595  0.00  0.00    +0.000 A 
ENDBRANCH   3   9
BRANCH   2  15
ATOM     15  C   UNL     1      10.470  -1.678  -2.663  0.00  0.00    +0.000 A 
ATOM     16  C   UNL     1       9.857  -1.197  -3.833  0.00  0.00    +0.000 A 
ATOM     17  C   UNL     1       9.175  -2.072  -4.682  0.00  0.00    +0.000 A 
ATOM     18  C   UNL     1       9.043  -3.415  -4.335  0.00  0.00    +0.000 A 
ATOM     19  C   UNL     1       9.585  -3.885  -3.140  0.00  0.00    +0.000 A 
ATOM     20  C   UNL     1      10.307  -3.023  -2.310  0.00  0.00    +0.000 A 
ENDBRANCH   2  15
BRANCH   1  22
ATOM     21  N   UNL     1       8.782   0.983   0.216  0.00  0.00    +0.000 N 
ATOM     22  C   UNL     1       9.327  -0.078  -0.484  0.00  0.00    +0.000 C 
ATOM     23  O   UNL     1       8.700  -1.118  -0.699  0.00  0.00    +0.000 OA
ATOM     24  H   UNL     1       9.431   1.703   0.538  0.00  0.00    +0.000 HD
BRANCH  21  28
ATOM     25  C   UNL     1       4.902   0.978   1.721  0.00  0.00    +0.000 A 
ATOM     26  N   UNL     1       5.181   0.147   0.707  0.00  0.00    +0.000 NA
ATOM     27  C   UNL     1       6.447   0.184   0.240  0.00  0.00    +0.000 A 
ATOM     28  C   UNL     1       7.454   1.011   0.722  0.00  0.00    +0.000 A 
ATOM     29  C   UNL     1       7.049   1.861   1.747  0.00  0.00    +0.000 A 
ATOM     30  C   UNL     1       7.935   2.889   2.388  0.00  0.00    +0.000 C 
ATOM     31  N   UNL     1       5.787   1.847   2.249  0.00  0.00    +0.000 NA
BRANCH  25  32
ATOM     32  C   UNL     1       3.479   0.986   2.237  0.00  0.00    +0.000 C 
BRANCH  32  34
ATOM     33  C   UNL     1       2.651   2.537   0.637  0.00  0.00    +0.000 C 
ATOM     34  O   UNL     1       2.785   2.224   2.019  0.00  0.00    +0.000 OA
ENDBRANCH  32  34
ENDBRANCH  25  32
ENDBRANCH  21  28
ENDBRANCH   1  22
TORSDOF 6
