REMARK  Name = 
REMARK  5 active torsions:
REMARK  status: ('A' for Active; 'I' for Inactive)
REMARK    1  A    between atoms: C_2  and  C_3
REMARK    2  A    between atoms: C_5  and  C_6
REMARK    3  A    between atoms: N_16  and  C_17
REMARK    4  A    between atoms: C_17  and  C_18
REMARK    5  A    between atoms: C_28  and  O_29
REMARK                            x       y       z     vdW  Elec       q    Type
REMARK                         _______ _______ _______ _____ _____    ______ ____
ROOT
ATOM      1  O   UNL     1       1.276   0.365   0.910  0.00  0.00    +0.000 OA
ATOM      2  C   UNL     1       2.354   0.140   0.354  0.00  0.00    +0.000 C 
ATOM      3  N   UNL     1       2.956   1.027  -0.560  0.00  0.00    +0.000 N 
ATOM      4  C   UNL     1       4.372   1.050  -0.755  0.00  0.00    +0.000 A 
ATOM      5  N   UNL     1       5.158   0.591   0.244  0.00  0.00    +0.000 NA
ATOM      6  C   UNL     1       6.480   0.552   0.021  0.00  0.00    +0.000 A 
ATOM      7  N   UNL     1       7.099   0.949  -1.094  0.00  0.00    +0.000 NA
ATOM      8  C   UNL     1       6.278   1.425  -2.030  0.00  0.00    +0.000 A 
ATOM      9  C   UNL     1       4.916   1.525  -1.928  0.00  0.00    +0.000 A 
ENDROOT
BRANCH   2  10
ATOM     10  C   UNL     1       2.997  -1.186   0.624  0.00  0.00    +0.000 A 
ATOM     11  N   UNL     1       3.673  -1.746  -0.402  0.00  0.00    +0.000 NA
ATOM     12  C   UNL     1       4.351  -2.868  -0.127  0.00  0.00    +0.000 A 
ATOM     13  N   UNL     1       4.317  -3.505   1.058  0.00  0.00    +0.000 NA
ATOM     14  C   UNL     1       3.558  -2.948   2.026  0.00  0.00    +0.000 A 
ATOM     15  C   UNL     1       2.872  -1.769   1.863  0.00  0.00    +0.000 A 
BRANCH  12  16
ATOM     16  C   UNL     1       5.240  -3.378  -1.188  0.00  0.00    +0.000 A 
ATOM     17  C   UNL     1       5.348  -2.702  -2.424  0.00  0.00    +0.000 A 
ATOM     18  C   UNL     1       6.194  -3.157  -3.437  0.00  0.00    +0.000 A 
ATOM     19  C   UNL     1       6.948  -4.301  -3.228  0.00  0.00    +0.000 A 
ATOM     20  F   UNL     1       7.758  -4.743  -4.198  0.00  0.00    +0.000 F 
ATOM     21  C   UNL     1       6.876  -4.992  -2.025  0.00  0.00    +0.000 A 
ATOM     22  C   UNL     1       6.028  -4.531  -1.011  0.00  0.00    +0.000 A 
ENDBRANCH  12  16
ENDBRANCH   2  10
BRANCH   8  23
ATOM     23  O   UNL     1       6.903   1.794  -3.177  0.00  0.00    +0.000 OA
ATOM     24  H   UNL     1       7.824   1.554  -2.965  0.00  0.00    +0.000 HD
ENDBRANCH   8  23
BRANCH   3  25
ATOM     25  C   UNL     1       2.196   2.210  -0.964  0.00  0.00    +0.000 C 
BRANCH  25  26
ATOM     26  C   UNL     1       1.733   2.278  -2.406  0.00  0.00    +0.000 A 
ATOM     27  C   UNL     1       1.414   1.140  -3.158  0.00  0.00    +0.000 A 
ATOM     28  C   UNL     1       0.837   1.270  -4.426  0.00  0.00    +0.000 A 
ATOM     29  C   UNL     1       0.572   2.532  -4.954  0.00  0.00    +0.000 A 
ATOM     30  C   UNL     1       0.915   3.672  -4.232  0.00  0.00    +0.000 A 
ATOM     31  C   UNL     1       1.493   3.545  -2.969  0.00  0.00    +0.000 A 
ENDBRANCH  25  26
ENDBRANCH   3  25
TORSDOF 5
