REMARK  Name = 
REMARK  5 active torsions:
REMARK  status: ('A' for Active; 'I' for Inactive)
REMARK    1  A    between atoms: C_2  and  C_18
REMARK    2  A    between atoms: N_3  and  C_4
REMARK    3  A    between atoms: C_9  and  C_10
REMARK    4  A    between atoms: C_10  and  O_11
REMARK    5  A    between atoms: C_10  and  C_12
REMARK                            x       y       z     vdW  Elec       q    Type
REMARK                         _______ _______ _______ _____ _____    ______ ____
ROOT
ATOM      1  O   UNL     1       1.039  -1.062  -0.339  0.00  0.00    +0.000 OA
ATOM      2  C   UNL     1       2.143  -0.572  -0.130  0.00  0.00    +0.000 C 
ATOM      3  N   UNL     1       2.672  -0.203   1.095  0.00  0.00    +0.000 N 
ATOM      4  H   UNL     1       3.520   0.359   1.116  0.00  0.00    +0.000 HD
ENDROOT
BRANCH   2   5
ATOM      5  C   UNL     1       2.987  -0.316  -1.329  0.00  0.00    +0.000 A 
ATOM      6  C   UNL     1       4.369  -0.549  -1.333  0.00  0.00    +0.000 A 
ATOM      7  C   UNL     1       5.107  -0.299  -2.496  0.00  0.00    +0.000 A 
ATOM      8  C   UNL     1       4.468   0.242  -3.621  0.00  0.00    +0.000 A 
ATOM      9  N   UNL     1       5.245   0.719  -4.690  0.00  0.00    +0.000 N 
ATOM     10  C   UNL     1       6.614   0.736  -4.656  0.00  0.00    +0.000 A 
ATOM     11  O   UNL     1       7.293   1.383  -5.444  0.00  0.00    +0.000 OA
ATOM     12  C   UNL     1       7.249  -0.115  -3.619  0.00  0.00    +0.000 A 
ATOM     13  C   UNL     1       6.536  -0.602  -2.594  0.00  0.00    +0.000 A 
ATOM     14  C   UNL     1       3.085   0.385  -3.637  0.00  0.00    +0.000 A 
ATOM     15  F   UNL     1       2.468   0.825  -4.744  0.00  0.00    +0.000 F 
ATOM     16  C   UNL     1       2.338   0.093  -2.505  0.00  0.00    +0.000 A 
ATOM     17  H   UNL     1       4.796   1.242  -5.432  0.00  0.00    +0.000 HD
ENDBRANCH   2   5
BRANCH   3  18
ATOM     18  C   UNL     1       2.095  -0.436   2.374  0.00  0.00    +0.000 A 
ATOM     19  C   UNL     1       1.037  -1.347   2.530  0.00  0.00    +0.000 A 
ATOM     20  C   UNL     1       0.487  -1.620   3.781  0.00  0.00    +0.000 A 
ATOM     21  C   UNL     1       0.999  -1.006   4.911  0.00  0.00    +0.000 A 
ATOM     22  C   UNL     1       2.053  -0.107   4.785  0.00  0.00    +0.000 A 
ATOM     23  C   UNL     1       2.610   0.215   3.523  0.00  0.00    +0.000 A 
BRANCH  23  24
ATOM     24  C   UNL     1       3.644   1.335   3.496  0.00  0.00    +0.000 C 
BRANCH  24  25
ATOM     25  C   UNL     1       2.993   2.718   3.527  0.00  0.00    +0.000 A 
ATOM     26  C   UNL     1       2.620   3.321   4.728  0.00  0.00    +0.000 A 
ATOM     27  C   UNL     1       1.946   4.540   4.688  0.00  0.00    +0.000 A 
ATOM     28  C   UNL     1       1.667   5.124   3.457  0.00  0.00    +0.000 A 
ATOM     29  C   UNL     1       2.099   4.476   2.312  0.00  0.00    +0.000 A 
ATOM     30  N   UNL     1       2.772   3.308   2.318  0.00  0.00    +0.000 NA
ENDBRANCH  24  25
BRANCH  24  31
ATOM     31  O   UNL     1       4.505   1.245   2.343  0.00  0.00    +0.000 OA
ATOM     32  H   UNL     1       4.466   2.144   1.954  0.00  0.00    +0.000 HD
ENDBRANCH  24  31
ENDBRANCH  23  24
ENDBRANCH   3  18
TORSDOF 5
