REMARK  Name = 
REMARK  5 active torsions:
REMARK  status: ('A' for Active; 'I' for Inactive)
REMARK    1  A    between atoms: C_2  and  C_16
REMARK    2  A    between atoms: N_3  and  C_4
REMARK    3  A    between atoms: C_4  and  C_5
REMARK    4  A    between atoms: C_4  and  C_11
REMARK    5  A    between atoms: N_18  and  C_19
REMARK                            x       y       z     vdW  Elec       q    Type
REMARK                         _______ _______ _______ _____ _____    ______ ____
ROOT
ATOM      1  O   UNL     1       1.188  -0.653  -0.394  0.00  0.00    +0.000 OA
ATOM      2  C   UNL     1       2.368  -0.343  -0.308  0.00  0.00    +0.000 C 
ATOM      3  N   UNL     1       3.020   0.469  -1.212  0.00  0.00    +0.000 N 
ATOM      4  H   UNL     1       3.938   0.833  -0.971  0.00  0.00    +0.000 HD
ENDROOT
BRANCH   2   5
ATOM      5  C   UNL     1       3.213  -0.880   0.850  0.00  0.00    +0.000 A 
ATOM      6  N   UNL     1       2.881  -2.047   1.339  0.00  0.00    +0.000 NA
ATOM      7  N   UNL     1       3.568  -2.526   2.435  0.00  0.00    +0.000 N 
ATOM      8  C   UNL     1       4.575  -1.804   3.044  0.00  0.00    +0.000 A 
ATOM      9  C   UNL     1       5.031  -0.625   2.620  0.00  0.00    +0.000 A 
ATOM     10  C   UNL     1       4.382  -0.103   1.411  0.00  0.00    +0.000 A 
ATOM     11  O   UNL     1       4.790   0.898   0.842  0.00  0.00    +0.000 OA
BRANCH   7  12
ATOM     12  C   UNL     1       3.126  -3.804   2.911  0.00  0.00    +0.000 A 
ATOM     13  C   UNL     1       3.167  -4.155   4.271  0.00  0.00    +0.000 A 
ATOM     14  C   UNL     1       2.724  -5.408   4.695  0.00  0.00    +0.000 A 
ATOM     15  F   UNL     1       2.759  -5.708   6.000  0.00  0.00    +0.000 F 
ATOM     16  C   UNL     1       2.243  -6.348   3.794  0.00  0.00    +0.000 A 
ATOM     17  C   UNL     1       2.198  -6.027   2.442  0.00  0.00    +0.000 A 
ATOM     18  C   UNL     1       2.626  -4.766   2.010  0.00  0.00    +0.000 A 
ENDBRANCH   7  12
ENDBRANCH   2   5
BRANCH   3  19
ATOM     19  C   UNL     1       2.317   1.082  -2.322  0.00  0.00    +0.000 C 
BRANCH  19  20
ATOM     20  C   UNL     1       1.896   2.510  -2.013  0.00  0.00    +0.000 A 
ATOM     21  C   UNL     1       2.802   3.490  -1.566  0.00  0.00    +0.000 A 
ATOM     22  C   UNL     1       2.373   4.792  -1.290  0.00  0.00    +0.000 A 
ATOM     23  C   UNL     1       1.029   5.132  -1.426  0.00  0.00    +0.000 A 
ATOM     24  C   UNL     1       0.112   4.174  -1.846  0.00  0.00    +0.000 A 
ATOM     25  C   UNL     1       0.542   2.875  -2.141  0.00  0.00    +0.000 A 
ENDBRANCH  19  20
BRANCH  19  26
ATOM     26  C   UNL     1       3.215   1.059  -3.531  0.00  0.00    +0.000 A 
ATOM     27  C   UNL     1       3.738  -0.098  -4.092  0.00  0.00    +0.000 A 
ATOM     28  O   UNL     1       4.505   0.173  -5.175  0.00  0.00    +0.000 OA
ATOM     29  C   UNL     1       4.477   1.515  -5.350  0.00  0.00    +0.000 A 
ATOM     30  C   UNL     1       3.695   2.104  -4.383  0.00  0.00    +0.000 A 
ENDBRANCH  19  26
ENDBRANCH   3  19
TORSDOF 5
