REMARK  Name = 
REMARK  6 active torsions:
REMARK  status: ('A' for Active; 'I' for Inactive)
REMARK    1  A    between atoms: C_2  and  C_11
REMARK    2  A    between atoms: N_3  and  C_4
REMARK    3  A    between atoms: C_4  and  C_5
REMARK    4  A    between atoms: C_14  and  C_15
REMARK    5  A    between atoms: C_15  and  N_16
REMARK    6  A    between atoms: C_17  and  C_19
REMARK                            x       y       z     vdW  Elec       q    Type
REMARK                         _______ _______ _______ _____ _____    ______ ____
ROOT
ATOM      1  C   UNL     1       3.162   0.117   1.143  0.00  0.00    +0.000 A 
ATOM      2  C   UNL     1       2.697  -0.586   2.260  0.00  0.00    +0.000 A 
ATOM      3  C   UNL     1       3.408  -0.547   3.464  0.00  0.00    +0.000 A 
ATOM      4  C   UNL     1       4.577   0.222   3.579  0.00  0.00    +0.000 A 
ATOM      5  C   UNL     1       5.034   0.927   2.454  0.00  0.00    +0.000 A 
ATOM      6  C   UNL     1       4.330   0.881   1.244  0.00  0.00    +0.000 A 
ENDROOT
BRANCH   1   8
ATOM      7  O   UNL     1       1.143  -0.051  -0.051  0.00  0.00    +0.000 OA
ATOM      8  C   UNL     1       2.363   0.068  -0.108  0.00  0.00    +0.000 C 
ATOM      9  N   UNL     1       3.068   0.131  -1.287  0.00  0.00    +0.000 N 
ATOM     10  H   UNL     1       4.068  -0.033  -1.294  0.00  0.00    +0.000 HD
BRANCH   9  11
ATOM     11  C   UNL     1       2.395   0.015  -2.562  0.00  0.00    +0.000 C 
BRANCH  11  12
ATOM     12  C   UNL     1       3.108   0.789  -3.645  0.00  0.00    +0.000 A 
ATOM     13  C   UNL     1       2.438   1.803  -4.332  0.00  0.00    +0.000 A 
ATOM     14  C   UNL     1       3.107   2.492  -5.337  0.00  0.00    +0.000 A 
ATOM     15  C   UNL     1       4.421   2.156  -5.635  0.00  0.00    +0.000 A 
ATOM     16  C   UNL     1       5.018   1.141  -4.903  0.00  0.00    +0.000 A 
ATOM     17  N   UNL     1       4.398   0.455  -3.915  0.00  0.00    +0.000 NA
ENDBRANCH  11  12
ENDBRANCH   9  11
ENDBRANCH   1   8
BRANCH   4  18
ATOM     18  C   UNL     1       5.301   0.334   4.899  0.00  0.00    +0.000 C 
BRANCH  18  19
ATOM     19  N   UNL     1       6.341  -0.655   5.053  0.00  0.00    +0.000 N 
ATOM     20  C   UNL     1       7.132  -0.636   6.191  0.00  0.00    +0.000 C 
ATOM     21  O   UNL     1       7.142   0.287   7.003  0.00  0.00    +0.000 OA
ATOM     22  H   UNL     1       6.191  -1.552   4.619  0.00  0.00    +0.000 HD
BRANCH  20  23
ATOM     23  C   UNL     1       7.841  -1.892   6.403  0.00  0.00    +0.000 A 
ATOM     24  C   UNL     1       8.356  -2.676   5.384  0.00  0.00    +0.000 A 
ATOM     25  N   UNL     1       8.555  -3.928   5.886  0.00  0.00    +0.000 N 
ATOM     26  C   UNL     1       8.311  -3.932   7.237  0.00  0.00    +0.000 A 
ATOM     27  C   UNL     1       8.045  -2.617   7.624  0.00  0.00    +0.000 A 
ATOM     28  C   UNL     1       7.903  -2.349   9.005  0.00  0.00    +0.000 A 
ATOM     29  C   UNL     1       7.941  -3.412   9.925  0.00  0.00    +0.000 A 
ATOM     30  C   UNL     1       8.074  -4.728   9.486  0.00  0.00    +0.000 A 
ATOM     31  C   UNL     1       8.276  -4.994   8.136  0.00  0.00    +0.000 A 
ATOM     32  F   UNL     1       8.390  -6.256   7.703  0.00  0.00    +0.000 F 
ATOM     33  H   UNL     1       8.799  -4.749   5.351  0.00  0.00    +0.000 HD
ENDBRANCH  20  23
ENDBRANCH  18  19
ENDBRANCH   4  18
TORSDOF 6
