REMARK  Name = 
REMARK  4 active torsions:
REMARK  status: ('A' for Active; 'I' for Inactive)
REMARK    1  A    between atoms: C_2  and  C_15
REMARK    2  A    between atoms: N_3  and  C_4
REMARK    3  A    between atoms: C_4  and  C_5
REMARK    4  A    between atoms: N_17  and  C_18
REMARK                            x       y       z     vdW  Elec       q    Type
REMARK                         _______ _______ _______ _____ _____    ______ ____
ROOT
ATOM      1  O   UNL     1       0.936   0.207   0.428  0.00  0.00    +0.000 OA
ATOM      2  C   UNL     1       2.105   0.051   0.085  0.00  0.00    +0.000 C 
ATOM      3  N   UNL     1       2.819  -1.082   0.390  0.00  0.00    +0.000 N 
ATOM      4  H   UNL     1       3.817  -1.112   0.249  0.00  0.00    +0.000 HD
ENDROOT
BRANCH   2   5
ATOM      5  C   UNL     1       2.839   1.105  -0.687  0.00  0.00    +0.000 A 
ATOM      6  C   UNL     1       2.325   2.345  -0.633  0.00  0.00    +0.000 A 
ATOM      7  N   UNL     1       2.853   3.417  -1.351  0.00  0.00    +0.000 N 
ATOM      8  C   UNL     1       3.970   3.244  -2.188  0.00  0.00    +0.000 A 
ATOM      9  O   UNL     1       4.504   4.101  -2.886  0.00  0.00    +0.000 OA
ATOM     10  C   UNL     1       4.508   1.852  -2.268  0.00  0.00    +0.000 A 
ATOM     11  C   UNL     1       3.964   0.854  -1.558  0.00  0.00    +0.000 A 
BRANCH   7  12
ATOM     12  C   UNL     1       2.213   4.701  -1.295  0.00  0.00    +0.000 A 
ATOM     13  C   UNL     1       2.962   5.878  -1.162  0.00  0.00    +0.000 A 
ATOM     14  C   UNL     1       2.323   7.119  -1.052  0.00  0.00    +0.000 A 
ATOM     15  C   UNL     1       0.932   7.202  -1.105  0.00  0.00    +0.000 A 
ATOM     16  C   UNL     1       0.175   6.045  -1.262  0.00  0.00    +0.000 A 
ATOM     17  C   UNL     1       0.814   4.811  -1.342  0.00  0.00    +0.000 A 
ATOM     18  F   UNL     1       0.049   3.724  -1.532  0.00  0.00    +0.000 F 
ENDBRANCH   7  12
ENDBRANCH   2   5
BRANCH   3  19
ATOM     19  C   UNL     1       2.196  -2.183   1.089  0.00  0.00    +0.000 C 
BRANCH  19  20
ATOM     20  C   UNL     1       2.361  -2.002   2.554  0.00  0.00    +0.000 A 
ATOM     21  C   UNL     1       1.495  -1.334   3.401  0.00  0.00    +0.000 A 
ATOM     22  O   UNL     1       1.929  -1.384   4.683  0.00  0.00    +0.000 OA
ATOM     23  C   UNL     1       3.091  -2.089   4.685  0.00  0.00    +0.000 A 
ATOM     24  C   UNL     1       3.859  -2.373   5.813  0.00  0.00    +0.000 A 
ATOM     25  C   UNL     1       5.023  -3.117   5.600  0.00  0.00    +0.000 A 
ATOM     26  C   UNL     1       5.370  -3.540   4.319  0.00  0.00    +0.000 A 
ATOM     27  F   UNL     1       6.493  -4.250   4.150  0.00  0.00    +0.000 F 
ATOM     28  C   UNL     1       4.583  -3.247   3.201  0.00  0.00    +0.000 A 
ATOM     29  C   UNL     1       3.408  -2.497   3.391  0.00  0.00    +0.000 A 
ENDBRANCH  19  20
ENDBRANCH   3  19
TORSDOF 4
