REMARK  Name = 
REMARK  6 active torsions:
REMARK  status: ('A' for Active; 'I' for Inactive)
REMARK    1  A    between atoms: C_1  and  C_2
REMARK    2  A    between atoms: C_5  and  N_6
REMARK    3  A    between atoms: C_7  and  C_9
REMARK    4  A    between atoms: N_11  and  C_12
REMARK    5  A    between atoms: N_14  and  C_15
REMARK    6  A    between atoms: C_22  and  C_23
REMARK                            x       y       z     vdW  Elec       q    Type
REMARK                         _______ _______ _______ _____ _____    ______ ____
ROOT
ATOM      1  N   UNL     1      -3.264   0.155   0.134  0.00  0.00    +0.000 N 
ATOM      2  C   UNL     1      -3.978   1.330   0.310  0.00  0.00    +0.000 C 
ATOM      3  O   UNL     1      -3.481   2.446   0.430  0.00  0.00    +0.000 OA
ATOM      4  H   UNL     1      -3.745  -0.622  -0.297  0.00  0.00    +0.000 HD
ENDROOT
BRANCH   1   9
ATOM      5  C   UNL     1       2.453  -0.169  -0.005  0.00  0.00    +0.000 C 
ATOM      6  C   UNL     1       0.958  -0.030   0.007  0.00  0.00    +0.000 A 
ATOM      7  C   UNL     1       0.305   0.671   1.016  0.00  0.00    +0.000 A 
ATOM      8  C   UNL     1      -1.087   0.767   1.010  0.00  0.00    +0.000 A 
ATOM      9  C   UNL     1      -1.850   0.130   0.017  0.00  0.00    +0.000 A 
ATOM     10  C   UNL     1      -1.219  -0.591  -1.032  0.00  0.00    +0.000 A 
ATOM     11  C   UNL     1       0.196  -0.623  -1.013  0.00  0.00    +0.000 A 
BRANCH  10  12
ATOM     12  C   UNL     1      -1.956  -1.256  -2.153  0.00  0.00    +0.000 A 
ATOM     13  C   UNL     1      -3.147  -0.719  -2.688  0.00  0.00    +0.000 A 
ATOM     14  C   UNL     1      -3.892  -1.386  -3.668  0.00  0.00    +0.000 A 
ATOM     15  C   UNL     1      -3.420  -2.573  -4.213  0.00  0.00    +0.000 A 
ATOM     16  C   UNL     1      -2.207  -3.089  -3.772  0.00  0.00    +0.000 A 
ATOM     17  C   UNL     1      -1.503  -2.449  -2.749  0.00  0.00    +0.000 A 
ATOM     18  F   UNL     1      -0.362  -3.029  -2.346  0.00  0.00    +0.000 F 
ENDBRANCH  10  12
ENDBRANCH   1   9
BRANCH   2  19
ATOM     19  C   UNL     1      -5.476   1.193   0.180  0.00  0.00    +0.000 A 
ATOM     20  C   UNL     1      -6.123   0.060   0.509  0.00  0.00    +0.000 A 
ATOM     21  N   UNL     1      -7.506  -0.069   0.383  0.00  0.00    +0.000 N 
ATOM     22  C   UNL     1      -8.318   0.991  -0.054  0.00  0.00    +0.000 A 
ATOM     23  O   UNL     1      -9.537   1.009  -0.201  0.00  0.00    +0.000 OA
ATOM     24  C   UNL     1      -7.586   2.257  -0.377  0.00  0.00    +0.000 A 
ATOM     25  C   UNL     1      -6.255   2.329  -0.268  0.00  0.00    +0.000 A 
BRANCH  21  26
ATOM     26  C   UNL     1      -8.055  -1.332   0.689  0.00  0.00    +0.000 A 
ATOM     27  C   UNL     1      -9.377  -1.718   0.573  0.00  0.00    +0.000 A 
ATOM     28  N   UNL     1      -9.451  -3.032   0.930  0.00  0.00    +0.000 N 
ATOM     29  C   UNL     1     -10.623  -3.873   0.909  0.00  0.00    +0.000 C 
ATOM     30  N   UNL     1      -8.272  -3.547   1.308  0.00  0.00    +0.000 NA
ATOM     31  C   UNL     1      -7.430  -2.520   1.167  0.00  0.00    +0.000 A 
ENDBRANCH  21  26
ENDBRANCH   2  19
TORSDOF 4
