REMARK  Name = 
REMARK  5 active torsions:
REMARK  status: ('A' for Active; 'I' for Inactive)
REMARK    1  A    between atoms: C_1  and  C_2
REMARK    2  A    between atoms: C_6  and  C_7
REMARK    3  A    between atoms: C_11  and  N_12
REMARK    4  A    between atoms: C_13  and  C_15
REMARK    5  A    between atoms: N_17  and  C_18
REMARK                            x       y       z     vdW  Elec       q    Type
REMARK                         _______ _______ _______ _____ _____    ______ ____
ROOT
ATOM      1  N   UNL     1       1.435   5.962   1.394  0.00  0.00    +0.000 N 
ATOM      2  C   UNL     1       1.636   7.309   1.140  0.00  0.00    +0.000 C 
ATOM      3  O   UNL     1       2.199   7.789   0.161  0.00  0.00    +0.000 OA
ATOM      4  H   UNL     1       0.855   5.742   2.196  0.00  0.00    +0.000 HD
ENDROOT
BRANCH   1   9
ATOM      5  C   UNL     1       1.576   2.512  -0.031  0.00  0.00    +0.000 A 
ATOM      6  C   UNL     1       2.461   2.732  -1.104  0.00  0.00    +0.000 A 
ATOM      7  C   UNL     1       3.042   3.978  -1.326  0.00  0.00    +0.000 A 
ATOM      8  C   UNL     1       2.730   5.046  -0.493  0.00  0.00    +0.000 A 
ATOM      9  C   UNL     1       1.828   4.888   0.560  0.00  0.00    +0.000 A 
ATOM     10  C   UNL     1       1.281   3.617   0.801  0.00  0.00    +0.000 A 
BRANCH   5  16
ATOM     11  C   UNL     1       1.440  -2.144  -1.307  0.00  0.00    +0.000 C 
ATOM     12  C   UNL     1       0.931  -1.062  -0.405  0.00  0.00    +0.000 A 
ATOM     13  C   UNL     1       0.036  -1.329   0.607  0.00  0.00    +0.000 A 
ATOM     14  C   UNL     1      -0.337  -0.253   1.382  0.00  0.00    +0.000 A 
ATOM     15  N   UNL     1       0.126   1.001   1.203  0.00  0.00    +0.000 NA
ATOM     16  C   UNL     1       1.001   1.169   0.194  0.00  0.00    +0.000 A 
ATOM     17  N   UNL     1       1.413   0.177  -0.623  0.00  0.00    +0.000 NA
ENDBRANCH   5  16
ENDBRANCH   1   9
BRANCH   2  18
ATOM     18  C   UNL     1       1.050   8.180   2.147  0.00  0.00    +0.000 A 
ATOM     19  C   UNL     1       0.978   9.558   2.105  0.00  0.00    +0.000 A 
ATOM     20  N   UNL     1       0.241   9.919   3.208  0.00  0.00    +0.000 N 
ATOM     21  N   UNL     1      -0.019   8.802   3.936  0.00  0.00    +0.000 NA
ATOM     22  N   UNL     1       0.440   7.741   3.288  0.00  0.00    +0.000 NA
BRANCH  20  23
ATOM     23  C   UNL     1      -0.268  11.189   3.571  0.00  0.00    +0.000 A 
ATOM     24  C   UNL     1      -0.080  12.316   2.764  0.00  0.00    +0.000 A 
ATOM     25  F   UNL     1       0.645  12.272   1.639  0.00  0.00    +0.000 F 
ATOM     26  C   UNL     1      -0.661  13.546   3.091  0.00  0.00    +0.000 A 
ATOM     27  C   UNL     1      -1.435  13.672   4.239  0.00  0.00    +0.000 A 
ATOM     28  C   UNL     1      -1.609  12.567   5.067  0.00  0.00    +0.000 A 
ATOM     29  C   UNL     1      -1.027  11.341   4.736  0.00  0.00    +0.000 A 
ATOM     30  F   UNL     1      -1.237  10.326   5.585  0.00  0.00    +0.000 F 
ENDBRANCH  20  23
ENDBRANCH   2  18
TORSDOF 4
