REMARK  Name = 
REMARK  3 active torsions:
REMARK  status: ('A' for Active; 'I' for Inactive)
REMARK    1  A    between atoms: C_2  and  C_15
REMARK    2  A    between atoms: N_3  and  C_4
REMARK    3  A    between atoms: C_17  and  C_18
REMARK                            x       y       z     vdW  Elec       q    Type
REMARK                         _______ _______ _______ _____ _____    ______ ____
ROOT
ATOM      1  O   UNL     1       1.018  -0.269  -0.127  0.00  0.00    +0.000 OA
ATOM      2  C   UNL     1       2.233  -0.094  -0.130  0.00  0.00    +0.000 C 
ATOM      3  N   UNL     1       2.883   0.821   0.687  0.00  0.00    +0.000 N 
ATOM      4  H   UNL     1       3.858   1.018   0.481  0.00  0.00    +0.000 HD
ENDROOT
BRANCH   3   5
ATOM      5  C   UNL     1       2.237   1.596   1.684  0.00  0.00    +0.000 A 
ATOM      6  C   UNL     1       0.952   1.290   2.160  0.00  0.00    +0.000 A 
ATOM      7  C   UNL     1       0.320   2.079   3.121  0.00  0.00    +0.000 A 
ATOM      8  C   UNL     1       0.976   3.184   3.637  0.00  0.00    +0.000 A 
ATOM      9  O   UNL     1       0.303   3.913   4.584  0.00  0.00    +0.000 OA
ATOM     10  C   UNL     1       0.945   5.000   5.119  0.00  0.00    +0.000 A 
ATOM     11  C   UNL     1       2.165   5.428   4.785  0.00  0.00    +0.000 A 
ATOM     12  C   UNL     1       2.919   4.686   3.757  0.00  0.00    +0.000 A 
ATOM     13  O   UNL     1       4.033   5.048   3.402  0.00  0.00    +0.000 OA
ATOM     14  C   UNL     1       2.260   3.496   3.189  0.00  0.00    +0.000 A 
ATOM     15  C   UNL     1       2.901   2.703   2.221  0.00  0.00    +0.000 A 
ENDBRANCH   3   5
BRANCH   2  16
ATOM     16  C   UNL     1       3.034  -0.836  -1.070  0.00  0.00    +0.000 A 
ATOM     17  C   UNL     1       2.591  -1.670  -2.063  0.00  0.00    +0.000 A 
ATOM     18  C   UNL     1       3.749  -2.144  -2.711  0.00  0.00    +0.000 A 
ATOM     19  N   UNL     1       4.847  -1.651  -2.110  0.00  0.00    +0.000 NA
ATOM     20  O   UNL     1       4.392  -0.821  -1.083  0.00  0.00    +0.000 OA
BRANCH  18  21
ATOM     21  C   UNL     1       3.763  -3.027  -3.870  0.00  0.00    +0.000 A 
ATOM     22  C   UNL     1       2.753  -2.917  -4.840  0.00  0.00    +0.000 A 
ATOM     23  F   UNL     1       1.812  -1.965  -4.743  0.00  0.00    +0.000 F 
ATOM     24  C   UNL     1       2.676  -3.784  -5.925  0.00  0.00    +0.000 A 
ATOM     25  C   UNL     1       3.628  -4.781  -6.051  0.00  0.00    +0.000 A 
ATOM     26  F   UNL     1       3.556  -5.630  -7.083  0.00  0.00    +0.000 F 
ATOM     27  C   UNL     1       4.648  -4.917  -5.118  0.00  0.00    +0.000 A 
ATOM     28  C   UNL     1       4.710  -4.040  -4.034  0.00  0.00    +0.000 A 
ATOM     29  F   UNL     1       5.680  -4.231  -3.128  0.00  0.00    +0.000 F 
ENDBRANCH  18  21
ENDBRANCH   2  16
TORSDOF 3
