REMARK  Name = 
REMARK  6 active torsions:
REMARK  status: ('A' for Active; 'I' for Inactive)
REMARK    1  A    between atoms: C_1  and  C_2
REMARK    2  A    between atoms: C_5  and  C_6
REMARK    3  A    between atoms: N_8  and  C_9
REMARK    4  A    between atoms: C_16  and  N_17
REMARK    5  A    between atoms: C_18  and  C_20
REMARK    6  A    between atoms: C_23  and  O_24
REMARK                            x       y       z     vdW  Elec       q    Type
REMARK                         _______ _______ _______ _____ _____    ______ ____
ROOT
ATOM      1  C   UNL     1       2.487   0.283   0.031  0.00  0.00    +0.000 C 
ATOM      2  C   UNL     1       0.990   0.120   0.033  0.00  0.00    +0.000 A 
ATOM      3  C   UNL     1       0.215   1.298   0.020  0.00  0.00    +0.000 A 
ATOM      4  C   UNL     1      -1.179   1.244   0.021  0.00  0.00    +0.000 A 
ATOM      5  C   UNL     1      -1.816   0.006   0.024  0.00  0.00    +0.000 A 
ATOM      6  C   UNL     1      -1.058  -1.165  -0.017  0.00  0.00    +0.000 A 
ATOM      7  C   UNL     1       0.342  -1.136   0.007  0.00  0.00    +0.000 A 
ENDROOT
BRANCH   5   8
ATOM      8  C   UNL     1      -3.304  -0.051   0.047  0.00  0.00    +0.000 C 
ATOM      9  O   UNL     1      -3.917   0.867  -0.499  0.00  0.00    +0.000 OA
ATOM     10  N   UNL     1      -3.845  -1.115   0.744  0.00  0.00    +0.000 N 
ATOM     11  H   UNL     1      -3.215  -1.688   1.290  0.00  0.00    +0.000 HD
BRANCH  10  12
ATOM     12  C   UNL     1      -5.218  -1.409   0.894  0.00  0.00    +0.000 A 
ATOM     13  C   UNL     1      -6.220  -0.814   0.125  0.00  0.00    +0.000 A 
ATOM     14  C   UNL     1      -7.563  -1.126   0.347  0.00  0.00    +0.000 A 
ATOM     15  C   UNL     1      -7.916  -2.036   1.340  0.00  0.00    +0.000 A 
ATOM     16  C   UNL     1      -6.923  -2.656   2.094  0.00  0.00    +0.000 A 
ATOM     17  C   UNL     1      -5.578  -2.355   1.863  0.00  0.00    +0.000 A 
ENDBRANCH  10  12
ENDBRANCH   5   8
BRANCH   7  18
ATOM     18  N   UNL     1       1.096  -2.344   0.055  0.00  0.00    +0.000 N 
ATOM     19  C   UNL     1       0.580  -3.636   0.048  0.00  0.00    +0.000 C 
ATOM     20  O   UNL     1      -0.582  -3.966  -0.152  0.00  0.00    +0.000 OA
ATOM     21  H   UNL     1       2.094  -2.227   0.190  0.00  0.00    +0.000 HD
BRANCH  19  22
ATOM     22  C   UNL     1       1.535  -4.722   0.355  0.00  0.00    +0.000 A 
ATOM     23  C   UNL     1       2.761  -4.753  -0.297  0.00  0.00    +0.000 A 
ATOM     24  N   UNL     1       3.730  -5.657  -0.034  0.00  0.00    +0.000 NA
ATOM     25  C   UNL     1       3.438  -6.571   0.909  0.00  0.00    +0.000 A 
ATOM     26  C   UNL     1       2.235  -6.676   1.613  0.00  0.00    +0.000 A 
ATOM     27  C   UNL     1       2.003  -7.651   2.600  0.00  0.00    +0.000 A 
ATOM     28  C   UNL     1       0.783  -7.672   3.248  0.00  0.00    +0.000 A 
ATOM     29  N   UNL     1      -0.215  -6.816   2.969  0.00  0.00    +0.000 NA
ATOM     30  C   UNL     1       0.024  -5.883   2.013  0.00  0.00    +0.000 A 
ATOM     31  C   UNL     1       1.235  -5.734   1.308  0.00  0.00    +0.000 A 
BRANCH  25  32
ATOM     32  O   UNL     1       4.470  -7.420   1.151  0.00  0.00    +0.000 OA
ATOM     33  H   UNL     1       5.130  -7.071   0.527  0.00  0.00    +0.000 HD
ENDBRANCH  25  32
ENDBRANCH  19  22
ENDBRANCH   7  18
TORSDOF 5
