REMARK  Name = 
REMARK  3 active torsions:
REMARK  status: ('A' for Active; 'I' for Inactive)
REMARK    1  A    between atoms: C_2  and  C_17
REMARK    2  A    between atoms: N_3  and  C_4
REMARK    3  A    between atoms: N_8  and  C_9
REMARK                            x       y       z     vdW  Elec       q    Type
REMARK                         _______ _______ _______ _____ _____    ______ ____
ROOT
ATOM      1  O   UNL     1       5.149  -1.912   1.162  0.00  0.00    +0.000 OA
ATOM      2  C   UNL     1       4.464  -1.028   0.649  0.00  0.00    +0.000 C 
ATOM      3  N   UNL     1       3.185  -1.225   0.162  0.00  0.00    +0.000 N 
ATOM      4  H   UNL     1       2.807  -0.591  -0.540  0.00  0.00    +0.000 HD
ENDROOT
BRANCH   2   5
ATOM      5  C   UNL     1       5.051   0.342   0.585  0.00  0.00    +0.000 A 
ATOM      6  C   UNL     1       6.390   0.488   0.983  0.00  0.00    +0.000 A 
ATOM      7  C   UNL     1       6.946   1.756   1.215  0.00  0.00    +0.000 A 
ATOM      8  C   UNL     1       8.249   1.893   1.712  0.00  0.00    +0.000 A 
ATOM      9  C   UNL     1       8.729   3.149   2.056  0.00  0.00    +0.000 A 
ATOM     10  C   UNL     1       7.897   4.232   1.859  0.00  0.00    +0.000 A 
ATOM     11  N   UNL     1       6.659   4.142   1.323  0.00  0.00    +0.000 NA
ATOM     12  C   UNL     1       6.177   2.918   1.010  0.00  0.00    +0.000 A 
ATOM     13  C   UNL     1       4.884   2.742   0.507  0.00  0.00    +0.000 A 
ATOM     14  F   UNL     1       4.120   3.819   0.256  0.00  0.00    +0.000 F 
ATOM     15  C   UNL     1       4.309   1.484   0.300  0.00  0.00    +0.000 A 
ENDBRANCH   2   5
BRANCH   3  16
ATOM     16  C   UNL     1       2.418  -2.365   0.358  0.00  0.00    +0.000 A 
ATOM     17  C   UNL     1       2.627  -3.270   1.326  0.00  0.00    +0.000 A 
ATOM     18  C   UNL     1       1.833  -4.463   1.430  0.00  0.00    +0.000 A 
ATOM     19  C   UNL     1       0.912  -4.731   0.503  0.00  0.00    +0.000 A 
ATOM     20  N   UNL     1       0.624  -3.844  -0.527  0.00  0.00    +0.000 N 
ATOM     21  C   UNL     1       1.273  -2.593  -0.614  0.00  0.00    +0.000 A 
ATOM     22  O   UNL     1       1.049  -1.708  -1.444  0.00  0.00    +0.000 OA
BRANCH  20  23
ATOM     23  C   UNL     1      -0.280  -4.231  -1.564  0.00  0.00    +0.000 A 
ATOM     24  C   UNL     1      -0.117  -5.477  -2.191  0.00  0.00    +0.000 A 
ATOM     25  C   UNL     1      -0.943  -5.851  -3.252  0.00  0.00    +0.000 A 
ATOM     26  C   UNL     1      -1.967  -5.003  -3.665  0.00  0.00    +0.000 A 
ATOM     27  C   UNL     1      -2.163  -3.781  -3.022  0.00  0.00    +0.000 A 
ATOM     28  C   UNL     1      -1.313  -3.388  -1.985  0.00  0.00    +0.000 A 
ENDBRANCH  20  23
ENDBRANCH   3  16
TORSDOF 3
