REMARK  Name = 
REMARK  5 active torsions:
REMARK  status: ('A' for Active; 'I' for Inactive)
REMARK    1  A    between atoms: C_2  and  C_3
REMARK    2  A    between atoms: N_5  and  C_6
REMARK    3  A    between atoms: N_17  and  C_18
REMARK    4  A    between atoms: N_17  and  C_24
REMARK    5  A    between atoms: C_18  and  C_19
REMARK                            x       y       z     vdW  Elec       q    Type
REMARK                         _______ _______ _______ _____ _____    ______ ____
ROOT
ATOM      1  O   UNL     1       1.104   0.301  -0.097  0.00  0.00    +0.000 OA
ATOM      2  C   UNL     1       2.322   0.083  -0.108  0.00  0.00    +0.000 C 
ATOM      3  N   UNL     1       3.026  -0.066   1.089  0.00  0.00    +0.000 N 
ENDROOT
BRANCH   2   4
ATOM      4  C   UNL     1       3.008  -0.068  -1.460  0.00  0.00    +0.000 A 
ATOM      5  C   UNL     1       2.422   0.536  -2.510  0.00  0.00    +0.000 A 
ATOM      6  N   UNL     1       2.921   0.460  -3.818  0.00  0.00    +0.000 N 
ATOM      7  C   UNL     1       4.152  -0.184  -4.064  0.00  0.00    +0.000 A 
ATOM      8  O   UNL     1       4.793  -0.190  -5.113  0.00  0.00    +0.000 OA
ATOM      9  C   UNL     1       4.738  -0.930  -2.924  0.00  0.00    +0.000 A 
ATOM     10  C   UNL     1       4.154  -0.906  -1.722  0.00  0.00    +0.000 A 
BRANCH   6  11
ATOM     11  C   UNL     1       2.198   1.027  -4.935  0.00  0.00    +0.000 A 
ATOM     12  C   UNL     1       2.281   0.454  -6.215  0.00  0.00    +0.000 A 
ATOM     13  C   UNL     1       1.564   0.986  -7.282  0.00  0.00    +0.000 A 
ATOM     14  F   UNL     1       1.653   0.410  -8.488  0.00  0.00    +0.000 F 
ATOM     15  C   UNL     1       0.748   2.094  -7.116  0.00  0.00    +0.000 A 
ATOM     16  C   UNL     1       0.641   2.675  -5.857  0.00  0.00    +0.000 A 
ATOM     17  C   UNL     1       1.355   2.142  -4.775  0.00  0.00    +0.000 A 
ENDBRANCH   6  11
ENDBRANCH   2   4
BRANCH   3  18
ATOM     18  C   UNL     1       4.433  -0.180   1.189  0.00  0.00    +0.000 A 
ATOM     19  C   UNL     1       5.266   0.824   0.685  0.00  0.00    +0.000 A 
ATOM     20  C   UNL     1       6.639   0.598   0.586  0.00  0.00    +0.000 A 
ATOM     21  C   UNL     1       7.178  -0.624   0.991  0.00  0.00    +0.000 A 
ATOM     22  C   UNL     1       6.355  -1.604   1.546  0.00  0.00    +0.000 A 
ATOM     23  C   UNL     1       4.984  -1.375   1.671  0.00  0.00    +0.000 A 
ENDBRANCH   3  18
BRANCH   3  24
ATOM     24  C   UNL     1       2.308   0.110   2.359  0.00  0.00    +0.000 C 
BRANCH  24  25
ATOM     25  C   UNL     1       1.729  -1.171   2.837  0.00  0.00    +0.000 A 
ATOM     26  C   UNL     1       1.908  -1.882   4.004  0.00  0.00    +0.000 A 
ATOM     27  N   UNL     1       1.134  -3.013   4.012  0.00  0.00    +0.000 NA
ATOM     28  C   UNL     1       0.467  -2.985   2.881  0.00  0.00    +0.000 A 
ATOM     29  N   UNL     1       0.781  -1.881   2.142  0.00  0.00    +0.000 N 
ATOM     30  H   UNL     1       0.389  -1.624   1.242  0.00  0.00    +0.000 HD
ENDBRANCH  24  25
ENDBRANCH   3  24
TORSDOF 5
