REMARK  Name = 
REMARK  5 active torsions:
REMARK  status: ('A' for Active; 'I' for Inactive)
REMARK    1  A    between atoms: C_2  and  C_4
REMARK    2  A    between atoms: C_8  and  C_9
REMARK    3  A    between atoms: C_9  and  O_10
REMARK    4  A    between atoms: O_10  and  C_11
REMARK    5  A    between atoms: C_14  and  C_15
REMARK                            x       y       z     vdW  Elec       q    Type
REMARK                         _______ _______ _______ _____ _____    ______ ____
ROOT
ATOM      1  C   UNL     1       8.301   1.931  -4.200  0.00  0.00    +0.000 A 
ATOM      2  C   UNL     1       8.619   0.760  -4.868  0.00  0.00    +0.000 A 
ATOM      3  C   UNL     1       9.829   0.657  -5.540  0.00  0.00    +0.000 A 
ATOM      4  C   UNL     1      10.730   1.742  -5.638  0.00  0.00    +0.000 A 
ATOM      5  C   UNL     1      10.411   2.908  -4.931  0.00  0.00    +0.000 A 
ATOM      6  C   UNL     1       9.200   3.001  -4.221  0.00  0.00    +0.000 A 
ENDROOT
BRANCH   4   7
ATOM      7  C   UNL     1      11.889   1.607  -6.548  0.00  0.00    +0.000 A 
ATOM      8  C   UNL     1      11.680   0.866  -7.738  0.00  0.00    +0.000 A 
ATOM      9  C   UNL     1      12.721   0.512  -8.581  0.00  0.00    +0.000 A 
ATOM     10  C   UNL     1      13.984   0.996  -8.313  0.00  0.00    +0.000 A 
ATOM     11  O   UNL     1      14.976   0.612  -9.214  0.00  0.00    +0.000 OA
ATOM     12  C   UNL     1      16.139   1.361  -9.276  0.00  0.00    +0.000 A 
ATOM     13  O   UNL     1      16.934   1.213 -10.194  0.00  0.00    +0.000 OA
ATOM     14  N   UNL     1      16.343   2.255  -8.261  0.00  0.00    +0.000 N 
ATOM     15  C   UNL     1      15.527   2.498  -7.188  0.00  0.00    +0.000 A 
ATOM     16  O   UNL     1      15.849   3.246  -6.277  0.00  0.00    +0.000 OA
ATOM     17  C   UNL     1      14.208   1.852  -7.242  0.00  0.00    +0.000 A 
ATOM     18  C   UNL     1      13.173   2.135  -6.327  0.00  0.00    +0.000 A 
ATOM     19  H   UNL     1      17.211   2.774  -8.317  0.00  0.00    +0.000 HD
ENDBRANCH   4   7
BRANCH   1  20
ATOM     20  O   UNL     1       7.082   1.913  -3.587  0.00  0.00    +0.000 OA
BRANCH  20  21
ATOM     21  C   UNL     1       6.935   2.799  -2.481  0.00  0.00    +0.000 C 
BRANCH  21  26
ATOM     22  C   UNL     1       4.713   2.192   0.554  0.00  0.00    +0.000 A 
ATOM     23  C   UNL     1       3.569   1.641  -0.030  0.00  0.00    +0.000 A 
ATOM     24  C   UNL     1       3.519   1.451  -1.412  0.00  0.00    +0.000 A 
ATOM     25  C   UNL     1       4.602   1.812  -2.212  0.00  0.00    +0.000 A 
ATOM     26  C   UNL     1       5.758   2.367  -1.641  0.00  0.00    +0.000 A 
ATOM     27  C   UNL     1       5.796   2.564  -0.248  0.00  0.00    +0.000 A 
BRANCH  22  29
ATOM     28  N   UNL     1       4.052   1.637   2.829  0.00  0.00    +0.000 N 
ATOM     29  C   UNL     1       4.814   2.428   2.016  0.00  0.00    +0.000 C 
ATOM     30  O   UNL     1       5.572   3.269   2.485  0.00  0.00    +0.000 OA
ATOM     31  H   UNL     1       4.218   1.732   3.821  0.00  0.00    +0.000 HD
ATOM     32  H   UNL     1       3.633   0.776   2.504  0.00  0.00    +0.000 HD
ENDBRANCH  22  29
ENDBRANCH  21  26
ENDBRANCH  20  21
ENDBRANCH   1  20
TORSDOF 5
