REMARK  Name = 
REMARK  5 active torsions:
REMARK  status: ('A' for Active; 'I' for Inactive)
REMARK    1  A    between atoms: C_2  and  C_3
REMARK    2  A    between atoms: C_4  and  C_5
REMARK    3  A    between atoms: N_7  and  C_8
REMARK    4  A    between atoms: C_11  and  N_12
REMARK    5  A    between atoms: C_23  and  C_24
REMARK                            x       y       z     vdW  Elec       q    Type
REMARK                         _______ _______ _______ _____ _____    ______ ____
ROOT
ATOM      1  C   UNL     1      -0.013   2.534  -0.060  0.00  0.00    +0.000 C 
ATOM      2  O   UNL     1       0.877   3.332  -0.330  0.00  0.00    +0.000 OA
ATOM      3  N   UNL     1      -1.339   2.881   0.145  0.00  0.00    +0.000 N 
ATOM      4  H   UNL     1      -1.982   2.188   0.504  0.00  0.00    +0.000 HD
ENDROOT
BRANCH   1   6
ATOM      5  C   UNL     1      -0.376  -0.032   0.320  0.00  0.00    +0.000 A 
ATOM      6  C   UNL     1       0.321   1.139   0.090  0.00  0.00    +0.000 A 
ATOM      7  N   UNL     1       1.627   0.737  -0.014  0.00  0.00    +0.000 N 
ATOM      8  N   UNL     1       1.814  -0.581   0.127  0.00  0.00    +0.000 NA
ATOM      9  C   UNL     1       0.580  -1.083   0.296  0.00  0.00    +0.000 A 
ATOM     10  H   UNL     1       2.432   1.334  -0.186  0.00  0.00    +0.000 HD
BRANCH   9  11
ATOM     11  C   UNL     1       0.374  -2.528   0.415  0.00  0.00    +0.000 A 
ATOM     12  C   UNL     1       1.338  -3.326   1.047  0.00  0.00    +0.000 A 
ATOM     13  C   UNL     1       1.177  -4.711   1.122  0.00  0.00    +0.000 A 
ATOM     14  C   UNL     1       0.049  -5.312   0.568  0.00  0.00    +0.000 A 
ATOM     15  C   UNL     1      -0.921  -4.530  -0.055  0.00  0.00    +0.000 A 
ATOM     16  C   UNL     1      -0.758  -3.146  -0.136  0.00  0.00    +0.000 A 
ENDBRANCH   9  11
BRANCH   5  18
ATOM     17  N   UNL     1      -2.925  -0.100   0.691  0.00  0.00    +0.000 NA
ATOM     18  C   UNL     1      -1.778  -0.140   0.529  0.00  0.00    +0.000 C 
ENDBRANCH   5  18
ENDBRANCH   1   6
BRANCH   3  19
ATOM     19  C   UNL     1      -1.882   4.181   0.028  0.00  0.00    +0.000 A 
ATOM     20  C   UNL     1      -1.227   5.242  -0.575  0.00  0.00    +0.000 A 
ATOM     21  C   UNL     1      -1.830   6.499  -0.609  0.00  0.00    +0.000 A 
ATOM     22  C   UNL     1      -3.092   6.697  -0.042  0.00  0.00    +0.000 A 
ATOM     23  N   UNL     1      -3.742   5.662   0.547  0.00  0.00    +0.000 NA
ATOM     24  C   UNL     1      -3.146   4.443   0.548  0.00  0.00    +0.000 A 
BRANCH  22  25
ATOM     25  N   UNL     1      -3.687   8.001  -0.056  0.00  0.00    +0.000 N 
ATOM     26  C   UNL     1      -4.532   8.394   0.979  0.00  0.00    +0.000 A 
ATOM     27  C   UNL     1      -5.098   9.605   1.077  0.00  0.00    +0.000 A 
ATOM     28  C   UNL     1      -4.827  10.589   0.002  0.00  0.00    +0.000 A 
ATOM     29  O   UNL     1      -5.297  11.719   0.037  0.00  0.00    +0.000 OA
ATOM     30  C   UNL     1      -3.970  10.151  -1.125  0.00  0.00    +0.000 A 
ATOM     31  C   UNL     1      -3.466   8.912  -1.086  0.00  0.00    +0.000 A 
ENDBRANCH  22  25
ENDBRANCH   3  19
TORSDOF 5
