REMARK  Name = 
REMARK  4 active torsions:
REMARK  status: ('A' for Active; 'I' for Inactive)
REMARK    1  A    between atoms: C_2  and  C_17
REMARK    2  A    between atoms: N_3  and  C_4
REMARK    3  A    between atoms: N_8  and  C_9
REMARK    4  A    between atoms: C_18  and  C_19
REMARK                            x       y       z     vdW  Elec       q    Type
REMARK                         _______ _______ _______ _____ _____    ______ ____
ROOT
ATOM      1  O   UNL     1       3.907  -2.733   0.580  0.00  0.00    +0.000 OA
ATOM      2  C   UNL     1       3.766  -1.570   0.216  0.00  0.00    +0.000 C 
ATOM      3  N   UNL     1       2.991  -1.225  -0.875  0.00  0.00    +0.000 N 
ATOM      4  H   UNL     1       2.809  -0.249  -1.074  0.00  0.00    +0.000 HD
ENDROOT
BRANCH   2   5
ATOM      5  C   UNL     1       4.385  -0.491   0.948  0.00  0.00    +0.000 A 
ATOM      6  C   UNL     1       5.633  -0.530   1.588  0.00  0.00    +0.000 A 
ATOM      7  N   UNL     1       5.823   0.623   2.332  0.00  0.00    +0.000 NA
ATOM      8  C   UNL     1       4.671   1.241   2.321  0.00  0.00    +0.000 A 
ATOM      9  C   UNL     1       4.190   2.274   3.168  0.00  0.00    +0.000 A 
ATOM     10  C   UNL     1       2.932   2.724   3.021  0.00  0.00    +0.000 A 
ATOM     11  C   UNL     1       2.080   2.232   1.953  0.00  0.00    +0.000 A 
ATOM     12  C   UNL     1       2.509   1.213   1.188  0.00  0.00    +0.000 A 
ATOM     13  N   UNL     1       3.787   0.676   1.403  0.00  0.00    +0.000 N 
BRANCH   6  14
ATOM     14  C   UNL     1       6.674  -1.618   1.669  0.00  0.00    +0.000 C 
ATOM     15  F   UNL     1       6.320  -2.794   1.099  0.00  0.00    +0.000 F 
ATOM     16  F   UNL     1       7.839  -1.248   1.070  0.00  0.00    +0.000 F 
ATOM     17  F   UNL     1       6.981  -1.900   2.966  0.00  0.00    +0.000 F 
ENDBRANCH   6  14
ENDBRANCH   2   5
BRANCH   3  18
ATOM     18  C   UNL     1       2.350  -2.099  -1.740  0.00  0.00    +0.000 A 
ATOM     19  C   UNL     1       2.626  -3.400  -1.886  0.00  0.00    +0.000 A 
ATOM     20  C   UNL     1       1.960  -4.206  -2.870  0.00  0.00    +0.000 A 
ATOM     21  C   UNL     1       1.063  -3.654  -3.693  0.00  0.00    +0.000 A 
ATOM     22  N   UNL     1       0.704  -2.316  -3.590  0.00  0.00    +0.000 N 
ATOM     23  C   UNL     1       1.279  -1.479  -2.617  0.00  0.00    +0.000 A 
ATOM     24  O   UNL     1       1.030  -0.278  -2.442  0.00  0.00    +0.000 OA
BRANCH  22  25
ATOM     25  C   UNL     1      -0.212  -1.750  -4.525  0.00  0.00    +0.000 A 
ATOM     26  C   UNL     1       0.031  -1.886  -5.899  0.00  0.00    +0.000 A 
ATOM     27  C   UNL     1      -0.808  -1.268  -6.827  0.00  0.00    +0.000 A 
ATOM     28  C   UNL     1      -1.923  -0.554  -6.390  0.00  0.00    +0.000 A 
ATOM     29  C   UNL     1      -2.199  -0.457  -5.027  0.00  0.00    +0.000 A 
ATOM     30  C   UNL     1      -1.338  -1.040  -4.094  0.00  0.00    +0.000 A 
ENDBRANCH  22  25
ENDBRANCH   3  18
TORSDOF 4
