REMARK  Name = 
REMARK  4 active torsions:
REMARK  status: ('A' for Active; 'I' for Inactive)
REMARK    1  A    between atoms: C_2  and  C_20
REMARK    2  A    between atoms: N_3  and  C_4
REMARK    3  A    between atoms: C_6  and  C_7
REMARK    4  A    between atoms: C_14  and  C_15
REMARK                            x       y       z     vdW  Elec       q    Type
REMARK                         _______ _______ _______ _____ _____    ______ ____
ROOT
ATOM      1  C   UNL     1       2.229   2.503   0.034  0.00  0.00    +0.000 A 
ATOM      2  C   UNL     1       1.135   2.672   0.885  0.00  0.00    +0.000 A 
ATOM      3  C   UNL     1       0.573   3.935   1.144  0.00  0.00    +0.000 A 
ATOM      4  C   UNL     1       1.117   5.038   0.469  0.00  0.00    +0.000 A 
ATOM      5  C   UNL     1       2.220   4.905  -0.388  0.00  0.00    +0.000 A 
ATOM      6  C   UNL     1       2.781   3.631  -0.585  0.00  0.00    +0.000 A 
ENDROOT
BRANCH   3   7
ATOM      7  C   UNL     1      -0.508   4.093   2.142  0.00  0.00    +0.000 A 
ATOM      8  C   UNL     1      -0.526   3.309   3.313  0.00  0.00    +0.000 A 
ATOM      9  C   UNL     1      -1.507   3.477   4.292  0.00  0.00    +0.000 A 
ATOM     10  C   UNL     1      -2.490   4.446   4.127  0.00  0.00    +0.000 A 
ATOM     11  C   UNL     1      -2.502   5.229   2.976  0.00  0.00    +0.000 A 
ATOM     12  C   UNL     1      -1.528   5.047   1.990  0.00  0.00    +0.000 A 
ENDBRANCH   3   7
BRANCH   1  15
ATOM     13  O   UNL     1       1.265  -0.221   0.715  0.00  0.00    +0.000 OA
ATOM     14  C   UNL     1       2.329   0.003   0.151  0.00  0.00    +0.000 C 
ATOM     15  N   UNL     1       2.826   1.244  -0.215  0.00  0.00    +0.000 N 
ATOM     16  H   UNL     1       3.672   1.277  -0.766  0.00  0.00    +0.000 HD
BRANCH  14  17
ATOM     17  C   UNL     1       3.164  -1.123  -0.221  0.00  0.00    +0.000 A 
ATOM     18  C   UNL     1       2.818  -2.449  -0.071  0.00  0.00    +0.000 A 
ATOM     19  N   UNL     1       1.657  -2.994   0.450  0.00  0.00    +0.000 N 
ATOM     20  C   UNL     1       1.489  -4.415   0.487  0.00  0.00    +0.000 A 
ATOM     21  O   UNL     1       0.468  -4.885   0.945  0.00  0.00    +0.000 OA
ATOM     22  C   UNL     1       2.626  -5.208  -0.063  0.00  0.00    +0.000 A 
ATOM     23  C   UNL     1       3.730  -4.608  -0.544  0.00  0.00    +0.000 A 
ATOM     24  N   UNL     1       3.850  -3.226  -0.557  0.00  0.00    +0.000 N 
ATOM     25  N   UNL     1       4.870  -2.457  -0.994  0.00  0.00    +0.000 NA
ATOM     26  C   UNL     1       4.455  -1.204  -0.788  0.00  0.00    +0.000 A 
ATOM     27  H   UNL     1       0.920  -2.387   0.808  0.00  0.00    +0.000 HD
ENDBRANCH  14  17
ENDBRANCH   1  15
BRANCH   5  28
ATOM     28  C   UNL     1       2.811   6.119  -1.066  0.00  0.00    +0.000 C 
ATOM     29  F   UNL     1       2.149   7.276  -0.790  0.00  0.00    +0.000 F 
ATOM     30  F   UNL     1       4.106   6.331  -0.703  0.00  0.00    +0.000 F 
ATOM     31  F   UNL     1       2.816   6.004  -2.422  0.00  0.00    +0.000 F 
ENDBRANCH   5  28
TORSDOF 4
