REMARK  Name = 
REMARK  6 active torsions:
REMARK  status: ('A' for Active; 'I' for Inactive)
REMARK    1  A    between atoms: C_2  and  O_3
REMARK    2  A    between atoms: C_2  and  C_18
REMARK    3  A    between atoms: O_3  and  C_4
REMARK    4  A    between atoms: C_4  and  C_5
REMARK    5  A    between atoms: C_7  and  C_8
REMARK    6  A    between atoms: N_22  and  C_23
REMARK                            x       y       z     vdW  Elec       q    Type
REMARK                         _______ _______ _______ _____ _____    ______ ____
ROOT
ATOM      1  O   UNL     1       2.734   1.352  -0.053  0.00  0.00    +0.000 OA
ENDROOT
BRANCH   1   3
ATOM      2  O   UNL     1       2.826   1.471   2.236  0.00  0.00    +0.000 OA
ATOM      3  C   UNL     1       2.190   1.383   1.195  0.00  0.00    +0.000 C 
BRANCH   3   4
ATOM      4  C   UNL     1       0.761   1.270   1.110  0.00  0.00    +0.000 A 
ATOM      5  C   UNL     1      -0.015   0.579   0.195  0.00  0.00    +0.000 A 
ATOM      6  C   UNL     1      -1.313   0.602   0.724  0.00  0.00    +0.000 A 
ATOM      7  N   UNL     1      -1.369   1.244   1.889  0.00  0.00    +0.000 NA
ATOM      8  N   UNL     1      -0.129   1.784   2.040  0.00  0.00    +0.000 N 
BRANCH   8   9
ATOM      9  C   UNL     1       0.051   2.835   2.975  0.00  0.00    +0.000 A 
ATOM     10  C   UNL     1      -0.738   2.863   4.127  0.00  0.00    +0.000 A 
ATOM     11  C   UNL     1      -0.597   3.941   4.982  0.00  0.00    +0.000 A 
ATOM     12  N   UNL     1       0.234   4.980   4.750  0.00  0.00    +0.000 NA
ATOM     13  C   UNL     1       0.967   4.936   3.616  0.00  0.00    +0.000 A 
ATOM     14  C   UNL     1       0.929   3.888   2.712  0.00  0.00    +0.000 A 
ENDBRANCH   8   9
ENDBRANCH   3   4
ENDBRANCH   1   3
BRANCH   1  15
ATOM     15  C   UNL     1       4.171   1.350  -0.097  0.00  0.00    +0.000 C 
BRANCH  15  16
ATOM     16  C   UNL     1       4.735   2.749  -0.061  0.00  0.00    +0.000 A 
ATOM     17  C   UNL     1       5.137   3.316   1.162  0.00  0.00    +0.000 A 
ATOM     18  C   UNL     1       5.661   4.621   1.259  0.00  0.00    +0.000 A 
ATOM     19  C   UNL     1       5.793   5.347   0.067  0.00  0.00    +0.000 A 
ATOM     20  C   UNL     1       5.404   4.789  -1.151  0.00  0.00    +0.000 A 
ATOM     21  F   UNL     1       5.552   5.503  -2.275  0.00  0.00    +0.000 F 
ATOM     22  C   UNL     1       4.867   3.509  -1.224  0.00  0.00    +0.000 A 
BRANCH  18  23
ATOM     23  C   UNL     1       6.059   5.176   2.571  0.00  0.00    +0.000 A 
ATOM     24  C   UNL     1       5.360   4.867   3.749  0.00  0.00    +0.000 A 
ATOM     25  C   UNL     1       5.776   5.369   4.981  0.00  0.00    +0.000 A 
ATOM     26  C   UNL     1       6.886   6.192   5.012  0.00  0.00    +0.000 A 
ATOM     27  N   UNL     1       7.587   6.534   3.912  0.00  0.00    +0.000 NA
ATOM     28  C   UNL     1       7.160   6.020   2.730  0.00  0.00    +0.000 A 
ENDBRANCH  18  23
ENDBRANCH  15  16
ENDBRANCH   1  15
TORSDOF 6
