REMARK  Name = 
REMARK  5 active torsions:
REMARK  status: ('A' for Active; 'I' for Inactive)
REMARK    1  A    between atoms: C_1  and  N_2
REMARK    2  A    between atoms: C_9  and  N_10
REMARK    3  A    between atoms: N_13  and  C_14
REMARK    4  A    between atoms: C_14  and  C_15
REMARK    5  A    between atoms: C_14  and  C_21
REMARK                            x       y       z     vdW  Elec       q    Type
REMARK                         _______ _______ _______ _____ _____    ______ ____
ROOT
ATOM      1  N   UNL     1       5.193  -4.881   0.521  0.00  0.00    +0.000 N 
ATOM      2  C   UNL     1       4.534  -6.080   0.329  0.00  0.00    +0.000 C 
ATOM      3  O   UNL     1       3.326  -6.265   0.416  0.00  0.00    +0.000 OA
ATOM      4  N   UNL     1       5.410  -7.108   0.057  0.00  0.00    +0.000 N 
ATOM      5  H   UNL     1       6.172  -4.948   0.751  0.00  0.00    +0.000 HD
ATOM      6  H   UNL     1       6.267  -6.855  -0.408  0.00  0.00    +0.000 HD
ENDROOT
BRANCH   1  15
ATOM      7  C   UNL     1       3.650   1.405   1.501  0.00  0.00    +0.000 C 
ATOM      8  N   UNL     1       2.834   0.264   1.093  0.00  0.00    +0.000 N 
ATOM      9  C   UNL     1       1.493   0.404   0.779  0.00  0.00    +0.000 A 
ATOM     10  C   UNL     1       0.690  -0.562   0.333  0.00  0.00    +0.000 A 
ATOM     11  C   UNL     1       1.259  -1.904   0.134  0.00  0.00    +0.000 A 
ATOM     12  O   UNL     1       0.561  -2.808  -0.313  0.00  0.00    +0.000 OA
ATOM     13  C   UNL     1       2.688  -2.099   0.492  0.00  0.00    +0.000 A 
ATOM     14  C   UNL     1       3.247  -3.378   0.336  0.00  0.00    +0.000 A 
ATOM     15  C   UNL     1       4.576  -3.616   0.672  0.00  0.00    +0.000 A 
ATOM     16  C   UNL     1       5.341  -2.551   1.150  0.00  0.00    +0.000 A 
ATOM     17  C   UNL     1       4.782  -1.267   1.302  0.00  0.00    +0.000 A 
ATOM     18  C   UNL     1       3.443  -1.008   0.969  0.00  0.00    +0.000 A 
ENDBRANCH   1  15
BRANCH   4  19
ATOM     19  C   UNL     1       4.895  -8.442  -0.235  0.00  0.00    +0.000 C 
BRANCH  19  20
ATOM     20  C   UNL     1       5.809  -9.554   0.303  0.00  0.00    +0.000 A 
ATOM     21  C   UNL     1       6.969  -9.286   1.050  0.00  0.00    +0.000 A 
ATOM     22  C   UNL     1       7.838 -10.323   1.410  0.00  0.00    +0.000 A 
ATOM     23  C   UNL     1       7.542 -11.627   1.038  0.00  0.00    +0.000 A 
ATOM     24  F   UNL     1       8.402 -12.608   1.338  0.00  0.00    +0.000 F 
ATOM     25  C   UNL     1       6.370 -11.929   0.360  0.00  0.00    +0.000 A 
ATOM     26  C   UNL     1       5.495 -10.899   0.013  0.00  0.00    +0.000 A 
ENDBRANCH  19  20
BRANCH  19  27
ATOM     27  C   UNL     1       4.635  -8.579  -1.739  0.00  0.00    +0.000 A 
ATOM     28  C   UNL     1       5.634  -9.000  -2.632  0.00  0.00    +0.000 A 
ATOM     29  C   UNL     1       5.305  -9.197  -3.964  0.00  0.00    +0.000 A 
ATOM     30  N   UNL     1       4.078  -8.972  -4.475  0.00  0.00    +0.000 NA
ATOM     31  C   UNL     1       3.139  -8.523  -3.615  0.00  0.00    +0.000 A 
ATOM     32  C   UNL     1       3.364  -8.314  -2.262  0.00  0.00    +0.000 A 
ENDBRANCH  19  27
ENDBRANCH   4  19
TORSDOF 4
