REMARK  Name = 
REMARK  7 active torsions:
REMARK  status: ('A' for Active; 'I' for Inactive)
REMARK    1  A    between atoms: C_2  and  C_17
REMARK    2  A    between atoms: N_3  and  C_4
REMARK    3  A    between atoms: C_4  and  C_5
REMARK    4  A    between atoms: C_5  and  C_6
REMARK    5  A    between atoms: C_9  and  N_10
REMARK    6  A    between atoms: N_19  and  C_20
REMARK    7  A    between atoms: C_29  and  O_30
REMARK                            x       y       z     vdW  Elec       q    Type
REMARK                         _______ _______ _______ _____ _____    ______ ____
ROOT
ATOM      1  O   UNL     1       1.023  -0.064  -0.036  0.00  0.00    +0.000 OA
ATOM      2  C   UNL     1       2.249  -0.035   0.008  0.00  0.00    +0.000 C 
ATOM      3  N   UNL     1       2.990  -1.067   0.555  0.00  0.00    +0.000 N 
ATOM      4  H   UNL     1       3.997  -0.937   0.570  0.00  0.00    +0.000 HD
ENDROOT
BRANCH   2   5
ATOM      5  C   UNL     1       3.059   1.091  -0.491  0.00  0.00    +0.000 A 
ATOM      6  N   UNL     1       4.410   1.111  -0.404  0.00  0.00    +0.000 NA
ATOM      7  N   UNL     1       4.785   2.326  -0.913  0.00  0.00    +0.000 N 
ATOM      8  C   UNL     1       3.697   3.044  -1.353  0.00  0.00    +0.000 A 
ATOM      9  C   UNL     1       2.596   2.279  -1.094  0.00  0.00    +0.000 A 
BRANCH   7  10
ATOM     10  C   UNL     1       6.158   2.710  -0.932  0.00  0.00    +0.000 A 
ATOM     11  C   UNL     1       7.136   1.808  -0.473  0.00  0.00    +0.000 A 
ATOM     12  C   UNL     1       8.486   2.171  -0.474  0.00  0.00    +0.000 A 
ATOM     13  C   UNL     1       8.863   3.430  -0.928  0.00  0.00    +0.000 A 
ATOM     14  F   UNL     1      10.156   3.776  -0.923  0.00  0.00    +0.000 F 
ATOM     15  C   UNL     1       7.917   4.332  -1.384  0.00  0.00    +0.000 A 
ATOM     16  C   UNL     1       6.571   3.971  -1.385  0.00  0.00    +0.000 A 
ATOM     17  F   UNL     1       5.702   4.889  -1.829  0.00  0.00    +0.000 F 
ENDBRANCH   7  10
BRANCH   9  18
ATOM     18  O   UNL     1       1.340   2.654  -1.374  0.00  0.00    +0.000 OA
ATOM     19  H   UNL     1       1.320   3.533  -1.790  0.00  0.00    +0.000 HD
ENDBRANCH   9  18
ENDBRANCH   2   5
BRANCH   3  20
ATOM     20  C   UNL     1       2.344  -2.210   1.175  0.00  0.00    +0.000 C 
BRANCH  20  21
ATOM     21  C   UNL     1       3.347  -3.220   1.728  0.00  0.00    +0.000 C 
BRANCH  21  22
ATOM     22  C   UNL     1       2.694  -4.439   2.336  0.00  0.00    +0.000 A 
ATOM     23  C   UNL     1       2.382  -5.547   1.538  0.00  0.00    +0.000 A 
ATOM     24  C   UNL     1       1.828  -6.704   2.099  0.00  0.00    +0.000 A 
ATOM     25  C   UNL     1       1.564  -6.764   3.474  0.00  0.00    +0.000 A 
ATOM     26  C   UNL     1       1.840  -5.644   4.270  0.00  0.00    +0.000 A 
ATOM     27  C   UNL     1       2.399  -4.491   3.704  0.00  0.00    +0.000 A 
BRANCH  25  28
ATOM     28  N   UNL     1       1.031  -7.943   4.072  0.00  0.00    +0.000 N 
ATOM     29  C   UNL     1       0.759  -9.155   3.468  0.00  0.00    +0.000 A 
ATOM     30  C   UNL     1       0.251  -9.989   4.435  0.00  0.00    +0.000 A 
ATOM     31  C   UNL     1       0.254  -9.215   5.601  0.00  0.00    +0.000 A 
ATOM     32  N   UNL     1       0.731  -7.986   5.398  0.00  0.00    +0.000 NA
ENDBRANCH  25  28
ENDBRANCH  21  22
ENDBRANCH  20  21
ENDBRANCH   3  20
TORSDOF 7
