REMARK  Name = 
REMARK  3 active torsions:
REMARK  status: ('A' for Active; 'I' for Inactive)
REMARK    1  A    between atoms: C_2  and  C_17
REMARK    2  A    between atoms: N_3  and  C_4
REMARK    3  A    between atoms: N_8  and  C_9
REMARK                            x       y       z     vdW  Elec       q    Type
REMARK                         _______ _______ _______ _____ _____    ______ ____
ROOT
ATOM      1  O   UNL     1       5.080  -1.711   1.493  0.00  0.00    +0.000 OA
ATOM      2  C   UNL     1       4.442  -1.147   0.610  0.00  0.00    +0.000 C 
ATOM      3  N   UNL     1       3.145  -1.458   0.262  0.00  0.00    +0.000 N 
ATOM      4  H   UNL     1       2.766  -1.072  -0.606  0.00  0.00    +0.000 HD
ENDROOT
BRANCH   2   5
ATOM      5  C   UNL     1       5.113  -0.027  -0.120  0.00  0.00    +0.000 A 
ATOM      6  C   UNL     1       4.394   0.853  -0.939  0.00  0.00    +0.000 A 
ATOM      7  F   UNL     1       3.108   0.618  -1.247  0.00  0.00    +0.000 F 
ATOM      8  C   UNL     1       4.932   2.108  -1.258  0.00  0.00    +0.000 A 
ATOM      9  C   UNL     1       4.197   3.074  -1.943  0.00  0.00    +0.000 A 
ATOM     10  C   UNL     1       4.451   4.406  -1.665  0.00  0.00    +0.000 A 
ATOM     11  C   UNL     1       5.644   4.705  -1.043  0.00  0.00    +0.000 A 
ATOM     12  N   UNL     1       6.561   3.773  -0.692  0.00  0.00    +0.000 NA
ATOM     13  C   UNL     1       6.178   2.488  -0.735  0.00  0.00    +0.000 A 
ATOM     14  C   UNL     1       6.967   1.510  -0.153  0.00  0.00    +0.000 A 
ATOM     15  C   UNL     1       6.434   0.267   0.177  0.00  0.00    +0.000 A 
ENDBRANCH   2   5
BRANCH   3  16
ATOM     16  C   UNL     1       2.325  -2.388   0.857  0.00  0.00    +0.000 A 
ATOM     17  C   UNL     1       2.465  -2.905   2.089  0.00  0.00    +0.000 A 
ATOM     18  C   UNL     1       1.612  -3.954   2.563  0.00  0.00    +0.000 A 
ATOM     19  C   UNL     1       0.688  -4.489   1.752  0.00  0.00    +0.000 A 
ATOM     20  N   UNL     1       0.450  -3.981   0.481  0.00  0.00    +0.000 N 
ATOM     21  C   UNL     1       1.169  -2.871   0.000  0.00  0.00    +0.000 A 
ATOM     22  O   UNL     1       0.997  -2.312  -1.083  0.00  0.00    +0.000 OA
BRANCH  20  23
ATOM     23  C   UNL     1      -0.470  -4.631  -0.397  0.00  0.00    +0.000 A 
ATOM     24  C   UNL     1      -0.425  -6.026  -0.534  0.00  0.00    +0.000 A 
ATOM     25  C   UNL     1      -1.252  -6.674  -1.453  0.00  0.00    +0.000 A 
ATOM     26  C   UNL     1      -2.160  -5.937  -2.210  0.00  0.00    +0.000 A 
ATOM     27  C   UNL     1      -2.241  -4.554  -2.054  0.00  0.00    +0.000 A 
ATOM     28  C   UNL     1      -1.389  -3.902  -1.161  0.00  0.00    +0.000 A 
ENDBRANCH  20  23
ENDBRANCH   3  16
TORSDOF 3
