REMARK  Name = 
REMARK  10 active torsions:
REMARK  status: ('A' for Active; 'I' for Inactive)
REMARK    1  A    between atoms: C_2  and  C_3
REMARK    2  A    between atoms: C_3  and  C_4
REMARK    3  A    between atoms: C_9  and  O_10
REMARK    4  A    between atoms: O_10  and  C_11
REMARK    5  A    between atoms: C_11  and  C_12
REMARK    6  A    between atoms: N_18  and  CA_19
REMARK    7  A    between atoms: CA_19  and  C_20
REMARK    8  A    between atoms: CA_19  and  C_31
REMARK    9  A    between atoms: C_20  and  C_21
REMARK   10  A    between atoms: C_31  and  OXT_33
REMARK                            x       y       z     vdW  Elec       q    Type
REMARK                         _______ _______ _______ _____ _____    ______ ____
ROOT
ATOM      1  O   UNL     1       1.412  -0.297  -0.942  0.00  0.00    +0.000 OA
ATOM      2  C   UNL     1       2.415  -0.285  -0.247  0.00  0.00    +0.000 C 
ATOM      3  N   UNL     1       3.462  -1.175  -0.425  0.00  0.00    +0.000 N 
ATOM      4  H   UNL     1       4.069  -1.299   0.397  0.00  0.00    +0.000 HD
ENDROOT
BRANCH   3   5
ATOM      5  CA  UNL     1       3.384  -2.348  -1.288  0.00  0.00    +0.000 C 
BRANCH   5   6
ATOM      6  C   UNL     1       4.244  -3.432  -0.620  0.00  0.00    +0.000 C 
ATOM      7  O   UNL     1       4.816  -3.249   0.451  0.00  0.00    +0.000 OA
BRANCH   6   8
ATOM      8  OXT UNL     1       4.264  -4.631  -1.228  0.00  0.00    +0.000 OA
ATOM      9  HXT UNL     1       3.730  -4.717  -2.039  0.00  0.00    +0.000 HD
ENDBRANCH   6   8
ENDBRANCH   5   6
BRANCH   5  10
ATOM     10  C   UNL     1       3.720  -2.046  -2.757  0.00  0.00    +0.000 C 
BRANCH  10  11
ATOM     11  C   UNL     1       5.129  -1.788  -3.228  0.00  0.00    +0.000 A 
ATOM     12  C   UNL     1       6.120  -1.040  -2.602  0.00  0.00    +0.000 A 
ATOM     13  N   UNL     1       7.364  -0.855  -3.115  0.00  0.00    +0.000 NA
ATOM     14  C   UNL     1       7.734  -1.554  -4.215  0.00  0.00    +0.000 A 
ATOM     15  C   UNL     1       9.002  -1.500  -4.800  0.00  0.00    +0.000 A 
ATOM     16  C   UNL     1       9.400  -2.389  -5.812  0.00  0.00    +0.000 A 
ATOM     17  C   UNL     1       8.528  -3.381  -6.248  0.00  0.00    +0.000 A 
ATOM     18  C   UNL     1       7.222  -3.362  -5.795  0.00  0.00    +0.000 A 
ATOM     19  C   UNL     1       6.816  -2.426  -4.836  0.00  0.00    +0.000 A 
ATOM     20  C   UNL     1       5.491  -2.355  -4.444  0.00  0.00    +0.000 A 
ENDBRANCH  10  11
ENDBRANCH   5  10
ENDBRANCH   3   5
BRANCH   2  21
ATOM     21  C   UNL     1       2.657   0.687   0.904  0.00  0.00    +0.000 C 
BRANCH  21  22
ATOM     22  C   UNL     1       2.340   0.113   2.280  0.00  0.00    +0.000 A 
ATOM     23  C   UNL     1       1.152  -0.618   2.459  0.00  0.00    +0.000 A 
ATOM     24  C   UNL     1       0.859  -1.234   3.678  0.00  0.00    +0.000 A 
ATOM     25  C   UNL     1       1.750  -1.130   4.735  0.00  0.00    +0.000 A 
ATOM     26  C   UNL     1       2.901  -0.356   4.597  0.00  0.00    +0.000 A 
ATOM     27  C   UNL     1       3.181   0.316   3.394  0.00  0.00    +0.000 A 
BRANCH  27  28
ATOM     28  O   UNL     1       4.247   1.182   3.256  0.00  0.00    +0.000 OA
BRANCH  28  29
ATOM     29  C   UNL     1       4.785   1.681   4.495  0.00  0.00    +0.000 C 
BRANCH  29  30
ATOM     30  C   UNL     1       5.677   2.888   4.316  0.00  0.00    +0.000 A 
ATOM     31  C   UNL     1       5.738   3.862   5.325  0.00  0.00    +0.000 A 
ATOM     32  C   UNL     1       6.603   4.936   5.171  0.00  0.00    +0.000 A 
ATOM     33  N   UNL     1       7.413   5.096   4.105  0.00  0.00    +0.000 NA
ATOM     34  C   UNL     1       7.356   4.137   3.156  0.00  0.00    +0.000 A 
ATOM     35  C   UNL     1       6.525   3.028   3.218  0.00  0.00    +0.000 A 
ENDBRANCH  29  30
ENDBRANCH  28  29
ENDBRANCH  27  28
ENDBRANCH  21  22
ENDBRANCH   2  21
TORSDOF 10
