REMARK  Name = 
REMARK  7 active torsions:
REMARK  status: ('A' for Active; 'I' for Inactive)
REMARK    1  A    between atoms: C_2  and  C_20
REMARK    2  A    between atoms: N_3  and  CA_4
REMARK    3  A    between atoms: CA_4  and  C_5
REMARK    4  A    between atoms: CA_4  and  C_8
REMARK    5  A    between atoms: C_5  and  OXT_7
REMARK    6  A    between atoms: C_12  and  C_13
REMARK    7  A    between atoms: C_23  and  C_24
REMARK                            x       y       z     vdW  Elec       q    Type
REMARK                         _______ _______ _______ _____ _____    ______ ____
ROOT
ATOM      1  CA  UNL     1       2.395   0.713   2.302  0.00  0.00    +0.000 C 
ENDROOT
BRANCH   1   2
ATOM      2  C   UNL     1       3.461   1.156   3.292  0.00  0.00    +0.000 A 
ATOM      3  C   UNL     1       3.916   0.319   4.318  0.00  0.00    +0.000 A 
ATOM      4  C   UNL     1       4.917   0.749   5.183  0.00  0.00    +0.000 A 
ATOM      5  C   UNL     1       5.512   2.000   5.002  0.00  0.00    +0.000 A 
ATOM      6  C   UNL     1       5.125   2.853   3.956  0.00  0.00    +0.000 A 
ATOM      7  C   UNL     1       4.066   2.423   3.137  0.00  0.00    +0.000 A 
BRANCH   6   8
ATOM      8  C   UNL     1       5.857   4.111   3.682  0.00  0.00    +0.000 A 
ATOM      9  C   UNL     1       7.253   4.164   3.817  0.00  0.00    +0.000 A 
ATOM     10  C   UNL     1       7.932   5.333   3.514  0.00  0.00    +0.000 A 
ATOM     11  N   UNL     1       7.329   6.455   3.081  0.00  0.00    +0.000 NA
ATOM     12  C   UNL     1       5.989   6.400   2.948  0.00  0.00    +0.000 A 
ATOM     13  C   UNL     1       5.222   5.276   3.233  0.00  0.00    +0.000 A 
ENDBRANCH   6   8
ENDBRANCH   1   2
BRANCH   1  16
ATOM     14  O   UNL     1       3.012   2.229   0.085  0.00  0.00    +0.000 OA
ATOM     15  C   UNL     1       3.343   1.046   0.043  0.00  0.00    +0.000 C 
ATOM     16  N   UNL     1       3.027   0.174   1.078  0.00  0.00    +0.000 N 
ATOM     17  H   UNL     1       3.630  -0.638   1.156  0.00  0.00    +0.000 HD
BRANCH  15  18
ATOM     18  C   UNL     1       4.079   0.495  -1.077  0.00  0.00    +0.000 A 
ATOM     19  C   UNL     1       4.650   1.159  -2.144  0.00  0.00    +0.000 A 
ATOM     20  C   UNL     1       5.143   0.177  -3.024  0.00  0.00    +0.000 A 
ATOM     21  C   UNL     1       4.873  -1.049  -2.445  0.00  0.00    +0.000 A 
ATOM     22  O   UNL     1       4.232  -0.860  -1.240  0.00  0.00    +0.000 OA
BRANCH  21  23
ATOM     23  C   UNL     1       5.151  -2.413  -2.881  0.00  0.00    +0.000 A 
ATOM     24  C   UNL     1       4.736  -3.538  -2.181  0.00  0.00    +0.000 A 
ATOM     25  C   UNL     1       5.095  -4.796  -2.664  0.00  0.00    +0.000 A 
ATOM     26  C   UNL     1       5.847  -4.894  -3.829  0.00  0.00    +0.000 A 
ATOM     27  C   UNL     1       6.201  -3.725  -4.477  0.00  0.00    +0.000 A 
ATOM     28  N   UNL     1       5.871  -2.493  -4.031  0.00  0.00    +0.000 NA
ENDBRANCH  21  23
ENDBRANCH  15  18
ENDBRANCH   1  16
BRANCH   1  29
ATOM     29  C   UNL     1       1.360  -0.270   2.892  0.00  0.00    +0.000 C 
ATOM     30  O   UNL     1       0.766  -0.129   3.955  0.00  0.00    +0.000 OA
BRANCH  29  31
ATOM     31  OXT UNL     1       1.119  -1.343   2.089  0.00  0.00    +0.000 OA
ATOM     32  HXT UNL     1       1.599  -1.242   1.240  0.00  0.00    +0.000 HD
ENDBRANCH  29  31
ENDBRANCH   1  29
TORSDOF 7
