REMARK  Name = 
REMARK  4 active torsions:
REMARK  status: ('A' for Active; 'I' for Inactive)
REMARK    1  A    between atoms: C_2  and  C_4
REMARK    2  A    between atoms: C_7  and  C_8
REMARK    3  A    between atoms: C_8  and  N_9
REMARK    4  A    between atoms: C_11  and  C_12
REMARK                            x       y       z     vdW  Elec       q    Type
REMARK                         _______ _______ _______ _____ _____    ______ ____
ROOT
ATOM      1  N   UNL     1       6.422  -5.027  -0.487  0.00  0.00    +0.000 N 
ATOM      2  N   UNL     1       5.883  -5.553   0.669  0.00  0.00    +0.000 NA
ATOM      3  C   UNL     1       6.720  -5.903   1.591  0.00  0.00    +0.000 A 
ATOM      4  C   UNL     1       8.176  -5.677   1.553  0.00  0.00    +0.000 A 
ATOM      5  C   UNL     1       8.675  -5.257   0.397  0.00  0.00    +0.000 A 
ATOM      6  C   UNL     1       7.785  -4.976  -0.745  0.00  0.00    +0.000 A 
ATOM      7  O   UNL     1       8.295  -4.690  -1.825  0.00  0.00    +0.000 OA
ENDROOT
BRANCH   3   8
ATOM      8  C   UNL     1       6.287  -6.709   2.742  0.00  0.00    +0.000 A 
ATOM      9  C   UNL     1       6.655  -6.277   4.026  0.00  0.00    +0.000 A 
ATOM     10  C   UNL     1       6.404  -7.092   5.112  0.00  0.00    +0.000 A 
ATOM     11  C   UNL     1       5.726  -8.282   4.898  0.00  0.00    +0.000 A 
ATOM     12  C   UNL     1       5.695  -8.862   3.627  0.00  0.00    +0.000 A 
ATOM     13  C   UNL     1       5.629 -10.257   3.474  0.00  0.00    +0.000 A 
ATOM     14  C   UNL     1       5.647 -10.835   2.206  0.00  0.00    +0.000 A 
ATOM     15  C   UNL     1       5.587 -10.020   1.083  0.00  0.00    +0.000 A 
ATOM     16  C   UNL     1       5.665  -8.635   1.230  0.00  0.00    +0.000 A 
ATOM     17  C   UNL     1       5.853  -8.041   2.503  0.00  0.00    +0.000 A 
ENDBRANCH   3   8
BRANCH   1  18
ATOM     18  C   UNL     1       5.476  -4.665  -1.533  0.00  0.00    +0.000 C 
BRANCH  18  22
ATOM     19  C   UNL     1       4.737  -0.413  -1.538  0.00  0.00    +0.000 A 
ATOM     20  C   UNL     1       5.789  -0.947  -2.270  0.00  0.00    +0.000 A 
ATOM     21  C   UNL     1       6.019  -2.337  -2.296  0.00  0.00    +0.000 A 
ATOM     22  C   UNL     1       5.198  -3.199  -1.543  0.00  0.00    +0.000 A 
ATOM     23  C   UNL     1       4.170  -2.634  -0.799  0.00  0.00    +0.000 A 
ATOM     24  F   UNL     1       3.361  -3.435  -0.091  0.00  0.00    +0.000 F 
ATOM     25  C   UNL     1       3.932  -1.266  -0.779  0.00  0.00    +0.000 A 
BRANCH  19  27
ATOM     26  N   UNL     1       4.829   1.773  -2.593  0.00  0.00    +0.000 N 
ATOM     27  C   UNL     1       4.431   1.035  -1.516  0.00  0.00    +0.000 C 
ATOM     28  O   UNL     1       3.819   1.544  -0.580  0.00  0.00    +0.000 OA
ATOM     29  H   UNL     1       4.507   2.733  -2.624  0.00  0.00    +0.000 HD
ATOM     30  H   UNL     1       5.110   1.340  -3.463  0.00  0.00    +0.000 HD
ENDBRANCH  19  27
ENDBRANCH  18  22
ENDBRANCH   1  18
TORSDOF 4
