REMARK  Name = 
REMARK  7 active torsions:
REMARK  status: ('A' for Active; 'I' for Inactive)
REMARK    1  A    between atoms: C_1  and  O_2
REMARK    2  A    between atoms: O_2  and  C_3
REMARK    3  A    between atoms: C_7  and  O_8
REMARK    4  A    between atoms: O_8  and  C_9
REMARK    5  A    between atoms: C_9  and  C_10
REMARK    6  A    between atoms: C_16  and  C_17
REMARK    7  A    between atoms: N_19  and  C_20
REMARK                            x       y       z     vdW  Elec       q    Type
REMARK                         _______ _______ _______ _____ _____    ______ ____
ROOT
ATOM      1  C   UNL     1       2.929  -0.268  -1.207  0.00  0.00    +0.000 A 
ATOM      2  C   UNL     1       2.607   0.560  -2.288  0.00  0.00    +0.000 A 
ATOM      3  C   UNL     1       3.396   0.559  -3.438  0.00  0.00    +0.000 A 
ATOM      4  C   UNL     1       4.559  -0.204  -3.480  0.00  0.00    +0.000 A 
ATOM      5  C   UNL     1       4.931  -1.000  -2.391  0.00  0.00    +0.000 A 
ATOM      6  C   UNL     1       4.061  -1.110  -1.286  0.00  0.00    +0.000 A 
ENDROOT
BRANCH   6   7
ATOM      7  C   UNL     1       4.262  -2.208  -0.290  0.00  0.00    +0.000 C 
ATOM      8  O   UNL     1       4.726  -3.282  -0.677  0.00  0.00    +0.000 OA
ATOM      9  N   UNL     1       3.905  -1.969   1.016  0.00  0.00    +0.000 N 
ATOM     10  H   UNL     1       3.188  -1.259   1.171  0.00  0.00    +0.000 HD
BRANCH   9  11
ATOM     11  C   UNL     1       4.133  -2.836   2.066  0.00  0.00    +0.000 A 
ATOM     12  C   UNL     1       5.180  -3.661   2.179  0.00  0.00    +0.000 A 
ATOM     13  N   UNL     1       5.416  -4.513   3.222  0.00  0.00    +0.000 NA
ATOM     14  C   UNL     1       4.529  -4.544   4.168  0.00  0.00    +0.000 A 
ATOM     15  C   UNL     1       4.742  -5.480   5.306  0.00  0.00    +0.000 A 
ATOM     16  C   UNL     1       3.841  -5.544   6.294  0.00  0.00    +0.000 A 
ATOM     17  C   UNL     1       2.668  -4.715   6.262  0.00  0.00    +0.000 A 
ATOM     18  C   UNL     1       2.474  -3.865   5.246  0.00  0.00    +0.000 A 
ATOM     19  N   UNL     1       3.383  -3.757   4.199  0.00  0.00    +0.000 N 
ATOM     20  C   UNL     1       3.133  -2.853   3.173  0.00  0.00    +0.000 A 
ATOM     21  O   UNL     1       2.154  -2.105   3.107  0.00  0.00    +0.000 OA
ENDBRANCH   9  11
ENDBRANCH   6   7
BRANCH   1  23
ATOM     22  C   UNL     1       0.860   0.098  -0.071  0.00  0.00    +0.000 C 
ATOM     23  O   UNL     1       2.237  -0.253  -0.023  0.00  0.00    +0.000 OA
ENDBRANCH   1  23
BRANCH   5  24
ATOM     24  O   UNL     1       6.160  -1.592  -2.557  0.00  0.00    +0.000 OA
BRANCH  24  25
ATOM     25  C   UNL     1       6.955  -1.782  -1.381  0.00  0.00    +0.000 C 
BRANCH  25  26
ATOM     26  C   UNL     1       8.305  -1.130  -1.515  0.00  0.00    +0.000 A 
ATOM     27  C   UNL     1       8.686  -0.121  -0.614  0.00  0.00    +0.000 A 
ATOM     28  C   UNL     1       9.962   0.432  -0.673  0.00  0.00    +0.000 A 
ATOM     29  C   UNL     1      10.866  -0.013  -1.634  0.00  0.00    +0.000 A 
ATOM     30  C   UNL     1      10.495  -1.010  -2.537  0.00  0.00    +0.000 A 
ATOM     31  C   UNL     1       9.218  -1.566  -2.480  0.00  0.00    +0.000 A 
ENDBRANCH  25  26
ENDBRANCH  24  25
ENDBRANCH   5  24
TORSDOF 6
