REMARK  Name = 
REMARK  7 active torsions:
REMARK  status: ('A' for Active; 'I' for Inactive)
REMARK    1  A    between atoms: C_1  and  O_2
REMARK    2  A    between atoms: O_2  and  C_3
REMARK    3  A    between atoms: C_7  and  C_8
REMARK    4  A    between atoms: N_10  and  C_11
REMARK    5  A    between atoms: C_14  and  N_15
REMARK    6  A    between atoms: C_16  and  C_18
REMARK    7  A    between atoms: C_20  and  O_21
REMARK                            x       y       z     vdW  Elec       q    Type
REMARK                         _______ _______ _______ _____ _____    ______ ____
ROOT
ATOM      1  C   UNL     1       4.658  -7.321   2.834  0.00  0.00    +0.000 A 
ATOM      2  C   UNL     1       4.805  -7.863   4.109  0.00  0.00    +0.000 A 
ATOM      3  C   UNL     1       4.711  -9.245   4.304  0.00  0.00    +0.000 A 
ATOM      4  C   UNL     1       4.456 -10.069   3.217  0.00  0.00    +0.000 A 
ATOM      5  N   UNL     1       4.265  -9.563   1.987  0.00  0.00    +0.000 NA
ATOM      6  C   UNL     1       4.360  -8.220   1.819  0.00  0.00    +0.000 A 
ENDROOT
BRANCH   1   9
ATOM      7  C   UNL     1       5.420  -5.016   3.364  0.00  0.00    +0.000 C 
ATOM      8  O   UNL     1       5.931  -5.277   4.449  0.00  0.00    +0.000 OA
ATOM      9  N   UNL     1       4.809  -5.944   2.537  0.00  0.00    +0.000 N 
ATOM     10  H   UNL     1       4.627  -5.649   1.586  0.00  0.00    +0.000 HD
BRANCH   7  15
ATOM     11  C   UNL     1       3.357  -0.836   0.526  0.00  0.00    +0.000 A 
ATOM     12  C   UNL     1       2.761  -2.090   0.652  0.00  0.00    +0.000 A 
ATOM     13  C   UNL     1       3.382  -3.117   1.385  0.00  0.00    +0.000 A 
ATOM     14  C   UNL     1       4.633  -2.889   1.997  0.00  0.00    +0.000 A 
ATOM     15  C   UNL     1       5.517  -3.659   2.828  0.00  0.00    +0.000 A 
ATOM     16  C   UNL     1       6.574  -2.821   3.151  0.00  0.00    +0.000 A 
ATOM     17  N   UNL     1       6.380  -1.610   2.558  0.00  0.00    +0.000 N 
ATOM     18  C   UNL     1       5.198  -1.618   1.857  0.00  0.00    +0.000 A 
ATOM     19  C   UNL     1       4.589  -0.585   1.135  0.00  0.00    +0.000 A 
ATOM     20  H   UNL     1       6.992  -0.810   2.646  0.00  0.00    +0.000 HD
BRANCH  11  22
ATOM     21  C   UNL     1       1.598   0.033  -0.817  0.00  0.00    +0.000 C 
ATOM     22  O   UNL     1       2.837   0.235  -0.150  0.00  0.00    +0.000 OA
ENDBRANCH  11  22
ENDBRANCH   7  15
ENDBRANCH   1   9
BRANCH   4  23
ATOM     23  N   UNL     1       4.446 -11.457   3.441  0.00  0.00    +0.000 N 
ATOM     24  C   UNL     1       4.206 -12.409   2.472  0.00  0.00    +0.000 C 
ATOM     25  O   UNL     1       3.840 -12.213   1.320  0.00  0.00    +0.000 OA
ATOM     26  H   UNL     1       4.613 -11.760   4.388  0.00  0.00    +0.000 HD
BRANCH  24  27
ATOM     27  C   UNL     1       4.391 -13.828   2.896  0.00  0.00    +0.000 A 
ATOM     28  C   UNL     1       3.623 -14.809   2.250  0.00  0.00    +0.000 A 
ATOM     29  C   UNL     1       3.816 -16.151   2.560  0.00  0.00    +0.000 A 
ATOM     30  C   UNL     1       4.758 -16.535   3.506  0.00  0.00    +0.000 A 
ATOM     31  C   UNL     1       5.527 -15.565   4.151  0.00  0.00    +0.000 A 
ATOM     32  C   UNL     1       5.349 -14.211   3.846  0.00  0.00    +0.000 A 
BRANCH  29  33
ATOM     33  O   UNL     1       3.103 -17.133   1.938  0.00  0.00    +0.000 OA
ATOM     34  H   UNL     1       2.555 -16.727   1.245  0.00  0.00    +0.000 HD
ENDBRANCH  29  33
ENDBRANCH  24  27
ENDBRANCH   4  23
TORSDOF 6
