REMARK  Name = 
REMARK  6 active torsions:
REMARK  status: ('A' for Active; 'I' for Inactive)
REMARK    1  A    between atoms: C_2  and  O_3
REMARK    2  A    between atoms: C_2  and  C_4
REMARK    3  A    between atoms: C_11  and  C_13
REMARK    4  A    between atoms: C_18  and  C_19
REMARK    5  A    between atoms: C_19  and  O_20
REMARK    6  A    between atoms: C_19  and  C_21
REMARK                            x       y       z     vdW  Elec       q    Type
REMARK                         _______ _______ _______ _____ _____    ______ ____
ROOT
ATOM      1  C   UNL     1       7.065   1.255   1.230  0.00  0.00    +0.000 A 
ATOM      2  C   UNL     1       6.866   2.607   1.024  0.00  0.00    +0.000 A 
ATOM      3  N   UNL     1       7.250   3.258  -0.102  0.00  0.00    +0.000 NA
ATOM      4  C   UNL     1       7.803   2.563  -1.100  0.00  0.00    +0.000 A 
ATOM      5  N   UNL     1       8.165   3.218  -2.201  0.00  0.00    +0.000 NA
ATOM      6  C   UNL     1       8.582   2.510  -3.268  0.00  0.00    +0.000 A 
ATOM      7  N   UNL     1       8.845   3.274  -4.406  0.00  0.00    +0.000 N 
ATOM      8  C   UNL     1       8.585   2.858  -5.700  0.00  0.00    +0.000 C 
ATOM      9  O   UNL     1       8.045   1.787  -5.956  0.00  0.00    +0.000 OA
ATOM     10  C   UNL     1       8.788   1.141  -3.244  0.00  0.00    +0.000 A 
ATOM     11  C   UNL     1       8.507   0.461  -2.072  0.00  0.00    +0.000 A 
ATOM     12  C   UNL     1       7.981   1.168  -0.989  0.00  0.00    +0.000 A 
ATOM     13  C   UNL     1       7.619   0.513   0.195  0.00  0.00    +0.000 A 
ATOM     14  H   UNL     1       8.979   4.247  -4.186  0.00  0.00    +0.000 HD
ENDROOT
BRANCH   8  15
ATOM     15  C   UNL     1       9.032   3.777  -6.805  0.00  0.00    +0.000 A 
ATOM     16  C   UNL     1       9.267   5.138  -6.518  0.00  0.00    +0.000 A 
ATOM     17  C   UNL     1       9.882   5.980  -7.445  0.00  0.00    +0.000 A 
ATOM     18  C   UNL     1      10.258   5.483  -8.683  0.00  0.00    +0.000 A 
ATOM     19  C   UNL     1       9.949   4.167  -9.022  0.00  0.00    +0.000 A 
ATOM     20  C   UNL     1       9.303   3.297  -8.113  0.00  0.00    +0.000 A 
BRANCH  20  21
ATOM     21  C   UNL     1       8.918   1.916  -8.645  0.00  0.00    +0.000 C 
BRANCH  21  22
ATOM     22  C   UNL     1       7.426   1.689  -8.910  0.00  0.00    +0.000 A 
ATOM     23  C   UNL     1       6.570   2.736  -9.295  0.00  0.00    +0.000 A 
ATOM     24  C   UNL     1       5.213   2.503  -9.550  0.00  0.00    +0.000 A 
ATOM     25  C   UNL     1       4.691   1.217  -9.445  0.00  0.00    +0.000 A 
ATOM     26  C   UNL     1       5.529   0.159  -9.110  0.00  0.00    +0.000 A 
ATOM     27  C   UNL     1       6.884   0.391  -8.855  0.00  0.00    +0.000 A 
ENDBRANCH  21  22
BRANCH  21  28
ATOM     28  O   UNL     1       9.495   0.916  -7.806  0.00  0.00    +0.000 OA
ATOM     29  H   UNL     1       8.855   0.831  -7.065  0.00  0.00    +0.000 HD
ENDBRANCH  21  28
ENDBRANCH  20  21
ENDBRANCH   8  15
BRANCH   1  31
ATOM     30  O   UNL     1       5.687   1.049   3.138  0.00  0.00    +0.000 OA
ATOM     31  C   UNL     1       6.648   0.653   2.511  0.00  0.00    +0.000 C 
BRANCH  31  32
ATOM     32  O   UNL     1       7.456  -0.338   2.928  0.00  0.00    +0.000 OA
ATOM     33  H   UNL     1       8.297  -0.445   2.443  0.00  0.00    +0.000 HD
ENDBRANCH  31  32
ENDBRANCH   1  31
TORSDOF 6
