REMARK  Name = 
REMARK  6 active torsions:
REMARK  status: ('A' for Active; 'I' for Inactive)
REMARK    1  A    between atoms: N_3  and  C_4
REMARK    2  A    between atoms: C_7  and  C_8
REMARK    3  A    between atoms: N_16  and  C_17
REMARK    4  A    between atoms: C_19  and  C_20
REMARK    5  A    between atoms: C_20  and  O_21
REMARK    6  A    between atoms: C_20  and  C_22
REMARK                            x       y       z     vdW  Elec       q    Type
REMARK                         _______ _______ _______ _____ _____    ______ ____
ROOT
ATOM      1  O   UNL     1       2.593  -1.018   1.186  0.00  0.00    +0.000 OA
ATOM      2  C   UNL     1       2.265  -0.758   0.036  0.00  0.00    +0.000 C 
ATOM      3  N   UNL     1       0.946  -0.673  -0.372  0.00  0.00    +0.000 N 
ATOM      4  N   UNL     1       3.147  -0.573  -1.016  0.00  0.00    +0.000 N 
ATOM      5  H   UNL     1       0.769  -0.625  -1.364  0.00  0.00    +0.000 HD
ATOM      6  H   UNL     1       2.759  -0.449  -1.938  0.00  0.00    +0.000 HD
ENDROOT
BRANCH   3   7
ATOM      7  C   UNL     1      -0.156  -0.977   0.462  0.00  0.00    +0.000 A 
ATOM      8  C   UNL     1      -0.121  -1.071   1.842  0.00  0.00    +0.000 A 
ATOM      9  N   UNL     1      -1.166  -1.473   2.599  0.00  0.00    +0.000 NA
ATOM     10  C   UNL     1      -2.298  -1.815   1.947  0.00  0.00    +0.000 A 
ATOM     11  N   UNL     1      -2.455  -1.687   0.604  0.00  0.00    +0.000 NA
ATOM     12  C   UNL     1      -1.384  -1.259  -0.094  0.00  0.00    +0.000 A 
BRANCH  10  13
ATOM     13  C   UNL     1      -3.392  -2.450   2.731  0.00  0.00    +0.000 A 
ATOM     14  N   UNL     1      -3.493  -2.161   4.052  0.00  0.00    +0.000 NA
ATOM     15  C   UNL     1      -4.455  -2.799   4.739  0.00  0.00    +0.000 A 
ATOM     16  C   UNL     1      -5.312  -3.711   4.177  0.00  0.00    +0.000 A 
ATOM     17  C   UNL     1      -5.136  -3.945   2.834  0.00  0.00    +0.000 A 
ATOM     18  N   UNL     1      -4.199  -3.331   2.091  0.00  0.00    +0.000 NA
ENDBRANCH  10  13
ENDBRANCH   3   7
BRANCH   4  19
ATOM     19  C   UNL     1       4.551  -0.724  -0.942  0.00  0.00    +0.000 A 
ATOM     20  C   UNL     1       5.249  -0.812   0.265  0.00  0.00    +0.000 A 
ATOM     21  C   UNL     1       6.638  -1.021   0.305  0.00  0.00    +0.000 A 
ATOM     22  C   UNL     1       7.330  -1.128  -0.907  0.00  0.00    +0.000 A 
ATOM     23  C   UNL     1       6.647  -1.029  -2.121  0.00  0.00    +0.000 A 
ATOM     24  C   UNL     1       5.265  -0.819  -2.139  0.00  0.00    +0.000 A 
BRANCH  21  25
ATOM     25  C   UNL     1       7.357  -1.175   1.639  0.00  0.00    +0.000 C 
BRANCH  25  26
ATOM     26  C   UNL     1       6.870  -2.372   2.446  0.00  0.00    +0.000 A 
ATOM     27  C   UNL     1       6.997  -3.667   1.911  0.00  0.00    +0.000 A 
ATOM     28  C   UNL     1       6.510  -4.779   2.599  0.00  0.00    +0.000 A 
ATOM     29  C   UNL     1       5.898  -4.619   3.840  0.00  0.00    +0.000 A 
ATOM     30  C   UNL     1       5.786  -3.348   4.398  0.00  0.00    +0.000 A 
ATOM     31  C   UNL     1       6.271  -2.233   3.709  0.00  0.00    +0.000 A 
ENDBRANCH  25  26
BRANCH  25  32
ATOM     32  O   UNL     1       7.244   0.037   2.392  0.00  0.00    +0.000 OA
ATOM     33  H   UNL     1       6.351   0.386   2.241  0.00  0.00    +0.000 HD
ENDBRANCH  25  32
ENDBRANCH  21  25
ENDBRANCH   4  19
TORSDOF 6
