REMARK  Name = 
REMARK  3 active torsions:
REMARK  status: ('A' for Active; 'I' for Inactive)
REMARK    1  A    between atoms: C_2  and  C_17
REMARK    2  A    between atoms: N_3  and  C_4
REMARK    3  A    between atoms: N_6  and  C_7
REMARK                            x       y       z     vdW  Elec       q    Type
REMARK                         _______ _______ _______ _____ _____    ______ ____
ROOT
ATOM      1  O   UNL     1       3.026   1.657  -0.934  0.00  0.00    +0.000 OA
ATOM      2  C   UNL     1       3.887   0.832  -0.647  0.00  0.00    +0.000 C 
ATOM      3  N   UNL     1       3.707  -0.543  -0.768  0.00  0.00    +0.000 N 
ATOM      4  H   UNL     1       4.506  -1.078  -0.460  0.00  0.00    +0.000 HD
ENDROOT
BRANCH   2   5
ATOM      5  C   UNL     1       5.299   1.323  -0.230  0.00  0.00    +0.000 A 
ATOM      6  C   UNL     1       6.371   0.526   0.267  0.00  0.00    +0.000 A 
ATOM      7  C   UNL     1       6.729   0.356   1.633  0.00  0.00    +0.000 A 
ATOM      8  C   UNL     1       7.934  -0.289   2.014  0.00  0.00    +0.000 A 
ATOM      9  C   UNL     1       8.728  -0.898   1.050  0.00  0.00    +0.000 A 
ATOM     10  C   UNL     1       8.475  -0.584  -0.268  0.00  0.00    +0.000 A 
ATOM     11  F   UNL     1       9.306  -1.015  -1.224  0.00  0.00    +0.000 F 
ATOM     12  C   UNL     1       7.479   0.353  -0.555  0.00  0.00    +0.000 A 
ATOM     13  C   UNL     1       7.769   1.421  -1.387  0.00  0.00    +0.000 A 
ATOM     14  N   UNL     1       6.958   2.495  -1.536  0.00  0.00    +0.000 NA
ATOM     15  C   UNL     1       5.709   2.385  -1.022  0.00  0.00    +0.000 A 
ENDBRANCH   2   5
BRANCH   3  16
ATOM     16  C   UNL     1       2.647  -1.337  -1.250  0.00  0.00    +0.000 A 
ATOM     17  C   UNL     1       1.471  -1.006  -1.855  0.00  0.00    +0.000 A 
ATOM     18  N   UNL     1       0.493  -1.981  -2.195  0.00  0.00    +0.000 N 
ATOM     19  C   UNL     1       0.709  -3.369  -1.983  0.00  0.00    +0.000 A 
ATOM     20  O   UNL     1      -0.033  -4.306  -2.252  0.00  0.00    +0.000 OA
ATOM     21  C   UNL     1       2.031  -3.703  -1.395  0.00  0.00    +0.000 A 
ATOM     22  C   UNL     1       2.909  -2.751  -1.065  0.00  0.00    +0.000 A 
BRANCH  18  23
ATOM     23  C   UNL     1      -0.774  -1.679  -2.857  0.00  0.00    +0.000 A 
ATOM     24  C   UNL     1      -1.973  -2.226  -2.338  0.00  0.00    +0.000 A 
ATOM     25  C   UNL     1      -3.197  -2.107  -3.017  0.00  0.00    +0.000 A 
ATOM     26  C   UNL     1      -3.238  -1.468  -4.249  0.00  0.00    +0.000 A 
ATOM     27  C   UNL     1      -2.066  -0.934  -4.788  0.00  0.00    +0.000 A 
ATOM     28  C   UNL     1      -0.845  -1.023  -4.092  0.00  0.00    +0.000 A 
ENDBRANCH  18  23
ENDBRANCH   3  16
TORSDOF 3
