REMARK  Name = 
REMARK  7 active torsions:
REMARK  status: ('A' for Active; 'I' for Inactive)
REMARK    1  A    between atoms: C_2  and  O_3
REMARK    2  A    between atoms: C_2  and  C_4
REMARK    3  A    between atoms: C_8  and  C_9
REMARK    4  A    between atoms: C_13  and  C_14
REMARK    5  A    between atoms: C_14  and  N_15
REMARK    6  A    between atoms: C_16  and  C_18
REMARK    7  A    between atoms: N_20  and  C_21
REMARK                            x       y       z     vdW  Elec       q    Type
REMARK                         _______ _______ _______ _____ _____    ______ ____
ROOT
ATOM      1  C   UNL     1       6.171  -2.524  -1.584  0.00  0.00    +0.000 A 
ATOM      2  C   UNL     1       7.330  -1.959  -2.147  0.00  0.00    +0.000 A 
ATOM      3  C   UNL     1       8.602  -2.460  -1.865  0.00  0.00    +0.000 A 
ATOM      4  C   UNL     1       8.752  -3.525  -0.985  0.00  0.00    +0.000 A 
ATOM      5  C   UNL     1       7.628  -4.111  -0.391  0.00  0.00    +0.000 A 
ATOM      6  C   UNL     1       6.348  -3.622  -0.719  0.00  0.00    +0.000 A 
ENDROOT
BRANCH   1  11
ATOM      7  C   UNL     1       2.705  -1.089  -0.953  0.00  0.00    +0.000 A 
ATOM      8  C   UNL     1       2.464  -0.396  -2.142  0.00  0.00    +0.000 A 
ATOM      9  C   UNL     1       3.386  -0.469  -3.179  0.00  0.00    +0.000 A 
ATOM     10  C   UNL     1       4.559  -1.213  -3.018  0.00  0.00    +0.000 A 
ATOM     11  C   UNL     1       4.848  -1.892  -1.818  0.00  0.00    +0.000 A 
ATOM     12  C   UNL     1       3.871  -1.854  -0.807  0.00  0.00    +0.000 A 
BRANCH   7  14
ATOM     13  O   UNL     1       0.510  -0.833  -0.075  0.00  0.00    +0.000 OA
ATOM     14  C   UNL     1       1.703  -0.987   0.135  0.00  0.00    +0.000 C 
BRANCH  14  15
ATOM     15  O   UNL     1       2.233  -1.026   1.376  0.00  0.00    +0.000 OA
ATOM     16  H   UNL     1       3.207  -0.973   1.416  0.00  0.00    +0.000 HD
ENDBRANCH  14  15
ENDBRANCH   7  14
ENDBRANCH   1  11
BRANCH   5  17
ATOM     17  C   UNL     1       7.799  -5.162   0.676  0.00  0.00    +0.000 C 
BRANCH  17  18
ATOM     18  N   UNL     1       7.099  -6.382   0.376  0.00  0.00    +0.000 N 
ATOM     19  C   UNL     1       6.647  -7.206   1.391  0.00  0.00    +0.000 C 
ATOM     20  O   UNL     1       6.781  -6.918   2.579  0.00  0.00    +0.000 OA
ATOM     21  H   UNL     1       7.074  -6.753  -0.568  0.00  0.00    +0.000 HD
BRANCH  19  22
ATOM     22  C   UNL     1       5.973  -8.438   0.928  0.00  0.00    +0.000 A 
ATOM     23  N   UNL     1       5.842  -8.773  -0.373  0.00  0.00    +0.000 NA
ATOM     24  N   UNL     1       5.086  -9.904  -0.310  0.00  0.00    +0.000 N 
ATOM     25  C   UNL     1       4.836 -10.213   1.002  0.00  0.00    +0.000 A 
ATOM     26  N   UNL     1       5.381  -9.325   1.797  0.00  0.00    +0.000 NA
BRANCH  24  27
ATOM     27  C   UNL     1       4.646 -10.594  -1.471  0.00  0.00    +0.000 A 
ATOM     28  C   UNL     1       5.022 -10.135  -2.742  0.00  0.00    +0.000 A 
ATOM     29  C   UNL     1       4.585 -10.809  -3.885  0.00  0.00    +0.000 A 
ATOM     30  C   UNL     1       3.770 -11.934  -3.771  0.00  0.00    +0.000 A 
ATOM     31  C   UNL     1       3.389 -12.392  -2.512  0.00  0.00    +0.000 A 
ATOM     32  C   UNL     1       3.825 -11.728  -1.363  0.00  0.00    +0.000 A 
ENDBRANCH  24  27
ENDBRANCH  19  22
ENDBRANCH  17  18
ENDBRANCH   5  17
TORSDOF 7
