REMARK  Name = 
REMARK  7 active torsions:
REMARK  status: ('A' for Active; 'I' for Inactive)
REMARK    1  A    between atoms: C_2  and  C_20
REMARK    2  A    between atoms: N_3  and  CA_4
REMARK    3  A    between atoms: CA_4  and  C_5
REMARK    4  A    between atoms: CA_4  and  C_8
REMARK    5  A    between atoms: C_5  and  OXT_7
REMARK    6  A    between atoms: C_12  and  C_13
REMARK    7  A    between atoms: C_23  and  C_24
REMARK                            x       y       z     vdW  Elec       q    Type
REMARK                         _______ _______ _______ _____ _____    ______ ____
ROOT
ATOM      1  CA  UNL     1       2.149   2.006   1.494  0.00  0.00    +0.000 C 
ENDROOT
BRANCH   1   2
ATOM      2  C   UNL     1       3.225   2.942   2.003  0.00  0.00    +0.000 A 
ATOM      3  C   UNL     1       4.114   2.563   3.016  0.00  0.00    +0.000 A 
ATOM      4  C   UNL     1       5.116   3.438   3.429  0.00  0.00    +0.000 A 
ATOM      5  C   UNL     1       5.249   4.691   2.825  0.00  0.00    +0.000 A 
ATOM      6  C   UNL     1       4.397   5.100   1.785  0.00  0.00    +0.000 A 
ATOM      7  C   UNL     1       3.377   4.210   1.404  0.00  0.00    +0.000 A 
BRANCH   6   8
ATOM      8  C   UNL     1       4.612   6.382   1.079  0.00  0.00    +0.000 A 
ATOM      9  C   UNL     1       5.905   6.838   0.791  0.00  0.00    +0.000 A 
ATOM     10  C   UNL     1       6.081   8.022   0.091  0.00  0.00    +0.000 A 
ATOM     11  N   UNL     1       5.064   8.788  -0.348  0.00  0.00    +0.000 NA
ATOM     12  C   UNL     1       3.820   8.349  -0.073  0.00  0.00    +0.000 A 
ATOM     13  C   UNL     1       3.546   7.179   0.627  0.00  0.00    +0.000 A 
ENDBRANCH   6   8
ENDBRANCH   1   2
BRANCH   1  16
ATOM     14  O   UNL     1       2.877   1.978  -1.209  0.00  0.00    +0.000 OA
ATOM     15  C   UNL     1       3.119   0.984  -0.538  0.00  0.00    +0.000 C 
ATOM     16  N   UNL     1       2.742   0.852   0.786  0.00  0.00    +0.000 N 
ATOM     17  H   UNL     1       3.289   0.219   1.359  0.00  0.00    +0.000 HD
BRANCH  15  18
ATOM     18  C   UNL     1       3.854  -0.150  -1.142  0.00  0.00    +0.000 A 
ATOM     19  C   UNL     1       4.782   0.074  -2.162  0.00  0.00    +0.000 A 
ATOM     20  C   UNL     1       5.423  -1.010  -2.760  0.00  0.00    +0.000 A 
ATOM     21  C   UNL     1       5.120  -2.298  -2.325  0.00  0.00    +0.000 A 
ATOM     22  N   UNL     1       4.217  -2.539  -1.339  0.00  0.00    +0.000 NA
ATOM     23  C   UNL     1       3.606  -1.468  -0.781  0.00  0.00    +0.000 A 
BRANCH  21  24
ATOM     24  C   UNL     1       5.751  -3.488  -2.883  0.00  0.00    +0.000 A 
ATOM     25  C   UNL     1       5.576  -4.845  -2.687  0.00  0.00    +0.000 A 
ATOM     26  C   UNL     1       6.529  -5.504  -3.502  0.00  0.00    +0.000 A 
ATOM     27  C   UNL     1       7.220  -4.512  -4.155  0.00  0.00    +0.000 A 
ATOM     28  O   UNL     1       6.755  -3.288  -3.793  0.00  0.00    +0.000 OA
ENDBRANCH  21  24
ENDBRANCH  15  18
ENDBRANCH   1  16
BRANCH   1  29
ATOM     29  C   UNL     1       1.184   1.503   2.588  0.00  0.00    +0.000 C 
ATOM     30  O   UNL     1       0.806   2.135   3.561  0.00  0.00    +0.000 OA
BRANCH  29  31
ATOM     31  OXT UNL     1       0.686   0.266   2.303  0.00  0.00    +0.000 OA
ATOM     32  HXT UNL     1       0.997  -0.021   1.417  0.00  0.00    +0.000 HD
ENDBRANCH  29  31
ENDBRANCH   1  29
TORSDOF 7
