REMARK  Name = 
REMARK  6 active torsions:
REMARK  status: ('A' for Active; 'I' for Inactive)
REMARK    1  A    between atoms: C_1  and  N_2
REMARK    2  A    between atoms: N_2  and  C_16
REMARK    3  A    between atoms: C_3  and  C_5
REMARK    4  A    between atoms: C_14  and  N_15
REMARK    5  A    between atoms: C_16  and  C_17
REMARK    6  A    between atoms: C_16  and  C_23
REMARK                            x       y       z     vdW  Elec       q    Type
REMARK                         _______ _______ _______ _____ _____    ______ ____
ROOT
ATOM      1  C   UNL     1       0.972  -0.076   0.287  0.00  0.00    +0.000 C 
ATOM      2  N   UNL     1       2.400   0.067  -0.012  0.00  0.00    +0.000 N 
ATOM      3  C   UNL     1       2.898   0.991  -0.972  0.00  0.00    +0.000 C 
ATOM      4  O   UNL     1       4.104   1.218  -1.102  0.00  0.00    +0.000 OA
ENDROOT
BRANCH   3   5
ATOM      5  C   UNL     1       1.947   1.755  -1.853  0.00  0.00    +0.000 A 
ATOM      6  N   UNL     1       0.834   1.078  -2.196  0.00  0.00    +0.000 NA
ATOM      7  N   UNL     1      -0.179   1.711  -2.840  0.00  0.00    +0.000 NA
ATOM      8  C   UNL     1      -0.076   3.004  -3.157  0.00  0.00    +0.000 A 
ATOM      9  C   UNL     1      -1.168   3.603  -3.772  0.00  0.00    +0.000 A 
ATOM     10  C   UNL     1      -1.158   4.950  -4.130  0.00  0.00    +0.000 A 
ATOM     11  C   UNL     1      -0.025   5.707  -3.892  0.00  0.00    +0.000 A 
ATOM     12  C   UNL     1       1.095   5.117  -3.293  0.00  0.00    +0.000 A 
ATOM     13  C   UNL     1       1.090   3.751  -2.901  0.00  0.00    +0.000 A 
ATOM     14  C   UNL     1       2.167   3.094  -2.233  0.00  0.00    +0.000 A 
BRANCH  14  15
ATOM     15  N   UNL     1       3.435   3.707  -2.153  0.00  0.00    +0.000 N 
ATOM     16  H   UNL     1       3.483   4.715  -2.081  0.00  0.00    +0.000 HD
ATOM     17  H   UNL     1       4.132   3.203  -1.600  0.00  0.00    +0.000 HD
ENDBRANCH  14  15
ENDBRANCH   3   5
BRANCH   2  18
ATOM     18  C   UNL     1       3.241  -1.071   0.433  0.00  0.00    +0.000 C 
BRANCH  18  19
ATOM     19  C   UNL     1       4.489  -0.763   1.280  0.00  0.00    +0.000 A 
ATOM     20  C   UNL     1       5.317  -1.835   1.694  0.00  0.00    +0.000 A 
ATOM     21  C   UNL     1       6.549  -1.604   2.314  0.00  0.00    +0.000 A 
ATOM     22  C   UNL     1       6.956  -0.299   2.550  0.00  0.00    +0.000 A 
ATOM     23  F   UNL     1       8.166  -0.073   3.080  0.00  0.00    +0.000 F 
ATOM     24  C   UNL     1       6.118   0.761   2.234  0.00  0.00    +0.000 A 
ATOM     25  F   UNL     1       6.509   2.020   2.475  0.00  0.00    +0.000 F 
ATOM     26  C   UNL     1       4.879   0.535   1.635  0.00  0.00    +0.000 A 
ENDBRANCH  18  19
BRANCH  18  27
ATOM     27  C   UNL     1       3.517  -1.991  -0.749  0.00  0.00    +0.000 A 
ATOM     28  C   UNL     1       4.620  -1.808  -1.592  0.00  0.00    +0.000 A 
ATOM     29  C   UNL     1       4.797  -2.622  -2.697  0.00  0.00    +0.000 A 
ATOM     30  C   UNL     1       3.862  -3.614  -2.937  0.00  0.00    +0.000 A 
ATOM     31  N   UNL     1       2.791  -3.841  -2.145  0.00  0.00    +0.000 NA
ATOM     32  C   UNL     1       2.638  -3.021  -1.081  0.00  0.00    +0.000 A 
ENDBRANCH  18  27
ENDBRANCH   2  18
TORSDOF 5
