REMARK  Name = 
REMARK  7 active torsions:
REMARK  status: ('A' for Active; 'I' for Inactive)
REMARK    1  A    between atoms: C_2  and  C_17
REMARK    2  A    between atoms: N_3  and  C_4
REMARK    3  A    between atoms: C_4  and  C_5
REMARK    4  A    between atoms: N_7  and  C_8
REMARK    5  A    between atoms: C_8  and  C_9
REMARK    6  A    between atoms: C_21  and  C_22
REMARK    7  A    between atoms: C_22  and  C_23
REMARK                            x       y       z     vdW  Elec       q    Type
REMARK                         _______ _______ _______ _____ _____    ______ ____
ROOT
ATOM      1  O   UNL     1       1.012   0.033   0.127  0.00  0.00    +0.000 OA
ATOM      2  C   UNL     1       2.233   0.084   0.045  0.00  0.00    +0.000 C 
ATOM      3  N   UNL     1       2.911   0.176  -1.145  0.00  0.00    +0.000 N 
ATOM      4  H   UNL     1       3.918   0.258  -1.191  0.00  0.00    +0.000 HD
ENDROOT
BRANCH   2   5
ATOM      5  C   UNL     1       3.066   0.065   1.278  0.00  0.00    +0.000 A 
ATOM      6  C   UNL     1       4.365  -0.456   1.270  0.00  0.00    +0.000 A 
ATOM      7  C   UNL     1       5.109  -0.490   2.448  0.00  0.00    +0.000 A 
ATOM      8  C   UNL     1       4.569   0.006   3.635  0.00  0.00    +0.000 A 
ATOM      9  C   UNL     1       3.281   0.562   3.657  0.00  0.00    +0.000 A 
ATOM     10  C   UNL     1       2.524   0.561   2.473  0.00  0.00    +0.000 A 
BRANCH   9  11
ATOM     11  C   UNL     1       2.752   1.204   4.921  0.00  0.00    +0.000 C 
BRANCH  11  12
ATOM     12  C   UNL     1       1.984   0.314   5.869  0.00  0.00    +0.000 A 
ATOM     13  C   UNL     1       0.803  -0.310   5.473  0.00  0.00    +0.000 A 
ATOM     14  C   UNL     1       0.054  -1.008   6.419  0.00  0.00    +0.000 A 
ATOM     15  C   UNL     1       0.499  -1.063   7.733  0.00  0.00    +0.000 A 
ATOM     16  C   UNL     1       1.688  -0.432   8.046  0.00  0.00    +0.000 A 
ATOM     17  N   UNL     1       2.436   0.252   7.151  0.00  0.00    +0.000 NA
ENDBRANCH  11  12
ENDBRANCH   9  11
ENDBRANCH   2   5
BRANCH   3  18
ATOM     18  C   UNL     1       2.237   0.110  -2.421  0.00  0.00    +0.000 C 
BRANCH  18  19
ATOM     19  C   UNL     1       3.019   0.898  -3.422  0.00  0.00    +0.000 A 
ATOM     20  N   UNL     1       4.306   0.614  -3.691  0.00  0.00    +0.000 NA
ATOM     21  N   UNL     1       4.662   1.549  -4.604  0.00  0.00    +0.000 N 
ATOM     22  C   UNL     1       3.632   2.377  -4.952  0.00  0.00    +0.000 A 
ATOM     23  C   UNL     1       2.561   2.002  -4.180  0.00  0.00    +0.000 A 
BRANCH  21  24
ATOM     24  C   UNL     1       6.017   1.578  -5.143  0.00  0.00    +0.000 C 
BRANCH  24  25
ATOM     25  C   UNL     1       6.919   2.464  -4.319  0.00  0.00    +0.000 A 
ATOM     26  C   UNL     1       7.609   1.939  -3.216  0.00  0.00    +0.000 A 
ATOM     27  C   UNL     1       8.392   2.765  -2.408  0.00  0.00    +0.000 A 
ATOM     28  C   UNL     1       8.498   4.124  -2.697  0.00  0.00    +0.000 A 
ATOM     29  C   UNL     1       7.833   4.655  -3.800  0.00  0.00    +0.000 A 
ATOM     30  C   UNL     1       7.047   3.831  -4.608  0.00  0.00    +0.000 A 
ENDBRANCH  24  25
ENDBRANCH  21  24
ENDBRANCH  18  19
ENDBRANCH   3  18
TORSDOF 7
