REMARK  Name = 
REMARK  5 active torsions:
REMARK  status: ('A' for Active; 'I' for Inactive)
REMARK    1  A    between atoms: C_2  and  C_17
REMARK    2  A    between atoms: N_3  and  C_4
REMARK    3  A    between atoms: N_8  and  C_9
REMARK    4  A    between atoms: C_17  and  C_18
REMARK    5  A    between atoms: C_17  and  N_24
REMARK                            x       y       z     vdW  Elec       q    Type
REMARK                         _______ _______ _______ _____ _____    ______ ____
ROOT
ATOM      1  O   UNL     1       1.119   0.129   0.249  0.00  0.00    +0.000 OA
ATOM      2  C   UNL     1       2.333   0.001   0.037  0.00  0.00    +0.000 C 
ATOM      3  N   UNL     1       2.963   0.597  -1.046  0.00  0.00    +0.000 N 
ATOM      4  H   UNL     1       3.893   0.283  -1.323  0.00  0.00    +0.000 HD
ENDROOT
BRANCH   3   5
ATOM      5  C   UNL     1       2.319   1.398  -1.985  0.00  0.00    +0.000 A 
ATOM      6  C   UNL     1       1.216   2.115  -1.715  0.00  0.00    +0.000 A 
ATOM      7  C   UNL     1       0.629   2.997  -2.681  0.00  0.00    +0.000 A 
ATOM      8  C   UNL     1       1.144   3.088  -3.905  0.00  0.00    +0.000 A 
ATOM      9  N   UNL     1       2.239   2.326  -4.302  0.00  0.00    +0.000 N 
ATOM     10  C   UNL     1       2.877   1.425  -3.403  0.00  0.00    +0.000 A 
ATOM     11  O   UNL     1       3.776   0.643  -3.685  0.00  0.00    +0.000 OA
BRANCH   9  12
ATOM     12  C   UNL     1       2.679   2.346  -5.661  0.00  0.00    +0.000 A 
ATOM     13  C   UNL     1       1.763   2.128  -6.704  0.00  0.00    +0.000 A 
ATOM     14  C   UNL     1       2.210   2.034  -8.024  0.00  0.00    +0.000 A 
ATOM     15  C   UNL     1       3.561   2.209  -8.319  0.00  0.00    +0.000 A 
ATOM     16  C   UNL     1       4.465   2.490  -7.296  0.00  0.00    +0.000 A 
ATOM     17  C   UNL     1       4.027   2.549  -5.971  0.00  0.00    +0.000 A 
ENDBRANCH   9  12
ENDBRANCH   3   5
BRANCH   2  18
ATOM     18  C   UNL     1       3.210  -0.883   0.943  0.00  0.00    +0.000 C 
BRANCH  18  19
ATOM     19  C   UNL     1       3.067  -0.509   2.423  0.00  0.00    +0.000 A 
ATOM     20  C   UNL     1       1.812  -0.511   3.057  0.00  0.00    +0.000 A 
ATOM     21  C   UNL     1       1.655  -0.017   4.354  0.00  0.00    +0.000 A 
ATOM     22  C   UNL     1       2.758   0.446   5.062  0.00  0.00    +0.000 A 
ATOM     23  C   UNL     1       4.026   0.390   4.480  0.00  0.00    +0.000 A 
ATOM     24  C   UNL     1       4.179  -0.083   3.172  0.00  0.00    +0.000 A 
ENDBRANCH  18  19
BRANCH  18  25
ATOM     25  N   UNL     1       2.964  -2.323   0.718  0.00  0.00    +0.000 N 
ATOM     26  C   UNL     1       3.917  -3.302   0.862  0.00  0.00    +0.000 A 
ATOM     27  C   UNL     1       3.360  -4.511   0.520  0.00  0.00    +0.000 A 
ATOM     28  C   UNL     1       2.017  -4.272   0.162  0.00  0.00    +0.000 A 
ATOM     29  C   UNL     1       1.798  -2.912   0.276  0.00  0.00    +0.000 A 
ENDBRANCH  18  25
ENDBRANCH   2  18
TORSDOF 5
