REMARK  Name = 
REMARK  5 active torsions:
REMARK  status: ('A' for Active; 'I' for Inactive)
REMARK    1  A    between atoms: C_1  and  C_2
REMARK    2  A    between atoms: C_2  and  N_3
REMARK    3  A    between atoms: C_2  and  C_18
REMARK    4  A    between atoms: C_4  and  C_6
REMARK    5  A    between atoms: C_21  and  C_22
REMARK                            x       y       z     vdW  Elec       q    Type
REMARK                         _______ _______ _______ _____ _____    ______ ____
ROOT
ATOM      1  N   UNL     1       3.085   1.099   0.602  0.00  0.00    +0.000 N 
ATOM      2  C   UNL     1       3.238   2.240  -0.148  0.00  0.00    +0.000 C 
ATOM      3  O   UNL     1       2.931   2.305  -1.334  0.00  0.00    +0.000 OA
ATOM      4  H   UNL     1       3.196   1.107   1.609  0.00  0.00    +0.000 HD
ENDROOT
BRANCH   2   5
ATOM      5  C   UNL     1       3.782   3.445   0.538  0.00  0.00    +0.000 A 
ATOM      6  C   UNL     1       3.443   4.708   0.018  0.00  0.00    +0.000 A 
ATOM      7  C   UNL     1       3.931   5.877   0.613  0.00  0.00    +0.000 A 
ATOM      8  C   UNL     1       4.782   5.778   1.719  0.00  0.00    +0.000 A 
ATOM      9  N   UNL     1       5.270   6.947   2.321  0.00  0.00    +0.000 N 
ATOM     10  C   UNL     1       4.947   8.208   1.896  0.00  0.00    +0.000 A 
ATOM     11  O   UNL     1       5.372   9.219   2.442  0.00  0.00    +0.000 OA
ATOM     12  C   UNL     1       4.041   8.302   0.724  0.00  0.00    +0.000 A 
ATOM     13  C   UNL     1       3.568   7.205   0.115  0.00  0.00    +0.000 A 
ATOM     14  C   UNL     1       5.135   4.524   2.217  0.00  0.00    +0.000 A 
ATOM     15  F   UNL     1       5.964   4.432   3.267  0.00  0.00    +0.000 F 
ATOM     16  C   UNL     1       4.640   3.355   1.640  0.00  0.00    +0.000 A 
ATOM     17  H   UNL     1       5.891   6.880   3.118  0.00  0.00    +0.000 HD
ENDBRANCH   2   5
BRANCH   1  19
ATOM     18  C   UNL     1       1.004  -0.103   0.055  0.00  0.00    +0.000 C 
ATOM     19  C   UNL     1       2.531  -0.127   0.023  0.00  0.00    +0.000 C 
BRANCH  19  20
ATOM     20  C   UNL     1       3.051  -1.291   0.812  0.00  0.00    +0.000 A 
ATOM     21  N   UNL     1       3.231  -1.371   2.118  0.00  0.00    +0.000 NA
ATOM     22  C   UNL     1       3.738  -2.632   2.292  0.00  0.00    +0.000 A 
ATOM     23  C   UNL     1       3.858  -3.285   1.081  0.00  0.00    +0.000 A 
ATOM     24  O   UNL     1       3.405  -2.421   0.116  0.00  0.00    +0.000 OA
BRANCH  23  25
ATOM     25  C   UNL     1       4.374  -4.585   0.668  0.00  0.00    +0.000 A 
ATOM     26  C   UNL     1       4.840  -5.489   1.641  0.00  0.00    +0.000 A 
ATOM     27  C   UNL     1       5.410  -6.712   1.277  0.00  0.00    +0.000 A 
ATOM     28  C   UNL     1       5.511  -7.044  -0.065  0.00  0.00    +0.000 A 
ATOM     29  F   UNL     1       6.082  -8.204  -0.415  0.00  0.00    +0.000 F 
ATOM     30  C   UNL     1       5.034  -6.186  -1.047  0.00  0.00    +0.000 A 
ATOM     31  C   UNL     1       4.463  -4.960  -0.682  0.00  0.00    +0.000 A 
ENDBRANCH  23  25
ENDBRANCH  19  20
ENDBRANCH   1  19
TORSDOF 4
