REMARK  Name = 
REMARK  9 active torsions:
REMARK  status: ('A' for Active; 'I' for Inactive)
REMARK    1  A    between atoms: C_1  and  O_2
REMARK    2  A    between atoms: O_2  and  C_3
REMARK    3  A    between atoms: C_7  and  C_8
REMARK    4  A    between atoms: C_8  and  C_9
REMARK    5  A    between atoms: C_9  and  N_10
REMARK    6  A    between atoms: C_9  and  C_25
REMARK    7  A    between atoms: C_11  and  C_13
REMARK    8  A    between atoms: C_14  and  N_15
REMARK    9  A    between atoms: N_16  and  C_17
REMARK                            x       y       z     vdW  Elec       q    Type
REMARK                         _______ _______ _______ _____ _____    ______ ____
ROOT
ATOM      1  N   UNL     1       7.127  -2.615  -2.775  0.00  0.00    +0.000 N 
ATOM      2  C   UNL     1       7.380  -3.029  -4.069  0.00  0.00    +0.000 C 
ATOM      3  O   UNL     1       7.293  -4.202  -4.429  0.00  0.00    +0.000 OA
ATOM      4  H   UNL     1       7.401  -1.682  -2.510  0.00  0.00    +0.000 HD
ENDROOT
BRANCH   2   5
ATOM      5  C   UNL     1       7.811  -1.956  -4.956  0.00  0.00    +0.000 A 
ATOM      6  C   UNL     1       8.494  -2.074  -6.158  0.00  0.00    +0.000 A 
ATOM      7  N   UNL     1       8.801  -0.771  -6.577  0.00  0.00    +0.000 N 
ATOM      8  N   UNL     1       8.244   0.159  -5.743  0.00  0.00    +0.000 NA
ATOM      9  C   UNL     1       7.642  -0.566  -4.803  0.00  0.00    +0.000 A 
BRANCH   7  10
ATOM     10  C   UNL     1       9.607  -0.366  -7.697  0.00  0.00    +0.000 A 
ATOM     11  C   UNL     1       9.881   0.994  -7.858  0.00  0.00    +0.000 A 
ATOM     12  C   UNL     1      10.676   1.403  -8.926  0.00  0.00    +0.000 A 
ATOM     13  C   UNL     1      11.171   0.451  -9.808  0.00  0.00    +0.000 A 
ATOM     14  C   UNL     1      10.858  -0.876  -9.583  0.00  0.00    +0.000 A 
ATOM     15  N   UNL     1      10.097  -1.312  -8.552  0.00  0.00    +0.000 NA
ENDBRANCH   7  10
BRANCH   6  16
ATOM     16  N   UNL     1       8.885  -3.177  -6.838  0.00  0.00    +0.000 N 
ATOM     17  H   UNL     1       8.658  -4.120  -6.527  0.00  0.00    +0.000 HD
ATOM     18  H   UNL     1       9.418  -3.097  -7.710  0.00  0.00    +0.000 HD
ENDBRANCH   6  16
ENDBRANCH   2   5
BRANCH   1  19
ATOM     19  C   UNL     1       6.915  -3.559  -1.684  0.00  0.00    +0.000 C 
BRANCH  19  20
ATOM     20  C   UNL     1       8.262  -4.021  -1.143  0.00  0.00    +0.000 A 
ATOM     21  C   UNL     1       8.639  -5.366  -1.264  0.00  0.00    +0.000 A 
ATOM     22  C   UNL     1       9.872  -5.806  -0.780  0.00  0.00    +0.000 A 
ATOM     23  C   UNL     1      10.747  -4.905  -0.177  0.00  0.00    +0.000 A 
ATOM     24  C   UNL     1      10.393  -3.563  -0.060  0.00  0.00    +0.000 A 
ATOM     25  C   UNL     1       9.160  -3.122  -0.542  0.00  0.00    +0.000 A 
ENDBRANCH  19  20
BRANCH  19  26
ATOM     26  C   UNL     1       6.049  -2.948  -0.549  0.00  0.00    +0.000 C 
BRANCH  26  31
ATOM     27  C   UNL     1       3.072  -0.707  -1.403  0.00  0.00    +0.000 A 
ATOM     28  C   UNL     1       2.254  -1.603  -2.090  0.00  0.00    +0.000 A 
ATOM     29  C   UNL     1       2.606  -2.950  -2.174  0.00  0.00    +0.000 A 
ATOM     30  C   UNL     1       3.803  -3.396  -1.618  0.00  0.00    +0.000 A 
ATOM     31  C   UNL     1       4.685  -2.490  -1.017  0.00  0.00    +0.000 A 
ATOM     32  C   UNL     1       4.295  -1.148  -0.886  0.00  0.00    +0.000 A 
BRANCH  27  34
ATOM     33  C   UNL     1       1.404   0.949  -1.242  0.00  0.00    +0.000 C 
ATOM     34  O   UNL     1       2.791   0.619  -1.211  0.00  0.00    +0.000 OA
ENDBRANCH  27  34
ENDBRANCH  26  31
ENDBRANCH  19  26
ENDBRANCH   1  19
TORSDOF 8
