REMARK  Name = 
REMARK  5 active torsions:
REMARK  status: ('A' for Active; 'I' for Inactive)
REMARK    1  A    between atoms: C_1  and  N_2
REMARK    2  A    between atoms: C_10  and  N_11
REMARK    3  A    between atoms: N_14  and  C_15
REMARK    4  A    between atoms: C_15  and  C_16
REMARK    5  A    between atoms: C_19  and  C_20
REMARK                            x       y       z     vdW  Elec       q    Type
REMARK                         _______ _______ _______ _____ _____    ______ ____
ROOT
ATOM      1  N   UNL     1       3.496   2.336  -0.044  0.00  0.00    +0.000 N 
ATOM      2  C   UNL     1       3.153   3.667   0.030  0.00  0.00    +0.000 C 
ATOM      3  O   UNL     1       2.014   4.120   0.087  0.00  0.00    +0.000 OA
ATOM      4  N   UNL     1       4.236   4.512  -0.007  0.00  0.00    +0.000 N 
ATOM      5  H   UNL     1       4.475   2.122  -0.146  0.00  0.00    +0.000 HD
ATOM      6  H   UNL     1       5.169   4.159   0.115  0.00  0.00    +0.000 HD
ENDROOT
BRANCH   1  16
ATOM      7  C   UNL     1       4.189  -2.753  -0.275  0.00  0.00    +0.000 C 
ATOM      8  N   UNL     1       2.759  -2.519  -0.181  0.00  0.00    +0.000 N 
ATOM      9  C   UNL     1       1.914  -3.624  -0.143  0.00  0.00    +0.000 A 
ATOM     10  O   UNL     1       2.290  -4.794  -0.191  0.00  0.00    +0.000 OA
ATOM     11  C   UNL     1       0.458  -3.365  -0.040  0.00  0.00    +0.000 A 
ATOM     12  C   UNL     1      -0.034  -2.126   0.032  0.00  0.00    +0.000 A 
ATOM     13  C   UNL     1       0.873  -0.987   0.007  0.00  0.00    +0.000 A 
ATOM     14  C   UNL     1       0.355   0.303   0.101  0.00  0.00    +0.000 A 
ATOM     15  C   UNL     1       1.208   1.403   0.085  0.00  0.00    +0.000 A 
ATOM     16  C   UNL     1       2.591   1.244  -0.031  0.00  0.00    +0.000 A 
ATOM     17  C   UNL     1       3.108  -0.056  -0.133  0.00  0.00    +0.000 A 
ATOM     18  C   UNL     1       2.260  -1.181  -0.106  0.00  0.00    +0.000 A 
ENDBRANCH   1  16
BRANCH   4  19
ATOM     19  C   UNL     1       4.022   5.946   0.029  0.00  0.00    +0.000 C 
BRANCH  19  20
ATOM     20  C   UNL     1       4.042   6.517   1.427  0.00  0.00    +0.000 A 
ATOM     21  C   UNL     1       5.238   6.992   1.981  0.00  0.00    +0.000 A 
ATOM     22  C   UNL     1       5.255   7.560   3.258  0.00  0.00    +0.000 A 
ATOM     23  C   UNL     1       4.076   7.659   4.008  0.00  0.00    +0.000 A 
ATOM     24  C   UNL     1       2.881   7.174   3.467  0.00  0.00    +0.000 A 
ATOM     25  C   UNL     1       2.865   6.605   2.189  0.00  0.00    +0.000 A 
BRANCH  23  26
ATOM     26  C   UNL     1       4.103   8.245   5.358  0.00  0.00    +0.000 A 
ATOM     27  C   UNL     1       3.902   9.568   5.496  0.00  0.00    +0.000 A 
ATOM     28  N   UNL     1       3.926  10.159   6.737  0.00  0.00    +0.000 N 
ATOM     29  C   UNL     1       4.150   9.479   7.909  0.00  0.00    +0.000 A 
ATOM     30  O   UNL     1       4.171  10.026   9.004  0.00  0.00    +0.000 OA
ATOM     31  C   UNL     1       4.372   8.017   7.772  0.00  0.00    +0.000 A 
ATOM     32  C   UNL     1       4.345   7.454   6.555  0.00  0.00    +0.000 A 
ATOM     33  H   UNL     1       3.774  11.156   6.829  0.00  0.00    +0.000 HD
ENDBRANCH  23  26
ENDBRANCH  19  20
ENDBRANCH   4  19
TORSDOF 4
