REMARK  Name = 
REMARK  7 active torsions:
REMARK  status: ('A' for Active; 'I' for Inactive)
REMARK    1  A    between atoms: N_1  and  S_2
REMARK    2  A    between atoms: S_2  and  C_5
REMARK    3  A    between atoms: C_8  and  S_9
REMARK    4  A    between atoms: S_9  and  C_10
REMARK    5  A    between atoms: C_15  and  C_16
REMARK    6  A    between atoms: N_18  and  C_19
REMARK    7  A    between atoms: C_19  and  C_20
REMARK                            x       y       z     vdW  Elec       q    Type
REMARK                         _______ _______ _______ _____ _____    ______ ____
ROOT
ATOM      1  C   UNL     1       4.396  -2.413   6.601  0.00  0.00    +0.000 A 
ATOM      2  C   UNL     1       3.482  -1.469   7.122  0.00  0.00    +0.000 A 
ATOM      3  C   UNL     1       3.813  -0.716   8.257  0.00  0.00    +0.000 A 
ATOM      4  C   UNL     1       5.037  -0.897   8.890  0.00  0.00    +0.000 A 
ATOM      5  C   UNL     1       5.955  -1.819   8.374  0.00  0.00    +0.000 A 
ATOM      6  C   UNL     1       5.652  -2.568   7.220  0.00  0.00    +0.000 A 
ENDROOT
BRANCH   6   7
ATOM      7  C   UNL     1       6.743  -3.471   6.748  0.00  0.00    +0.000 C 
ATOM      8  O   UNL     1       7.471  -4.026   7.575  0.00  0.00    +0.000 OA
ATOM      9  N   UNL     1       6.938  -3.576   5.398  0.00  0.00    +0.000 N 
ATOM     10  H   UNL     1       6.323  -3.077   4.763  0.00  0.00    +0.000 HD
BRANCH   9  11
ATOM     11  C   UNL     1       8.068  -4.287   4.830  0.00  0.00    +0.000 C 
BRANCH  11  12
ATOM     12  C   UNL     1       8.953  -3.361   4.028  0.00  0.00    +0.000 A 
ATOM     13  C   UNL     1       9.348  -2.120   4.560  0.00  0.00    +0.000 A 
ATOM     14  C   UNL     1      10.047  -1.179   3.791  0.00  0.00    +0.000 A 
ATOM     15  C   UNL     1      10.471  -1.552   2.508  0.00  0.00    +0.000 A 
ATOM     16  C   UNL     1      11.124  -0.916   1.423  0.00  0.00    +0.000 A 
ATOM     17  C   UNL     1      11.556  -1.935   0.606  0.00  0.00    +0.000 A 
ATOM     18  O   UNL     1      10.956  -3.106   0.953  0.00  0.00    +0.000 OA
ATOM     19  C   UNL     1      10.248  -2.857   2.091  0.00  0.00    +0.000 A 
ATOM     20  C   UNL     1       9.438  -3.765   2.771  0.00  0.00    +0.000 A 
ENDBRANCH  11  12
ENDBRANCH   9  11
ENDBRANCH   6   7
BRANCH   1  21
ATOM     21  S   UNL     1       3.806  -3.377   5.206  0.00  0.00    +0.000 S 
BRANCH  21  25
ATOM     22  C   UNL     1       2.309  -7.099   7.418  0.00  0.00    +0.000 A 
ATOM     23  C   UNL     1       1.425  -6.046   7.178  0.00  0.00    +0.000 A 
ATOM     24  C   UNL     1       1.875  -4.908   6.493  0.00  0.00    +0.000 A 
ATOM     25  C   UNL     1       3.209  -4.824   6.067  0.00  0.00    +0.000 A 
ATOM     26  C   UNL     1       4.079  -5.891   6.307  0.00  0.00    +0.000 A 
ATOM     27  C   UNL     1       3.637  -7.025   6.989  0.00  0.00    +0.000 A 
BRANCH  22  28
ATOM     28  S   UNL     1       1.794  -8.518   8.345  0.00  0.00    +0.000 S 
ATOM     29  O   UNL     1       0.639  -8.169   9.140  0.00  0.00    +0.000 OA
ATOM     30  O   UNL     1       2.954  -9.168   8.907  0.00  0.00    +0.000 OA
BRANCH  28  31
ATOM     31  N   UNL     1       1.238  -9.541   7.136  0.00  0.00    +0.000 NA
ATOM     32  H   UNL     1       0.286  -9.838   7.359  0.00  0.00    +0.000 HD
ATOM     33  H   UNL     1       1.888 -10.318   7.014  0.00  0.00    +0.000 HD
ENDBRANCH  28  31
ENDBRANCH  22  28
ENDBRANCH  21  25
ENDBRANCH   1  21
TORSDOF 7
