REMARK  Name = 
REMARK  4 active torsions:
REMARK  status: ('A' for Active; 'I' for Inactive)
REMARK    1  A    between atoms: C_2  and  C_17
REMARK    2  A    between atoms: N_3  and  C_4
REMARK    3  A    between atoms: C_4  and  C_5
REMARK    4  A    between atoms: C_4  and  C_11
REMARK                            x       y       z     vdW  Elec       q    Type
REMARK                         _______ _______ _______ _____ _____    ______ ____
ROOT
ATOM      1  O   UNL     1       3.556  -1.859  -1.584  0.00  0.00    +0.000 OA
ATOM      2  C   UNL     1       3.741  -0.864  -0.882  0.00  0.00    +0.000 C 
ATOM      3  N   UNL     1       3.275   0.387  -1.250  0.00  0.00    +0.000 N 
ATOM      4  H   UNL     1       3.600   1.211  -0.772  0.00  0.00    +0.000 HD
ENDROOT
BRANCH   2   5
ATOM      5  C   UNL     1       4.325  -1.050   0.473  0.00  0.00    +0.000 A 
ATOM      6  C   UNL     1       3.935  -2.223   1.123  0.00  0.00    +0.000 A 
ATOM      7  C   UNL     1       4.290  -2.401   2.433  0.00  0.00    +0.000 A 
ATOM      8  C   UNL     1       5.147  -1.486   3.037  0.00  0.00    +0.000 A 
ATOM      9  C   UNL     1       5.561  -1.726   4.349  0.00  0.00    +0.000 A 
ATOM     10  C   UNL     1       6.691  -1.087   4.812  0.00  0.00    +0.000 A 
ATOM     11  F   UNL     1       7.228  -1.473   5.977  0.00  0.00    +0.000 F 
ATOM     12  C   UNL     1       7.299  -0.115   4.032  0.00  0.00    +0.000 A 
ATOM     13  F   UNL     1       8.453   0.432   4.436  0.00  0.00    +0.000 F 
ATOM     14  C   UNL     1       6.739   0.274   2.807  0.00  0.00    +0.000 A 
ATOM     15  C   UNL     1       5.654  -0.412   2.258  0.00  0.00    +0.000 A 
ATOM     16  N   UNL     1       5.167  -0.130   1.026  0.00  0.00    +0.000 NA
ENDBRANCH   2   5
BRANCH   3  17
ATOM     17  C   UNL     1       2.482   0.490  -2.481  0.00  0.00    +0.000 C 
BRANCH  17  18
ATOM     18  C   UNL     1       1.457   1.609  -2.434  0.00  0.00    +0.000 A 
ATOM     19  C   UNL     1       1.802   2.954  -2.285  0.00  0.00    +0.000 A 
ATOM     20  C   UNL     1       0.812   3.933  -2.303  0.00  0.00    +0.000 A 
ATOM     21  C   UNL     1      -0.505   3.538  -2.470  0.00  0.00    +0.000 A 
ATOM     22  N   UNL     1      -0.885   2.254  -2.616  0.00  0.00    +0.000 NA
ATOM     23  C   UNL     1       0.099   1.325  -2.600  0.00  0.00    +0.000 A 
ENDBRANCH  17  18
BRANCH  17  24
ATOM     24  C   UNL     1       3.358   0.517  -3.728  0.00  0.00    +0.000 A 
ATOM     25  C   UNL     1       3.259  -0.524  -4.655  0.00  0.00    +0.000 A 
ATOM     26  C   UNL     1       4.083  -0.511  -5.778  0.00  0.00    +0.000 A 
ATOM     27  C   UNL     1       4.986   0.530  -5.939  0.00  0.00    +0.000 A 
ATOM     28  C   UNL     1       5.033   1.518  -4.972  0.00  0.00    +0.000 A 
ATOM     29  N   UNL     1       4.246   1.538  -3.873  0.00  0.00    +0.000 NA
ENDBRANCH  17  24
ENDBRANCH   3  17
TORSDOF 4
