REMARK  Name = 
REMARK  7 active torsions:
REMARK  status: ('A' for Active; 'I' for Inactive)
REMARK    1  A    between atoms: C_2  and  C_19
REMARK    2  A    between atoms: N_3  and  C_4
REMARK    3  A    between atoms: C_4  and  C_5
REMARK    4  A    between atoms: C_4  and  C_13
REMARK    5  A    between atoms: C_5  and  N_6
REMARK    6  A    between atoms: N_21  and  C_22
REMARK    7  A    between atoms: C_24  and  O_25
REMARK                            x       y       z     vdW  Elec       q    Type
REMARK                         _______ _______ _______ _____ _____    ______ ____
ROOT
ATOM      1  O   UNL     1       3.079   2.330  -0.441  0.00  0.00    +0.000 OA
ATOM      2  C   UNL     1       3.302   1.149  -0.186  0.00  0.00    +0.000 C 
ATOM      3  N   UNL     1       2.907   0.561   0.990  0.00  0.00    +0.000 N 
ATOM      4  H   UNL     1       3.113  -0.410   1.188  0.00  0.00    +0.000 HD
ENDROOT
BRANCH   2   5
ATOM      5  C   UNL     1       3.989   0.298  -1.141  0.00  0.00    +0.000 A 
ATOM      6  C   UNL     1       4.498   0.754  -2.341  0.00  0.00    +0.000 A 
ATOM      7  N   UNL     1       5.070  -0.306  -2.998  0.00  0.00    +0.000 N 
ATOM      8  N   UNL     1       4.932  -1.453  -2.279  0.00  0.00    +0.000 NA
ATOM      9  C   UNL     1       4.297  -1.076  -1.163  0.00  0.00    +0.000 A 
BRANCH   7  10
ATOM     10  C   UNL     1       5.745  -0.282  -4.251  0.00  0.00    +0.000 A 
ATOM     11  C   UNL     1       6.211  -1.478  -4.818  0.00  0.00    +0.000 A 
ATOM     12  C   UNL     1       6.899  -1.438  -6.030  0.00  0.00    +0.000 A 
ATOM     13  C   UNL     1       7.136  -0.233  -6.684  0.00  0.00    +0.000 A 
ATOM     14  C   UNL     1       6.667   0.954  -6.130  0.00  0.00    +0.000 A 
ATOM     15  C   UNL     1       5.968   0.933  -4.921  0.00  0.00    +0.000 A 
BRANCH  12  16
ATOM     16  O   UNL     1       7.369  -2.574  -6.620  0.00  0.00    +0.000 OA
ATOM     17  H   UNL     1       7.124  -3.332  -6.064  0.00  0.00    +0.000 HD
ENDBRANCH  12  16
ENDBRANCH   7  10
ENDBRANCH   2   5
BRANCH   3  18
ATOM     18  C   UNL     1       2.201   1.339   1.999  0.00  0.00    +0.000 C 
BRANCH  18  19
ATOM     19  C   UNL     1       3.183   2.075   2.901  0.00  0.00    +0.000 A 
ATOM     20  C   UNL     1       3.160   3.478   2.961  0.00  0.00    +0.000 A 
ATOM     21  C   UNL     1       4.035   4.170   3.801  0.00  0.00    +0.000 A 
ATOM     22  C   UNL     1       4.947   3.470   4.588  0.00  0.00    +0.000 A 
ATOM     23  C   UNL     1       4.987   2.079   4.535  0.00  0.00    +0.000 A 
ATOM     24  C   UNL     1       4.113   1.384   3.695  0.00  0.00    +0.000 A 
ENDBRANCH  18  19
BRANCH  18  25
ATOM     25  C   UNL     1       1.228   0.492   2.851  0.00  0.00    +0.000 C 
BRANCH  25  26
ATOM     26  N   UNL     1       0.185  -0.189   2.081  0.00  0.00    +0.000 N 
ATOM     27  C   UNL     1      -1.011   0.462   1.827  0.00  0.00    +0.000 A 
ATOM     28  C   UNL     1      -2.027  -0.168   1.223  0.00  0.00    +0.000 A 
ATOM     29  C   UNL     1      -1.897  -1.557   0.864  0.00  0.00    +0.000 A 
ATOM     30  C   UNL     1      -0.734  -2.199   1.042  0.00  0.00    +0.000 A 
ATOM     31  C   UNL     1       0.429  -1.487   1.635  0.00  0.00    +0.000 A 
ATOM     32  O   UNL     1       1.518  -2.055   1.726  0.00  0.00    +0.000 OA
ENDBRANCH  25  26
ENDBRANCH  18  25
ENDBRANCH   3  18
TORSDOF 7
