REMARK  Name = 
REMARK  7 active torsions:
REMARK  status: ('A' for Active; 'I' for Inactive)
REMARK    1  A    between atoms: C_1  and  O_2
REMARK    2  A    between atoms: O_2  and  C_3
REMARK    3  A    between atoms: C_6  and  N_7
REMARK    4  A    between atoms: C_8  and  C_10
REMARK    5  A    between atoms: C_13  and  C_14
REMARK    6  A    between atoms: C_21  and  C_22
REMARK    7  A    between atoms: C_22  and  C_24
REMARK                            x       y       z     vdW  Elec       q    Type
REMARK                         _______ _______ _______ _____ _____    ______ ____
ROOT
ATOM      1  C   UNL     1       3.084   1.211   0.294  0.00  0.00    +0.000 A 
ATOM      2  C   UNL     1       2.718   2.149   1.258  0.00  0.00    +0.000 A 
ATOM      3  C   UNL     1       3.395   3.359   1.374  0.00  0.00    +0.000 A 
ATOM      4  C   UNL     1       4.476   3.671   0.556  0.00  0.00    +0.000 A 
ATOM      5  C   UNL     1       4.840   2.747  -0.434  0.00  0.00    +0.000 A 
ATOM      6  C   UNL     1       4.128   1.533  -0.591  0.00  0.00    +0.000 A 
ENDROOT
BRANCH   4   7
ATOM      7  N   UNL     1       5.199   4.885   0.683  0.00  0.00    +0.000 N 
ATOM      8  C   UNL     1       4.940   5.884   1.617  0.00  0.00    +0.000 C 
ATOM      9  O   UNL     1       4.087   5.833   2.498  0.00  0.00    +0.000 OA
ATOM     10  H   UNL     1       5.969   5.021   0.036  0.00  0.00    +0.000 HD
BRANCH   8  11
ATOM     11  C   UNL     1       5.731   7.143   1.554  0.00  0.00    +0.000 A 
ATOM     12  C   UNL     1       6.841   7.319   0.729  0.00  0.00    +0.000 A 
ATOM     13  F   UNL     1       7.260   6.300  -0.041  0.00  0.00    +0.000 F 
ATOM     14  C   UNL     1       7.516   8.547   0.702  0.00  0.00    +0.000 A 
ATOM     15  C   UNL     1       7.073   9.600   1.519  0.00  0.00    +0.000 A 
ATOM     16  C   UNL     1       5.974   9.431   2.358  0.00  0.00    +0.000 A 
ATOM     17  C   UNL     1       5.309   8.208   2.373  0.00  0.00    +0.000 A 
BRANCH  14  18
ATOM     18  C   UNL     1       8.690   8.802  -0.171  0.00  0.00    +0.000 C 
ATOM     19  N   UNL     1       9.141   7.788  -0.964  0.00  0.00    +0.000 N 
ATOM     20  O   UNL     1       9.244   9.895  -0.188  0.00  0.00    +0.000 OA
ATOM     21  H   UNL     1       8.741   6.859  -0.973  0.00  0.00    +0.000 HD
ATOM     22  H   UNL     1       9.947   7.972  -1.547  0.00  0.00    +0.000 HD
ENDBRANCH  14  18
ENDBRANCH   8  11
ENDBRANCH   4   7
BRANCH   6  23
ATOM     23  C   UNL     1       4.560   0.622  -1.693  0.00  0.00    +0.000 C 
ATOM     24  O   UNL     1       5.759   0.559  -1.964  0.00  0.00    +0.000 OA
BRANCH  23  25
ATOM     25  C   UNL     1       3.592  -0.170  -2.511  0.00  0.00    +0.000 A 
ATOM     26  C   UNL     1       4.027  -1.365  -3.102  0.00  0.00    +0.000 A 
ATOM     27  C   UNL     1       3.149  -2.131  -3.876  0.00  0.00    +0.000 A 
ATOM     28  C   UNL     1       1.836  -1.708  -4.069  0.00  0.00    +0.000 A 
ATOM     29  C   UNL     1       1.401  -0.512  -3.501  0.00  0.00    +0.000 A 
ATOM     30  C   UNL     1       2.280   0.264  -2.737  0.00  0.00    +0.000 A 
ENDBRANCH  23  25
ENDBRANCH   6  23
BRANCH   1  32
ATOM     31  C   UNL     1       1.428  -0.300   1.104  0.00  0.00    +0.000 C 
ATOM     32  O   UNL     1       2.481  -0.013   0.187  0.00  0.00    +0.000 OA
ENDBRANCH   1  32
TORSDOF 6
