REMARK  Name = 
REMARK  4 active torsions:
REMARK  status: ('A' for Active; 'I' for Inactive)
REMARK    1  A    between atoms: C_2  and  C_16
REMARK    2  A    between atoms: N_3  and  C_4
REMARK    3  A    between atoms: C_8  and  N_9
REMARK    4  A    between atoms: C_19  and  C_20
REMARK                            x       y       z     vdW  Elec       q    Type
REMARK                         _______ _______ _______ _____ _____    ______ ____
ROOT
ATOM      1  O   UNL     1       0.827   0.166   0.166  0.00  0.00    +0.000 OA
ATOM      2  C   UNL     1       2.027  -0.073   0.067  0.00  0.00    +0.000 C 
ATOM      3  N   UNL     1       2.702  -0.360  -1.109  0.00  0.00    +0.000 N 
ATOM      4  H   UNL     1       3.667  -0.652  -1.004  0.00  0.00    +0.000 HD
ENDROOT
BRANCH   3   5
ATOM      5  C   UNL     1       2.129  -0.355  -2.403  0.00  0.00    +0.000 A 
ATOM      6  C   UNL     1       0.881   0.211  -2.667  0.00  0.00    +0.000 A 
ATOM      7  C   UNL     1       0.342   0.182  -3.947  0.00  0.00    +0.000 A 
ATOM      8  C   UNL     1       1.059  -0.393  -4.990  0.00  0.00    +0.000 A 
ATOM      9  C   UNL     1       2.331  -0.942  -4.777  0.00  0.00    +0.000 A 
ATOM     10  C   UNL     1       2.852  -0.924  -3.465  0.00  0.00    +0.000 A 
BRANCH   9  11
ATOM     11  N   UNL     1       3.068  -1.474  -5.862  0.00  0.00    +0.000 N 
ATOM     12  C   UNL     1       4.190  -2.226  -5.816  0.00  0.00    +0.000 A 
ATOM     13  N   UNL     1       4.709  -2.538  -6.963  0.00  0.00    +0.000 NA
ATOM     14  N   UNL     1       3.865  -1.957  -7.862  0.00  0.00    +0.000 N 
ATOM     15  C   UNL     1       2.834  -1.280  -7.213  0.00  0.00    +0.000 A 
ATOM     16  O   UNL     1       1.972  -0.636  -7.787  0.00  0.00    +0.000 OA
ATOM     17  H   UNL     1       4.023  -1.964  -8.860  0.00  0.00    +0.000 HD
ENDBRANCH   9  11
ENDBRANCH   3   5
BRANCH   2  18
ATOM     18  C   UNL     1       2.849  -0.107   1.278  0.00  0.00    +0.000 A 
ATOM     19  N   UNL     1       4.178  -0.293   1.281  0.00  0.00    +0.000 NA
ATOM     20  O   UNL     1       4.556  -0.236   2.621  0.00  0.00    +0.000 OA
ATOM     21  C   UNL     1       3.455  -0.036   3.405  0.00  0.00    +0.000 A 
ATOM     22  C   UNL     1       2.354   0.053   2.595  0.00  0.00    +0.000 A 
BRANCH  21  23
ATOM     23  C   UNL     1       3.649   0.009   4.844  0.00  0.00    +0.000 A 
ATOM     24  C   UNL     1       4.834   0.480   5.420  0.00  0.00    +0.000 A 
ATOM     25  F   UNL     1       5.836   0.927   4.650  0.00  0.00    +0.000 F 
ATOM     26  C   UNL     1       5.003   0.528   6.803  0.00  0.00    +0.000 A 
ATOM     27  C   UNL     1       3.973   0.100   7.628  0.00  0.00    +0.000 A 
ATOM     28  F   UNL     1       4.130   0.140   8.956  0.00  0.00    +0.000 F 
ATOM     29  C   UNL     1       2.780  -0.365   7.096  0.00  0.00    +0.000 A 
ATOM     30  C   UNL     1       2.627  -0.403   5.713  0.00  0.00    +0.000 A 
ATOM     31  F   UNL     1       1.462  -0.857   5.225  0.00  0.00    +0.000 F 
ENDBRANCH  21  23
ENDBRANCH   2  18
TORSDOF 4
