REMARK  Name = 
REMARK  4 active torsions:
REMARK  status: ('A' for Active; 'I' for Inactive)
REMARK    1  A    between atoms: C_2  and  C_15
REMARK    2  A    between atoms: N_3  and  C_4
REMARK    3  A    between atoms: C_19  and  N_20
REMARK    4  A    between atoms: C_23  and  C_24
REMARK                            x       y       z     vdW  Elec       q    Type
REMARK                         _______ _______ _______ _____ _____    ______ ____
ROOT
ATOM      1  O   UNL     1       1.036   0.382  -0.010  0.00  0.00    +0.000 OA
ATOM      2  C   UNL     1       2.246   0.183  -0.077  0.00  0.00    +0.000 C 
ATOM      3  N   UNL     1       2.887  -0.437  -1.139  0.00  0.00    +0.000 N 
ATOM      4  H   UNL     1       3.878  -0.629  -1.060  0.00  0.00    +0.000 HD
ENDROOT
BRANCH   3   5
ATOM      5  C   UNL     1       2.253  -0.910  -2.265  0.00  0.00    +0.000 A 
ATOM      6  C   UNL     1       2.938  -1.552  -3.227  0.00  0.00    +0.000 A 
ATOM      7  C   UNL     1       2.220  -2.103  -4.385  0.00  0.00    +0.000 A 
ATOM      8  C   UNL     1       2.881  -2.854  -5.363  0.00  0.00    +0.000 A 
ATOM      9  C   UNL     1       2.161  -3.408  -6.429  0.00  0.00    +0.000 A 
ATOM     10  C   UNL     1       0.784  -3.203  -6.535  0.00  0.00    +0.000 A 
ATOM     11  C   UNL     1       0.118  -2.447  -5.574  0.00  0.00    +0.000 A 
ATOM     12  C   UNL     1       0.836  -1.909  -4.501  0.00  0.00    +0.000 A 
ATOM     13  C   UNL     1       0.130  -1.153  -3.443  0.00  0.00    +0.000 A 
ATOM     14  O   UNL     1      -1.074  -0.939  -3.502  0.00  0.00    +0.000 OA
ATOM     15  N   UNL     1       0.905  -0.729  -2.393  0.00  0.00    +0.000 N 
ATOM     16  H   UNL     1       0.421  -0.237  -1.641  0.00  0.00    +0.000 HD
ENDBRANCH   3   5
BRANCH   2  17
ATOM     17  C   UNL     1       3.089   0.599   1.067  0.00  0.00    +0.000 A 
ATOM     18  C   UNL     1       2.525   0.554   2.342  0.00  0.00    +0.000 A 
ATOM     19  C   UNL     1       3.292   0.976   3.409  0.00  0.00    +0.000 A 
ATOM     20  N   UNL     1       4.551   1.444   3.279  0.00  0.00    +0.000 NA
ATOM     21  C   UNL     1       5.069   1.520   2.022  0.00  0.00    +0.000 A 
ATOM     22  C   UNL     1       4.379   1.095   0.891  0.00  0.00    +0.000 A 
BRANCH  21  23
ATOM     23  N   UNL     1       6.358   2.108   1.864  0.00  0.00    +0.000 N 
ATOM     24  C   UNL     1       7.166   2.582   2.872  0.00  0.00    +0.000 A 
ATOM     25  C   UNL     1       8.265   3.147   2.275  0.00  0.00    +0.000 A 
ATOM     26  C   UNL     1       8.065   2.972   0.882  0.00  0.00    +0.000 A 
ATOM     27  N   UNL     1       6.922   2.298   0.640  0.00  0.00    +0.000 NA
BRANCH  26  28
ATOM     28  C   UNL     1       8.969   3.460  -0.220  0.00  0.00    +0.000 C 
ATOM     29  F   UNL     1      10.040   4.144   0.269  0.00  0.00    +0.000 F 
ATOM     30  F   UNL     1       9.470   2.442  -0.968  0.00  0.00    +0.000 F 
ATOM     31  F   UNL     1       8.331   4.305  -1.073  0.00  0.00    +0.000 F 
ENDBRANCH  26  28
ENDBRANCH  21  23
ENDBRANCH   2  17
TORSDOF 4
