REMARK  Name = 
REMARK  5 active torsions:
REMARK  status: ('A' for Active; 'I' for Inactive)
REMARK    1  A    between atoms: N_3  and  C_4
REMARK    2  A    between atoms: C_7  and  N_8
REMARK    3  A    between atoms: N_17  and  C_18
REMARK    4  A    between atoms: N_20  and  C_21
REMARK    5  A    between atoms: C_21  and  C_22
REMARK                            x       y       z     vdW  Elec       q    Type
REMARK                         _______ _______ _______ _____ _____    ______ ____
ROOT
ATOM      1  O   UNL     1       1.108   0.049   0.390  0.00  0.00    +0.000 OA
ATOM      2  C   UNL     1       2.274  -0.013   0.003  0.00  0.00    +0.000 C 
ATOM      3  N   UNL     1       2.828   0.730  -1.004  0.00  0.00    +0.000 N 
ATOM      4  N   UNL     1       3.100  -0.952   0.571  0.00  0.00    +0.000 N 
ATOM      5  H   UNL     1       3.777   0.447  -1.244  0.00  0.00    +0.000 HD
ATOM      6  H   UNL     1       2.648  -1.538   1.258  0.00  0.00    +0.000 HD
ENDROOT
BRANCH   3   7
ATOM      7  C   UNL     1       2.214   1.684  -1.825  0.00  0.00    +0.000 A 
ATOM      8  C   UNL     1       1.003   2.305  -1.523  0.00  0.00    +0.000 A 
ATOM      9  C   UNL     1       0.429   3.213  -2.423  0.00  0.00    +0.000 A 
ATOM     10  C   UNL     1       1.036   3.458  -3.658  0.00  0.00    +0.000 A 
ATOM     11  C   UNL     1       2.265   2.852  -3.947  0.00  0.00    +0.000 A 
ATOM     12  C   UNL     1       2.867   2.001  -3.020  0.00  0.00    +0.000 A 
BRANCH  10  13
ATOM     13  N   UNL     1       0.402   4.267  -4.648  0.00  0.00    +0.000 N 
ATOM     14  C   UNL     1       0.235   3.770  -5.937  0.00  0.00    +0.000 A 
ATOM     15  C   UNL     1      -0.321   4.498  -6.912  0.00  0.00    +0.000 A 
ATOM     16  C   UNL     1      -0.711   5.857  -6.653  0.00  0.00    +0.000 A 
ATOM     17  C   UNL     1      -0.593   6.371  -5.424  0.00  0.00    +0.000 A 
ATOM     18  C   UNL     1      -0.046   5.553  -4.300  0.00  0.00    +0.000 A 
ATOM     19  O   UNL     1       0.021   6.077  -3.189  0.00  0.00    +0.000 OA
ENDBRANCH  10  13
ENDBRANCH   3   7
BRANCH   4  20
ATOM     20  C   UNL     1       4.432  -1.154   0.320  0.00  0.00    +0.000 A 
ATOM     21  C   UNL     1       5.216  -2.139   0.876  0.00  0.00    +0.000 A 
ATOM     22  N   UNL     1       6.466  -1.919   0.359  0.00  0.00    +0.000 N 
ATOM     23  C   UNL     1       6.387  -0.834  -0.467  0.00  0.00    +0.000 A 
ATOM     24  N   UNL     1       5.161  -0.376  -0.540  0.00  0.00    +0.000 NA
BRANCH  22  25
ATOM     25  C   UNL     1       7.652  -2.728   0.579  0.00  0.00    +0.000 C 
BRANCH  25  26
ATOM     26  C   UNL     1       8.436  -2.249   1.772  0.00  0.00    +0.000 A 
ATOM     27  C   UNL     1       8.181  -2.776   3.047  0.00  0.00    +0.000 A 
ATOM     28  C   UNL     1       8.885  -2.312   4.159  0.00  0.00    +0.000 A 
ATOM     29  C   UNL     1       9.848  -1.316   4.010  0.00  0.00    +0.000 A 
ATOM     30  C   UNL     1      10.114  -0.788   2.748  0.00  0.00    +0.000 A 
ATOM     31  C   UNL     1       9.412  -1.250   1.634  0.00  0.00    +0.000 A 
ENDBRANCH  25  26
ENDBRANCH  22  25
ENDBRANCH   4  20
TORSDOF 5
