REMARK  Name = 
REMARK  6 active torsions:
REMARK  status: ('A' for Active; 'I' for Inactive)
REMARK    1  A    between atoms: C_2  and  C_16
REMARK    2  A    between atoms: N_3  and  C_4
REMARK    3  A    between atoms: C_4  and  C_5
REMARK    4  A    between atoms: C_8  and  C_9
REMARK    5  A    between atoms: C_21  and  O_22
REMARK    6  A    between atoms: O_22  and  C_23
REMARK                            x       y       z     vdW  Elec       q    Type
REMARK                         _______ _______ _______ _____ _____    ______ ____
ROOT
ATOM      1  O   UNL     1       1.139   0.502  -0.247  0.00  0.00    +0.000 OA
ATOM      2  C   UNL     1       2.368   0.455  -0.203  0.00  0.00    +0.000 C 
ATOM      3  N   UNL     1       3.067   1.139   0.756  0.00  0.00    +0.000 N 
ATOM      4  H   UNL     1       4.070   1.033   0.864  0.00  0.00    +0.000 HD
ENDROOT
BRANCH   2   5
ATOM      5  C   UNL     1       3.109  -0.371  -1.201  0.00  0.00    +0.000 A 
ATOM      6  C   UNL     1       2.292  -1.106  -2.079  0.00  0.00    +0.000 A 
ATOM      7  C   UNL     1       2.876  -1.901  -3.045  0.00  0.00    +0.000 A 
ATOM      8  N   UNL     1       4.204  -2.051  -3.165  0.00  0.00    +0.000 NA
ATOM      9  C   UNL     1       4.977  -1.350  -2.301  0.00  0.00    +0.000 A 
ATOM     10  C   UNL     1       4.500  -0.454  -1.339  0.00  0.00    +0.000 A 
BRANCH  10  11
ATOM     11  O   UNL     1       5.336   0.299  -0.539  0.00  0.00    +0.000 OA
BRANCH  11  12
ATOM     12  C   UNL     1       6.614   0.571  -0.992  0.00  0.00    +0.000 A 
ATOM     13  C   UNL     1       6.875   1.024  -2.293  0.00  0.00    +0.000 A 
ATOM     14  C   UNL     1       8.194   1.169  -2.730  0.00  0.00    +0.000 A 
ATOM     15  C   UNL     1       9.238   0.928  -1.846  0.00  0.00    +0.000 A 
ATOM     16  F   UNL     1      10.503   1.051  -2.271  0.00  0.00    +0.000 F 
ATOM     17  C   UNL     1       8.989   0.559  -0.528  0.00  0.00    +0.000 A 
ATOM     18  C   UNL     1       7.670   0.381  -0.096  0.00  0.00    +0.000 A 
ENDBRANCH  11  12
ENDBRANCH  10  11
ENDBRANCH   2   5
BRANCH   3  19
ATOM     19  C   UNL     1       2.347   1.944   1.725  0.00  0.00    +0.000 C 
BRANCH  19  20
ATOM     20  C   UNL     1       3.291   2.714   2.572  0.00  0.00    +0.000 A 
ATOM     21  N   UNL     1       2.963   3.895   3.111  0.00  0.00    +0.000 NA
ATOM     22  O   UNL     1       4.111   4.252   3.813  0.00  0.00    +0.000 OA
ATOM     23  C   UNL     1       5.019   3.246   3.628  0.00  0.00    +0.000 A 
ATOM     24  N   UNL     1       4.564   2.273   2.867  0.00  0.00    +0.000 NA
BRANCH  23  25
ATOM     25  C   UNL     1       6.309   3.398   4.287  0.00  0.00    +0.000 A 
ATOM     26  C   UNL     1       6.631   4.553   5.015  0.00  0.00    +0.000 A 
ATOM     27  C   UNL     1       7.874   4.680   5.640  0.00  0.00    +0.000 A 
ATOM     28  C   UNL     1       8.811   3.655   5.546  0.00  0.00    +0.000 A 
ATOM     29  C   UNL     1       8.507   2.501   4.828  0.00  0.00    +0.000 A 
ATOM     30  C   UNL     1       7.264   2.372   4.202  0.00  0.00    +0.000 A 
ENDBRANCH  23  25
ENDBRANCH  19  20
ENDBRANCH   3  19
TORSDOF 6
