REMARK  Name = 
REMARK  7 active torsions:
REMARK  status: ('A' for Active; 'I' for Inactive)
REMARK    1  A    between atoms: C_1  and  C_2
REMARK    2  A    between atoms: C_5  and  N_6
REMARK    3  A    between atoms: C_9  and  C_10
REMARK    4  A    between atoms: C_10  and  N_11
REMARK    5  A    between atoms: C_12  and  C_14
REMARK    6  A    between atoms: C_17  and  N_18
REMARK    7  A    between atoms: C_19  and  C_21
REMARK                            x       y       z     vdW  Elec       q    Type
REMARK                         _______ _______ _______ _____ _____    ______ ____
ROOT
ATOM      1  N   UNL     1      -6.090  -1.529   2.518  0.00  0.00    +0.000 N 
ATOM      2  C   UNL     1      -6.997  -2.125   3.375  0.00  0.00    +0.000 C 
ATOM      3  O   UNL     1      -8.210  -2.038   3.228  0.00  0.00    +0.000 OA
ATOM      4  H   UNL     1      -5.122  -1.413   2.778  0.00  0.00    +0.000 HD
ENDROOT
BRANCH   2   5
ATOM      5  C   UNL     1      -6.439  -2.908   4.527  0.00  0.00    +0.000 A 
ATOM      6  C   UNL     1      -5.069  -3.158   4.638  0.00  0.00    +0.000 A 
ATOM      7  C   UNL     1      -4.562  -3.897   5.706  0.00  0.00    +0.000 A 
ATOM      8  C   UNL     1      -5.393  -4.416   6.700  0.00  0.00    +0.000 A 
ATOM      9  C   UNL     1      -6.769  -4.184   6.590  0.00  0.00    +0.000 A 
ATOM     10  C   UNL     1      -7.290  -3.438   5.508  0.00  0.00    +0.000 A 
BRANCH   8  11
ATOM     11  N   UNL     1      -4.894  -5.150   7.798  0.00  0.00    +0.000 N 
ATOM     12  C   UNL     1      -3.564  -5.472   8.046  0.00  0.00    +0.000 C 
ATOM     13  O   UNL     1      -2.619  -5.198   7.313  0.00  0.00    +0.000 OA
ATOM     14  H   UNL     1      -5.558  -5.470   8.495  0.00  0.00    +0.000 HD
BRANCH  12  15
ATOM     15  C   UNL     1      -3.341  -6.182   9.289  0.00  0.00    +0.000 A 
ATOM     16  C   UNL     1      -2.163  -6.650   9.844  0.00  0.00    +0.000 A 
ATOM     17  C   UNL     1      -2.503  -7.243  11.079  0.00  0.00    +0.000 A 
ATOM     18  C   UNL     1      -3.865  -7.113  11.202  0.00  0.00    +0.000 A 
ATOM     19  O   UNL     1      -4.389  -6.472  10.124  0.00  0.00    +0.000 OA
ENDBRANCH  12  15
ENDBRANCH   8  11
ENDBRANCH   2   5
BRANCH   1  20
ATOM     20  C   UNL     1      -6.503  -0.710   1.401  0.00  0.00    +0.000 C 
BRANCH  20  24
ATOM     21  N   UNL     1      -3.772  -0.687  -0.954  0.00  0.00    +0.000 N 
ATOM     22  C   UNL     1      -4.760  -1.147  -1.799  0.00  0.00    +0.000 A 
ATOM     23  C   UNL     1      -5.905  -1.278  -1.058  0.00  0.00    +0.000 A 
ATOM     24  C   UNL     1      -5.555  -0.859   0.243  0.00  0.00    +0.000 A 
ATOM     25  N   UNL     1      -4.249  -0.540   0.322  0.00  0.00    +0.000 NA
BRANCH  21  30
ATOM     26  C   UNL     1       1.692   0.458  -2.347  0.00  0.00    +0.000 C 
ATOM     27  C   UNL     1       0.259   0.185  -1.992  0.00  0.00    +0.000 A 
ATOM     28  C   UNL     1      -0.665  -0.163  -2.980  0.00  0.00    +0.000 A 
ATOM     29  C   UNL     1      -1.992  -0.447  -2.642  0.00  0.00    +0.000 A 
ATOM     30  C   UNL     1      -2.422  -0.382  -1.306  0.00  0.00    +0.000 A 
ATOM     31  C   UNL     1      -1.500  -0.015  -0.317  0.00  0.00    +0.000 A 
ATOM     32  C   UNL     1      -0.168   0.257  -0.660  0.00  0.00    +0.000 A 
ENDBRANCH  21  30
ENDBRANCH  20  24
ENDBRANCH   1  20
TORSDOF 6
