REMARK  Name = 
REMARK  5 active torsions:
REMARK  status: ('A' for Active; 'I' for Inactive)
REMARK    1  A    between atoms: C_1  and  C_2
REMARK    2  A    between atoms: C_5  and  N_6
REMARK    3  A    between atoms: C_9  and  C_10
REMARK    4  A    between atoms: C_10  and  N_11
REMARK    5  A    between atoms: C_12  and  C_14
REMARK                            x       y       z     vdW  Elec       q    Type
REMARK                         _______ _______ _______ _____ _____    ______ ____
ROOT
ATOM      1  N   UNL     1      -6.043  -1.498   2.515  0.00  0.00    +0.000 N 
ATOM      2  C   UNL     1      -5.784  -2.846   2.592  0.00  0.00    +0.000 C 
ATOM      3  O   UNL     1      -5.958  -3.625   1.662  0.00  0.00    +0.000 OA
ATOM      4  H   UNL     1      -5.920  -0.897   3.314  0.00  0.00    +0.000 HD
ENDROOT
BRANCH   2   5
ATOM      5  C   UNL     1      -5.273  -3.294   3.939  0.00  0.00    +0.000 A 
ATOM      6  C   UNL     1      -5.312  -4.612   4.191  0.00  0.00    +0.000 A 
ATOM      7  C   UNL     1      -4.824  -5.103   5.503  0.00  0.00    +0.000 A 
ATOM      8  O   UNL     1      -4.853  -6.295   5.776  0.00  0.00    +0.000 OA
ATOM      9  C   UNL     1      -4.296  -4.104   6.464  0.00  0.00    +0.000 A 
ATOM     10  C   UNL     1      -3.836  -4.500   7.723  0.00  0.00    +0.000 A 
ATOM     11  C   UNL     1      -3.352  -3.534   8.598  0.00  0.00    +0.000 A 
ATOM     12  F   UNL     1      -2.924  -3.900   9.812  0.00  0.00    +0.000 F 
ATOM     13  C   UNL     1      -3.312  -2.191   8.241  0.00  0.00    +0.000 A 
ATOM     14  C   UNL     1      -3.769  -1.816   6.984  0.00  0.00    +0.000 A 
ATOM     15  F   UNL     1      -3.746  -0.519   6.639  0.00  0.00    +0.000 F 
ATOM     16  C   UNL     1      -4.255  -2.758   6.072  0.00  0.00    +0.000 A 
ATOM     17  N   UNL     1      -4.808  -2.358   4.844  0.00  0.00    +0.000 N 
ATOM     18  H   UNL     1      -4.457  -1.480   4.470  0.00  0.00    +0.000 HD
ENDBRANCH   2   5
BRANCH   1  19
ATOM     19  C   UNL     1      -6.500  -0.877   1.292  0.00  0.00    +0.000 C 
BRANCH  19  23
ATOM     20  N   UNL     1      -3.817   0.851  -0.339  0.00  0.00    +0.000 N 
ATOM     21  C   UNL     1      -3.671  -0.365  -0.971  0.00  0.00    +0.000 A 
ATOM     22  C   UNL     1      -4.620  -1.210  -0.458  0.00  0.00    +0.000 A 
ATOM     23  C   UNL     1      -5.322  -0.436   0.486  0.00  0.00    +0.000 A 
ATOM     24  N   UNL     1      -4.809   0.800   0.597  0.00  0.00    +0.000 NA
BRANCH  20  29
ATOM     25  C   UNL     1      -0.752   5.620  -1.260  0.00  0.00    +0.000 C 
ATOM     26  C   UNL     1      -1.571   4.382  -1.038  0.00  0.00    +0.000 A 
ATOM     27  C   UNL     1      -1.378   3.252  -1.834  0.00  0.00    +0.000 A 
ATOM     28  C   UNL     1      -2.118   2.089  -1.608  0.00  0.00    +0.000 A 
ATOM     29  C   UNL     1      -3.070   2.041  -0.579  0.00  0.00    +0.000 A 
ATOM     30  C   UNL     1      -3.279   3.178   0.210  0.00  0.00    +0.000 A 
ATOM     31  C   UNL     1      -2.527   4.339  -0.015  0.00  0.00    +0.000 A 
ENDBRANCH  20  29
ENDBRANCH  19  23
ENDBRANCH   1  19
TORSDOF 4
