REMARK  Name = 
REMARK  5 active torsions:
REMARK  status: ('A' for Active; 'I' for Inactive)
REMARK    1  A    between atoms: C_4  and  C_5
REMARK    2  A    between atoms: C_8  and  C_9
REMARK    3  A    between atoms: N_11  and  C_12
REMARK    4  A    between atoms: C_17  and  C_18
REMARK    5  A    between atoms: C_18  and  C_20
REMARK                            x       y       z     vdW  Elec       q    Type
REMARK                         _______ _______ _______ _____ _____    ______ ____
ROOT
ATOM      1  C   UNL     1      -2.028   1.518  -6.033  0.00  0.00    +0.000 C 
ATOM      2  O   UNL     1      -2.773   2.449  -6.301  0.00  0.00    +0.000 OA
ATOM      3  N   UNL     1      -1.215   0.832  -6.935  0.00  0.00    +0.000 N 
ATOM      4  H   UNL     1      -0.742  -0.007  -6.628  0.00  0.00    +0.000 HD
ENDROOT
BRANCH   3   5
ATOM      5  C   UNL     1      -1.111   1.156  -8.305  0.00  0.00    +0.000 A 
ATOM      6  C   UNL     1      -1.529   2.396  -8.803  0.00  0.00    +0.000 A 
ATOM      7  C   UNL     1      -1.539   2.656 -10.166  0.00  0.00    +0.000 A 
ATOM      8  C   UNL     1      -1.108   1.679 -11.046  0.00  0.00    +0.000 A 
ATOM      9  F   UNL     1      -1.207   1.944 -12.354  0.00  0.00    +0.000 F 
ATOM     10  C   UNL     1      -0.581   0.472 -10.577  0.00  0.00    +0.000 A 
ATOM     11  C   UNL     1      -0.593   0.204  -9.196  0.00  0.00    +0.000 A 
BRANCH  10  12
ATOM     12  C   UNL     1      -0.032  -0.552 -11.507  0.00  0.00    +0.000 C 
ATOM     13  O   UNL     1      -0.084  -1.736 -11.193  0.00  0.00    +0.000 OA
BRANCH  12  14
ATOM     14  C   UNL     1       0.644  -0.163 -12.777  0.00  0.00    +0.000 A 
ATOM     15  C   UNL     1       0.638  -1.037 -13.869  0.00  0.00    +0.000 A 
ATOM     16  C   UNL     1       1.325  -0.696 -15.036  0.00  0.00    +0.000 A 
ATOM     17  C   UNL     1       2.009   0.520 -15.114  0.00  0.00    +0.000 A 
ATOM     18  C   UNL     1       2.006   1.398 -14.036  0.00  0.00    +0.000 A 
ATOM     19  C   UNL     1       1.343   1.049 -12.863  0.00  0.00    +0.000 A 
ENDBRANCH  12  14
ENDBRANCH  10  12
ENDBRANCH   3   5
BRANCH   1  23
ATOM     20  C   UNL     1      -1.949   0.397  -1.883  0.00  0.00    +0.000 A 
ATOM     21  C   UNL     1      -1.722  -0.568  -2.881  0.00  0.00    +0.000 A 
ATOM     22  C   UNL     1      -1.739  -0.234  -4.237  0.00  0.00    +0.000 A 
ATOM     23  C   UNL     1      -1.991   1.080  -4.618  0.00  0.00    +0.000 A 
ATOM     24  C   UNL     1      -2.240   2.050  -3.635  0.00  0.00    +0.000 A 
ATOM     25  C   UNL     1      -2.202   1.710  -2.279  0.00  0.00    +0.000 A 
BRANCH  20  29
ATOM     26  O   UNL     1       0.133  -2.838  -0.242  0.00  0.00    +0.000 OA
ATOM     27  C   UNL     1      -0.748  -2.004  -0.128  0.00  0.00    +0.000 C 
ATOM     28  C   UNL     1      -0.563  -0.518   0.048  0.00  0.00    +0.000 C 
ATOM     29  C   UNL     1      -1.921   0.047  -0.398  0.00  0.00    +0.000 C 
ATOM     30  C   UNL     1      -2.896  -1.079  -0.046  0.00  0.00    +0.000 C 
ATOM     31  N   UNL     1      -2.101  -2.270  -0.138  0.00  0.00    +0.000 N 
ATOM     32  H   UNL     1      -2.452  -3.212  -0.267  0.00  0.00    +0.000 HD
ENDBRANCH  20  29
ENDBRANCH   1  23
TORSDOF 5
