REMARK  Name = 
REMARK  4 active torsions:
REMARK  status: ('A' for Active; 'I' for Inactive)
REMARK    1  A    between atoms: C_1  and  C_2
REMARK    2  A    between atoms: N_4  and  C_5
REMARK    3  A    between atoms: C_14  and  C_16
REMARK    4  A    between atoms: N_18  and  C_19
REMARK                            x       y       z     vdW  Elec       q    Type
REMARK                         _______ _______ _______ _____ _____    ______ ____
ROOT
ATOM      1  C   UNL     1       5.709  -1.341  -0.393  0.00  0.00    +0.000 C 
ATOM      2  C   UNL     1       4.447  -0.596  -0.168  0.00  0.00    +0.000 A 
ATOM      3  C   UNL     1       4.324   0.777  -0.164  0.00  0.00    +0.000 A 
ATOM      4  N   UNL     1       3.008   1.071   0.098  0.00  0.00    +0.000 N 
ATOM      5  N   UNL     1       2.285  -0.054   0.261  0.00  0.00    +0.000 NA
ATOM      6  C   UNL     1       3.125  -1.068   0.080  0.00  0.00    +0.000 A 
ATOM      7  N   UNL     1       2.744  -2.397   0.117  0.00  0.00    +0.000 N 
ATOM      8  C   UNL     1       1.449  -2.838   0.349  0.00  0.00    +0.000 C 
ATOM      9  O   UNL     1       0.467  -2.165   0.631  0.00  0.00    +0.000 OA
ATOM     10  H   UNL     1       3.469  -3.078  -0.087  0.00  0.00    +0.000 HD
ENDROOT
BRANCH   8  11
ATOM     11  C   UNL     1       1.250  -4.357   0.217  0.00  0.00    +0.000 A 
ATOM     12  N   UNL     1       0.053  -4.836   0.453  0.00  0.00    +0.000 NA
ATOM     13  N   UNL     1      -0.155  -6.192   0.325  0.00  0.00    +0.000 N 
ATOM     14  C   UNL     1       0.822  -7.038  -0.159  0.00  0.00    +0.000 A 
ATOM     15  C   UNL     1       2.074  -6.683  -0.447  0.00  0.00    +0.000 A 
ATOM     16  C   UNL     1       2.380  -5.274  -0.204  0.00  0.00    +0.000 A 
ATOM     17  O   UNL     1       3.515  -4.832  -0.356  0.00  0.00    +0.000 OA
BRANCH  13  18
ATOM     18  C   UNL     1      -1.514  -6.637   0.471  0.00  0.00    +0.000 A 
ATOM     19  C   UNL     1      -2.591  -5.788   0.160  0.00  0.00    +0.000 A 
ATOM     20  C   UNL     1      -3.908  -6.269   0.134  0.00  0.00    +0.000 A 
ATOM     21  C   UNL     1      -4.181  -7.598   0.452  0.00  0.00    +0.000 A 
ATOM     22  C   UNL     1      -3.143  -8.437   0.838  0.00  0.00    +0.000 A 
ATOM     23  C   UNL     1      -1.834  -7.955   0.855  0.00  0.00    +0.000 A 
ATOM     24  F   UNL     1      -0.873  -8.803   1.259  0.00  0.00    +0.000 F 
ENDBRANCH  13  18
ENDBRANCH   8  11
BRANCH   4  25
ATOM     25  C   UNL     1       2.409   2.356   0.202  0.00  0.00    +0.000 A 
ATOM     26  C   UNL     1       3.145   3.517  -0.074  0.00  0.00    +0.000 A 
ATOM     27  C   UNL     1       2.543   4.772   0.040  0.00  0.00    +0.000 A 
ATOM     28  C   UNL     1       1.210   4.875   0.433  0.00  0.00    +0.000 A 
ATOM     29  C   UNL     1       0.471   3.725   0.706  0.00  0.00    +0.000 A 
ATOM     30  C   UNL     1       1.064   2.466   0.587  0.00  0.00    +0.000 A 
ENDBRANCH   4  25
TORSDOF 3
