REMARK  Name = 
REMARK  7 active torsions:
REMARK  status: ('A' for Active; 'I' for Inactive)
REMARK    1  A    between atoms: C_1  and  O_2
REMARK    2  A    between atoms: O_2  and  C_3
REMARK    3  A    between atoms: C_5  and  C_6
REMARK    4  A    between atoms: N_8  and  C_9
REMARK    5  A    between atoms: C_12  and  C_13
REMARK    6  A    between atoms: C_14  and  C_15
REMARK    7  A    between atoms: C_15  and  C_17
REMARK                            x       y       z     vdW  Elec       q    Type
REMARK                         _______ _______ _______ _____ _____    ______ ____
ROOT
ATOM      1  C   UNL     1       5.405   3.747   0.468  0.00  0.00    +0.000 C 
ATOM      2  O   UNL     1       5.125   3.919  -0.716  0.00  0.00    +0.000 OA
ATOM      3  N   UNL     1       6.453   4.336   1.159  0.00  0.00    +0.000 N 
ATOM      4  H   UNL     1       6.686   3.959   2.076  0.00  0.00    +0.000 HD
ENDROOT
BRANCH   1   7
ATOM      5  C   UNL     1       3.370   0.622   0.945  0.00  0.00    +0.000 A 
ATOM      6  C   UNL     1       4.190   1.617   0.417  0.00  0.00    +0.000 A 
ATOM      7  C   UNL     1       4.599   2.735   1.190  0.00  0.00    +0.000 A 
ATOM      8  C   UNL     1       4.188   2.894   2.520  0.00  0.00    +0.000 A 
ATOM      9  C   UNL     1       3.349   1.915   3.005  0.00  0.00    +0.000 A 
ATOM     10  C   UNL     1       2.943   0.818   2.239  0.00  0.00    +0.000 A 
ATOM     11  N   UNL     1       2.096   0.039   3.022  0.00  0.00    +0.000 N 
ATOM     12  C   UNL     1       1.963   0.637   4.281  0.00  0.00    +0.000 A 
ATOM     13  O   UNL     1       1.300   0.231   5.218  0.00  0.00    +0.000 OA
ATOM     14  N   UNL     1       2.749   1.801   4.257  0.00  0.00    +0.000 N 
ATOM     15  H   UNL     1       1.635  -0.809   2.731  0.00  0.00    +0.000 HD
ATOM     16  H   UNL     1       2.826   2.428   5.041  0.00  0.00    +0.000 HD
BRANCH   5  18
ATOM     17  C   UNL     1       3.831  -0.921  -0.764  0.00  0.00    +0.000 C 
ATOM     18  O   UNL     1       2.952  -0.489   0.275  0.00  0.00    +0.000 OA
ENDBRANCH   5  18
ENDBRANCH   1   7
BRANCH   3  19
ATOM     19  C   UNL     1       7.385   5.226   0.578  0.00  0.00    +0.000 A 
ATOM     20  C   UNL     1       7.159   5.862  -0.648  0.00  0.00    +0.000 A 
ATOM     21  C   UNL     1       8.153   6.633  -1.248  0.00  0.00    +0.000 A 
ATOM     22  C   UNL     1       9.391   6.830  -0.625  0.00  0.00    +0.000 A 
ATOM     23  C   UNL     1      10.439   7.603  -1.376  0.00  0.00    +0.000 C 
ATOM     24  C   UNL     1       9.591   6.276   0.657  0.00  0.00    +0.000 A 
ATOM     25  C   UNL     1       8.595   5.460   1.232  0.00  0.00    +0.000 A 
BRANCH  24  26
ATOM     26  C   UNL     1      10.876   6.491   1.395  0.00  0.00    +0.000 C 
ATOM     27  O   UNL     1      11.936   6.566   0.783  0.00  0.00    +0.000 OA
BRANCH  26  28
ATOM     28  C   UNL     1      10.914   6.574   2.883  0.00  0.00    +0.000 A 
ATOM     29  C   UNL     1       9.862   7.112   3.632  0.00  0.00    +0.000 A 
ATOM     30  C   UNL     1       9.939   7.137   5.028  0.00  0.00    +0.000 A 
ATOM     31  C   UNL     1      11.077   6.649   5.673  0.00  0.00    +0.000 A 
ATOM     32  C   UNL     1      12.142   6.145   4.931  0.00  0.00    +0.000 A 
ATOM     33  C   UNL     1      12.064   6.109   3.536  0.00  0.00    +0.000 A 
ENDBRANCH  26  28
ENDBRANCH  24  26
ENDBRANCH   3  19
TORSDOF 5
