REMARK  Name = 
REMARK  6 active torsions:
REMARK  status: ('A' for Active; 'I' for Inactive)
REMARK    1  A    between atoms: C_2  and  C_16
REMARK    2  A    between atoms: N_3  and  C_4
REMARK    3  A    between atoms: C_4  and  C_5
REMARK    4  A    between atoms: C_20  and  C_21
REMARK    5  A    between atoms: C_21  and  O_22
REMARK    6  A    between atoms: O_22  and  C_23
REMARK                            x       y       z     vdW  Elec       q    Type
REMARK                         _______ _______ _______ _____ _____    ______ ____
ROOT
ATOM      1  O   UNL     1       0.971  -0.060   0.066  0.00  0.00    +0.000 OA
ATOM      2  C   UNL     1       2.201  -0.080   0.057  0.00  0.00    +0.000 C 
ATOM      3  N   UNL     1       2.929  -0.718  -0.923  0.00  0.00    +0.000 N 
ATOM      4  H   UNL     1       3.936  -0.753  -0.812  0.00  0.00    +0.000 HD
ENDROOT
BRANCH   2   5
ATOM      5  C   UNL     1       2.976   0.602   1.139  0.00  0.00    +0.000 A 
ATOM      6  C   UNL     1       2.261   1.174   2.172  0.00  0.00    +0.000 A 
ATOM      7  C   UNL     1       3.010   1.788   3.135  0.00  0.00    +0.000 A 
ATOM      8  N   UNL     1       4.352   1.855   3.090  0.00  0.00    +0.000 NA
ATOM      9  C   UNL     1       4.971   1.271   2.039  0.00  0.00    +0.000 A 
ATOM     10  N   UNL     1       4.329   0.629   1.036  0.00  0.00    +0.000 NA
BRANCH   9  11
ATOM     11  C   UNL     1       6.482   1.399   1.978  0.00  0.00    +0.000 C 
BRANCH  11  12
ATOM     12  O   UNL     1       7.102   0.316   2.677  0.00  0.00    +0.000 OA
BRANCH  12  13
ATOM     13  C   UNL     1       8.469   0.341   2.766  0.00  0.00    +0.000 A 
ATOM     14  C   UNL     1       9.316   1.283   2.178  0.00  0.00    +0.000 A 
ATOM     15  C   UNL     1      10.702   1.189   2.350  0.00  0.00    +0.000 A 
ATOM     16  C   UNL     1      11.248   0.159   3.114  0.00  0.00    +0.000 A 
ATOM     17  C   UNL     1      10.409  -0.783   3.703  0.00  0.00    +0.000 A 
ATOM     18  C   UNL     1       9.027  -0.694   3.524  0.00  0.00    +0.000 A 
ENDBRANCH  12  13
ENDBRANCH  11  12
ENDBRANCH   9  11
ENDBRANCH   2   5
BRANCH   3  19
ATOM     19  C   UNL     1       2.268  -1.471  -1.966  0.00  0.00    +0.000 C 
BRANCH  19  20
ATOM     20  C   UNL     1       2.051  -2.902  -1.569  0.00  0.00    +0.000 A 
ATOM     21  C   UNL     1       0.895  -3.295  -0.910  0.00  0.00    +0.000 A 
ATOM     22  N   UNL     1       0.643  -4.559  -0.500  0.00  0.00    +0.000 NA
ATOM     23  C   UNL     1       1.581  -5.506  -0.716  0.00  0.00    +0.000 A 
ATOM     24  C   UNL     1       1.396  -6.823  -0.289  0.00  0.00    +0.000 A 
ATOM     25  F   UNL     1       0.261  -7.168   0.344  0.00  0.00    +0.000 F 
ATOM     26  C   UNL     1       2.353  -7.818  -0.481  0.00  0.00    +0.000 A 
ATOM     27  C   UNL     1       3.546  -7.511  -1.128  0.00  0.00    +0.000 A 
ATOM     28  C   UNL     1       3.764  -6.210  -1.576  0.00  0.00    +0.000 A 
ATOM     29  C   UNL     1       2.795  -5.207  -1.374  0.00  0.00    +0.000 A 
ATOM     30  C   UNL     1       3.011  -3.888  -1.804  0.00  0.00    +0.000 A 
ENDBRANCH  19  20
ENDBRANCH   3  19
TORSDOF 6
