REMARK  Name = 
REMARK  7 active torsions:
REMARK  status: ('A' for Active; 'I' for Inactive)
REMARK    1  A    between atoms: C_1  and  N_2
REMARK    2  A    between atoms: C_7  and  C_8
REMARK    3  A    between atoms: N_10  and  C_11
REMARK    4  A    between atoms: C_14  and  O_15
REMARK    5  A    between atoms: O_15  and  C_16
REMARK    6  A    between atoms: C_16  and  C_17
REMARK    7  A    between atoms: C_21  and  C_22
REMARK                            x       y       z     vdW  Elec       q    Type
REMARK                         _______ _______ _______ _____ _____    ______ ____
ROOT
ATOM      1  C   UNL     1      10.819  -1.359   0.014  0.00  0.00    +0.000 A 
ATOM      2  C   UNL     1      11.805  -1.080   0.962  0.00  0.00    +0.000 A 
ATOM      3  C   UNL     1      13.005  -1.784   0.985  0.00  0.00    +0.000 A 
ATOM      4  C   UNL     1      13.252  -2.776   0.042  0.00  0.00    +0.000 A 
ATOM      5  C   UNL     1      12.242  -3.102  -0.868  0.00  0.00    +0.000 A 
ATOM      6  F   UNL     1      12.438  -4.075  -1.772  0.00  0.00    +0.000 F 
ATOM      7  C   UNL     1      11.028  -2.408  -0.884  0.00  0.00    +0.000 A 
ENDROOT
BRANCH   1  10
ATOM      8  C   UNL     1       9.424   0.613   0.561  0.00  0.00    +0.000 C 
ATOM      9  O   UNL     1      10.285   1.296   1.109  0.00  0.00    +0.000 OA
ATOM     10  N   UNL     1       9.616  -0.621  -0.045  0.00  0.00    +0.000 N 
ATOM     11  H   UNL     1       8.900  -0.963  -0.675  0.00  0.00    +0.000 HD
BRANCH   8  18
ATOM     12  C   UNL     1       2.283   1.694   0.354  0.00  0.00    +0.000 C 
ATOM     13  N   UNL     1       3.721   1.809   0.411  0.00  0.00    +0.000 N 
ATOM     14  C   UNL     1       4.439   2.966   0.393  0.00  0.00    +0.000 A 
ATOM     15  C   UNL     1       5.738   2.559   0.433  0.00  0.00    +0.000 A 
ATOM     16  N   UNL     1       6.827   3.358   0.429  0.00  0.00    +0.000 NA
ATOM     17  C   UNL     1       7.969   2.603   0.470  0.00  0.00    +0.000 A 
ATOM     18  C   UNL     1       8.068   1.187   0.491  0.00  0.00    +0.000 A 
ATOM     19  C   UNL     1       6.926   0.370   0.513  0.00  0.00    +0.000 A 
ATOM     20  C   UNL     1       5.738   1.115   0.476  0.00  0.00    +0.000 A 
ATOM     21  N   UNL     1       4.465   0.681   0.470  0.00  0.00    +0.000 NA
ENDBRANCH   8  18
ENDBRANCH   1  10
BRANCH   4  22
ATOM     22  O   UNL     1      14.435  -3.458  -0.043  0.00  0.00    +0.000 OA
BRANCH  22  23
ATOM     23  C   UNL     1      15.559  -2.764   0.514  0.00  0.00    +0.000 C 
BRANCH  23  24
ATOM     24  C   UNL     1      16.854  -3.320  -0.022  0.00  0.00    +0.000 A 
ATOM     25  C   UNL     1      18.028  -3.204   0.737  0.00  0.00    +0.000 A 
ATOM     26  C   UNL     1      19.243  -3.672   0.237  0.00  0.00    +0.000 A 
ATOM     27  C   UNL     1      19.298  -4.247  -1.032  0.00  0.00    +0.000 A 
ATOM     28  C   UNL     1      18.140  -4.343  -1.809  0.00  0.00    +0.000 A 
ATOM     29  C   UNL     1      16.925  -3.873  -1.308  0.00  0.00    +0.000 A 
BRANCH  28  30
ATOM     30  C   UNL     1      18.200  -4.912  -3.120  0.00  0.00    +0.000 C 
ATOM     31  N   UNL     1      18.254  -5.370  -4.187  0.00  0.00    +0.000 NA
ENDBRANCH  28  30
ENDBRANCH  23  24
ENDBRANCH  22  23
ENDBRANCH   4  22
TORSDOF 6
