REMARK  Name = 
REMARK  7 active torsions:
REMARK  status: ('A' for Active; 'I' for Inactive)
REMARK    1  A    between atoms: C_1  and  O_2
REMARK    2  A    between atoms: O_2  and  C_3
REMARK    3  A    between atoms: C_7  and  O_8
REMARK    4  A    between atoms: O_8  and  C_9
REMARK    5  A    between atoms: C_9  and  C_10
REMARK    6  A    between atoms: C_16  and  C_17
REMARK    7  A    between atoms: N_19  and  C_20
REMARK                            x       y       z     vdW  Elec       q    Type
REMARK                         _______ _______ _______ _____ _____    ______ ____
ROOT
ATOM      1  C   UNL     1       3.080   1.092  -0.728  0.00  0.00    +0.000 A 
ATOM      2  C   UNL     1       2.688   2.395  -0.385  0.00  0.00    +0.000 A 
ATOM      3  C   UNL     1       3.368   3.499  -0.897  0.00  0.00    +0.000 A 
ATOM      4  C   UNL     1       4.503   3.313  -1.680  0.00  0.00    +0.000 A 
ATOM      5  C   UNL     1       4.944   2.024  -2.000  0.00  0.00    +0.000 A 
ATOM      6  C   UNL     1       4.164   0.910  -1.619  0.00  0.00    +0.000 A 
ENDROOT
BRANCH   6   7
ATOM      7  C   UNL     1       4.442  -0.418  -2.255  0.00  0.00    +0.000 C 
ATOM      8  O   UNL     1       4.766  -0.462  -3.437  0.00  0.00    +0.000 OA
ATOM      9  N   UNL     1       4.358  -1.517  -1.435  0.00  0.00    +0.000 N 
ATOM     10  H   UNL     1       3.840  -1.403  -0.567  0.00  0.00    +0.000 HD
BRANCH   9  11
ATOM     11  C   UNL     1       5.003  -2.762  -1.607  0.00  0.00    +0.000 A 
ATOM     12  C   UNL     1       6.008  -3.012  -2.545  0.00  0.00    +0.000 A 
ATOM     13  C   UNL     1       6.715  -4.225  -2.519  0.00  0.00    +0.000 A 
ATOM     14  C   UNL     1       6.459  -5.173  -1.525  0.00  0.00    +0.000 A 
ATOM     15  C   UNL     1       5.478  -4.905  -0.573  0.00  0.00    +0.000 A 
ATOM     16  C   UNL     1       4.715  -3.740  -0.646  0.00  0.00    +0.000 A 
ATOM     17  N   UNL     1       3.618  -3.577   0.236  0.00  0.00    +0.000 N 
ATOM     18  C   UNL     1       3.720  -4.278   1.405  0.00  0.00    +0.000 A 
ATOM     19  N   UNL     1       4.474  -5.291   1.649  0.00  0.00    +0.000 NA
ATOM     20  C   UNL     1       5.250  -5.772   0.608  0.00  0.00    +0.000 A 
ATOM     21  O   UNL     1       5.753  -6.884   0.622  0.00  0.00    +0.000 OA
ATOM     22  H   UNL     1       2.772  -3.847  -0.275  0.00  0.00    +0.000 HD
ENDBRANCH   9  11
ENDBRANCH   6   7
BRANCH   1  24
ATOM     23  C   UNL     1       1.379   0.153   0.670  0.00  0.00    +0.000 C 
ATOM     24  O   UNL     1       2.468  -0.035  -0.231  0.00  0.00    +0.000 OA
ENDBRANCH   1  24
BRANCH   5  25
ATOM     25  O   UNL     1       6.146   2.020  -2.668  0.00  0.00    +0.000 OA
BRANCH  25  26
ATOM     26  C   UNL     1       7.040   0.933  -2.388  0.00  0.00    +0.000 C 
BRANCH  26  27
ATOM     27  C   UNL     1       8.417   1.392  -1.970  0.00  0.00    +0.000 A 
ATOM     28  C   UNL     1       9.176   0.566  -1.123  0.00  0.00    +0.000 A 
ATOM     29  C   UNL     1      10.466   0.930  -0.742  0.00  0.00    +0.000 A 
ATOM     30  C   UNL     1      11.018   2.114  -1.223  0.00  0.00    +0.000 A 
ATOM     31  C   UNL     1      10.284   2.931  -2.080  0.00  0.00    +0.000 A 
ATOM     32  C   UNL     1       8.988   2.572  -2.456  0.00  0.00    +0.000 A 
ENDBRANCH  26  27
ENDBRANCH  25  26
ENDBRANCH   5  25
TORSDOF 6
