REMARK  Name = 
REMARK  6 active torsions:
REMARK  status: ('A' for Active; 'I' for Inactive)
REMARK    1  A    between atoms: C_2  and  C_15
REMARK    2  A    between atoms: N_3  and  C_4
REMARK    3  A    between atoms: C_4  and  C_5
REMARK    4  A    between atoms: C_5  and  N_6
REMARK    5  A    between atoms: C_19  and  O_20
REMARK    6  A    between atoms: O_20  and  C_21
REMARK                            x       y       z     vdW  Elec       q    Type
REMARK                         _______ _______ _______ _____ _____    ______ ____
ROOT
ATOM      1  O   UNL     1       1.135  -0.322   0.165  0.00  0.00    +0.000 OA
ATOM      2  C   UNL     1       2.318  -0.089  -0.057  0.00  0.00    +0.000 C 
ATOM      3  N   UNL     1       3.009  -0.666  -1.100  0.00  0.00    +0.000 N 
ATOM      4  H   UNL     1       4.020  -0.630  -1.124  0.00  0.00    +0.000 HD
ENDROOT
BRANCH   2   5
ATOM      5  C   UNL     1       3.061   0.838   0.827  0.00  0.00    +0.000 A 
ATOM      6  C   UNL     1       2.553   1.046   2.113  0.00  0.00    +0.000 A 
ATOM      7  C   UNL     1       3.180   1.939   2.974  0.00  0.00    +0.000 A 
ATOM      8  F   UNL     1       2.613   2.141   4.172  0.00  0.00    +0.000 F 
ATOM      9  C   UNL     1       4.355   2.595   2.603  0.00  0.00    +0.000 A 
ATOM     10  C   UNL     1       4.819   2.418   1.298  0.00  0.00    +0.000 A 
ATOM     11  F   UNL     1       5.895   3.095   0.871  0.00  0.00    +0.000 F 
ATOM     12  C   UNL     1       4.186   1.551   0.406  0.00  0.00    +0.000 A 
BRANCH   9  13
ATOM     13  O   UNL     1       5.071   3.457   3.400  0.00  0.00    +0.000 OA
BRANCH  13  14
ATOM     14  C   UNL     1       5.125   3.243   4.759  0.00  0.00    +0.000 A 
ATOM     15  C   UNL     1       5.143   1.978   5.355  0.00  0.00    +0.000 A 
ATOM     16  C   UNL     1       5.103   1.860   6.745  0.00  0.00    +0.000 A 
ATOM     17  C   UNL     1       5.122   3.003   7.542  0.00  0.00    +0.000 A 
ATOM     18  C   UNL     1       5.199   4.264   6.951  0.00  0.00    +0.000 A 
ATOM     19  C   UNL     1       5.202   4.384   5.560  0.00  0.00    +0.000 A 
ENDBRANCH  13  14
ENDBRANCH   9  13
ENDBRANCH   2   5
BRANCH   3  20
ATOM     20  C   UNL     1       2.337  -1.597  -1.993  0.00  0.00    +0.000 C 
BRANCH  20  21
ATOM     21  C   UNL     1       1.251  -0.921  -2.831  0.00  0.00    +0.000 C 
BRANCH  21  22
ATOM     22  N   UNL     1       0.586  -1.856  -3.704  0.00  0.00    +0.000 N 
ATOM     23  C   UNL     1      -0.558  -2.555  -3.423  0.00  0.00    +0.000 A 
ATOM     24  N   UNL     1      -0.922  -3.320  -4.428  0.00  0.00    +0.000 NA
ATOM     25  C   UNL     1       0.018  -3.093  -5.404  0.00  0.00    +0.000 A 
ATOM     26  C   UNL     1       0.154  -3.610  -6.697  0.00  0.00    +0.000 A 
ATOM     27  C   UNL     1       1.239  -3.160  -7.451  0.00  0.00    +0.000 A 
ATOM     28  C   UNL     1       2.126  -2.242  -6.892  0.00  0.00    +0.000 A 
ATOM     29  N   UNL     1       2.047  -1.720  -5.643  0.00  0.00    +0.000 NA
ATOM     30  C   UNL     1       0.975  -2.182  -4.970  0.00  0.00    +0.000 A 
ENDBRANCH  21  22
ENDBRANCH  20  21
ENDBRANCH   3  20
TORSDOF 6
