REMARK  Name = 
REMARK  8 active torsions:
REMARK  status: ('A' for Active; 'I' for Inactive)
REMARK    1  A    between atoms: C_1  and  C_2
REMARK    2  A    between atoms: C_2  and  O_3
REMARK    3  A    between atoms: C_2  and  C_19
REMARK    4  A    between atoms: O_3  and  C_4
REMARK    5  A    between atoms: C_4  and  C_6
REMARK    6  A    between atoms: C_8  and  C_9
REMARK    7  A    between atoms: N_21  and  C_22
REMARK    8  A    between atoms: C_22  and  C_23
REMARK                            x       y       z     vdW  Elec       q    Type
REMARK                         _______ _______ _______ _____ _____    ______ ____
ROOT
ATOM      1  O   UNL     1       2.929  -0.203   1.390  0.00  0.00    +0.000 OA
ENDROOT
BRANCH   1   2
ATOM      2  C   UNL     1       2.962   0.976   2.057  0.00  0.00    +0.000 C 
ATOM      3  O   UNL     1       2.642   2.058   1.604  0.00  0.00    +0.000 OA
BRANCH   2   4
ATOM      4  C   UNL     1       3.453   0.790   3.453  0.00  0.00    +0.000 A 
ATOM      5  C   UNL     1       3.843  -0.466   3.933  0.00  0.00    +0.000 A 
ATOM      6  C   UNL     1       4.338  -0.637   5.240  0.00  0.00    +0.000 A 
ATOM      7  C   UNL     1       4.414   0.500   6.064  0.00  0.00    +0.000 A 
ATOM      8  C   UNL     1       4.017   1.745   5.588  0.00  0.00    +0.000 A 
ATOM      9  F   UNL     1       4.109   2.814   6.390  0.00  0.00    +0.000 F 
ATOM     10  C   UNL     1       3.539   1.903   4.293  0.00  0.00    +0.000 A 
BRANCH   6  11
ATOM     11  C   UNL     1       4.766  -1.959   5.728  0.00  0.00    +0.000 A 
ATOM     12  C   UNL     1       5.304  -2.928   4.878  0.00  0.00    +0.000 A 
ATOM     13  C   UNL     1       5.675  -4.163   5.399  0.00  0.00    +0.000 A 
ATOM     14  C   UNL     1       5.504  -4.404   6.754  0.00  0.00    +0.000 A 
ATOM     15  C   UNL     1       4.970  -3.394   7.535  0.00  0.00    +0.000 A 
ATOM     16  N   UNL     1       4.604  -2.185   7.055  0.00  0.00    +0.000 NA
ENDBRANCH   6  11
ENDBRANCH   2   4
ENDBRANCH   1   2
BRANCH   1  18
ATOM     17  C   UNL     1       0.964  -0.110  -0.015  0.00  0.00    +0.000 C 
ATOM     18  C   UNL     1       2.487  -0.141   0.021  0.00  0.00    +0.000 C 
BRANCH  18  19
ATOM     19  C   UNL     1       3.006  -1.382  -0.732  0.00  0.00    +0.000 C 
ATOM     20  O   UNL     1       3.728  -2.228  -0.206  0.00  0.00    +0.000 OA
ATOM     21  N   UNL     1       2.630  -1.456  -2.061  0.00  0.00    +0.000 N 
ATOM     22  H   UNL     1       1.911  -0.844  -2.423  0.00  0.00    +0.000 HD
BRANCH  21  23
ATOM     23  C   UNL     1       3.011  -2.573  -2.896  0.00  0.00    +0.000 C 
BRANCH  23  24
ATOM     24  C   UNL     1       1.995  -3.678  -2.850  0.00  0.00    +0.000 A 
ATOM     25  C   UNL     1       2.094  -4.701  -1.895  0.00  0.00    +0.000 A 
ATOM     26  C   UNL     1       1.149  -5.730  -1.857  0.00  0.00    +0.000 A 
ATOM     27  C   UNL     1       0.092  -5.745  -2.767  0.00  0.00    +0.000 A 
ATOM     28  C   UNL     1      -0.025  -4.725  -3.709  0.00  0.00    +0.000 A 
ATOM     29  C   UNL     1       0.920  -3.702  -3.741  0.00  0.00    +0.000 A 
ATOM     30  F   UNL     1       0.784  -2.724  -4.649  0.00  0.00    +0.000 F 
ENDBRANCH  23  24
ENDBRANCH  21  23
ENDBRANCH  18  19
ENDBRANCH   1  18
TORSDOF 7
