REMARK  Name = 
REMARK  6 active torsions:
REMARK  status: ('A' for Active; 'I' for Inactive)
REMARK    1  A    between atoms: C_2  and  C_19
REMARK    2  A    between atoms: N_3  and  C_4
REMARK    3  A    between atoms: C_6  and  C_7
REMARK    4  A    between atoms: C_15  and  C_16
REMARK    5  A    between atoms: C_16  and  O_18
REMARK    6  A    between atoms: C_26  and  O_27
REMARK                            x       y       z     vdW  Elec       q    Type
REMARK                         _______ _______ _______ _____ _____    ______ ____
ROOT
ATOM      1  O   UNL     1       2.376   0.395   2.319  0.00  0.00    +0.000 OA
ATOM      2  C   UNL     1       2.855   0.223   1.197  0.00  0.00    +0.000 C 
ATOM      3  N   UNL     1       2.947   1.198   0.208  0.00  0.00    +0.000 N 
ATOM      4  H   UNL     1       3.564   1.005  -0.587  0.00  0.00    +0.000 HD
ENDROOT
BRANCH   2   5
ATOM      5  C   UNL     1       3.383  -1.135   0.879  0.00  0.00    +0.000 A 
ATOM      6  C   UNL     1       3.078  -2.169   1.757  0.00  0.00    +0.000 A 
ATOM      7  C   UNL     1       3.502  -3.451   1.447  0.00  0.00    +0.000 A 
ATOM      8  C   UNL     1       4.228  -3.667   0.274  0.00  0.00    +0.000 A 
ATOM      9  C   UNL     1       4.646  -4.960  -0.068  0.00  0.00    +0.000 A 
ATOM     10  C   UNL     1       5.375  -5.135  -1.230  0.00  0.00    +0.000 A 
ATOM     11  N   UNL     1       5.726  -4.122  -2.041  0.00  0.00    +0.000 NA
ATOM     12  C   UNL     1       5.295  -2.892  -1.672  0.00  0.00    +0.000 A 
ATOM     13  C   UNL     1       4.529  -2.561  -0.552  0.00  0.00    +0.000 A 
ATOM     14  N   UNL     1       4.099  -1.299  -0.258  0.00  0.00    +0.000 NA
BRANCH  12  15
ATOM     15  O   UNL     1       5.719  -1.926  -2.536  0.00  0.00    +0.000 OA
ATOM     16  H   UNL     1       6.244  -2.465  -3.151  0.00  0.00    +0.000 HD
ENDBRANCH  12  15
ENDBRANCH   2   5
BRANCH   3  17
ATOM     17  C   UNL     1       2.328   2.477   0.299  0.00  0.00    +0.000 A 
ATOM     18  C   UNL     1       1.234   2.658   1.164  0.00  0.00    +0.000 A 
ATOM     19  C   UNL     1       0.633   3.902   1.418  0.00  0.00    +0.000 A 
ATOM     20  C   UNL     1       1.110   4.994   0.684  0.00  0.00    +0.000 A 
ATOM     21  C   UNL     1       2.134   4.836  -0.259  0.00  0.00    +0.000 A 
ATOM     22  C   UNL     1       2.757   3.587  -0.444  0.00  0.00    +0.000 A 
BRANCH  19  23
ATOM     23  C   UNL     1      -0.434   4.022   2.440  0.00  0.00    +0.000 A 
ATOM     24  C   UNL     1      -0.433   3.202   3.589  0.00  0.00    +0.000 A 
ATOM     25  C   UNL     1      -1.424   3.305   4.567  0.00  0.00    +0.000 A 
ATOM     26  C   UNL     1      -2.438   4.244   4.428  0.00  0.00    +0.000 A 
ATOM     27  C   UNL     1      -2.469   5.064   3.303  0.00  0.00    +0.000 A 
ATOM     28  C   UNL     1      -1.482   4.949   2.317  0.00  0.00    +0.000 A 
ENDBRANCH  19  23
BRANCH  22  29
ATOM     29  C   UNL     1       3.856   3.465  -1.429  0.00  0.00    +0.000 C 
ATOM     30  O   UNL     1       4.021   2.468  -2.113  0.00  0.00    +0.000 OA
BRANCH  29  31
ATOM     31  O   UNL     1       4.669   4.542  -1.488  0.00  0.00    +0.000 OA
ATOM     32  H   UNL     1       4.556   5.184  -0.763  0.00  0.00    +0.000 HD
ENDBRANCH  29  31
ENDBRANCH  22  29
ENDBRANCH   3  17
TORSDOF 6
