REMARK  Name = 
REMARK  6 active torsions:
REMARK  status: ('A' for Active; 'I' for Inactive)
REMARK    1  A    between atoms: C_1  and  O_2
REMARK    2  A    between atoms: O_2  and  C_3
REMARK    3  A    between atoms: C_3  and  C_5
REMARK    4  A    between atoms: C_11  and  C_13
REMARK    5  A    between atoms: C_16  and  C_17
REMARK    6  A    between atoms: C_22  and  C_23
REMARK                            x       y       z     vdW  Elec       q    Type
REMARK                         _______ _______ _______ _____ _____    ______ ____
ROOT
ATOM      1  C   UNL     1       4.677  -1.501   0.327  0.00  0.00    +0.000 A 
ATOM      2  C   UNL     1       5.419  -2.435  -0.317  0.00  0.00    +0.000 A 
ATOM      3  C   UNL     1       6.822  -2.229  -0.498  0.00  0.00    +0.000 A 
ATOM      4  N   UNL     1       7.769  -2.933  -1.084  0.00  0.00    +0.000 NA
ATOM      5  C   UNL     1       8.900  -2.197  -0.838  0.00  0.00    +0.000 A 
ATOM      6  N   UNL     1      10.113  -2.673  -1.262  0.00  0.00    +0.000 N 
ATOM      7  C   UNL     1      11.315  -2.099  -0.905  0.00  0.00    +0.000 C 
ATOM      8  O   UNL     1      11.478  -1.100  -0.210  0.00  0.00    +0.000 OA
ATOM      9  N   UNL     1       8.694  -1.062  -0.183  0.00  0.00    +0.000 NA
ATOM     10  N   UNL     1       7.375  -1.065   0.035  0.00  0.00    +0.000 N 
ATOM     11  C   UNL     1       6.622  -0.098   0.684  0.00  0.00    +0.000 A 
ATOM     12  C   UNL     1       5.303  -0.277   0.841  0.00  0.00    +0.000 A 
ATOM     13  H   UNL     1      10.056  -3.496  -1.839  0.00  0.00    +0.000 HD
ENDROOT
BRANCH   7  14
ATOM     14  C   UNL     1      12.546  -2.771  -1.404  0.00  0.00    +0.000 A 
ATOM     15  C   UNL     1      13.707  -2.006  -1.579  0.00  0.00    +0.000 A 
ATOM     16  C   UNL     1      14.893  -2.599  -2.036  0.00  0.00    +0.000 A 
ATOM     17  C   UNL     1      14.970  -3.980  -2.295  0.00  0.00    +0.000 A 
ATOM     18  C   UNL     1      13.810  -4.732  -2.021  0.00  0.00    +0.000 A 
ATOM     19  C   UNL     1      12.605  -4.143  -1.619  0.00  0.00    +0.000 A 
BRANCH  17  20
ATOM     20  C   UNL     1      16.219  -4.626  -2.804  0.00  0.00    +0.000 A 
ATOM     21  C   UNL     1      17.483  -4.146  -2.392  0.00  0.00    +0.000 A 
ATOM     22  C   UNL     1      18.679  -4.750  -2.801  0.00  0.00    +0.000 A 
ATOM     23  C   UNL     1      18.651  -5.873  -3.615  0.00  0.00    +0.000 A 
ATOM     24  C   UNL     1      17.428  -6.363  -4.060  0.00  0.00    +0.000 A 
ATOM     25  C   UNL     1      16.225  -5.733  -3.693  0.00  0.00    +0.000 A 
BRANCH  25  26
ATOM     26  C   UNL     1      15.030  -6.256  -4.296  0.00  0.00    +0.000 C 
ATOM     27  N   UNL     1      14.070  -6.702  -4.774  0.00  0.00    +0.000 NA
ENDBRANCH  25  26
ENDBRANCH  17  20
ENDBRANCH   7  14
BRANCH   1  28
ATOM     28  C   UNL     1       3.216  -1.764   0.505  0.00  0.00    +0.000 C 
ATOM     29  O   UNL     1       2.650  -2.795   0.169  0.00  0.00    +0.000 OA
BRANCH  28  31
ATOM     30  C   UNL     1       1.216  -0.821   1.306  0.00  0.00    +0.000 C 
ATOM     31  O   UNL     1       2.625  -0.691   1.090  0.00  0.00    +0.000 OA
ENDBRANCH  28  31
ENDBRANCH   1  28
TORSDOF 5
