REMARK  Name = 
REMARK  6 active torsions:
REMARK  status: ('A' for Active; 'I' for Inactive)
REMARK    1  A    between atoms: C_2  and  C_20
REMARK    2  A    between atoms: N_3  and  C_4
REMARK    3  A    between atoms: C_4  and  C_5
REMARK    4  A    between atoms: C_8  and  C_9
REMARK    5  A    between atoms: N_11  and  C_12
REMARK    6  A    between atoms: C_24  and  C_25
REMARK                            x       y       z     vdW  Elec       q    Type
REMARK                         _______ _______ _______ _____ _____    ______ ____
ROOT
ATOM      1  C   UNL     1       2.207   1.860   1.601  0.00  0.00    +0.000 C 
ENDROOT
BRANCH   1   2
ATOM      2  C   UNL     1       3.128   2.792   2.344  0.00  0.00    +0.000 A 
ATOM      3  C   UNL     1       3.627   3.954   1.733  0.00  0.00    +0.000 A 
ATOM      4  C   UNL     1       4.439   4.851   2.444  0.00  0.00    +0.000 A 
ATOM      5  C   UNL     1       4.776   4.584   3.776  0.00  0.00    +0.000 A 
ATOM      6  C   UNL     1       4.287   3.415   4.380  0.00  0.00    +0.000 A 
ATOM      7  C   UNL     1       3.481   2.523   3.671  0.00  0.00    +0.000 A 
BRANCH   5   8
ATOM      8  C   UNL     1       5.590   5.497   4.631  0.00  0.00    +0.000 C 
ATOM      9  O   UNL     1       5.388   5.458   5.842  0.00  0.00    +0.000 OA
ATOM     10  N   UNL     1       6.509   6.316   3.997  0.00  0.00    +0.000 N 
ATOM     11  H   UNL     1       6.529   6.329   2.986  0.00  0.00    +0.000 HD
BRANCH  10  12
ATOM     12  C   UNL     1       7.417   7.188   4.651  0.00  0.00    +0.000 A 
ATOM     13  C   UNL     1       7.687   7.143   6.018  0.00  0.00    +0.000 A 
ATOM     14  C   UNL     1       8.571   8.058   6.589  0.00  0.00    +0.000 A 
ATOM     15  C   UNL     1       9.171   8.994   5.768  0.00  0.00    +0.000 A 
ATOM     16  N   UNL     1       8.968   9.056   4.435  0.00  0.00    +0.000 NA
ATOM     17  C   UNL     1       8.104   8.150   3.911  0.00  0.00    +0.000 A 
ENDBRANCH  10  12
ENDBRANCH   5   8
ENDBRANCH   1   2
BRANCH   1  20
ATOM     18  O   UNL     1       1.005  -0.085   0.023  0.00  0.00    +0.000 OA
ATOM     19  C   UNL     1       2.229  -0.060   0.094  0.00  0.00    +0.000 C 
ATOM     20  N   UNL     1       2.925   0.859   0.854  0.00  0.00    +0.000 N 
ATOM     21  H   UNL     1       3.928   0.949   0.760  0.00  0.00    +0.000 HD
BRANCH  19  22
ATOM     22  C   UNL     1       3.030  -1.027  -0.686  0.00  0.00    +0.000 A 
ATOM     23  C   UNL     1       2.498  -1.560  -1.853  0.00  0.00    +0.000 A 
ATOM     24  N   UNL     1       3.153  -2.443  -2.646  0.00  0.00    +0.000 NA
ATOM     25  C   UNL     1       4.388  -2.825  -2.236  0.00  0.00    +0.000 A 
ATOM     26  C   UNL     1       4.998  -2.379  -1.067  0.00  0.00    +0.000 A 
ATOM     27  C   UNL     1       4.296  -1.456  -0.283  0.00  0.00    +0.000 A 
BRANCH  26  28
ATOM     28  C   UNL     1       6.314  -2.856  -0.661  0.00  0.00    +0.000 A 
ATOM     29  N   UNL     1       7.115  -2.114   0.124  0.00  0.00    +0.000 NA
ATOM     30  N   UNL     1       8.216  -2.862   0.286  0.00  0.00    +0.000 N 
ATOM     31  C   UNL     1       8.155  -4.065  -0.345  0.00  0.00    +0.000 A 
ATOM     32  C   UNL     1       6.933  -4.096  -0.972  0.00  0.00    +0.000 A 
ATOM     33  H   UNL     1       8.975  -2.485   0.848  0.00  0.00    +0.000 HD
ENDBRANCH  26  28
ENDBRANCH  19  22
ENDBRANCH   1  20
TORSDOF 6
