REMARK  Name = 
REMARK  6 active torsions:
REMARK  status: ('A' for Active; 'I' for Inactive)
REMARK    1  A    between atoms: C_2  and  C_18
REMARK    2  A    between atoms: N_3  and  C_4
REMARK    3  A    between atoms: C_7  and  O_8
REMARK    4  A    between atoms: O_8  and  C_9
REMARK    5  A    between atoms: C_23  and  C_24
REMARK    6  A    between atoms: C_24  and  C_25
REMARK                            x       y       z     vdW  Elec       q    Type
REMARK                         _______ _______ _______ _____ _____    ______ ____
ROOT
ATOM      1  O   UNL     1       0.979   0.108  -0.238  0.00  0.00    +0.000 OA
ATOM      2  C   UNL     1       2.138   0.469  -0.077  0.00  0.00    +0.000 C 
ATOM      3  N   UNL     1       2.693   0.850   1.133  0.00  0.00    +0.000 N 
ATOM      4  H   UNL     1       3.647   1.187   1.127  0.00  0.00    +0.000 HD
ENDROOT
BRANCH   3   5
ATOM      5  C   UNL     1       2.046   0.861   2.389  0.00  0.00    +0.000 A 
ATOM      6  C   UNL     1       0.726   0.470   2.606  0.00  0.00    +0.000 A 
ATOM      7  C   UNL     1       0.189   0.491   3.894  0.00  0.00    +0.000 A 
ATOM      8  C   UNL     1       1.003   0.899   4.937  0.00  0.00    +0.000 A 
ATOM      9  N   UNL     1       2.272   1.332   4.763  0.00  0.00    +0.000 NA
ATOM     10  C   UNL     1       2.765   1.284   3.506  0.00  0.00    +0.000 A 
BRANCH   8  11
ATOM     11  O   UNL     1       0.473   0.838   6.218  0.00  0.00    +0.000 OA
BRANCH  11  12
ATOM     12  C   UNL     1       1.347   0.565   7.249  0.00  0.00    +0.000 A 
ATOM     13  C   UNL     1       2.423  -0.319   7.131  0.00  0.00    +0.000 A 
ATOM     14  C   UNL     1       3.269  -0.520   8.211  0.00  0.00    +0.000 A 
ATOM     15  F   UNL     1       4.330  -1.328   8.074  0.00  0.00    +0.000 F 
ATOM     16  C   UNL     1       3.035   0.105   9.429  0.00  0.00    +0.000 A 
ATOM     17  C   UNL     1       1.934   0.949   9.568  0.00  0.00    +0.000 A 
ATOM     18  C   UNL     1       1.087   1.177   8.479  0.00  0.00    +0.000 A 
ENDBRANCH  11  12
ENDBRANCH   8  11
ENDBRANCH   3   5
BRANCH   2  19
ATOM     19  C   UNL     1       3.045   0.534  -1.263  0.00  0.00    +0.000 A 
ATOM     20  C   UNL     1       4.406   0.213  -1.095  0.00  0.00    +0.000 A 
ATOM     21  C   UNL     1       5.288   0.250  -2.175  0.00  0.00    +0.000 A 
ATOM     22  C   UNL     1       4.817   0.573  -3.440  0.00  0.00    +0.000 A 
ATOM     23  C   UNL     1       3.471   0.879  -3.626  0.00  0.00    +0.000 A 
ATOM     24  C   UNL     1       2.561   0.873  -2.548  0.00  0.00    +0.000 A 
BRANCH  24  25
ATOM     25  C   UNL     1       1.137   1.306  -2.851  0.00  0.00    +0.000 C 
BRANCH  25  26
ATOM     26  C   UNL     1       0.931   2.772  -2.677  0.00  0.00    +0.000 A 
ATOM     27  N   UNL     1       1.140   3.731  -3.560  0.00  0.00    +0.000 NA
ATOM     28  C   UNL     1       0.769   4.859  -2.888  0.00  0.00    +0.000 A 
ATOM     29  N   UNL     1       0.341   4.662  -1.639  0.00  0.00    +0.000 NA
ATOM     30  N   UNL     1       0.446   3.325  -1.529  0.00  0.00    +0.000 N 
ATOM     31  H   UNL     1       0.170   2.865  -0.665  0.00  0.00    +0.000 HD
ENDBRANCH  25  26
ENDBRANCH  24  25
ENDBRANCH   2  19
TORSDOF 6
