REMARK  Name = 
REMARK  3 active torsions:
REMARK  status: ('A' for Active; 'I' for Inactive)
REMARK    1  A    between atoms: N_6  and  C_7
REMARK    2  A    between atoms: N_17  and  C_18
REMARK    3  A    between atoms: C_20  and  C_21
REMARK                            x       y       z     vdW  Elec       q    Type
REMARK                         _______ _______ _______ _____ _____    ______ ____
ROOT
ATOM      1  O   UNL     1       0.912   0.250  -0.209  0.00  0.00    +0.000 OA
ATOM      2  C   UNL     1       2.108   0.037  -0.107  0.00  0.00    +0.000 C 
ATOM      3  N   UNL     1       2.825  -0.744  -0.962  0.00  0.00    +0.000 N 
ATOM      4  C   UNL     1       4.170  -0.948  -0.911  0.00  0.00    +0.000 A 
ATOM      5  N   UNL     1       4.954  -0.496   0.069  0.00  0.00    +0.000 NA
ATOM      6  N   UNL     1       6.194  -0.818  -0.367  0.00  0.00    +0.000 N 
ATOM      7  C   UNL     1       6.084  -1.486  -1.562  0.00  0.00    +0.000 A 
ATOM      8  N   UNL     1       4.818  -1.592  -1.910  0.00  0.00    +0.000 NA
ATOM      9  N   UNL     1       2.896   0.626   0.924  0.00  0.00    +0.000 N 
ATOM     10  H   UNL     1       2.334  -1.137  -1.750  0.00  0.00    +0.000 HD
ATOM     11  H   UNL     1       3.882   0.376   0.918  0.00  0.00    +0.000 HD
ENDROOT
BRANCH   6  12
ATOM     12  C   UNL     1       7.333  -0.397   0.360  0.00  0.00    +0.000 A 
ATOM     13  C   UNL     1       8.626  -0.593  -0.138  0.00  0.00    +0.000 A 
ATOM     14  C   UNL     1       9.725  -0.108   0.581  0.00  0.00    +0.000 A 
ATOM     15  C   UNL     1       9.534   0.559   1.789  0.00  0.00    +0.000 A 
ATOM     16  F   UNL     1      10.594   1.030   2.458  0.00  0.00    +0.000 F 
ATOM     17  C   UNL     1       8.255   0.741   2.292  0.00  0.00    +0.000 A 
ATOM     18  F   UNL     1       8.059   1.385   3.449  0.00  0.00    +0.000 F 
ATOM     19  C   UNL     1       7.153   0.265   1.589  0.00  0.00    +0.000 A 
ENDBRANCH   6  12
BRANCH   9  20
ATOM     20  C   UNL     1       2.461   1.497   1.894  0.00  0.00    +0.000 A 
ATOM     21  C   UNL     1       1.202   1.978   2.124  0.00  0.00    +0.000 A 
ATOM     22  C   UNL     1       1.328   2.848   3.241  0.00  0.00    +0.000 A 
ATOM     23  N   UNL     1       2.595   2.880   3.683  0.00  0.00    +0.000 NA
ATOM     24  N   UNL     1       3.256   2.072   2.847  0.00  0.00    +0.000 N 
ATOM     25  H   UNL     1       4.254   1.964   2.987  0.00  0.00    +0.000 HD
BRANCH  22  26
ATOM     26  C   UNL     1       0.272   3.630   3.873  0.00  0.00    +0.000 A 
ATOM     27  C   UNL     1      -0.843   4.033   3.132  0.00  0.00    +0.000 A 
ATOM     28  C   UNL     1      -1.846   4.773   3.748  0.00  0.00    +0.000 A 
ATOM     29  F   UNL     1      -2.908   5.155   3.027  0.00  0.00    +0.000 F 
ATOM     30  C   UNL     1      -1.760   5.123   5.088  0.00  0.00    +0.000 A 
ATOM     31  C   UNL     1      -0.653   4.729   5.834  0.00  0.00    +0.000 A 
ATOM     32  C   UNL     1       0.362   3.987   5.226  0.00  0.00    +0.000 A 
ENDBRANCH  22  26
ENDBRANCH   9  20
TORSDOF 3
