REMARK  Name = 
REMARK  5 active torsions:
REMARK  status: ('A' for Active; 'I' for Inactive)
REMARK    1  A    between atoms: C_2  and  C_18
REMARK    2  A    between atoms: N_3  and  C_4
REMARK    3  A    between atoms: C_7  and  O_8
REMARK    4  A    between atoms: O_8  and  C_9
REMARK    5  A    between atoms: C_21  and  O_22
REMARK                            x       y       z     vdW  Elec       q    Type
REMARK                         _______ _______ _______ _____ _____    ______ ____
ROOT
ATOM      1  O   UNL     1       1.158   0.179  -0.723  0.00  0.00    +0.000 OA
ATOM      2  C   UNL     1       2.234   0.047  -0.149  0.00  0.00    +0.000 C 
ATOM      3  N   UNL     1       2.748  -1.145   0.332  0.00  0.00    +0.000 N 
ATOM      4  H   UNL     1       3.589  -1.122   0.898  0.00  0.00    +0.000 HD
ENDROOT
BRANCH   2   5
ATOM      5  C   UNL     1       3.052   1.267   0.051  0.00  0.00    +0.000 A 
ATOM      6  C   UNL     1       4.433   1.201  -0.114  0.00  0.00    +0.000 A 
ATOM      7  N   UNL     1       5.250   2.274  -0.081  0.00  0.00    +0.000 NA
ATOM      8  C   UNL     1       4.648   3.467   0.074  0.00  0.00    +0.000 A 
ATOM      9  C   UNL     1       3.277   3.679   0.234  0.00  0.00    +0.000 A 
ATOM     10  C   UNL     1       2.711   4.962   0.358  0.00  0.00    +0.000 A 
ATOM     11  C   UNL     1       1.345   5.075   0.527  0.00  0.00    +0.000 A 
ATOM     12  N   UNL     1       0.521   4.017   0.608  0.00  0.00    +0.000 NA
ATOM     13  C   UNL     1       1.082   2.791   0.469  0.00  0.00    +0.000 A 
ATOM     14  C   UNL     1       2.452   2.542   0.253  0.00  0.00    +0.000 A 
BRANCH   8  15
ATOM     15  O   UNL     1       5.526   4.503   0.053  0.00  0.00    +0.000 OA
ATOM     16  H   UNL     1       6.361   4.021  -0.087  0.00  0.00    +0.000 HD
ENDBRANCH   8  15
ENDBRANCH   2   5
BRANCH   3  17
ATOM     17  C   UNL     1       2.100  -2.401   0.239  0.00  0.00    +0.000 A 
ATOM     18  C   UNL     1       0.965  -2.647  -0.536  0.00  0.00    +0.000 A 
ATOM     19  C   UNL     1       0.370  -3.908  -0.530  0.00  0.00    +0.000 A 
ATOM     20  C   UNL     1       0.949  -4.899   0.238  0.00  0.00    +0.000 A 
ATOM     21  N   UNL     1       2.050  -4.704   1.002  0.00  0.00    +0.000 NA
ATOM     22  C   UNL     1       2.604  -3.473   0.971  0.00  0.00    +0.000 A 
BRANCH  20  23
ATOM     23  O   UNL     1       0.362  -6.156   0.184  0.00  0.00    +0.000 OA
BRANCH  23  24
ATOM     24  C   UNL     1       1.196  -7.234   0.365  0.00  0.00    +0.000 A 
ATOM     25  C   UNL     1       2.476  -7.305  -0.199  0.00  0.00    +0.000 A 
ATOM     26  C   UNL     1       3.296  -8.404   0.052  0.00  0.00    +0.000 A 
ATOM     27  C   UNL     1       2.819  -9.464   0.826  0.00  0.00    +0.000 A 
ATOM     28  C   UNL     1       1.522  -9.424   1.341  0.00  0.00    +0.000 A 
ATOM     29  C   UNL     1       0.716  -8.314   1.102  0.00  0.00    +0.000 A 
ATOM     30  F   UNL     1      -0.527  -8.296   1.607  0.00  0.00    +0.000 F 
ENDBRANCH  23  24
ENDBRANCH  20  23
ENDBRANCH   3  17
TORSDOF 5
