REMARK  Name = 
REMARK  5 active torsions:
REMARK  status: ('A' for Active; 'I' for Inactive)
REMARK    1  A    between atoms: C_2  and  C_19
REMARK    2  A    between atoms: N_3  and  C_4
REMARK    3  A    between atoms: C_7  and  N_8
REMARK    4  A    between atoms: C_11  and  C_12
REMARK    5  A    between atoms: C_22  and  O_23
REMARK                            x       y       z     vdW  Elec       q    Type
REMARK                         _______ _______ _______ _____ _____    ______ ____
ROOT
ATOM      1  O   UNL     1       1.270   0.761  -0.568  0.00  0.00    +0.000 OA
ATOM      2  C   UNL     1       2.243   0.160  -0.131  0.00  0.00    +0.000 C 
ATOM      3  N   UNL     1       2.673  -1.107  -0.506  0.00  0.00    +0.000 N 
ATOM      4  H   UNL     1       3.405  -1.548   0.037  0.00  0.00    +0.000 HD
ENDROOT
BRANCH   2   5
ATOM      5  C   UNL     1       3.032   0.825   0.927  0.00  0.00    +0.000 A 
ATOM      6  C   UNL     1       4.420   0.793   0.848  0.00  0.00    +0.000 A 
ATOM      7  N   UNL     1       5.242   1.381   1.744  0.00  0.00    +0.000 NA
ATOM      8  C   UNL     1       4.635   2.060   2.732  0.00  0.00    +0.000 A 
ATOM      9  C   UNL     1       3.255   2.204   2.910  0.00  0.00    +0.000 A 
ATOM     10  C   UNL     1       2.690   2.953   3.958  0.00  0.00    +0.000 A 
ATOM     11  C   UNL     1       1.315   3.035   4.055  0.00  0.00    +0.000 A 
ATOM     12  N   UNL     1       0.475   2.423   3.200  0.00  0.00    +0.000 NA
ATOM     13  C   UNL     1       1.037   1.711   2.192  0.00  0.00    +0.000 A 
ATOM     14  C   UNL     1       2.421   1.560   1.978  0.00  0.00    +0.000 A 
BRANCH   8  15
ATOM     15  O   UNL     1       5.520   2.624   3.595  0.00  0.00    +0.000 OA
ATOM     16  H   UNL     1       6.358   2.334   3.192  0.00  0.00    +0.000 HD
ENDBRANCH   8  15
ENDBRANCH   2   5
BRANCH   3  17
ATOM     17  C   UNL     1       2.038  -1.933  -1.463  0.00  0.00    +0.000 A 
ATOM     18  C   UNL     1       1.046  -1.463  -2.323  0.00  0.00    +0.000 A 
ATOM     19  C   UNL     1       0.366  -2.329  -3.177  0.00  0.00    +0.000 A 
ATOM     20  C   UNL     1       0.670  -3.692  -3.185  0.00  0.00    +0.000 A 
ATOM     21  C   UNL     1       1.708  -4.165  -2.372  0.00  0.00    +0.000 A 
ATOM     22  C   UNL     1       2.399  -3.284  -1.525  0.00  0.00    +0.000 A 
BRANCH  20  23
ATOM     23  N   UNL     1      -0.110  -4.589  -3.968  0.00  0.00    +0.000 N 
ATOM     24  C   UNL     1      -1.121  -4.266  -4.846  0.00  0.00    +0.000 A 
ATOM     25  C   UNL     1      -1.704  -5.443  -5.244  0.00  0.00    +0.000 A 
ATOM     26  C   UNL     1      -0.973  -6.461  -4.586  0.00  0.00    +0.000 A 
ATOM     27  N   UNL     1       0.035  -5.934  -3.858  0.00  0.00    +0.000 NA
BRANCH  26  28
ATOM     28  C   UNL     1      -1.259  -7.935  -4.653  0.00  0.00    +0.000 C 
ATOM     29  F   UNL     1      -2.378  -8.194  -5.387  0.00  0.00    +0.000 F 
ATOM     30  F   UNL     1      -0.251  -8.639  -5.232  0.00  0.00    +0.000 F 
ATOM     31  F   UNL     1      -1.476  -8.479  -3.426  0.00  0.00    +0.000 F 
ENDBRANCH  26  28
ENDBRANCH  20  23
ENDBRANCH   3  17
TORSDOF 5
