REMARK  Name = 
REMARK  11 active torsions:
REMARK  status: ('A' for Active; 'I' for Inactive)
REMARK    1  A    between atoms: C_1  and  O_2
REMARK    2  A    between atoms: O_2  and  C_3
REMARK    3  A    between atoms: C_5  and  C_6
REMARK    4  A    between atoms: N_8  and  C_9
REMARK    5  A    between atoms: C_9  and  C_10
REMARK    6  A    between atoms: C_9  and  C_17
REMARK    7  A    between atoms: N_19  and  C_20
REMARK    8  A    between atoms: C_25  and  O_26
REMARK    9  A    between atoms: O_26  and  C_27
REMARK   10  A    between atoms: C_27  and  C_28
REMARK   11  A    between atoms: N_30  and  C_31
REMARK                            x       y       z     vdW  Elec       q    Type
REMARK                         _______ _______ _______ _____ _____    ______ ____
ROOT
ATOM      1  C   UNL     1       3.260   1.355  -4.698  0.00  0.00    +0.000 C 
ATOM      2  O   UNL     1       2.115   1.729  -4.918  0.00  0.00    +0.000 OA
ATOM      3  N   UNL     1       4.341   1.713  -5.452  0.00  0.00    +0.000 N 
ATOM      4  H   UNL     1       5.287   1.472  -5.191  0.00  0.00    +0.000 HD
ENDROOT
BRANCH   1   7
ATOM      5  C   UNL     1       3.085  -0.120  -1.234  0.00  0.00    +0.000 A 
ATOM      6  C   UNL     1       2.784   0.619  -2.385  0.00  0.00    +0.000 A 
ATOM      7  C   UNL     1       3.570   0.493  -3.532  0.00  0.00    +0.000 A 
ATOM      8  C   UNL     1       4.638  -0.405  -3.553  0.00  0.00    +0.000 A 
ATOM      9  C   UNL     1       4.917  -1.173  -2.425  0.00  0.00    +0.000 A 
ATOM     10  C   UNL     1       4.125  -1.070  -1.271  0.00  0.00    +0.000 A 
BRANCH   5  12
ATOM     11  C   UNL     1       1.938   1.358   0.199  0.00  0.00    +0.000 C 
ATOM     12  O   UNL     1       2.364   0.020  -0.073  0.00  0.00    +0.000 OA
ENDBRANCH   5  12
BRANCH  10  13
ATOM     13  O   UNL     1       4.325  -1.860  -0.160  0.00  0.00    +0.000 OA
BRANCH  13  14
ATOM     14  C   UNL     1       5.073  -3.064  -0.403  0.00  0.00    +0.000 C 
BRANCH  14  15
ATOM     15  C   UNL     1       4.890  -4.100   0.646  0.00  0.00    +0.000 A 
ATOM     16  C   UNL     1       3.846  -4.276   1.527  0.00  0.00    +0.000 A 
ATOM     17  N   UNL     1       4.117  -5.411   2.228  0.00  0.00    +0.000 N 
ATOM     18  C   UNL     1       3.300  -6.016   3.249  0.00  0.00    +0.000 C 
ATOM     19  N   UNL     1       5.275  -5.997   1.869  0.00  0.00    +0.000 NA
ATOM     20  C   UNL     1       5.743  -5.199   0.908  0.00  0.00    +0.000 A 
ENDBRANCH  14  15
ENDBRANCH  13  14
ENDBRANCH  10  13
ENDBRANCH   1   7
BRANCH   3  21
ATOM     21  C   UNL     1       4.256   2.627  -6.562  0.00  0.00    +0.000 C 
BRANCH  21  22
ATOM     22  C   UNL     1       4.422   4.070  -6.107  0.00  0.00    +0.000 A 
ATOM     23  C   UNL     1       5.584   4.526  -5.452  0.00  0.00    +0.000 A 
ATOM     24  C   UNL     1       5.684   5.844  -5.002  0.00  0.00    +0.000 A 
ATOM     25  C   UNL     1       4.619   6.714  -5.192  0.00  0.00    +0.000 A 
ATOM     26  F   UNL     1       4.711   7.976  -4.754  0.00  0.00    +0.000 F 
ATOM     27  C   UNL     1       3.456   6.291  -5.822  0.00  0.00    +0.000 A 
ATOM     28  C   UNL     1       3.355   4.973  -6.274  0.00  0.00    +0.000 A 
ENDBRANCH  21  22
BRANCH  21  29
ATOM     29  C   UNL     1       5.393   2.321  -7.510  0.00  0.00    +0.000 A 
ATOM     30  N   UNL     1       6.540   1.747  -7.082  0.00  0.00    +0.000 NA
ATOM     31  N   UNL     1       7.268   1.600  -8.202  0.00  0.00    +0.000 N 
ATOM     32  C   UNL     1       8.583   1.008  -8.138  0.00  0.00    +0.000 C 
ATOM     33  C   UNL     1       6.628   2.027  -9.327  0.00  0.00    +0.000 A 
ATOM     34  C   UNL     1       5.406   2.499  -8.915  0.00  0.00    +0.000 A 
ENDBRANCH  21  29
ENDBRANCH   3  21
TORSDOF 8
