REMARK  Name = 
REMARK  6 active torsions:
REMARK  status: ('A' for Active; 'I' for Inactive)
REMARK    1  A    between atoms: C_2  and  C_3
REMARK    2  A    between atoms: C_3  and  C_4
REMARK    3  A    between atoms: N_15  and  C_16
REMARK    4  A    between atoms: C_16  and  C_17
REMARK    5  A    between atoms: C_22  and  O_23
REMARK    6  A    between atoms: O_23  and  C_24
REMARK                            x       y       z     vdW  Elec       q    Type
REMARK                         _______ _______ _______ _____ _____    ______ ____
ROOT
ATOM      1  O   UNL     1       3.383   2.596  -0.133  0.00  0.00    +0.000 OA
ATOM      2  C   UNL     1       2.663   1.698  -0.569  0.00  0.00    +0.000 C 
ATOM      3  N   UNL     1       3.141   0.548  -1.159  0.00  0.00    +0.000 N 
ATOM      4  H   UNL     1       2.497  -0.160  -1.484  0.00  0.00    +0.000 HD
ENDROOT
BRANCH   2   5
ATOM      5  C   UNL     1       1.149   1.786  -0.514  0.00  0.00    +0.000 C 
BRANCH   5   6
ATOM      6  C   UNL     1       0.670   2.521  -1.728  0.00  0.00    +0.000 A 
ATOM      7  C   UNL     1       0.496   3.847  -1.762  0.00  0.00    +0.000 A 
ATOM      8  C   UNL     1       0.055   4.468  -2.999  0.00  0.00    +0.000 A 
ATOM      9  C   UNL     1      -0.104   5.854  -3.083  0.00  0.00    +0.000 A 
ATOM     10  C   UNL     1      -0.514   6.444  -4.282  0.00  0.00    +0.000 A 
ATOM     11  C   UNL     1      -0.770   5.650  -5.399  0.00  0.00    +0.000 A 
ATOM     12  C   UNL     1      -0.619   4.265  -5.322  0.00  0.00    +0.000 A 
ATOM     13  C   UNL     1      -0.202   3.673  -4.117  0.00  0.00    +0.000 A 
ATOM     14  C   UNL     1      -0.025   2.203  -4.044  0.00  0.00    +0.000 A 
ATOM     15  O   UNL     1      -0.248   1.483  -5.011  0.00  0.00    +0.000 OA
ATOM     16  O   UNL     1       0.402   1.696  -2.847  0.00  0.00    +0.000 OA
ENDBRANCH   5   6
ENDBRANCH   2   5
BRANCH   3  17
ATOM     17  C   UNL     1       4.550   0.257  -1.261  0.00  0.00    +0.000 C 
BRANCH  17  18
ATOM     18  C   UNL     1       5.054   0.156  -2.683  0.00  0.00    +0.000 A 
ATOM     19  C   UNL     1       6.058   1.063  -3.078  0.00  0.00    +0.000 A 
ATOM     20  C   UNL     1       6.685   0.963  -4.319  0.00  0.00    +0.000 A 
ATOM     21  C   UNL     1       6.358  -0.079  -5.174  0.00  0.00    +0.000 A 
ATOM     22  C   UNL     1       5.373  -0.990  -4.803  0.00  0.00    +0.000 A 
ATOM     23  C   UNL     1       4.653  -0.838  -3.603  0.00  0.00    +0.000 A 
BRANCH  23  24
ATOM     24  O   UNL     1       3.587  -1.661  -3.292  0.00  0.00    +0.000 OA
BRANCH  24  25
ATOM     25  C   UNL     1       2.825  -2.188  -4.332  0.00  0.00    +0.000 A 
ATOM     26  C   UNL     1       2.473  -1.444  -5.459  0.00  0.00    +0.000 A 
ATOM     27  C   UNL     1       1.748  -2.058  -6.479  0.00  0.00    +0.000 A 
ATOM     28  C   UNL     1       1.343  -3.375  -6.322  0.00  0.00    +0.000 A 
ATOM     29  C   UNL     1       1.694  -4.027  -5.152  0.00  0.00    +0.000 A 
ATOM     30  N   UNL     1       2.425  -3.467  -4.156  0.00  0.00    +0.000 NA
ENDBRANCH  24  25
ENDBRANCH  23  24
ENDBRANCH  17  18
ENDBRANCH   3  17
TORSDOF 6
