REMARK  Name = 
REMARK  8 active torsions:
REMARK  status: ('A' for Active; 'I' for Inactive)
REMARK    1  A    between atoms: C_1  and  N_2
REMARK    2  A    between atoms: C_3  and  C_5
REMARK    3  A    between atoms: C_7  and  O_8
REMARK    4  A    between atoms: O_8  and  C_9
REMARK    5  A    between atoms: C_11  and  C_12
REMARK    6  A    between atoms: C_15  and  N_16
REMARK    7  A    between atoms: C_17  and  C_19
REMARK    8  A    between atoms: C_28  and  N_29
REMARK                            x       y       z     vdW  Elec       q    Type
REMARK                         _______ _______ _______ _____ _____    ______ ____
ROOT
ATOM      1  C   UNL     1       6.757   2.825   0.163  0.00  0.00    +0.000 A 
ATOM      2  C   UNL     1       5.992   3.639   1.028  0.00  0.00    +0.000 A 
ATOM      3  C   UNL     1       5.275   4.741   0.563  0.00  0.00    +0.000 A 
ATOM      4  C   UNL     1       4.295   5.448   1.447  0.00  0.00    +0.000 C 
ATOM      5  C   UNL     1       5.454   5.135  -0.751  0.00  0.00    +0.000 A 
ATOM      6  C   UNL     1       6.307   4.413  -1.589  0.00  0.00    +0.000 A 
ATOM      7  C   UNL     1       6.962   3.242  -1.172  0.00  0.00    +0.000 A 
ENDROOT
BRANCH   7   8
ATOM      8  N   UNL     1       7.786   2.511  -2.077  0.00  0.00    +0.000 N 
ATOM      9  C   UNL     1       8.012   2.846  -3.417  0.00  0.00    +0.000 C 
ATOM     10  O   UNL     1       7.564   3.832  -4.003  0.00  0.00    +0.000 OA
ATOM     11  H   UNL     1       8.252   1.684  -1.714  0.00  0.00    +0.000 HD
BRANCH   9  12
ATOM     12  C   UNL     1       8.890   1.949  -4.221  0.00  0.00    +0.000 A 
ATOM     13  N   UNL     1       9.771   1.207  -3.519  0.00  0.00    +0.000 NA
ATOM     14  N   UNL     1      10.715   0.492  -4.199  0.00  0.00    +0.000 NA
ATOM     15  C   UNL     1      10.764   0.505  -5.544  0.00  0.00    +0.000 A 
ATOM     16  C   UNL     1      11.766  -0.217  -6.192  0.00  0.00    +0.000 A 
ATOM     17  C   UNL     1      11.863  -0.256  -7.584  0.00  0.00    +0.000 A 
ATOM     18  C   UNL     1      10.939   0.423  -8.356  0.00  0.00    +0.000 A 
ATOM     19  C   UNL     1       9.927   1.156  -7.733  0.00  0.00    +0.000 A 
ATOM     20  C   UNL     1       9.836   1.227  -6.318  0.00  0.00    +0.000 A 
ATOM     21  C   UNL     1       8.882   2.014  -5.631  0.00  0.00    +0.000 A 
BRANCH  21  22
ATOM     22  N   UNL     1       7.830   2.659  -6.345  0.00  0.00    +0.000 N 
ATOM     23  H   UNL     1       8.086   3.013  -7.259  0.00  0.00    +0.000 HD
ATOM     24  H   UNL     1       7.413   3.408  -5.774  0.00  0.00    +0.000 HD
ENDBRANCH  21  22
ENDBRANCH   9  12
ENDBRANCH   7   8
BRANCH   1  25
ATOM     25  O   UNL     1       7.297   1.625   0.614  0.00  0.00    +0.000 OA
BRANCH  25  28
ATOM     26  C   UNL     1       4.773   0.350   2.991  0.00  0.00    +0.000 A 
ATOM     27  C   UNL     1       5.289   0.899   1.824  0.00  0.00    +0.000 A 
ATOM     28  C   UNL     1       6.676   0.986   1.682  0.00  0.00    +0.000 A 
ATOM     29  C   UNL     1       7.486   0.414   2.659  0.00  0.00    +0.000 A 
ATOM     30  C   UNL     1       6.878  -0.167   3.765  0.00  0.00    +0.000 A 
ATOM     31  N   UNL     1       5.540  -0.196   3.973  0.00  0.00    +0.000 NA
BRANCH  26  34
ATOM     32  C   UNL     1       1.460  -0.237   4.735  0.00  0.00    +0.000 C 
ATOM     33  N   UNL     1       2.859  -0.159   4.411  0.00  0.00    +0.000 N 
ATOM     34  C   UNL     1       3.291   0.397   3.224  0.00  0.00    +0.000 C 
ATOM     35  O   UNL     1       2.535   0.911   2.407  0.00  0.00    +0.000 OA
ATOM     36  H   UNL     1       3.569  -0.511   5.047  0.00  0.00    +0.000 HD
ENDBRANCH  26  34
ENDBRANCH  25  28
ENDBRANCH   1  25
TORSDOF 6
