REMARK  Name = 
REMARK  7 active torsions:
REMARK  status: ('A' for Active; 'I' for Inactive)
REMARK    1  A    between atoms: C_2  and  C_3
REMARK    2  A    between atoms: C_8  and  C_9
REMARK    3  A    between atoms: C_9  and  N_10
REMARK    4  A    between atoms: C_11  and  C_13
REMARK    5  A    between atoms: C_18  and  O_19
REMARK    6  A    between atoms: O_19  and  C_20
REMARK    7  A    between atoms: C_20  and  C_21
REMARK                            x       y       z     vdW  Elec       q    Type
REMARK                         _______ _______ _______ _____ _____    ______ ____
ROOT
ATOM      1  N   UNL     1      -5.409   2.621  -1.541  0.00  0.00    +0.000 N 
ATOM      2  C   UNL     1      -5.808   3.071  -0.297  0.00  0.00    +0.000 C 
ATOM      3  O   UNL     1      -6.103   2.302   0.610  0.00  0.00    +0.000 OA
ATOM      4  H   UNL     1      -5.124   3.258  -2.269  0.00  0.00    +0.000 HD
ENDROOT
BRANCH   2   5
ATOM      5  C   UNL     1      -5.878   4.557  -0.131  0.00  0.00    +0.000 A 
ATOM      6  C   UNL     1      -5.083   5.400  -0.921  0.00  0.00    +0.000 A 
ATOM      7  C   UNL     1      -5.215   6.783  -0.821  0.00  0.00    +0.000 A 
ATOM      8  C   UNL     1      -6.115   7.289   0.097  0.00  0.00    +0.000 A 
ATOM      9  N   UNL     1      -6.874   6.517   0.900  0.00  0.00    +0.000 NA
ATOM     10  C   UNL     1      -6.757   5.168   0.769  0.00  0.00    +0.000 A 
BRANCH  10  11
ATOM     11  O   UNL     1      -7.566   4.392   1.563  0.00  0.00    +0.000 OA
BRANCH  11  12
ATOM     12  C   UNL     1      -8.700   5.080   2.106  0.00  0.00    +0.000 C 
BRANCH  12  13
ATOM     13  C   UNL     1      -9.725   4.080   2.593  0.00  0.00    +0.000 A 
ATOM     14  C   UNL     1      -9.455   2.706   2.667  0.00  0.00    +0.000 A 
ATOM     15  C   UNL     1     -10.442   1.804   3.072  0.00  0.00    +0.000 A 
ATOM     16  C   UNL     1     -11.711   2.263   3.421  0.00  0.00    +0.000 A 
ATOM     17  C   UNL     1     -11.987   3.628   3.379  0.00  0.00    +0.000 A 
ATOM     18  C   UNL     1     -10.997   4.522   2.972  0.00  0.00    +0.000 A 
ATOM     19  F   UNL     1     -11.290   5.830   2.934  0.00  0.00    +0.000 F 
ENDBRANCH  12  13
ENDBRANCH  11  12
ENDBRANCH  10  11
ENDBRANCH   2   5
BRANCH   1  20
ATOM     20  C   UNL     1      -5.297   1.221  -1.873  0.00  0.00    +0.000 C 
BRANCH  20  26
ATOM     21  C   UNL     1      -0.124  -0.844  -4.148  0.00  0.00    +0.000 A 
ATOM     22  C   UNL     1       0.260   0.500  -4.043  0.00  0.00    +0.000 A 
ATOM     23  C   UNL     1      -0.637   1.471  -3.570  0.00  0.00    +0.000 A 
ATOM     24  C   UNL     1      -1.929   1.074  -3.192  0.00  0.00    +0.000 A 
ATOM     25  N   UNL     1      -2.978   1.819  -2.709  0.00  0.00    +0.000 NA
ATOM     26  C   UNL     1      -3.947   0.955  -2.459  0.00  0.00    +0.000 A 
ATOM     27  N   UNL     1      -3.567  -0.316  -2.825  0.00  0.00    +0.000 N 
ATOM     28  C   UNL     1      -2.279  -0.268  -3.295  0.00  0.00    +0.000 A 
ATOM     29  C   UNL     1      -1.413  -1.258  -3.772  0.00  0.00    +0.000 A 
ATOM     30  H   UNL     1      -4.136  -1.147  -2.740  0.00  0.00    +0.000 HD
BRANCH  21  32
ATOM     31  N   UNL     1       1.556  -2.604  -5.048  0.00  0.00    +0.000 NA
ATOM     32  C   UNL     1       0.809  -1.816  -4.647  0.00  0.00    +0.000 C 
ENDBRANCH  21  32
ENDBRANCH  20  26
ENDBRANCH   1  20
TORSDOF 7
