REMARK  Name = 
REMARK  4 active torsions:
REMARK  status: ('A' for Active; 'I' for Inactive)
REMARK    1  A    between atoms: C_2  and  C_19
REMARK    2  A    between atoms: N_3  and  C_4
REMARK    3  A    between atoms: C_7  and  C_8
REMARK    4  A    between atoms: C_11  and  C_12
REMARK                            x       y       z     vdW  Elec       q    Type
REMARK                         _______ _______ _______ _____ _____    ______ ____
ROOT
ATOM      1  O   UNL     1       1.043   0.612  -0.243  0.00  0.00    +0.000 OA
ATOM      2  C   UNL     1       2.176   0.157  -0.095  0.00  0.00    +0.000 C 
ATOM      3  N   UNL     1       2.727  -0.875  -0.830  0.00  0.00    +0.000 N 
ATOM      4  H   UNL     1       3.638  -1.227  -0.532  0.00  0.00    +0.000 HD
ENDROOT
BRANCH   2   5
ATOM      5  C   UNL     1       3.033   0.685   1.008  0.00  0.00    +0.000 A 
ATOM      6  C   UNL     1       2.486   1.641   1.785  0.00  0.00    +0.000 A 
ATOM      7  C   UNL     1       3.200   2.154   2.946  0.00  0.00    +0.000 A 
ATOM      8  C   UNL     1       2.635   3.089   3.810  0.00  0.00    +0.000 A 
ATOM      9  C   UNL     1       3.353   3.491   4.931  0.00  0.00    +0.000 A 
ATOM     10  C   UNL     1       4.615   2.951   5.135  0.00  0.00    +0.000 A 
ATOM     11  N   UNL     1       5.197   2.054   4.306  0.00  0.00    +0.000 NA
ATOM     12  C   UNL     1       4.474   1.673   3.238  0.00  0.00    +0.000 A 
ATOM     13  N   UNL     1       5.041   0.722   2.397  0.00  0.00    +0.000 N 
ATOM     14  C   UNL     1       4.406   0.188   1.311  0.00  0.00    +0.000 A 
ATOM     15  O   UNL     1       4.937  -0.680   0.620  0.00  0.00    +0.000 OA
ATOM     16  H   UNL     1       5.964   0.392   2.637  0.00  0.00    +0.000 HD
ENDBRANCH   2   5
BRANCH   3  17
ATOM     17  C   UNL     1       2.074  -1.587  -1.855  0.00  0.00    +0.000 A 
ATOM     18  C   UNL     1       0.911  -1.123  -2.466  0.00  0.00    +0.000 A 
ATOM     19  C   UNL     1       0.233  -1.907  -3.395  0.00  0.00    +0.000 A 
ATOM     20  C   UNL     1       0.710  -3.174  -3.738  0.00  0.00    +0.000 A 
ATOM     21  C   UNL     1       1.918  -3.615  -3.184  0.00  0.00    +0.000 A 
ATOM     22  C   UNL     1       2.601  -2.821  -2.251  0.00  0.00    +0.000 A 
BRANCH  20  23
ATOM     23  C   UNL     1      -0.089  -4.024  -4.614  0.00  0.00    +0.000 A 
ATOM     24  N   UNL     1       0.447  -4.950  -5.423  0.00  0.00    +0.000 NA
ATOM     25  O   UNL     1      -0.614  -5.547  -6.081  0.00  0.00    +0.000 OA
ATOM     26  C   UNL     1      -1.781  -4.995  -5.660  0.00  0.00    +0.000 A 
ATOM     27  C   UNL     1      -1.504  -4.023  -4.733  0.00  0.00    +0.000 A 
BRANCH  26  28
ATOM     28  C   UNL     1      -3.030  -5.526  -6.226  0.00  0.00    +0.000 C 
ATOM     29  F   UNL     1      -2.839  -6.531  -7.114  0.00  0.00    +0.000 F 
ATOM     30  F   UNL     1      -3.846  -6.010  -5.252  0.00  0.00    +0.000 F 
ATOM     31  F   UNL     1      -3.735  -4.558  -6.868  0.00  0.00    +0.000 F 
ENDBRANCH  26  28
ENDBRANCH  20  23
ENDBRANCH   3  17
TORSDOF 4
