REMARK  Name = 
REMARK  6 active torsions:
REMARK  status: ('A' for Active; 'I' for Inactive)
REMARK    1  A    between atoms: C_1  and  O_2
REMARK    2  A    between atoms: O_2  and  C_3
REMARK    3  A    between atoms: C_3  and  C_5
REMARK    4  A    between atoms: C_11  and  N_12
REMARK    5  A    between atoms: C_13  and  C_15
REMARK    6  A    between atoms: N_17  and  C_18
REMARK                            x       y       z     vdW  Elec       q    Type
REMARK                         _______ _______ _______ _____ _____    ______ ____
ROOT
ATOM      1  N   UNL     1       7.383  -3.577  -2.140  0.00  0.00    +0.000 N 
ATOM      2  C   UNL     1       6.751  -4.726  -2.590  0.00  0.00    +0.000 C 
ATOM      3  O   UNL     1       5.537  -4.859  -2.716  0.00  0.00    +0.000 OA
ATOM      4  H   UNL     1       8.396  -3.578  -2.220  0.00  0.00    +0.000 HD
ENDROOT
BRANCH   1  11
ATOM      5  C   UNL     1       4.659   1.225  -0.748  0.00  0.00    +0.000 A 
ATOM      6  N   UNL     1       3.316   1.215  -0.489  0.00  0.00    +0.000 NA
ATOM      7  C   UNL     1       2.687   0.031  -0.543  0.00  0.00    +0.000 A 
ATOM      8  C   UNL     1       3.324  -1.154  -0.849  0.00  0.00    +0.000 A 
ATOM      9  C   UNL     1       4.699  -1.142  -1.113  0.00  0.00    +0.000 A 
ATOM     10  C   UNL     1       5.356  -2.340  -1.444  0.00  0.00    +0.000 A 
ATOM     11  C   UNL     1       6.725  -2.391  -1.732  0.00  0.00    +0.000 A 
ATOM     12  C   UNL     1       7.461  -1.216  -1.618  0.00  0.00    +0.000 A 
ATOM     13  C   UNL     1       6.821  -0.007  -1.295  0.00  0.00    +0.000 A 
ATOM     14  C   UNL     1       5.421   0.066  -1.056  0.00  0.00    +0.000 A 
BRANCH   5  15
ATOM     15  C   UNL     1       5.293   2.583  -0.715  0.00  0.00    +0.000 C 
ATOM     16  O   UNL     1       6.265   2.924  -1.371  0.00  0.00    +0.000 OA
BRANCH  15  18
ATOM     17  C   UNL     1       5.175   4.685   0.307  0.00  0.00    +0.000 C 
ATOM     18  O   UNL     1       4.636   3.370   0.180  0.00  0.00    +0.000 OA
ENDBRANCH  15  18
ENDBRANCH   5  15
ENDBRANCH   1  11
BRANCH   2  19
ATOM     19  C   UNL     1       7.637  -5.841  -2.967  0.00  0.00    +0.000 A 
ATOM     20  N   UNL     1       8.986  -5.829  -2.919  0.00  0.00    +0.000 NA
ATOM     21  N   UNL     1       9.355  -7.080  -3.350  0.00  0.00    +0.000 N 
ATOM     22  C   UNL     1       8.258  -7.849  -3.663  0.00  0.00    +0.000 A 
ATOM     23  C   UNL     1       7.150  -7.085  -3.432  0.00  0.00    +0.000 A 
BRANCH  21  24
ATOM     24  C   UNL     1      10.719  -7.487  -3.433  0.00  0.00    +0.000 A 
ATOM     25  C   UNL     1      11.738  -6.608  -3.054  0.00  0.00    +0.000 A 
ATOM     26  C   UNL     1      13.065  -7.026  -3.125  0.00  0.00    +0.000 A 
ATOM     27  F   UNL     1      14.040  -6.185  -2.755  0.00  0.00    +0.000 F 
ATOM     28  C   UNL     1      13.403  -8.302  -3.566  0.00  0.00    +0.000 A 
ATOM     29  C   UNL     1      12.396  -9.181  -3.951  0.00  0.00    +0.000 A 
ATOM     30  C   UNL     1      11.059  -8.777  -3.885  0.00  0.00    +0.000 A 
ENDBRANCH  21  24
ENDBRANCH   2  19
TORSDOF 5
