REMARK  Name = 
REMARK  5 active torsions:
REMARK  status: ('A' for Active; 'I' for Inactive)
REMARK    1  A    between atoms: C_2  and  C_3
REMARK    2  A    between atoms: C_3  and  C_4
REMARK    3  A    between atoms: N_10  and  C_11
REMARK    4  A    between atoms: C_15  and  N_16
REMARK    5  A    between atoms: C_17  and  C_19
REMARK                            x       y       z     vdW  Elec       q    Type
REMARK                         _______ _______ _______ _____ _____    ______ ____
ROOT
ATOM      1  C   UNL     1       4.552  -1.409   0.375  0.00  0.00    +0.000 A 
ATOM      2  C   UNL     1       5.204  -0.343   0.995  0.00  0.00    +0.000 A 
ATOM      3  C   UNL     1       6.582  -0.365   1.170  0.00  0.00    +0.000 A 
ATOM      4  C   UNL     1       7.327  -1.464   0.747  0.00  0.00    +0.000 A 
ATOM      5  C   UNL     1       6.710  -2.572   0.159  0.00  0.00    +0.000 A 
ATOM      6  C   UNL     1       5.316  -2.522  -0.044  0.00  0.00    +0.000 A 
ENDROOT
BRANCH   1   9
ATOM      7  O   UNL     1       2.497   0.619   1.108  0.00  0.00    +0.000 OA
ATOM      8  C   UNL     1       2.241  -0.425   0.514  0.00  0.00    +0.000 C 
ATOM      9  N   UNL     1       3.150  -1.421   0.151  0.00  0.00    +0.000 N 
ATOM     10  H   UNL     1       2.776  -2.248  -0.292  0.00  0.00    +0.000 HD
BRANCH   8  11
ATOM     11  C   UNL     1       0.803  -0.741   0.126  0.00  0.00    +0.000 C 
BRANCH  11  12
ATOM     12  C   UNL     1       0.049  -1.574   1.130  0.00  0.00    +0.000 A 
ATOM     13  C   UNL     1      -1.013  -2.389   0.718  0.00  0.00    +0.000 A 
ATOM     14  C   UNL     1      -1.726  -3.131   1.656  0.00  0.00    +0.000 A 
ATOM     15  C   UNL     1      -1.362  -3.028   2.986  0.00  0.00    +0.000 A 
ATOM     16  N   UNL     1      -0.366  -2.234   3.428  0.00  0.00    +0.000 NA
ATOM     17  C   UNL     1       0.304  -1.514   2.498  0.00  0.00    +0.000 A 
ENDBRANCH  11  12
ENDBRANCH   8  11
ENDBRANCH   1   9
BRANCH   5  18
ATOM     18  N   UNL     1       7.431  -3.739  -0.224  0.00  0.00    +0.000 N 
ATOM     19  C   UNL     1       8.790  -3.955  -0.027  0.00  0.00    +0.000 C 
ATOM     20  O   UNL     1       9.576  -3.174   0.503  0.00  0.00    +0.000 OA
ATOM     21  H   UNL     1       6.922  -4.505  -0.652  0.00  0.00    +0.000 HD
BRANCH  19  22
ATOM     22  C   UNL     1       9.356  -5.248  -0.536  0.00  0.00    +0.000 A 
ATOM     23  C   UNL     1      10.753  -5.379  -0.529  0.00  0.00    +0.000 A 
ATOM     24  C   UNL     1      11.338  -6.484  -1.130  0.00  0.00    +0.000 A 
ATOM     25  C   UNL     1      10.499  -7.448  -1.653  0.00  0.00    +0.000 A 
ATOM     26  C   UNL     1      10.995  -8.632  -2.378  0.00  0.00    +0.000 A 
ATOM     27  C   UNL     1      10.404  -9.753  -1.926  0.00  0.00    +0.000 A 
ATOM     28  C   UNL     1       8.898  -9.687  -1.992  0.00  0.00    +0.000 A 
ATOM     29  O   UNL     1       8.238 -10.710  -2.107  0.00  0.00    +0.000 OA
ATOM     30  N   UNL     1       8.338  -8.446  -1.785  0.00  0.00    +0.000 N 
ATOM     31  C   UNL     1       9.109  -7.313  -1.490  0.00  0.00    +0.000 A 
ATOM     32  N   UNL     1       8.502  -6.207  -1.000  0.00  0.00    +0.000 NA
ATOM     33  H   UNL     1       7.337  -8.392  -1.679  0.00  0.00    +0.000 HD
ENDBRANCH  19  22
ENDBRANCH   5  18
TORSDOF 5
