REMARK  Name = 
REMARK  6 active torsions:
REMARK  status: ('A' for Active; 'I' for Inactive)
REMARK    1  A    between atoms: C_2  and  C_3
REMARK    2  A    between atoms: C_3  and  C_4
REMARK    3  A    between atoms: C_9  and  O_10
REMARK    4  A    between atoms: O_10  and  C_11
REMARK    5  A    between atoms: N_17  and  C_18
REMARK    6  A    between atoms: C_21  and  C_22
REMARK                            x       y       z     vdW  Elec       q    Type
REMARK                         _______ _______ _______ _____ _____    ______ ____
ROOT
ATOM      1  O   UNL     1       1.889   0.193   1.183  0.00  0.00    +0.000 OA
ATOM      2  C   UNL     1       2.123  -0.323   0.086  0.00  0.00    +0.000 C 
ATOM      3  N   UNL     1       1.839  -1.632  -0.277  0.00  0.00    +0.000 N 
ATOM      4  H   UNL     1       2.142  -1.928  -1.196  0.00  0.00    +0.000 HD
ENDROOT
BRANCH   3   5
ATOM      5  C   UNL     1       1.167  -2.603   0.506  0.00  0.00    +0.000 A 
ATOM      6  C   UNL     1       0.716  -2.373   1.807  0.00  0.00    +0.000 A 
ATOM      7  C   UNL     1       0.120  -3.386   2.559  0.00  0.00    +0.000 A 
ATOM      8  C   UNL     1      -0.023  -4.681   2.046  0.00  0.00    +0.000 A 
ATOM      9  C   UNL     1       0.368  -4.900   0.721  0.00  0.00    +0.000 A 
ATOM     10  C   UNL     1       0.954  -3.873  -0.045  0.00  0.00    +0.000 A 
BRANCH   8  11
ATOM     11  C   UNL     1      -0.479  -5.764   2.926  0.00  0.00    +0.000 A 
ATOM     12  C   UNL     1      -1.294  -5.710   3.997  0.00  0.00    +0.000 A 
ATOM     13  N   UNL     1      -1.336  -6.952   4.589  0.00  0.00    +0.000 N 
ATOM     14  C   UNL     1      -0.502  -7.825   3.880  0.00  0.00    +0.000 A 
ATOM     15  O   UNL     1      -0.246  -8.986   4.137  0.00  0.00    +0.000 OA
ATOM     16  N   UNL     1      -0.005  -7.054   2.823  0.00  0.00    +0.000 N 
ATOM     17  H   UNL     1      -1.816  -7.206   5.437  0.00  0.00    +0.000 HD
ATOM     18  H   UNL     1       0.684  -7.392   2.171  0.00  0.00    +0.000 HD
ENDBRANCH   8  11
ENDBRANCH   3   5
BRANCH   2  19
ATOM     19  C   UNL     1       2.808   0.494  -0.992  0.00  0.00    +0.000 C 
BRANCH  19  20
ATOM     20  C   UNL     1       1.934   1.203  -2.008  0.00  0.00    +0.000 A 
ATOM     21  C   UNL     1       2.616   1.968  -2.986  0.00  0.00    +0.000 A 
ATOM     22  C   UNL     1       1.935   2.644  -4.004  0.00  0.00    +0.000 A 
ATOM     23  C   UNL     1       0.561   2.527  -4.105  0.00  0.00    +0.000 A 
ATOM     24  C   UNL     1      -0.124   1.754  -3.178  0.00  0.00    +0.000 A 
ATOM     25  C   UNL     1       0.530   1.168  -2.075  0.00  0.00    +0.000 A 
BRANCH  25  26
ATOM     26  O   UNL     1      -0.223   0.583  -1.063  0.00  0.00    +0.000 OA
BRANCH  26  27
ATOM     27  C   UNL     1      -1.459   1.149  -0.781  0.00  0.00    +0.000 A 
ATOM     28  C   UNL     1      -2.522   0.303  -0.476  0.00  0.00    +0.000 A 
ATOM     29  C   UNL     1      -3.785   0.872  -0.380  0.00  0.00    +0.000 A 
ATOM     30  N   UNL     1      -4.047   2.191  -0.564  0.00  0.00    +0.000 NA
ATOM     31  C   UNL     1      -2.986   2.986  -0.800  0.00  0.00    +0.000 A 
ATOM     32  C   UNL     1      -1.686   2.527  -0.862  0.00  0.00    +0.000 A 
ENDBRANCH  26  27
ENDBRANCH  25  26
ENDBRANCH  19  20
ENDBRANCH   2  19
TORSDOF 6
