REMARK  Name = 
REMARK  4 active torsions:
REMARK  status: ('A' for Active; 'I' for Inactive)
REMARK    1  A    between atoms: C_2  and  C_21
REMARK    2  A    between atoms: N_3  and  C_4
REMARK    3  A    between atoms: N_10  and  C_11
REMARK    4  A    between atoms: C_11  and  C_12
REMARK                            x       y       z     vdW  Elec       q    Type
REMARK                         _______ _______ _______ _____ _____    ______ ____
ROOT
ATOM      1  C   UNL     1       2.188  -2.182   1.217  0.00  0.00    +0.000 A 
ATOM      2  C   UNL     1       1.030  -2.753   0.696  0.00  0.00    +0.000 A 
ATOM      3  C   UNL     1       0.382  -3.799   1.363  0.00  0.00    +0.000 A 
ATOM      4  C   UNL     1       0.880  -4.252   2.598  0.00  0.00    +0.000 A 
ATOM      5  C   UNL     1       0.419  -5.204   3.544  0.00  0.00    +0.000 A 
ATOM      6  C   UNL     1       1.274  -5.170   4.620  0.00  0.00    +0.000 A 
ATOM      7  N   UNL     1       2.259  -4.245   4.359  0.00  0.00    +0.000 N 
ATOM      8  C   UNL     1       2.052  -3.686   3.108  0.00  0.00    +0.000 A 
ATOM      9  C   UNL     1       2.750  -2.687   2.403  0.00  0.00    +0.000 A 
ENDROOT
BRANCH   1  12
ATOM     10  O   UNL     1       1.184  -0.270  -0.812  0.00  0.00    +0.000 OA
ATOM     11  C   UNL     1       2.294  -0.194  -0.286  0.00  0.00    +0.000 C 
ATOM     12  N   UNL     1       2.829  -1.065   0.637  0.00  0.00    +0.000 N 
ATOM     13  H   UNL     1       3.721  -0.824   1.055  0.00  0.00    +0.000 HD
BRANCH  11  14
ATOM     14  C   UNL     1       3.153   0.983  -0.657  0.00  0.00    +0.000 A 
ATOM     15  C   UNL     1       4.301   1.294  -0.055  0.00  0.00    +0.000 A 
ATOM     16  F   UNL     1       4.832   0.580   0.957  0.00  0.00    +0.000 F 
ATOM     17  C   UNL     1       5.053   2.489  -0.491  0.00  0.00    +0.000 A 
ATOM     18  O   UNL     1       6.111   2.816   0.033  0.00  0.00    +0.000 OA
ATOM     19  N   UNL     1       4.489   3.204  -1.514  0.00  0.00    +0.000 N 
ATOM     20  C   UNL     1       3.302   2.908  -2.126  0.00  0.00    +0.000 A 
ATOM     21  O   UNL     1       2.843   3.602  -3.024  0.00  0.00    +0.000 OA
ATOM     22  N   UNL     1       2.670   1.790  -1.670  0.00  0.00    +0.000 N 
ATOM     23  H   UNL     1       4.973   4.028  -1.828  0.00  0.00    +0.000 HD
ATOM     24  H   UNL     1       1.772   1.541  -2.092  0.00  0.00    +0.000 HD
ENDBRANCH  11  14
ENDBRANCH   1  12
BRANCH   7  25
ATOM     25  C   UNL     1       3.152  -3.717   5.387  0.00  0.00    +0.000 C 
BRANCH  25  26
ATOM     26  C   UNL     1       4.412  -4.510   5.596  0.00  0.00    +0.000 A 
ATOM     27  C   UNL     1       4.441  -5.626   6.447  0.00  0.00    +0.000 A 
ATOM     28  C   UNL     1       5.654  -6.246   6.765  0.00  0.00    +0.000 A 
ATOM     29  C   UNL     1       6.848  -5.769   6.227  0.00  0.00    +0.000 A 
ATOM     30  C   UNL     1       6.827  -4.691   5.345  0.00  0.00    +0.000 A 
ATOM     31  C   UNL     1       5.616  -4.077   5.033  0.00  0.00    +0.000 A 
ATOM     32  F   UNL     1       5.627  -3.014   4.215  0.00  0.00    +0.000 F 
ENDBRANCH  25  26
ENDBRANCH   7  25
TORSDOF 4
