REMARK  Name = 
REMARK  6 active torsions:
REMARK  status: ('A' for Active; 'I' for Inactive)
REMARK    1  A    between atoms: C_1  and  C_2
REMARK    2  A    between atoms: N_5  and  C_6
REMARK    3  A    between atoms: C_6  and  C_7
REMARK    4  A    between atoms: C_6  and  C_15
REMARK    5  A    between atoms: C_7  and  N_8
REMARK    6  A    between atoms: N_24  and  C_25
REMARK                            x       y       z     vdW  Elec       q    Type
REMARK                         _______ _______ _______ _____ _____    ______ ____
ROOT
ATOM      1  C   UNL     1       5.535   2.144   2.273  0.00  0.00    +0.000 C 
ATOM      2  C   UNL     1       5.142   0.693   2.353  0.00  0.00    +0.000 A 
ATOM      3  C   UNL     1       5.186  -0.062   1.249  0.00  0.00    +0.000 A 
ATOM      4  C   UNL     1       4.956  -1.518   1.381  0.00  0.00    +0.000 A 
ATOM      5  N   UNL     1       5.104  -2.284   0.246  0.00  0.00    +0.000 N 
ATOM      6  N   UNL     1       4.647  -2.059   2.515  0.00  0.00    +0.000 NA
ATOM      7  C   UNL     1       4.550  -1.289   3.652  0.00  0.00    +0.000 A 
ATOM      8  O   UNL     1       4.200  -1.825   4.705  0.00  0.00    +0.000 OA
ATOM      9  N   UNL     1       4.835   0.102   3.577  0.00  0.00    +0.000 N 
ATOM     10  H   UNL     1       5.137  -1.758  -0.630  0.00  0.00    +0.000 HD
ENDROOT
BRANCH   9  11
ATOM     11  C   UNL     1       4.786   0.833   4.807  0.00  0.00    +0.000 A 
ATOM     12  C   UNL     1       5.639   0.469   5.858  0.00  0.00    +0.000 A 
ATOM     13  C   UNL     1       5.563   1.119   7.089  0.00  0.00    +0.000 A 
ATOM     14  C   UNL     1       4.624   2.129   7.287  0.00  0.00    +0.000 A 
ATOM     15  C   UNL     1       3.778   2.506   6.243  0.00  0.00    +0.000 A 
ATOM     16  C   UNL     1       3.866   1.870   5.001  0.00  0.00    +0.000 A 
ENDBRANCH   9  11
BRANCH   5  17
ATOM     17  C   UNL     1       4.576  -3.635   0.077  0.00  0.00    +0.000 C 
BRANCH  17  18
ATOM     18  C   UNL     1       5.730  -4.633   0.170  0.00  0.00    +0.000 A 
ATOM     19  C   UNL     1       5.682  -5.697   1.081  0.00  0.00    +0.000 A 
ATOM     20  C   UNL     1       6.728  -6.623   1.159  0.00  0.00    +0.000 A 
ATOM     21  C   UNL     1       7.838  -6.497   0.326  0.00  0.00    +0.000 A 
ATOM     22  C   UNL     1       7.903  -5.447  -0.586  0.00  0.00    +0.000 A 
ATOM     23  C   UNL     1       6.858  -4.522  -0.665  0.00  0.00    +0.000 A 
ENDBRANCH  17  18
BRANCH  17  24
ATOM     24  C   UNL     1       3.865  -3.801  -1.306  0.00  0.00    +0.000 C 
BRANCH  24  25
ATOM     25  N   UNL     1       2.713  -2.912  -1.544  0.00  0.00    +0.000 N 
ATOM     26  C   UNL     1       1.450  -3.463  -1.707  0.00  0.00    +0.000 A 
ATOM     27  C   UNL     1       0.387  -2.695  -1.985  0.00  0.00    +0.000 A 
ATOM     28  C   UNL     1       0.529  -1.264  -2.052  0.00  0.00    +0.000 A 
ATOM     29  C   UNL     1       1.736  -0.698  -1.935  0.00  0.00    +0.000 A 
ATOM     30  C   UNL     1       2.941  -1.550  -1.756  0.00  0.00    +0.000 A 
ATOM     31  O   UNL     1       4.054  -1.027  -1.797  0.00  0.00    +0.000 OA
ENDBRANCH  24  25
ENDBRANCH  17  24
ENDBRANCH   5  17
TORSDOF 5
