REMARK  Name = 
REMARK  3 active torsions:
REMARK  status: ('A' for Active; 'I' for Inactive)
REMARK    1  A    between atoms: N_3  and  C_4
REMARK    2  A    between atoms: C_7  and  C_8
REMARK    3  A    between atoms: C_21  and  C_22
REMARK                            x       y       z     vdW  Elec       q    Type
REMARK                         _______ _______ _______ _____ _____    ______ ____
ROOT
ATOM      1  O   UNL     1       1.000  -0.343  -0.247  0.00  0.00    +0.000 OA
ATOM      2  C   UNL     1       2.168   0.010  -0.117  0.00  0.00    +0.000 C 
ATOM      3  N   UNL     1       2.693   0.666   0.963  0.00  0.00    +0.000 N 
ATOM      4  N   UNL     1       3.039  -0.278  -1.135  0.00  0.00    +0.000 N 
ATOM      5  C   UNL     1       4.399  -0.045  -1.196  0.00  0.00    +0.000 A 
ATOM      6  N   UNL     1       5.062   0.698  -0.297  0.00  0.00    +0.000 NA
ATOM      7  O   UNL     1       6.387   0.656  -0.655  0.00  0.00    +0.000 OA
ATOM      8  C   UNL     1       6.525  -0.094  -1.769  0.00  0.00    +0.000 A 
ATOM      9  C   UNL     1       5.293  -0.545  -2.192  0.00  0.00    +0.000 A 
ATOM     10  H   UNL     1       3.646   0.992   0.838  0.00  0.00    +0.000 HD
ATOM     11  H   UNL     1       2.623  -0.833  -1.870  0.00  0.00    +0.000 HD
ENDROOT
BRANCH   9  12
ATOM     12  C   UNL     1       5.133  -1.425  -3.341  0.00  0.00    +0.000 A 
ATOM     13  C   UNL     1       5.972  -1.288  -4.461  0.00  0.00    +0.000 A 
ATOM     14  C   UNL     1       5.900  -2.198  -5.519  0.00  0.00    +0.000 A 
ATOM     15  C   UNL     1       4.979  -3.237  -5.471  0.00  0.00    +0.000 A 
ATOM     16  F   UNL     1       4.935  -4.125  -6.471  0.00  0.00    +0.000 F 
ATOM     17  C   UNL     1       4.113  -3.373  -4.398  0.00  0.00    +0.000 A 
ATOM     18  C   UNL     1       4.194  -2.467  -3.345  0.00  0.00    +0.000 A 
ATOM     19  F   UNL     1       3.352  -2.634  -2.315  0.00  0.00    +0.000 F 
ENDBRANCH   9  12
BRANCH   3  20
ATOM     20  C   UNL     1       2.057   1.035   2.156  0.00  0.00    +0.000 A 
ATOM     21  C   UNL     1       0.799   0.575   2.538  0.00  0.00    +0.000 A 
ATOM     22  C   UNL     1       0.213   1.028   3.724  0.00  0.00    +0.000 A 
ATOM     23  C   UNL     1       0.871   1.952   4.548  0.00  0.00    +0.000 A 
ATOM     24  C   UNL     1       2.150   2.383   4.175  0.00  0.00    +0.000 A 
ATOM     25  C   UNL     1       2.742   1.918   2.997  0.00  0.00    +0.000 A 
BRANCH  23  26
ATOM     26  C   UNL     1       0.215   2.500   5.739  0.00  0.00    +0.000 A 
ATOM     27  C   UNL     1      -0.666   1.860   6.522  0.00  0.00    +0.000 A 
ATOM     28  C   UNL     1      -1.116   2.878   7.490  0.00  0.00    +0.000 A 
ATOM     29  O   UNL     1      -1.844   2.669   8.442  0.00  0.00    +0.000 OA
ATOM     30  N   UNL     1      -0.541   4.078   7.109  0.00  0.00    +0.000 N 
ATOM     31  N   UNL     1       0.413   3.822   6.123  0.00  0.00    +0.000 N 
ATOM     32  H   UNL     1      -0.422   4.830   7.778  0.00  0.00    +0.000 HD
ATOM     33  H   UNL     1       0.372   4.453   5.318  0.00  0.00    +0.000 HD
ENDBRANCH  23  26
ENDBRANCH   3  20
TORSDOF 3
