REMARK  Name = 
REMARK  11 active torsions:
REMARK  status: ('A' for Active; 'I' for Inactive)
REMARK    1  A    between atoms: C_1  and  C_2
REMARK    2  A    between atoms: C_2  and  O_3
REMARK    3  A    between atoms: C_2  and  C_21
REMARK    4  A    between atoms: O_3  and  C_4
REMARK    5  A    between atoms: C_4  and  C_6
REMARK    6  A    between atoms: C_6  and  O_7
REMARK    7  A    between atoms: O_7  and  C_8
REMARK    8  A    between atoms: C_12  and  O_13
REMARK    9  A    between atoms: O_13  and  C_14
REMARK   10  A    between atoms: C_21  and  C_23
REMARK   11  A    between atoms: N_32  and  C_33
REMARK                            x       y       z     vdW  Elec       q    Type
REMARK                         _______ _______ _______ _____ _____    ______ ____
ROOT
ATOM      1  C   UNL     1       2.573  -2.446  -0.324  0.00  0.00    +0.000 C 
ATOM      2  O   UNL     1       2.550  -2.665   0.880  0.00  0.00    +0.000 OA
ENDROOT
BRANCH   1   3
ATOM      3  O   UNL     1       2.656  -1.203  -0.884  0.00  0.00    +0.000 OA
BRANCH   3   5
ATOM      4  C   UNL     1       0.821   0.026   0.011  0.00  0.00    +0.000 C 
ATOM      5  C   UNL     1       2.345  -0.118   0.003  0.00  0.00    +0.000 C 
BRANCH   5   6
ATOM      6  C   UNL     1       2.990   1.193  -0.469  0.00  0.00    +0.000 C 
ATOM      7  O   UNL     1       2.316   2.176  -0.784  0.00  0.00    +0.000 OA
BRANCH   6   8
ATOM      8  C   UNL     1       4.481   1.320  -0.505  0.00  0.00    +0.000 A 
ATOM      9  C   UNL     1       5.342   0.294  -0.061  0.00  0.00    +0.000 A 
ATOM     10  C   UNL     1       6.733   0.447  -0.123  0.00  0.00    +0.000 A 
ATOM     11  C   UNL     1       7.236   1.629  -0.633  0.00  0.00    +0.000 A 
ATOM     12  C   UNL     1       6.398   2.651  -1.071  0.00  0.00    +0.000 A 
ATOM     13  C   UNL     1       5.022   2.520  -1.003  0.00  0.00    +0.000 A 
ATOM     14  C   UNL     1       7.221   3.791  -1.593  0.00  0.00    +0.000 C 
ATOM     15  C   UNL     1       8.653   3.281  -1.397  0.00  0.00    +0.000 C 
ATOM     16  O   UNL     1       9.670   3.884  -1.705  0.00  0.00    +0.000 OA
ATOM     17  N   UNL     1       8.566   2.013  -0.812  0.00  0.00    +0.000 N 
ATOM     18  C   UNL     1       9.696   1.199  -0.460  0.00  0.00    +0.000 C 
ENDBRANCH   6   8
ENDBRANCH   5   6
ENDBRANCH   3   5
ENDBRANCH   1   3
BRANCH   1  19
ATOM     19  C   UNL     1       2.411  -3.513  -1.392  0.00  0.00    +0.000 C 
BRANCH  19  20
ATOM     20  O   UNL     1       3.659  -4.016  -1.838  0.00  0.00    +0.000 OA
BRANCH  20  21
ATOM     21  C   UNL     1       3.605  -4.997  -2.796  0.00  0.00    +0.000 A 
ATOM     22  C   UNL     1       2.438  -5.547  -3.337  0.00  0.00    +0.000 A 
ATOM     23  C   UNL     1       2.513  -6.556  -4.300  0.00  0.00    +0.000 A 
ATOM     24  C   UNL     1       3.753  -7.013  -4.737  0.00  0.00    +0.000 A 
ATOM     25  C   UNL     1       4.924  -6.432  -4.244  0.00  0.00    +0.000 A 
ATOM     26  C   UNL     1       4.848  -5.453  -3.249  0.00  0.00    +0.000 A 
BRANCH  25  27
ATOM     27  O   UNL     1       6.183  -6.825  -4.642  0.00  0.00    +0.000 OA
BRANCH  27  28
ATOM     28  C   UNL     1       6.391  -7.072  -5.997  0.00  0.00    +0.000 A 
ATOM     29  C   UNL     1       7.459  -7.897  -6.319  0.00  0.00    +0.000 A 
ATOM     30  C   UNL     1       7.686  -8.186  -7.662  0.00  0.00    +0.000 A 
ATOM     31  C   UNL     1       6.847  -7.639  -8.631  0.00  0.00    +0.000 A 
ATOM     32  C   UNL     1       5.823  -6.809  -8.214  0.00  0.00    +0.000 A 
ATOM     33  N   UNL     1       5.585  -6.501  -6.922  0.00  0.00    +0.000 NA
ENDBRANCH  27  28
ENDBRANCH  25  27
ENDBRANCH  20  21
ENDBRANCH  19  20
ENDBRANCH   1  19
TORSDOF 9
