REMARK  Name = 
REMARK  6 active torsions:
REMARK  status: ('A' for Active; 'I' for Inactive)
REMARK    1  A    between atoms: C_2  and  C_3
REMARK    2  A    between atoms: C_3  and  C_4
REMARK    3  A    between atoms: N_9  and  C_10
REMARK    4  A    between atoms: C_12  and  N_13
REMARK    5  A    between atoms: C_14  and  C_16
REMARK    6  A    between atoms: C_20  and  C_21
REMARK                            x       y       z     vdW  Elec       q    Type
REMARK                         _______ _______ _______ _____ _____    ______ ____
ROOT
ATOM      1  C   UNL     1       4.461   1.091   0.518  0.00  0.00    +0.000 A 
ATOM      2  C   UNL     1       5.105   0.801  -0.686  0.00  0.00    +0.000 A 
ATOM      3  C   UNL     1       6.493   0.901  -0.825  0.00  0.00    +0.000 A 
ATOM      4  C   UNL     1       7.251   1.290   0.280  0.00  0.00    +0.000 A 
ATOM      5  C   UNL     1       6.615   1.639   1.477  0.00  0.00    +0.000 A 
ATOM      6  C   UNL     1       5.222   1.555   1.592  0.00  0.00    +0.000 A 
ENDROOT
BRANCH   3   7
ATOM      7  N   UNL     1       7.148   0.595  -2.043  0.00  0.00    +0.000 N 
ATOM      8  C   UNL     1       6.522   0.576  -3.281  0.00  0.00    +0.000 C 
ATOM      9  O   UNL     1       5.378   0.950  -3.520  0.00  0.00    +0.000 OA
ATOM     10  H   UNL     1       8.157   0.518  -2.017  0.00  0.00    +0.000 HD
BRANCH   8  11
ATOM     11  C   UNL     1       7.327   0.141  -4.438  0.00  0.00    +0.000 A 
ATOM     12  C   UNL     1       7.017   0.692  -5.676  0.00  0.00    +0.000 A 
ATOM     13  N   UNL     1       7.638   0.355  -6.828  0.00  0.00    +0.000 NA
ATOM     14  C   UNL     1       8.583  -0.609  -6.737  0.00  0.00    +0.000 A 
ATOM     15  C   UNL     1       8.954  -1.269  -5.561  0.00  0.00    +0.000 A 
ATOM     16  C   UNL     1       8.308  -0.851  -4.382  0.00  0.00    +0.000 A 
BRANCH  15  17
ATOM     17  C   UNL     1       9.948  -2.354  -5.557  0.00  0.00    +0.000 A 
ATOM     18  C   UNL     1      10.132  -3.217  -6.641  0.00  0.00    +0.000 A 
ATOM     19  C   UNL     1      11.091  -4.224  -6.560  0.00  0.00    +0.000 A 
ATOM     20  C   UNL     1      11.841  -4.353  -5.402  0.00  0.00    +0.000 A 
ATOM     21  C   UNL     1      11.597  -3.468  -4.366  0.00  0.00    +0.000 A 
ATOM     22  N   UNL     1      10.673  -2.482  -4.417  0.00  0.00    +0.000 NA
ENDBRANCH  15  17
ENDBRANCH   8  11
ENDBRANCH   3   7
BRANCH   1  25
ATOM     23  O   UNL     1       2.613  -0.570  -1.044  0.00  0.00    +0.000 OA
ATOM     24  C   UNL     1       2.240   0.171  -0.136  0.00  0.00    +0.000 C 
ATOM     25  N   UNL     1       3.064   0.938   0.681  0.00  0.00    +0.000 N 
ATOM     26  H   UNL     1       2.667   1.319   1.530  0.00  0.00    +0.000 HD
BRANCH  24  27
ATOM     27  C   UNL     1       0.766   0.264   0.204  0.00  0.00    +0.000 C 
BRANCH  27  28
ATOM     28  C   UNL     1       0.018   0.909  -0.900  0.00  0.00    +0.000 A 
ATOM     29  C   UNL     1       0.095   0.911  -2.276  0.00  0.00    +0.000 A 
ATOM     30  N   UNL     1      -0.910   1.683  -2.797  0.00  0.00    +0.000 NA
ATOM     31  C   UNL     1      -1.551   2.116  -1.738  0.00  0.00    +0.000 A 
ATOM     32  O   UNL     1      -1.052   1.687  -0.545  0.00  0.00    +0.000 OA
ENDBRANCH  27  28
ENDBRANCH  24  27
ENDBRANCH   1  25
TORSDOF 6
