REMARK  Name = 
REMARK  6 active torsions:
REMARK  status: ('A' for Active; 'I' for Inactive)
REMARK    1  A    between atoms: C_1  and  C_2
REMARK    2  A    between atoms: N_4  and  C_5
REMARK    3  A    between atoms: C_9  and  N_10
REMARK    4  A    between atoms: N_13  and  C_14
REMARK    5  A    between atoms: C_14  and  C_15
REMARK    6  A    between atoms: C_18  and  C_19
REMARK                            x       y       z     vdW  Elec       q    Type
REMARK                         _______ _______ _______ _____ _____    ______ ____
ROOT
ATOM      1  N   UNL     1       7.067   4.702   1.710  0.00  0.00    +0.000 N 
ATOM      2  C   UNL     1       7.894   5.786   1.481  0.00  0.00    +0.000 C 
ATOM      3  O   UNL     1       8.698   5.891   0.573  0.00  0.00    +0.000 OA
ATOM      4  N   UNL     1       7.782   6.795   2.423  0.00  0.00    +0.000 N 
ATOM      5  H   UNL     1       6.411   4.761   2.474  0.00  0.00    +0.000 HD
ATOM      6  H   UNL     1       6.922   6.920   2.928  0.00  0.00    +0.000 HD
ENDROOT
BRANCH   1  11
ATOM      7  C   UNL     1       6.046   1.354   0.390  0.00  0.00    +0.000 A 
ATOM      8  C   UNL     1       6.837   1.257  -0.761  0.00  0.00    +0.000 A 
ATOM      9  C   UNL     1       7.730   2.264  -1.070  0.00  0.00    +0.000 A 
ATOM     10  C   UNL     1       7.829   3.373  -0.236  0.00  0.00    +0.000 A 
ATOM     11  C   UNL     1       7.021   3.531   0.899  0.00  0.00    +0.000 A 
ATOM     12  C   UNL     1       6.127   2.493   1.220  0.00  0.00    +0.000 A 
BRANCH   7  16
ATOM     13  C   UNL     1       2.252  -0.871   2.380  0.00  0.00    +0.000 C 
ATOM     14  C   UNL     1       3.437  -0.669   1.515  0.00  0.00    +0.000 A 
ATOM     15  N   UNL     1       4.303   0.331   1.739  0.00  0.00    +0.000 NA
ATOM     16  N   UNL     1       5.124   0.310   0.659  0.00  0.00    +0.000 N 
ATOM     17  C   UNL     1       4.880  -0.788  -0.135  0.00  0.00    +0.000 A 
ATOM     18  C   UNL     1       3.794  -1.437   0.390  0.00  0.00    +0.000 A 
ENDBRANCH   7  16
ENDBRANCH   1  11
BRANCH   4  19
ATOM     19  C   UNL     1       8.629   7.955   2.192  0.00  0.00    +0.000 C 
BRANCH  19  20
ATOM     20  C   UNL     1       9.039   8.703   3.429  0.00  0.00    +0.000 A 
ATOM     21  C   UNL     1       9.761   8.064   4.444  0.00  0.00    +0.000 A 
ATOM     22  C   UNL     1      10.247   8.789   5.538  0.00  0.00    +0.000 A 
ATOM     23  C   UNL     1      10.029  10.170   5.631  0.00  0.00    +0.000 A 
ATOM     24  C   UNL     1       9.325  10.814   4.608  0.00  0.00    +0.000 A 
ATOM     25  C   UNL     1       8.831  10.087   3.519  0.00  0.00    +0.000 A 
BRANCH  23  26
ATOM     26  C   UNL     1      10.540  10.932   6.787  0.00  0.00    +0.000 A 
ATOM     27  C   UNL     1      11.775  11.460   6.712  0.00  0.00    +0.000 A 
ATOM     28  N   UNL     1      12.305  12.182   7.755  0.00  0.00    +0.000 N 
ATOM     29  C   UNL     1      11.643  12.430   8.933  0.00  0.00    +0.000 A 
ATOM     30  O   UNL     1      12.134  13.077   9.850  0.00  0.00    +0.000 OA
ATOM     31  C   UNL     1      10.276  11.860   9.032  0.00  0.00    +0.000 A 
ATOM     32  C   UNL     1       9.774  11.151   8.009  0.00  0.00    +0.000 A 
ATOM     33  H   UNL     1      13.237  12.570   7.684  0.00  0.00    +0.000 HD
ENDBRANCH  23  26
ENDBRANCH  19  20
ENDBRANCH   4  19
TORSDOF 5
