REMARK  Name = 
REMARK  7 active torsions:
REMARK  status: ('A' for Active; 'I' for Inactive)
REMARK    1  A    between atoms: C_1  and  C_2
REMARK    2  A    between atoms: C_2  and  O_3
REMARK    3  A    between atoms: O_3  and  C_4
REMARK    4  A    between atoms: C_7  and  C_8
REMARK    5  A    between atoms: C_8  and  N_9
REMARK    6  A    between atoms: C_8  and  C_23
REMARK    7  A    between atoms: C_10  and  C_12
REMARK                            x       y       z     vdW  Elec       q    Type
REMARK                         _______ _______ _______ _____ _____    ______ ____
ROOT
ATOM      1  C   UNL     1       8.489   2.495   0.535  0.00  0.00    +0.000 C 
ENDROOT
BRANCH   1   2
ATOM      2  C   UNL     1       9.294   1.915  -0.627  0.00  0.00    +0.000 A 
ATOM      3  C   UNL     1      10.028   2.772  -1.465  0.00  0.00    +0.000 A 
ATOM      4  C   UNL     1      10.694   2.275  -2.588  0.00  0.00    +0.000 A 
ATOM      5  C   UNL     1      10.650   0.915  -2.881  0.00  0.00    +0.000 A 
ATOM      6  C   UNL     1       9.955   0.046  -2.042  0.00  0.00    +0.000 A 
ATOM      7  C   UNL     1       9.284   0.540  -0.920  0.00  0.00    +0.000 A 
ENDBRANCH   1   2
BRANCH   1  11
ATOM      8  C   UNL     1       4.208   1.720   0.192  0.00  0.00    +0.000 A 
ATOM      9  C   UNL     1       4.894   1.345   1.346  0.00  0.00    +0.000 A 
ATOM     10  C   UNL     1       6.268   1.577   1.461  0.00  0.00    +0.000 A 
ATOM     11  C   UNL     1       6.992   2.186   0.427  0.00  0.00    +0.000 A 
ATOM     12  C   UNL     1       6.288   2.554  -0.736  0.00  0.00    +0.000 A 
ATOM     13  C   UNL     1       4.914   2.323  -0.849  0.00  0.00    +0.000 A 
BRANCH   8  14
ATOM     14  O   UNL     1       2.867   1.559  -0.029  0.00  0.00    +0.000 OA
BRANCH  14  16
ATOM     15  C   UNL     1       0.672   0.842   0.585  0.00  0.00    +0.000 C 
ATOM     16  C   UNL     1       2.124   0.932   1.015  0.00  0.00    +0.000 C 
ENDBRANCH  14  16
ENDBRANCH   8  14
ENDBRANCH   1  11
BRANCH   1  17
ATOM     17  N   UNL     1       9.072   2.068   1.794  0.00  0.00    +0.000 N 
ATOM     18  C   UNL     1       9.126   2.865   2.905  0.00  0.00    +0.000 C 
ATOM     19  O   UNL     1       8.790   4.047   2.908  0.00  0.00    +0.000 OA
ATOM     20  H   UNL     1       9.218   1.071   1.929  0.00  0.00    +0.000 HD
BRANCH  18  21
ATOM     21  C   UNL     1       9.645   2.200   4.144  0.00  0.00    +0.000 A 
ATOM     22  C   UNL     1      10.118   3.014   5.107  0.00  0.00    +0.000 A 
ATOM     23  N   UNL     1      10.652   2.528   6.274  0.00  0.00    +0.000 N 
ATOM     24  C   UNL     1      10.748   1.193   6.588  0.00  0.00    +0.000 A 
ATOM     25  O   UNL     1      11.239   0.800   7.638  0.00  0.00    +0.000 OA
ATOM     26  C   UNL     1      10.220   0.252   5.578  0.00  0.00    +0.000 A 
ATOM     27  C   UNL     1      10.240  -1.125   5.800  0.00  0.00    +0.000 A 
ATOM     28  C   UNL     1       9.727  -1.972   4.825  0.00  0.00    +0.000 A 
ATOM     29  C   UNL     1       9.219  -1.407   3.666  0.00  0.00    +0.000 A 
ATOM     30  N   UNL     1       9.190  -0.075   3.423  0.00  0.00    +0.000 NA
ATOM     31  C   UNL     1       9.691   0.748   4.387  0.00  0.00    +0.000 A 
ATOM     32  H   UNL     1      11.018   3.172   6.969  0.00  0.00    +0.000 HD
ENDBRANCH  18  21
ENDBRANCH   1  17
TORSDOF 6
