REMARK  Name = 
REMARK  5 active torsions:
REMARK  status: ('A' for Active; 'I' for Inactive)
REMARK    1  A    between atoms: C_2  and  C_3
REMARK    2  A    between atoms: C_8  and  O_9
REMARK    3  A    between atoms: O_9  and  C_10
REMARK    4  A    between atoms: C_19  and  O_20
REMARK    5  A    between atoms: C_19  and  C_21
REMARK                            x       y       z     vdW  Elec       q    Type
REMARK                         _______ _______ _______ _____ _____    ______ ____
ROOT
ATOM      1  O   UNL     1       1.053   0.128   0.085  0.00  0.00    +0.000 OA
ATOM      2  C   UNL     1       2.264   0.231   0.293  0.00  0.00    +0.000 C 
ATOM      3  N   UNL     1       2.789  -0.002   1.542  0.00  0.00    +0.000 N 
ATOM      4  C   UNL     1       2.052  -0.600   2.655  0.00  0.00    +0.000 C 
ATOM      5  C   UNL     1       3.416  -0.712   3.404  0.00  0.00    +0.000 C 
ATOM      6  C   UNL     1       4.067  -0.539   1.984  0.00  0.00    +0.000 C 
ENDROOT
BRANCH   5   7
ATOM      7  C   UNL     1       3.757  -2.087   4.172  0.00  0.00    +0.000 A 
ATOM      8  C   UNL     1       2.775  -2.942   4.721  0.00  0.00    +0.000 A 
ATOM      9  C   UNL     1       3.109  -4.084   5.457  0.00  0.00    +0.000 A 
ATOM     10  C   UNL     1       4.444  -4.401   5.668  0.00  0.00    +0.000 A 
ATOM     11  F   UNL     1       4.762  -5.479   6.399  0.00  0.00    +0.000 F 
ATOM     12  C   UNL     1       5.437  -3.595   5.139  0.00  0.00    +0.000 A 
ATOM     13  F   UNL     1       6.729  -3.887   5.346  0.00  0.00    +0.000 F 
ATOM     14  C   UNL     1       5.104  -2.458   4.407  0.00  0.00    +0.000 A 
ENDBRANCH   5   7
BRANCH   2  15
ATOM     15  C   UNL     1       3.144   0.560  -0.860  0.00  0.00    +0.000 A 
ATOM     16  C   UNL     1       2.719   0.069  -2.106  0.00  0.00    +0.000 A 
ATOM     17  C   UNL     1       3.462   0.358  -3.234  0.00  0.00    +0.000 A 
ATOM     18  N   UNL     1       4.610   1.056  -3.198  0.00  0.00    +0.000 NA
ATOM     19  C   UNL     1       4.997   1.529  -1.989  0.00  0.00    +0.000 A 
ATOM     20  C   UNL     1       4.281   1.372  -0.801  0.00  0.00    +0.000 A 
BRANCH  20  21
ATOM     21  O   UNL     1       4.624   1.977   0.387  0.00  0.00    +0.000 OA
BRANCH  21  22
ATOM     22  C   UNL     1       5.473   3.061   0.366  0.00  0.00    +0.000 A 
ATOM     23  C   UNL     1       5.254   4.171  -0.459  0.00  0.00    +0.000 A 
ATOM     24  C   UNL     1       6.192   5.202  -0.499  0.00  0.00    +0.000 A 
ATOM     25  C   UNL     1       7.305   5.146   0.332  0.00  0.00    +0.000 A 
ATOM     26  F   UNL     1       8.213   6.130   0.282  0.00  0.00    +0.000 F 
ATOM     27  C   UNL     1       7.491   4.085   1.213  0.00  0.00    +0.000 A 
ATOM     28  C   UNL     1       6.569   3.037   1.234  0.00  0.00    +0.000 A 
ENDBRANCH  21  22
ENDBRANCH  20  21
ENDBRANCH   2  15
BRANCH   5  29
ATOM     29  O   UNL     1       3.684   0.406   4.306  0.00  0.00    +0.000 OA
ATOM     30  H   UNL     1       3.030   0.305   5.020  0.00  0.00    +0.000 HD
ENDBRANCH   5  29
TORSDOF 5
