REMARK  Name = 
REMARK  8 active torsions:
REMARK  status: ('A' for Active; 'I' for Inactive)
REMARK    1  A    between atoms: C_1  and  C_2
REMARK    2  A    between atoms: C_7  and  N_8
REMARK    3  A    between atoms: C_12  and  N_13
REMARK    4  A    between atoms: C_14  and  C_16
REMARK    5  A    between atoms: C_16  and  O_17
REMARK    6  A    between atoms: O_17  and  C_18
REMARK    7  A    between atoms: C_22  and  O_23
REMARK    8  A    between atoms: O_23  and  C_24
REMARK                            x       y       z     vdW  Elec       q    Type
REMARK                         _______ _______ _______ _____ _____    ______ ____
ROOT
ATOM      1  N   UNL     1      -2.218   4.735   2.305  0.00  0.00    +0.000 N 
ATOM      2  C   UNL     1      -2.387   4.326   3.607  0.00  0.00    +0.000 C 
ATOM      3  O   UNL     1      -3.135   3.406   3.928  0.00  0.00    +0.000 OA
ATOM      4  H   UNL     1      -1.598   5.521   2.129  0.00  0.00    +0.000 HD
ENDROOT
BRANCH   1   9
ATOM      5  N   UNL     1      -1.979   4.953  -0.998  0.00  0.00    +0.000 N 
ATOM      6  C   UNL     1      -3.231   5.686  -1.193  0.00  0.00    +0.000 C 
ATOM      7  C   UNL     1      -3.973   5.966   0.103  0.00  0.00    +0.000 C 
ATOM      8  C   UNL     1      -4.182   4.652   0.833  0.00  0.00    +0.000 C 
ATOM      9  C   UNL     1      -2.837   4.035   1.182  0.00  0.00    +0.000 C 
ATOM     10  C   UNL     1      -1.843   3.976   0.004  0.00  0.00    +0.000 C 
ATOM     11  O   UNL     1      -0.915   3.165   0.045  0.00  0.00    +0.000 OA
BRANCH   5  18
ATOM     12  C   UNL     1       2.743   4.817  -2.494  0.00  0.00    +0.000 C 
ATOM     13  C   UNL     1       1.284   4.837  -2.840  0.00  0.00    +0.000 A 
ATOM     14  C   UNL     1       0.852   4.748  -4.167  0.00  0.00    +0.000 A 
ATOM     15  C   UNL     1      -0.510   4.788  -4.461  0.00  0.00    +0.000 A 
ATOM     16  C   UNL     1      -1.443   4.906  -3.432  0.00  0.00    +0.000 A 
ATOM     17  F   UNL     1      -2.741   4.911  -3.770  0.00  0.00    +0.000 F 
ATOM     18  C   UNL     1      -1.044   4.936  -2.087  0.00  0.00    +0.000 A 
ATOM     19  C   UNL     1       0.332   4.923  -1.812  0.00  0.00    +0.000 A 
ENDBRANCH   5  18
ENDBRANCH   1   9
BRANCH   2  20
ATOM     20  C   UNL     1      -1.638   5.160   4.648  0.00  0.00    +0.000 C 
BRANCH  20  21
ATOM     21  O   UNL     1      -0.452   5.724   4.091  0.00  0.00    +0.000 OA
BRANCH  21  22
ATOM     22  C   UNL     1       0.297   6.507   4.929  0.00  0.00    +0.000 A 
ATOM     23  C   UNL     1       0.332   6.402   6.322  0.00  0.00    +0.000 A 
ATOM     24  C   UNL     1       1.130   7.266   7.072  0.00  0.00    +0.000 A 
ATOM     25  C   UNL     1       1.903   8.232   6.430  0.00  0.00    +0.000 A 
ATOM     26  C   UNL     1       1.938   8.291   5.034  0.00  0.00    +0.000 A 
ATOM     27  C   UNL     1       1.121   7.445   4.287  0.00  0.00    +0.000 A 
BRANCH  26  28
ATOM     28  O   UNL     1       2.709   9.203   4.335  0.00  0.00    +0.000 OA
BRANCH  28  29
ATOM     29  C   UNL     1       3.980   9.497   4.824  0.00  0.00    +0.000 A 
ATOM     30  C   UNL     1       4.523  10.723   4.467  0.00  0.00    +0.000 A 
ATOM     31  C   UNL     1       5.785  11.055   4.956  0.00  0.00    +0.000 A 
ATOM     32  C   UNL     1       6.455  10.156   5.782  0.00  0.00    +0.000 A 
ATOM     33  C   UNL     1       5.840   8.951   6.072  0.00  0.00    +0.000 A 
ATOM     34  N   UNL     1       4.632   8.593   5.596  0.00  0.00    +0.000 NA
ENDBRANCH  28  29
ENDBRANCH  26  28
ENDBRANCH  21  22
ENDBRANCH  20  21
ENDBRANCH   2  20
TORSDOF 7
