REMARK  Name = 
REMARK  5 active torsions:
REMARK  status: ('A' for Active; 'I' for Inactive)
REMARK    1  A    between atoms: C_1  and  C_2
REMARK    2  A    between atoms: C_3  and  C_4
REMARK    3  A    between atoms: N_6  and  C_7
REMARK    4  A    between atoms: C_12  and  C_13
REMARK    5  A    between atoms: N_15  and  C_16
REMARK                            x       y       z     vdW  Elec       q    Type
REMARK                         _______ _______ _______ _____ _____    ______ ____
ROOT
ATOM      1  C   UNL     1       3.255   4.993  -0.030  0.00  0.00    +0.000 A 
ATOM      2  C   UNL     1       2.261   5.452   0.843  0.00  0.00    +0.000 A 
ATOM      3  C   UNL     1       1.878   6.787   0.865  0.00  0.00    +0.000 A 
ATOM      4  C   UNL     1       2.507   7.681   0.020  0.00  0.00    +0.000 A 
ATOM      5  F   UNL     1       2.092   8.957   0.059  0.00  0.00    +0.000 F 
ATOM      6  C   UNL     1       3.535   7.271  -0.844  0.00  0.00    +0.000 A 
ATOM      7  C   UNL     1       3.932   5.920  -0.838  0.00  0.00    +0.000 A 
ENDROOT
BRANCH   6   8
ATOM      8  C   UNL     1       4.112   8.210  -1.784  0.00  0.00    +0.000 A 
ATOM      9  C   UNL     1       3.458   9.302  -2.300  0.00  0.00    +0.000 A 
ATOM     10  N   UNL     1       4.340   9.884  -3.170  0.00  0.00    +0.000 N 
ATOM     11  N   UNL     1       5.482   9.146  -3.197  0.00  0.00    +0.000 NA
ATOM     12  N   UNL     1       5.347   8.122  -2.357  0.00  0.00    +0.000 NA
BRANCH  10  13
ATOM     13  C   UNL     1       4.160  11.035  -3.971  0.00  0.00    +0.000 A 
ATOM     14  C   UNL     1       5.148  11.400  -4.897  0.00  0.00    +0.000 A 
ATOM     15  C   UNL     1       4.956  12.523  -5.698  0.00  0.00    +0.000 A 
ATOM     16  F   UNL     1       5.894  12.862  -6.591  0.00  0.00    +0.000 F 
ATOM     17  C   UNL     1       3.807  13.300  -5.596  0.00  0.00    +0.000 A 
ATOM     18  C   UNL     1       2.826  12.947  -4.672  0.00  0.00    +0.000 A 
ATOM     19  C   UNL     1       3.005  11.824  -3.869  0.00  0.00    +0.000 A 
ATOM     20  F   UNL     1       2.029  11.550  -2.993  0.00  0.00    +0.000 F 
ENDBRANCH  10  13
ENDBRANCH   6   8
BRANCH   1  23
ATOM     21  C   UNL     1       2.695   2.598   0.239  0.00  0.00    +0.000 C 
ATOM     22  O   UNL     1       1.556   2.806   0.649  0.00  0.00    +0.000 OA
ATOM     23  N   UNL     1       3.565   3.613  -0.140  0.00  0.00    +0.000 N 
ATOM     24  H   UNL     1       4.393   3.345  -0.670  0.00  0.00    +0.000 HD
BRANCH  21  27
ATOM     25  C   UNL     1       1.171  -0.210   0.884  0.00  0.00    +0.000 C 
ATOM     26  C   UNL     1       2.542   0.035   0.365  0.00  0.00    +0.000 A 
ATOM     27  C   UNL     1       3.170   1.237   0.095  0.00  0.00    +0.000 A 
ATOM     28  O   UNL     1       4.429   0.995  -0.366  0.00  0.00    +0.000 OA
ATOM     29  N   UNL     1       4.649  -0.372  -0.404  0.00  0.00    +0.000 NA
ATOM     30  C   UNL     1       3.516  -0.928   0.039  0.00  0.00    +0.000 A 
ENDBRANCH  21  27
ENDBRANCH   1  23
TORSDOF 4
