REMARK  Name = 
REMARK  6 active torsions:
REMARK  status: ('A' for Active; 'I' for Inactive)
REMARK    1  A    between atoms: C_2  and  C_20
REMARK    2  A    between atoms: N_3  and  C_4
REMARK    3  A    between atoms: C_9  and  C_10
REMARK    4  A    between atoms: N_22  and  C_23
REMARK    5  A    between atoms: C_23  and  C_26
REMARK    6  A    between atoms: C_26  and  O_27
REMARK                            x       y       z     vdW  Elec       q    Type
REMARK                         _______ _______ _______ _____ _____    ______ ____
ROOT
ATOM      1  C   UNL     1       2.409   0.303   2.483  0.00  0.00    +0.000 A 
ATOM      2  C   UNL     1       1.338  -0.567   2.741  0.00  0.00    +0.000 A 
ATOM      3  C   UNL     1       0.762  -0.640   4.009  0.00  0.00    +0.000 A 
ATOM      4  C   UNL     1       1.284   0.120   5.046  0.00  0.00    +0.000 A 
ATOM      5  C   UNL     1       2.365   0.971   4.808  0.00  0.00    +0.000 A 
ATOM      6  C   UNL     1       2.920   1.124   3.514  0.00  0.00    +0.000 A 
ENDROOT
BRANCH   6   7
ATOM      7  C   UNL     1       3.675   2.372   3.227  0.00  0.00    +0.000 A 
ATOM      8  C   UNL     1       3.014   3.576   3.539  0.00  0.00    +0.000 A 
ATOM      9  C   UNL     1       3.489   4.802   3.103  0.00  0.00    +0.000 A 
ATOM     10  C   UNL     1       4.702   4.879   2.438  0.00  0.00    +0.000 A 
ATOM     11  C   UNL     1       5.146   6.121   1.983  0.00  0.00    +0.000 A 
ATOM     12  C   UNL     1       6.498   6.320   1.759  0.00  0.00    +0.000 A 
ATOM     13  C   UNL     1       7.354   5.224   1.742  0.00  0.00    +0.000 A 
ATOM     14  C   UNL     1       6.842   3.927   1.892  0.00  0.00    +0.000 A 
ATOM     15  C   UNL     1       5.508   3.728   2.300  0.00  0.00    +0.000 A 
ATOM     16  C   UNL     1       4.940   2.464   2.618  0.00  0.00    +0.000 A 
ENDBRANCH   6   7
BRANCH   1  19
ATOM     17  O   UNL     1       0.966   0.397  -0.032  0.00  0.00    +0.000 OA
ATOM     18  C   UNL     1       2.201   0.384   0.021  0.00  0.00    +0.000 C 
ATOM     19  N   UNL     1       2.947   0.365   1.184  0.00  0.00    +0.000 N 
ATOM     20  H   UNL     1       3.915   0.652   1.081  0.00  0.00    +0.000 HD
BRANCH  18  21
ATOM     21  C   UNL     1       3.008   0.457  -1.178  0.00  0.00    +0.000 A 
ATOM     22  C   UNL     1       2.597   0.798  -2.444  0.00  0.00    +0.000 A 
ATOM     23  N   UNL     1       3.699   0.685  -3.231  0.00  0.00    +0.000 N 
ATOM     24  N   UNL     1       4.767   0.301  -2.485  0.00  0.00    +0.000 NA
ATOM     25  N   UNL     1       4.360   0.187  -1.233  0.00  0.00    +0.000 NA
BRANCH  23  26
ATOM     26  C   UNL     1       3.800   0.911  -4.665  0.00  0.00    +0.000 C 
ATOM     27  F   UNL     1       3.381  -0.205  -5.344  0.00  0.00    +0.000 F 
ATOM     28  F   UNL     1       2.928   1.901  -5.035  0.00  0.00    +0.000 F 
BRANCH  26  29
ATOM     29  C   UNL     1       5.204   1.275  -5.146  0.00  0.00    +0.000 C 
BRANCH  29  30
ATOM     30  O   UNL     1       5.270   1.512  -6.563  0.00  0.00    +0.000 OA
ATOM     31  H   UNL     1       4.854   0.752  -7.009  0.00  0.00    +0.000 HD
ENDBRANCH  29  30
ENDBRANCH  26  29
ENDBRANCH  23  26
ENDBRANCH  18  21
ENDBRANCH   1  19
TORSDOF 6
