REMARK  Name = 
REMARK  10 active torsions:
REMARK  status: ('A' for Active; 'I' for Inactive)
REMARK    1  A    between atoms: C_1  and  O_2
REMARK    2  A    between atoms: O_2  and  C_3
REMARK    3  A    between atoms: C_5  and  C_6
REMARK    4  A    between atoms: C_6  and  C_7
REMARK    5  A    between atoms: C_7  and  N_8
REMARK    6  A    between atoms: N_8  and  C_9
REMARK    7  A    between atoms: C_10  and  C_12
REMARK    8  A    between atoms: C_13  and  C_14
REMARK    9  A    between atoms: C_20  and  C_21
REMARK   10  A    between atoms: C_33  and  O_34
REMARK                            x       y       z     vdW  Elec       q    Type
REMARK                         _______ _______ _______ _____ _____    ______ ____
ROOT
ATOM      1  C   UNL     1      -1.725   7.583  -0.139  0.00  0.00    +0.000 A 
ATOM      2  C   UNL     1      -2.685   7.711   0.836  0.00  0.00    +0.000 A 
ATOM      3  C   UNL     1      -3.360   9.082   0.989  0.00  0.00    +0.000 A 
ATOM      4  N   UNL     1      -3.049  10.118   0.266  0.00  0.00    +0.000 NA
ATOM      5  N   UNL     1      -2.118   9.958  -0.661  0.00  0.00    +0.000 N 
ATOM      6  C   UNL     1      -1.491   8.802  -0.988  0.00  0.00    +0.000 A 
ATOM      7  O   UNL     1      -0.778   8.877  -1.982  0.00  0.00    +0.000 OA
ATOM      8  H   UNL     1      -1.936  10.753  -1.267  0.00  0.00    +0.000 HD
ENDROOT
BRANCH   3   9
ATOM      9  C   UNL     1      -4.457   9.371   1.981  0.00  0.00    +0.000 A 
ATOM     10  C   UNL     1      -4.472   8.897   3.289  0.00  0.00    +0.000 A 
ATOM     11  C   UNL     1      -5.501   9.226   4.173  0.00  0.00    +0.000 A 
ATOM     12  C   UNL     1      -6.477  10.137   3.792  0.00  0.00    +0.000 A 
ATOM     13  C   UNL     1      -6.431  10.703   2.522  0.00  0.00    +0.000 A 
ATOM     14  C   UNL     1      -5.442  10.307   1.617  0.00  0.00    +0.000 A 
ENDBRANCH   3   9
BRANCH   2  15
ATOM     15  C   UNL     1      -3.117   6.615   1.748  0.00  0.00    +0.000 A 
ATOM     16  C   UNL     1      -2.454   6.406   2.978  0.00  0.00    +0.000 A 
ATOM     17  C   UNL     1      -3.029   5.609   3.964  0.00  0.00    +0.000 A 
ATOM     18  C   UNL     1      -4.233   4.950   3.723  0.00  0.00    +0.000 A 
ATOM     19  C   UNL     1      -4.842   5.066   2.469  0.00  0.00    +0.000 A 
ATOM     20  C   UNL     1      -4.289   5.893   1.492  0.00  0.00    +0.000 A 
ENDBRANCH   2  15
BRANCH   1  23
ATOM     21  N   UNL     1      -0.162   5.873  -1.367  0.00  0.00    +0.000 N 
ATOM     22  C   UNL     1      -0.092   6.556  -2.643  0.00  0.00    +0.000 C 
ATOM     23  C   UNL     1      -0.899   6.288  -0.248  0.00  0.00    +0.000 C 
ATOM     24  O   UNL     1      -0.844   5.553   0.750  0.00  0.00    +0.000 OA
BRANCH  21  25
ATOM     25  C   UNL     1       0.574   4.592  -1.288  0.00  0.00    +0.000 C 
BRANCH  25  26
ATOM     26  C   UNL     1       1.924   4.508  -2.040  0.00  0.00    +0.000 C 
BRANCH  26  29
ATOM     27  C   UNL     1       4.077   6.976  -0.049  0.00  0.00    +0.000 A 
ATOM     28  C   UNL     1       3.100   6.030  -0.377  0.00  0.00    +0.000 A 
ATOM     29  C   UNL     1       2.955   5.558  -1.691  0.00  0.00    +0.000 A 
ATOM     30  C   UNL     1       3.824   6.040  -2.682  0.00  0.00    +0.000 A 
ATOM     31  C   UNL     1       4.804   6.983  -2.369  0.00  0.00    +0.000 A 
ATOM     32  C   UNL     1       4.926   7.444  -1.059  0.00  0.00    +0.000 A 
BRANCH  27  34
ATOM     33  C   UNL     1       3.404   7.024   2.234  0.00  0.00    +0.000 C 
ATOM     34  O   UNL     1       4.275   7.484   1.209  0.00  0.00    +0.000 OA
ENDBRANCH  27  34
BRANCH  32  35
ATOM     35  O   UNL     1       5.893   8.364  -0.750  0.00  0.00    +0.000 OA
ATOM     36  H   UNL     1       6.378   8.594  -1.557  0.00  0.00    +0.000 HD
ENDBRANCH  32  35
ENDBRANCH  26  29
ENDBRANCH  25  26
ENDBRANCH  21  25
ENDBRANCH   1  23
TORSDOF 8
