REMARK  Name = 
REMARK  7 active torsions:
REMARK  status: ('A' for Active; 'I' for Inactive)
REMARK    1  A    between atoms: C_2  and  C_15
REMARK    2  A    between atoms: N_3  and  C_4
REMARK    3  A    between atoms: C_8  and  O_9
REMARK    4  A    between atoms: O_9  and  C_10
REMARK    5  A    between atoms: C_10  and  C_11
REMARK    6  A    between atoms: C_16  and  C_17
REMARK    7  A    between atoms: C_23  and  C_24
REMARK                            x       y       z     vdW  Elec       q    Type
REMARK                         _______ _______ _______ _____ _____    ______ ____
ROOT
ATOM      1  C   UNL     1       2.831  -0.667   1.182  0.00  0.00    +0.000 A 
ATOM      2  C   UNL     1       3.851  -0.019   1.798  0.00  0.00    +0.000 A 
ATOM      3  C   UNL     1       4.548  -0.763   2.928  0.00  0.00    +0.000 A 
ATOM      4  N   UNL     1       4.253  -1.986   3.263  0.00  0.00    +0.000 NA
ATOM      5  N   UNL     1       3.298  -2.621   2.559  0.00  0.00    +0.000 N 
ATOM      6  C   UNL     1       2.585  -2.082   1.526  0.00  0.00    +0.000 A 
ATOM      7  O   UNL     1       1.780  -2.782   0.913  0.00  0.00    +0.000 OA
ATOM      8  H   UNL     1       3.104  -3.586   2.817  0.00  0.00    +0.000 HD
ENDROOT
BRANCH   3   9
ATOM      9  C   UNL     1       5.582  -0.088   3.796  0.00  0.00    +0.000 A 
ATOM     10  C   UNL     1       5.616  -0.424   5.160  0.00  0.00    +0.000 A 
ATOM     11  C   UNL     1       6.538   0.176   6.025  0.00  0.00    +0.000 A 
ATOM     12  C   UNL     1       7.425   1.134   5.544  0.00  0.00    +0.000 A 
ATOM     13  C   UNL     1       7.429   1.447   4.191  0.00  0.00    +0.000 A 
ATOM     14  C   UNL     1       6.544   0.806   3.321  0.00  0.00    +0.000 A 
ENDBRANCH   3   9
BRANCH   2  15
ATOM     15  C   UNL     1       4.255   1.343   1.399  0.00  0.00    +0.000 A 
ATOM     16  C   UNL     1       3.749   2.467   2.059  0.00  0.00    +0.000 A 
ATOM     17  C   UNL     1       4.220   3.739   1.733  0.00  0.00    +0.000 A 
ATOM     18  C   UNL     1       5.209   3.897   0.761  0.00  0.00    +0.000 A 
ATOM     19  C   UNL     1       5.699   2.785   0.078  0.00  0.00    +0.000 A 
ATOM     20  C   UNL     1       5.200   1.514   0.370  0.00  0.00    +0.000 A 
ENDBRANCH   2  15
BRANCH   1  22
ATOM     21  O   UNL     1       1.663   1.204   0.275  0.00  0.00    +0.000 OA
ATOM     22  C   UNL     1       1.919   0.004   0.191  0.00  0.00    +0.000 C 
ATOM     23  N   UNL     1       1.431  -0.805  -0.814  0.00  0.00    +0.000 N 
ATOM     24  H   UNL     1       1.776  -1.756  -0.918  0.00  0.00    +0.000 HD
BRANCH  23  25
ATOM     25  C   UNL     1       0.533  -0.364  -1.769  0.00  0.00    +0.000 A 
ATOM     26  C   UNL     1      -0.533   0.485  -1.591  0.00  0.00    +0.000 A 
ATOM     27  N   UNL     1      -1.134   0.608  -2.812  0.00  0.00    +0.000 N 
ATOM     28  N   UNL     1      -0.498  -0.061  -3.791  0.00  0.00    +0.000 NA
ATOM     29  C   UNL     1       0.501  -0.661  -3.146  0.00  0.00    +0.000 A 
ATOM     30  H   UNL     1      -1.973   1.128  -3.048  0.00  0.00    +0.000 HD
BRANCH  29  31
ATOM     31  O   UNL     1       1.414  -1.378  -3.837  0.00  0.00    +0.000 OA
BRANCH  31  32
ATOM     32  C   UNL     1       1.596  -0.896  -5.179  0.00  0.00    +0.000 C 
BRANCH  32  33
ATOM     33  C   UNL     1       0.600  -1.454  -6.191  0.00  0.00    +0.000 C 
ATOM     34  F   UNL     1      -0.271  -2.342  -5.667  0.00  0.00    +0.000 F 
ATOM     35  F   UNL     1      -0.108  -0.472  -6.797  0.00  0.00    +0.000 F 
ATOM     36  F   UNL     1       1.270  -2.107  -7.178  0.00  0.00    +0.000 F 
ENDBRANCH  32  33
ENDBRANCH  31  32
ENDBRANCH  29  31
ENDBRANCH  23  25
ENDBRANCH   1  22
TORSDOF 7
