REMARK  Name = 
REMARK  7 active torsions:
REMARK  status: ('A' for Active; 'I' for Inactive)
REMARK    1  A    between atoms: C_1  and  O_2
REMARK    2  A    between atoms: O_2  and  C_3
REMARK    3  A    between atoms: C_8  and  C_9
REMARK    4  A    between atoms: C_16  and  C_17
REMARK    5  A    between atoms: N_19  and  C_20
REMARK    6  A    between atoms: N_19  and  C_21
REMARK    7  A    between atoms: N_25  and  C_26
REMARK                            x       y       z     vdW  Elec       q    Type
REMARK                         _______ _______ _______ _____ _____    ______ ____
ROOT
ATOM      1  C   UNL     1       2.757  -1.327  -0.666  0.00  0.00    +0.000 A 
ATOM      2  C   UNL     1       2.559  -1.849  -1.933  0.00  0.00    +0.000 A 
ATOM      3  C   UNL     1       3.384  -2.885  -2.384  0.00  0.00    +0.000 A 
ATOM      4  C   UNL     1       4.418  -3.405  -1.613  0.00  0.00    +0.000 A 
ATOM      5  N   UNL     1       5.122  -4.420  -2.135  0.00  0.00    +0.000 NA
ATOM      6  C   UNL     1       6.084  -5.013  -1.395  0.00  0.00    +0.000 A 
ATOM      7  C   UNL     1       6.413  -4.543  -0.136  0.00  0.00    +0.000 A 
ATOM      8  C   UNL     1       5.788  -3.409   0.365  0.00  0.00    +0.000 A 
ATOM      9  C   UNL     1       4.674  -2.862  -0.339  0.00  0.00    +0.000 A 
ATOM     10  C   UNL     1       3.796  -1.837   0.120  0.00  0.00    +0.000 A 
ENDROOT
BRANCH   6  11
ATOM     11  C   UNL     1       6.778  -6.166  -2.006  0.00  0.00    +0.000 A 
ATOM     12  C   UNL     1       6.855  -6.317  -3.404  0.00  0.00    +0.000 A 
ATOM     13  C   UNL     1       7.539  -7.391  -3.976  0.00  0.00    +0.000 A 
ATOM     14  C   UNL     1       8.166  -8.338  -3.165  0.00  0.00    +0.000 A 
ATOM     15  C   UNL     1       8.096  -8.218  -1.784  0.00  0.00    +0.000 A 
ATOM     16  C   UNL     1       7.405  -7.149  -1.212  0.00  0.00    +0.000 A 
ENDBRANCH   6  11
BRANCH   8  17
ATOM     17  C   UNL     1       6.241  -2.893   1.697  0.00  0.00    +0.000 C 
ATOM     18  O   UNL     1       5.333  -2.554   2.461  0.00  0.00    +0.000 OA
ATOM     19  N   UNL     1       7.617  -2.805   2.063  0.00  0.00    +0.000 N 
ATOM     20  C   UNL     1       8.765  -2.986   1.153  0.00  0.00    +0.000 C 
BRANCH  19  21
ATOM     21  C   UNL     1       7.941  -2.360   3.372  0.00  0.00    +0.000 A 
ATOM     22  C   UNL     1       7.225  -2.718   4.452  0.00  0.00    +0.000 A 
ATOM     23  C   UNL     1       7.514  -2.247   5.780  0.00  0.00    +0.000 A 
ATOM     24  C   UNL     1       8.526  -1.410   5.984  0.00  0.00    +0.000 A 
ATOM     25  N   UNL     1       9.335  -1.004   4.942  0.00  0.00    +0.000 N 
ATOM     26  C   UNL     1      10.395  -0.037   5.189  0.00  0.00    +0.000 C 
ATOM     27  C   UNL     1       9.143  -1.434   3.629  0.00  0.00    +0.000 A 
ATOM     28  O   UNL     1       9.883  -1.063   2.714  0.00  0.00    +0.000 OA
ENDBRANCH  19  21
ENDBRANCH   8  17
BRANCH   1  30
ATOM     29  C   UNL     1       1.001   0.272  -0.854  0.00  0.00    +0.000 C 
ATOM     30  O   UNL     1       2.035  -0.325  -0.083  0.00  0.00    +0.000 OA
ENDBRANCH   1  30
TORSDOF 4
