REMARK  Name = 
REMARK  6 active torsions:
REMARK  status: ('A' for Active; 'I' for Inactive)
REMARK    1  A    between atoms: C_2  and  C_16
REMARK    2  A    between atoms: N_3  and  CA_4
REMARK    3  A    between atoms: CA_4  and  C_5
REMARK    4  A    between atoms: CA_4  and  C_8
REMARK    5  A    between atoms: C_5  and  OXT_7
REMARK    6  A    between atoms: C_19  and  N_20
REMARK                            x       y       z     vdW  Elec       q    Type
REMARK                         _______ _______ _______ _____ _____    ______ ____
ROOT
ATOM      1  O   UNL     1       0.960   0.430  -0.427  0.00  0.00    +0.000 OA
ATOM      2  C   UNL     1       2.170   0.279  -0.308  0.00  0.00    +0.000 C 
ATOM      3  N   UNL     1       2.882  -0.658  -1.031  0.00  0.00    +0.000 N 
ATOM      4  H   UNL     1       3.868  -0.825  -0.853  0.00  0.00    +0.000 HD
ENDROOT
BRANCH   2   5
ATOM      5  C   UNL     1       2.913   1.027   0.738  0.00  0.00    +0.000 A 
ATOM      6  C   UNL     1       2.231   1.330   1.919  0.00  0.00    +0.000 A 
ATOM      7  C   UNL     1       2.942   1.734   3.046  0.00  0.00    +0.000 A 
ATOM      8  C   UNL     1       4.345   1.766   3.009  0.00  0.00    +0.000 A 
ATOM      9  C   UNL     1       4.985   1.721   1.758  0.00  0.00    +0.000 A 
ATOM     10  C   UNL     1       4.272   1.321   0.625  0.00  0.00    +0.000 A 
BRANCH   8  11
ATOM     11  N   UNL     1       5.098   1.522   4.242  0.00  0.00    +0.000 N 
ATOM     12  C   UNL     1       6.361   1.005   4.032  0.00  0.00    +0.000 A 
ATOM     13  N   UNL     1       6.608  -0.265   3.914  0.00  0.00    +0.000 NA
ATOM     14  C   UNL     1       5.479  -1.106   4.036  0.00  0.00    +0.000 A 
ATOM     15  C   UNL     1       5.409  -2.313   3.349  0.00  0.00    +0.000 A 
ATOM     16  C   UNL     1       4.238  -3.078   3.401  0.00  0.00    +0.000 A 
ATOM     17  C   UNL     1       3.143  -2.660   4.168  0.00  0.00    +0.000 A 
ATOM     18  C   UNL     1       3.204  -1.460   4.875  0.00  0.00    +0.000 A 
ATOM     19  C   UNL     1       4.360  -0.687   4.767  0.00  0.00    +0.000 A 
ATOM     20  C   UNL     1       4.390   0.742   5.160  0.00  0.00    +0.000 A 
ATOM     21  O   UNL     1       3.799   1.154   6.152  0.00  0.00    +0.000 OA
ENDBRANCH   8  11
ENDBRANCH   2   5
BRANCH   3  22
ATOM     22  CA  UNL     1       2.179  -1.623  -1.864  0.00  0.00    +0.000 C 
BRANCH  22  23
ATOM     23  C   UNL     1       1.695  -2.830  -1.079  0.00  0.00    +0.000 A 
ATOM     24  C   UNL     1       2.407  -3.387  -0.004  0.00  0.00    +0.000 A 
ATOM     25  C   UNL     1       1.885  -4.484   0.690  0.00  0.00    +0.000 A 
ATOM     26  C   UNL     1       0.664  -5.031   0.308  0.00  0.00    +0.000 A 
ATOM     27  F   UNL     1       0.166  -6.068   0.994  0.00  0.00    +0.000 F 
ATOM     28  C   UNL     1      -0.035  -4.526  -0.776  0.00  0.00    +0.000 A 
ATOM     29  C   UNL     1       0.494  -3.441  -1.465  0.00  0.00    +0.000 A 
ATOM     30  F   UNL     1      -0.153  -2.981  -2.547  0.00  0.00    +0.000 F 
ENDBRANCH  22  23
BRANCH  22  31
ATOM     31  C   UNL     1       3.062  -2.050  -3.043  0.00  0.00    +0.000 C 
ATOM     32  O   UNL     1       4.286  -2.058  -3.014  0.00  0.00    +0.000 OA
BRANCH  31  33
ATOM     33  OXT UNL     1       2.361  -2.464  -4.131  0.00  0.00    +0.000 OA
ATOM     34  HXT UNL     1       1.388  -2.431  -4.019  0.00  0.00    +0.000 HD
ENDBRANCH  31  33
ENDBRANCH  22  31
ENDBRANCH   3  22
TORSDOF 6
