REMARK  Name = 
REMARK  6 active torsions:
REMARK  status: ('A' for Active; 'I' for Inactive)
REMARK    1  A    between atoms: C_1  and  C_2
REMARK    2  A    between atoms: C_2  and  N_3
REMARK    3  A    between atoms: C_2  and  C_20
REMARK    4  A    between atoms: C_4  and  C_6
REMARK    5  A    between atoms: N_8  and  C_9
REMARK    6  A    between atoms: C_23  and  C_24
REMARK                            x       y       z     vdW  Elec       q    Type
REMARK                         _______ _______ _______ _____ _____    ______ ____
ROOT
ATOM      1  N   UNL     1       2.962  -0.495  -1.306  0.00  0.00    +0.000 N 
ATOM      2  C   UNL     1       3.229  -1.821  -1.542  0.00  0.00    +0.000 C 
ATOM      3  O   UNL     1       3.120  -2.715  -0.712  0.00  0.00    +0.000 OA
ATOM      4  H   UNL     1       3.071   0.154  -2.080  0.00  0.00    +0.000 HD
ENDROOT
BRANCH   2   5
ATOM      5  C   UNL     1       3.674  -2.160  -2.968  0.00  0.00    +0.000 A 
ATOM      6  N   UNL     1       3.660  -1.234  -3.876  0.00  0.00    +0.000 NA
ATOM      7  N   UNL     1       4.023  -1.588  -5.174  0.00  0.00    +0.000 N 
ATOM      8  C   UNL     1       4.372  -2.899  -5.535  0.00  0.00    +0.000 A 
ATOM      9  O   UNL     1       4.705  -3.311  -6.644  0.00  0.00    +0.000 OA
ATOM     10  C   UNL     1       4.388  -3.893  -4.441  0.00  0.00    +0.000 A 
ATOM     11  C   UNL     1       4.069  -3.559  -3.194  0.00  0.00    +0.000 A 
BRANCH   7  12
ATOM     12  C   UNL     1       4.000  -0.500  -6.118  0.00  0.00    +0.000 A 
ATOM     13  C   UNL     1       3.918  -0.728  -7.504  0.00  0.00    +0.000 A 
ATOM     14  C   UNL     1       3.934   0.326  -8.428  0.00  0.00    +0.000 A 
ATOM     15  C   UNL     1       4.029   1.639  -7.989  0.00  0.00    +0.000 A 
ATOM     16  C   UNL     1       4.097   1.897  -6.624  0.00  0.00    +0.000 A 
ATOM     17  C   UNL     1       4.074   0.843  -5.705  0.00  0.00    +0.000 A 
ATOM     18  F   UNL     1       4.184   1.175  -4.408  0.00  0.00    +0.000 F 
ENDBRANCH   7  12
ENDBRANCH   2   5
BRANCH   1  20
ATOM     19  C   UNL     1       0.920  -0.186   0.047  0.00  0.00    +0.000 C 
ATOM     20  C   UNL     1       2.445  -0.043  -0.027  0.00  0.00    +0.000 C 
BRANCH  20  21
ATOM     21  C   UNL     1       2.885   1.377   0.260  0.00  0.00    +0.000 A 
ATOM     22  C   UNL     1       3.751   1.642   1.328  0.00  0.00    +0.000 A 
ATOM     23  C   UNL     1       4.124   2.955   1.640  0.00  0.00    +0.000 A 
ATOM     24  C   UNL     1       3.639   4.050   0.905  0.00  0.00    +0.000 A 
ATOM     25  C   UNL     1       2.801   3.765  -0.187  0.00  0.00    +0.000 A 
ATOM     26  C   UNL     1       2.434   2.454  -0.509  0.00  0.00    +0.000 A 
BRANCH  24  27
ATOM     27  C   UNL     1       3.965   5.444   1.278  0.00  0.00    +0.000 A 
ATOM     28  C   UNL     1       4.090   6.468   0.328  0.00  0.00    +0.000 A 
ATOM     29  C   UNL     1       4.356   7.780   0.721  0.00  0.00    +0.000 A 
ATOM     30  C   UNL     1       4.507   8.043   2.070  0.00  0.00    +0.000 A 
ATOM     31  N   UNL     1       4.407   7.101   3.027  0.00  0.00    +0.000 NA
ATOM     32  C   UNL     1       4.135   5.838   2.609  0.00  0.00    +0.000 A 
ENDBRANCH  24  27
ENDBRANCH  20  21
ENDBRANCH   1  20
TORSDOF 5
