REMARK  Name = 
REMARK  10 active torsions:
REMARK  status: ('A' for Active; 'I' for Inactive)
REMARK    1  A    between atoms: C_1  and  O_2
REMARK    2  A    between atoms: O_2  and  C_3
REMARK    3  A    between atoms: C_3  and  C_5
REMARK    4  A    between atoms: C_5  and  N_6
REMARK    5  A    between atoms: C_5  and  C_25
REMARK    6  A    between atoms: C_7  and  C_9
REMARK    7  A    between atoms: C_12  and  C_13
REMARK    8  A    between atoms: C_13  and  C_15
REMARK    9  A    between atoms: C_19  and  O_20
REMARK   10  A    between atoms: O_20  and  C_21
REMARK                            x       y       z     vdW  Elec       q    Type
REMARK                         _______ _______ _______ _____ _____    ______ ____
ROOT
ATOM      1  N   UNL     1       5.594  -0.688   0.591  0.00  0.00    +0.000 N 
ATOM      2  C   UNL     1       4.977   0.081   1.549  0.00  0.00    +0.000 C 
ATOM      3  O   UNL     1       4.070   0.867   1.301  0.00  0.00    +0.000 OA
ATOM      4  H   UNL     1       6.124  -1.500   0.876  0.00  0.00    +0.000 HD
ENDROOT
BRANCH   2   5
ATOM      5  C   UNL     1       5.469  -0.087   2.948  0.00  0.00    +0.000 A 
ATOM      6  C   UNL     1       6.776  -0.508   3.225  0.00  0.00    +0.000 A 
ATOM      7  C   UNL     1       7.226  -0.595   4.549  0.00  0.00    +0.000 A 
ATOM      8  C   UNL     1       6.372  -0.256   5.606  0.00  0.00    +0.000 A 
ATOM      9  C   UNL     1       5.077   0.196   5.322  0.00  0.00    +0.000 A 
ATOM     10  C   UNL     1       4.624   0.262   4.004  0.00  0.00    +0.000 A 
BRANCH   8  11
ATOM     11  C   UNL     1       6.880  -0.337   7.002  0.00  0.00    +0.000 C 
ATOM     12  O   UNL     1       8.081  -0.192   7.217  0.00  0.00    +0.000 OA
BRANCH  11  13
ATOM     13  C   UNL     1       5.953  -0.579   8.145  0.00  0.00    +0.000 A 
ATOM     14  C   UNL     1       4.811  -1.376   7.996  0.00  0.00    +0.000 A 
ATOM     15  C   UNL     1       3.920  -1.529   9.055  0.00  0.00    +0.000 A 
ATOM     16  C   UNL     1       4.196  -0.937  10.288  0.00  0.00    +0.000 A 
ATOM     17  C   UNL     1       5.371  -0.203  10.466  0.00  0.00    +0.000 A 
ATOM     18  C   UNL     1       6.238  -0.007   9.389  0.00  0.00    +0.000 A 
BRANCH  17  19
ATOM     19  O   UNL     1       5.743   0.396  11.638  0.00  0.00    +0.000 OA
ATOM     20  C   UNL     1       5.300  -0.259  12.821  0.00  0.00    +0.000 C 
ENDBRANCH  17  19
ENDBRANCH  11  13
ENDBRANCH   8  11
ENDBRANCH   2   5
BRANCH   1  21
ATOM     21  C   UNL     1       5.212  -0.603  -0.816  0.00  0.00    +0.000 C 
BRANCH  21  22
ATOM     22  C   UNL     1       6.438  -0.864  -1.674  0.00  0.00    +0.000 A 
ATOM     23  C   UNL     1       7.034   0.170  -2.414  0.00  0.00    +0.000 A 
ATOM     24  C   UNL     1       8.140  -0.095  -3.225  0.00  0.00    +0.000 A 
ATOM     25  C   UNL     1       8.654  -1.386  -3.293  0.00  0.00    +0.000 A 
ATOM     26  F   UNL     1       9.707  -1.635  -4.083  0.00  0.00    +0.000 F 
ATOM     27  C   UNL     1       8.097  -2.418  -2.553  0.00  0.00    +0.000 A 
ATOM     28  C   UNL     1       7.000  -2.146  -1.746  0.00  0.00    +0.000 A 
ATOM     29  F   UNL     1       6.482  -3.138  -1.007  0.00  0.00    +0.000 F 
ENDBRANCH  21  22
BRANCH  21  30
ATOM     30  C   UNL     1       4.032  -1.500  -1.260  0.00  0.00    +0.000 C 
ATOM     31  O   UNL     1       3.609  -1.544  -2.413  0.00  0.00    +0.000 OA
BRANCH  30  33
ATOM     32  C   UNL     1       2.404  -3.056  -0.579  0.00  0.00    +0.000 C 
ATOM     33  O   UNL     1       3.527  -2.242  -0.230  0.00  0.00    +0.000 OA
ENDBRANCH  30  33
ENDBRANCH  21  30
ENDBRANCH   1  21
TORSDOF 8
