REMARK  Name = 
REMARK  6 active torsions:
REMARK  status: ('A' for Active; 'I' for Inactive)
REMARK    1  A    between atoms: N_1  and  C_2
REMARK    2  A    between atoms: C_2  and  C_3
REMARK    3  A    between atoms: C_6  and  C_7
REMARK    4  A    between atoms: C_12  and  C_13
REMARK    5  A    between atoms: N_15  and  C_16
REMARK    6  A    between atoms: C_18  and  C_19
REMARK                            x       y       z     vdW  Elec       q    Type
REMARK                         _______ _______ _______ _____ _____    ______ ____
ROOT
ATOM      1  C   UNL     1       3.174   4.000  -5.058  0.00  0.00    +0.000 C 
ATOM      2  O   UNL     1       3.754   3.855  -6.132  0.00  0.00    +0.000 OA
ATOM      3  N   UNL     1       2.002   3.342  -4.715  0.00  0.00    +0.000 N 
ATOM      4  H   UNL     1       1.516   3.617  -3.866  0.00  0.00    +0.000 HD
ENDROOT
BRANCH   3   5
ATOM      5  C   UNL     1       1.379   2.356  -5.464  0.00  0.00    +0.000 A 
ATOM      6  C   UNL     1       1.935   1.669  -6.479  0.00  0.00    +0.000 A 
ATOM      7  C   UNL     1       1.221   0.655  -7.234  0.00  0.00    +0.000 A 
ATOM      8  C   UNL     1      -0.052   0.385  -6.900  0.00  0.00    +0.000 A 
ATOM      9  N   UNL     1      -0.666   1.062  -5.873  0.00  0.00    +0.000 N 
ATOM     10  C   UNL     1      -0.055   2.041  -5.120  0.00  0.00    +0.000 A 
ATOM     11  O   UNL     1      -0.644   2.639  -4.223  0.00  0.00    +0.000 OA
ATOM     12  H   UNL     1      -1.632   0.866  -5.644  0.00  0.00    +0.000 HD
BRANCH   7  13
ATOM     13  C   UNL     1       1.847  -0.091  -8.337  0.00  0.00    +0.000 A 
ATOM     14  C   UNL     1       1.730   0.354  -9.654  0.00  0.00    +0.000 A 
ATOM     15  C   UNL     1       2.363  -0.373 -10.651  0.00  0.00    +0.000 A 
ATOM     16  N   UNL     1       3.088  -1.488 -10.421  0.00  0.00    +0.000 NA
ATOM     17  C   UNL     1       3.196  -1.891  -9.137  0.00  0.00    +0.000 A 
ATOM     18  C   UNL     1       2.601  -1.235  -8.071  0.00  0.00    +0.000 A 
ENDBRANCH   7  13
ENDBRANCH   3   5
BRANCH   1  24
ATOM     19  C   UNL     1       3.917   4.852  -2.720  0.00  0.00    +0.000 A 
ATOM     20  C   UNL     1       4.457   5.969  -2.030  0.00  0.00    +0.000 A 
ATOM     21  C   UNL     1       4.789   7.168  -2.666  0.00  0.00    +0.000 A 
ATOM     22  C   UNL     1       4.643   7.276  -4.040  0.00  0.00    +0.000 A 
ATOM     23  C   UNL     1       4.127   6.213  -4.755  0.00  0.00    +0.000 A 
ATOM     24  C   UNL     1       3.732   5.011  -4.120  0.00  0.00    +0.000 A 
BRANCH  19  28
ATOM     25  C   UNL     1       2.788   1.328  -0.475  0.00  0.00    +0.000 A 
ATOM     26  C   UNL     1       2.756   2.595   0.112  0.00  0.00    +0.000 A 
ATOM     27  C   UNL     1       3.135   3.721  -0.619  0.00  0.00    +0.000 A 
ATOM     28  C   UNL     1       3.604   3.629  -1.943  0.00  0.00    +0.000 A 
ATOM     29  C   UNL     1       3.745   2.331  -2.468  0.00  0.00    +0.000 A 
ATOM     30  C   UNL     1       3.306   1.204  -1.766  0.00  0.00    +0.000 A 
BRANCH  25  31
ATOM     31  C   UNL     1       2.273   0.132   0.279  0.00  0.00    +0.000 C 
BRANCH  31  32
ATOM     32  N   UNL     1       0.885   0.326   0.685  0.00  0.00    +0.000 NA
ATOM     33  H   UNL     1       0.542  -0.522   1.132  0.00  0.00    +0.000 HD
ATOM     34  H   UNL     1       0.318   0.469  -0.149  0.00  0.00    +0.000 HD
ENDBRANCH  31  32
ENDBRANCH  25  31
ENDBRANCH  19  28
ENDBRANCH   1  24
TORSDOF 6
