REMARK  Name = 
REMARK  4 active torsions:
REMARK  status: ('A' for Active; 'I' for Inactive)
REMARK    1  A    between atoms: C_2  and  C_18
REMARK    2  A    between atoms: N_3  and  C_4
REMARK    3  A    between atoms: C_8  and  C_9
REMARK    4  A    between atoms: C_9  and  N_10
REMARK                            x       y       z     vdW  Elec       q    Type
REMARK                         _______ _______ _______ _____ _____    ______ ____
ROOT
ATOM      1  O   UNL     1       2.496  -1.129   0.810  0.00  0.00    +0.000 OA
ATOM      2  C   UNL     1       3.343  -0.260   0.608  0.00  0.00    +0.000 C 
ATOM      3  N   UNL     1       3.454   0.961   1.215  0.00  0.00    +0.000 N 
ATOM      4  H   UNL     1       4.267   1.497   0.924  0.00  0.00    +0.000 HD
ENDROOT
BRANCH   2   5
ATOM      5  C   UNL     1       4.394  -0.486  -0.433  0.00  0.00    +0.000 A 
ATOM      6  C   UNL     1       4.377  -1.636  -1.205  0.00  0.00    +0.000 A 
ATOM      7  C   UNL     1       5.233  -1.689  -2.297  0.00  0.00    +0.000 A 
ATOM      8  C   UNL     1       6.204  -0.696  -2.459  0.00  0.00    +0.000 A 
ATOM      9  C   UNL     1       7.209  -0.810  -3.430  0.00  0.00    +0.000 A 
ATOM     10  C   UNL     1       8.227   0.133  -3.467  0.00  0.00    +0.000 A 
ATOM     11  F   UNL     1       9.250  -0.037  -4.317  0.00  0.00    +0.000 F 
ATOM     12  C   UNL     1       8.208   1.218  -2.602  0.00  0.00    +0.000 A 
ATOM     13  F   UNL     1       9.198   2.122  -2.634  0.00  0.00    +0.000 F 
ATOM     14  C   UNL     1       7.187   1.365  -1.676  0.00  0.00    +0.000 A 
ATOM     15  C   UNL     1       6.192   0.407  -1.569  0.00  0.00    +0.000 A 
ATOM     16  N   UNL     1       5.279   0.538  -0.603  0.00  0.00    +0.000 NA
ENDBRANCH   2   5
BRANCH   3  17
ATOM     17  C   UNL     1       2.618   1.529   2.183  0.00  0.00    +0.000 A 
ATOM     18  C   UNL     1       1.421   0.965   2.617  0.00  0.00    +0.000 A 
ATOM     19  C   UNL     1       0.666   1.595   3.610  0.00  0.00    +0.000 A 
ATOM     20  C   UNL     1       1.134   2.769   4.210  0.00  0.00    +0.000 A 
ATOM     21  C   UNL     1       2.353   3.324   3.810  0.00  0.00    +0.000 A 
ATOM     22  C   UNL     1       3.055   2.726   2.756  0.00  0.00    +0.000 A 
BRANCH  21  23
ATOM     23  C   UNL     1       2.972   4.500   4.521  0.00  0.00    +0.000 C 
BRANCH  23  24
ATOM     24  N   UNL     1       2.584   5.790   3.963  0.00  0.00    +0.000 N 
ATOM     25  C   UNL     1       1.506   6.465   4.520  0.00  0.00    +0.000 A 
ATOM     26  C   UNL     1       1.112   7.651   4.038  0.00  0.00    +0.000 A 
ATOM     27  C   UNL     1       1.796   8.235   2.925  0.00  0.00    +0.000 A 
ATOM     28  C   UNL     1       2.853   7.618   2.366  0.00  0.00    +0.000 A 
ATOM     29  C   UNL     1       3.323   6.325   2.897  0.00  0.00    +0.000 A 
ATOM     30  O   UNL     1       4.310   5.786   2.404  0.00  0.00    +0.000 OA
ENDBRANCH  23  24
ENDBRANCH  21  23
ENDBRANCH   3  17
TORSDOF 4
