REMARK  Name = 
REMARK  6 active torsions:
REMARK  status: ('A' for Active; 'I' for Inactive)
REMARK    1  A    between atoms: C_2  and  C_20
REMARK    2  A    between atoms: N_3  and  C_4
REMARK    3  A    between atoms: C_4  and  C_5
REMARK    4  A    between atoms: C_7  and  O_8
REMARK    5  A    between atoms: O_8  and  C_9
REMARK    6  A    between atoms: C_22  and  C_23
REMARK                            x       y       z     vdW  Elec       q    Type
REMARK                         _______ _______ _______ _____ _____    ______ ____
ROOT
ATOM      1  C   UNL     1       2.290   1.620  -1.812  0.00  0.00    +0.000 C 
ENDROOT
BRANCH   1   2
ATOM      2  C   UNL     1       3.174   2.491  -2.681  0.00  0.00    +0.000 A 
ATOM      3  C   UNL     1       3.434   3.809  -2.313  0.00  0.00    +0.000 A 
ATOM      4  C   UNL     1       4.323   4.564  -3.077  0.00  0.00    +0.000 A 
ATOM      5  C   UNL     1       4.830   4.030  -4.254  0.00  0.00    +0.000 A 
ATOM      6  C   UNL     1       4.491   2.727  -4.572  0.00  0.00    +0.000 A 
ATOM      7  N   UNL     1       3.703   1.940  -3.802  0.00  0.00    +0.000 NA
BRANCH   4   8
ATOM      8  O   UNL     1       4.715   5.850  -2.769  0.00  0.00    +0.000 OA
BRANCH   8   9
ATOM      9  C   UNL     1       4.818   6.226  -1.446  0.00  0.00    +0.000 A 
ATOM     10  C   UNL     1       5.232   5.366  -0.418  0.00  0.00    +0.000 A 
ATOM     11  C   UNL     1       5.227   5.802   0.908  0.00  0.00    +0.000 A 
ATOM     12  C   UNL     1       4.878   7.116   1.194  0.00  0.00    +0.000 A 
ATOM     13  F   UNL     1       4.866   7.530   2.468  0.00  0.00    +0.000 F 
ATOM     14  C   UNL     1       4.551   7.994   0.167  0.00  0.00    +0.000 A 
ATOM     15  F   UNL     1       4.251   9.271   0.445  0.00  0.00    +0.000 F 
ATOM     16  C   UNL     1       4.519   7.559  -1.155  0.00  0.00    +0.000 A 
ENDBRANCH   8   9
ENDBRANCH   4   8
ENDBRANCH   1   2
BRANCH   1  19
ATOM     17  O   UNL     1       2.745   2.798   0.666  0.00  0.00    +0.000 OA
ATOM     18  C   UNL     1       3.144   1.644   0.506  0.00  0.00    +0.000 C 
ATOM     19  N   UNL     1       2.993   0.999  -0.700  0.00  0.00    +0.000 N 
ATOM     20  H   UNL     1       3.319   0.045  -0.804  0.00  0.00    +0.000 HD
BRANCH  18  21
ATOM     21  C   UNL     1       3.760   0.897   1.575  0.00  0.00    +0.000 A 
ATOM     22  C   UNL     1       3.922   1.217   2.901  0.00  0.00    +0.000 A 
ATOM     23  C   UNL     1       4.562   0.097   3.487  0.00  0.00    +0.000 A 
ATOM     24  N   UNL     1       4.800  -0.840   2.549  0.00  0.00    +0.000 NA
ATOM     25  O   UNL     1       4.289  -0.339   1.360  0.00  0.00    +0.000 OA
BRANCH  23  26
ATOM     26  C   UNL     1       4.905  -0.064   4.905  0.00  0.00    +0.000 A 
ATOM     27  C   UNL     1       5.623  -1.161   5.372  0.00  0.00    +0.000 A 
ATOM     28  C   UNL     1       5.876  -1.264   6.740  0.00  0.00    +0.000 A 
ATOM     29  C   UNL     1       5.412  -0.275   7.599  0.00  0.00    +0.000 A 
ATOM     30  C   UNL     1       4.719   0.790   7.053  0.00  0.00    +0.000 A 
ATOM     31  N   UNL     1       4.458   0.919   5.732  0.00  0.00    +0.000 NA
ENDBRANCH  23  26
ENDBRANCH  18  21
ENDBRANCH   1  19
TORSDOF 6
