REMARK  Name = 
REMARK  6 active torsions:
REMARK  status: ('A' for Active; 'I' for Inactive)
REMARK    1  A    between atoms: C_2  and  C_3
REMARK    2  A    between atoms: C_3  and  N_4
REMARK    3  A    between atoms: N_16  and  C_17
REMARK    4  A    between atoms: C_17  and  C_18
REMARK    5  A    between atoms: C_20  and  O_21
REMARK    6  A    between atoms: O_21  and  C_22
REMARK                            x       y       z     vdW  Elec       q    Type
REMARK                         _______ _______ _______ _____ _____    ______ ____
ROOT
ATOM      1  O   UNL     1       2.926   1.322  -0.039  0.00  0.00    +0.000 OA
ATOM      2  C   UNL     1       2.356   0.364  -0.556  0.00  0.00    +0.000 C 
ATOM      3  N   UNL     1       3.008  -0.756  -1.013  0.00  0.00    +0.000 N 
ATOM      4  H   UNL     1       2.463  -1.599  -1.182  0.00  0.00    +0.000 HD
ENDROOT
BRANCH   2   5
ATOM      5  C   UNL     1       0.835   0.299  -0.665  0.00  0.00    +0.000 C 
BRANCH   5   6
ATOM      6  N   UNL     1       0.278  -0.232   0.568  0.00  0.00    +0.000 N 
ATOM      7  C   UNL     1      -0.109   0.623   1.572  0.00  0.00    +0.000 A 
ATOM      8  N   UNL     1      -0.654   0.252   2.683  0.00  0.00    +0.000 NA
ATOM      9  C   UNL     1      -0.892  -1.118   2.868  0.00  0.00    +0.000 A 
ATOM     10  C   UNL     1      -1.562  -1.537   4.021  0.00  0.00    +0.000 A 
ATOM     11  C   UNL     1      -1.855  -2.889   4.216  0.00  0.00    +0.000 A 
ATOM     12  C   UNL     1      -1.472  -3.821   3.257  0.00  0.00    +0.000 A 
ATOM     13  F   UNL     1      -1.775  -5.112   3.437  0.00  0.00    +0.000 F 
ATOM     14  C   UNL     1      -0.788  -3.432   2.113  0.00  0.00    +0.000 A 
ATOM     15  C   UNL     1      -0.505  -2.077   1.926  0.00  0.00    +0.000 A 
ATOM     16  C   UNL     1       0.187  -1.606   0.713  0.00  0.00    +0.000 A 
ATOM     17  O   UNL     1       0.653  -2.407  -0.094  0.00  0.00    +0.000 OA
ENDBRANCH   5   6
ENDBRANCH   2   5
BRANCH   3  18
ATOM     18  C   UNL     1       4.451  -0.876  -0.952  0.00  0.00    +0.000 C 
BRANCH  18  19
ATOM     19  C   UNL     1       4.990  -1.802  -2.021  0.00  0.00    +0.000 A 
ATOM     20  C   UNL     1       5.657  -2.970  -1.668  0.00  0.00    +0.000 A 
ATOM     21  C   UNL     1       6.082  -3.836  -2.678  0.00  0.00    +0.000 A 
ATOM     22  C   UNL     1       5.928  -3.463  -4.006  0.00  0.00    +0.000 A 
ATOM     23  C   UNL     1       5.281  -2.271  -4.272  0.00  0.00    +0.000 A 
ATOM     24  N   UNL     1       4.793  -1.450  -3.317  0.00  0.00    +0.000 NA
BRANCH  21  25
ATOM     25  O   UNL     1       6.692  -5.054  -2.454  0.00  0.00    +0.000 OA
BRANCH  25  26
ATOM     26  C   UNL     1       6.353  -5.772  -1.328  0.00  0.00    +0.000 A 
ATOM     27  C   UNL     1       5.062  -5.806  -0.794  0.00  0.00    +0.000 A 
ATOM     28  C   UNL     1       4.840  -6.456   0.411  0.00  0.00    +0.000 A 
ATOM     29  F   UNL     1       3.627  -6.389   0.977  0.00  0.00    +0.000 F 
ATOM     30  C   UNL     1       5.860  -7.146   1.052  0.00  0.00    +0.000 A 
ATOM     31  C   UNL     1       7.125  -7.201   0.468  0.00  0.00    +0.000 A 
ATOM     32  C   UNL     1       7.373  -6.513  -0.723  0.00  0.00    +0.000 A 
ENDBRANCH  25  26
ENDBRANCH  21  25
ENDBRANCH  18  19
ENDBRANCH   3  18
TORSDOF 6
