REMARK  Name = 
REMARK  9 active torsions:
REMARK  status: ('A' for Active; 'I' for Inactive)
REMARK    1  A    between atoms: C_1  and  N_2
REMARK    2  A    between atoms: C_5  and  C_6
REMARK    3  A    between atoms: C_6  and  N_7
REMARK    4  A    between atoms: C_6  and  C_25
REMARK    5  A    between atoms: C_8  and  C_10
REMARK    6  A    between atoms: C_13  and  C_14
REMARK    7  A    between atoms: C_14  and  O_15
REMARK    8  A    between atoms: O_15  and  C_16
REMARK    9  A    between atoms: C_21  and  C_22
REMARK                            x       y       z     vdW  Elec       q    Type
REMARK                         _______ _______ _______ _____ _____    ______ ____
ROOT
ATOM      1  N   UNL     1       2.427   2.630   1.106  0.00  0.00    +0.000 N 
ATOM      2  C   UNL     1       1.386   3.506   1.321  0.00  0.00    +0.000 C 
ATOM      3  O   UNL     1       0.456   3.630   0.525  0.00  0.00    +0.000 OA
ATOM      4  H   UNL     1       3.007   2.419   1.906  0.00  0.00    +0.000 HD
ENDROOT
BRANCH   2   5
ATOM      5  C   UNL     1       1.501   4.293   2.537  0.00  0.00    +0.000 A 
ATOM      6  C   UNL     1       0.694   5.296   3.043  0.00  0.00    +0.000 A 
ATOM      7  C   UNL     1       1.293   5.744   4.242  0.00  0.00    +0.000 A 
ATOM      8  C   UNL     1       2.438   4.991   4.409  0.00  0.00    +0.000 A 
ATOM      9  O   UNL     1       2.576   4.109   3.376  0.00  0.00    +0.000 OA
BRANCH   8  10
ATOM     10  C   UNL     1       3.514   5.041   5.436  0.00  0.00    +0.000 C 
BRANCH  10  11
ATOM     11  O   UNL     1       3.114   4.201   6.522  0.00  0.00    +0.000 OA
BRANCH  11  12
ATOM     12  C   UNL     1       3.968   4.077   7.590  0.00  0.00    +0.000 A 
ATOM     13  C   UNL     1       3.954   2.799   8.175  0.00  0.00    +0.000 A 
ATOM     14  C   UNL     1       4.722   2.506   9.304  0.00  0.00    +0.000 A 
ATOM     15  C   UNL     1       5.518   3.491   9.879  0.00  0.00    +0.000 A 
ATOM     16  C   UNL     1       5.525   4.768   9.327  0.00  0.00    +0.000 A 
ATOM     17  C   UNL     1       4.746   5.077   8.196  0.00  0.00    +0.000 A 
BRANCH  17  18
ATOM     18  C   UNL     1       4.772   6.451   7.790  0.00  0.00    +0.000 C 
ATOM     19  N   UNL     1       4.819   7.562   7.470  0.00  0.00    +0.000 NA
ENDBRANCH  17  18
ENDBRANCH  11  12
ENDBRANCH  10  11
ENDBRANCH   8  10
ENDBRANCH   2   5
BRANCH   1  20
ATOM     20  C   UNL     1       2.441   1.704  -0.007  0.00  0.00    +0.000 C 
BRANCH  20  21
ATOM     21  C   UNL     1       3.866   1.327  -0.414  0.00  0.00    +0.000 A 
ATOM     22  C   UNL     1       4.346   1.703  -1.685  0.00  0.00    +0.000 A 
ATOM     23  C   UNL     1       5.629   1.340  -2.107  0.00  0.00    +0.000 A 
ATOM     24  C   UNL     1       6.453   0.614  -1.257  0.00  0.00    +0.000 A 
ATOM     25  F   UNL     1       7.674   0.250  -1.670  0.00  0.00    +0.000 F 
ATOM     26  C   UNL     1       6.024   0.260   0.014  0.00  0.00    +0.000 A 
ATOM     27  C   UNL     1       4.739   0.620   0.439  0.00  0.00    +0.000 A 
ENDBRANCH  20  21
BRANCH  20  32
ATOM     28  C   UNL     1       0.654  -1.982   2.648  0.00  0.00    +0.000 C 
ATOM     29  N   UNL     1       0.940  -1.206   1.466  0.00  0.00    +0.000 N 
ATOM     30  C   UNL     1       0.585  -1.502   0.186  0.00  0.00    +0.000 A 
ATOM     31  C   UNL     1       1.083  -0.479  -0.586  0.00  0.00    +0.000 A 
ATOM     32  C   UNL     1       1.731   0.403   0.324  0.00  0.00    +0.000 A 
ATOM     33  N   UNL     1       1.643  -0.065   1.585  0.00  0.00    +0.000 NA
ENDBRANCH  20  32
ENDBRANCH   1  20
TORSDOF 8
