REMARK  Name = 
REMARK  8 active torsions:
REMARK  status: ('A' for Active; 'I' for Inactive)
REMARK    1  A    between atoms: C_1  and  N_2
REMARK    2  A    between atoms: C_8  and  C_9
REMARK    3  A    between atoms: N_11  and  C_12
REMARK    4  A    between atoms: C_16  and  C_17
REMARK    5  A    between atoms: C_17  and  O_18
REMARK    6  A    between atoms: O_18  and  C_19
REMARK    7  A    between atoms: C_22  and  C_23
REMARK    8  A    between atoms: C_23  and  C_24
REMARK                            x       y       z     vdW  Elec       q    Type
REMARK                         _______ _______ _______ _____ _____    ______ ____
ROOT
ATOM      1  C   UNL     1       8.697  -1.243   0.328  0.00  0.00    +0.000 C 
ATOM      2  O   UNL     1       9.166  -0.287   0.940  0.00  0.00    +0.000 OA
ATOM      3  N   UNL     1       9.441  -2.181  -0.372  0.00  0.00    +0.000 N 
ATOM      4  H   UNL     1       8.978  -2.749  -1.068  0.00  0.00    +0.000 HD
ENDROOT
BRANCH   1  12
ATOM      5  C   UNL     1       0.887  -0.326   1.055  0.00  0.00    +0.000 C 
ATOM      6  N   UNL     1       2.336  -0.333   1.042  0.00  0.00    +0.000 N 
ATOM      7  C   UNL     1       3.015   0.769   1.525  0.00  0.00    +0.000 A 
ATOM      8  O   UNL     1       2.478   1.782   1.970  0.00  0.00    +0.000 OA
ATOM      9  N   UNL     1       4.381   0.709   1.488  0.00  0.00    +0.000 N 
ATOM     10  C   UNL     1       5.092  -0.357   0.945  0.00  0.00    +0.000 A 
ATOM     11  C   UNL     1       6.482  -0.311   0.890  0.00  0.00    +0.000 A 
ATOM     12  C   UNL     1       7.212  -1.366   0.309  0.00  0.00    +0.000 A 
ATOM     13  C   UNL     1       6.521  -2.468  -0.217  0.00  0.00    +0.000 A 
ATOM     14  C   UNL     1       5.123  -2.515  -0.141  0.00  0.00    +0.000 A 
ATOM     15  C   UNL     1       4.417  -1.459   0.445  0.00  0.00    +0.000 A 
ATOM     16  C   UNL     1       2.947  -1.479   0.536  0.00  0.00    +0.000 A 
ATOM     17  O   UNL     1       2.339  -2.480   0.165  0.00  0.00    +0.000 OA
ATOM     18  H   UNL     1       4.863   1.525   1.844  0.00  0.00    +0.000 HD
ENDBRANCH   1  12
BRANCH   3  19
ATOM     19  C   UNL     1      10.855  -2.236  -0.365  0.00  0.00    +0.000 A 
ATOM     20  C   UNL     1      11.625  -1.637   0.639  0.00  0.00    +0.000 A 
ATOM     21  C   UNL     1      13.016  -1.633   0.567  0.00  0.00    +0.000 A 
ATOM     22  C   UNL     1      13.653  -2.220  -0.517  0.00  0.00    +0.000 A 
ATOM     23  C   UNL     1      12.902  -2.839  -1.526  0.00  0.00    +0.000 A 
ATOM     24  C   UNL     1      11.502  -2.890  -1.419  0.00  0.00    +0.000 A 
BRANCH  23  25
ATOM     25  C   UNL     1      13.611  -3.343  -2.754  0.00  0.00    +0.000 C 
BRANCH  25  26
ATOM     26  O   UNL     1      14.230  -4.605  -2.502  0.00  0.00    +0.000 OA
BRANCH  26  27
ATOM     27  C   UNL     1      14.855  -5.129  -3.605  0.00  0.00    +0.000 A 
ATOM     28  C   UNL     1      15.487  -4.361  -4.585  0.00  0.00    +0.000 A 
ATOM     29  C   UNL     1      16.028  -4.966  -5.716  0.00  0.00    +0.000 A 
ATOM     30  C   UNL     1      15.958  -6.352  -5.874  0.00  0.00    +0.000 A 
ATOM     31  C   UNL     1      15.409  -7.131  -4.846  0.00  0.00    +0.000 A 
ATOM     32  C   UNL     1      14.859  -6.518  -3.715  0.00  0.00    +0.000 A 
BRANCH  30  33
ATOM     33  C   UNL     1      16.497  -6.980  -7.127  0.00  0.00    +0.000 C 
BRANCH  33  34
ATOM     34  C   UNL     1      17.987  -7.261  -7.024  0.00  0.00    +0.000 C 
ATOM     35  N   UNL     1      19.224  -7.494  -6.939  0.00  0.00    +0.000 NA
ENDBRANCH  33  34
ENDBRANCH  30  33
ENDBRANCH  26  27
ENDBRANCH  25  26
ENDBRANCH  23  25
ENDBRANCH   3  19
TORSDOF 7
