REMARK  Name = 
REMARK  8 active torsions:
REMARK  status: ('A' for Active; 'I' for Inactive)
REMARK    1  A    between atoms: C_1  and  C_2
REMARK    2  A    between atoms: C_2  and  N_3
REMARK    3  A    between atoms: C_2  and  C_16
REMARK    4  A    between atoms: C_4  and  C_6
REMARK    5  A    between atoms: C_16  and  N_17
REMARK    6  A    between atoms: C_16  and  C_29
REMARK    7  A    between atoms: C_18  and  C_20
REMARK    8  A    between atoms: C_23  and  C_24
REMARK                            x       y       z     vdW  Elec       q    Type
REMARK                         _______ _______ _______ _____ _____    ______ ____
ROOT
ATOM      1  C   UNL     1       3.036   0.609   1.123  0.00  0.00    +0.000 C 
ENDROOT
BRANCH   1   2
ATOM      2  C   UNL     1       4.556   0.589   1.250  0.00  0.00    +0.000 A 
ATOM      3  C   UNL     1       5.270   1.797   1.274  0.00  0.00    +0.000 A 
ATOM      4  C   UNL     1       6.662   1.803   1.404  0.00  0.00    +0.000 A 
ATOM      5  C   UNL     1       7.362   0.603   1.503  0.00  0.00    +0.000 A 
ATOM      6  C   UNL     1       6.670  -0.603   1.506  0.00  0.00    +0.000 A 
ATOM      7  C   UNL     1       5.278  -0.607   1.404  0.00  0.00    +0.000 A 
ENDBRANCH   1   2
BRANCH   1   8
ATOM      8  N   UNL     1       2.457   0.052   2.342  0.00  0.00    +0.000 N 
ATOM      9  C   UNL     1       1.326   0.526   2.959  0.00  0.00    +0.000 C 
ATOM     10  O   UNL     1       0.673   1.475   2.541  0.00  0.00    +0.000 OA
ATOM     11  H   UNL     1       2.923  -0.757   2.732  0.00  0.00    +0.000 HD
BRANCH   9  12
ATOM     12  C   UNL     1       0.907  -0.180   4.207  0.00  0.00    +0.000 A 
ATOM     13  C   UNL     1      -0.245   0.257   4.877  0.00  0.00    +0.000 A 
ATOM     14  C   UNL     1      -0.671  -0.384   6.048  0.00  0.00    +0.000 A 
ATOM     15  C   UNL     1       0.052  -1.466   6.562  0.00  0.00    +0.000 A 
ATOM     16  C   UNL     1       1.204  -1.901   5.905  0.00  0.00    +0.000 A 
ATOM     17  C   UNL     1       1.620  -1.259   4.740  0.00  0.00    +0.000 A 
ATOM     18  F   UNL     1       2.735  -1.717   4.150  0.00  0.00    +0.000 F 
BRANCH  15  19
ATOM     19  C   UNL     1      -0.383  -2.131   7.753  0.00  0.00    +0.000 C 
ATOM     20  N   UNL     1      -0.734  -2.678   8.715  0.00  0.00    +0.000 NA
ENDBRANCH  15  19
ENDBRANCH   9  12
ENDBRANCH   1   8
BRANCH   1  22
ATOM     21  C   UNL     1       2.663  -1.577  -0.264  0.00  0.00    +0.000 C 
ATOM     22  C   UNL     1       2.477  -0.055  -0.185  0.00  0.00    +0.000 C 
BRANCH  22  23
ATOM     23  N   UNL     1       1.047   0.240  -0.345  0.00  0.00    +0.000 N 
ATOM     24  C   UNL     1       0.444   0.298  -1.575  0.00  0.00    +0.000 C 
ATOM     25  O   UNL     1       1.069   0.321  -2.628  0.00  0.00    +0.000 OA
ATOM     26  H   UNL     1       0.477   0.112   0.490  0.00  0.00    +0.000 HD
BRANCH  24  27
ATOM     27  C   UNL     1      -1.038   0.351  -1.625  0.00  0.00    +0.000 A 
ATOM     28  C   UNL     1      -1.628   1.044  -2.700  0.00  0.00    +0.000 A 
ATOM     29  C   UNL     1      -3.023   1.070  -2.878  0.00  0.00    +0.000 A 
ATOM     30  C   UNL     1      -3.861   0.364  -2.013  0.00  0.00    +0.000 A 
ATOM     31  C   UNL     1      -3.282  -0.325  -0.962  0.00  0.00    +0.000 A 
ATOM     32  C   UNL     1      -1.896  -0.302  -0.759  0.00  0.00    +0.000 A 
ATOM     33  C   UNL     1      -1.700  -1.058   0.479  0.00  0.00    +0.000 A 
ATOM     34  O   UNL     1      -0.668  -1.189   1.110  0.00  0.00    +0.000 OA
ATOM     35  N   UNL     1      -2.943  -1.526   0.851  0.00  0.00    +0.000 N 
ATOM     36  N   UNL     1      -3.969  -1.144  -0.034  0.00  0.00    +0.000 N 
ATOM     37  H   UNL     1      -3.134  -2.050   1.697  0.00  0.00    +0.000 HD
ATOM     38  H   UNL     1      -4.728  -0.626   0.412  0.00  0.00    +0.000 HD
ENDBRANCH  24  27
ENDBRANCH  22  23
ENDBRANCH   1  22
TORSDOF 7
