REMARK  Name = 
REMARK  7 active torsions:
REMARK  status: ('A' for Active; 'I' for Inactive)
REMARK    1  A    between atoms: C_2  and  O_3
REMARK    2  A    between atoms: C_2  and  C_11
REMARK    3  A    between atoms: O_3  and  C_4
REMARK    4  A    between atoms: C_4  and  C_5
REMARK    5  A    between atoms: C_13  and  N_14
REMARK    6  A    between atoms: C_15  and  C_17
REMARK    7  A    between atoms: C_24  and  O_25
REMARK                            x       y       z     vdW  Elec       q    Type
REMARK                         _______ _______ _______ _____ _____    ______ ____
ROOT
ATOM      1  C   UNL     1       3.094  -1.172  -0.482  0.00  0.00    +0.000 A 
ATOM      2  C   UNL     1       2.739  -1.433  -1.811  0.00  0.00    +0.000 A 
ATOM      3  C   UNL     1       3.430  -2.377  -2.574  0.00  0.00    +0.000 A 
ATOM      4  C   UNL     1       4.506  -3.055  -1.992  0.00  0.00    +0.000 A 
ATOM      5  C   UNL     1       4.864  -2.812  -0.662  0.00  0.00    +0.000 A 
ATOM      6  C   UNL     1       4.156  -1.876   0.096  0.00  0.00    +0.000 A 
ENDROOT
BRANCH   3   7
ATOM      7  N   UNL     1       3.097  -2.671  -3.910  0.00  0.00    +0.000 N 
ATOM      8  C   UNL     1       2.030  -2.161  -4.633  0.00  0.00    +0.000 C 
ATOM      9  O   UNL     1       1.159  -1.397  -4.232  0.00  0.00    +0.000 OA
ATOM     10  H   UNL     1       3.688  -3.321  -4.425  0.00  0.00    +0.000 HD
BRANCH   8  11
ATOM     11  C   UNL     1       1.991  -2.606  -6.059  0.00  0.00    +0.000 A 
ATOM     12  C   UNL     1       0.985  -2.136  -6.889  0.00  0.00    +0.000 A 
ATOM     13  C   UNL     1       1.048  -2.459  -8.237  0.00  0.00    +0.000 A 
ATOM     14  C   UNL     1       2.116  -3.228  -8.716  0.00  0.00    +0.000 A 
ATOM     15  C   UNL     1       2.249  -3.502 -10.085  0.00  0.00    +0.000 A 
ATOM     16  C   UNL     1       3.333  -4.250 -10.510  0.00  0.00    +0.000 A 
ATOM     17  N   UNL     1       4.257  -4.761  -9.675  0.00  0.00    +0.000 NA
ATOM     18  C   UNL     1       4.087  -4.474  -8.365  0.00  0.00    +0.000 A 
ATOM     19  C   UNL     1       3.072  -3.704  -7.795  0.00  0.00    +0.000 A 
ATOM     20  N   UNL     1       3.009  -3.404  -6.473  0.00  0.00    +0.000 NA
BRANCH  18  21
ATOM     21  O   UNL     1       5.062  -5.027  -7.588  0.00  0.00    +0.000 OA
ATOM     22  H   UNL     1       5.584  -5.480  -8.273  0.00  0.00    +0.000 HD
ENDBRANCH  18  21
ENDBRANCH   8  11
ENDBRANCH   3   7
BRANCH   1  24
ATOM     23  O   UNL     1       2.622   0.067   1.507  0.00  0.00    +0.000 OA
ATOM     24  C   UNL     1       2.369  -0.159   0.335  0.00  0.00    +0.000 C 
BRANCH  24  25
ATOM     25  O   UNL     1       1.419   0.448  -0.414  0.00  0.00    +0.000 OA
BRANCH  25  26
ATOM     26  C   UNL     1       0.635   1.469   0.215  0.00  0.00    +0.000 C 
BRANCH  26  27
ATOM     27  C   UNL     1       0.748   2.744  -0.585  0.00  0.00    +0.000 A 
ATOM     28  C   UNL     1       0.401   2.767  -1.945  0.00  0.00    +0.000 A 
ATOM     29  C   UNL     1       0.483   3.953  -2.678  0.00  0.00    +0.000 A 
ATOM     30  C   UNL     1       0.912   5.126  -2.061  0.00  0.00    +0.000 A 
ATOM     31  C   UNL     1       1.265   5.114  -0.712  0.00  0.00    +0.000 A 
ATOM     32  C   UNL     1       1.184   3.929   0.022  0.00  0.00    +0.000 A 
ENDBRANCH  26  27
ENDBRANCH  25  26
ENDBRANCH  24  25
ENDBRANCH   1  24
TORSDOF 7
