REMARK  Name = 
REMARK  5 active torsions:
REMARK  status: ('A' for Active; 'I' for Inactive)
REMARK    1  A    between atoms: C_2  and  C_19
REMARK    2  A    between atoms: N_3  and  C_4
REMARK    3  A    between atoms: N_6  and  C_7
REMARK    4  A    between atoms: C_10  and  C_11
REMARK    5  A    between atoms: N_21  and  C_22
REMARK                            x       y       z     vdW  Elec       q    Type
REMARK                         _______ _______ _______ _____ _____    ______ ____
ROOT
ATOM      1  O   UNL     1       1.036   0.212  -0.275  0.00  0.00    +0.000 OA
ATOM      2  C   UNL     1       2.223   0.092   0.018  0.00  0.00    +0.000 C 
ATOM      3  N   UNL     1       2.875  -1.094   0.308  0.00  0.00    +0.000 N 
ATOM      4  H   UNL     1       3.844  -1.010   0.604  0.00  0.00    +0.000 HD
ENDROOT
BRANCH   3   5
ATOM      5  C   UNL     1       2.267  -2.334   0.324  0.00  0.00    +0.000 A 
ATOM      6  C   UNL     1       1.008  -2.647  -0.120  0.00  0.00    +0.000 A 
ATOM      7  N   UNL     1       0.798  -3.985   0.117  0.00  0.00    +0.000 N 
ATOM      8  N   UNL     1       1.887  -4.556   0.700  0.00  0.00    +0.000 NA
ATOM      9  C   UNL     1       2.774  -3.559   0.796  0.00  0.00    +0.000 A 
BRANCH   7  10
ATOM     10  C   UNL     1      -0.375  -4.734  -0.179  0.00  0.00    +0.000 A 
ATOM     11  C   UNL     1      -1.434  -4.158  -0.897  0.00  0.00    +0.000 A 
ATOM     12  C   UNL     1      -2.578  -4.905  -1.186  0.00  0.00    +0.000 A 
ATOM     13  C   UNL     1      -2.689  -6.233  -0.757  0.00  0.00    +0.000 A 
ATOM     14  C   UNL     1      -1.629  -6.806  -0.034  0.00  0.00    +0.000 A 
ATOM     15  C   UNL     1      -0.478  -6.064   0.248  0.00  0.00    +0.000 A 
BRANCH  13  16
ATOM     16  C   UNL     1      -3.925  -7.046  -1.063  0.00  0.00    +0.000 C 
ATOM     17  F   UNL     1      -4.865  -6.362  -1.774  0.00  0.00    +0.000 F 
ATOM     18  F   UNL     1      -3.649  -8.162  -1.793  0.00  0.00    +0.000 F 
ATOM     19  F   UNL     1      -4.556  -7.481   0.062  0.00  0.00    +0.000 F 
ENDBRANCH  13  16
ENDBRANCH   7  10
ENDBRANCH   3   5
BRANCH   2  20
ATOM     20  C   UNL     1       3.086   1.275   0.143  0.00  0.00    +0.000 A 
ATOM     21  N   UNL     1       4.410   1.196   0.384  0.00  0.00    +0.000 NA
ATOM     22  N   UNL     1       4.822   2.491   0.486  0.00  0.00    +0.000 N 
ATOM     23  C   UNL     1       3.782   3.369   0.283  0.00  0.00    +0.000 A 
ATOM     24  C   UNL     1       2.658   2.618   0.055  0.00  0.00    +0.000 A 
BRANCH  22  25
ATOM     25  C   UNL     1       6.165   2.809   0.795  0.00  0.00    +0.000 A 
ATOM     26  C   UNL     1       6.572   4.119   1.066  0.00  0.00    +0.000 A 
ATOM     27  C   UNL     1       7.904   4.366   1.392  0.00  0.00    +0.000 A 
ATOM     28  C   UNL     1       8.784   3.298   1.426  0.00  0.00    +0.000 A 
ATOM     29  N   UNL     1       8.425   2.023   1.161  0.00  0.00    +0.000 NA
ATOM     30  C   UNL     1       7.122   1.804   0.855  0.00  0.00    +0.000 A 
ENDBRANCH  22  25
ENDBRANCH   2  20
TORSDOF 5
