REMARK  Name = 
REMARK  5 active torsions:
REMARK  status: ('A' for Active; 'I' for Inactive)
REMARK    1  A    between atoms: C_2  and  C_17
REMARK    2  A    between atoms: N_3  and  C_4
REMARK    3  A    between atoms: C_8  and  C_9
REMARK    4  A    between atoms: C_9  and  C_10
REMARK    5  A    between atoms: N_21  and  C_22
REMARK                            x       y       z     vdW  Elec       q    Type
REMARK                         _______ _______ _______ _____ _____    ______ ____
ROOT
ATOM      1  O   UNL     1       1.005  -0.280   0.319  0.00  0.00    +0.000 OA
ATOM      2  C   UNL     1       2.190  -0.049   0.097  0.00  0.00    +0.000 C 
ATOM      3  N   UNL     1       2.874   1.070   0.517  0.00  0.00    +0.000 N 
ATOM      4  H   UNL     1       3.624   1.423  -0.062  0.00  0.00    +0.000 HD
ENDROOT
BRANCH   2   5
ATOM      5  C   UNL     1       2.972  -0.975  -0.749  0.00  0.00    +0.000 A 
ATOM      6  C   UNL     1       2.361  -1.607  -1.752  0.00  0.00    +0.000 A 
ATOM      7  C   UNL     1       3.063  -2.617  -2.574  0.00  0.00    +0.000 A 
ATOM      8  O   UNL     1       2.406  -3.143  -3.471  0.00  0.00    +0.000 OA
ATOM      9  N   UNL     1       4.387  -2.894  -2.208  0.00  0.00    +0.000 N 
ATOM     10  N   UNL     1       5.026  -2.255  -1.153  0.00  0.00    +0.000 NA
ATOM     11  C   UNL     1       4.361  -1.361  -0.501  0.00  0.00    +0.000 A 
BRANCH   9  12
ATOM     12  C   UNL     1       5.207  -3.861  -2.885  0.00  0.00    +0.000 A 
ATOM     13  C   UNL     1       4.934  -4.294  -4.191  0.00  0.00    +0.000 A 
ATOM     14  C   UNL     1       5.751  -5.233  -4.832  0.00  0.00    +0.000 A 
ATOM     15  C   UNL     1       6.851  -5.772  -4.173  0.00  0.00    +0.000 A 
ATOM     16  C   UNL     1       7.141  -5.363  -2.876  0.00  0.00    +0.000 A 
ATOM     17  C   UNL     1       6.334  -4.409  -2.244  0.00  0.00    +0.000 A 
ENDBRANCH   9  12
ENDBRANCH   2   5
BRANCH   3  18
ATOM     18  C   UNL     1       2.235   2.077   1.251  0.00  0.00    +0.000 A 
ATOM     19  C   UNL     1       1.415   1.778   2.332  0.00  0.00    +0.000 A 
ATOM     20  C   UNL     1       0.753   2.818   2.973  0.00  0.00    +0.000 A 
ATOM     21  C   UNL     1       0.897   4.112   2.487  0.00  0.00    +0.000 A 
ATOM     22  C   UNL     1       1.756   4.334   1.411  0.00  0.00    +0.000 A 
ATOM     23  N   UNL     1       2.470   3.334   0.826  0.00  0.00    +0.000 NA
BRANCH  22  24
ATOM     24  C   UNL     1       1.897   5.726   0.828  0.00  0.00    +0.000 C 
BRANCH  24  25
ATOM     25  C   UNL     1       0.891   6.074  -0.248  0.00  0.00    +0.000 A 
ATOM     26  C   UNL     1       0.007   7.150  -0.085  0.00  0.00    +0.000 A 
ATOM     27  C   UNL     1      -0.886   7.502  -1.103  0.00  0.00    +0.000 A 
ATOM     28  C   UNL     1      -0.908   6.785  -2.297  0.00  0.00    +0.000 A 
ATOM     29  C   UNL     1      -0.035   5.713  -2.472  0.00  0.00    +0.000 A 
ATOM     30  C   UNL     1       0.859   5.358  -1.460  0.00  0.00    +0.000 A 
ENDBRANCH  24  25
ENDBRANCH  22  24
ENDBRANCH   3  18
TORSDOF 5
