REMARK  Name = 
REMARK  8 active torsions:
REMARK  status: ('A' for Active; 'I' for Inactive)
REMARK    1  A    between atoms: C_2  and  C_3
REMARK    2  A    between atoms: C_5  and  C_6
REMARK    3  A    between atoms: N_8  and  C_9
REMARK    4  A    between atoms: N_8  and  C_13
REMARK    5  A    between atoms: C_9  and  C_10
REMARK    6  A    between atoms: C_13  and  C_14
REMARK    7  A    between atoms: C_17  and  C_18
REMARK    8  A    between atoms: C_28  and  C_29
REMARK                            x       y       z     vdW  Elec       q    Type
REMARK                         _______ _______ _______ _____ _____    ______ ____
ROOT
ATOM      1  C   UNL     1      -2.338   2.500   0.566  0.00  0.00    +0.000 C 
ATOM      2  O   UNL     1      -1.710   1.444   0.712  0.00  0.00    +0.000 OA
ATOM      3  N   UNL     1      -1.664   3.713   0.334  0.00  0.00    +0.000 N 
ENDROOT
BRANCH   1   6
ATOM      4  C   UNL     1      -6.120   3.127   0.289  0.00  0.00    +0.000 A 
ATOM      5  C   UNL     1      -4.743   3.199   0.002  0.00  0.00    +0.000 A 
ATOM      6  C   UNL     1      -3.826   2.409   0.689  0.00  0.00    +0.000 A 
ATOM      7  C   UNL     1      -4.362   1.445   1.532  0.00  0.00    +0.000 A 
ATOM      8  N   UNL     1      -5.694   1.289   1.770  0.00  0.00    +0.000 NA
ATOM      9  C   UNL     1      -6.577   2.148   1.171  0.00  0.00    +0.000 A 
BRANCH   9  10
ATOM     10  C   UNL     1      -8.060   1.972   1.499  0.00  0.00    +0.000 C 
ATOM     11  F   UNL     1      -8.896   2.822   0.840  0.00  0.00    +0.000 F 
ATOM     12  F   UNL     1      -8.517   0.724   1.192  0.00  0.00    +0.000 F 
ATOM     13  F   UNL     1      -8.333   2.158   2.822  0.00  0.00    +0.000 F 
ENDBRANCH   9  10
BRANCH   4  15
ATOM     14  N   UNL     1      -7.591   4.983  -0.761  0.00  0.00    +0.000 NA
ATOM     15  C   UNL     1      -6.966   4.122  -0.297  0.00  0.00    +0.000 C 
ENDBRANCH   4  15
ENDBRANCH   1   6
BRANCH   3  16
ATOM     16  C   UNL     1      -2.270   5.050   0.392  0.00  0.00    +0.000 C 
BRANCH  16  17
ATOM     17  C   UNL     1      -3.059   5.405   1.633  0.00  0.00    +0.000 A 
ATOM     18  C   UNL     1      -2.742   4.975   2.926  0.00  0.00    +0.000 A 
ATOM     19  C   UNL     1      -3.526   5.375   4.031  0.00  0.00    +0.000 A 
ATOM     20  C   UNL     1      -4.630   6.234   3.883  0.00  0.00    +0.000 A 
ATOM     21  C   UNL     1      -4.891   6.692   2.580  0.00  0.00    +0.000 A 
ATOM     22  C   UNL     1      -4.132   6.288   1.482  0.00  0.00    +0.000 A 
BRANCH  20  23
ATOM     23  C   UNL     1      -5.481   6.701   5.013  0.00  0.00    +0.000 A 
ATOM     24  C   UNL     1      -4.993   6.859   6.322  0.00  0.00    +0.000 A 
ATOM     25  C   UNL     1      -5.788   7.419   7.335  0.00  0.00    +0.000 A 
ATOM     26  C   UNL     1      -7.089   7.835   7.063  0.00  0.00    +0.000 A 
ATOM     27  C   UNL     1      -7.613   7.652   5.792  0.00  0.00    +0.000 A 
ATOM     28  C   UNL     1      -6.825   7.073   4.793  0.00  0.00    +0.000 A 
ENDBRANCH  20  23
ENDBRANCH  16  17
ENDBRANCH   3  16
BRANCH   3  29
ATOM     29  C   UNL     1      -0.182   3.705   0.354  0.00  0.00    +0.000 C 
BRANCH  29  30
ATOM     30  C   UNL     1       0.650   2.927  -0.682  0.00  0.00    +0.000 C 
ATOM     31  N   UNL     1       0.146   1.776  -1.196  0.00  0.00    +0.000 N 
ATOM     32  O   UNL     1       1.808   3.242  -0.955  0.00  0.00    +0.000 OA
ATOM     33  H   UNL     1      -0.549   1.289  -0.642  0.00  0.00    +0.000 HD
ATOM     34  H   UNL     1       0.811   1.191  -1.689  0.00  0.00    +0.000 HD
ENDBRANCH  29  30
ENDBRANCH   3  29
TORSDOF 8
