REMARK  Name = 
REMARK  4 active torsions:
REMARK  status: ('A' for Active; 'I' for Inactive)
REMARK    1  A    between atoms: C_2  and  C_19
REMARK    2  A    between atoms: N_3  and  C_4
REMARK    3  A    between atoms: C_7  and  O_8
REMARK    4  A    between atoms: O_8  and  C_9
REMARK                            x       y       z     vdW  Elec       q    Type
REMARK                         _______ _______ _______ _____ _____    ______ ____
ROOT
ATOM      1  O   UNL     1       1.349   0.627  -0.950  0.00  0.00    +0.000 OA
ATOM      2  C   UNL     1       2.365   0.225  -0.396  0.00  0.00    +0.000 C 
ATOM      3  N   UNL     1       2.839  -1.077  -0.394  0.00  0.00    +0.000 N 
ATOM      4  H   UNL     1       3.651  -1.295   0.171  0.00  0.00    +0.000 HD
ENDROOT
BRANCH   2   5
ATOM      5  C   UNL     1       3.158   1.228   0.350  0.00  0.00    +0.000 A 
ATOM      6  C   UNL     1       4.556   1.231   0.208  0.00  0.00    +0.000 A 
ATOM      7  C   UNL     1       5.316   2.252   0.781  0.00  0.00    +0.000 A 
ATOM      8  C   UNL     1       4.688   3.274   1.492  0.00  0.00    +0.000 A 
ATOM      9  C   UNL     1       3.296   3.267   1.643  0.00  0.00    +0.000 A 
ATOM     10  C   UNL     1       2.530   2.247   1.083  0.00  0.00    +0.000 A 
ATOM     11  C   UNL     1       1.078   2.310   1.332  0.00  0.00    +0.000 A 
ATOM     12  N   UNL     1       0.486   3.254   2.000  0.00  0.00    +0.000 NA
ATOM     13  N   UNL     1       1.261   4.255   2.498  0.00  0.00    +0.000 N 
ATOM     14  C   UNL     1       2.627   4.346   2.389  0.00  0.00    +0.000 A 
ATOM     15  O   UNL     1       3.268   5.266   2.883  0.00  0.00    +0.000 OA
ATOM     16  H   UNL     1       0.779   4.988   3.013  0.00  0.00    +0.000 HD
ENDBRANCH   2   5
BRANCH   3  17
ATOM     17  C   UNL     1       2.173  -2.176  -0.989  0.00  0.00    +0.000 A 
ATOM     18  C   UNL     1       1.082  -2.046  -1.847  0.00  0.00    +0.000 A 
ATOM     19  C   UNL     1       0.436  -3.177  -2.336  0.00  0.00    +0.000 A 
ATOM     20  C   UNL     1       0.923  -4.415  -1.967  0.00  0.00    +0.000 A 
ATOM     21  N   UNL     1       1.976  -4.596  -1.136  0.00  0.00    +0.000 NA
ATOM     22  C   UNL     1       2.591  -3.473  -0.695  0.00  0.00    +0.000 A 
BRANCH  20  23
ATOM     23  O   UNL     1       0.248  -5.512  -2.480  0.00  0.00    +0.000 OA
BRANCH  23  24
ATOM     24  C   UNL     1       0.986  -6.640  -2.745  0.00  0.00    +0.000 A 
ATOM     25  C   UNL     1       2.269  -6.628  -3.296  0.00  0.00    +0.000 A 
ATOM     26  F   UNL     1       2.875  -5.477  -3.629  0.00  0.00    +0.000 F 
ATOM     27  C   UNL     1       2.926  -7.826  -3.542  0.00  0.00    +0.000 A 
ATOM     28  F   UNL     1       4.171  -7.818  -4.039  0.00  0.00    +0.000 F 
ATOM     29  C   UNL     1       2.302  -9.045  -3.290  0.00  0.00    +0.000 A 
ATOM     30  C   UNL     1       1.002  -9.065  -2.785  0.00  0.00    +0.000 A 
ATOM     31  C   UNL     1       0.344  -7.863  -2.513  0.00  0.00    +0.000 A 
ENDBRANCH  23  24
ENDBRANCH  20  23
ENDBRANCH   3  17
TORSDOF 4
