REMARK  Name = 
REMARK  6 active torsions:
REMARK  status: ('A' for Active; 'I' for Inactive)
REMARK    1  A    between atoms: C_2  and  C_3
REMARK    2  A    between atoms: C_3  and  C_4
REMARK    3  A    between atoms: C_4  and  C_5
REMARK    4  A    between atoms: N_16  and  C_17
REMARK    5  A    between atoms: C_17  and  C_18
REMARK    6  A    between atoms: C_21  and  C_22
REMARK                            x       y       z     vdW  Elec       q    Type
REMARK                         _______ _______ _______ _____ _____    ______ ____
ROOT
ATOM      1  O   UNL     1       1.012   0.096   0.060  0.00  0.00    +0.000 OA
ATOM      2  C   UNL     1       2.239   0.070   0.050  0.00  0.00    +0.000 C 
ATOM      3  N   UNL     1       3.018   1.091  -0.437  0.00  0.00    +0.000 N 
ATOM      4  H   UNL     1       4.019   0.960  -0.506  0.00  0.00    +0.000 HD
ENDROOT
BRANCH   3   5
ATOM      5  C   UNL     1       2.456   2.299  -1.002  0.00  0.00    +0.000 C 
BRANCH   5   6
ATOM      6  C   UNL     1       2.958   2.497  -2.407  0.00  0.00    +0.000 A 
ATOM      7  C   UNL     1       2.265   1.973  -3.503  0.00  0.00    +0.000 A 
ATOM      8  C   UNL     1       2.784   2.093  -4.802  0.00  0.00    +0.000 A 
ATOM      9  C   UNL     1       4.020   2.724  -5.043  0.00  0.00    +0.000 A 
ATOM     10  C   UNL     1       4.673   3.273  -3.929  0.00  0.00    +0.000 A 
ATOM     11  F   UNL     1       5.829   3.940  -4.072  0.00  0.00    +0.000 F 
ATOM     12  C   UNL     1       4.166   3.159  -2.635  0.00  0.00    +0.000 A 
BRANCH   9  13
ATOM     13  C   UNL     1       4.604   2.784  -6.398  0.00  0.00    +0.000 A 
ATOM     14  C   UNL     1       5.984   2.771  -6.622  0.00  0.00    +0.000 A 
ATOM     15  C   UNL     1       6.478   2.863  -7.919  0.00  0.00    +0.000 A 
ATOM     16  C   UNL     1       5.584   2.944  -8.977  0.00  0.00    +0.000 A 
ATOM     17  C   UNL     1       4.232   2.919  -8.686  0.00  0.00    +0.000 A 
ATOM     18  N   UNL     1       3.725   2.838  -7.433  0.00  0.00    +0.000 NA
ENDBRANCH   9  13
ENDBRANCH   5   6
ENDBRANCH   3   5
BRANCH   2  19
ATOM     19  C   UNL     1       3.021  -1.119   0.576  0.00  0.00    +0.000 C 
BRANCH  19  20
ATOM     20  C   UNL     1       3.901  -0.722   1.763  0.00  0.00    +0.000 C 
BRANCH  20  21
ATOM     21  C   UNL     1       4.648  -1.866   2.401  0.00  0.00    +0.000 A 
ATOM     22  C   UNL     1       4.479  -2.212   3.689  0.00  0.00    +0.000 A 
ATOM     23  C   UNL     1       5.257  -3.296   4.291  0.00  0.00    +0.000 A 
ATOM     24  C   UNL     1       5.110  -3.639   5.637  0.00  0.00    +0.000 A 
ATOM     25  C   UNL     1       5.867  -4.682   6.179  0.00  0.00    +0.000 A 
ATOM     26  C   UNL     1       6.768  -5.385   5.377  0.00  0.00    +0.000 A 
ATOM     27  C   UNL     1       6.924  -5.043   4.033  0.00  0.00    +0.000 A 
ATOM     28  C   UNL     1       6.171  -3.997   3.497  0.00  0.00    +0.000 A 
ATOM     29  N   UNL     1       6.338  -3.623   2.159  0.00  0.00    +0.000 N 
ATOM     30  C   UNL     1       5.670  -2.583   1.570  0.00  0.00    +0.000 A 
ATOM     31  O   UNL     1       5.902  -2.250   0.413  0.00  0.00    +0.000 OA
ATOM     32  H   UNL     1       7.013  -4.101   1.578  0.00  0.00    +0.000 HD
ENDBRANCH  20  21
ENDBRANCH  19  20
ENDBRANCH   2  19
TORSDOF 6
