REMARK  Name = 
REMARK  8 active torsions:
REMARK  status: ('A' for Active; 'I' for Inactive)
REMARK    1  A    between atoms: C_1  and  O_2
REMARK    2  A    between atoms: O_2  and  C_3
REMARK    3  A    between atoms: C_3  and  C_5
REMARK    4  A    between atoms: C_5  and  N_6
REMARK    5  A    between atoms: C_5  and  C_25
REMARK    6  A    between atoms: C_7  and  C_9
REMARK    7  A    between atoms: C_15  and  C_16
REMARK    8  A    between atoms: N_18  and  C_19
REMARK                            x       y       z     vdW  Elec       q    Type
REMARK                         _______ _______ _______ _____ _____    ______ ____
ROOT
ATOM      1  N   UNL     1       3.591   0.474  -1.285  0.00  0.00    +0.000 N 
ATOM      2  C   UNL     1       4.888   0.177  -1.616  0.00  0.00    +0.000 C 
ATOM      3  O   UNL     1       5.702  -0.289  -0.834  0.00  0.00    +0.000 OA
ATOM      4  H   UNL     1       2.955   0.830  -1.979  0.00  0.00    +0.000 HD
ENDROOT
BRANCH   2   5
ATOM      5  C   UNL     1       5.274   0.502  -3.005  0.00  0.00    +0.000 A 
ATOM      6  C   UNL     1       6.588   0.874  -3.253  0.00  0.00    +0.000 A 
ATOM      7  N   UNL     1       7.083   1.231  -4.458  0.00  0.00    +0.000 NA
ATOM      8  C   UNL     1       6.180   1.188  -5.467  0.00  0.00    +0.000 A 
ATOM      9  C   UNL     1       4.843   0.829  -5.342  0.00  0.00    +0.000 A 
ATOM     10  C   UNL     1       4.370   0.458  -4.073  0.00  0.00    +0.000 A 
ATOM     11  C   UNL     1       4.307   0.949  -6.643  0.00  0.00    +0.000 A 
ATOM     12  C   UNL     1       2.918   0.668  -7.090  0.00  0.00    +0.000 C 
ATOM     13  N   UNL     1       5.216   1.376  -7.526  0.00  0.00    +0.000 NA
ATOM     14  N   UNL     1       6.384   1.478  -6.816  0.00  0.00    +0.000 N 
BRANCH  14  15
ATOM     15  C   UNL     1       7.601   1.819  -7.482  0.00  0.00    +0.000 A 
ATOM     16  C   UNL     1       7.573   2.188  -8.836  0.00  0.00    +0.000 A 
ATOM     17  C   UNL     1       8.758   2.506  -9.506  0.00  0.00    +0.000 A 
ATOM     18  C   UNL     1       9.980   2.448  -8.836  0.00  0.00    +0.000 A 
ATOM     19  C   UNL     1      10.017   2.082  -7.495  0.00  0.00    +0.000 A 
ATOM     20  C   UNL     1       8.835   1.772  -6.819  0.00  0.00    +0.000 A 
ENDBRANCH  14  15
ENDBRANCH   2   5
BRANCH   1  21
ATOM     21  C   UNL     1       3.013   0.122   0.010  0.00  0.00    +0.000 C 
BRANCH  21  22
ATOM     22  C   UNL     1       2.001   1.190   0.381  0.00  0.00    +0.000 A 
ATOM     23  C   UNL     1       2.194   2.005   1.505  0.00  0.00    +0.000 A 
ATOM     24  C   UNL     1       1.308   3.052   1.769  0.00  0.00    +0.000 A 
ATOM     25  C   UNL     1       0.234   3.282   0.914  0.00  0.00    +0.000 A 
ATOM     26  F   UNL     1      -0.589   4.311   1.153  0.00  0.00    +0.000 F 
ATOM     27  C   UNL     1       0.011   2.474  -0.190  0.00  0.00    +0.000 A 
ATOM     28  C   UNL     1       0.892   1.433  -0.443  0.00  0.00    +0.000 A 
ATOM     29  F   UNL     1       0.708   0.685  -1.541  0.00  0.00    +0.000 F 
ENDBRANCH  21  22
BRANCH  21  30
ATOM     30  C   UNL     1       2.392  -1.292   0.057  0.00  0.00    +0.000 C 
ATOM     31  O   UNL     1       1.843  -1.763   1.048  0.00  0.00    +0.000 OA
BRANCH  30  33
ATOM     32  C   UNL     1       1.984  -3.274  -1.128  0.00  0.00    +0.000 C 
ATOM     33  O   UNL     1       2.520  -1.950  -1.134  0.00  0.00    +0.000 OA
ENDBRANCH  30  33
ENDBRANCH  21  30
ENDBRANCH   1  21
TORSDOF 6
