REMARK  Name = 
REMARK  6 active torsions:
REMARK  status: ('A' for Active; 'I' for Inactive)
REMARK    1  A    between atoms: N_5  and  C_6
REMARK    2  A    between atoms: N_12  and  C_13
REMARK    3  A    between atoms: C_13  and  C_14
REMARK    4  A    between atoms: C_16  and  O_17
REMARK    5  A    between atoms: O_17  and  C_18
REMARK    6  A    between atoms: C_18  and  C_19
REMARK                            x       y       z     vdW  Elec       q    Type
REMARK                         _______ _______ _______ _____ _____    ______ ____
ROOT
ATOM      1  C   UNL     1       1.055  -2.497  -0.064  0.00  0.00    +0.000 A 
ATOM      2  C   UNL     1       0.346  -1.992  -1.163  0.00  0.00    +0.000 A 
ATOM      3  C   UNL     1      -1.043  -2.110  -1.233  0.00  0.00    +0.000 A 
ATOM      4  C   UNL     1      -1.739  -2.695  -0.174  0.00  0.00    +0.000 A 
ATOM      5  C   UNL     1      -1.048  -3.197   0.925  0.00  0.00    +0.000 A 
ATOM      6  C   UNL     1       0.341  -3.098   0.984  0.00  0.00    +0.000 A 
ENDROOT
BRANCH   1   7
ATOM      7  C   UNL     1       2.556  -2.342   0.004  0.00  0.00    +0.000 C 
BRANCH   7  13
ATOM      8  O   UNL     1       1.952  -5.219  -0.760  0.00  0.00    +0.000 OA
ATOM      9  C   UNL     1       3.005  -4.799  -0.309  0.00  0.00    +0.000 A 
ATOM     10  C   UNL     1       4.237  -5.624  -0.327  0.00  0.00    +0.000 A 
ATOM     11  C   UNL     1       5.208  -4.787   0.041  0.00  0.00    +0.000 A 
ATOM     12  N   UNL     1       4.750  -3.545   0.407  0.00  0.00    +0.000 N 
ATOM     13  N   UNL     1       3.332  -3.553   0.235  0.00  0.00    +0.000 N 
BRANCH  12  14
ATOM     14  C   UNL     1       5.504  -2.342   0.379  0.00  0.00    +0.000 A 
ATOM     15  C   UNL     1       6.619  -2.190  -0.458  0.00  0.00    +0.000 A 
ATOM     16  C   UNL     1       7.331  -1.000  -0.432  0.00  0.00    +0.000 A 
ATOM     17  N   UNL     1       7.015   0.046   0.357  0.00  0.00    +0.000 NA
ATOM     18  C   UNL     1       5.963  -0.120   1.180  0.00  0.00    +0.000 A 
ATOM     19  C   UNL     1       5.210  -1.282   1.243  0.00  0.00    +0.000 A 
ENDBRANCH  12  14
ENDBRANCH   7  13
ENDBRANCH   1   7
BRANCH   3  20
ATOM     20  O   UNL     1      -1.612  -1.618  -2.374  0.00  0.00    +0.000 OA
BRANCH  20  21
ATOM     21  C   UNL     1      -2.904  -2.146  -2.685  0.00  0.00    +0.000 C 
BRANCH  21  22
ATOM     22  C   UNL     1      -3.167  -1.939  -4.150  0.00  0.00    +0.000 A 
ATOM     23  C   UNL     1      -2.277  -2.442  -5.111  0.00  0.00    +0.000 A 
ATOM     24  C   UNL     1      -2.549  -2.284  -6.468  0.00  0.00    +0.000 A 
ATOM     25  C   UNL     1      -3.709  -1.625  -6.864  0.00  0.00    +0.000 A 
ATOM     26  F   UNL     1      -3.971  -1.479  -8.169  0.00  0.00    +0.000 F 
ATOM     27  C   UNL     1      -4.605  -1.124  -5.928  0.00  0.00    +0.000 A 
ATOM     28  C   UNL     1      -4.328  -1.289  -4.579  0.00  0.00    +0.000 A 
ATOM     29  F   UNL     1      -5.205  -0.821  -3.678  0.00  0.00    +0.000 F 
ENDBRANCH  21  22
ENDBRANCH  20  21
ENDBRANCH   3  20
TORSDOF 6
