REMARK  Name = 
REMARK  7 active torsions:
REMARK  status: ('A' for Active; 'I' for Inactive)
REMARK    1  A    between atoms: C_2  and  C_3
REMARK    2  A    between atoms: C_8  and  C_9
REMARK    3  A    between atoms: C_12  and  C_13
REMARK    4  A    between atoms: N_15  and  C_16
REMARK    5  A    between atoms: C_19  and  O_20
REMARK    6  A    between atoms: O_20  and  C_21
REMARK    7  A    between atoms: C_21  and  C_22
REMARK                            x       y       z     vdW  Elec       q    Type
REMARK                         _______ _______ _______ _____ _____    ______ ____
ROOT
ATOM      1  C   UNL     1      -2.459   6.362  -0.046  0.00  0.00    +0.000 C 
ATOM      2  O   UNL     1      -2.141   7.060  -1.004  0.00  0.00    +0.000 OA
ATOM      3  N   UNL     1      -3.347   6.713   0.971  0.00  0.00    +0.000 N 
ATOM      4  H   UNL     1      -3.393   6.138   1.804  0.00  0.00    +0.000 HD
ENDROOT
BRANCH   3   5
ATOM      5  C   UNL     1      -4.059   7.931   1.016  0.00  0.00    +0.000 A 
ATOM      6  C   UNL     1      -4.230   8.723  -0.118  0.00  0.00    +0.000 A 
ATOM      7  C   UNL     1      -4.907   9.940  -0.061  0.00  0.00    +0.000 A 
ATOM      8  C   UNL     1      -5.427  10.389   1.146  0.00  0.00    +0.000 A 
ATOM      9  C   UNL     1      -5.272   9.598   2.289  0.00  0.00    +0.000 A 
ATOM     10  C   UNL     1      -4.610   8.364   2.225  0.00  0.00    +0.000 A 
BRANCH   8  11
ATOM     11  O   UNL     1      -6.058  11.586   1.334  0.00  0.00    +0.000 OA
BRANCH  11  12
ATOM     12  C   UNL     1      -6.772  12.102   0.200  0.00  0.00    +0.000 C 
BRANCH  12  13
ATOM     13  C   UNL     1      -7.433  13.408   0.512  0.00  0.00    +0.000 A 
ATOM     14  N   UNL     1      -6.837  14.597   0.323  0.00  0.00    +0.000 NA
ATOM     15  N   UNL     1      -7.790  15.447   0.734  0.00  0.00    +0.000 N 
ATOM     16  C   UNL     1      -8.911  14.783   1.116  0.00  0.00    +0.000 A 
ATOM     17  N   UNL     1      -8.726  13.492   0.977  0.00  0.00    +0.000 NA
ATOM     18  H   UNL     1      -7.607  16.444   0.724  0.00  0.00    +0.000 HD
ENDBRANCH  12  13
ENDBRANCH  11  12
ENDBRANCH   8  11
ENDBRANCH   3   5
BRANCH   1  22
ATOM     19  C   UNL     1      -0.541   2.522   0.405  0.00  0.00    +0.000 A 
ATOM     20  C   UNL     1       0.097   3.585  -0.254  0.00  0.00    +0.000 A 
ATOM     21  C   UNL     1      -0.518   4.825  -0.433  0.00  0.00    +0.000 A 
ATOM     22  C   UNL     1      -1.798   5.041   0.087  0.00  0.00    +0.000 A 
ATOM     23  C   UNL     1      -2.457   3.998   0.730  0.00  0.00    +0.000 A 
ATOM     24  C   UNL     1      -1.833   2.764   0.904  0.00  0.00    +0.000 A 
BRANCH  19  30
ATOM     25  C   UNL     1       0.987   0.630  -0.383  0.00  0.00    +0.000 A 
ATOM     26  C   UNL     1       1.541  -0.642  -0.171  0.00  0.00    +0.000 A 
ATOM     27  C   UNL     1       1.214  -1.376   0.964  0.00  0.00    +0.000 A 
ATOM     28  C   UNL     1       0.349  -0.844   1.910  0.00  0.00    +0.000 A 
ATOM     29  C   UNL     1      -0.189   0.427   1.721  0.00  0.00    +0.000 A 
ATOM     30  C   UNL     1       0.104   1.196   0.573  0.00  0.00    +0.000 A 
BRANCH  25  32
ATOM     31  N   UNL     1       1.620   1.849  -2.595  0.00  0.00    +0.000 NA
ATOM     32  C   UNL     1       1.329   1.278  -1.613  0.00  0.00    +0.000 C 
ENDBRANCH  25  32
ENDBRANCH  19  30
ENDBRANCH   1  22
TORSDOF 7
