REMARK  Name = 
REMARK  5 active torsions:
REMARK  status: ('A' for Active; 'I' for Inactive)
REMARK    1  A    between atoms: C_1  and  C_2
REMARK    2  A    between atoms: C_2  and  N_3
REMARK    3  A    between atoms: C_2  and  C_17
REMARK    4  A    between atoms: C_4  and  C_6
REMARK    5  A    between atoms: C_20  and  C_21
REMARK                            x       y       z     vdW  Elec       q    Type
REMARK                         _______ _______ _______ _____ _____    ______ ____
ROOT
ATOM      1  C   UNL     1       0.852  -0.076  -0.000  0.00  0.00    +0.000 C 
ATOM      2  C   UNL     1       2.379  -0.006  -0.063  0.00  0.00    +0.000 C 
ENDROOT
BRANCH   2   3
ATOM      3  C   UNL     1       2.901   1.326   0.434  0.00  0.00    +0.000 A 
ATOM      4  C   UNL     1       3.781   1.372   1.523  0.00  0.00    +0.000 A 
ATOM      5  C   UNL     1       4.276   2.594   1.998  0.00  0.00    +0.000 A 
ATOM      6  C   UNL     1       3.902   3.817   1.414  0.00  0.00    +0.000 A 
ATOM      7  C   UNL     1       3.022   3.747   0.320  0.00  0.00    +0.000 A 
ATOM      8  F   UNL     1       2.595   4.865  -0.290  0.00  0.00    +0.000 F 
ATOM      9  C   UNL     1       2.533   2.534  -0.168  0.00  0.00    +0.000 A 
BRANCH   6  10
ATOM     10  C   UNL     1       4.382   5.110   1.957  0.00  0.00    +0.000 A 
ATOM     11  C   UNL     1       4.652   6.209   1.122  0.00  0.00    +0.000 A 
ATOM     12  C   UNL     1       5.021   7.452   1.645  0.00  0.00    +0.000 A 
ATOM     13  C   UNL     1       5.154   7.618   3.020  0.00  0.00    +0.000 A 
ATOM     14  C   UNL     1       4.933   6.538   3.868  0.00  0.00    +0.000 A 
ATOM     15  C   UNL     1       4.551   5.301   3.341  0.00  0.00    +0.000 A 
ENDBRANCH   6  10
ENDBRANCH   2   3
BRANCH   2  16
ATOM     16  N   UNL     1       2.868  -0.272  -1.403  0.00  0.00    +0.000 N 
ATOM     17  C   UNL     1       3.127  -1.544  -1.847  0.00  0.00    +0.000 C 
ATOM     18  O   UNL     1       3.027  -2.545  -1.145  0.00  0.00    +0.000 OA
ATOM     19  H   UNL     1       2.951   0.477  -2.084  0.00  0.00    +0.000 HD
BRANCH  17  20
ATOM     20  C   UNL     1       3.538  -1.602  -3.300  0.00  0.00    +0.000 A 
ATOM     21  C   UNL     1       3.833  -2.818  -3.767  0.00  0.00    +0.000 A 
ATOM     22  C   UNL     1       4.183  -2.958  -5.184  0.00  0.00    +0.000 A 
ATOM     23  O   UNL     1       4.454  -4.076  -5.619  0.00  0.00    +0.000 OA
ATOM     24  N   UNL     1       4.165  -1.787  -5.925  0.00  0.00    +0.000 N 
ATOM     25  C   UNL     1       4.449  -1.847  -7.285  0.00  0.00    +0.000 A 
ATOM     26  C   UNL     1       4.449  -0.753  -8.058  0.00  0.00    +0.000 A 
ATOM     27  C   UNL     1       4.156   0.531  -7.476  0.00  0.00    +0.000 A 
ATOM     28  C   UNL     1       3.879   0.639  -6.171  0.00  0.00    +0.000 A 
ATOM     29  C   UNL     1       3.860  -0.578  -5.307  0.00  0.00    +0.000 A 
ATOM     30  N   UNL     1       3.558  -0.448  -4.049  0.00  0.00    +0.000 NA
ENDBRANCH  17  20
ENDBRANCH   2  16
TORSDOF 4
