REMARK  Name = 
REMARK  7 active torsions:
REMARK  status: ('A' for Active; 'I' for Inactive)
REMARK    1  A    between atoms: C_1  and  C_2
REMARK    2  A    between atoms: C_2  and  N_3
REMARK    3  A    between atoms: C_2  and  C_20
REMARK    4  A    between atoms: C_4  and  C_6
REMARK    5  A    between atoms: N_8  and  C_9
REMARK    6  A    between atoms: C_15  and  C_16
REMARK    7  A    between atoms: C_23  and  C_24
REMARK                            x       y       z     vdW  Elec       q    Type
REMARK                         _______ _______ _______ _____ _____    ______ ____
ROOT
ATOM      1  N   UNL     1       3.041  -1.397  -0.117  0.00  0.00    +0.000 N 
ATOM      2  C   UNL     1       3.256  -2.206   0.982  0.00  0.00    +0.000 C 
ATOM      3  O   UNL     1       3.067  -1.839   2.138  0.00  0.00    +0.000 OA
ATOM      4  H   UNL     1       3.156  -1.829  -1.028  0.00  0.00    +0.000 HD
ENDROOT
BRANCH   2   5
ATOM      5  C   UNL     1       3.701  -3.574   0.668  0.00  0.00    +0.000 A 
ATOM      6  N   UNL     1       3.925  -4.001  -0.585  0.00  0.00    +0.000 NA
ATOM      7  N   UNL     1       4.183  -5.341  -0.464  0.00  0.00    +0.000 N 
ATOM      8  C   UNL     1       4.295  -5.727   0.867  0.00  0.00    +0.000 A 
ATOM      9  C   UNL     1       3.956  -4.604   1.601  0.00  0.00    +0.000 A 
BRANCH   7  10
ATOM     10  C   UNL     1       4.180  -6.136  -1.645  0.00  0.00    +0.000 A 
ATOM     11  C   UNL     1       4.567  -5.553  -2.862  0.00  0.00    +0.000 A 
ATOM     12  C   UNL     1       4.530  -6.301  -4.041  0.00  0.00    +0.000 A 
ATOM     13  C   UNL     1       4.078  -7.619  -4.019  0.00  0.00    +0.000 A 
ATOM     14  C   UNL     1       3.676  -8.197  -2.816  0.00  0.00    +0.000 A 
ATOM     15  C   UNL     1       3.730  -7.462  -1.630  0.00  0.00    +0.000 A 
ENDBRANCH   7  10
BRANCH   8  16
ATOM     16  C   UNL     1       4.757  -7.004   1.345  0.00  0.00    +0.000 C 
ATOM     17  N   UNL     1       4.315  -7.366   2.584  0.00  0.00    +0.000 N 
ATOM     18  O   UNL     1       5.498  -7.768   0.732  0.00  0.00    +0.000 OA
ATOM     19  H   UNL     1       3.641  -6.834   3.112  0.00  0.00    +0.000 HD
ATOM     20  H   UNL     1       4.592  -8.279   2.925  0.00  0.00    +0.000 HD
ENDBRANCH   8  16
ENDBRANCH   2   5
BRANCH   1  22
ATOM     21  C   UNL     1       0.970  -0.056   0.011  0.00  0.00    +0.000 C 
ATOM     22  C   UNL     1       2.502  -0.058   0.019  0.00  0.00    +0.000 C 
BRANCH  22  23
ATOM     23  C   UNL     1       3.061   0.900  -1.018  0.00  0.00    +0.000 A 
ATOM     24  C   UNL     1       3.862   1.968  -0.594  0.00  0.00    +0.000 A 
ATOM     25  C   UNL     1       4.286   2.954  -1.492  0.00  0.00    +0.000 A 
ATOM     26  C   UNL     1       3.944   2.909  -2.854  0.00  0.00    +0.000 A 
ATOM     27  C   UNL     1       3.192   1.799  -3.280  0.00  0.00    +0.000 A 
ATOM     28  C   UNL     1       2.754   0.812  -2.380  0.00  0.00    +0.000 A 
BRANCH  26  29
ATOM     29  C   UNL     1       4.321   4.011  -3.772  0.00  0.00    +0.000 A 
ATOM     30  C   UNL     1       5.490   4.769  -3.602  0.00  0.00    +0.000 A 
ATOM     31  C   UNL     1       5.777   5.845  -4.443  0.00  0.00    +0.000 A 
ATOM     32  C   UNL     1       4.890   6.138  -5.461  0.00  0.00    +0.000 A 
ATOM     33  N   UNL     1       3.762   5.437  -5.686  0.00  0.00    +0.000 NA
ATOM     34  C   UNL     1       3.507   4.405  -4.839  0.00  0.00    +0.000 A 
ENDBRANCH  26  29
ENDBRANCH  22  23
ENDBRANCH   1  22
TORSDOF 6
