REMARK  Name = 
REMARK  7 active torsions:
REMARK  status: ('A' for Active; 'I' for Inactive)
REMARK    1  A    between atoms: C_1  and  N_2
REMARK    2  A    between atoms: N_2  and  C_3
REMARK    3  A    between atoms: C_3  and  C_4
REMARK    4  A    between atoms: C_9  and  O_10
REMARK    5  A    between atoms: O_10  and  C_11
REMARK    6  A    between atoms: C_11  and  C_12
REMARK    7  A    between atoms: C_18  and  C_20
REMARK                            x       y       z     vdW  Elec       q    Type
REMARK                         _______ _______ _______ _____ _____    ______ ____
ROOT
ATOM      1  C   UNL     1       2.533   0.208  -1.437  0.00  0.00    +0.000 C 
ATOM      2  N   UNL     1       2.301  -0.108  -0.037  0.00  0.00    +0.000 N 
ATOM      3  C   UNL     1       1.561  -1.214   0.400  0.00  0.00    +0.000 C 
ATOM      4  O   UNL     1       1.567  -1.590   1.575  0.00  0.00    +0.000 OA
ENDROOT
BRANCH   3   5
ATOM      5  C   UNL     1       0.723  -1.983  -0.629  0.00  0.00    +0.000 A 
ATOM      6  C   UNL     1       0.363  -3.236  -0.329  0.00  0.00    +0.000 A 
ATOM      7  C   UNL     1      -0.416  -4.005  -1.324  0.00  0.00    +0.000 A 
ATOM      8  O   UNL     1      -0.730  -5.166  -1.063  0.00  0.00    +0.000 OA
ATOM      9  N   UNL     1      -0.721  -3.341  -2.505  0.00  0.00    +0.000 N 
ATOM     10  C   UNL     1      -1.444  -3.986  -3.505  0.00  0.00    +0.000 A 
ATOM     11  C   UNL     1      -1.760  -3.372  -4.654  0.00  0.00    +0.000 A 
ATOM     12  C   UNL     1      -1.343  -2.013  -4.884  0.00  0.00    +0.000 A 
ATOM     13  C   UNL     1      -0.645  -1.357  -3.952  0.00  0.00    +0.000 A 
ATOM     14  C   UNL     1      -0.305  -2.033  -2.672  0.00  0.00    +0.000 A 
ATOM     15  N   UNL     1       0.365  -1.361  -1.796  0.00  0.00    +0.000 NA
ENDBRANCH   3   5
BRANCH   2  16
ATOM     16  C   UNL     1       2.982   0.751   0.930  0.00  0.00    +0.000 C 
BRANCH  16  17
ATOM     17  C   UNL     1       2.133   1.844   1.547  0.00  0.00    +0.000 A 
ATOM     18  C   UNL     1       1.429   1.517   2.724  0.00  0.00    +0.000 A 
ATOM     19  C   UNL     1       0.726   2.478   3.448  0.00  0.00    +0.000 A 
ATOM     20  C   UNL     1       0.733   3.797   3.026  0.00  0.00    +0.000 A 
ATOM     21  C   UNL     1       1.404   4.140   1.855  0.00  0.00    +0.000 A 
ATOM     22  C   UNL     1       2.062   3.170   1.074  0.00  0.00    +0.000 A 
BRANCH  22  23
ATOM     23  O   UNL     1       2.649   3.482  -0.137  0.00  0.00    +0.000 OA
BRANCH  23  24
ATOM     24  C   UNL     1       2.125   4.680  -0.749  0.00  0.00    +0.000 C 
BRANCH  24  25
ATOM     25  C   UNL     1       2.379   4.794  -2.236  0.00  0.00    +0.000 A 
ATOM     26  C   UNL     1       3.165   3.878  -2.937  0.00  0.00    +0.000 A 
ATOM     27  C   UNL     1       3.316   3.989  -4.321  0.00  0.00    +0.000 A 
ATOM     28  C   UNL     1       2.696   5.027  -5.015  0.00  0.00    +0.000 A 
ATOM     29  C   UNL     1       1.937   5.968  -4.326  0.00  0.00    +0.000 A 
ATOM     30  C   UNL     1       1.783   5.855  -2.944  0.00  0.00    +0.000 A 
ENDBRANCH  24  25
ENDBRANCH  23  24
ENDBRANCH  22  23
ENDBRANCH  16  17
ENDBRANCH   2  16
TORSDOF 6
