REMARK  Name = 
REMARK  7 active torsions:
REMARK  status: ('A' for Active; 'I' for Inactive)
REMARK    1  A    between atoms: N_3  and  C_4
REMARK    2  A    between atoms: C_4  and  C_5
REMARK    3  A    between atoms: C_5  and  N_6
REMARK    4  A    between atoms: N_16  and  C_17
REMARK    5  A    between atoms: C_19  and  C_20
REMARK    6  A    between atoms: N_22  and  C_23
REMARK    7  A    between atoms: C_23  and  C_24
REMARK                            x       y       z     vdW  Elec       q    Type
REMARK                         _______ _______ _______ _____ _____    ______ ____
ROOT
ATOM      1  O   UNL     1       2.762  -0.205  -1.207  0.00  0.00    +0.000 OA
ATOM      2  C   UNL     1       2.329  -0.062  -0.070  0.00  0.00    +0.000 C 
ATOM      3  N   UNL     1       0.980  -0.055   0.193  0.00  0.00    +0.000 N 
ATOM      4  N   UNL     1       3.082   0.092   1.078  0.00  0.00    +0.000 N 
ATOM      5  H   UNL     1       0.653   0.236   1.101  0.00  0.00    +0.000 HD
ATOM      6  H   UNL     1       2.592  -0.016   1.951  0.00  0.00    +0.000 HD
ENDROOT
BRANCH   4   7
ATOM      7  C   UNL     1       4.487   0.239   1.143  0.00  0.00    +0.000 A 
ATOM      8  C   UNL     1       5.296   0.385   0.012  0.00  0.00    +0.000 A 
ATOM      9  C   UNL     1       6.688   0.492   0.129  0.00  0.00    +0.000 A 
ATOM     10  C   UNL     1       7.272   0.519   1.399  0.00  0.00    +0.000 A 
ATOM     11  C   UNL     1       6.474   0.404   2.537  0.00  0.00    +0.000 A 
ATOM     12  C   UNL     1       5.087   0.258   2.409  0.00  0.00    +0.000 A 
BRANCH   9  13
ATOM     13  C   UNL     1       7.575   0.597  -1.066  0.00  0.00    +0.000 C 
ATOM     14  O   UNL     1       8.672   1.135  -0.963  0.00  0.00    +0.000 OA
ATOM     15  N   UNL     1       7.114   0.026  -2.233  0.00  0.00    +0.000 N 
ATOM     16  H   UNL     1       6.236  -0.474  -2.250  0.00  0.00    +0.000 HD
BRANCH  15  17
ATOM     17  C   UNL     1       7.898   0.013  -3.452  0.00  0.00    +0.000 C 
BRANCH  17  18
ATOM     18  C   UNL     1       8.262  -1.389  -3.860  0.00  0.00    +0.000 A 
ATOM     19  C   UNL     1       9.047  -2.203  -3.030  0.00  0.00    +0.000 A 
ATOM     20  C   UNL     1       9.393  -3.500  -3.423  0.00  0.00    +0.000 A 
ATOM     21  C   UNL     1       8.960  -3.997  -4.653  0.00  0.00    +0.000 A 
ATOM     22  C   UNL     1       8.192  -3.195  -5.490  0.00  0.00    +0.000 A 
ATOM     23  C   UNL     1       7.853  -1.904  -5.095  0.00  0.00    +0.000 A 
ATOM     24  F   UNL     1       7.122  -1.148  -5.927  0.00  0.00    +0.000 F 
ENDBRANCH  17  18
ENDBRANCH  15  17
ENDBRANCH   9  13
ENDBRANCH   4   7
BRANCH   3  25
ATOM     25  C   UNL     1      -0.007  -0.139  -0.879  0.00  0.00    +0.000 C 
BRANCH  25  26
ATOM     26  C   UNL     1      -0.745  -1.482  -0.925  0.00  0.00    +0.000 C 
BRANCH  26  27
ATOM     27  N   UNL     1      -1.527  -1.734   0.269  0.00  0.00    +0.000 N 
ATOM     28  C   UNL     1      -2.821  -1.241   0.468  0.00  0.00    +0.000 C 
ATOM     29  O   UNL     1      -3.481  -0.580  -0.318  0.00  0.00    +0.000 OA
ATOM     30  C   UNL     1      -3.259  -1.662   1.873  0.00  0.00    +0.000 C 
ATOM     31  C   UNL     1      -2.042  -2.365   2.394  0.00  0.00    +0.000 A 
ATOM     32  C   UNL     1      -1.822  -2.931   3.637  0.00  0.00    +0.000 A 
ATOM     33  C   UNL     1      -0.582  -3.531   3.874  0.00  0.00    +0.000 A 
ATOM     34  C   UNL     1       0.407  -3.560   2.876  0.00  0.00    +0.000 A 
ATOM     35  C   UNL     1       0.173  -2.985   1.625  0.00  0.00    +0.000 A 
ATOM     36  C   UNL     1      -1.056  -2.390   1.408  0.00  0.00    +0.000 A 
ENDBRANCH  26  27
ENDBRANCH  25  26
ENDBRANCH   3  25
TORSDOF 7
