REMARK  Name = 
REMARK  5 active torsions:
REMARK  status: ('A' for Active; 'I' for Inactive)
REMARK    1  A    between atoms: C_2  and  C_3
REMARK    2  A    between atoms: C_4  and  N_5
REMARK    3  A    between atoms: N_8  and  C_9
REMARK    4  A    between atoms: C_13  and  C_14
REMARK    5  A    between atoms: N_22  and  C_23
REMARK                            x       y       z     vdW  Elec       q    Type
REMARK                         _______ _______ _______ _____ _____    ______ ____
ROOT
ATOM      1  N   UNL     1       3.684   2.382   0.249  0.00  0.00    +0.000 N 
ATOM      2  C   UNL     1       2.388   2.645  -0.201  0.00  0.00    +0.000 C 
ATOM      3  O   UNL     1       1.590   1.789  -0.563  0.00  0.00    +0.000 OA
ATOM      4  N   UNL     1       2.111   4.013  -0.240  0.00  0.00    +0.000 N 
ATOM      5  H   UNL     1       4.083   3.135   0.796  0.00  0.00    +0.000 HD
ATOM      6  H   UNL     1       2.909   4.617  -0.385  0.00  0.00    +0.000 HD
ENDROOT
BRANCH   1   8
ATOM      7  C   UNL     1       5.571   0.951   0.838  0.00  0.00    +0.000 A 
ATOM      8  C   UNL     1       4.384   1.160   0.204  0.00  0.00    +0.000 A 
ATOM      9  C   UNL     1       3.875   0.080  -0.616  0.00  0.00    +0.000 A 
ATOM     10  C   UNL     1       4.544  -1.072  -0.738  0.00  0.00    +0.000 A 
ATOM     11  N   UNL     1       5.760  -1.288  -0.114  0.00  0.00    +0.000 N 
ATOM     12  C   UNL     1       6.342  -0.304   0.697  0.00  0.00    +0.000 A 
ATOM     13  O   UNL     1       7.400  -0.425   1.313  0.00  0.00    +0.000 OA
BRANCH  11  14
ATOM     14  C   UNL     1       6.432  -2.536  -0.245  0.00  0.00    +0.000 A 
ATOM     15  C   UNL     1       5.732  -3.730  -0.043  0.00  0.00    +0.000 A 
ATOM     16  C   UNL     1       6.410  -4.947  -0.047  0.00  0.00    +0.000 A 
ATOM     17  C   UNL     1       7.778  -4.983  -0.300  0.00  0.00    +0.000 A 
ATOM     18  C   UNL     1       8.474  -3.803  -0.558  0.00  0.00    +0.000 A 
ATOM     19  C   UNL     1       7.805  -2.582  -0.522  0.00  0.00    +0.000 A 
ENDBRANCH  11  14
BRANCH   7  21
ATOM     20  N   UNL     1       6.748   3.046   2.237  0.00  0.00    +0.000 NA
ATOM     21  C   UNL     1       6.214   2.096   1.603  0.00  0.00    +0.000 C 
ENDBRANCH   7  21
ENDBRANCH   1   8
BRANCH   4  22
ATOM     22  C   UNL     1       0.864   4.525  -0.707  0.00  0.00    +0.000 A 
ATOM     23  C   UNL     1       0.875   5.668  -1.509  0.00  0.00    +0.000 A 
ATOM     24  C   UNL     1      -0.314   6.145  -2.068  0.00  0.00    +0.000 A 
ATOM     25  C   UNL     1      -1.526   5.519  -1.775  0.00  0.00    +0.000 A 
ATOM     26  C   UNL     1      -1.580   4.413  -0.915  0.00  0.00    +0.000 A 
ATOM     27  C   UNL     1      -0.367   3.917  -0.398  0.00  0.00    +0.000 A 
BRANCH  26  28
ATOM     28  C   UNL     1      -2.897   3.838  -0.591  0.00  0.00    +0.000 A 
ATOM     29  N   UNL     1      -4.066   4.306  -0.998  0.00  0.00    +0.000 NA
ATOM     30  C   UNL     1      -5.026   3.500  -0.447  0.00  0.00    +0.000 A 
ATOM     31  C   UNL     1      -4.449   2.515   0.314  0.00  0.00    +0.000 A 
ATOM     32  N   UNL     1      -3.104   2.733   0.205  0.00  0.00    +0.000 N 
ATOM     33  H   UNL     1      -2.380   2.187   0.644  0.00  0.00    +0.000 HD
ENDBRANCH  26  28
ENDBRANCH   4  22
TORSDOF 5
