REMARK  Name = 
REMARK  5 active torsions:
REMARK  status: ('A' for Active; 'I' for Inactive)
REMARK    1  A    between atoms: C_2  and  C_19
REMARK    2  A    between atoms: N_3  and  C_4
REMARK    3  A    between atoms: C_4  and  C_5
REMARK    4  A    between atoms: C_8  and  O_9
REMARK    5  A    between atoms: O_9  and  C_10
REMARK                            x       y       z     vdW  Elec       q    Type
REMARK                         _______ _______ _______ _____ _____    ______ ____
ROOT
ATOM      1  O   UNL     1       3.015   0.834   2.223  0.00  0.00    +0.000 OA
ATOM      2  C   UNL     1       3.359   0.314   1.161  0.00  0.00    +0.000 C 
ATOM      3  N   UNL     1       3.044  -0.990   0.858  0.00  0.00    +0.000 N 
ATOM      4  H   UNL     1       3.409  -1.434   0.029  0.00  0.00    +0.000 HD
ENDROOT
BRANCH   2   5
ATOM      5  C   UNL     1       4.011   1.148   0.115  0.00  0.00    +0.000 A 
ATOM      6  C   UNL     1       3.670   1.025  -1.238  0.00  0.00    +0.000 A 
ATOM      7  C   UNL     1       3.903   2.095  -2.121  0.00  0.00    +0.000 A 
ATOM      8  C   UNL     1       4.346   3.327  -1.630  0.00  0.00    +0.000 A 
ATOM      9  C   UNL     1       4.648   3.432  -0.276  0.00  0.00    +0.000 A 
ATOM     10  C   UNL     1       4.642   2.313   0.536  0.00  0.00    +0.000 A 
ATOM     11  C   UNL     1       5.091   2.493   1.907  0.00  0.00    +0.000 A 
ATOM     12  O   UNL     1       5.755   1.623   2.473  0.00  0.00    +0.000 OA
ATOM     13  N   UNL     1       4.705   3.684   2.451  0.00  0.00    +0.000 N 
ATOM     14  N   UNL     1       4.511   4.828   1.716  0.00  0.00    +0.000 NA
ATOM     15  C   UNL     1       4.606   4.725   0.423  0.00  0.00    +0.000 A 
ATOM     16  H   UNL     1       4.273   3.634   3.370  0.00  0.00    +0.000 HD
ENDBRANCH   2   5
BRANCH   3  17
ATOM     17  C   UNL     1       2.296  -1.788   1.800  0.00  0.00    +0.000 C 
BRANCH  17  18
ATOM     18  C   UNL     1       3.183  -2.695   2.604  0.00  0.00    +0.000 A 
ATOM     19  C   UNL     1       3.868  -2.227   3.738  0.00  0.00    +0.000 A 
ATOM     20  C   UNL     1       4.668  -3.096   4.482  0.00  0.00    +0.000 A 
ATOM     21  C   UNL     1       4.818  -4.426   4.086  0.00  0.00    +0.000 A 
ATOM     22  C   UNL     1       4.123  -4.908   2.975  0.00  0.00    +0.000 A 
ATOM     23  C   UNL     1       3.329  -4.016   2.229  0.00  0.00    +0.000 A 
ATOM     24  F   UNL     1       2.708  -4.475   1.142  0.00  0.00    +0.000 F 
BRANCH  21  25
ATOM     25  O   UNL     1       5.624  -5.206   4.887  0.00  0.00    +0.000 OA
BRANCH  25  26
ATOM     26  C   UNL     1       6.370  -6.217   4.334  0.00  0.00    +0.000 A 
ATOM     27  C   UNL     1       6.947  -6.171   3.057  0.00  0.00    +0.000 A 
ATOM     28  C   UNL     1       7.682  -7.264   2.584  0.00  0.00    +0.000 A 
ATOM     29  C   UNL     1       7.904  -8.359   3.408  0.00  0.00    +0.000 A 
ATOM     30  C   UNL     1       7.387  -8.389   4.698  0.00  0.00    +0.000 A 
ATOM     31  C   UNL     1       6.617  -7.313   5.160  0.00  0.00    +0.000 A 
ENDBRANCH  25  26
ENDBRANCH  21  25
ENDBRANCH  17  18
ENDBRANCH   3  17
TORSDOF 5
