REMARK  Name = 
REMARK  6 active torsions:
REMARK  status: ('A' for Active; 'I' for Inactive)
REMARK    1  A    between atoms: C_2  and  C_19
REMARK    2  A    between atoms: N_3  and  C_4
REMARK    3  A    between atoms: C_4  and  C_5
REMARK    4  A    between atoms: C_7  and  O_8
REMARK    5  A    between atoms: O_8  and  C_9
REMARK    6  A    between atoms: N_21  and  C_22
REMARK                            x       y       z     vdW  Elec       q    Type
REMARK                         _______ _______ _______ _____ _____    ______ ____
ROOT
ATOM      1  O   UNL     1       3.146  -0.908  -2.149  0.00  0.00    +0.000 OA
ATOM      2  C   UNL     1       3.359  -0.377  -1.063  0.00  0.00    +0.000 C 
ATOM      3  N   UNL     1       2.938   0.893  -0.756  0.00  0.00    +0.000 N 
ATOM      4  H   UNL     1       3.275   1.324   0.098  0.00  0.00    +0.000 HD
ENDROOT
BRANCH   2   5
ATOM      5  C   UNL     1       4.092  -1.046  -0.004  0.00  0.00    +0.000 A 
ATOM      6  C   UNL     1       4.735  -2.258  -0.103  0.00  0.00    +0.000 A 
ATOM      7  N   UNL     1       5.293  -2.478   1.130  0.00  0.00    +0.000 N 
ATOM      8  N   UNL     1       4.894  -1.490   1.976  0.00  0.00    +0.000 NA
ATOM      9  N   UNL     1       4.223  -0.581   1.278  0.00  0.00    +0.000 NA
BRANCH   7  10
ATOM     10  C   UNL     1       6.094  -3.558   1.572  0.00  0.00    +0.000 A 
ATOM     11  C   UNL     1       6.020  -3.915   2.933  0.00  0.00    +0.000 A 
ATOM     12  C   UNL     1       6.744  -5.004   3.423  0.00  0.00    +0.000 A 
ATOM     13  C   UNL     1       7.567  -5.733   2.572  0.00  0.00    +0.000 A 
ATOM     14  C   UNL     1       7.673  -5.369   1.231  0.00  0.00    +0.000 A 
ATOM     15  C   UNL     1       6.944  -4.286   0.722  0.00  0.00    +0.000 A 
ATOM     16 CL   UNL     1       7.300  -3.863  -0.918  0.00  0.00    +0.000 Cl
ENDBRANCH   7  10
ENDBRANCH   2   5
BRANCH   3  17
ATOM     17  C   UNL     1       2.262   1.714  -1.731  0.00  0.00    +0.000 C 
BRANCH  17  18
ATOM     18  C   UNL     1       3.220   2.528  -2.570  0.00  0.00    +0.000 A 
ATOM     19  C   UNL     1       3.770   1.987  -3.728  0.00  0.00    +0.000 A 
ATOM     20  C   UNL     1       4.558   2.800  -4.538  0.00  0.00    +0.000 A 
ATOM     21  C   UNL     1       4.870   4.086  -4.113  0.00  0.00    +0.000 A 
ATOM     22  C   UNL     1       4.328   4.527  -2.920  0.00  0.00    +0.000 A 
ATOM     23  N   UNL     1       3.502   3.786  -2.149  0.00  0.00    +0.000 NA
BRANCH  20  24
ATOM     24  O   UNL     1       5.116   2.409  -5.735  0.00  0.00    +0.000 OA
BRANCH  24  25
ATOM     25  C   UNL     1       4.456   1.512  -6.547  0.00  0.00    +0.000 A 
ATOM     26  C   UNL     1       3.067   1.419  -6.662  0.00  0.00    +0.000 A 
ATOM     27  C   UNL     1       2.514   0.449  -7.489  0.00  0.00    +0.000 A 
ATOM     28  F   UNL     1       1.182   0.320  -7.550  0.00  0.00    +0.000 F 
ATOM     29  C   UNL     1       3.317  -0.391  -8.252  0.00  0.00    +0.000 A 
ATOM     30  C   UNL     1       4.702  -0.254  -8.194  0.00  0.00    +0.000 A 
ATOM     31  C   UNL     1       5.270   0.698  -7.341  0.00  0.00    +0.000 A 
ENDBRANCH  24  25
ENDBRANCH  20  24
ENDBRANCH  17  18
ENDBRANCH   3  17
TORSDOF 6
