REMARK  Name = 
REMARK  5 active torsions:
REMARK  status: ('A' for Active; 'I' for Inactive)
REMARK    1  A    between atoms: C_2  and  C_18
REMARK    2  A    between atoms: N_3  and  C_4
REMARK    3  A    between atoms: C_4  and  C_5
REMARK    4  A    between atoms: C_8  and  C_9
REMARK    5  A    between atoms: C_19  and  O_20
REMARK                            x       y       z     vdW  Elec       q    Type
REMARK                         _______ _______ _______ _____ _____    ______ ____
ROOT
ATOM      1  O   UNL     1       1.416  -0.662  -0.112  0.00  0.00    +0.000 OA
ATOM      2  C   UNL     1       2.637  -0.484  -0.105  0.00  0.00    +0.000 C 
ATOM      3  N   UNL     1       3.332  -0.368   1.086  0.00  0.00    +0.000 N 
ATOM      4  H   UNL     1       4.266   0.020   1.085  0.00  0.00    +0.000 HD
ENDROOT
BRANCH   2   5
ATOM      5  C   UNL     1       3.330  -0.236  -1.413  0.00  0.00    +0.000 A 
ATOM      6  C   UNL     1       2.511   0.144  -2.509  0.00  0.00    +0.000 A 
ATOM      7  C   UNL     1       3.048   0.526  -3.722  0.00  0.00    +0.000 A 
ATOM      8  C   UNL     1       4.418   0.703  -3.819  0.00  0.00    +0.000 A 
ATOM      9  C   UNL     1       5.254   0.318  -2.768  0.00  0.00    +0.000 A 
ATOM     10  C   UNL     1       6.629   0.506  -2.915  0.00  0.00    +0.000 A 
ATOM     11  C   UNL     1       7.507  -0.347  -2.269  0.00  0.00    +0.000 A 
ATOM     12  C   UNL     1       7.027  -1.161  -1.253  0.00  0.00    +0.000 A 
ATOM     13  C   UNL     1       5.688  -1.059  -0.849  0.00  0.00    +0.000 A 
ATOM     14  C   UNL     1       4.744  -0.329  -1.620  0.00  0.00    +0.000 A 
BRANCH   6  15
ATOM     15  O   UNL     1       1.135   0.154  -2.467  0.00  0.00    +0.000 OA
ATOM     16  H   UNL     1       0.853  -0.139  -1.572  0.00  0.00    +0.000 HD
ENDBRANCH   6  15
ENDBRANCH   2   5
BRANCH   3  17
ATOM     17  C   UNL     1       2.569  -0.292   2.319  0.00  0.00    +0.000 C 
BRANCH  17  18
ATOM     18  C   UNL     1       3.427  -0.374   3.555  0.00  0.00    +0.000 A 
ATOM     19  C   UNL     1       3.965   0.783   4.137  0.00  0.00    +0.000 A 
ATOM     20  C   UNL     1       4.751   0.702   5.293  0.00  0.00    +0.000 A 
ATOM     21  C   UNL     1       5.014  -0.537   5.880  0.00  0.00    +0.000 A 
ATOM     22  C   UNL     1       4.475  -1.695   5.308  0.00  0.00    +0.000 A 
ATOM     23  C   UNL     1       3.693  -1.615   4.152  0.00  0.00    +0.000 A 
BRANCH  21  24
ATOM     24  C   UNL     1       5.877  -0.627   7.071  0.00  0.00    +0.000 A 
ATOM     25  C   UNL     1       5.327  -0.541   8.298  0.00  0.00    +0.000 A 
ATOM     26  N   UNL     1       6.111  -0.623   9.434  0.00  0.00    +0.000 N 
ATOM     27  C   UNL     1       7.467  -0.792   9.406  0.00  0.00    +0.000 A 
ATOM     28  O   UNL     1       8.148  -0.858  10.429  0.00  0.00    +0.000 OA
ATOM     29  C   UNL     1       8.087  -0.910   8.059  0.00  0.00    +0.000 A 
ATOM     30  C   UNL     1       7.311  -0.836   6.970  0.00  0.00    +0.000 A 
ATOM     31  H   UNL     1       5.683  -0.563  10.345  0.00  0.00    +0.000 HD
ENDBRANCH  21  24
ENDBRANCH  17  18
ENDBRANCH   3  17
TORSDOF 5
