REMARK  Name = 
REMARK  8 active torsions:
REMARK  status: ('A' for Active; 'I' for Inactive)
REMARK    1  A    between atoms: C_1  and  O_2
REMARK    2  A    between atoms: O_2  and  C_3
REMARK    3  A    between atoms: C_7  and  C_8
REMARK    4  A    between atoms: C_8  and  N_9
REMARK    5  A    between atoms: N_9  and  C_10
REMARK    6  A    between atoms: C_11  and  C_13
REMARK    7  A    between atoms: C_19  and  O_20
REMARK    8  A    between atoms: O_20  and  C_21
REMARK                            x       y       z     vdW  Elec       q    Type
REMARK                         _______ _______ _______ _____ _____    ______ ____
ROOT
ATOM      1  C   UNL     1       8.961   5.365   2.840  0.00  0.00    +0.000 A 
ATOM      2  C   UNL     1       9.419   6.548   2.373  0.00  0.00    +0.000 A 
ATOM      3  N   UNL     1      10.162   7.461   3.074  0.00  0.00    +0.000 N 
ATOM      4  C   UNL     1      10.362   7.302   4.447  0.00  0.00    +0.000 A 
ATOM      5  C   UNL     1      11.141   8.197   5.177  0.00  0.00    +0.000 A 
ATOM      6  C   UNL     1      11.341   7.998   6.548  0.00  0.00    +0.000 A 
ATOM      7  C   UNL     1      10.746   6.922   7.217  0.00  0.00    +0.000 A 
ATOM      8  C   UNL     1      10.061   5.963   6.475  0.00  0.00    +0.000 A 
ATOM      9  C   UNL     1       9.896   6.148   5.091  0.00  0.00    +0.000 A 
ATOM     10  C   UNL     1       9.335   5.056   4.253  0.00  0.00    +0.000 A 
ATOM     11  O   UNL     1       9.291   3.936   4.736  0.00  0.00    +0.000 OA
ATOM     12  H   UNL     1      10.286   8.384   2.668  0.00  0.00    +0.000 HD
ENDROOT
BRANCH   1  15
ATOM     13  N   UNL     1       7.311   3.558   2.157  0.00  0.00    +0.000 N 
ATOM     14  C   UNL     1       6.768   2.745   1.077  0.00  0.00    +0.000 C 
ATOM     15  C   UNL     1       8.284   4.489   1.831  0.00  0.00    +0.000 C 
ATOM     16  O   UNL     1       8.605   4.652   0.645  0.00  0.00    +0.000 OA
BRANCH  13  17
ATOM     17  C   UNL     1       6.899   3.135   3.498  0.00  0.00    +0.000 C 
BRANCH  17  22
ATOM     18  C   UNL     1       5.159   6.215   4.613  0.00  0.00    +0.000 A 
ATOM     19  C   UNL     1       4.723   5.907   5.890  0.00  0.00    +0.000 A 
ATOM     20  C   UNL     1       5.104   4.690   6.438  0.00  0.00    +0.000 A 
ATOM     21  C   UNL     1       5.873   3.817   5.676  0.00  0.00    +0.000 A 
ATOM     22  C   UNL     1       6.215   4.172   4.369  0.00  0.00    +0.000 A 
ATOM     23  N   UNL     1       5.877   5.374   3.837  0.00  0.00    +0.000 NA
BRANCH  18  25
ATOM     24  C   UNL     1       5.488   7.795   2.927  0.00  0.00    +0.000 C 
ATOM     25  O   UNL     1       4.819   7.468   4.140  0.00  0.00    +0.000 OA
ENDBRANCH  18  25
ENDBRANCH  17  22
ENDBRANCH  13  17
ENDBRANCH   1  15
BRANCH   7  26
ATOM     26  O   UNL     1      11.044   6.836   8.554  0.00  0.00    +0.000 OA
BRANCH  26  27
ATOM     27  C   UNL     1      10.168   6.357   9.500  0.00  0.00    +0.000 A 
ATOM     28  C   UNL     1       8.798   6.144   9.351  0.00  0.00    +0.000 A 
ATOM     29  C   UNL     1       8.044   5.640  10.419  0.00  0.00    +0.000 A 
ATOM     30  C   UNL     1       8.643   5.393  11.654  0.00  0.00    +0.000 A 
ATOM     31  C   UNL     1       9.998   5.658  11.828  0.00  0.00    +0.000 A 
ATOM     32  C   UNL     1      10.753   6.135  10.754  0.00  0.00    +0.000 A 
ENDBRANCH  26  27
ENDBRANCH   7  26
TORSDOF 6
