REMARK  Name = 
REMARK  2 active torsions:
REMARK  status: ('A' for Active; 'I' for Inactive)
REMARK    1  A    between atoms: C_2  and  C_17
REMARK    2  A    between atoms: N_6  and  C_7
REMARK                            x       y       z     vdW  Elec       q    Type
REMARK                         _______ _______ _______ _____ _____    ______ ____
ROOT
ATOM      1  O   UNL     1       1.026   0.105   0.177  0.00  0.00    +0.000 OA
ATOM      2  C   UNL     1       2.233  -0.050   0.040  0.00  0.00    +0.000 C 
ATOM      3  N   UNL     1       2.870  -0.833  -0.895  0.00  0.00    +0.000 N 
ATOM      4  C   UNL     1       2.185  -1.516  -1.863  0.00  0.00    +0.000 A 
ATOM      5  N   UNL     1       0.916  -1.331  -2.210  0.00  0.00    +0.000 NA
ATOM      6  N   UNL     1       0.694  -2.309  -3.101  0.00  0.00    +0.000 N 
ATOM      7  C   UNL     1       1.867  -2.991  -3.314  0.00  0.00    +0.000 A 
ATOM      8  N   UNL     1       2.828  -2.493  -2.565  0.00  0.00    +0.000 NA
ATOM      9  H   UNL     1       3.845  -1.076  -0.820  0.00  0.00    +0.000 HD
ENDROOT
BRANCH   2  10
ATOM     10  C   UNL     1       3.096   0.628   1.021  0.00  0.00    +0.000 A 
ATOM     11  C   UNL     1       2.635   0.750   2.321  0.00  0.00    +0.000 A 
ATOM     12  N   UNL     1       3.284   1.438   3.289  0.00  0.00    +0.000 NA
ATOM     13  C   UNL     1       4.421   2.086   2.964  0.00  0.00    +0.000 A 
ATOM     14  C   UNL     1       5.089   2.874   3.904  0.00  0.00    +0.000 A 
ATOM     15  F   UNL     1       4.604   2.979   5.152  0.00  0.00    +0.000 F 
ATOM     16  C   UNL     1       6.248   3.588   3.598  0.00  0.00    +0.000 A 
ATOM     17  C   UNL     1       6.778   3.512   2.318  0.00  0.00    +0.000 A 
ATOM     18  C   UNL     1       6.139   2.727   1.365  0.00  0.00    +0.000 A 
ATOM     19  F   UNL     1       6.661   2.667   0.131  0.00  0.00    +0.000 F 
ATOM     20  C   UNL     1       4.964   2.015   1.661  0.00  0.00    +0.000 A 
ATOM     21  C   UNL     1       4.290   1.257   0.686  0.00  0.00    +0.000 A 
ENDBRANCH   2  10
BRANCH   6  22
ATOM     22  C   UNL     1      -0.593  -2.518  -3.652  0.00  0.00    +0.000 A 
ATOM     23  C   UNL     1      -1.634  -1.630  -3.328  0.00  0.00    +0.000 A 
ATOM     24  C   UNL     1      -2.902  -1.827  -3.865  0.00  0.00    +0.000 A 
ATOM     25  F   UNL     1      -3.888  -0.971  -3.563  0.00  0.00    +0.000 F 
ATOM     26  C   UNL     1      -3.164  -2.894  -4.710  0.00  0.00    +0.000 A 
ATOM     27  C   UNL     1      -2.134  -3.772  -5.016  0.00  0.00    +0.000 A 
ATOM     28  F   UNL     1      -2.375  -4.814  -5.822  0.00  0.00    +0.000 F 
ATOM     29  C   UNL     1      -0.849  -3.599  -4.503  0.00  0.00    +0.000 A 
ENDBRANCH   6  22
TORSDOF 2
