REMARK  Name = 
REMARK  6 active torsions:
REMARK  status: ('A' for Active; 'I' for Inactive)
REMARK    1  A    between atoms: N_1  and  C_2
REMARK    2  A    between atoms: C_2  and  C_3
REMARK    3  A    between atoms: C_3  and  N_4
REMARK    4  A    between atoms: C_3  and  C_24
REMARK    5  A    between atoms: C_5  and  C_7
REMARK    6  A    between atoms: C_10  and  N_11
REMARK                            x       y       z     vdW  Elec       q    Type
REMARK                         _______ _______ _______ _____ _____    ______ ____
ROOT
ATOM      1  C   UNL     1       0.767  -3.676  -1.309  0.00  0.00    +0.000 A 
ATOM      2  C   UNL     1       1.651  -4.757  -1.326  0.00  0.00    +0.000 A 
ATOM      3  C   UNL     1       1.245  -5.984  -1.841  0.00  0.00    +0.000 A 
ATOM      4  C   UNL     1      -0.087  -6.163  -2.250  0.00  0.00    +0.000 A 
ATOM      5  C   UNL     1      -0.886  -5.024  -2.449  0.00  0.00    +0.000 A 
ATOM      6  C   UNL     1      -0.471  -3.785  -1.951  0.00  0.00    +0.000 A 
ENDROOT
BRANCH   4   7
ATOM      7  N   UNL     1      -0.692  -7.491  -2.135  0.00  0.00    +0.000 N 
ATOM      8  C   UNL     1      -2.066  -7.471  -1.972  0.00  0.00    +0.000 A 
ATOM      9  N   UNL     1      -2.650  -7.383  -0.814  0.00  0.00    +0.000 NA
ATOM     10  C   UNL     1      -1.772  -7.313   0.292  0.00  0.00    +0.000 A 
ATOM     11  C   UNL     1      -2.109  -6.588   1.432  0.00  0.00    +0.000 A 
ATOM     12  C   UNL     1      -1.169  -6.423   2.454  0.00  0.00    +0.000 A 
ATOM     13  C   UNL     1       0.094  -7.025   2.373  0.00  0.00    +0.000 A 
ATOM     14  C   UNL     1       0.438  -7.769   1.246  0.00  0.00    +0.000 A 
ATOM     15  C   UNL     1      -0.488  -7.869   0.212  0.00  0.00    +0.000 A 
ATOM     16  C   UNL     1      -0.085  -8.279  -1.154  0.00  0.00    +0.000 A 
ATOM     17  O   UNL     1       0.733  -9.168  -1.354  0.00  0.00    +0.000 OA
ENDBRANCH   4   7
BRANCH   1  19
ATOM     18  N   UNL     1       0.623  -1.290  -0.872  0.00  0.00    +0.000 N 
ATOM     19  C   UNL     1       1.151  -2.495  -0.493  0.00  0.00    +0.000 C 
ATOM     20  O   UNL     1       1.916  -2.631   0.458  0.00  0.00    +0.000 OA
ATOM     21  H   UNL     1      -0.031  -1.229  -1.637  0.00  0.00    +0.000 HD
BRANCH  18  22
ATOM     22  C   UNL     1       0.905  -0.067  -0.138  0.00  0.00    +0.000 C 
BRANCH  22  23
ATOM     23  C   UNL     1       1.101   1.062  -1.125  0.00  0.00    +0.000 A 
ATOM     24  C   UNL     1       2.359   1.668  -1.263  0.00  0.00    +0.000 A 
ATOM     25  C   UNL     1       2.561   2.669  -2.215  0.00  0.00    +0.000 A 
ATOM     26  C   UNL     1       1.512   3.074  -3.040  0.00  0.00    +0.000 A 
ATOM     27  C   UNL     1       0.257   2.475  -2.914  0.00  0.00    +0.000 A 
ATOM     28  C   UNL     1       0.066   1.479  -1.968  0.00  0.00    +0.000 A 
ATOM     29  F   UNL     1      -1.133   0.879  -1.905  0.00  0.00    +0.000 F 
ENDBRANCH  22  23
BRANCH  22  30
ATOM     30  C   UNL     1      -0.174   0.246   0.941  0.00  0.00    +0.000 C 
BRANCH  30  31
ATOM     31  N   UNL     1      -0.365  -0.817   1.939  0.00  0.00    +0.000 NA
ATOM     32  H   UNL     1      -0.680  -0.415   2.818  0.00  0.00    +0.000 HD
ATOM     33  H   UNL     1       0.529  -1.280   2.122  0.00  0.00    +0.000 HD
ENDBRANCH  30  31
ENDBRANCH  22  30
ENDBRANCH  18  22
ENDBRANCH   1  19
TORSDOF 6
