REMARK  Name = 
REMARK  5 active torsions:
REMARK  status: ('A' for Active; 'I' for Inactive)
REMARK    1  A    between atoms: C_2  and  C_19
REMARK    2  A    between atoms: N_3  and  C_4
REMARK    3  A    between atoms: C_7  and  O_8
REMARK    4  A    between atoms: O_8  and  C_9
REMARK    5  A    between atoms: C_22  and  C_23
REMARK                            x       y       z     vdW  Elec       q    Type
REMARK                         _______ _______ _______ _____ _____    ______ ____
ROOT
ATOM      1  O   UNL     1       1.232   0.666  -0.667  0.00  0.00    +0.000 OA
ATOM      2  C   UNL     1       2.334   0.262  -0.308  0.00  0.00    +0.000 C 
ATOM      3  N   UNL     1       2.858  -0.986  -0.600  0.00  0.00    +0.000 N 
ATOM      4  H   UNL     1       3.722  -1.230  -0.121  0.00  0.00    +0.000 HD
ENDROOT
BRANCH   3   5
ATOM      5  C   UNL     1       2.176  -1.986  -1.327  0.00  0.00    +0.000 A 
ATOM      6  C   UNL     1       1.064  -1.722  -2.131  0.00  0.00    +0.000 A 
ATOM      7  C   UNL     1       0.381  -2.760  -2.756  0.00  0.00    +0.000 A 
ATOM      8  C   UNL     1       0.857  -4.043  -2.585  0.00  0.00    +0.000 A 
ATOM      9  N   UNL     1       1.944  -4.346  -1.834  0.00  0.00    +0.000 NA
ATOM     10  C   UNL     1       2.586  -3.312  -1.239  0.00  0.00    +0.000 A 
BRANCH   8  11
ATOM     11  O   UNL     1       0.170  -5.049  -3.252  0.00  0.00    +0.000 OA
BRANCH  11  12
ATOM     12  C   UNL     1       0.904  -6.136  -3.662  0.00  0.00    +0.000 A 
ATOM     13  C   UNL     1       0.303  -7.389  -3.589  0.00  0.00    +0.000 A 
ATOM     14  F   UNL     1      -0.962  -7.512  -3.158  0.00  0.00    +0.000 F 
ATOM     15  C   UNL     1       1.019  -8.521  -3.961  0.00  0.00    +0.000 A 
ATOM     16  F   UNL     1       0.454  -9.733  -3.878  0.00  0.00    +0.000 F 
ATOM     17  C   UNL     1       2.332  -8.415  -4.418  0.00  0.00    +0.000 A 
ATOM     18  C   UNL     1       2.919  -7.158  -4.540  0.00  0.00    +0.000 A 
ATOM     19  C   UNL     1       2.198  -6.021  -4.187  0.00  0.00    +0.000 A 
ENDBRANCH  11  12
ENDBRANCH   8  11
ENDBRANCH   3   5
BRANCH   2  20
ATOM     20  C   UNL     1       3.149   1.088   0.542  0.00  0.00    +0.000 A 
ATOM     21  N   UNL     1       4.374   0.860   0.967  0.00  0.00    +0.000 NA
ATOM     22  N   UNL     1       4.722   1.916   1.796  0.00  0.00    +0.000 NA
ATOM     23  C   UNL     1       3.694   2.745   1.869  0.00  0.00    +0.000 A 
ATOM     24  N   UNL     1       2.704   2.265   1.064  0.00  0.00    +0.000 N 
ATOM     25  H   UNL     1       1.791   2.679   0.932  0.00  0.00    +0.000 HD
BRANCH  23  26
ATOM     26  C   UNL     1       3.519   3.957   2.653  0.00  0.00    +0.000 A 
ATOM     27  C   UNL     1       4.507   4.436   3.498  0.00  0.00    +0.000 A 
ATOM     28  C   UNL     1       4.245   5.584   4.238  0.00  0.00    +0.000 A 
ATOM     29  C   UNL     1       3.008   6.209   4.117  0.00  0.00    +0.000 A 
ATOM     30  C   UNL     1       2.082   5.666   3.244  0.00  0.00    +0.000 A 
ATOM     31  N   UNL     1       2.305   4.554   2.508  0.00  0.00    +0.000 NA
ENDBRANCH  23  26
ENDBRANCH   2  20
TORSDOF 5
