REMARK  Name = 
REMARK  5 active torsions:
REMARK  status: ('A' for Active; 'I' for Inactive)
REMARK    1  A    between atoms: C_2  and  C_17
REMARK    2  A    between atoms: N_3  and  C_4
REMARK    3  A    between atoms: C_9  and  C_10
REMARK    4  A    between atoms: C_10  and  C_11
REMARK    5  A    between atoms: C_21  and  C_22
REMARK                            x       y       z     vdW  Elec       q    Type
REMARK                         _______ _______ _______ _____ _____    ______ ____
ROOT
ATOM      1  O   UNL     1       0.981   0.294   0.032  0.00  0.00    +0.000 OA
ATOM      2  C   UNL     1       2.185   0.092  -0.090  0.00  0.00    +0.000 C 
ATOM      3  N   UNL     1       2.797  -0.808  -0.955  0.00  0.00    +0.000 N 
ATOM      4  H   UNL     1       3.776  -1.000  -0.799  0.00  0.00    +0.000 HD
ENDROOT
BRANCH   3   5
ATOM      5  C   UNL     1       2.130  -1.585  -1.942  0.00  0.00    +0.000 A 
ATOM      6  C   UNL     1       0.822  -1.263  -2.339  0.00  0.00    +0.000 A 
ATOM      7  C   UNL     1       0.131  -2.023  -3.281  0.00  0.00    +0.000 A 
ATOM      8  C   UNL     1       0.752  -3.103  -3.884  0.00  0.00    +0.000 A 
ATOM      9  C   UNL     1       2.063  -3.424  -3.536  0.00  0.00    +0.000 A 
ATOM     10  C   UNL     1       2.766  -2.693  -2.551  0.00  0.00    +0.000 A 
BRANCH  10  11
ATOM     11  C   UNL     1       4.127  -3.230  -2.150  0.00  0.00    +0.000 C 
BRANCH  11  12
ATOM     12  C   UNL     1       5.315  -2.845  -2.997  0.00  0.00    +0.000 A 
ATOM     13  C   UNL     1       6.376  -3.746  -3.169  0.00  0.00    +0.000 A 
ATOM     14  C   UNL     1       7.535  -3.349  -3.831  0.00  0.00    +0.000 A 
ATOM     15  C   UNL     1       7.604  -2.051  -4.302  0.00  0.00    +0.000 A 
ATOM     16  N   UNL     1       6.602  -1.156  -4.172  0.00  0.00    +0.000 NA
ATOM     17  C   UNL     1       5.483  -1.573  -3.534  0.00  0.00    +0.000 A 
ENDBRANCH  11  12
ENDBRANCH  10  11
ENDBRANCH   3   5
BRANCH   2  18
ATOM     18  C   UNL     1       3.083   0.857   0.816  0.00  0.00    +0.000 A 
ATOM     19  C   UNL     1       4.338   1.308   0.397  0.00  0.00    +0.000 A 
ATOM     20  C   UNL     1       5.118   2.079   1.262  0.00  0.00    +0.000 A 
ATOM     21  C   UNL     1       4.639   2.417   2.531  0.00  0.00    +0.000 A 
ATOM     22  C   UNL     1       3.365   2.005   2.941  0.00  0.00    +0.000 A 
ATOM     23  C   UNL     1       2.597   1.207   2.086  0.00  0.00    +0.000 A 
BRANCH  22  24
ATOM     24  C   UNL     1       2.797   2.410   4.261  0.00  0.00    +0.000 A 
ATOM     25  N   UNL     1       2.004   1.602   4.898  0.00  0.00    +0.000 NA
ATOM     26  N   UNL     1       1.517   2.034   6.102  0.00  0.00    +0.000 N 
ATOM     27  C   UNL     1       1.798   3.235   6.701  0.00  0.00    +0.000 A 
ATOM     28  O   UNL     1       1.354   3.569   7.793  0.00  0.00    +0.000 OA
ATOM     29  C   UNL     1       2.679   4.137   5.938  0.00  0.00    +0.000 A 
ATOM     30  C   UNL     1       3.164   3.764   4.755  0.00  0.00    +0.000 A 
ATOM     31  H   UNL     1       0.900   1.400   6.599  0.00  0.00    +0.000 HD
ENDBRANCH  22  24
ENDBRANCH   2  18
TORSDOF 5
