REMARK  Name = 
REMARK  7 active torsions:
REMARK  status: ('A' for Active; 'I' for Inactive)
REMARK    1  A    between atoms: C_2  and  C_20
REMARK    2  A    between atoms: N_3  and  CA_4
REMARK    3  A    between atoms: CA_4  and  C_5
REMARK    4  A    between atoms: CA_4  and  C_8
REMARK    5  A    between atoms: C_5  and  OXT_7
REMARK    6  A    between atoms: C_12  and  C_13
REMARK    7  A    between atoms: C_26  and  O_27
REMARK                            x       y       z     vdW  Elec       q    Type
REMARK                         _______ _______ _______ _____ _____    ______ ____
ROOT
ATOM      1  CA  UNL     1       2.486  -0.516   2.383  0.00  0.00    +0.000 C 
ENDROOT
BRANCH   1   2
ATOM      2  C   UNL     1       3.410  -0.547   3.585  0.00  0.00    +0.000 A 
ATOM      3  C   UNL     1       3.834  -1.734   4.193  0.00  0.00    +0.000 A 
ATOM      4  C   UNL     1       4.759  -1.690   5.233  0.00  0.00    +0.000 A 
ATOM      5  C   UNL     1       5.304  -0.467   5.636  0.00  0.00    +0.000 A 
ATOM      6  C   UNL     1       4.940   0.738   5.015  0.00  0.00    +0.000 A 
ATOM      7  C   UNL     1       3.954   0.670   4.023  0.00  0.00    +0.000 A 
BRANCH   6   8
ATOM      8  C   UNL     1       5.626   2.016   5.298  0.00  0.00    +0.000 A 
ATOM      9  C   UNL     1       6.996   2.044   5.589  0.00  0.00    +0.000 A 
ATOM     10  C   UNL     1       7.632   3.264   5.762  0.00  0.00    +0.000 A 
ATOM     11  N   UNL     1       7.013   4.455   5.659  0.00  0.00    +0.000 NA
ATOM     12  C   UNL     1       5.696   4.423   5.377  0.00  0.00    +0.000 A 
ATOM     13  C   UNL     1       4.972   3.253   5.199  0.00  0.00    +0.000 A 
ENDBRANCH   6   8
ENDBRANCH   1   2
BRANCH   1  16
ATOM     14  O   UNL     1       3.679   1.724   1.056  0.00  0.00    +0.000 OA
ATOM     15  C   UNL     1       3.908   0.598   0.632  0.00  0.00    +0.000 C 
ATOM     16  N   UNL     1       3.318  -0.568   1.152  0.00  0.00    +0.000 N 
ATOM     17  H   UNL     1       3.871  -1.409   1.029  0.00  0.00    +0.000 HD
BRANCH  15  18
ATOM     18  C   UNL     1       4.799   0.405  -0.560  0.00  0.00    +0.000 A 
ATOM     19  C   UNL     1       4.340  -0.542  -1.492  0.00  0.00    +0.000 A 
ATOM     20  C   UNL     1       5.027  -0.758  -2.675  0.00  0.00    +0.000 A 
ATOM     21  C   UNL     1       6.161  -0.007  -2.953  0.00  0.00    +0.000 A 
ATOM     22  C   UNL     1       6.642   0.948  -2.078  0.00  0.00    +0.000 A 
ATOM     23  N   UNL     1       7.739   1.593  -2.494  0.00  0.00    +0.000 NA
ATOM     24  C   UNL     1       8.257   2.513  -1.681  0.00  0.00    +0.000 A 
ATOM     25  C   UNL     1       7.759   2.833  -0.441  0.00  0.00    +0.000 A 
ATOM     26  C   UNL     1       6.602   2.164  -0.018  0.00  0.00    +0.000 A 
ATOM     27  C   UNL     1       5.981   1.180  -0.842  0.00  0.00    +0.000 A 
BRANCH  24  28
ATOM     28  O   UNL     1       9.355   3.122  -2.192  0.00  0.00    +0.000 OA
ATOM     29  H   UNL     1       9.408   2.681  -3.062  0.00  0.00    +0.000 HD
ENDBRANCH  24  28
ENDBRANCH  15  18
ENDBRANCH   1  16
BRANCH   1  30
ATOM     30  C   UNL     1       1.370  -1.601   2.480  0.00  0.00    +0.000 C 
ATOM     31  O   UNL     1       0.647  -1.786   3.443  0.00  0.00    +0.000 OA
BRANCH  30  32
ATOM     32  OXT UNL     1       1.260  -2.350   1.349  0.00  0.00    +0.000 OA
ATOM     33  HXT UNL     1       1.841  -2.012   0.641  0.00  0.00    +0.000 HD
ENDBRANCH  30  32
ENDBRANCH   1  30
TORSDOF 7
