REMARK  Name = 
REMARK  11 active torsions:
REMARK  status: ('A' for Active; 'I' for Inactive)
REMARK    1  A    between atoms: N_1  and  CA_2
REMARK    2  A    between atoms: CA_2  and  C_3
REMARK    3  A    between atoms: CA_2  and  C_31
REMARK    4  A    between atoms: C_3  and  C_4
REMARK    5  A    between atoms: C_8  and  N_9
REMARK    6  A    between atoms: C_10  and  C_12
REMARK    7  A    between atoms: C_12  and  C_13
REMARK    8  A    between atoms: C_18  and  O_19
REMARK    9  A    between atoms: O_19  and  C_20
REMARK   10  A    between atoms: C_20  and  C_21
REMARK   11  A    between atoms: C_31  and  OXT_33
REMARK                            x       y       z     vdW  Elec       q    Type
REMARK                         _______ _______ _______ _____ _____    ______ ____
ROOT
ATOM      1  N   UNL     1       2.405   4.612   6.256  0.00  0.00    +0.000 N 
ATOM      2  C   UNL     1       2.908   4.630   4.971  0.00  0.00    +0.000 C 
ATOM      3  O   UNL     1       2.918   3.680   4.192  0.00  0.00    +0.000 OA
ATOM      4  H   UNL     1       2.466   5.475   6.781  0.00  0.00    +0.000 HD
ENDROOT
BRANCH   1   9
ATOM      5  C   UNL     1       0.239   2.995   8.800  0.00  0.00    +0.000 A 
ATOM      6  C   UNL     1      -0.012   1.756   8.199  0.00  0.00    +0.000 A 
ATOM      7  C   UNL     1       0.559   1.442   6.967  0.00  0.00    +0.000 A 
ATOM      8  C   UNL     1       1.380   2.362   6.310  0.00  0.00    +0.000 A 
ATOM      9  C   UNL     1       1.647   3.602   6.885  0.00  0.00    +0.000 A 
ATOM     10  C   UNL     1       1.077   3.908   8.138  0.00  0.00    +0.000 A 
BRANCH   5  11
ATOM     11  C   UNL     1      -0.440   3.368  10.099  0.00  0.00    +0.000 C 
BRANCH  11  12
ATOM     12  CA  UNL     1       0.309   2.952  11.376  0.00  0.00    +0.000 C 
BRANCH  12  13
ATOM     13  N   UNL     1       0.473   1.472  11.541  0.00  0.00    +0.000 NA
ATOM     14  H1  UNL     1       1.020   1.137  10.741  0.00  0.00    +0.000 HD
ATOM     15  H2  UNL     1      -0.448   1.036  11.410  0.00  0.00    +0.000 HD
ENDBRANCH  12  13
BRANCH  12  16
ATOM     16  C   UNL     1      -0.443   3.473  12.617  0.00  0.00    +0.000 C 
ATOM     17  O   UNL     1      -1.093   4.503  12.677  0.00  0.00    +0.000 OA
BRANCH  16  18
ATOM     18  OXT UNL     1      -0.276   2.634  13.675  0.00  0.00    +0.000 OA
ATOM     19  HXT UNL     1       0.262   1.873  13.342  0.00  0.00    +0.000 HD
ENDBRANCH  16  18
ENDBRANCH  12  16
ENDBRANCH  11  12
ENDBRANCH   5  11
ENDBRANCH   1   9
BRANCH   2  20
ATOM     20  C   UNL     1       3.533   5.963   4.526  0.00  0.00    +0.000 C 
BRANCH  20  21
ATOM     21  C   UNL     1       2.998   7.134   5.287  0.00  0.00    +0.000 A 
ATOM     22  C   UNL     1       3.640   7.822   6.301  0.00  0.00    +0.000 A 
ATOM     23  N   UNL     1       2.762   8.776   6.736  0.00  0.00    +0.000 N 
ATOM     24  C   UNL     1       1.491   8.365   6.417  0.00  0.00    +0.000 A 
ATOM     25  C   UNL     1       0.249   8.619   7.003  0.00  0.00    +0.000 A 
ATOM     26  C   UNL     1      -0.883   8.133   6.339  0.00  0.00    +0.000 A 
ATOM     27  C   UNL     1      -0.762   7.524   5.085  0.00  0.00    +0.000 A 
ATOM     28  C   UNL     1       0.497   7.250   4.535  0.00  0.00    +0.000 A 
ATOM     29  C   UNL     1       1.638   7.577   5.281  0.00  0.00    +0.000 A 
ATOM     30  H   UNL     1       2.994   9.614   7.253  0.00  0.00    +0.000 HD
BRANCH  26  31
ATOM     31  O   UNL     1      -2.055   8.299   7.030  0.00  0.00    +0.000 OA
BRANCH  31  32
ATOM     32  C   UNL     1      -3.249   8.114   6.275  0.00  0.00    +0.000 C 
BRANCH  32  33
ATOM     33  C   UNL     1      -4.436   8.631   7.044  0.00  0.00    +0.000 A 
ATOM     34  C   UNL     1      -5.400   9.403   6.380  0.00  0.00    +0.000 A 
ATOM     35  C   UNL     1      -6.528   9.866   7.051  0.00  0.00    +0.000 A 
ATOM     36  C   UNL     1      -6.708   9.560   8.398  0.00  0.00    +0.000 A 
ATOM     37  C   UNL     1      -5.759   8.783   9.075  0.00  0.00    +0.000 A 
ATOM     38  C   UNL     1      -4.638   8.318   8.396  0.00  0.00    +0.000 A 
ENDBRANCH  32  33
ENDBRANCH  31  32
ENDBRANCH  26  31
ENDBRANCH  20  21
ENDBRANCH   2  20
TORSDOF 11
