REMARK  Name = 
REMARK  5 active torsions:
REMARK  status: ('A' for Active; 'I' for Inactive)
REMARK    1  A    between atoms: C_2  and  C_3
REMARK    2  A    between atoms: C_3  and  C_4
REMARK    3  A    between atoms: N_14  and  C_15
REMARK    4  A    between atoms: C_17  and  N_18
REMARK    5  A    between atoms: C_19  and  C_21
REMARK                            x       y       z     vdW  Elec       q    Type
REMARK                         _______ _______ _______ _____ _____    ______ ____
ROOT
ATOM      1  C   UNL     1       4.333   0.060  -1.231  0.00  0.00    +0.000 A 
ATOM      2  C   UNL     1       5.024  -0.735  -0.317  0.00  0.00    +0.000 A 
ATOM      3  C   UNL     1       6.411  -0.869  -0.341  0.00  0.00    +0.000 A 
ATOM      4  C   UNL     1       7.131  -0.168  -1.309  0.00  0.00    +0.000 A 
ATOM      5  C   UNL     1       6.453   0.585  -2.278  0.00  0.00    +0.000 A 
ATOM      6  C   UNL     1       5.056   0.687  -2.248  0.00  0.00    +0.000 A 
ENDROOT
BRANCH   1   9
ATOM      7  O   UNL     1       2.576  -0.284   1.095  0.00  0.00    +0.000 OA
ATOM      8  C   UNL     1       2.158  -0.003  -0.026  0.00  0.00    +0.000 C 
ATOM      9  N   UNL     1       2.933   0.237  -1.157  0.00  0.00    +0.000 N 
ATOM     10  H   UNL     1       2.484   0.675  -1.951  0.00  0.00    +0.000 HD
BRANCH   8  11
ATOM     11  C   UNL     1       0.667   0.152  -0.247  0.00  0.00    +0.000 C 
BRANCH  11  12
ATOM     12  C   UNL     1       0.011  -1.096  -0.783  0.00  0.00    +0.000 A 
ATOM     13  C   UNL     1       0.103  -2.313  -0.094  0.00  0.00    +0.000 A 
ATOM     14  C   UNL     1      -0.525  -3.461  -0.587  0.00  0.00    +0.000 A 
ATOM     15  C   UNL     1      -1.264  -3.415  -1.779  0.00  0.00    +0.000 A 
ATOM     16  C   UNL     1      -1.900  -4.545  -2.305  0.00  0.00    +0.000 A 
ATOM     17  C   UNL     1      -2.613  -4.419  -3.488  0.00  0.00    +0.000 A 
ATOM     18  N   UNL     1      -2.741  -3.264  -4.172  0.00  0.00    +0.000 NA
ATOM     19  C   UNL     1      -2.121  -2.183  -3.647  0.00  0.00    +0.000 A 
ATOM     20  C   UNL     1      -1.372  -2.192  -2.468  0.00  0.00    +0.000 A 
ATOM     21  C   UNL     1      -0.738  -1.044  -1.966  0.00  0.00    +0.000 A 
ENDBRANCH  11  12
ENDBRANCH   8  11
ENDBRANCH   1   9
BRANCH   3  22
ATOM     22  N   UNL     1       7.100  -1.678   0.593  0.00  0.00    +0.000 N 
ATOM     23  C   UNL     1       6.517  -2.687   1.351  0.00  0.00    +0.000 C 
ATOM     24  O   UNL     1       5.359  -3.083   1.248  0.00  0.00    +0.000 OA
ATOM     25  H   UNL     1       8.105  -1.584   0.672  0.00  0.00    +0.000 HD
BRANCH  23  26
ATOM     26  C   UNL     1       7.422  -3.383   2.305  0.00  0.00    +0.000 A 
ATOM     27  N   UNL     1       8.707  -2.931   2.362  0.00  0.00    +0.000 NA
ATOM     28  C   UNL     1       9.505  -3.616   3.196  0.00  0.00    +0.000 A 
ATOM     29  N   UNL     1       9.154  -4.681   3.936  0.00  0.00    +0.000 NA
ATOM     30  C   UNL     1       7.867  -5.079   3.833  0.00  0.00    +0.000 A 
ATOM     31  C   UNL     1       6.949  -4.452   3.034  0.00  0.00    +0.000 A 
ATOM     32  F   UNL     1       5.688  -4.903   2.989  0.00  0.00    +0.000 F 
ENDBRANCH  23  26
ENDBRANCH   3  22
TORSDOF 5
