REMARK  Name = 
REMARK  4 active torsions:
REMARK  status: ('A' for Active; 'I' for Inactive)
REMARK    1  A    between atoms: C_2  and  C_18
REMARK    2  A    between atoms: N_3  and  C_4
REMARK    3  A    between atoms: C_4  and  C_5
REMARK    4  A    between atoms: C_8  and  C_9
REMARK                            x       y       z     vdW  Elec       q    Type
REMARK                         _______ _______ _______ _____ _____    ______ ____
ROOT
ATOM      1  O   UNL     1       3.102  -0.149   1.338  0.00  0.00    +0.000 OA
ATOM      2  C   UNL     1       4.148  -0.484   0.790  0.00  0.00    +0.000 C 
ATOM      3  N   UNL     1       4.235  -0.743  -0.574  0.00  0.00    +0.000 N 
ATOM      4  H   UNL     1       5.097  -1.111  -0.944  0.00  0.00    +0.000 HD
ENDROOT
BRANCH   2   5
ATOM      5  C   UNL     1       5.386  -0.764   1.629  0.00  0.00    +0.000 A 
ATOM      6  C   UNL     1       6.633  -1.059   1.046  0.00  0.00    +0.000 A 
ATOM      7  C   UNL     1       7.702  -0.150   0.880  0.00  0.00    +0.000 A 
ATOM      8  C   UNL     1       8.959  -0.595   0.425  0.00  0.00    +0.000 A 
ATOM      9  C   UNL     1       9.104  -1.906  -0.021  0.00  0.00    +0.000 A 
ATOM     10  C   UNL     1       8.106  -2.805   0.288  0.00  0.00    +0.000 A 
ATOM     11  F   UNL     1       8.237  -4.098  -0.033  0.00  0.00    +0.000 F 
ATOM     12  C   UNL     1       7.054  -2.376   1.085  0.00  0.00    +0.000 A 
ATOM     13  C   UNL     1       6.685  -3.066   2.230  0.00  0.00    +0.000 A 
ATOM     14  N   UNL     1       5.794  -2.597   3.137  0.00  0.00    +0.000 NA
ATOM     15  C   UNL     1       5.089  -1.502   2.765  0.00  0.00    +0.000 A 
ENDBRANCH   2   5
BRANCH   3  16
ATOM     16  C   UNL     1       3.071  -0.853  -1.451  0.00  0.00    +0.000 C 
BRANCH  16  17
ATOM     17  C   UNL     1       3.481  -1.151  -2.887  0.00  0.00    +0.000 A 
ATOM     18  C   UNL     1       3.579  -2.467  -3.372  0.00  0.00    +0.000 A 
ATOM     19  C   UNL     1       3.951  -2.729  -4.707  0.00  0.00    +0.000 A 
ATOM     20  C   UNL     1       4.238  -1.682  -5.593  0.00  0.00    +0.000 A 
ATOM     21  C   UNL     1       4.169  -0.371  -5.105  0.00  0.00    +0.000 A 
ATOM     22  C   UNL     1       3.794  -0.110  -3.772  0.00  0.00    +0.000 A 
BRANCH  20  23
ATOM     23  C   UNL     1       4.600  -1.951  -7.011  0.00  0.00    +0.000 A 
ATOM     24  C   UNL     1       3.629  -1.973  -7.939  0.00  0.00    +0.000 A 
ATOM     25  N   UNL     1       3.894  -2.222  -9.269  0.00  0.00    +0.000 N 
ATOM     26  C   UNL     1       5.150  -2.471  -9.771  0.00  0.00    +0.000 A 
ATOM     27  O   UNL     1       5.386  -2.693 -10.952  0.00  0.00    +0.000 OA
ATOM     28  C   UNL     1       6.231  -2.447  -8.757  0.00  0.00    +0.000 A 
ATOM     29  C   UNL     1       5.977  -2.220  -7.459  0.00  0.00    +0.000 A 
ATOM     30  H   UNL     1       3.143  -2.229  -9.945  0.00  0.00    +0.000 HD
ENDBRANCH  20  23
ENDBRANCH  16  17
ENDBRANCH   3  16
TORSDOF 4
