REMARK  Name = 
REMARK  5 active torsions:
REMARK  status: ('A' for Active; 'I' for Inactive)
REMARK    1  A    between atoms: C_1  and  N_2
REMARK    2  A    between atoms: C_8  and  C_9
REMARK    3  A    between atoms: N_11  and  C_12
REMARK    4  A    between atoms: C_15  and  C_16
REMARK    5  A    between atoms: C_19  and  C_20
REMARK                            x       y       z     vdW  Elec       q    Type
REMARK                         _______ _______ _______ _____ _____    ______ ____
ROOT
ATOM      1  C   UNL     1       8.775  -1.065   0.049  0.00  0.00    +0.000 C 
ATOM      2  O   UNL     1       9.211   0.045   0.336  0.00  0.00    +0.000 OA
ATOM      3  N   UNL     1       9.521  -2.190  -0.266  0.00  0.00    +0.000 N 
ATOM      4  H   UNL     1       9.042  -2.970  -0.700  0.00  0.00    +0.000 HD
ENDROOT
BRANCH   1  12
ATOM      5  C   UNL     1       1.001   0.079  -0.533  0.00  0.00    +0.000 C 
ATOM      6  N   UNL     1       2.449   0.043  -0.508  0.00  0.00    +0.000 N 
ATOM      7  C   UNL     1       3.150   1.157  -0.938  0.00  0.00    +0.000 A 
ATOM      8  O   UNL     1       2.630   2.193  -1.349  0.00  0.00    +0.000 OA
ATOM      9  N   UNL     1       4.512   1.075  -0.892  0.00  0.00    +0.000 N 
ATOM     10  C   UNL     1       5.208  -0.051  -0.466  0.00  0.00    +0.000 A 
ATOM     11  C   UNL     1       6.597  -0.046  -0.464  0.00  0.00    +0.000 A 
ATOM     12  C   UNL     1       7.302  -1.184  -0.038  0.00  0.00    +0.000 A 
ATOM     13  C   UNL     1       6.612  -2.326   0.380  0.00  0.00    +0.000 A 
ATOM     14  C   UNL     1       5.212  -2.318   0.385  0.00  0.00    +0.000 A 
ATOM     15  C   UNL     1       4.516  -1.175  -0.036  0.00  0.00    +0.000 A 
ATOM     16  C   UNL     1       3.041  -1.123  -0.023  0.00  0.00    +0.000 A 
ATOM     17  O   UNL     1       2.412  -2.088   0.406  0.00  0.00    +0.000 OA
ATOM     18  H   UNL     1       5.006   1.903  -1.203  0.00  0.00    +0.000 HD
ENDBRANCH   1  12
BRANCH   3  19
ATOM     19  C   UNL     1      10.936  -2.211  -0.307  0.00  0.00    +0.000 A 
ATOM     20  C   UNL     1      11.716  -1.240   0.325  0.00  0.00    +0.000 A 
ATOM     21  C   UNL     1      13.098  -1.192   0.135  0.00  0.00    +0.000 A 
ATOM     22  C   UNL     1      13.736  -2.130  -0.680  0.00  0.00    +0.000 A 
ATOM     23  C   UNL     1      12.967  -3.159  -1.242  0.00  0.00    +0.000 A 
ATOM     24  C   UNL     1      11.578  -3.210  -1.044  0.00  0.00    +0.000 A 
BRANCH  22  25
ATOM     25  C   UNL     1      15.149  -1.991  -1.011  0.00  0.00    +0.000 A 
ATOM     26  C   UNL     1      16.081  -1.372  -0.202  0.00  0.00    +0.000 A 
ATOM     27  S   UNL     1      17.593  -1.290  -0.997  0.00  0.00    +0.000 S 
ATOM     28  C   UNL     1      16.915  -2.091  -2.367  0.00  0.00    +0.000 A 
ATOM     29  N   UNL     1      15.642  -2.432  -2.229  0.00  0.00    +0.000 NA
BRANCH  28  30
ATOM     30  C   UNL     1      17.759  -2.335  -3.589  0.00  0.00    +0.000 C 
ATOM     31  F   UNL     1      19.035  -1.872  -3.468  0.00  0.00    +0.000 F 
ATOM     32  F   UNL     1      17.862  -3.660  -3.881  0.00  0.00    +0.000 F 
ATOM     33  F   UNL     1      17.243  -1.731  -4.694  0.00  0.00    +0.000 F 
ENDBRANCH  28  30
ENDBRANCH  22  25
ENDBRANCH   3  19
TORSDOF 4
