REMARK  Name = 
REMARK  5 active torsions:
REMARK  status: ('A' for Active; 'I' for Inactive)
REMARK    1  A    between atoms: C_2  and  C_3
REMARK    2  A    between atoms: C_3  and  C_4
REMARK    3  A    between atoms: C_3  and  C_10
REMARK    4  A    between atoms: C_13  and  N_14
REMARK    5  A    between atoms: N_20  and  C_21
REMARK                            x       y       z     vdW  Elec       q    Type
REMARK                         _______ _______ _______ _____ _____    ______ ____
ROOT
ATOM      1  N   UNL     1       5.205   3.523  -4.322  0.00  0.00    +0.000 N 
ATOM      2  C   UNL     1       5.173   4.893  -4.403  0.00  0.00    +0.000 C 
ATOM      3  O   UNL     1       4.902   5.667  -3.488  0.00  0.00    +0.000 OA
ATOM      4  N   UNL     1       5.562   5.423  -5.614  0.00  0.00    +0.000 N 
ATOM      5  C   UNL     1       5.798   4.725  -6.776  0.00  0.00    +0.000 A 
ATOM      6  N   UNL     1       5.513   3.430  -6.917  0.00  0.00    +0.000 NA
ATOM      7  N   UNL     1       5.877   3.168  -8.192  0.00  0.00    +0.000 N 
ATOM      8  N   UNL     1       6.457   4.196  -8.862  0.00  0.00    +0.000 NA
ATOM      9  C   UNL     1       6.367   5.192  -7.973  0.00  0.00    +0.000 A 
ATOM     10  H   UNL     1       5.530   3.065  -5.169  0.00  0.00    +0.000 HD
ATOM     11  H   UNL     1       5.672   6.428  -5.613  0.00  0.00    +0.000 HD
ENDROOT
BRANCH   1  15
ATOM     12  C   UNL     1       4.191   0.879  -1.192  0.00  0.00    +0.000 A 
ATOM     13  C   UNL     1       3.831   2.237  -1.121  0.00  0.00    +0.000 A 
ATOM     14  C   UNL     1       4.173   3.133  -2.134  0.00  0.00    +0.000 A 
ATOM     15  C   UNL     1       4.869   2.688  -3.252  0.00  0.00    +0.000 A 
ATOM     16  C   UNL     1       5.226   1.337  -3.343  0.00  0.00    +0.000 A 
ATOM     17  C   UNL     1       4.899   0.440  -2.321  0.00  0.00    +0.000 A 
BRANCH  12  18
ATOM     18  C   UNL     1       3.705  -0.060  -0.093  0.00  0.00    +0.000 C 
BRANCH  18  19
ATOM     19  C   UNL     1       4.670  -1.182   0.287  0.00  0.00    +0.000 A 
ATOM     20  C   UNL     1       4.557  -2.479  -0.246  0.00  0.00    +0.000 A 
ATOM     21  C   UNL     1       5.424  -3.495   0.158  0.00  0.00    +0.000 A 
ATOM     22  C   UNL     1       6.425  -3.231   1.089  0.00  0.00    +0.000 A 
ATOM     23  C   UNL     1       6.567  -1.948   1.611  0.00  0.00    +0.000 A 
ATOM     24  C   UNL     1       5.700  -0.928   1.210  0.00  0.00    +0.000 A 
ENDBRANCH  18  19
BRANCH  18  26
ATOM     25  N   UNL     1       1.259  -0.921  -0.634  0.00  0.00    +0.000 NA
ATOM     26  C   UNL     1       2.335  -0.541  -0.396  0.00  0.00    +0.000 C 
ENDBRANCH  18  26
ENDBRANCH  12  18
ENDBRANCH   1  15
BRANCH   7  27
ATOM     27  C   UNL     1       5.671   1.891  -8.744  0.00  0.00    +0.000 A 
ATOM     28  C   UNL     1       4.918   0.925  -8.061  0.00  0.00    +0.000 A 
ATOM     29  C   UNL     1       4.732  -0.325  -8.642  0.00  0.00    +0.000 A 
ATOM     30  C   UNL     1       5.315  -0.564  -9.876  0.00  0.00    +0.000 A 
ATOM     31  N   UNL     1       6.051   0.348 -10.553  0.00  0.00    +0.000 NA
ATOM     32  C   UNL     1       6.210   1.563  -9.976  0.00  0.00    +0.000 A 
ENDBRANCH   7  27
TORSDOF 5
