REMARK  Name = 
REMARK  4 active torsions:
REMARK  status: ('A' for Active; 'I' for Inactive)
REMARK    1  A    between atoms: C_1  and  C_2
REMARK    2  A    between atoms: C_5  and  N_6
REMARK    3  A    between atoms: C_7  and  C_9
REMARK    4  A    between atoms: C_21  and  C_22
REMARK                            x       y       z     vdW  Elec       q    Type
REMARK                         _______ _______ _______ _____ _____    ______ ____
ROOT
ATOM      1  N   UNL     1      -3.288   0.286   0.172  0.00  0.00    +0.000 N 
ATOM      2  C   UNL     1      -3.995   1.040   1.062  0.00  0.00    +0.000 C 
ATOM      3  O   UNL     1      -3.506   1.659   1.997  0.00  0.00    +0.000 OA
ATOM      4  H   UNL     1      -3.792  -0.375  -0.396  0.00  0.00    +0.000 HD
ENDROOT
BRANCH   2   5
ATOM      5  C   UNL     1      -5.507   1.038   0.984  0.00  0.00    +0.000 A 
ATOM      6  C   UNL     1      -6.195   1.699   2.022  0.00  0.00    +0.000 A 
ATOM      7  C   UNL     1      -7.584   1.836   2.010  0.00  0.00    +0.000 A 
ATOM      8  C   UNL     1      -8.307   1.240   0.987  0.00  0.00    +0.000 A 
ATOM      9  N   UNL     1      -9.706   1.295   1.026  0.00  0.00    +0.000 N 
ATOM     10  C   UNL     1     -10.473   0.361   0.386  0.00  0.00    +0.000 A 
ATOM     11  O   UNL     1     -11.645   0.155   0.678  0.00  0.00    +0.000 OA
ATOM     12  N   UNL     1      -9.846  -0.315  -0.626  0.00  0.00    +0.000 N 
ATOM     13  C   UNL     1      -8.521  -0.190  -0.982  0.00  0.00    +0.000 A 
ATOM     14  O   UNL     1      -8.069  -0.647  -2.023  0.00  0.00    +0.000 OA
ATOM     15  C   UNL     1      -7.659   0.514  -0.008  0.00  0.00    +0.000 A 
ATOM     16  C   UNL     1      -6.257   0.451  -0.053  0.00  0.00    +0.000 A 
ATOM     17  H   UNL     1     -10.091   2.228   0.918  0.00  0.00    +0.000 HD
ATOM     18  H   UNL     1     -10.436  -0.899  -1.200  0.00  0.00    +0.000 HD
ENDBRANCH   2   5
BRANCH   1  23
ATOM     19  C   UNL     1       2.438  -0.051  -0.004  0.00  0.00    +0.000 C 
ATOM     20  C   UNL     1       0.945   0.053   0.050  0.00  0.00    +0.000 A 
ATOM     21  C   UNL     1       0.302   1.263   0.283  0.00  0.00    +0.000 A 
ATOM     22  C   UNL     1      -1.093   1.319   0.349  0.00  0.00    +0.000 A 
ATOM     23  C   UNL     1      -1.879   0.165   0.174  0.00  0.00    +0.000 A 
ATOM     24  C   UNL     1      -1.254  -1.092  -0.040  0.00  0.00    +0.000 A 
ATOM     25  C   UNL     1       0.163  -1.106  -0.097  0.00  0.00    +0.000 A 
BRANCH  24  26
ATOM     26  C   UNL     1      -1.976  -2.403  -0.069  0.00  0.00    +0.000 A 
ATOM     27  C   UNL     1      -1.451  -3.524   0.612  0.00  0.00    +0.000 A 
ATOM     28  C   UNL     1      -2.089  -4.772   0.600  0.00  0.00    +0.000 A 
ATOM     29  C   UNL     1      -3.304  -4.926  -0.056  0.00  0.00    +0.000 A 
ATOM     30  C   UNL     1      -3.864  -3.841  -0.718  0.00  0.00    +0.000 A 
ATOM     31  C   UNL     1      -3.191  -2.616  -0.741  0.00  0.00    +0.000 A 
ATOM     32  F   UNL     1      -3.772  -1.626  -1.437  0.00  0.00    +0.000 F 
ENDBRANCH  24  26
ENDBRANCH   1  23
TORSDOF 3
