REMARK  Name = 
REMARK  4 active torsions:
REMARK  status: ('A' for Active; 'I' for Inactive)
REMARK    1  A    between atoms: N_1  and  C_2
REMARK    2  A    between atoms: C_4  and  C_5
REMARK    3  A    between atoms: N_7  and  C_8
REMARK    4  A    between atoms: N_21  and  C_22
REMARK                            x       y       z     vdW  Elec       q    Type
REMARK                         _______ _______ _______ _____ _____    ______ ____
ROOT
ATOM      1  C   UNL     1       5.698   1.444  -0.017  0.00  0.00    +0.000 C 
ATOM      2  O   UNL     1       5.646   2.667  -0.135  0.00  0.00    +0.000 OA
ATOM      3  N   UNL     1       6.857   0.687   0.013  0.00  0.00    +0.000 N 
ATOM      4  H   UNL     1       6.713  -0.321  -0.024  0.00  0.00    +0.000 HD
ENDROOT
BRANCH   3   5
ATOM      5  C   UNL     1       8.173   1.198   0.030  0.00  0.00    +0.000 A 
ATOM      6  C   UNL     1       8.455   2.532   0.306  0.00  0.00    +0.000 A 
ATOM      7  C   UNL     1       9.771   2.995   0.371  0.00  0.00    +0.000 A 
ATOM      8  C   UNL     1      10.022   4.334   0.717  0.00  0.00    +0.000 A 
ATOM      9  C   UNL     1      11.326   4.796   0.822  0.00  0.00    +0.000 A 
ATOM     10  C   UNL     1      12.367   3.924   0.543  0.00  0.00    +0.000 A 
ATOM     11  F   UNL     1      13.627   4.369   0.646  0.00  0.00    +0.000 F 
ATOM     12  C   UNL     1      12.119   2.601   0.179  0.00  0.00    +0.000 A 
ATOM     13  F   UNL     1      13.167   1.802  -0.088  0.00  0.00    +0.000 F 
ATOM     14  C   UNL     1      10.821   2.090   0.106  0.00  0.00    +0.000 A 
ATOM     15  N   UNL     1      10.561   0.791  -0.180  0.00  0.00    +0.000 NA
ATOM     16  C   UNL     1       9.264   0.374  -0.194  0.00  0.00    +0.000 A 
ENDBRANCH   3   5
BRANCH   1  19
ATOM     17  C   UNL     1       2.301   0.132  -0.071  0.00  0.00    +0.000 A 
ATOM     18  C   UNL     1       3.154   1.202  -0.100  0.00  0.00    +0.000 A 
ATOM     19  C   UNL     1       4.456   0.664   0.043  0.00  0.00    +0.000 A 
ATOM     20  N   UNL     1       4.423  -0.664   0.251  0.00  0.00    +0.000 NA
ATOM     21  N   UNL     1       3.110  -0.997   0.071  0.00  0.00    +0.000 N 
BRANCH  21  22
ATOM     22  C   UNL     1       2.734  -2.361  -0.010  0.00  0.00    +0.000 A 
ATOM     23  C   UNL     1       3.426  -3.311   0.755  0.00  0.00    +0.000 A 
ATOM     24  C   UNL     1       3.082  -4.659   0.653  0.00  0.00    +0.000 A 
ATOM     25  C   UNL     1       2.085  -5.049  -0.236  0.00  0.00    +0.000 A 
ATOM     26  F   UNL     1       1.786  -6.348  -0.359  0.00  0.00    +0.000 F 
ATOM     27  C   UNL     1       1.403  -4.116  -1.009  0.00  0.00    +0.000 A 
ATOM     28  C   UNL     1       1.717  -2.763  -0.889  0.00  0.00    +0.000 A 
ENDBRANCH  21  22
BRANCH  17  29
ATOM     29  N   UNL     1       0.945   0.127  -0.128  0.00  0.00    +0.000 N 
ATOM     30  H   UNL     1       0.434   0.999   0.001  0.00  0.00    +0.000 HD
ATOM     31  H   UNL     1       0.412  -0.678   0.197  0.00  0.00    +0.000 HD
ENDBRANCH  17  29
ENDBRANCH   1  19
TORSDOF 4
