REMARK  Name = 
REMARK  5 active torsions:
REMARK  status: ('A' for Active; 'I' for Inactive)
REMARK    1  A    between atoms: C_2  and  C_4
REMARK    2  A    between atoms: C_10  and  O_11
REMARK    3  A    between atoms: O_11  and  C_12
REMARK    4  A    between atoms: C_12  and  C_13
REMARK    5  A    between atoms: N_22  and  C_23
REMARK                            x       y       z     vdW  Elec       q    Type
REMARK                         _______ _______ _______ _____ _____    ______ ____
ROOT
ATOM      1  C   UNL     1       3.873  -2.986  -1.194  0.00  0.00    +0.000 A 
ATOM      2  N   UNL     1       2.553  -3.213  -1.162  0.00  0.00    +0.000 NA
ATOM      3  C   UNL     1       2.384  -3.642   0.139  0.00  0.00    +0.000 A 
ATOM      4  C   UNL     1       1.267  -3.590   0.981  0.00  0.00    +0.000 A 
ATOM      5  C   UNL     1       1.424  -3.983   2.319  0.00  0.00    +0.000 A 
ATOM      6  C   UNL     1       2.648  -4.458   2.787  0.00  0.00    +0.000 A 
ATOM      7  F   UNL     1       2.757  -4.826   4.071  0.00  0.00    +0.000 F 
ATOM      8  C   UNL     1       3.767  -4.559   1.963  0.00  0.00    +0.000 A 
ATOM      9  C   UNL     1       3.593  -4.125   0.643  0.00  0.00    +0.000 A 
ATOM     10  N   UNL     1       4.395  -4.095  -0.491  0.00  0.00    +0.000 N 
ENDROOT
BRANCH  10  11
ATOM     11  C   UNL     1       5.178  -5.176  -0.988  0.00  0.00    +0.000 A 
ATOM     12  C   UNL     1       5.070  -6.445  -0.380  0.00  0.00    +0.000 A 
ATOM     13  C   UNL     1       5.681  -7.564  -0.949  0.00  0.00    +0.000 A 
ATOM     14  C   UNL     1       6.423  -7.427  -2.115  0.00  0.00    +0.000 A 
ATOM     15  C   UNL     1       6.564  -6.168  -2.703  0.00  0.00    +0.000 A 
ATOM     16  C   UNL     1       5.939  -5.040  -2.150  0.00  0.00    +0.000 A 
ENDBRANCH  10  11
BRANCH   1  17
ATOM     17  C   UNL     1       4.340  -1.575  -0.849  0.00  0.00    +0.000 C 
BRANCH  17  18
ATOM     18  O   UNL     1       4.743  -0.791  -1.986  0.00  0.00    +0.000 OA
BRANCH  18  25
ATOM     19  C   UNL     1       4.743   1.498  -2.816  0.00  0.00    +0.000 A 
ATOM     20  C   UNL     1       4.591   2.871  -2.554  0.00  0.00    +0.000 A 
ATOM     21  F   UNL     1       4.572   3.773  -3.546  0.00  0.00    +0.000 F 
ATOM     22  C   UNL     1       4.397   3.357  -1.263  0.00  0.00    +0.000 A 
ATOM     23  C   UNL     1       4.390   2.476  -0.198  0.00  0.00    +0.000 A 
ATOM     24  C   UNL     1       4.558   1.111  -0.434  0.00  0.00    +0.000 A 
ATOM     25  C   UNL     1       4.688   0.583  -1.742  0.00  0.00    +0.000 A 
BRANCH  19  27
ATOM     26  N   UNL     1       4.458  -0.077  -4.657  0.00  0.00    +0.000 N 
ATOM     27  C   UNL     1       4.936   1.130  -4.241  0.00  0.00    +0.000 C 
ATOM     28  O   UNL     1       5.485   1.873  -5.045  0.00  0.00    +0.000 OA
ATOM     29  H   UNL     1       4.535  -0.303  -5.637  0.00  0.00    +0.000 HD
ATOM     30  H   UNL     1       4.039  -0.744  -4.021  0.00  0.00    +0.000 HD
ENDBRANCH  19  27
ENDBRANCH  18  25
ENDBRANCH  17  18
ENDBRANCH   1  17
TORSDOF 5
