REMARK  Name = 
REMARK  6 active torsions:
REMARK  status: ('A' for Active; 'I' for Inactive)
REMARK    1  A    between atoms: C_2  and  C_3
REMARK    2  A    between atoms: C_3  and  C_4
REMARK    3  A    between atoms: C_7  and  C_8
REMARK    4  A    between atoms: N_15  and  C_16
REMARK    5  A    between atoms: C_16  and  C_17
REMARK    6  A    between atoms: C_20  and  C_21
REMARK                            x       y       z     vdW  Elec       q    Type
REMARK                         _______ _______ _______ _____ _____    ______ ____
ROOT
ATOM      1  O   UNL     1       2.755   0.982   0.396  0.00  0.00    +0.000 OA
ATOM      2  C   UNL     1       2.216   0.019  -0.140  0.00  0.00    +0.000 C 
ATOM      3  N   UNL     1       2.919  -1.064  -0.624  0.00  0.00    +0.000 N 
ATOM      4  H   UNL     1       2.425  -1.767  -1.161  0.00  0.00    +0.000 HD
ENDROOT
BRANCH   2   5
ATOM      5  C   UNL     1       0.706  -0.102  -0.226  0.00  0.00    +0.000 C 
BRANCH   5   6
ATOM      6  C   UNL     1       0.269  -0.175  -1.633  0.00  0.00    +0.000 A 
ATOM      7  N   UNL     1       0.593  -1.051  -2.562  0.00  0.00    +0.000 NA
ATOM      8  N   UNL     1      -0.175  -0.764  -3.666  0.00  0.00    +0.000 NA
ATOM      9  C   UNL     1      -0.935   0.264  -3.340  0.00  0.00    +0.000 A 
ATOM     10  O   UNL     1      -0.703   0.701  -2.055  0.00  0.00    +0.000 OA
BRANCH   9  11
ATOM     11  C   UNL     1      -2.004   0.920  -4.094  0.00  0.00    +0.000 A 
ATOM     12  C   UNL     1      -2.345   0.470  -5.378  0.00  0.00    +0.000 A 
ATOM     13  C   UNL     1      -3.425   1.032  -6.070  0.00  0.00    +0.000 A 
ATOM     14  C   UNL     1      -4.170   2.055  -5.487  0.00  0.00    +0.000 A 
ATOM     15  C   UNL     1      -3.825   2.532  -4.225  0.00  0.00    +0.000 A 
ATOM     16  C   UNL     1      -2.747   1.970  -3.534  0.00  0.00    +0.000 A 
ENDBRANCH   9  11
ENDBRANCH   5   6
ENDBRANCH   2   5
BRANCH   3  17
ATOM     17  C   UNL     1       4.363  -1.128  -0.621  0.00  0.00    +0.000 C 
BRANCH  17  18
ATOM     18  C   UNL     1       4.840  -2.357   0.103  0.00  0.00    +0.000 A 
ATOM     19  C   UNL     1       5.132  -2.310   1.470  0.00  0.00    +0.000 A 
ATOM     20  C   UNL     1       5.605  -3.446   2.143  0.00  0.00    +0.000 A 
ATOM     21  C   UNL     1       5.810  -4.665   1.470  0.00  0.00    +0.000 A 
ATOM     22  C   UNL     1       5.467  -4.694   0.106  0.00  0.00    +0.000 A 
ATOM     23  F   UNL     1       5.619  -5.816  -0.614  0.00  0.00    +0.000 F 
ATOM     24  C   UNL     1       4.986  -3.575  -0.568  0.00  0.00    +0.000 A 
BRANCH  21  25
ATOM     25  C   UNL     1       6.392  -5.839   2.154  0.00  0.00    +0.000 A 
ATOM     26  C   UNL     1       7.329  -5.714   3.192  0.00  0.00    +0.000 A 
ATOM     27  C   UNL     1       7.902  -6.844   3.774  0.00  0.00    +0.000 A 
ATOM     28  C   UNL     1       7.524  -8.088   3.304  0.00  0.00    +0.000 A 
ATOM     29  N   UNL     1       6.620  -8.271   2.327  0.00  0.00    +0.000 NA
ATOM     30  C   UNL     1       6.081  -7.150   1.782  0.00  0.00    +0.000 A 
ENDBRANCH  21  25
ENDBRANCH  17  18
ENDBRANCH   3  17
TORSDOF 6
