REMARK  Name = 
REMARK  7 active torsions:
REMARK  status: ('A' for Active; 'I' for Inactive)
REMARK    1  A    between atoms: C_1  and  O_2
REMARK    2  A    between atoms: O_2  and  C_3
REMARK    3  A    between atoms: C_3  and  C_5
REMARK    4  A    between atoms: C_11  and  C_12
REMARK    5  A    between atoms: C_12  and  C_14
REMARK    6  A    between atoms: C_14  and  N_15
REMARK    7  A    between atoms: C_17  and  C_18
REMARK                            x       y       z     vdW  Elec       q    Type
REMARK                         _______ _______ _______ _____ _____    ______ ____
ROOT
ATOM      1  C   UNL     1       7.385  -3.763   2.693  0.00  0.00    +0.000 C 
ATOM      2  O   UNL     1       8.381  -4.425   2.983  0.00  0.00    +0.000 OA
ENDROOT
BRANCH   1   9
ATOM      3  C   UNL     1      11.024  -1.048   1.324  0.00  0.00    +0.000 A 
ATOM      4  C   UNL     1      10.587   0.188   0.840  0.00  0.00    +0.000 A 
ATOM      5  C   UNL     1       9.226   0.499   0.788  0.00  0.00    +0.000 A 
ATOM      6  C   UNL     1       8.318  -0.466   1.240  0.00  0.00    +0.000 A 
ATOM      7  N   UNL     1       6.947  -0.419   1.284  0.00  0.00    +0.000 N 
ATOM      8  C   UNL     1       6.451  -1.582   1.807  0.00  0.00    +0.000 A 
ATOM      9  C   UNL     1       7.511  -2.419   2.112  0.00  0.00    +0.000 A 
ATOM     10  C   UNL     1       8.706  -1.710   1.743  0.00  0.00    +0.000 A 
ATOM     11  C   UNL     1      10.089  -2.000   1.782  0.00  0.00    +0.000 A 
ATOM     12  H   UNL     1       6.388   0.364   0.972  0.00  0.00    +0.000 HD
BRANCH   3  13
ATOM     13  C   UNL     1      12.465  -1.421   1.379  0.00  0.00    +0.000 C 
ATOM     14  O   UNL     1      12.862  -2.506   1.763  0.00  0.00    +0.000 OA
BRANCH  13  16
ATOM     15  C   UNL     1      14.650  -0.696   1.032  0.00  0.00    +0.000 C 
ATOM     16  O   UNL     1      13.254  -0.398   0.957  0.00  0.00    +0.000 OA
ENDBRANCH  13  16
ENDBRANCH   3  13
ENDBRANCH   1   9
BRANCH   1  17
ATOM     17  C   UNL     1       6.002  -4.316   2.954  0.00  0.00    +0.000 C 
BRANCH  17  18
ATOM     18  N   UNL     1       5.470  -3.932   4.249  0.00  0.00    +0.000 N 
ATOM     19  C   UNL     1       6.153  -3.716   5.412  0.00  0.00    +0.000 A 
ATOM     20  C   UNL     1       5.212  -3.397   6.370  0.00  0.00    +0.000 A 
ATOM     21  C   UNL     1       3.981  -3.489   5.681  0.00  0.00    +0.000 A 
ATOM     22  N   UNL     1       4.133  -3.807   4.393  0.00  0.00    +0.000 NA
BRANCH  20  23
ATOM     23  C   UNL     1       5.503  -3.061   7.750  0.00  0.00    +0.000 A 
ATOM     24  C   UNL     1       6.715  -2.441   8.103  0.00  0.00    +0.000 A 
ATOM     25  C   UNL     1       6.968  -2.074   9.428  0.00  0.00    +0.000 A 
ATOM     26  C   UNL     1       6.014  -2.332  10.403  0.00  0.00    +0.000 A 
ATOM     27  F   UNL     1       6.253  -1.968  11.670  0.00  0.00    +0.000 F 
ATOM     28  C   UNL     1       4.819  -2.957  10.068  0.00  0.00    +0.000 A 
ATOM     29  F   UNL     1       3.901  -3.206  11.011  0.00  0.00    +0.000 F 
ATOM     30  C   UNL     1       4.557  -3.323   8.751  0.00  0.00    +0.000 A 
ENDBRANCH  20  23
ENDBRANCH  17  18
ENDBRANCH   1  17
TORSDOF 6
