REMARK  Name = 
REMARK  7 active torsions:
REMARK  status: ('A' for Active; 'I' for Inactive)
REMARK    1  A    between atoms: C_1  and  C_2
REMARK    2  A    between atoms: N_4  and  C_5
REMARK    3  A    between atoms: C_12  and  C_13
REMARK    4  A    between atoms: N_15  and  C_16
REMARK    5  A    between atoms: C_19  and  O_20
REMARK    6  A    between atoms: O_20  and  C_21
REMARK    7  A    between atoms: C_26  and  C_27
REMARK                            x       y       z     vdW  Elec       q    Type
REMARK                         _______ _______ _______ _____ _____    ______ ____
ROOT
ATOM      1  C   UNL     1       2.624  -2.501  -0.075  0.00  0.00    +0.000 C 
ATOM      2  O   UNL     1       1.444  -2.614  -0.390  0.00  0.00    +0.000 OA
ATOM      3  N   UNL     1       3.489  -3.563   0.141  0.00  0.00    +0.000 N 
ATOM      4  H   UNL     1       4.399  -3.366   0.532  0.00  0.00    +0.000 HD
ENDROOT
BRANCH   1  10
ATOM      5  C   UNL     1       0.979   0.199  -0.311  0.00  0.00    +0.000 C 
ATOM      6  C   UNL     1       2.414   0.040   0.053  0.00  0.00    +0.000 A 
ATOM      7  N   UNL     1       3.157   1.110   0.344  0.00  0.00    +0.000 NA
ATOM      8  N   UNL     1       4.402   0.627   0.561  0.00  0.00    +0.000 N 
ATOM      9  C   UNL     1       4.439  -0.749   0.448  0.00  0.00    +0.000 A 
ATOM     10  C   UNL     1       3.161  -1.167   0.142  0.00  0.00    +0.000 A 
BRANCH   8  11
ATOM     11  C   UNL     1       5.472   1.512   0.850  0.00  0.00    +0.000 A 
ATOM     12  C   UNL     1       5.210   2.876   1.018  0.00  0.00    +0.000 A 
ATOM     13  C   UNL     1       6.273   3.718   1.288  0.00  0.00    +0.000 A 
ATOM     14  N   UNL     1       7.552   3.299   1.390  0.00  0.00    +0.000 NA
ATOM     15  C   UNL     1       7.778   1.980   1.219  0.00  0.00    +0.000 A 
ATOM     16  C   UNL     1       6.785   1.052   0.957  0.00  0.00    +0.000 A 
ENDBRANCH   8  11
ENDBRANCH   1  10
BRANCH   3  17
ATOM     17  C   UNL     1       3.128  -4.926   0.006  0.00  0.00    +0.000 A 
ATOM     18  C   UNL     1       1.951  -5.326  -0.629  0.00  0.00    +0.000 A 
ATOM     19  C   UNL     1       1.572  -6.662  -0.673  0.00  0.00    +0.000 A 
ATOM     20  C   UNL     1       2.409  -7.646  -0.158  0.00  0.00    +0.000 A 
ATOM     21  C   UNL     1       3.599  -7.268   0.469  0.00  0.00    +0.000 A 
ATOM     22  C   UNL     1       3.964  -5.913   0.543  0.00  0.00    +0.000 A 
BRANCH  20  23
ATOM     23  O   UNL     1       2.095  -8.987  -0.197  0.00  0.00    +0.000 OA
BRANCH  23  24
ATOM     24  C   UNL     1       1.437  -9.459  -1.332  0.00  0.00    +0.000 A 
ATOM     25  N   UNL     1       1.665  -8.835  -2.519  0.00  0.00    +0.000 NA
ATOM     26  C   UNL     1       0.986  -9.272  -3.599  0.00  0.00    +0.000 A 
ATOM     27  C   UNL     1       0.118 -10.347  -3.566  0.00  0.00    +0.000 A 
ATOM     28  C   UNL     1      -0.071 -11.004  -2.351  0.00  0.00    +0.000 A 
ATOM     29  C   UNL     1       0.595 -10.556  -1.204  0.00  0.00    +0.000 A 
BRANCH  29  30
ATOM     30  C   UNL     1       0.387 -11.203   0.051  0.00  0.00    +0.000 C 
ATOM     31  N   UNL     1       0.189 -11.755   1.054  0.00  0.00    +0.000 NA
ENDBRANCH  29  30
ENDBRANCH  23  24
ENDBRANCH  20  23
ENDBRANCH   3  17
TORSDOF 6
