REMARK  Name = 
REMARK  5 active torsions:
REMARK  status: ('A' for Active; 'I' for Inactive)
REMARK    1  A    between atoms: C_2  and  C_3
REMARK    2  A    between atoms: C_3  and  C_4
REMARK    3  A    between atoms: C_3  and  C_10
REMARK    4  A    between atoms: C_13  and  N_14
REMARK    5  A    between atoms: C_15  and  C_17
REMARK                            x       y       z     vdW  Elec       q    Type
REMARK                         _______ _______ _______ _____ _____    ______ ____
ROOT
ATOM      1  N   UNL     1       5.264   3.875  -4.065  0.00  0.00    +0.000 N 
ATOM      2  C   UNL     1       4.863   5.194  -4.124  0.00  0.00    +0.000 C 
ATOM      3  O   UNL     1       4.144   5.757  -3.301  0.00  0.00    +0.000 OA
ATOM      4  H   UNL     1       5.836   3.546  -4.845  0.00  0.00    +0.000 HD
ENDROOT
BRANCH   2   5
ATOM      5  C   UNL     1       5.376   5.980  -5.292  0.00  0.00    +0.000 A 
ATOM      6  C   UNL     1       4.924   7.244  -5.393  0.00  0.00    +0.000 A 
ATOM      7  N   UNL     1       5.386   8.112  -6.349  0.00  0.00    +0.000 N 
ATOM      8  C   UNL     1       6.372   7.806  -7.258  0.00  0.00    +0.000 A 
ATOM      9  O   UNL     1       6.793   8.624  -8.065  0.00  0.00    +0.000 OA
ATOM     10  C   UNL     1       6.895   6.426  -7.202  0.00  0.00    +0.000 A 
ATOM     11  C   UNL     1       7.907   6.005  -8.064  0.00  0.00    +0.000 A 
ATOM     12  C   UNL     1       8.357   4.692  -7.986  0.00  0.00    +0.000 A 
ATOM     13  C   UNL     1       7.763   3.847  -7.063  0.00  0.00    +0.000 A 
ATOM     14  N   UNL     1       6.787   4.230  -6.206  0.00  0.00    +0.000 NA
ATOM     15  C   UNL     1       6.375   5.527  -6.272  0.00  0.00    +0.000 A 
ATOM     16  H   UNL     1       5.033   9.064  -6.378  0.00  0.00    +0.000 HD
ENDBRANCH   2   5
BRANCH   1  20
ATOM     17  C   UNL     1       4.337   0.982  -1.099  0.00  0.00    +0.000 A 
ATOM     18  C   UNL     1       3.940   2.317  -0.943  0.00  0.00    +0.000 A 
ATOM     19  C   UNL     1       4.251   3.278  -1.903  0.00  0.00    +0.000 A 
ATOM     20  C   UNL     1       4.964   2.942  -3.051  0.00  0.00    +0.000 A 
ATOM     21  C   UNL     1       5.395   1.618  -3.203  0.00  0.00    +0.000 A 
ATOM     22  C   UNL     1       5.079   0.643  -2.241  0.00  0.00    +0.000 A 
BRANCH  17  23
ATOM     23  C   UNL     1       3.842  -0.026  -0.068  0.00  0.00    +0.000 C 
BRANCH  23  24
ATOM     24  C   UNL     1       4.806  -1.160   0.264  0.00  0.00    +0.000 A 
ATOM     25  C   UNL     1       4.692  -2.431  -0.325  0.00  0.00    +0.000 A 
ATOM     26  C   UNL     1       5.542  -3.470   0.054  0.00  0.00    +0.000 A 
ATOM     27  C   UNL     1       6.528  -3.252   1.012  0.00  0.00    +0.000 A 
ATOM     28  C   UNL     1       6.676  -1.991   1.584  0.00  0.00    +0.000 A 
ATOM     29  C   UNL     1       5.825  -0.949   1.210  0.00  0.00    +0.000 A 
ENDBRANCH  23  24
BRANCH  23  31
ATOM     30  N   UNL     1       1.407  -0.863  -0.677  0.00  0.00    +0.000 NA
ATOM     31  C   UNL     1       2.477  -0.496  -0.415  0.00  0.00    +0.000 C 
ENDBRANCH  23  31
ENDBRANCH  17  23
ENDBRANCH   1  20
TORSDOF 5
