REMARK  Name = 
REMARK  5 active torsions:
REMARK  status: ('A' for Active; 'I' for Inactive)
REMARK    1  A    between atoms: C_1  and  C_2
REMARK    2  A    between atoms: C_9  and  C_10
REMARK    3  A    between atoms: N_12  and  C_13
REMARK    4  A    between atoms: C_19  and  N_20
REMARK    5  A    between atoms: C_21  and  C_23
REMARK                            x       y       z     vdW  Elec       q    Type
REMARK                         _______ _______ _______ _____ _____    ______ ____
ROOT
ATOM      1  C   UNL     1       4.676   6.122   0.280  0.00  0.00    +0.000 A 
ATOM      2  C   UNL     1       3.443   6.288   0.940  0.00  0.00    +0.000 A 
ATOM      3  C   UNL     1       2.703   7.453   0.777  0.00  0.00    +0.000 A 
ATOM      4  F   UNL     1       1.563   7.615   1.462  0.00  0.00    +0.000 F 
ATOM      5  C   UNL     1       3.132   8.448  -0.076  0.00  0.00    +0.000 A 
ATOM      6  C   UNL     1       4.328   8.276  -0.771  0.00  0.00    +0.000 A 
ATOM      7  C   UNL     1       5.135   7.133  -0.602  0.00  0.00    +0.000 A 
ENDROOT
BRANCH   1  10
ATOM      8  C   UNL     1       6.710   4.858   0.905  0.00  0.00    +0.000 C 
ATOM      9  O   UNL     1       7.495   5.794   0.849  0.00  0.00    +0.000 OA
ATOM     10  N   UNL     1       5.362   4.916   0.592  0.00  0.00    +0.000 N 
ATOM     11  H   UNL     1       4.791   4.186   1.004  0.00  0.00    +0.000 HD
BRANCH   8  20
ATOM     12  C   UNL     1       9.815   5.408   5.246  0.00  0.00    +0.000 C 
ATOM     13  C   UNL     1       9.359   4.274   4.388  0.00  0.00    +0.000 A 
ATOM     14  C   UNL     1       9.782   2.976   4.590  0.00  0.00    +0.000 A 
ATOM     15  N   UNL     1       9.383   1.929   3.834  0.00  0.00    +0.000 NA
ATOM     16  C   UNL     1       8.548   2.134   2.815  0.00  0.00    +0.000 A 
ATOM     17  N   UNL     1       8.192   1.061   2.107  0.00  0.00    +0.000 NA
ATOM     18  C   UNL     1       7.362   1.199   1.057  0.00  0.00    +0.000 A 
ATOM     19  C   UNL     1       6.833   2.402   0.655  0.00  0.00    +0.000 A 
ATOM     20  C   UNL     1       7.192   3.531   1.387  0.00  0.00    +0.000 A 
ATOM     21  C   UNL     1       8.063   3.415   2.502  0.00  0.00    +0.000 A 
ATOM     22  C   UNL     1       8.475   4.485   3.334  0.00  0.00    +0.000 A 
ENDBRANCH   8  20
ENDBRANCH   1  10
BRANCH   7  23
ATOM     23  N   UNL     1       6.314   6.979  -1.381  0.00  0.00    +0.000 N 
ATOM     24  C   UNL     1       6.974   8.000  -2.062  0.00  0.00    +0.000 C 
ATOM     25  O   UNL     1       6.698   9.196  -1.990  0.00  0.00    +0.000 OA
ATOM     26  H   UNL     1       6.807   6.090  -1.332  0.00  0.00    +0.000 HD
BRANCH  24  27
ATOM     27  C   UNL     1       8.109   7.600  -2.952  0.00  0.00    +0.000 A 
ATOM     28  C   UNL     1       8.803   8.616  -3.613  0.00  0.00    +0.000 A 
ATOM     29  C   UNL     1       9.799   8.274  -4.520  0.00  0.00    +0.000 A 
ATOM     30  C   UNL     1      10.073   6.928  -4.732  0.00  0.00    +0.000 A 
ATOM     31  C   UNL     1       9.341   5.982  -4.025  0.00  0.00    +0.000 A 
ATOM     32  N   UNL     1       8.357   6.278  -3.137  0.00  0.00    +0.000 NA
ENDBRANCH  24  27
ENDBRANCH   7  23
TORSDOF 4
