REMARK  Name = 
REMARK  6 active torsions:
REMARK  status: ('A' for Active; 'I' for Inactive)
REMARK    1  A    between atoms: C_2  and  C_10
REMARK    2  A    between atoms: N_3  and  C_4
REMARK    3  A    between atoms: C_13  and  C_14
REMARK    4  A    between atoms: C_14  and  N_15
REMARK    5  A    between atoms: C_16  and  C_18
REMARK    6  A    between atoms: C_22  and  C_23
REMARK                            x       y       z     vdW  Elec       q    Type
REMARK                         _______ _______ _______ _____ _____    ______ ____
ROOT
ATOM      1  C   UNL     1       3.080   0.824   1.028  0.00  0.00    +0.000 A 
ATOM      2  C   UNL     1       2.607   0.876   2.347  0.00  0.00    +0.000 A 
ATOM      3  C   UNL     1       3.333   1.540   3.334  0.00  0.00    +0.000 A 
ATOM      4  C   UNL     1       4.535   2.182   3.014  0.00  0.00    +0.000 A 
ATOM      5  C   UNL     1       5.016   2.107   1.693  0.00  0.00    +0.000 A 
ATOM      6  C   UNL     1       4.291   1.436   0.699  0.00  0.00    +0.000 A 
ENDROOT
BRANCH   1   8
ATOM      7  O   UNL     1       0.992   0.342   0.160  0.00  0.00    +0.000 OA
ATOM      8  C   UNL     1       2.202   0.174   0.025  0.00  0.00    +0.000 C 
ATOM      9  N   UNL     1       2.821  -0.621  -0.925  0.00  0.00    +0.000 N 
ATOM     10  H   UNL     1       3.816  -0.780  -0.828  0.00  0.00    +0.000 HD
BRANCH   9  11
ATOM     11  C   UNL     1       2.134  -1.434  -1.863  0.00  0.00    +0.000 A 
ATOM     12  C   UNL     1       0.773  -1.309  -2.146  0.00  0.00    +0.000 A 
ATOM     13  C   UNL     1       0.146  -2.210  -3.004  0.00  0.00    +0.000 A 
ATOM     14  C   UNL     1       0.910  -3.207  -3.582  0.00  0.00    +0.000 A 
ATOM     15  N   UNL     1       2.238  -3.340  -3.380  0.00  0.00    +0.000 NA
ATOM     16  C   UNL     1       2.815  -2.450  -2.532  0.00  0.00    +0.000 A 
ENDBRANCH   9  11
ENDBRANCH   1   8
BRANCH   4  17
ATOM     17  C   UNL     1       5.274   2.964   4.073  0.00  0.00    +0.000 C 
BRANCH  17  18
ATOM     18  N   UNL     1       6.187   2.143   4.822  0.00  0.00    +0.000 N 
ATOM     19  C   UNL     1       7.505   1.995   4.450  0.00  0.00    +0.000 C 
ATOM     20  O   UNL     1       7.976   2.560   3.467  0.00  0.00    +0.000 OA
ATOM     21  H   UNL     1       5.870   1.637   5.640  0.00  0.00    +0.000 HD
BRANCH  19  22
ATOM     22  C   UNL     1       8.276   1.086   5.305  0.00  0.00    +0.000 A 
ATOM     23  N   UNL     1       7.938   0.905   6.596  0.00  0.00    +0.000 NA
ATOM     24  O   UNL     1       8.892   0.056   7.122  0.00  0.00    +0.000 OA
ATOM     25  C   UNL     1       9.764  -0.305   6.152  0.00  0.00    +0.000 A 
ATOM     26  C   UNL     1       9.421   0.301   4.965  0.00  0.00    +0.000 A 
BRANCH  26  27
ATOM     27  C   UNL     1      10.116   0.103   3.703  0.00  0.00    +0.000 A 
ATOM     28  C   UNL     1       9.399   0.104   2.498  0.00  0.00    +0.000 A 
ATOM     29  C   UNL     1      10.060   0.035   1.270  0.00  0.00    +0.000 A 
ATOM     30  C   UNL     1      11.446  -0.075   1.234  0.00  0.00    +0.000 A 
ATOM     31  C   UNL     1      12.168  -0.137   2.425  0.00  0.00    +0.000 A 
ATOM     32  C   UNL     1      11.508  -0.050   3.655  0.00  0.00    +0.000 A 
ENDBRANCH  26  27
ENDBRANCH  19  22
ENDBRANCH  17  18
ENDBRANCH   4  17
TORSDOF 6
