REMARK  Name = 
REMARK  11 active torsions:
REMARK  status: ('A' for Active; 'I' for Inactive)
REMARK    1  A    between atoms: C_1  and  O_2
REMARK    2  A    between atoms: O_2  and  C_3
REMARK    3  A    between atoms: C_6  and  C_7
REMARK    4  A    between atoms: C_7  and  C_8
REMARK    5  A    between atoms: C_8  and  N_9
REMARK    6  A    between atoms: C_10  and  C_12
REMARK    7  A    between atoms: C_13  and  C_14
REMARK    8  A    between atoms: N_15  and  C_16
REMARK    9  A    between atoms: C_16  and  C_17
REMARK   10  A    between atoms: C_17  and  O_18
REMARK   11  A    between atoms: O_18  and  C_19
REMARK                            x       y       z     vdW  Elec       q    Type
REMARK                         _______ _______ _______ _____ _____    ______ ____
ROOT
ATOM      1  N   UNL     1       5.052  -0.198   7.493  0.00  0.00    +0.000 N 
ATOM      2  C   UNL     1       4.604  -0.905   8.595  0.00  0.00    +0.000 C 
ATOM      3  O   UNL     1       3.779  -1.812   8.508  0.00  0.00    +0.000 OA
ATOM      4  H   UNL     1       5.702   0.566   7.659  0.00  0.00    +0.000 HD
ENDROOT
BRANCH   2   5
ATOM      5  C   UNL     1       5.184  -0.472   9.863  0.00  0.00    +0.000 A 
ATOM      6  C   UNL     1       4.964  -0.963  11.146  0.00  0.00    +0.000 A 
ATOM      7  C   UNL     1       4.112  -2.065  11.648  0.00  0.00    +0.000 C 
ATOM      8  N   UNL     1       5.746  -0.165  11.945  0.00  0.00    +0.000 N 
ATOM      9  N   UNL     1       6.416   0.739  11.196  0.00  0.00    +0.000 NA
ATOM     10  N   UNL     1       6.084   0.564   9.933  0.00  0.00    +0.000 NA
BRANCH   8  11
ATOM     11  C   UNL     1       5.918  -0.162  13.399  0.00  0.00    +0.000 C 
BRANCH  11  12
ATOM     12  C   UNL     1       6.926   0.915  13.800  0.00  0.00    +0.000 C 
BRANCH  12  13
ATOM     13  O   UNL     1       7.214   1.053  15.195  0.00  0.00    +0.000 OA
BRANCH  13  14
ATOM     14  C   UNL     1       8.151   2.049  15.433  0.00  0.00    +0.000 A 
ATOM     15  C   UNL     1       8.746   2.845  14.437  0.00  0.00    +0.000 A 
ATOM     16  C   UNL     1       9.689   3.820  14.760  0.00  0.00    +0.000 A 
ATOM     17  C   UNL     1      10.044   4.008  16.084  0.00  0.00    +0.000 A 
ATOM     18  F   UNL     1      10.948   4.947  16.394  0.00  0.00    +0.000 F 
ATOM     19  C   UNL     1       9.466   3.240  17.091  0.00  0.00    +0.000 A 
ATOM     20  C   UNL     1       8.518   2.259  16.766  0.00  0.00    +0.000 A 
ENDBRANCH  13  14
ENDBRANCH  12  13
ENDBRANCH  11  12
ENDBRANCH   8  11
ENDBRANCH   2   5
BRANCH   1  21
ATOM     21  C   UNL     1       4.534  -0.479   6.167  0.00  0.00    +0.000 C 
BRANCH  21  22
ATOM     22  C   UNL     1       5.157   0.405   5.087  0.00  0.00    +0.000 C 
BRANCH  22  26
ATOM     23  C   UNL     1       3.546  -0.289   1.120  0.00  0.00    +0.000 A 
ATOM     24  C   UNL     1       2.968   0.632   1.994  0.00  0.00    +0.000 A 
ATOM     25  C   UNL     1       3.502   0.824   3.265  0.00  0.00    +0.000 A 
ATOM     26  C   UNL     1       4.625   0.100   3.698  0.00  0.00    +0.000 A 
ATOM     27  C   UNL     1       5.202  -0.878   2.839  0.00  0.00    +0.000 A 
ATOM     28  C   UNL     1       6.304  -1.682   3.215  0.00  0.00    +0.000 A 
ATOM     29  C   UNL     1       6.863  -2.626   2.350  0.00  0.00    +0.000 A 
ATOM     30  C   UNL     1       6.333  -2.798   1.082  0.00  0.00    +0.000 A 
ATOM     31  C   UNL     1       5.243  -2.029   0.683  0.00  0.00    +0.000 A 
ATOM     32  C   UNL     1       4.654  -1.066   1.537  0.00  0.00    +0.000 A 
BRANCH  23  34
ATOM     33  C   UNL     1       2.388   0.558  -0.778  0.00  0.00    +0.000 C 
ATOM     34  O   UNL     1       3.051  -0.530  -0.142  0.00  0.00    +0.000 OA
ENDBRANCH  23  34
ENDBRANCH  22  26
ENDBRANCH  21  22
ENDBRANCH   1  21
TORSDOF 9
