REMARK  Name = 
REMARK  5 active torsions:
REMARK  status: ('A' for Active; 'I' for Inactive)
REMARK    1  A    between atoms: C_1  and  N_2
REMARK    2  A    between atoms: C_3  and  C_5
REMARK    3  A    between atoms: C_8  and  C_9
REMARK    4  A    between atoms: N_11  and  C_12
REMARK    5  A    between atoms: C_15  and  C_16
REMARK                            x       y       z     vdW  Elec       q    Type
REMARK                         _______ _______ _______ _____ _____    ______ ____
ROOT
ATOM      1  C   UNL     1       8.941  -0.854   0.515  0.00  0.00    +0.000 C 
ATOM      2  O   UNL     1       9.380  -1.892   0.031  0.00  0.00    +0.000 OA
ATOM      3  N   UNL     1       9.684   0.264   0.866  0.00  0.00    +0.000 N 
ATOM      4  H   UNL     1       9.244   0.971   1.441  0.00  0.00    +0.000 HD
ENDROOT
BRANCH   1   8
ATOM      5  C   UNL     1       4.696  -0.970   1.214  0.00  0.00    +0.000 A 
ATOM      6  C   UNL     1       5.487  -2.118   1.339  0.00  0.00    +0.000 A 
ATOM      7  C   UNL     1       6.867  -2.045   1.132  0.00  0.00    +0.000 A 
ATOM      8  C   UNL     1       7.483  -0.825   0.810  0.00  0.00    +0.000 A 
ATOM      9  C   UNL     1       6.704   0.326   0.691  0.00  0.00    +0.000 A 
ATOM     10  C   UNL     1       5.321   0.240   0.892  0.00  0.00    +0.000 A 
ATOM     11  F   UNL     1       4.603   1.366   0.745  0.00  0.00    +0.000 F 
BRANCH   5  14
ATOM     12  C   UNL     1       1.026  -0.008   1.429  0.00  0.00    +0.000 C 
ATOM     13  N   UNL     1       2.458   0.029   1.279  0.00  0.00    +0.000 N 
ATOM     14  C   UNL     1       3.222  -1.109   1.413  0.00  0.00    +0.000 C 
ATOM     15  O   UNL     1       2.741  -2.203   1.682  0.00  0.00    +0.000 OA
ATOM     16  H   UNL     1       2.901   0.916   1.073  0.00  0.00    +0.000 HD
ENDBRANCH   5  14
ENDBRANCH   1   8
BRANCH   3  17
ATOM     17  C   UNL     1      11.086   0.386   0.687  0.00  0.00    +0.000 A 
ATOM     18  C   UNL     1      11.815  -0.437  -0.173  0.00  0.00    +0.000 A 
ATOM     19  C   UNL     1      13.205  -0.326  -0.278  0.00  0.00    +0.000 A 
ATOM     20  C   UNL     1      13.908   0.613   0.481  0.00  0.00    +0.000 A 
ATOM     21  C   UNL     1      13.175   1.466   1.317  0.00  0.00    +0.000 A 
ATOM     22  C   UNL     1      11.776   1.365   1.410  0.00  0.00    +0.000 A 
BRANCH  20  23
ATOM     23  C   UNL     1      15.362   0.690   0.441  0.00  0.00    +0.000 A 
ATOM     24  C   UNL     1      16.203  -0.111  -0.306  0.00  0.00    +0.000 A 
ATOM     25  N   UNL     1      17.476   0.281   0.017  0.00  0.00    +0.000 N 
ATOM     26  C   UNL     1      18.697  -0.207  -0.442  0.00  0.00    +0.000 A 
ATOM     27  C   UNL     1      19.835   0.324   0.037  0.00  0.00    +0.000 A 
ATOM     28  C   UNL     1      19.750   1.388   1.028  0.00  0.00    +0.000 A 
ATOM     29  C   UNL     1      18.563   1.857   1.461  0.00  0.00    +0.000 A 
ATOM     30  C   UNL     1      17.355   1.305   0.949  0.00  0.00    +0.000 A 
ATOM     31  N   UNL     1      16.093   1.575   1.206  0.00  0.00    +0.000 NA
ENDBRANCH  20  23
ENDBRANCH   3  17
TORSDOF 4
