REMARK  Name = 
REMARK  6 active torsions:
REMARK  status: ('A' for Active; 'I' for Inactive)
REMARK    1  A    between atoms: C_2  and  C_18
REMARK    2  A    between atoms: N_3  and  C_4
REMARK    3  A    between atoms: C_4  and  C_5
REMARK    4  A    between atoms: C_6  and  C_7
REMARK    5  A    between atoms: N_20  and  C_21
REMARK    6  A    between atoms: C_28  and  O_29
REMARK                            x       y       z     vdW  Elec       q    Type
REMARK                         _______ _______ _______ _____ _____    ______ ____
ROOT
ATOM      1  O   UNL     1       1.026   0.122   0.042  0.00  0.00    +0.000 OA
ATOM      2  C   UNL     1       2.250   0.035  -0.058  0.00  0.00    +0.000 C 
ATOM      3  N   UNL     1       3.007  -0.770   0.762  0.00  0.00    +0.000 N 
ATOM      4  H   UNL     1       3.997  -0.839   0.557  0.00  0.00    +0.000 HD
ENDROOT
BRANCH   2   5
ATOM      5  C   UNL     1       3.041   0.824  -1.006  0.00  0.00    +0.000 A 
ATOM      6  N   UNL     1       4.387   0.715  -1.081  0.00  0.00    +0.000 NA
ATOM      7  N   UNL     1       4.763   1.656  -1.990  0.00  0.00    +0.000 N 
ATOM      8  C   UNL     1       3.679   2.330  -2.510  0.00  0.00    +0.000 A 
ATOM      9  C   UNL     1       2.574   1.801  -1.905  0.00  0.00    +0.000 A 
BRANCH   7  10
ATOM     10  C   UNL     1       6.136   1.869  -2.293  0.00  0.00    +0.000 A 
ATOM     11  C   UNL     1       7.112   1.034  -1.728  0.00  0.00    +0.000 A 
ATOM     12  C   UNL     1       8.462   1.234  -2.023  0.00  0.00    +0.000 A 
ATOM     13  C   UNL     1       8.845   2.271  -2.872  0.00  0.00    +0.000 A 
ATOM     14  C   UNL     1       7.882   3.110  -3.429  0.00  0.00    +0.000 A 
ATOM     15  C   UNL     1       6.530   2.910  -3.146  0.00  0.00    +0.000 A 
ENDBRANCH   7  10
BRANCH   9  16
ATOM     16  O   UNL     1       1.317   2.208  -2.135  0.00  0.00    +0.000 OA
ATOM     17  H   UNL     1       1.290   2.894  -2.821  0.00  0.00    +0.000 HD
ENDBRANCH   9  16
ENDBRANCH   2   5
BRANCH   3  18
ATOM     18  C   UNL     1       2.386  -1.570   1.777  0.00  0.00    +0.000 C 
BRANCH  18  19
ATOM     19  C   UNL     1       1.895  -2.875   1.246  0.00  0.00    +0.000 A 
ATOM     20  C   UNL     1       1.117  -3.825   1.890  0.00  0.00    +0.000 A 
ATOM     21  O   UNL     1       0.965  -4.883   1.028  0.00  0.00    +0.000 OA
ATOM     22  C   UNL     1       1.639  -4.505  -0.090  0.00  0.00    +0.000 A 
ATOM     23  N   UNL     1       2.236  -3.340  -0.015  0.00  0.00    +0.000 NA
BRANCH  20  24
ATOM     24  C   UNL     1       0.472  -3.964   3.188  0.00  0.00    +0.000 A 
ATOM     25  C   UNL     1       0.394  -5.221   3.812  0.00  0.00    +0.000 A 
ATOM     26  C   UNL     1      -0.225  -5.360   5.059  0.00  0.00    +0.000 A 
ATOM     27  C   UNL     1      -0.764  -4.246   5.691  0.00  0.00    +0.000 A 
ATOM     28  F   UNL     1      -1.362  -4.382   6.880  0.00  0.00    +0.000 F 
ATOM     29  C   UNL     1      -0.698  -2.995   5.101  0.00  0.00    +0.000 A 
ATOM     30  C   UNL     1      -0.092  -2.868   3.857  0.00  0.00    +0.000 A 
ATOM     31  F   UNL     1      -0.097  -1.650   3.302  0.00  0.00    +0.000 F 
ENDBRANCH  20  24
ENDBRANCH  18  19
ENDBRANCH   3  18
TORSDOF 6
