REMARK  Name = 
REMARK  6 active torsions:
REMARK  status: ('A' for Active; 'I' for Inactive)
REMARK    1  A    between atoms: C_1  and  C_2
REMARK    2  A    between atoms: C_4  and  O_5
REMARK    3  A    between atoms: O_5  and  C_6
REMARK    4  A    between atoms: C_14  and  N_15
REMARK    5  A    between atoms: C_16  and  C_18
REMARK    6  A    between atoms: C_21  and  N_22
REMARK                            x       y       z     vdW  Elec       q    Type
REMARK                         _______ _______ _______ _____ _____    ______ ____
ROOT
ATOM      1  N   UNL     1       1.126  -2.316  -0.044  0.00  0.00    +0.000 N 
ATOM      2  C   UNL     1       0.652  -3.560   0.343  0.00  0.00    +0.000 C 
ATOM      3  O   UNL     1      -0.480  -3.819   0.736  0.00  0.00    +0.000 OA
ATOM      4  H   UNL     1       2.108  -2.243  -0.276  0.00  0.00    +0.000 HD
ENDROOT
BRANCH   1  11
ATOM      5  C   UNL     1       2.545   0.249  -0.471  0.00  0.00    +0.000 C 
ATOM      6  C   UNL     1       1.076   0.121  -0.188  0.00  0.00    +0.000 A 
ATOM      7  C   UNL     1       0.353   1.315  -0.032  0.00  0.00    +0.000 A 
ATOM      8  C   UNL     1      -1.042   1.321  -0.001  0.00  0.00    +0.000 A 
ATOM      9  C   UNL     1      -1.723   0.113   0.042  0.00  0.00    +0.000 A 
ATOM     10  C   UNL     1      -1.009  -1.088   0.036  0.00  0.00    +0.000 A 
ATOM     11  C   UNL     1       0.389  -1.104  -0.069  0.00  0.00    +0.000 A 
BRANCH   8  12
ATOM     12  O   UNL     1      -1.810   2.464  -0.010  0.00  0.00    +0.000 OA
BRANCH  12  13
ATOM     13  C   UNL     1      -1.325   3.590  -0.641  0.00  0.00    +0.000 A 
ATOM     14  C   UNL     1      -0.541   3.562  -1.794  0.00  0.00    +0.000 A 
ATOM     15  C   UNL     1      -0.029   4.758  -2.263  0.00  0.00    +0.000 A 
ATOM     16  N   UNL     1      -0.309   5.956  -1.712  0.00  0.00    +0.000 NA
ATOM     17  C   UNL     1      -1.145   5.959  -0.649  0.00  0.00    +0.000 A 
ATOM     18  C   UNL     1      -1.674   4.813  -0.081  0.00  0.00    +0.000 A 
ENDBRANCH  12  13
ENDBRANCH   8  12
ENDBRANCH   1  11
BRANCH   2  19
ATOM     19  C   UNL     1       1.620  -4.687   0.258  0.00  0.00    +0.000 A 
ATOM     20  C   UNL     1       2.992  -4.529   0.452  0.00  0.00    +0.000 A 
ATOM     21  C   UNL     1       3.850  -5.632   0.330  0.00  0.00    +0.000 A 
ATOM     22  C   UNL     1       3.366  -6.913   0.021  0.00  0.00    +0.000 A 
ATOM     23  C   UNL     1       1.978  -7.060  -0.128  0.00  0.00    +0.000 A 
ATOM     24  C   UNL     1       1.115  -5.964  -0.005  0.00  0.00    +0.000 A 
BRANCH  22  25
ATOM     25  N   UNL     1       4.236  -8.028  -0.143  0.00  0.00    +0.000 N 
ATOM     26  C   UNL     1       3.893  -9.321  -0.523  0.00  0.00    +0.000 A 
ATOM     27  C   UNL     1       4.991 -10.084  -0.587  0.00  0.00    +0.000 A 
ATOM     28  N   UNL     1       6.071  -9.322  -0.252  0.00  0.00    +0.000 N 
ATOM     29  C   UNL     1       5.660  -8.007   0.039  0.00  0.00    +0.000 A 
ATOM     30  O   UNL     1       6.420  -7.111   0.365  0.00  0.00    +0.000 OA
ATOM     31  H   UNL     1       7.035  -9.614  -0.209  0.00  0.00    +0.000 HD
ENDBRANCH  22  25
ENDBRANCH   2  19
TORSDOF 5
