REMARK  Name = 
REMARK  6 active torsions:
REMARK  status: ('A' for Active; 'I' for Inactive)
REMARK    1  A    between atoms: C_2  and  C_18
REMARK    2  A    between atoms: N_3  and  C_4
REMARK    3  A    between atoms: C_9  and  C_10
REMARK    4  A    between atoms: C_10  and  O_11
REMARK    5  A    between atoms: C_10  and  C_12
REMARK    6  A    between atoms: C_21  and  C_22
REMARK                            x       y       z     vdW  Elec       q    Type
REMARK                         _______ _______ _______ _____ _____    ______ ____
ROOT
ATOM      1  O   UNL     1       1.051  -1.185  -0.405  0.00  0.00    +0.000 OA
ATOM      2  C   UNL     1       2.166  -0.714  -0.203  0.00  0.00    +0.000 C 
ATOM      3  N   UNL     1       2.783  -0.646   1.041  0.00  0.00    +0.000 N 
ATOM      4  H   UNL     1       3.653  -0.119   1.110  0.00  0.00    +0.000 HD
ENDROOT
BRANCH   3   5
ATOM      5  C   UNL     1       2.253  -1.164   2.257  0.00  0.00    +0.000 A 
ATOM      6  C   UNL     1       1.205  -2.101   2.238  0.00  0.00    +0.000 A 
ATOM      7  C   UNL     1       0.645  -2.615   3.408  0.00  0.00    +0.000 A 
ATOM      8  C   UNL     1       1.152  -2.236   4.636  0.00  0.00    +0.000 A 
ATOM      9  C   UNL     1       2.211  -1.334   4.687  0.00  0.00    +0.000 A 
ATOM     10  C   UNL     1       2.770  -0.766   3.512  0.00  0.00    +0.000 A 
BRANCH  10  11
ATOM     11  C   UNL     1       3.792   0.346   3.723  0.00  0.00    +0.000 C 
BRANCH  11  12
ATOM     12  C   UNL     1       3.119   1.692   3.988  0.00  0.00    +0.000 A 
ATOM     13  C   UNL     1       2.726   2.065   5.276  0.00  0.00    +0.000 A 
ATOM     14  C   UNL     1       2.023   3.255   5.445  0.00  0.00    +0.000 A 
ATOM     15  C   UNL     1       1.729   4.037   4.336  0.00  0.00    +0.000 A 
ATOM     16  C   UNL     1       2.185   3.615   3.098  0.00  0.00    +0.000 A 
ATOM     17  N   UNL     1       2.889   2.478   2.901  0.00  0.00    +0.000 NA
ENDBRANCH  11  12
BRANCH  11  18
ATOM     18  O   UNL     1       4.683   0.462   2.603  0.00  0.00    +0.000 OA
ATOM     19  H   UNL     1       4.627   1.405   2.346  0.00  0.00    +0.000 HD
ENDBRANCH  11  18
ENDBRANCH  10  11
ENDBRANCH   3   5
BRANCH   2  20
ATOM     20  C   UNL     1       2.885  -0.141  -1.347  0.00  0.00    +0.000 A 
ATOM     21  N   UNL     1       4.143   0.329  -1.326  0.00  0.00    +0.000 NA
ATOM     22  O   UNL     1       4.378   0.820  -2.613  0.00  0.00    +0.000 OA
ATOM     23  C   UNL     1       3.264   0.652  -3.385  0.00  0.00    +0.000 A 
ATOM     24  C   UNL     1       2.317   0.003  -2.640  0.00  0.00    +0.000 A 
BRANCH  23  25
ATOM     25  C   UNL     1       3.255   1.207  -4.730  0.00  0.00    +0.000 A 
ATOM     26  C   UNL     1       4.349   1.847  -5.306  0.00  0.00    +0.000 A 
ATOM     27  C   UNL     1       4.199   2.429  -6.567  0.00  0.00    +0.000 A 
ATOM     28  C   UNL     1       2.972   2.351  -7.207  0.00  0.00    +0.000 A 
ATOM     29  F   UNL     1       2.794   2.924  -8.404  0.00  0.00    +0.000 F 
ATOM     30  C   UNL     1       1.937   1.683  -6.582  0.00  0.00    +0.000 A 
ATOM     31  N   UNL     1       2.052   1.109  -5.360  0.00  0.00    +0.000 NA
ENDBRANCH  23  25
ENDBRANCH   2  20
TORSDOF 6
