REMARK  Name = 
REMARK  8 active torsions:
REMARK  status: ('A' for Active; 'I' for Inactive)
REMARK    1  A    between atoms: C_1  and  C_2
REMARK    2  A    between atoms: C_4  and  C_5
REMARK    3  A    between atoms: N_7  and  C_8
REMARK    4  A    between atoms: C_8  and  C_9
REMARK    5  A    between atoms: C_11  and  O_12
REMARK    6  A    between atoms: O_12  and  C_13
REMARK    7  A    between atoms: N_28  and  C_29
REMARK    8  A    between atoms: N_32  and  C_33
REMARK                            x       y       z     vdW  Elec       q    Type
REMARK                         _______ _______ _______ _____ _____    ______ ____
ROOT
ATOM      1  C   UNL     1       5.263  -2.311   0.276  0.00  0.00    +0.000 C 
ATOM      2  O   UNL     1       6.493  -2.319   0.232  0.00  0.00    +0.000 OA
ATOM      3  N   UNL     1       4.596  -3.511   0.188  0.00  0.00    +0.000 N 
ATOM      4  H   UNL     1       5.213  -4.301   0.104  0.00  0.00    +0.000 HD
ENDROOT
BRANCH   1   8
ATOM      5  C   UNL     1       5.148   2.598  -0.744  0.00  0.00    +0.000 C 
ATOM      6  C   UNL     1       4.492   1.371  -0.155  0.00  0.00    +0.000 A 
ATOM      7  C   UNL     1       5.208   0.161  -0.100  0.00  0.00    +0.000 A 
ATOM      8  C   UNL     1       4.563  -0.988   0.348  0.00  0.00    +0.000 A 
ATOM      9  N   UNL     1       3.302  -0.973   0.819  0.00  0.00    +0.000 NA
ATOM     10  C   UNL     1       2.617   0.196   0.797  0.00  0.00    +0.000 A 
ATOM     11  C   UNL     1       3.154   1.368   0.282  0.00  0.00    +0.000 A 
ATOM     12  C   UNL     1       2.270   2.545   0.178  0.00  0.00    +0.000 A 
ATOM     13  O   UNL     1       2.645   3.547  -0.424  0.00  0.00    +0.000 OA
ATOM     14  N   UNL     1       1.016   2.443   0.753  0.00  0.00    +0.000 N 
ATOM     15  C   UNL     1       0.147   3.607   0.719  0.00  0.00    +0.000 C 
ATOM     16  C   UNL     1       0.498   1.292   1.323  0.00  0.00    +0.000 A 
ATOM     17  O   UNL     1      -0.635   1.269   1.801  0.00  0.00    +0.000 OA
ATOM     18  N   UNL     1       1.311   0.180   1.318  0.00  0.00    +0.000 N 
ATOM     19  C   UNL     1       0.826  -1.065   1.895  0.00  0.00    +0.000 C 
ENDBRANCH   1   8
BRANCH   3  20
ATOM     20  C   UNL     1       3.170  -3.785   0.047  0.00  0.00    +0.000 C 
BRANCH  20  21
ATOM     21  C   UNL     1       2.611  -3.696  -1.360  0.00  0.00    +0.000 A 
ATOM     22  C   UNL     1       3.340  -3.185  -2.431  0.00  0.00    +0.000 A 
ATOM     23  C   UNL     1       2.708  -3.010  -3.666  0.00  0.00    +0.000 A 
ATOM     24  C   UNL     1       1.396  -3.428  -3.829  0.00  0.00    +0.000 A 
ATOM     25  C   UNL     1       0.758  -3.982  -2.736  0.00  0.00    +0.000 A 
ATOM     26  N   UNL     1       1.325  -4.107  -1.514  0.00  0.00    +0.000 NA
BRANCH  23  27
ATOM     27  O   UNL     1       3.322  -2.467  -4.779  0.00  0.00    +0.000 OA
BRANCH  27  28
ATOM     28  C   UNL     1       4.245  -1.463  -4.590  0.00  0.00    +0.000 A 
ATOM     29  C   UNL     1       4.082  -0.468  -3.632  0.00  0.00    +0.000 A 
ATOM     30  C   UNL     1       5.105   0.452  -3.438  0.00  0.00    +0.000 A 
ATOM     31  C   UNL     1       6.275   0.418  -4.180  0.00  0.00    +0.000 A 
ATOM     32  C   UNL     1       6.373  -0.501  -5.207  0.00  0.00    +0.000 A 
ATOM     33  F   UNL     1       7.459  -0.490  -5.989  0.00  0.00    +0.000 F 
ATOM     34  C   UNL     1       5.362  -1.436  -5.429  0.00  0.00    +0.000 A 
ENDBRANCH  27  28
ENDBRANCH  23  27
ENDBRANCH  20  21
ENDBRANCH   3  20
TORSDOF 5
