REMARK  Name = 
REMARK  8 active torsions:
REMARK  status: ('A' for Active; 'I' for Inactive)
REMARK    1  A    between atoms: C_1  and  C_2
REMARK    2  A    between atoms: N_10  and  C_11
REMARK    3  A    between atoms: C_11  and  C_12
REMARK    4  A    between atoms: C_12  and  N_13
REMARK    5  A    between atoms: C_14  and  C_16
REMARK    6  A    between atoms: C_19  and  S_20
REMARK    7  A    between atoms: S_20  and  C_21
REMARK    8  A    between atoms: C_21  and  C_22
REMARK                            x       y       z     vdW  Elec       q    Type
REMARK                         _______ _______ _______ _____ _____    ______ ____
ROOT
ATOM      1  N   UNL     1       4.745  -5.090   0.108  0.00  0.00    +0.000 N 
ATOM      2  C   UNL     1       3.991  -6.248   0.049  0.00  0.00    +0.000 C 
ATOM      3  O   UNL     1       2.769  -6.259  -0.034  0.00  0.00    +0.000 OA
ATOM      4  H   UNL     1       5.739  -5.148  -0.071  0.00  0.00    +0.000 HD
ENDROOT
BRANCH   2   5
ATOM      5  C   UNL     1       4.759  -7.520   0.046  0.00  0.00    +0.000 A 
ATOM      6  C   UNL     1       5.992  -7.610   0.693  0.00  0.00    +0.000 A 
ATOM      7  C   UNL     1       6.718  -8.801   0.651  0.00  0.00    +0.000 A 
ATOM      8  C   UNL     1       6.215  -9.931  -0.002  0.00  0.00    +0.000 A 
ATOM      9  C   UNL     1       4.965  -9.843  -0.629  0.00  0.00    +0.000 A 
ATOM     10  C   UNL     1       4.238  -8.645  -0.603  0.00  0.00    +0.000 A 
BRANCH   8  11
ATOM     11  S   UNL     1       7.121 -11.472  -0.107  0.00  0.00    +0.000 S 
BRANCH  11  12
ATOM     12  C   UNL     1       8.120 -11.418   1.415  0.00  0.00    +0.000 C 
BRANCH  12  13
ATOM     13  C   UNL     1       9.054 -12.582   1.542  0.00  0.00    +0.000 A 
ATOM     14  C   UNL     1       8.665 -13.776   2.152  0.00  0.00    +0.000 A 
ATOM     15  C   UNL     1       9.588 -14.808   2.288  0.00  0.00    +0.000 A 
ATOM     16  C   UNL     1      10.871 -14.612   1.804  0.00  0.00    +0.000 A 
ATOM     17  N   UNL     1      11.281 -13.478   1.199  0.00  0.00    +0.000 NA
ATOM     18  C   UNL     1      10.363 -12.495   1.074  0.00  0.00    +0.000 A 
ENDBRANCH  12  13
ENDBRANCH  11  12
ENDBRANCH   8  11
ENDBRANCH   2   5
BRANCH   1  19
ATOM     19  C   UNL     1       4.097  -3.793   0.069  0.00  0.00    +0.000 C 
BRANCH  19  20
ATOM     20  C   UNL     1       5.088  -2.630   0.164  0.00  0.00    +0.000 C 
BRANCH  20  30
ATOM     21  C   UNL     1       2.833   1.266   2.373  0.00  0.00    +0.000 C 
ATOM     22  C   UNL     1       3.314   0.618   1.106  0.00  0.00    +0.000 A 
ATOM     23  N   UNL     1       3.139   1.217  -0.032  0.00  0.00    +0.000 NA
ATOM     24  C   UNL     1       3.553   0.556  -1.198  0.00  0.00    +0.000 A 
ATOM     25  C   UNL     1       3.295   1.193  -2.417  0.00  0.00    +0.000 A 
ATOM     26  C   UNL     1       3.620   0.582  -3.626  0.00  0.00    +0.000 A 
ATOM     27  C   UNL     1       4.215  -0.674  -3.623  0.00  0.00    +0.000 A 
ATOM     28  C   UNL     1       4.497  -1.314  -2.412  0.00  0.00    +0.000 A 
ATOM     29  C   UNL     1       4.174  -0.708  -1.188  0.00  0.00    +0.000 A 
ATOM     30  N   UNL     1       4.435  -1.330   0.067  0.00  0.00    +0.000 N 
ATOM     31  C   UNL     1       3.987  -0.738   1.245  0.00  0.00    +0.000 A 
ATOM     32  O   UNL     1       4.100  -1.226   2.363  0.00  0.00    +0.000 OA
ENDBRANCH  20  30
ENDBRANCH  19  20
ENDBRANCH   1  19
TORSDOF 7
