REMARK  Name = 
REMARK  7 active torsions:
REMARK  status: ('A' for Active; 'I' for Inactive)
REMARK    1  A    between atoms: C_2  and  C_4
REMARK    2  A    between atoms: C_4  and  N_5
REMARK    3  A    between atoms: N_5  and  C_6
REMARK    4  A    between atoms: C_6  and  C_7
REMARK    5  A    between atoms: C_10  and  C_11
REMARK    6  A    between atoms: C_19  and  C_21
REMARK    7  A    between atoms: C_24  and  N_25
REMARK                            x       y       z     vdW  Elec       q    Type
REMARK                         _______ _______ _______ _____ _____    ______ ____
ROOT
ATOM      1  N   UNL     1       4.772  -0.685  -0.816  0.00  0.00    +0.000 N 
ATOM      2  C   UNL     1       5.680  -1.476  -1.541  0.00  0.00    +0.000 C 
ATOM      3  O   UNL     1       5.257  -2.265  -2.389  0.00  0.00    +0.000 OA
ENDROOT
BRANCH   2   4
ATOM      4  C   UNL     1       7.156  -1.468  -1.317  0.00  0.00    +0.000 A 
ATOM      5  C   UNL     1       7.685  -1.421  -0.023  0.00  0.00    +0.000 A 
ATOM      6  C   UNL     1       9.066  -1.358   0.192  0.00  0.00    +0.000 A 
ATOM      7  C   UNL     1       9.955  -1.444  -0.884  0.00  0.00    +0.000 A 
ATOM      8  C   UNL     1       9.445  -1.572  -2.180  0.00  0.00    +0.000 A 
ATOM      9  C   UNL     1       8.055  -1.568  -2.397  0.00  0.00    +0.000 A 
ATOM     10 CL   UNL     1       7.564  -1.657  -4.057  0.00  0.00    +0.000 Cl
BRANCH   7  11
ATOM     11  N   UNL     1      11.348  -1.417  -0.638  0.00  0.00    +0.000 N 
ATOM     12  C   UNL     1      12.398  -1.517  -1.515  0.00  0.00    +0.000 A 
ATOM     13  N   UNL     1      13.527  -1.476  -0.847  0.00  0.00    +0.000 NA
ATOM     14  N   UNL     1      13.177  -1.340   0.469  0.00  0.00    +0.000 NA
ATOM     15  N   UNL     1      11.859  -1.300   0.609  0.00  0.00    +0.000 NA
ENDBRANCH   7  11
ENDBRANCH   2   4
BRANCH   1  16
ATOM     16  C   UNL     1       5.063   0.259   0.276  0.00  0.00    +0.000 C 
BRANCH  16  17
ATOM     17  C   UNL     1       6.079   1.349   0.011  0.00  0.00    +0.000 A 
ATOM     18  C   UNL     1       6.547   1.687  -1.258  0.00  0.00    +0.000 A 
ATOM     19  C   UNL     1       7.595   2.611  -1.411  0.00  0.00    +0.000 A 
ATOM     20  C   UNL     1       8.158   3.291  -0.318  0.00  0.00    +0.000 A 
ATOM     21  C   UNL     1       7.590   3.014   0.945  0.00  0.00    +0.000 A 
ATOM     22  C   UNL     1       6.586   2.055   1.110  0.00  0.00    +0.000 A 
BRANCH  20  23
ATOM     23  C   UNL     1       9.272   4.254  -0.466  0.00  0.00    +0.000 A 
ATOM     24  C   UNL     1       9.459   4.995  -1.648  0.00  0.00    +0.000 A 
ATOM     25  C   UNL     1      10.504   5.915  -1.780  0.00  0.00    +0.000 A 
ATOM     26  C   UNL     1      11.388   6.127  -0.727  0.00  0.00    +0.000 A 
ATOM     27  C   UNL     1      11.236   5.405   0.450  0.00  0.00    +0.000 A 
ATOM     28  C   UNL     1      10.199   4.474   0.573  0.00  0.00    +0.000 A 
ENDBRANCH  20  23
ENDBRANCH  16  17
ENDBRANCH   1  16
BRANCH   1  29
ATOM     29  C   UNL     1       3.359  -0.748  -1.248  0.00  0.00    +0.000 C 
BRANCH  29  31
ATOM     30  N   UNL     1       3.277  -3.204  -0.802  0.00  0.00    +0.000 N 
ATOM     31  C   UNL     1       2.577  -2.067  -1.081  0.00  0.00    +0.000 C 
ATOM     32  O   UNL     1       1.360  -2.130  -1.247  0.00  0.00    +0.000 OA
ATOM     33  H   UNL     1       2.728  -4.050  -0.885  0.00  0.00    +0.000 HD
ATOM     34  H   UNL     1       4.188  -3.265  -1.254  0.00  0.00    +0.000 HD
ENDBRANCH  29  31
ENDBRANCH   1  29
TORSDOF 7
