REMARK  Name = 
REMARK  7 active torsions:
REMARK  status: ('A' for Active; 'I' for Inactive)
REMARK    1  A    between atoms: C_1  and  N_2
REMARK    2  A    between atoms: C_3  and  C_4
REMARK    3  A    between atoms: N_6  and  C_7
REMARK    4  A    between atoms: C_10  and  O_11
REMARK    5  A    between atoms: O_11  and  C_12
REMARK    6  A    between atoms: C_14  and  C_15
REMARK    7  A    between atoms: C_25  and  O_26
REMARK                            x       y       z     vdW  Elec       q    Type
REMARK                         _______ _______ _______ _____ _____    ______ ____
ROOT
ATOM      1  C   UNL     1       0.920   4.245  -0.022  0.00  0.00    +0.000 A 
ATOM      2  C   UNL     1      -0.151   4.599   0.790  0.00  0.00    +0.000 A 
ATOM      3  C   UNL     1      -0.557   5.934   0.824  0.00  0.00    +0.000 A 
ATOM      4  C   UNL     1       0.077   6.863   0.007  0.00  0.00    +0.000 A 
ATOM      5  C   UNL     1       1.174   6.429  -0.727  0.00  0.00    +0.000 A 
ATOM      6  N   UNL     1       1.627   5.148  -0.731  0.00  0.00    +0.000 NA
ENDROOT
BRANCH   1   9
ATOM      7  C   UNL     1       0.573   1.816  -0.176  0.00  0.00    +0.000 C 
ATOM      8  O   UNL     1      -0.652   1.853  -0.236  0.00  0.00    +0.000 OA
ATOM      9  N   UNL     1       1.382   2.932  -0.108  0.00  0.00    +0.000 N 
ATOM     10  H   UNL     1       2.305   2.853  -0.512  0.00  0.00    +0.000 HD
BRANCH   7  13
ATOM     11  C   UNL     1      -0.029  -0.711  -1.918  0.00  0.00    +0.000 C 
ATOM     12  N   UNL     1       1.038  -0.558  -0.949  0.00  0.00    +0.000 N 
ATOM     13  C   UNL     1       1.328   0.574  -0.208  0.00  0.00    +0.000 A 
ATOM     14  C   UNL     1       2.451   0.269   0.547  0.00  0.00    +0.000 A 
ATOM     15  C   UNL     1       2.847  -1.069   0.277  0.00  0.00    +0.000 A 
ATOM     16  C   UNL     1       3.876  -1.910   0.740  0.00  0.00    +0.000 A 
ATOM     17  C   UNL     1       4.006  -3.204   0.244  0.00  0.00    +0.000 A 
ATOM     18  C   UNL     1       3.116  -3.675  -0.715  0.00  0.00    +0.000 A 
ATOM     19  C   UNL     1       2.078  -2.868  -1.192  0.00  0.00    +0.000 A 
ATOM     20  C   UNL     1       1.959  -1.560  -0.684  0.00  0.00    +0.000 A 
BRANCH  16  21
ATOM     21  O   UNL     1       4.785  -1.510   1.694  0.00  0.00    +0.000 OA
ATOM     22  H   UNL     1       4.542  -0.610   1.964  0.00  0.00    +0.000 HD
ENDBRANCH  16  21
ENDBRANCH   7  13
ENDBRANCH   1   9
BRANCH   4  23
ATOM     23  O   UNL     1      -0.378   8.155   0.057  0.00  0.00    +0.000 OA
BRANCH  23  24
ATOM     24  C   UNL     1      -0.457   8.900  -1.099  0.00  0.00    +0.000 A 
ATOM     25  C   UNL     1      -0.682   8.371  -2.371  0.00  0.00    +0.000 A 
ATOM     26  C   UNL     1      -0.743   9.218  -3.486  0.00  0.00    +0.000 A 
ATOM     27  C   UNL     1      -0.608  10.602  -3.323  0.00  0.00    +0.000 A 
ATOM     28  C   UNL     1      -0.437  11.136  -2.044  0.00  0.00    +0.000 A 
ATOM     29  C   UNL     1      -0.365  10.286  -0.937  0.00  0.00    +0.000 A 
BRANCH  26  30
ATOM     30  C   UNL     1      -0.911   8.594  -4.823  0.00  0.00    +0.000 C 
ATOM     31  N   UNL     1      -1.494   9.344  -5.803  0.00  0.00    +0.000 N 
ATOM     32  O   UNL     1      -0.575   7.436  -5.037  0.00  0.00    +0.000 OA
ATOM     33  H   UNL     1      -2.005  10.191  -5.607  0.00  0.00    +0.000 HD
ATOM     34  H   UNL     1      -1.701   8.856  -6.666  0.00  0.00    +0.000 HD
ENDBRANCH  26  30
ENDBRANCH  23  24
ENDBRANCH   4  23
TORSDOF 6
