REMARK  Name = 
REMARK  10 active torsions:
REMARK  status: ('A' for Active; 'I' for Inactive)
REMARK    1  A    between atoms: C_1  and  O_2
REMARK    2  A    between atoms: O_2  and  C_3
REMARK    3  A    between atoms: C_5  and  N_6
REMARK    4  A    between atoms: C_7  and  C_9
REMARK    5  A    between atoms: C_9  and  N_10
REMARK    6  A    between atoms: N_13  and  C_14
REMARK    7  A    between atoms: C_14  and  C_15
REMARK    8  A    between atoms: C_18  and  C_19
REMARK    9  A    between atoms: C_29  and  O_30
REMARK   10  A    between atoms: O_30  and  C_31
REMARK                            x       y       z     vdW  Elec       q    Type
REMARK                         _______ _______ _______ _____ _____    ______ ____
ROOT
ATOM      1  N   UNL     1       0.374   5.537  -3.791  0.00  0.00    +0.000 N 
ATOM      2  C   UNL     1      -0.243   6.517  -4.511  0.00  0.00    +0.000 C 
ATOM      3  O   UNL     1       0.143   6.868  -5.618  0.00  0.00    +0.000 OA
ATOM      4  N   UNL     1      -1.346   7.001  -3.880  0.00  0.00    +0.000 N 
ATOM      5  H   UNL     1      -0.204   5.022  -3.140  0.00  0.00    +0.000 HD
ATOM      6  H   UNL     1      -1.385   6.883  -2.877  0.00  0.00    +0.000 HD
ENDROOT
BRANCH   4   7
ATOM      7  C   UNL     1      -2.050   8.145  -4.414  0.00  0.00    +0.000 C 
BRANCH   7   8
ATOM      8  C   UNL     1      -3.513   8.095  -4.090  0.00  0.00    +0.000 A 
ATOM      9  C   UNL     1      -4.470   7.994  -5.104  0.00  0.00    +0.000 A 
ATOM     10  C   UNL     1      -5.835   7.946  -4.791  0.00  0.00    +0.000 A 
ATOM     11  C   UNL     1      -6.292   8.006  -3.461  0.00  0.00    +0.000 A 
ATOM     12  C   UNL     1      -5.315   8.116  -2.456  0.00  0.00    +0.000 A 
ATOM     13  C   UNL     1      -3.957   8.153  -2.771  0.00  0.00    +0.000 A 
ATOM     14  F   UNL     1      -3.066   8.239  -1.772  0.00  0.00    +0.000 F 
BRANCH  11  15
ATOM     15  C   UNL     1      -7.737   7.962  -3.130  0.00  0.00    +0.000 A 
ATOM     16  C   UNL     1      -8.200   7.358  -1.946  0.00  0.00    +0.000 A 
ATOM     17  C   UNL     1      -9.559   7.343  -1.613  0.00  0.00    +0.000 A 
ATOM     18  C   UNL     1     -10.492   7.918  -2.467  0.00  0.00    +0.000 A 
ATOM     19  C   UNL     1     -10.067   8.507  -3.654  0.00  0.00    +0.000 A 
ATOM     20  C   UNL     1      -8.706   8.532  -3.977  0.00  0.00    +0.000 A 
ENDBRANCH  11  15
ENDBRANCH   7   8
ENDBRANCH   4   7
BRANCH   1  21
ATOM     21  C   UNL     1       1.524   4.844  -4.340  0.00  0.00    +0.000 C 
BRANCH  21  23
ATOM     22  N   UNL     1       0.370   4.044  -6.352  0.00  0.00    +0.000 N 
ATOM     23  C   UNL     1       1.107   3.676  -5.234  0.00  0.00    +0.000 C 
ATOM     24  O   UNL     1       1.472   2.537  -4.937  0.00  0.00    +0.000 OA
ATOM     25  H   UNL     1       0.205   5.045  -6.469  0.00  0.00    +0.000 HD
BRANCH  22  28
ATOM     26  C   UNL     1      -0.466   0.974  -8.318  0.00  0.00    +0.000 A 
ATOM     27  C   UNL     1       0.022   1.800  -7.307  0.00  0.00    +0.000 A 
ATOM     28  C   UNL     1      -0.147   3.186  -7.353  0.00  0.00    +0.000 A 
ATOM     29  C   UNL     1      -0.848   3.747  -8.433  0.00  0.00    +0.000 A 
ATOM     30  C   UNL     1      -1.345   2.928  -9.456  0.00  0.00    +0.000 A 
ATOM     31  C   UNL     1      -1.151   1.545  -9.387  0.00  0.00    +0.000 A 
BRANCH  26  33
ATOM     32  C   UNL     1       0.416  -0.978  -7.293  0.00  0.00    +0.000 C 
ATOM     33  O   UNL     1      -0.324  -0.388  -8.361  0.00  0.00    +0.000 OA
ENDBRANCH  26  33
BRANCH  30  34
ATOM     34  O   UNL     1      -2.020   3.334 -10.575  0.00  0.00    +0.000 OA
ATOM     35  C   UNL     1      -2.241   4.725 -10.749  0.00  0.00    +0.000 C 
ENDBRANCH  30  34
ENDBRANCH  22  28
ENDBRANCH  21  23
ENDBRANCH   1  21
TORSDOF 8
