REMARK  Name = 
REMARK  5 active torsions:
REMARK  status: ('A' for Active; 'I' for Inactive)
REMARK    1  A    between atoms: C_2  and  C_3
REMARK    2  A    between atoms: C_4  and  N_5
REMARK    3  A    between atoms: C_6  and  C_8
REMARK    4  A    between atoms: C_9  and  C_10
REMARK    5  A    between atoms: N_21  and  C_22
REMARK                            x       y       z     vdW  Elec       q    Type
REMARK                         _______ _______ _______ _____ _____    ______ ____
ROOT
ATOM      1  C   UNL     1       3.862  -0.058   0.011  0.00  0.00    +0.000 A 
ATOM      2  C   UNL     1       4.570   1.065   0.290  0.00  0.00    +0.000 A 
ATOM      3  C   UNL     1       6.013   0.982   0.335  0.00  0.00    +0.000 A 
ATOM      4  C   UNL     1       6.638  -0.192   0.230  0.00  0.00    +0.000 A 
ATOM      5  N   UNL     1       5.942  -1.373   0.051  0.00  0.00    +0.000 N 
ATOM      6  C   UNL     1       4.543  -1.381  -0.098  0.00  0.00    +0.000 A 
ATOM      7  O   UNL     1       3.859  -2.382  -0.309  0.00  0.00    +0.000 OA
ENDROOT
BRANCH   5   8
ATOM      8  C   UNL     1       6.643  -2.612  -0.024  0.00  0.00    +0.000 A 
ATOM      9  C   UNL     1       7.756  -2.735  -0.865  0.00  0.00    +0.000 A 
ATOM     10  C   UNL     1       8.396  -3.965  -1.003  0.00  0.00    +0.000 A 
ATOM     11  C   UNL     1       7.958  -5.065  -0.266  0.00  0.00    +0.000 A 
ATOM     12  C   UNL     1       6.885  -4.936   0.614  0.00  0.00    +0.000 A 
ATOM     13  C   UNL     1       6.222  -3.715   0.727  0.00  0.00    +0.000 A 
ENDBRANCH   5   8
BRANCH   2  14
ATOM     14  N   UNL     1       3.940   2.260   0.619  0.00  0.00    +0.000 N 
ATOM     15  C   UNL     1       4.497   3.520   0.777  0.00  0.00    +0.000 C 
ATOM     16  O   UNL     1       5.665   3.841   0.601  0.00  0.00    +0.000 OA
ATOM     17  H   UNL     1       2.936   2.197   0.755  0.00  0.00    +0.000 HD
BRANCH  15  18
ATOM     18  C   UNL     1       3.577   4.568   1.274  0.00  0.00    +0.000 A 
ATOM     19  C   UNL     1       2.281   4.813   0.802  0.00  0.00    +0.000 A 
ATOM     20  C   UNL     1       1.511   5.753   1.479  0.00  0.00    +0.000 A 
ATOM     21  F   UNL     1       0.243   5.978   1.117  0.00  0.00    +0.000 F 
ATOM     22  C   UNL     1       2.048   6.445   2.552  0.00  0.00    +0.000 A 
ATOM     23  N   UNL     1       3.315   6.275   2.982  0.00  0.00    +0.000 NA
ATOM     24  C   UNL     1       4.055   5.344   2.329  0.00  0.00    +0.000 A 
BRANCH  19  25
ATOM     25  C   UNL     1       1.651   4.131  -0.369  0.00  0.00    +0.000 C 
ATOM     26  F   UNL     1       2.519   3.421  -1.138  0.00  0.00    +0.000 F 
ATOM     27  F   UNL     1       0.715   3.232   0.035  0.00  0.00    +0.000 F 
ATOM     28  F   UNL     1       1.034   4.984  -1.226  0.00  0.00    +0.000 F 
ENDBRANCH  19  25
ENDBRANCH  15  18
ENDBRANCH   2  14
BRANCH   1  30
ATOM     29  N   UNL     1       1.081  -0.058   0.011  0.00  0.00    +0.000 NA
ATOM     30  C   UNL     1       2.342  -0.058   0.011  0.00  0.00    +0.000 C 
ENDBRANCH   1  30
TORSDOF 5
