REMARK  Name = 
REMARK  6 active torsions:
REMARK  status: ('A' for Active; 'I' for Inactive)
REMARK    1  A    between atoms: C_1  and  C_2
REMARK    2  A    between atoms: C_6  and  C_7
REMARK    3  A    between atoms: C_7  and  N_8
REMARK    4  A    between atoms: C_9  and  C_11
REMARK    5  A    between atoms: C_14  and  N_15
REMARK    6  A    between atoms: C_16  and  C_18
REMARK                            x       y       z     vdW  Elec       q    Type
REMARK                         _______ _______ _______ _____ _____    ______ ____
ROOT
ATOM      1  N   UNL     1       5.672   0.410   0.287  0.00  0.00    +0.000 N 
ATOM      2  C   UNL     1       6.968   0.844   0.480  0.00  0.00    +0.000 C 
ATOM      3  O   UNL     1       7.277   2.010   0.688  0.00  0.00    +0.000 OA
ATOM      4  H   UNL     1       5.472  -0.579   0.332  0.00  0.00    +0.000 HD
ENDROOT
BRANCH   2   5
ATOM      5  C   UNL     1       8.016  -0.217   0.426  0.00  0.00    +0.000 A 
ATOM      6  C   UNL     1       7.855  -1.343  -0.385  0.00  0.00    +0.000 A 
ATOM      7  C   UNL     1       8.844  -2.332  -0.431  0.00  0.00    +0.000 A 
ATOM      8  C   UNL     1      10.015  -2.213   0.320  0.00  0.00    +0.000 A 
ATOM      9  C   UNL     1      10.190  -1.067   1.107  0.00  0.00    +0.000 A 
ATOM     10  C   UNL     1       9.200  -0.071   1.158  0.00  0.00    +0.000 A 
BRANCH   8  11
ATOM     11  N   UNL     1      11.041  -3.183   0.317  0.00  0.00    +0.000 N 
ATOM     12  C   UNL     1      11.050  -4.400  -0.351  0.00  0.00    +0.000 C 
ATOM     13  O   UNL     1      10.131  -4.837  -1.037  0.00  0.00    +0.000 OA
ATOM     14  H   UNL     1      11.870  -2.991   0.869  0.00  0.00    +0.000 HD
BRANCH  12  15
ATOM     15  C   UNL     1      12.274  -5.158  -0.169  0.00  0.00    +0.000 A 
ATOM     16  C   UNL     1      12.642  -6.396  -0.666  0.00  0.00    +0.000 A 
ATOM     17  C   UNL     1      13.948  -6.657  -0.193  0.00  0.00    +0.000 A 
ATOM     18  C   UNL     1      14.298  -5.568   0.571  0.00  0.00    +0.000 A 
ATOM     19  O   UNL     1      13.294  -4.652   0.596  0.00  0.00    +0.000 OA
ENDBRANCH  12  15
ENDBRANCH   8  11
ENDBRANCH   2   5
BRANCH   1  20
ATOM     20  C   UNL     1       4.545   1.314   0.240  0.00  0.00    +0.000 C 
BRANCH  20  26
ATOM     21  C   UNL     1       3.985   4.868   6.843  0.00  0.00    +0.000 C 
ATOM     22  C   UNL     1       3.602   3.812   5.856  0.00  0.00    +0.000 A 
ATOM     23  C   UNL     1       4.133   3.716   4.625  0.00  0.00    +0.000 A 
ATOM     24  C   UNL     1       3.721   2.649   3.713  0.00  0.00    +0.000 A 
ATOM     25  C   UNL     1       4.303   2.502   2.450  0.00  0.00    +0.000 A 
ATOM     26  C   UNL     1       3.890   1.472   1.589  0.00  0.00    +0.000 A 
ATOM     27  C   UNL     1       2.885   0.588   2.013  0.00  0.00    +0.000 A 
ATOM     28  C   UNL     1       2.301   0.729   3.275  0.00  0.00    +0.000 A 
ATOM     29  C   UNL     1       2.728   1.752   4.120  0.00  0.00    +0.000 A 
ATOM     30  N   UNL     1       2.178   1.877   5.401  0.00  0.00    +0.000 N 
ATOM     31  C   UNL     1       2.567   2.829   6.305  0.00  0.00    +0.000 A 
ATOM     32  O   UNL     1       2.081   2.873   7.431  0.00  0.00    +0.000 OA
ATOM     33  H   UNL     1       1.476   1.226   5.724  0.00  0.00    +0.000 HD
ENDBRANCH  20  26
ENDBRANCH   1  20
TORSDOF 5
