REMARK  Name = 
REMARK  6 active torsions:
REMARK  status: ('A' for Active; 'I' for Inactive)
REMARK    1  A    between atoms: C_2  and  C_26
REMARK    2  A    between atoms: N_3  and  C_4
REMARK    3  A    between atoms: C_4  and  C_5
REMARK    4  A    between atoms: C_10  and  C_11
REMARK    5  A    between atoms: C_11  and  N_12
REMARK    6  A    between atoms: C_13  and  C_15
REMARK                            x       y       z     vdW  Elec       q    Type
REMARK                         _______ _______ _______ _____ _____    ______ ____
ROOT
ATOM      1  C   UNL     1       3.169  -2.663  -2.551  0.00  0.00    +0.000 A 
ATOM      2  C   UNL     1       4.270  -2.118  -3.225  0.00  0.00    +0.000 A 
ATOM      3  C   UNL     1       5.168  -2.928  -3.908  0.00  0.00    +0.000 A 
ATOM      4  C   UNL     1       4.966  -4.300  -3.945  0.00  0.00    +0.000 A 
ATOM      5  C   UNL     1       3.864  -4.857  -3.282  0.00  0.00    +0.000 A 
ATOM      6  C   UNL     1       2.873  -4.039  -2.681  0.00  0.00    +0.000 A 
ENDROOT
BRANCH   1   7
ATOM      7  C   UNL     1       2.323  -1.756  -1.708  0.00  0.00    +0.000 C 
BRANCH   7  10
ATOM      8  O   UNL     1       0.681  -0.074  -0.340  0.00  0.00    +0.000 OA
ATOM      9  C   UNL     1       0.444  -0.271  -1.529  0.00  0.00    +0.000 C 
ATOM     10  N   UNL     1       1.216  -1.109  -2.327  0.00  0.00    +0.000 N 
ATOM     11  H   UNL     1       1.261  -0.975  -3.325  0.00  0.00    +0.000 HD
BRANCH   9  12
ATOM     12  C   UNL     1      -0.708   0.311  -2.200  0.00  0.00    +0.000 A 
ATOM     13  C   UNL     1      -1.087   0.168  -3.527  0.00  0.00    +0.000 A 
ATOM     14  N   UNL     1      -2.162   0.994  -3.765  0.00  0.00    +0.000 N 
ATOM     15  C   UNL     1      -2.472   1.669  -2.615  0.00  0.00    +0.000 A 
ATOM     16  C   UNL     1      -1.612   1.246  -1.631  0.00  0.00    +0.000 A 
ATOM     17  H   UNL     1      -2.640   1.110  -4.652  0.00  0.00    +0.000 HD
ENDBRANCH   9  12
ENDBRANCH   7  10
ENDBRANCH   1   7
BRANCH   6  18
ATOM     18  C   UNL     1       1.528  -4.674  -2.259  0.00  0.00    +0.000 C 
BRANCH  18  19
ATOM     19  N   UNL     1       1.456  -5.217  -0.879  0.00  0.00    +0.000 N 
ATOM     20  C   UNL     1       0.587  -4.829   0.141  0.00  0.00    +0.000 C 
ATOM     21  O   UNL     1      -0.236  -3.945  -0.058  0.00  0.00    +0.000 OA
ATOM     22  H   UNL     1       2.275  -5.696  -0.565  0.00  0.00    +0.000 HD
BRANCH  20  23
ATOM     23  C   UNL     1       0.782  -5.445   1.562  0.00  0.00    +0.000 A 
ATOM     24  C   UNL     1      -0.161  -4.986   2.550  0.00  0.00    +0.000 A 
ATOM     25  C   UNL     1      -0.219  -5.574   3.814  0.00  0.00    +0.000 A 
ATOM     26  C   UNL     1       0.613  -6.595   4.088  0.00  0.00    +0.000 A 
ATOM     27  F   UNL     1       0.570  -7.240   5.261  0.00  0.00    +0.000 F 
ATOM     28  C   UNL     1       1.257  -7.182   3.079  0.00  0.00    +0.000 A 
ATOM     29  N   UNL     1       1.048  -8.432   3.231  0.00  0.00    +0.000 NA
ATOM     30  C   UNL     1       2.131  -8.989   3.583  0.00  0.00    +0.000 A 
ATOM     31  C   UNL     1       3.067  -9.042   2.546  0.00  0.00    +0.000 A 
ATOM     32  C   UNL     1       2.749  -7.825   1.696  0.00  0.00    +0.000 A 
ATOM     33  C   UNL     1       1.662  -6.716   1.901  0.00  0.00    +0.000 A 
ENDBRANCH  20  23
ENDBRANCH  18  19
ENDBRANCH   6  18
TORSDOF 6
