REMARK  Name = 
REMARK  7 active torsions:
REMARK  status: ('A' for Active; 'I' for Inactive)
REMARK    1  A    between atoms: C_1  and  O_2
REMARK    2  A    between atoms: O_2  and  C_3
REMARK    3  A    between atoms: C_5  and  C_6
REMARK    4  A    between atoms: C_14  and  N_15
REMARK    5  A    between atoms: C_16  and  C_18
REMARK    6  A    between atoms: C_20  and  N_21
REMARK    7  A    between atoms: C_28  and  O_29
REMARK                            x       y       z     vdW  Elec       q    Type
REMARK                         _______ _______ _______ _____ _____    ______ ____
ROOT
ATOM      1  N   UNL     1       4.217  -1.252   1.434  0.00  0.00    +0.000 N 
ATOM      2  C   UNL     1       5.277  -1.640   2.237  0.00  0.00    +0.000 C 
ATOM      3  O   UNL     1       6.227  -2.344   1.887  0.00  0.00    +0.000 OA
ATOM      4  H   UNL     1       3.578  -0.545   1.791  0.00  0.00    +0.000 HD
ENDROOT
BRANCH   1  10
ATOM      5  C   UNL     1       2.993  -1.083  -0.696  0.00  0.00    +0.000 A 
ATOM      6  C   UNL     1       2.831  -1.496  -2.031  0.00  0.00    +0.000 A 
ATOM      7  C   UNL     1       3.622  -2.505  -2.611  0.00  0.00    +0.000 A 
ATOM      8  C   UNL     1       4.597  -3.093  -1.804  0.00  0.00    +0.000 A 
ATOM      9  C   UNL     1       4.778  -2.689  -0.484  0.00  0.00    +0.000 A 
ATOM     10  C   UNL     1       4.002  -1.673   0.090  0.00  0.00    +0.000 A 
BRANCH   7  11
ATOM     11  C   UNL     1       3.444  -2.898  -4.016  0.00  0.00    +0.000 A 
ATOM     12  C   UNL     1       3.631  -4.207  -4.462  0.00  0.00    +0.000 A 
ATOM     13  C   UNL     1       3.487  -4.491  -5.816  0.00  0.00    +0.000 A 
ATOM     14  C   UNL     1       3.158  -3.467  -6.693  0.00  0.00    +0.000 A 
ATOM     15  C   UNL     1       2.969  -2.201  -6.175  0.00  0.00    +0.000 A 
ATOM     16  N   UNL     1       3.096  -1.895  -4.866  0.00  0.00    +0.000 NA
ENDBRANCH   7  11
BRANCH   5  18
ATOM     17  C   UNL     1       1.069   0.299  -0.870  0.00  0.00    +0.000 C 
ATOM     18  O   UNL     1       2.213  -0.106  -0.114  0.00  0.00    +0.000 OA
ENDBRANCH   5  18
ENDBRANCH   1  10
BRANCH   2  19
ATOM     19  C   UNL     1       5.320  -1.183   3.651  0.00  0.00    +0.000 A 
ATOM     20  C   UNL     1       6.068  -1.989   4.542  0.00  0.00    +0.000 A 
ATOM     21  C   UNL     1       6.323  -1.585   5.857  0.00  0.00    +0.000 A 
ATOM     22  C   UNL     1       5.811  -0.353   6.283  0.00  0.00    +0.000 A 
ATOM     23  C   UNL     1       5.036   0.436   5.417  0.00  0.00    +0.000 A 
ATOM     24  C   UNL     1       4.784   0.018   4.107  0.00  0.00    +0.000 A 
BRANCH  21  25
ATOM     25  N   UNL     1       7.108  -2.401   6.726  0.00  0.00    +0.000 N 
ATOM     26  C   UNL     1       7.709  -3.610   6.434  0.00  0.00    +0.000 A 
ATOM     27  C   UNL     1       8.360  -4.007   7.578  0.00  0.00    +0.000 A 
ATOM     28  N   UNL     1       8.180  -3.096   8.576  0.00  0.00    +0.000 NA
ATOM     29  C   UNL     1       7.433  -2.153   8.045  0.00  0.00    +0.000 A 
ENDBRANCH  21  25
BRANCH  24  30
ATOM     30  O   UNL     1       4.037   0.805   3.277  0.00  0.00    +0.000 OA
ATOM     31  H   UNL     1       3.865   1.658   3.712  0.00  0.00    +0.000 HD
ENDBRANCH  24  30
ENDBRANCH   2  19
TORSDOF 6
