REMARK  Name = 
REMARK  11 active torsions:
REMARK  status: ('A' for Active; 'I' for Inactive)
REMARK    1  A    between atoms: C_1  and  C_2
REMARK    2  A    between atoms: C_6  and  C_7
REMARK    3  A    between atoms: C_7  and  C_8
REMARK    4  A    between atoms: C_8  and  C_9
REMARK    5  A    between atoms: C_8  and  C_11
REMARK    6  A    between atoms: C_9  and  O_10
REMARK    7  A    between atoms: C_11  and  N_12
REMARK    8  A    between atoms: N_15  and  C_16
REMARK    9  A    between atoms: C_19  and  C_20
REMARK   10  A    between atoms: N_22  and  C_23
REMARK   11  A    between atoms: C_23  and  C_24
REMARK                            x       y       z     vdW  Elec       q    Type
REMARK                         _______ _______ _______ _____ _____    ______ ____
ROOT
ATOM      1  N   UNL     1      -5.679  -3.368  -0.025  0.00  0.00    +0.000 N 
ATOM      2  C   UNL     1      -6.421  -4.523   0.039  0.00  0.00    +0.000 C 
ATOM      3  O   UNL     1      -5.881  -5.624   0.094  0.00  0.00    +0.000 OA
ATOM      4  N   UNL     1      -7.776  -4.282  -0.023  0.00  0.00    +0.000 N 
ATOM      5  H   UNL     1      -6.101  -2.540   0.374  0.00  0.00    +0.000 HD
ATOM      6  H   UNL     1      -8.042  -3.409  -0.457  0.00  0.00    +0.000 HD
ENDROOT
BRANCH   4   7
ATOM      7  C   UNL     1      -8.752  -5.303   0.026  0.00  0.00    +0.000 A 
ATOM      8  C   UNL     1      -8.477  -6.549   0.597  0.00  0.00    +0.000 A 
ATOM      9  C   UNL     1      -9.385  -7.605   0.489  0.00  0.00    +0.000 A 
ATOM     10  C   UNL     1     -10.593  -7.410  -0.172  0.00  0.00    +0.000 A 
ATOM     11  C   UNL     1     -10.927  -6.136  -0.642  0.00  0.00    +0.000 A 
ATOM     12  C   UNL     1     -10.009  -5.077  -0.537  0.00  0.00    +0.000 A 
BRANCH  10  13
ATOM     13  C   UNL     1     -11.543  -8.542  -0.388  0.00  0.00    +0.000 C 
ATOM     14  O   UNL     1     -12.735  -8.314  -0.555  0.00  0.00    +0.000 OA
ATOM     15  N   UNL     1     -10.991  -9.805  -0.430  0.00  0.00    +0.000 N 
ATOM     16  H   UNL     1      -9.992  -9.936  -0.388  0.00  0.00    +0.000 HD
BRANCH  15  17
ATOM     17  C   UNL     1     -11.790 -10.980  -0.685  0.00  0.00    +0.000 C 
BRANCH  17  18
ATOM     18  C   UNL     1     -12.213 -11.674   0.578  0.00  0.00    +0.000 A 
ATOM     19  C   UNL     1     -13.412 -11.335   1.220  0.00  0.00    +0.000 A 
ATOM     20  C   UNL     1     -13.844 -12.055   2.338  0.00  0.00    +0.000 A 
ATOM     21  C   UNL     1     -13.072 -13.104   2.838  0.00  0.00    +0.000 A 
ATOM     22  C   UNL     1     -11.853 -13.414   2.239  0.00  0.00    +0.000 A 
ATOM     23  C   UNL     1     -11.432 -12.696   1.122  0.00  0.00    +0.000 A 
ATOM     24  F   UNL     1     -10.260 -13.017   0.553  0.00  0.00    +0.000 F 
ENDBRANCH  17  18
ENDBRANCH  15  17
ENDBRANCH  10  13
ENDBRANCH   4   7
BRANCH   1  25
ATOM     25  C   UNL     1      -4.227  -3.461  -0.004  0.00  0.00    +0.000 C 
BRANCH  25  26
ATOM     26  C   UNL     1      -3.638  -3.703  -1.411  0.00  0.00    +0.000 C 
BRANCH  26  27
ATOM     27  C   UNL     1      -3.959  -2.494  -2.324  0.00  0.00    +0.000 C 
BRANCH  27  33
ATOM     28  C   UNL     1      -1.154  -0.630  -6.088  0.00  0.00    +0.000 C 
ATOM     29  C   UNL     1      -2.033  -1.716  -5.539  0.00  0.00    +0.000 A 
ATOM     30  C   UNL     1      -2.358  -2.829  -6.320  0.00  0.00    +0.000 A 
ATOM     31  C   UNL     1      -3.260  -3.780  -5.848  0.00  0.00    +0.000 A 
ATOM     32  C   UNL     1      -3.815  -3.650  -4.574  0.00  0.00    +0.000 A 
ATOM     33  C   UNL     1      -3.433  -2.593  -3.738  0.00  0.00    +0.000 A 
ATOM     34  C   UNL     1      -2.567  -1.611  -4.245  0.00  0.00    +0.000 A 
ENDBRANCH  27  33
ENDBRANCH  26  27
BRANCH  26  35
ATOM     35  C   UNL     1      -2.134  -3.983  -1.276  0.00  0.00    +0.000 C 
BRANCH  35  36
ATOM     36  O   UNL     1      -1.459  -2.890  -0.665  0.00  0.00    +0.000 OA
ATOM     37  H   UNL     1      -1.343  -2.208  -1.348  0.00  0.00    +0.000 HD
ENDBRANCH  35  36
ENDBRANCH  26  35
ENDBRANCH  25  26
ENDBRANCH   1  25
TORSDOF 10
