REMARK  Name = 
REMARK  5 active torsions:
REMARK  status: ('A' for Active; 'I' for Inactive)
REMARK    1  A    between atoms: C_2  and  C_19
REMARK    2  A    between atoms: N_3  and  C_4
REMARK    3  A    between atoms: C_9  and  O_10
REMARK    4  A    between atoms: O_10  and  C_11
REMARK    5  A    between atoms: C_21  and  C_22
REMARK                            x       y       z     vdW  Elec       q    Type
REMARK                         _______ _______ _______ _____ _____    ______ ____
ROOT
ATOM      1  O   UNL     1       0.921  -0.713  -0.611  0.00  0.00    +0.000 OA
ATOM      2  C   UNL     1       2.106  -0.494  -0.367  0.00  0.00    +0.000 C 
ATOM      3  N   UNL     1       2.792  -0.903   0.766  0.00  0.00    +0.000 N 
ATOM      4  H   UNL     1       3.717  -0.501   0.883  0.00  0.00    +0.000 HD
ENDROOT
BRANCH   3   5
ATOM      5  C   UNL     1       2.227  -1.640   1.839  0.00  0.00    +0.000 A 
ATOM      6  C   UNL     1       1.119  -2.476   1.605  0.00  0.00    +0.000 A 
ATOM      7  C   UNL     1       0.566  -3.268   2.611  0.00  0.00    +0.000 A 
ATOM      8  C   UNL     1       1.125  -3.258   3.882  0.00  0.00    +0.000 A 
ATOM      9  C   UNL     1       2.215  -2.431   4.144  0.00  0.00    +0.000 A 
ATOM     10  C   UNL     1       2.757  -1.601   3.146  0.00  0.00    +0.000 A 
BRANCH  10  11
ATOM     11  O   UNL     1       3.821  -0.849   3.604  0.00  0.00    +0.000 OA
BRANCH  11  12
ATOM     12  C   UNL     1       4.047   0.428   3.155  0.00  0.00    +0.000 A 
ATOM     13  C   UNL     1       3.064   1.312   2.708  0.00  0.00    +0.000 A 
ATOM     14  C   UNL     1       3.450   2.498   2.091  0.00  0.00    +0.000 A 
ATOM     15  F   UNL     1       2.517   3.285   1.539  0.00  0.00    +0.000 F 
ATOM     16  C   UNL     1       4.787   2.859   1.994  0.00  0.00    +0.000 A 
ATOM     17  C   UNL     1       5.745   2.027   2.555  0.00  0.00    +0.000 A 
ATOM     18  F   UNL     1       7.036   2.376   2.503  0.00  0.00    +0.000 F 
ATOM     19  C   UNL     1       5.388   0.818   3.139  0.00  0.00    +0.000 A 
ENDBRANCH  11  12
ENDBRANCH  10  11
ENDBRANCH   3   5
BRANCH   2  20
ATOM     20  C   UNL     1       2.886   0.332  -1.339  0.00  0.00    +0.000 A 
ATOM     21  C   UNL     1       2.228   0.808  -2.466  0.00  0.00    +0.000 A 
ATOM     22  C   UNL     1       2.946   1.542  -3.407  0.00  0.00    +0.000 A 
ATOM     23  C   UNL     1       4.303   1.775  -3.170  0.00  0.00    +0.000 A 
ATOM     24  C   UNL     1       4.872   1.276  -2.003  0.00  0.00    +0.000 A 
ATOM     25  N   UNL     1       4.199   0.558  -1.072  0.00  0.00    +0.000 NA
BRANCH  22  26
ATOM     26  C   UNL     1       2.281   2.038  -4.603  0.00  0.00    +0.000 A 
ATOM     27  N   UNL     1       0.971   1.877  -4.861  0.00  0.00    +0.000 NA
ATOM     28  N   UNL     1       0.882   2.498  -6.046  0.00  0.00    +0.000 N 
ATOM     29  N   UNL     1       2.020   3.012  -6.522  0.00  0.00    +0.000 NA
ATOM     30  N   UNL     1       2.931   2.724  -5.603  0.00  0.00    +0.000 NA
ATOM     31  H   UNL     1       0.003   2.575  -6.554  0.00  0.00    +0.000 HD
ENDBRANCH  22  26
ENDBRANCH   2  20
TORSDOF 5
