REMARK  Name = 
REMARK  5 active torsions:
REMARK  status: ('A' for Active; 'I' for Inactive)
REMARK    1  A    between atoms: C_2  and  C_3
REMARK    2  A    between atoms: C_2  and  C_9
REMARK    3  A    between atoms: C_12  and  C_13
REMARK    4  A    between atoms: C_15  and  C_16
REMARK    5  A    between atoms: C_18  and  O_19
REMARK                            x       y       z     vdW  Elec       q    Type
REMARK                         _______ _______ _______ _____ _____    ______ ____
ROOT
ATOM      1  C   UNL     1       2.917  -0.936  -0.866  0.00  0.00    +0.000 A 
ATOM      2  C   UNL     1       2.576  -1.225  -2.193  0.00  0.00    +0.000 A 
ATOM      3  C   UNL     1       3.357  -2.106  -2.939  0.00  0.00    +0.000 A 
ATOM      4  C   UNL     1       4.461  -2.750  -2.363  0.00  0.00    +0.000 A 
ATOM      5  C   UNL     1       4.743  -2.518  -1.006  0.00  0.00    +0.000 A 
ATOM      6  C   UNL     1       3.976  -1.616  -0.260  0.00  0.00    +0.000 A 
ENDROOT
BRANCH   4   7
ATOM      7  C   UNL     1       5.279  -3.620  -3.194  0.00  0.00    +0.000 A 
ATOM      8  N   UNL     1       5.181  -3.887  -4.475  0.00  0.00    +0.000 NA
ATOM      9  C   UNL     1       6.228  -4.766  -4.689  0.00  0.00    +0.000 A 
ATOM     10  N   UNL     1       6.948  -5.014  -3.581  0.00  0.00    +0.000 NA
ATOM     11  O   UNL     1       6.323  -4.259  -2.595  0.00  0.00    +0.000 OA
BRANCH   9  12
ATOM     12  C   UNL     1       6.475  -5.373  -5.998  0.00  0.00    +0.000 A 
ATOM     13  N   UNL     1       5.658  -4.968  -7.015  0.00  0.00    +0.000 NA
ATOM     14  C   UNL     1       5.838  -5.568  -8.200  0.00  0.00    +0.000 A 
ATOM     15  C   UNL     1       6.770  -6.551  -8.467  0.00  0.00    +0.000 A 
ATOM     16  C   UNL     1       7.607  -6.939  -7.429  0.00  0.00    +0.000 A 
ATOM     17  C   UNL     1       7.464  -6.340  -6.182  0.00  0.00    +0.000 A 
ATOM     18  F   UNL     1       8.282  -6.728  -5.194  0.00  0.00    +0.000 F 
BRANCH  14  19
ATOM     19  O   UNL     1       5.011  -5.127  -9.177  0.00  0.00    +0.000 OA
ATOM     20  H   UNL     1       4.511  -4.445  -8.689  0.00  0.00    +0.000 HD
ENDBRANCH  14  19
ENDBRANCH   9  12
ENDBRANCH   4   7
BRANCH   1  22
ATOM     21  O   UNL     1       2.047  -0.006   1.114  0.00  0.00    +0.000 OA
ATOM     22  C   UNL     1       2.191   0.111  -0.097  0.00  0.00    +0.000 C 
BRANCH  22  23
ATOM     23  C   UNL     1       1.638   1.301  -0.804  0.00  0.00    +0.000 A 
ATOM     24  C   UNL     1       2.287   1.846  -1.921  0.00  0.00    +0.000 A 
ATOM     25  C   UNL     1       1.687   2.872  -2.648  0.00  0.00    +0.000 A 
ATOM     26  C   UNL     1       0.462   3.389  -2.233  0.00  0.00    +0.000 A 
ATOM     27  C   UNL     1      -0.153   2.894  -1.082  0.00  0.00    +0.000 A 
ATOM     28  C   UNL     1       0.433   1.852  -0.362  0.00  0.00    +0.000 A 
ENDBRANCH  22  23
ENDBRANCH   1  22
TORSDOF 5
