REMARK  Name = 
REMARK  7 active torsions:
REMARK  status: ('A' for Active; 'I' for Inactive)
REMARK    1  A    between atoms: C_2  and  C_16
REMARK    2  A    between atoms: N_3  and  C_4
REMARK    3  A    between atoms: C_4  and  C_5
REMARK    4  A    between atoms: C_18  and  C_19
REMARK    5  A    between atoms: C_19  and  C_20
REMARK    6  A    between atoms: C_20  and  C_21
REMARK    7  A    between atoms: C_29  and  O_30
REMARK                            x       y       z     vdW  Elec       q    Type
REMARK                         _______ _______ _______ _____ _____    ______ ____
ROOT
ATOM      1  O   UNL     1       1.224  -0.078   0.760  0.00  0.00    +0.000 OA
ATOM      2  C   UNL     1       2.209  -0.022   0.025  0.00  0.00    +0.000 C 
ATOM      3  N   UNL     1       2.644  -1.101  -0.695  0.00  0.00    +0.000 N 
ATOM      4  H   UNL     1       3.468  -1.001  -1.282  0.00  0.00    +0.000 HD
ENDROOT
BRANCH   2   5
ATOM      5  C   UNL     1       2.974   1.251  -0.117  0.00  0.00    +0.000 A 
ATOM      6  C   UNL     1       2.493   2.349   0.621  0.00  0.00    +0.000 A 
ATOM      7  C   UNL     1       3.096   3.609   0.545  0.00  0.00    +0.000 A 
ATOM      8  C   UNL     1       4.215   3.756  -0.290  0.00  0.00    +0.000 A 
ATOM      9  C   UNL     1       4.719   2.667  -1.016  0.00  0.00    +0.000 A 
ATOM     10  C   UNL     1       4.095   1.425  -0.939  0.00  0.00    +0.000 A 
BRANCH  10  11
ATOM     11  O   UNL     1       4.585   0.389  -1.690  0.00  0.00    +0.000 OA
ATOM     12  H   UNL     1       5.274   0.729  -2.288  0.00  0.00    +0.000 HD
ENDBRANCH  10  11
BRANCH   7  13
ATOM     13  C   UNL     1       2.525   4.826   1.247  0.00  0.00    +0.000 C 
BRANCH  13  14
ATOM     14  C   UNL     1       1.791   4.553   2.569  0.00  0.00    +0.000 C 
BRANCH  14  15
ATOM     15  C   UNL     1       1.231   5.808   3.206  0.00  0.00    +0.000 A 
ATOM     16  C   UNL     1      -0.063   6.231   2.881  0.00  0.00    +0.000 A 
ATOM     17  C   UNL     1      -0.603   7.379   3.463  0.00  0.00    +0.000 A 
ATOM     18  C   UNL     1       0.149   8.119   4.370  0.00  0.00    +0.000 A 
ATOM     19  C   UNL     1       1.438   7.707   4.706  0.00  0.00    +0.000 A 
ATOM     20  C   UNL     1       1.982   6.556   4.121  0.00  0.00    +0.000 A 
ENDBRANCH  14  15
ENDBRANCH  13  14
ENDBRANCH   7  13
ENDBRANCH   2   5
BRANCH   3  21
ATOM     21  C   UNL     1       2.007  -2.391  -0.591  0.00  0.00    +0.000 C 
BRANCH  21  22
ATOM     22  C   UNL     1       2.516  -3.222   0.568  0.00  0.00    +0.000 A 
ATOM     23  C   UNL     1       1.926  -3.090   1.828  0.00  0.00    +0.000 A 
ATOM     24  C   UNL     1       2.342  -3.918   2.867  0.00  0.00    +0.000 A 
ATOM     25  C   UNL     1       3.330  -4.864   2.621  0.00  0.00    +0.000 A 
ATOM     26  C   UNL     1       3.760  -5.821   3.637  0.00  0.00    +0.000 A 
ATOM     27  C   UNL     1       4.657  -6.763   3.315  0.00  0.00    +0.000 A 
ATOM     28  C   UNL     1       5.255  -6.824   1.957  0.00  0.00    +0.000 A 
ATOM     29  O   UNL     1       6.068  -7.698   1.676  0.00  0.00    +0.000 OA
ATOM     30  N   UNL     1       4.853  -5.873   1.065  0.00  0.00    +0.000 N 
ATOM     31  C   UNL     1       3.886  -4.911   1.341  0.00  0.00    +0.000 A 
ATOM     32  N   UNL     1       3.515  -4.109   0.320  0.00  0.00    +0.000 NA
ATOM     33  H   UNL     1       5.234  -5.892   0.132  0.00  0.00    +0.000 HD
ENDBRANCH  21  22
ENDBRANCH   3  21
TORSDOF 7
