REMARK  Name = 
REMARK  4 active torsions:
REMARK  status: ('A' for Active; 'I' for Inactive)
REMARK    1  A    between atoms: C_2  and  C_16
REMARK    2  A    between atoms: N_3  and  C_4
REMARK    3  A    between atoms: C_9  and  C_10
REMARK    4  A    between atoms: N_18  and  C_19
REMARK                            x       y       z     vdW  Elec       q    Type
REMARK                         _______ _______ _______ _____ _____    ______ ____
ROOT
ATOM      1  O   UNL     1       0.816  -0.048  -0.211  0.00  0.00    +0.000 OA
ATOM      2  C   UNL     1       2.030   0.066  -0.117  0.00  0.00    +0.000 C 
ATOM      3  N   UNL     1       2.741   0.627   0.934  0.00  0.00    +0.000 N 
ATOM      4  H   UNL     1       3.709   0.870   0.738  0.00  0.00    +0.000 HD
ENDROOT
BRANCH   3   5
ATOM      5  C   UNL     1       2.160   1.095   2.138  0.00  0.00    +0.000 A 
ATOM      6  C   UNL     1       0.889   0.670   2.566  0.00  0.00    +0.000 A 
ATOM      7  C   UNL     1       0.276   1.179   3.718  0.00  0.00    +0.000 A 
ATOM      8  C   UNL     1       1.002   2.133   4.407  0.00  0.00    +0.000 A 
ATOM      9  O   UNL     1       0.615   2.813   5.521  0.00  0.00    +0.000 OA
ATOM     10  C   UNL     1       1.673   3.648   5.788  0.00  0.00    +0.000 A 
ATOM     11  N   UNL     1       2.693   3.523   4.949  0.00  0.00    +0.000 NA
ATOM     12  C   UNL     1       2.270   2.565   4.056  0.00  0.00    +0.000 A 
ATOM     13  C   UNL     1       2.884   2.021   2.913  0.00  0.00    +0.000 A 
BRANCH  10  14
ATOM     14  C   UNL     1       1.504   4.569   6.947  0.00  0.00    +0.000 C 
ATOM     15  F   UNL     1       0.427   5.389   6.787  0.00  0.00    +0.000 F 
ATOM     16  F   UNL     1       1.289   3.887   8.108  0.00  0.00    +0.000 F 
ENDBRANCH  10  14
ENDBRANCH   3   5
BRANCH   2  17
ATOM     17  C   UNL     1       2.861  -0.351  -1.315  0.00  0.00    +0.000 A 
ATOM     18  N   UNL     1       3.917   0.363  -1.607  0.00  0.00    +0.000 NA
ATOM     19  N   UNL     1       4.597   0.041  -2.769  0.00  0.00    +0.000 N 
ATOM     20  C   UNL     1       4.074  -0.842  -3.700  0.00  0.00    +0.000 A 
ATOM     21  C   UNL     1       3.017  -1.628  -3.502  0.00  0.00    +0.000 A 
ATOM     22  C   UNL     1       2.431  -1.531  -2.165  0.00  0.00    +0.000 A 
ATOM     23  O   UNL     1       1.659  -2.380  -1.748  0.00  0.00    +0.000 OA
BRANCH  19  24
ATOM     24  C   UNL     1       5.797   0.783  -3.016  0.00  0.00    +0.000 A 
ATOM     25  C   UNL     1       6.830   0.269  -3.828  0.00  0.00    +0.000 A 
ATOM     26  C   UNL     1       7.995   1.002  -4.074  0.00  0.00    +0.000 A 
ATOM     27  C   UNL     1       8.143   2.260  -3.511  0.00  0.00    +0.000 A 
ATOM     28  F   UNL     1       9.258   2.964  -3.748  0.00  0.00    +0.000 F 
ATOM     29  C   UNL     1       7.152   2.796  -2.701  0.00  0.00    +0.000 A 
ATOM     30  C   UNL     1       5.990   2.059  -2.451  0.00  0.00    +0.000 A 
ENDBRANCH  19  24
ENDBRANCH   2  17
TORSDOF 4
