REMARK  Name = 
REMARK  7 active torsions:
REMARK  status: ('A' for Active; 'I' for Inactive)
REMARK    1  A    between atoms: C_1  and  C_2
REMARK    2  A    between atoms: C_4  and  C_5
REMARK    3  A    between atoms: C_5  and  N_6
REMARK    4  A    between atoms: C_9  and  N_10
REMARK    5  A    between atoms: C_11  and  C_13
REMARK    6  A    between atoms: C_16  and  N_17
REMARK    7  A    between atoms: C_21  and  C_22
REMARK                            x       y       z     vdW  Elec       q    Type
REMARK                         _______ _______ _______ _____ _____    ______ ____
ROOT
ATOM      1  C   UNL     1      -2.960  -4.075   0.123  0.00  0.00    +0.000 A 
ATOM      2  C   UNL     1      -2.524  -5.080   0.989  0.00  0.00    +0.000 A 
ATOM      3  C   UNL     1      -3.194  -6.318   1.018  0.00  0.00    +0.000 A 
ATOM      4  C   UNL     1      -4.283  -6.549   0.155  0.00  0.00    +0.000 A 
ATOM      5  C   UNL     1      -4.776  -5.512  -0.631  0.00  0.00    +0.000 A 
ATOM      6  C   UNL     1      -4.098  -4.301  -0.669  0.00  0.00    +0.000 A 
ENDROOT
BRANCH   4   7
ATOM      7  N   UNL     1      -4.837  -7.855   0.033  0.00  0.00    +0.000 N 
ATOM      8  N   UNL     1      -4.864  -8.674   1.116  0.00  0.00    +0.000 NA
ATOM      9  C   UNL     1      -5.610  -9.707   0.730  0.00  0.00    +0.000 A 
ATOM     10  C   UNL     1      -5.951  -9.642  -0.628  0.00  0.00    +0.000 A 
ATOM     11  C   UNL     1      -5.367  -8.480  -1.109  0.00  0.00    +0.000 A 
BRANCH  11  12
ATOM     12  C   UNL     1      -5.257  -8.011  -2.507  0.00  0.00    +0.000 A 
ATOM     13  C   UNL     1      -6.282  -8.272  -3.430  0.00  0.00    +0.000 A 
ATOM     14  C   UNL     1      -6.218  -7.763  -4.733  0.00  0.00    +0.000 A 
ATOM     15  C   UNL     1      -5.143  -6.970  -5.112  0.00  0.00    +0.000 A 
ATOM     16  F   UNL     1      -5.110  -6.437  -6.340  0.00  0.00    +0.000 F 
ATOM     17  C   UNL     1      -4.099  -6.728  -4.236  0.00  0.00    +0.000 A 
ATOM     18  C   UNL     1      -4.135  -7.292  -2.958  0.00  0.00    +0.000 A 
ENDBRANCH  11  12
ENDBRANCH   4   7
BRANCH   1  20
ATOM     19  N   UNL     1      -1.127  -2.432   0.553  0.00  0.00    +0.000 N 
ATOM     20  C   UNL     1      -2.381  -2.710   0.027  0.00  0.00    +0.000 C 
ATOM     21  O   UNL     1      -3.068  -1.885  -0.571  0.00  0.00    +0.000 OA
ATOM     22  H   UNL     1      -0.557  -3.192   0.894  0.00  0.00    +0.000 HD
BRANCH  19  29
ATOM     23  C   UNL     1       1.623  -1.909   1.610  0.00  0.00    +0.000 C 
ATOM     24  C   UNL     1       0.692  -0.837   1.127  0.00  0.00    +0.000 A 
ATOM     25  N   UNL     1       1.191   0.424   1.230  0.00  0.00    +0.000 NA
ATOM     26  C   UNL     1       0.411   1.446   0.813  0.00  0.00    +0.000 A 
ATOM     27  N   UNL     1      -0.818   1.297   0.315  0.00  0.00    +0.000 NA
ATOM     28  C   UNL     1      -1.269   0.033   0.229  0.00  0.00    +0.000 A 
ATOM     29  C   UNL     1      -0.580  -1.109   0.621  0.00  0.00    +0.000 A 
BRANCH  26  30
ATOM     30  C   UNL     1       0.942   2.861   0.945  0.00  0.00    +0.000 C 
BRANCH  30  31
ATOM     31  N   UNL     1       2.198   3.097   0.217  0.00  0.00    +0.000 NA
ATOM     32  H   UNL     1       2.843   2.354   0.486  0.00  0.00    +0.000 HD
ATOM     33  H   UNL     1       2.598   3.973   0.536  0.00  0.00    +0.000 HD
ENDBRANCH  30  31
ENDBRANCH  26  30
ENDBRANCH  19  29
ENDBRANCH   1  20
TORSDOF 6
