REMARK  Name = 
REMARK  7 active torsions:
REMARK  status: ('A' for Active; 'I' for Inactive)
REMARK    1  A    between atoms: C_2  and  C_3
REMARK    2  A    between atoms: C_3  and  C_4
REMARK    3  A    between atoms: N_14  and  CA_15
REMARK    4  A    between atoms: CA_15  and  C_16
REMARK    5  A    between atoms: CA_15  and  C_19
REMARK    6  A    between atoms: C_16  and  OXT_18
REMARK    7  A    between atoms: C_23  and  C_24
REMARK                            x       y       z     vdW  Elec       q    Type
REMARK                         _______ _______ _______ _____ _____    ______ ____
ROOT
ATOM      1  CA  UNL     1       4.545   1.064   0.667  0.00  0.00    +0.000 C 
ENDROOT
BRANCH   1   2
ATOM      2  C   UNL     1       4.873   2.237   1.575  0.00  0.00    +0.000 A 
ATOM      3  C   UNL     1       5.080   3.520   1.057  0.00  0.00    +0.000 A 
ATOM      4  C   UNL     1       5.301   4.591   1.912  0.00  0.00    +0.000 A 
ATOM      5  C   UNL     1       5.267   4.402   3.296  0.00  0.00    +0.000 A 
ATOM      6  C   UNL     1       5.026   3.138   3.865  0.00  0.00    +0.000 A 
ATOM      7  C   UNL     1       4.864   2.060   2.973  0.00  0.00    +0.000 A 
BRANCH   6   8
ATOM      8  C   UNL     1       4.876   2.970   5.334  0.00  0.00    +0.000 A 
ATOM      9  C   UNL     1       4.056   1.968   5.877  0.00  0.00    +0.000 A 
ATOM     10  C   UNL     1       3.880   1.891   7.252  0.00  0.00    +0.000 A 
ATOM     11  N   UNL     1       4.451   2.737   8.130  0.00  0.00    +0.000 NA
ATOM     12  C   UNL     1       5.247   3.690   7.609  0.00  0.00    +0.000 A 
ATOM     13  C   UNL     1       5.494   3.835   6.250  0.00  0.00    +0.000 A 
ENDBRANCH   6   8
ENDBRANCH   1   2
BRANCH   1  16
ATOM     14  O   UNL     1       2.649  -0.402   2.141  0.00  0.00    +0.000 OA
ATOM     15  C   UNL     1       2.240   0.338   1.250  0.00  0.00    +0.000 C 
ATOM     16  N   UNL     1       3.087   1.062   0.418  0.00  0.00    +0.000 N 
ATOM     17  H   UNL     1       2.705   1.942   0.086  0.00  0.00    +0.000 HD
BRANCH  15  18
ATOM     18  C   UNL     1       0.764   0.507   0.918  0.00  0.00    +0.000 C 
BRANCH  18  19
ATOM     19  C   UNL     1      -0.092   1.169   1.965  0.00  0.00    +0.000 A 
ATOM     20  C   UNL     1      -1.441   0.837   2.056  0.00  0.00    +0.000 A 
ATOM     21  N   UNL     1      -2.336   1.453   2.862  0.00  0.00    +0.000 NA
ATOM     22  C   UNL     1      -1.902   2.461   3.636  0.00  0.00    +0.000 A 
ATOM     23  C   UNL     1      -2.800   3.140   4.450  0.00  0.00    +0.000 A 
ATOM     24  C   UNL     1      -2.398   4.204   5.262  0.00  0.00    +0.000 A 
ATOM     25  C   UNL     1      -1.067   4.599   5.267  0.00  0.00    +0.000 A 
ATOM     26  C   UNL     1      -0.144   3.936   4.461  0.00  0.00    +0.000 A 
ATOM     27  C   UNL     1      -0.552   2.873   3.635  0.00  0.00    +0.000 A 
ATOM     28  C   UNL     1       0.348   2.208   2.784  0.00  0.00    +0.000 A 
ENDBRANCH  18  19
ENDBRANCH  15  18
ENDBRANCH   1  16
BRANCH   1  29
ATOM     29  C   UNL     1       5.336   1.106  -0.664  0.00  0.00    +0.000 C 
ATOM     30  O   UNL     1       6.551   1.194  -0.759  0.00  0.00    +0.000 OA
BRANCH  29  31
ATOM     31  OXT UNL     1       4.537   1.054  -1.763  0.00  0.00    +0.000 OA
ATOM     32  HXT UNL     1       3.610   0.890  -1.500  0.00  0.00    +0.000 HD
ENDBRANCH  29  31
ENDBRANCH   1  29
TORSDOF 7
