REMARK  Name = 
REMARK  8 active torsions:
REMARK  status: ('A' for Active; 'I' for Inactive)
REMARK    1  A    between atoms: C_1  and  O_2
REMARK    2  A    between atoms: O_2  and  C_3
REMARK    3  A    between atoms: C_3  and  C_5
REMARK    4  A    between atoms: C_7  and  N_8
REMARK    5  A    between atoms: C_9  and  C_11
REMARK    6  A    between atoms: C_12  and  C_13
REMARK    7  A    between atoms: N_19  and  C_20
REMARK    8  A    between atoms: C_29  and  O_30
REMARK                            x       y       z     vdW  Elec       q    Type
REMARK                         _______ _______ _______ _____ _____    ______ ____
ROOT
ATOM      1  N   UNL     1       6.157  -1.468   0.024  0.00  0.00    +0.000 N 
ATOM      2  C   UNL     1       6.028  -2.578   0.866  0.00  0.00    +0.000 C 
ATOM      3  O   UNL     1       5.819  -2.489   2.071  0.00  0.00    +0.000 OA
ATOM      4  H   UNL     1       6.590  -1.645  -0.873  0.00  0.00    +0.000 HD
ENDROOT
BRANCH   2   5
ATOM      5  C   UNL     1       6.074  -3.865   0.198  0.00  0.00    +0.000 A 
ATOM      6  C   UNL     1       6.544  -4.104  -1.099  0.00  0.00    +0.000 A 
ATOM      7  N   UNL     1       5.839  -5.239  -1.459  0.00  0.00    +0.000 N 
ATOM      8  C   UNL     1       4.830  -5.261  -2.504  0.00  0.00    +0.000 C 
ATOM      9  C   UNL     1       5.737  -6.027  -0.323  0.00  0.00    +0.000 A 
ATOM     10  C   UNL     1       5.335  -7.349  -0.119  0.00  0.00    +0.000 A 
ATOM     11  C   UNL     1       5.566  -7.888   1.151  0.00  0.00    +0.000 A 
ATOM     12  C   UNL     1       6.137  -7.124   2.169  0.00  0.00    +0.000 A 
ATOM     13  C   UNL     1       6.342  -5.755   1.999  0.00  0.00    +0.000 A 
ATOM     14  C   UNL     1       6.086  -5.187   0.738  0.00  0.00    +0.000 A 
BRANCH   6  15
ATOM     15  C   UNL     1       7.909  -3.677  -1.490  0.00  0.00    +0.000 A 
ATOM     16  C   UNL     1       8.818  -3.486  -0.419  0.00  0.00    +0.000 A 
ATOM     17  C   UNL     1       9.715  -2.430  -0.432  0.00  0.00    +0.000 A 
ATOM     18  C   UNL     1       9.824  -1.659  -1.579  0.00  0.00    +0.000 A 
ATOM     19  C   UNL     1       9.114  -2.019  -2.731  0.00  0.00    +0.000 A 
ATOM     20  C   UNL     1       8.155  -3.038  -2.696  0.00  0.00    +0.000 A 
ENDBRANCH   6  15
ENDBRANCH   2   5
BRANCH   1  23
ATOM     21  C   UNL     1       4.812   1.593   1.676  0.00  0.00    +0.000 A 
ATOM     22  C   UNL     1       5.051   0.243   1.409  0.00  0.00    +0.000 A 
ATOM     23  C   UNL     1       5.862  -0.126   0.342  0.00  0.00    +0.000 A 
ATOM     24  C   UNL     1       6.365   0.900  -0.463  0.00  0.00    +0.000 A 
ATOM     25  N   UNL     1       6.145   2.220  -0.243  0.00  0.00    +0.000 NA
ATOM     26  C   UNL     1       5.378   2.527   0.824  0.00  0.00    +0.000 A 
BRANCH  21  27
ATOM     27  C   UNL     1       3.972   1.943   2.833  0.00  0.00    +0.000 C 
ATOM     28  O   UNL     1       3.003   1.287   3.186  0.00  0.00    +0.000 OA
BRANCH  27  30
ATOM     29  C   UNL     1       3.808   3.413   4.646  0.00  0.00    +0.000 C 
ATOM     30  O   UNL     1       4.510   3.003   3.475  0.00  0.00    +0.000 OA
ENDBRANCH  27  30
ENDBRANCH  21  27
BRANCH  26  31
ATOM     31  O   UNL     1       5.201   3.863   0.961  0.00  0.00    +0.000 OA
ATOM     32  H   UNL     1       5.780   4.195   0.253  0.00  0.00    +0.000 HD
ENDBRANCH  26  31
ENDBRANCH   1  23
TORSDOF 6
