REMARK  Name = 
REMARK  7 active torsions:
REMARK  status: ('A' for Active; 'I' for Inactive)
REMARK    1  A    between atoms: C_1  and  C_2
REMARK    2  A    between atoms: C_7  and  C_8
REMARK    3  A    between atoms: C_15  and  C_16
REMARK    4  A    between atoms: N_18  and  C_19
REMARK    5  A    between atoms: C_19  and  C_20
REMARK    6  A    between atoms: C_21  and  O_22
REMARK    7  A    between atoms: C_23  and  O_24
REMARK                            x       y       z     vdW  Elec       q    Type
REMARK                         _______ _______ _______ _____ _____    ______ ____
ROOT
ATOM      1  C   UNL     1       3.666  -0.342  -0.152  0.00  0.00    +0.000 C 
ATOM      2  C   UNL     1       2.212   0.028  -0.145  0.00  0.00    +0.000 A 
ATOM      3  C   UNL     1       1.824   1.358  -0.022  0.00  0.00    +0.000 A 
ATOM      4  C   UNL     1       0.470   1.681  -0.003  0.00  0.00    +0.000 A 
ATOM      5  C   UNL     1      -0.514   0.707  -0.047  0.00  0.00    +0.000 A 
ATOM      6  N   UNL     1      -1.780   1.139  -0.019  0.00  0.00    +0.000 NA
ATOM      7  C   UNL     1      -2.799   0.252  -0.039  0.00  0.00    +0.000 A 
ATOM      8  C   UNL     1      -2.562  -1.109  -0.019  0.00  0.00    +0.000 A 
ATOM      9  C   UNL     1      -1.244  -1.579  -0.012  0.00  0.00    +0.000 A 
ATOM     10  C   UNL     1      -0.162  -0.658  -0.096  0.00  0.00    +0.000 A 
ATOM     11  C   UNL     1       1.221  -0.971  -0.193  0.00  0.00    +0.000 A 
ENDROOT
BRANCH   7  12
ATOM     12  C   UNL     1      -4.153   0.836  -0.026  0.00  0.00    +0.000 A 
ATOM     13  C   UNL     1      -5.247   0.198  -0.637  0.00  0.00    +0.000 A 
ATOM     14  C   UNL     1      -6.530   0.751  -0.585  0.00  0.00    +0.000 A 
ATOM     15  C   UNL     1      -6.742   1.960   0.071  0.00  0.00    +0.000 A 
ATOM     16  C   UNL     1      -5.673   2.621   0.667  0.00  0.00    +0.000 A 
ATOM     17  C   UNL     1      -4.393   2.065   0.614  0.00  0.00    +0.000 A 
ENDBRANCH   7  12
BRANCH   9  18
ATOM     18  C   UNL     1      -1.074  -3.070   0.114  0.00  0.00    +0.000 C 
ATOM     19  O   UNL     1      -0.216  -3.676  -0.510  0.00  0.00    +0.000 OA
ATOM     20  N   UNL     1      -1.985  -3.697   0.950  0.00  0.00    +0.000 N 
ATOM     21  H   UNL     1      -2.480  -3.137   1.633  0.00  0.00    +0.000 HD
BRANCH  20  22
ATOM     22  C   UNL     1      -2.025  -5.141   1.170  0.00  0.00    +0.000 C 
BRANCH  22  23
ATOM     23  C   UNL     1      -3.442  -5.644   1.385  0.00  0.00    +0.000 A 
ATOM     24  C   UNL     1      -4.419  -5.561   0.397  0.00  0.00    +0.000 A 
ATOM     25  C   UNL     1      -5.740  -5.850   0.737  0.00  0.00    +0.000 A 
ATOM     26  C   UNL     1      -6.065  -6.301   1.994  0.00  0.00    +0.000 A 
ATOM     27  C   UNL     1      -5.028  -6.452   2.896  0.00  0.00    +0.000 A 
ATOM     28  N   UNL     1      -3.740  -6.111   2.631  0.00  0.00    +0.000 NA
BRANCH  25  29
ATOM     29  O   UNL     1      -6.741  -5.685  -0.180  0.00  0.00    +0.000 OA
ATOM     30  H   UNL     1      -6.298  -5.351  -0.985  0.00  0.00    +0.000 HD
ENDBRANCH  25  29
BRANCH  24  31
ATOM     31  O   UNL     1      -4.185  -5.205  -0.905  0.00  0.00    +0.000 OA
ATOM     32  H   UNL     1      -3.242  -5.359  -1.102  0.00  0.00    +0.000 HD
ENDBRANCH  24  31
ENDBRANCH  22  23
ENDBRANCH  20  22
ENDBRANCH   9  18
TORSDOF 6
