REMARK  Name = 
REMARK  7 active torsions:
REMARK  status: ('A' for Active; 'I' for Inactive)
REMARK    1  A    between atoms: C_1  and  C_2
REMARK    2  A    between atoms: N_4  and  C_5
REMARK    3  A    between atoms: C_13  and  C_14
REMARK    4  A    between atoms: C_14  and  O_16
REMARK    5  A    between atoms: O_16  and  C_17
REMARK    6  A    between atoms: C_17  and  C_18
REMARK    7  A    between atoms: C_21  and  C_22
REMARK                            x       y       z     vdW  Elec       q    Type
REMARK                         _______ _______ _______ _____ _____    ______ ____
ROOT
ATOM      1  C   UNL     1       1.153   0.062   0.005  0.00  0.00    +0.000 C 
ATOM      2  C   UNL     1       2.632  -0.060  -0.000  0.00  0.00    +0.000 A 
ATOM      3  N   UNL     1       3.394   1.035   0.059  0.00  0.00    +0.000 NA
ATOM      4  N   UNL     1       4.682   0.581  -0.032  0.00  0.00    +0.000 N 
ATOM      5  C   UNL     1       4.724  -0.812  -0.078  0.00  0.00    +0.000 A 
ATOM      6  N   UNL     1       5.816  -1.613  -0.124  0.00  0.00    +0.000 NA
ATOM      7  C   UNL     1       5.536  -2.940  -0.150  0.00  0.00    +0.000 A 
ATOM      8  C   UNL     1       4.251  -3.480  -0.146  0.00  0.00    +0.000 A 
ATOM      9  C   UNL     1       3.151  -2.623  -0.106  0.00  0.00    +0.000 A 
ATOM     10  C   UNL     1       3.402  -1.243  -0.061  0.00  0.00    +0.000 A 
ENDROOT
BRANCH   4  11
ATOM     11  C   UNL     1       5.759   1.517  -0.093  0.00  0.00    +0.000 A 
ATOM     12  C   UNL     1       5.491   2.885   0.081  0.00  0.00    +0.000 A 
ATOM     13  C   UNL     1       6.520   3.826  -0.009  0.00  0.00    +0.000 A 
ATOM     14  C   UNL     1       7.821   3.413  -0.281  0.00  0.00    +0.000 A 
ATOM     15  C   UNL     1       8.099   2.059  -0.450  0.00  0.00    +0.000 A 
ATOM     16  C   UNL     1       7.076   1.112  -0.350  0.00  0.00    +0.000 A 
ENDBRANCH   4  11
BRANCH   7  17
ATOM     17  C   UNL     1       6.698  -3.884  -0.172  0.00  0.00    +0.000 C 
ATOM     18  O   UNL     1       6.572  -5.100  -0.167  0.00  0.00    +0.000 OA
BRANCH  17  19
ATOM     19  O   UNL     1       7.869  -3.199  -0.189  0.00  0.00    +0.000 OA
BRANCH  19  20
ATOM     20  C   UNL     1       9.079  -3.975  -0.188  0.00  0.00    +0.000 C 
BRANCH  20  21
ATOM     21  C   UNL     1       9.919  -3.645  -1.396  0.00  0.00    +0.000 A 
ATOM     22  C   UNL     1       9.895  -2.380  -1.997  0.00  0.00    +0.000 A 
ATOM     23  C   UNL     1      10.704  -2.098  -3.106  0.00  0.00    +0.000 A 
ATOM     24  C   UNL     1      11.562  -3.076  -3.624  0.00  0.00    +0.000 A 
ATOM     25  C   UNL     1      11.610  -4.332  -3.008  0.00  0.00    +0.000 A 
ATOM     26  C   UNL     1      10.802  -4.600  -1.906  0.00  0.00    +0.000 A 
ATOM     27  F   UNL     1      10.886  -5.806  -1.327  0.00  0.00    +0.000 F 
BRANCH  24  28
ATOM     28  C   UNL     1      12.441  -2.852  -4.809  0.00  0.00    +0.000 C 
ATOM     29  N   UNL     1      12.411  -1.636  -5.431  0.00  0.00    +0.000 N 
ATOM     30  O   UNL     1      13.178  -3.735  -5.231  0.00  0.00    +0.000 OA
ATOM     31  H   UNL     1      11.830  -0.856  -5.171  0.00  0.00    +0.000 HD
ATOM     32  H   UNL     1      13.010  -1.528  -6.239  0.00  0.00    +0.000 HD
ENDBRANCH  24  28
ENDBRANCH  20  21
ENDBRANCH  19  20
ENDBRANCH  17  19
ENDBRANCH   7  17
TORSDOF 6
