REMARK  Name = 
REMARK  4 active torsions:
REMARK  status: ('A' for Active; 'I' for Inactive)
REMARK    1  A    between atoms: C_1  and  O_2
REMARK    2  A    between atoms: O_2  and  C_3
REMARK    3  A    between atoms: C_10  and  N_11
REMARK    4  A    between atoms: C_12  and  C_14
REMARK                            x       y       z     vdW  Elec       q    Type
REMARK                         _______ _______ _______ _____ _____    ______ ____
ROOT
ATOM      1  N   UNL     1       0.126  -0.791  -4.641  0.00  0.00    +0.000 N 
ATOM      2  C   UNL     1      -0.331  -1.076  -5.915  0.00  0.00    +0.000 C 
ATOM      3  O   UNL     1       0.222  -1.804  -6.736  0.00  0.00    +0.000 OA
ATOM      4  H   UNL     1      -0.443  -0.150  -4.084  0.00  0.00    +0.000 HD
ENDROOT
BRANCH   2   5
ATOM      5  C   UNL     1      -1.633  -0.431  -6.269  0.00  0.00    +0.000 A 
ATOM      6  C   UNL     1      -2.150  -0.634  -7.494  0.00  0.00    +0.000 A 
ATOM      7  N   UNL     1      -3.349  -0.138  -7.947  0.00  0.00    +0.000 N 
ATOM      8  C   UNL     1      -4.217   0.526  -7.072  0.00  0.00    +0.000 A 
ATOM      9  C   UNL     1      -3.787   0.837  -5.766  0.00  0.00    +0.000 A 
ATOM     10  C   UNL     1      -4.612   1.526  -4.875  0.00  0.00    +0.000 A 
ATOM     11  C   UNL     1      -5.876   1.911  -5.297  0.00  0.00    +0.000 A 
ATOM     12  F   UNL     1      -6.681   2.561  -4.447  0.00  0.00    +0.000 F 
ATOM     13  C   UNL     1      -6.307   1.627  -6.590  0.00  0.00    +0.000 A 
ATOM     14  F   UNL     1      -7.527   2.010  -6.989  0.00  0.00    +0.000 F 
ATOM     15  C   UNL     1      -5.483   0.946  -7.485  0.00  0.00    +0.000 A 
ATOM     16  C   UNL     1      -2.436   0.400  -5.333  0.00  0.00    +0.000 A 
ATOM     17  O   UNL     1      -2.009   0.710  -4.224  0.00  0.00    +0.000 OA
ATOM     18  H   UNL     1      -3.715  -0.507  -8.820  0.00  0.00    +0.000 HD
ENDBRANCH   2   5
BRANCH   1  26
ATOM     19  C   UNL     1       3.005  -1.085  -0.633  0.00  0.00    +0.000 A 
ATOM     20  C   UNL     1       4.084  -1.709  -0.008  0.00  0.00    +0.000 A 
ATOM     21  C   UNL     1       4.822  -2.617  -0.735  0.00  0.00    +0.000 A 
ATOM     22  N   UNL     1       4.552  -2.948  -2.009  0.00  0.00    +0.000 NA
ATOM     23  C   UNL     1       3.490  -2.379  -2.598  0.00  0.00    +0.000 A 
ATOM     24  C   UNL     1       3.215  -2.746  -3.901  0.00  0.00    +0.000 A 
ATOM     25  C   UNL     1       2.124  -2.231  -4.603  0.00  0.00    +0.000 A 
ATOM     26  C   UNL     1       1.268  -1.318  -3.999  0.00  0.00    +0.000 A 
ATOM     27  C   UNL     1       1.542  -0.917  -2.681  0.00  0.00    +0.000 A 
ATOM     28  C   UNL     1       2.654  -1.442  -1.961  0.00  0.00    +0.000 A 
BRANCH  19  30
ATOM     29  C   UNL     1       2.916   0.623   0.999  0.00  0.00    +0.000 C 
ATOM     30  O   UNL     1       2.232  -0.140   0.003  0.00  0.00    +0.000 OA
ENDBRANCH  19  30
ENDBRANCH   1  26
TORSDOF 3
