REMARK  Name = 
REMARK  4 active torsions:
REMARK  status: ('A' for Active; 'I' for Inactive)
REMARK    1  A    between atoms: C_2  and  C_17
REMARK    2  A    between atoms: N_3  and  C_4
REMARK    3  A    between atoms: N_6  and  C_7
REMARK    4  A    between atoms: C_18  and  O_19
REMARK                            x       y       z     vdW  Elec       q    Type
REMARK                         _______ _______ _______ _____ _____    ______ ____
ROOT
ATOM      1  O   UNL     1       2.446   1.650   0.260  0.00  0.00    +0.000 OA
ATOM      2  C   UNL     1       3.322   0.897  -0.132  0.00  0.00    +0.000 C 
ATOM      3  N   UNL     1       3.391   0.315  -1.386  0.00  0.00    +0.000 N 
ATOM      4  H   UNL     1       4.176  -0.313  -1.531  0.00  0.00    +0.000 HD
ENDROOT
BRANCH   2   5
ATOM      5  C   UNL     1       4.416   0.506   0.797  0.00  0.00    +0.000 A 
ATOM      6  C   UNL     1       5.740   0.215   0.456  0.00  0.00    +0.000 A 
ATOM      7  C   UNL     1       6.667  -0.251   1.431  0.00  0.00    +0.000 A 
ATOM      8  C   UNL     1       7.978  -0.710   1.135  0.00  0.00    +0.000 A 
ATOM      9  C   UNL     1       8.847  -1.137   2.144  0.00  0.00    +0.000 A 
ATOM     10  C   UNL     1       8.453  -1.043   3.470  0.00  0.00    +0.000 A 
ATOM     11  C   UNL     1       7.163  -0.598   3.772  0.00  0.00    +0.000 A 
ATOM     12 CL   UNL     1       6.745  -0.462   5.451  0.00  0.00    +0.000 Cl
ATOM     13  C   UNL     1       6.232  -0.265   2.777  0.00  0.00    +0.000 A 
ATOM     14  N   UNL     1       4.952   0.024   3.099  0.00  0.00    +0.000 NA
ATOM     15  C   UNL     1       4.074   0.354   2.126  0.00  0.00    +0.000 A 
BRANCH   6  16
ATOM     16  O   UNL     1       6.183   0.381  -0.838  0.00  0.00    +0.000 OA
ATOM     17  H   UNL     1       5.757   1.177  -1.214  0.00  0.00    +0.000 HD
ENDBRANCH   6  16
ENDBRANCH   2   5
BRANCH   3  18
ATOM     18  C   UNL     1       2.472   0.365  -2.416  0.00  0.00    +0.000 A 
ATOM     19  C   UNL     1       1.284   1.004  -2.431  0.00  0.00    +0.000 A 
ATOM     20  N   UNL     1       0.390   0.935  -3.520  0.00  0.00    +0.000 N 
ATOM     21  C   UNL     1       0.737   0.188  -4.667  0.00  0.00    +0.000 A 
ATOM     22  O   UNL     1       0.112   0.070  -5.719  0.00  0.00    +0.000 OA
ATOM     23  C   UNL     1       2.045  -0.510  -4.630  0.00  0.00    +0.000 A 
ATOM     24  C   UNL     1       2.853  -0.407  -3.575  0.00  0.00    +0.000 A 
BRANCH  20  25
ATOM     25  C   UNL     1      -0.889   1.651  -3.507  0.00  0.00    +0.000 A 
ATOM     26  C   UNL     1      -1.962   1.266  -4.335  0.00  0.00    +0.000 A 
ATOM     27  C   UNL     1      -3.161   1.988  -4.387  0.00  0.00    +0.000 A 
ATOM     28  C   UNL     1      -3.330   3.110  -3.590  0.00  0.00    +0.000 A 
ATOM     29  C   UNL     1      -2.307   3.493  -2.729  0.00  0.00    +0.000 A 
ATOM     30  C   UNL     1      -1.103   2.770  -2.685  0.00  0.00    +0.000 A 
ENDBRANCH  20  25
ENDBRANCH   3  18
TORSDOF 4
