REMARK  Name = 
REMARK  5 active torsions:
REMARK  status: ('A' for Active; 'I' for Inactive)
REMARK    1  A    between atoms: C_2  and  C_20
REMARK    2  A    between atoms: N_3  and  C_4
REMARK    3  A    between atoms: C_4  and  C_5
REMARK    4  A    between atoms: N_7  and  C_8
REMARK    5  A    between atoms: C_11  and  C_12
REMARK                            x       y       z     vdW  Elec       q    Type
REMARK                         _______ _______ _______ _____ _____    ______ ____
ROOT
ATOM      1  C   UNL     1       2.374   1.994   1.525  0.00  0.00    +0.000 C 
ENDROOT
BRANCH   1   2
ATOM      2  C   UNL     1       3.330   2.950   2.123  0.00  0.00    +0.000 A 
ATOM      3  C   UNL     1       3.876   4.083   1.555  0.00  0.00    +0.000 A 
ATOM      4  N   UNL     1       4.614   4.724   2.528  0.00  0.00    +0.000 N 
ATOM      5  N   UNL     1       4.621   4.007   3.682  0.00  0.00    +0.000 NA
ATOM      6  C   UNL     1       3.826   2.965   3.440  0.00  0.00    +0.000 A 
BRANCH   4   7
ATOM      7  C   UNL     1       5.274   5.982   2.441  0.00  0.00    +0.000 A 
ATOM      8  C   UNL     1       5.185   6.769   1.286  0.00  0.00    +0.000 A 
ATOM      9  C   UNL     1       5.819   8.016   1.234  0.00  0.00    +0.000 A 
ATOM     10  C   UNL     1       6.556   8.493   2.327  0.00  0.00    +0.000 A 
ATOM     11  C   UNL     1       6.644   7.700   3.481  0.00  0.00    +0.000 A 
ATOM     12  C   UNL     1       6.009   6.455   3.539  0.00  0.00    +0.000 A 
BRANCH  10  13
ATOM     13  C   UNL     1       7.242   9.837   2.280  0.00  0.00    +0.000 C 
ATOM     14  F   UNL     1       7.109  10.473   1.082  0.00  0.00    +0.000 F 
ATOM     15  F   UNL     1       6.763  10.702   3.216  0.00  0.00    +0.000 F 
ATOM     16  F   UNL     1       8.582   9.746   2.505  0.00  0.00    +0.000 F 
ENDBRANCH  10  13
ENDBRANCH   4   7
ENDBRANCH   1   2
BRANCH   1  19
ATOM     17  O   UNL     1       1.074  -0.073   0.302  0.00  0.00    +0.000 OA
ATOM     18  C   UNL     1       2.304  -0.052   0.231  0.00  0.00    +0.000 C 
ATOM     19  N   UNL     1       3.060   0.918   0.857  0.00  0.00    +0.000 N 
ATOM     20  H   UNL     1       4.062   0.927   0.707  0.00  0.00    +0.000 HD
BRANCH  18  21
ATOM     21  C   UNL     1       3.028  -1.076  -0.584  0.00  0.00    +0.000 A 
ATOM     22  C   UNL     1       2.267  -1.978  -1.317  0.00  0.00    +0.000 A 
ATOM     23  C   UNL     1       2.921  -2.880  -2.141  0.00  0.00    +0.000 A 
ATOM     24  C   UNL     1       4.315  -2.857  -2.216  0.00  0.00    +0.000 A 
ATOM     25  C   UNL     1       5.000  -3.719  -3.085  0.00  0.00    +0.000 A 
ATOM     26  C   UNL     1       6.378  -3.644  -3.139  0.00  0.00    +0.000 A 
ATOM     27  N   UNL     1       7.100  -2.807  -2.371  0.00  0.00    +0.000 NA
ATOM     28  C   UNL     1       6.399  -1.991  -1.534  0.00  0.00    +0.000 A 
ATOM     29  C   UNL     1       5.016  -1.932  -1.413  0.00  0.00    +0.000 A 
ATOM     30  N   UNL     1       4.389  -1.041  -0.601  0.00  0.00    +0.000 NA
ENDBRANCH  18  21
ENDBRANCH   1  19
TORSDOF 5
